Infrared Spectrum: Methylnadic anhydride
Formula: C 10 H 10 O 3
CAS: 25134-21-8
State: gas
Origin: EPA-IR VAPOR PHASE LIBRARY
1/CM	ABSORBANCE
549.8	0.001628
559.445	0.001778
569.09	0.003328
578.734	0.004478
588.379	0.005088
598.024	0.003958
607.669	0.004168
617.313	0.007318
626.958	0.009138
636.603	0.006238
646.248	0.002938
655.893	0.002668
665.537	0.002938
675.182	0.002428
684.827	0.003148
694.472	0.004738
704.116	0.007938
713.761	0.007588
723.406	0.002518
733.051	0.001328
742.695	0.001158
752.34	0.001908
761.985	0.001778
771.63	0.001958
781.275	0.004948
790.919	0.010798
800.564	0.011688
810.209	0.005688
819.854	0.003628
829.498	0.006268
839.143	0.013038
848.788	0.008048
858.433	0.006898
868.078	0.009588
877.722	0.014408
887.367	0.030038
897.012	0.046978
906.657	0.069518
916.301	0.090278
925.946	0.081988
935.591	0.056448
945.236	0.030908
954.88	0.011308
964.525	0.004848
974.17	0.003858
983.815	0.004188
993.46	0.004628
1003.1	0.004928
1012.75	0.005678
1022.39	0.005458
1032.04	0.008468
1041.68	0.012518
1051.33	0.015098
1060.97	0.022608
1070.62	0.040488
1080.26	0.054798
1089.91	0.043138
1099.55	0.018058
1109.2	0.008368
1118.84	0.005078
1128.49	0.004258
1138.13	0.004038
1147.78	0.003618
1157.42	0.003598
1167.07	0.004548
1176.71	0.006988
1186.36	0.011638
1196	0.021028
1205.64	0.040368
1215.29	0.059638
1224.93	0.056258
1234.58	0.035218
1244.22	0.019618
1253.87	0.017188
1263.51	0.016588
1273.16	0.013878
1282.8	0.012628
1292.45	0.011418
1302.09	0.008838
1311.74	0.006728
1321.38	0.006118
1331.03	0.004918
1340.67	0.003648
1350.32	0.003308
1359.96	0.003048
1369.61	0.003028
1379.25	0.003548
1388.9	0.003888
1398.54	0.002448
1408.18	0.001748
1417.83	0.001948
1427.47	0.002898
1437.12	0.005238
1446.76	0.007608
1456.41	0.007468
1466.05	0.005638
1475.7	0.003428
1485.34	0.001958
1494.99	0.001608
1504.63	0.001588
1514.28	0.001738
1523.92	0.001808
1533.57	0.001648
1543.21	0.001438
1552.86	0.001358
1562.5	0.001628
1572.15	0.001928
1581.79	0.002248
1591.44	0.002478
1601.08	0.002678
1610.73	0.003128
1620.37	0.003628
1630.01	0.003138
1639.66	0.001918
1649.3	0.001498
1658.95	0.001598
1668.59	0.001788
1678.24	0.002038
1687.88	0.002308
1697.53	0.002608
1707.17	0.002938
1716.82	0.003698
1726.46	0.005058
1736.11	0.006518
1745.75	0.008608
1755.4	0.012498
1765.04	0.021588
1774.69	0.043808
1784.33	0.112238
1793.98	0.231398
1803.62	0.251938
1813.27	0.138498
1822.91	0.055148
1832.55	0.033108
1842.2	0.027068
1851.84	0.029208
1861.49	0.042238
1871.13	0.054108
1880.78	0.042148
1890.42	0.019128
1900.07	0.008158
1909.71	0.005228
1919.36	0.004508
1929	0.003788
1938.65	0.002808
1948.29	0.002018
1957.94	0.001588
1967.58	0.001458
1977.23	0.001418
1986.87	0.001398
1996.52	0.001458
2006.16	0.001458
2015.81	0.001238
2025.45	0.0009485
2035.1	0.0007598
2044.74	0.0007408
2054.38	0.0007928
2064.03	0.0008055
2073.67	0.0008483
2083.32	0.0008643
2092.96	0.0010039
2102.61	0.001258
2112.25	0.001588
2121.9	0.001858
2131.54	0.002028
2141.19	0.002088
2150.83	0.001848
2160.48	0.001578
2170.12	0.001198
2179.77	0.001033
2189.41	0.0008026
2199.06	0.0007523
2208.7	0.0007335
2218.35	0.0007315
2227.99	0.0006656
2237.64	0.0005924
2247.28	0.0006628
2256.92	0.0007265
2266.57	0.0008561
2276.21	0.0009031
2285.86	0.0010015
2295.5	0.0010298
2305.15	0.0009048
2314.79	0.0008354
2324.44	0.0006872
2334.08	0.0006978
2343.73	0.0005995
2353.37	0.0006438
2363.02	0.0005963
2372.66	0.0004886
2382.31	0.0004406
2391.95	0.0004788
2401.6	0.0005693
2411.24	0.0006055
2420.89	0.0006845
2430.53	0.0005823
2440.18	0.0004337
2449.82	0.0003666
2459.47	0.0003737
2469.11	0.0003711
2478.75	0.0003651
2488.4	0.0004036
2498.04	0.0003151
2507.69	0.000355
2517.33	0.0003048
2526.98	0.00021135
2536.62	0.00016201
2546.27	0.0002356
2555.91	0.0002658
2565.56	0.0002193
2575.2	0.00012855
2584.85	0.00016476
2594.49	0.00013676
2604.14	0.00019418
2613.78	5.12e-05
2623.43	5.19e-05
2633.07	0.00014325
2642.72	8.84e-05
2652.36	8.49e-05
2662.01	0.0001049
2671.65	0.00020733
2681.29	0.000185
2690.94	0.00013647
2700.58	0.0001424
2710.23	0.0002696
2719.87	0.00020651
2729.52	0.0002236
2739.16	0.0006632
2748.81	0.0007272
2758.45	0.0005739
2768.1	0.0003525
2777.74	0.0003859
2787.39	0.0003394
2797.03	0.0004207
2806.68	0.0004841
2816.32	0.0006959
2825.97	0.0008005
2835.61	0.0010659
2845.26	0.001518
2854.9	0.002868
2864.55	0.005738
2874.19	0.008468
2883.84	0.009728
2893.48	0.009118
2903.12	0.006388
2912.77	0.006928
2922.41	0.010158
2932.06	0.011278
2941.7	0.012928
2951.35	0.013978
2960.99	0.014328
2970.64	0.021618
2980.28	0.029718
2989.93	0.028148
2999.57	0.024198
3009.22	0.013888
3018.86	0.004088
3028.51	0.001628
3038.15	0.001538
3047.8	0.002158
3057.44	0.003908
3067.09	0.005598
3076.73	0.004378
3086.38	0.002298
3096.02	0.001448
3105.67	0.0010066
3115.31	0.0007524
3124.95	0.0003973
3134.6	0.000395
3144.24	0.0002472
3153.89	0.0002815
3163.53	0.00016081
3173.18	0.00016233
3182.82	0.00011355
3192.47	0.00015611
3202.11	0.0001586
3211.76	0.0002402
3221.4	0.00014189
3231.05	0.00021107
3240.69	0.0001285
3250.34	0.00021608
3259.98	7.03e-05
3269.63	0.000123758
3279.27	0.00013485
3288.92	0.00020291
3298.56	0.0002526
3308.21	0.00020986
3317.85	4.11e-05
3327.49	0.000159
3337.14	0.00015412
3346.78	0.0001076
3356.43	0.00014784
3366.07	0.0001023
3375.72	0.00021069
3385.36	7.07e-05
3395.01	0.00020316
3404.65	0.00016143
3414.3	3.94e-05
3423.94	6.3e-05
3433.59	0.0002023
3443.23	0.0003695
3452.88	0.00021542
3462.52	0.00017026
3472.17	0.0002802
3481.81	0.0003589
3491.46	0.0002447
3501.1	0.0004396
3510.75	0.00020829
3520.39	0.0003821
3530.04	0.0005018
3539.68	0.000461
3549.32	0.0005559
3558.97	0.0006321
3568.61	0.0008583
3578.26	0.0010796
3587.9	0.001368
3597.55	0.001388
3607.19	0.001688
3616.84	0.001808
3626.48	0.001878
3636.13	0.002468
3645.77	0.002978
3655.42	0.002768
3665.06	0.002028
3674.71	0.001258
3684.35	0.0008571
3694	0.0007177
3703.64	0.0007817
3713.29	0.0005732
3722.93	0.0006633
3732.58	0.0007035
3742.22	0.0006961
3751.86	0.0006936
3761.51	0.0005871
3771.15	0.0005234
3780.8	0.0006001
3790.44	0.0004177
3800.09	0.0004742
3809.73	0.000487
3819.38	0.0004524
3829.02	0.0004915
3838.67	0.0003735
3848.31	0.0002939
3857.96	0.0004765
3867.6	0.0004142
3877.25	0.0004335
3886.89	0.0006293
3896.54	0.0005315
3906.18	0.0006772
3915.83	0.000443
3925.47	0.0005586
3935.12	0.0004037
3944.76	0.0003923
3954.41	0.0003866
3964.05	0.0005726
3973.69	0.0006885
3983.34	0.0005134
3992.98	0.0005155
