Infrared Spectrum: PROPANOIC ACID, 2-(2-CHLOROPHENOXY)-
Formula: C9 H9 Cl O3
CAS: 25140-86-7
State: SOLID (SPLIT MULL, FLUOROLUBE FOR 3800-1333 AND NUJOL FOR 1333-400 CM ^-^1)
Melting point: 114 C
Class: COBLENTZ III
Instrument: BECKMAN IR-9 (GRATING)
Instrument parameters: ORDER CHANGES AT 670, 1200, 2000 CM^-^1
Sampling: TRANSMISSION
Resolution: 4
Origin: DOW CHEMICAL COMPANY
1/CM	TRANSMITTANCE
405.063	0.781
413.607	0.718
422.152	0.691
430.696	0.641
439.24	0.638
447.784	0.7068
456.329	0.759
464.873	0.79
473.417	0.823
481.962	0.836
490.506	0.851
499.05	0.856
507.595	0.864
516.139	0.877
524.683	0.884
533.227	0.886
541.772	0.883
550.316	0.893
558.86	0.892
567.405	0.861
575.949	0.879
584.493	0.877
593.038	0.895
601.582	0.8172
610.126	0.89
618.67	0.908
627.215	0.911
635.759	0.911
644.303	0.908
652.848	0.902
661.392	0.884
669.936	0.864
678.481	0.7661
687.025	0.635
695.569	0.3482
704.113	0.803
712.658	0.837
721.202	0.825
729.746	0.824
738.291	0.749
746.835	0.383
755.379	0.4568
763.924	0.8029
772.468	0.877
781.012	0.884
789.556	0.886
798.101	0.871
806.645	0.787
815.189	0.855
823.734	0.876
832.278	0.865
840.822	0.811
849.367	0.7721
857.911	0.845
866.455	0.859
874.999	0.851
883.544	0.831
892.088	0.811
900.632	0.792
909.177	0.755
917.721	0.7
926.265	0.6231
934.809	0.5659
943.354	0.556
951.898	0.5421
960.442	0.684
968.987	0.743
977.531	0.762
986.075	0.805
994.62	0.828
1003.16	0.836
1011.71	0.836
1020.25	0.828
1028.8	0.806
1037.34	0.725
1045.89	0.4738
1054.43	0.5999
1062.97	0.3986
1071.52	0.797
1080.06	0.797
1088.61	0.741
1097.15	0.4616
1105.7	0.3029
1114.24	0.7429
1122.78	0.743
1131.33	0.4041
1139.87	0.6289
1148.42	0.21
1156.96	0.768
1165.51	0.7
1174.05	0.828
1182.59	0.834
1191.14	0.827
1199.68	0.809
1208.23	0.784
1216.77	0.73
1225.32	0.5611
1233.86	0.2661
1242.4	0.03
1250.95	0.156
1259.49	0.308
1268.04	0.6619
1276.58	0.4242
1285.13	0.392
1293.67	0.436
1302.21	0.6789
1310.76	0.659
1319.3	0.646
1327.85	0.778
1336.39	0.781
1344.94	0.653
1353.48	0.843
1362.02	0.91
1370.57	0.917
1379.11	0.8389
1387.66	0.918
1396.2	0.938
1404.75	0.917
1413.29	0.864
1421.83	0.831
1430.38	0.69
1438.92	0.862
1447.47	0.5672
1456.01	0.6057
1464.56	0.469
1473.1	0.7551
1481.64	0.3111
1490.19	0.2889
1498.73	0.821
1507.28	0.983
1515.82	0.989
1524.37	1.011
1532.91	1.022
1541.45	1.026
1550	1.022
1558.54	1.019
1567.09	0.998
1575.63	0.8831
1584.18	0.865
1592.72	0.563
1601.26	0.977
1609.81	0.997
1618.35	0.991
1626.9	0.985
1635.44	0.983
1643.99	0.971
1652.53	0.952
1661.07	0.927
1669.62	0.914
1678.16	0.88
1686.71	0.839
1695.25	0.79
1703.8	0.6711
1712.34	0.538
1720.88	0.5281
1729.43	0.2221
1737.97	0.033
1746.52	0.3239
1755.06	0.764
1763.61	0.882
1772.15	0.921
1780.7	0.946
1789.24	0.946
1797.78	0.942
1806.33	0.952
1814.87	0.964
1823.42	0.98
1831.96	0.989
1840.51	0.991
1849.05	0.994
1857.59	0.991
1866.14	0.997
1874.68	1
1883.23	0.998
1891.77	0.994
1900.32	0.963
1908.86	0.989
1917.4	0.998
1925.95	1
1934.49	1
1943.04	0.983
1951.58	0.995
1960.13	1.002
1968.67	1.005
1977.21	1.005
1985.76	1.001
1994.3	0.998
2002.85	0.997
2011.39	0.998
2019.94	0.9989
2028.48	0.995
2037.02	0.991
2045.57	0.9848
2054.11	0.9777
2062.66	0.976
2071.2	0.974
2079.75	0.97
2088.29	0.967
2096.83	0.966
2105.38	0.963
2113.92	0.963
2122.47	0.963
2131.01	0.963
2139.56	0.96
2148.1	0.9562
2156.64	0.9522
2165.19	0.948
2173.73	0.9421
2182.28	0.936
2190.82	0.933
2199.37	0.93
2207.91	0.9289
2216.45	0.9234
2225	0.9148
2233.54	0.9074
2242.09	0.8989
2250.63	0.8923
2259.18	0.8868
2267.72	0.882
2276.26	0.8768
2284.81	0.8715
2293.35	0.8695
2301.9	0.867
2310.44	0.8601
2318.99	0.8522
2327.53	0.851
2336.07	0.848
2344.62	0.8442
2353.16	0.843
2361.71	0.843
2370.25	0.842
2378.8	0.8355
2387.34	0.831
2395.88	0.8275
2404.43	0.8239
2412.97	0.8189
2421.52	0.809
2430.06	0.8038
2438.61	0.7939
2447.15	0.782
2455.69	0.7706
2464.24	0.765
2472.78	0.7633
2481.33	0.756
2489.87	0.755
2498.42	0.7436
2506.96	0.7247
2515.5	0.7073
2524.05	0.6923
2532.59	0.6741
2541.14	0.665
2549.68	0.6749
2558.23	0.675
2566.77	0.679
2575.31	0.6815
2583.86	0.674
2592.4	0.669
2600.95	0.6711
2609.49	0.6772
2618.04	0.675
2626.58	0.6754
2635.12	0.6675
2643.67	0.659
2652.21	0.6704
2660.76	0.6922
2669.3	0.6963
2677.85	0.691
2686.39	0.6946
2694.93	0.696
2703.48	0.681
2712.02	0.6693
2720.57	0.6722
2729.11	0.6665
2737.66	0.6551
2746.2	0.6619
2754.74	0.657
2763.29	0.648
2771.83	0.658
2780.38	0.6589
2788.92	0.6423
2797.47	0.6308
2806.01	0.6254
2814.56	0.6147
2823.1	0.5942
2831.64	0.5785
2840.19	0.5693
2848.73	0.5626
2857.28	0.558
2865.82	0.5555
2874.37	0.554
2882.91	0.557
2891.45	0.5597
2900	0.5634
2908.54	0.5699
2917.09	0.573
2925.63	0.5575
2934.18	0.5644
2942.72	0.579
2951.26	0.58
2959.81	0.603
2968.35	0.6111
2976.9	0.615
2985.44	0.6226
2993.99	0.6197
3002.53	0.6067
3011.07	0.6199
3019.62	0.615
3028.16	0.619
3036.71	0.62
3045.25	0.6282
3053.8	0.631
3062.34	0.631
3070.88	0.6282
3079.43	0.6343
3087.97	0.6637
3096.52	0.6784
3105.06	0.6868
3113.61	0.6948
3122.15	0.7059
3130.69	0.7164
3139.24	0.724
3147.78	0.7375
3156.33	0.746
3164.87	0.7566
3173.42	0.7651
3181.96	0.7702
3190.5	0.7752
3199.05	0.7836
3207.59	0.7903
3216.14	0.794
3224.68	0.7992
3233.23	0.8027
3241.77	0.808
3250.31	0.8118
3258.86	0.8156
3267.4	0.82
3275.95	0.8233
3284.49	0.825
3293.04	0.828
3301.58	0.828
3310.12	0.83
3318.67	0.831
3327.21	0.833
3335.76	0.833
3344.3	0.833
3352.85	0.831
3361.39	0.83
3369.93	0.83
3378.48	0.828
3387.02	0.8267
3395.57	0.825
3404.11	0.825
3412.66	0.825
3421.2	0.825
3429.74	0.825
3438.29	0.825
3446.83	0.825
3455.38	0.824
3463.92	0.8232
3472.47	0.823
3481.01	0.821
3489.55	0.821
3498.1	0.82
3506.64	0.818
3515.19	0.817
3523.73	0.815
3532.28	0.814
3540.82	0.814
3549.36	0.811
3557.91	0.808
3566.45	0.806
3575	0.8038
3583.54	0.796
3592.09	0.7997
3600.63	0.802
3609.17	0.8
3617.72	0.8
3626.26	0.799
3634.81	0.797
3643.35	0.796
3651.9	0.794
3660.44	0.793
3668.98	0.792
3677.53	0.792
3686.07	0.7912
3694.62	0.789
3703.16	0.786
3711.71	0.784
3720.25	0.783
3728.79	0.781
3737.34	0.778
3745.88	0.7779
3754.43	0.7758
3762.97	0.774
3771.52	0.772
3780.06	0.7707
3788.61	0.768
