Infrared Spectrum: Nonylphenol
Formula: C 15 H 24 O
CAS: 25154-52-3
State: gas
Origin: EPA-IR VAPOR PHASE LIBRARY
1/CM	ABSORBANCE
549.8	0.00733
559.445	0.00861
569.09	0.00806
578.734	0.00556
588.379	0.00456
598.024	0.00334
607.669	0.00273
617.313	0.00234
626.958	0.00242
636.603	0.00269
646.248	0.00317
655.893	0.00383
665.537	0.00413
675.182	0.00334
684.827	0.00279
694.472	0.0025
704.116	0.00232
713.761	0.00244
723.406	0.00285
733.051	0.00332
742.695	0.00332
752.34	0.00338
761.985	0.00364
771.63	0.0046
781.275	0.00575
790.919	0.00722
800.564	0.01089
810.209	0.01256
819.854	0.02178
829.498	0.02618
839.143	0.01092
848.788	0.00607
858.433	0.00446
868.078	0.0037
877.722	0.00338
887.367	0.00287
897.012	0.00283
906.657	0.00283
916.301	0.00285
925.946	0.00294
935.591	0.00306
945.236	0.00292
954.88	0.00281
964.525	0.00311
974.17	0.00318
983.815	0.0031
993.46	0.00326
1003.1	0.00464
1012.75	0.00657
1022.39	0.00392
1032.04	0.00328
1041.68	0.00311
1051.33	0.00318
1060.97	0.00326
1070.62	0.00382
1080.26	0.00466
1089.91	0.00629
1099.55	0.00792
1109.2	0.00893
1118.84	0.00898
1128.49	0.00905
1138.13	0.0087
1147.78	0.01036
1157.42	0.02015
1167.07	0.0666
1176.71	0.10292
1186.36	0.04516
1196	0.02372
1205.64	0.01493
1215.29	0.01141
1224.93	0.01065
1234.58	0.01166
1244.22	0.016
1253.87	0.03869
1263.51	0.04261
1273.16	0.01289
1282.8	0.00892
1292.45	0.00767
1302.09	0.00707
1311.74	0.00786
1321.38	0.01167
1331.03	0.01365
1340.67	0.01129
1350.32	0.00921
1359.96	0.00967
1369.61	0.01308
1379.25	0.0159
1388.9	0.01502
1398.54	0.00828
1408.18	0.00685
1417.83	0.00957
1427.47	0.01087
1437.12	0.00837
1446.76	0.00975
1456.41	0.01435
1466.05	0.01848
1475.7	0.0168
1485.34	0.01284
1494.99	0.0158
1504.63	0.04014
1514.28	0.06253
1523.92	0.02207
1533.57	0.00838
1543.21	0.00577
1552.86	0.00509
1562.5	0.00464
1572.15	0.00491
1581.79	0.0072
1591.44	0.01264
1601.08	0.01497
1610.73	0.0184
1620.37	0.01227
1630.01	0.00553
1639.66	0.00377
1649.3	0.00313
1658.95	0.00276
1668.59	0.00243
1678.24	0.00224
1687.88	0.00216
1697.53	0.00197
1707.17	0.00199
1716.82	0.00195
1726.46	0.00207
1736.11	0.00222
1745.75	0.00246
1755.4	0.00228
1765.04	0.00195
1774.69	0.00183
1784.33	0.0017
1793.98	0.00159
1803.62	0.00159
1813.27	0.00163
1822.91	0.00173
1832.55	0.00182
1842.2	0.00194
1851.84	0.00216
1861.49	0.00228
1871.13	0.00254
1880.78	0.00247
1890.42	0.00201
1900.07	0.00184
1909.71	0.00161
1919.36	0.00154
1929	0.00146
1938.65	0.00141
1948.29	0.00136
1957.94	0.00135
1967.58	0.00137
1977.23	0.00145
1986.87	0.00147
1996.52	0.00147
2006.16	0.00151
2015.81	0.00148
2025.45	0.00142
2035.1	0.00132
2044.74	0.00129
2054.38	0.00131
2064.03	0.00142
2073.67	0.00143
2083.32	0.00135
2092.96	0.00136
2102.61	0.00123
2112.25	0.00108
2121.9	0.000961
2131.54	0.0009438
2141.19	0.0009004
2150.83	0.0009061
2160.48	0.0009488
2170.12	0.000941
2179.77	0.0009565
2189.41	0.0009965
2199.06	0.0009058
2208.7	0.000922
2218.35	0.0009647
2227.99	0.000956
2237.64	0.00103
2247.28	0.00105
2256.92	0.00103
2266.57	0.0011
2276.21	0.00114
2285.86	0.00118
2295.5	0.00118
2305.15	0.0012
2314.79	0.0012
2324.44	0.00121
2334.08	0.00133
2343.73	0.00141
2353.37	0.00145
2363.02	0.00138
2372.66	0.00138
2382.31	0.00131
2391.95	0.00132
2401.6	0.00136
2411.24	0.00155
2420.89	0.0019
2430.53	0.00231
2440.18	0.00203
2449.82	0.00165
2459.47	0.00141
2469.11	0.00135
2478.75	0.00129
2488.4	0.0013
2498.04	0.00134
2507.69	0.00144
2517.33	0.00144
2526.98	0.0014
2536.62	0.00137
2546.27	0.0013
2555.91	0.00129
2565.56	0.00136
2575.2	0.00142
2584.85	0.00145
2594.49	0.00164
2604.14	0.00166
2613.78	0.00168
2623.43	0.00168
2633.07	0.00164
2642.72	0.0017
2652.36	0.00174
2662.01	0.00175
2671.65	0.00172
2681.29	0.00178
2690.94	0.0019
2700.58	0.00196
2710.23	0.00204
2719.87	0.00214
2729.52	0.00245
2739.16	0.00265
2748.81	0.0026
2758.45	0.00253
2768.1	0.00264
2777.74	0.00277
2787.39	0.00293
2797.03	0.00325
2806.68	0.00368
2816.32	0.00428
2825.97	0.00518
2835.61	0.0065
2845.26	0.00952
2854.9	0.0153
2864.55	0.0226
2874.19	0.03214
2883.84	0.04011
2893.48	0.03602
2903.12	0.03642
2912.77	0.04535
2922.41	0.0553
2932.06	0.06377
2941.7	0.06576
2951.35	0.06145
2960.99	0.08749
2970.64	0.10332
2980.28	0.06459
2989.93	0.03034
2999.57	0.01678
3009.22	0.01316
3018.86	0.01169
3028.51	0.0135
3038.15	0.0132
3047.8	0.0088
3057.44	0.00837
3067.09	0.00898
3076.73	0.00788
3086.38	0.00587
3096.02	0.00523
3105.67	0.00503
3115.31	0.00418
3124.95	0.00341
3134.6	0.00298
3144.24	0.00258
3153.89	0.00237
3163.53	0.00224
3173.18	0.00217
3182.82	0.00207
3192.47	0.00197
3202.11	0.00185
3211.76	0.00166
3221.4	0.00156
3231.05	0.00162
3240.69	0.00136
3250.34	0.00134
3259.98	0.00141
3269.63	0.00129
3279.27	0.00133
3288.92	0.00132
3298.56	0.00137
3308.21	0.0013
3317.85	0.00126
3327.49	0.00125
3337.14	0.00127
3346.78	0.00161
3356.43	0.00168
3366.07	0.00151
3375.72	0.00144
3385.36	0.00159
3395.01	0.00154
3404.65	0.00133
3414.3	0.00137
3423.94	0.00154
3433.59	0.00146
3443.23	0.00138
3452.88	0.00131
3462.52	0.00138
3472.17	0.00143
3481.81	0.00141
3491.46	0.00142
3501.1	0.00128
3510.75	0.00116
3520.39	0.00124
3530.04	0.00116
3539.68	0.0012
3549.32	0.00115
3558.97	0.00119
3568.61	0.00112
3578.26	0.00129
3587.9	0.00129
3597.55	0.00148
3607.19	0.00179
3616.84	0.00216
3626.48	0.00298
3636.13	0.00687
3645.77	0.02762
3655.42	0.03729
3665.06	0.00661
3674.71	0.00249
3684.35	0.00195
3694	0.00168
3703.64	0.00156
3713.29	0.00137
3722.93	0.00147
3732.58	0.00141
3742.22	0.0011
3751.86	0.00113
3761.51	0.00138
3771.15	0.00142
3780.8	0.0013
3790.44	0.00122
3800.09	0.00129
3809.73	0.00126
3819.38	0.00134
3829.02	0.00127
3838.67	0.00157
3848.31	0.00133
3857.96	0.00144
3867.6	0.00149
3877.25	0.00151
3886.89	0.00158
3896.54	0.00154
3906.18	0.0016
3915.83	0.00169
3925.47	0.00159
3935.12	0.00153
3944.76	0.00166
3954.41	0.0016
3964.05	0.00144
3973.69	0.00135
3983.34	0.00145
3992.98	0.00135
