Infrared Spectrum: 2-Chloro-5-nitrobenzoic acid
Formula: C 7 H 4 Cl N O 4
CAS: 2516-96-3
State: gas
Instrument: HP-GC/MS/IRD
Origin: NIST Mass Spectrometry Data Center
1/CM	ABSORBANCE
550	0.0033516
562	0.0060102
574	0.0074088
586	0.0092358
598	0.0094332
610	0.0047082
622	0.0041328
634	0.0096516
646	0.0062496
658	0.0022218
670	0.00168
682	0.0027342
694	0.0046452
706	0.003612
718	0.001281
730	0.0025914
742	0.0043596
754	0.001995
766	0.0014868
778	0.0034398
790	0.0058422
802	0.0022092
814	0.000756
826	0.0024654
838	0.0045906
850	0.0013272
862	0.0004032
874	0.0009114
886	0.0034188
898	0.0066654
910	0.0032466
922	0.0028098
934	0.0010584
946	0.0001638
958	5.04e-05
970	7.98e-05
982	0.0001218
994	0.000189
1006	0.0005712
1018	0.001491
1030	0.0053298
1042	0.0128436
1054	0.0085722
1066	0.0042714
1078	0.0048846
1090	0.0092694
1102	0.0179592
1114	0.0284634
1126	0.0196392
1138	0.0091266
1150	0.0067746
1162	0.0072576
1174	0.012201
1186	0.0153342
1198	0.009492
1210	0.005439
1222	0.0036372
1234	0.003234
1246	0.0054978
1258	0.0060018
1270	0.0046032
1282	0.0051156
1294	0.0063378
1306	0.008505
1318	0.0130914
1330	0.0193452
1342	0.0300678
1354	0.034587
1366	0.012726
1378	0.0052164
1390	0.0044226
1402	0.0064344
1414	0.0072618
1426	0.0044142
1438	0.003255
1450	0.0036876
1462	0.006468
1474	0.0060102
1486	0.0034902
1498	0.0040488
1510	0.003801
1522	0.0051996
1534	0.0150444
1546	0.0268842
1558	0.0172872
1570	0.0114324
1582	0.0107352
1594	0.009324
1606	0.011928
1618	0.0081816
1630	0.002646
1642	0.0017724
1654	0.0014406
1666	0.001155
1678	0.0009954
1690	0.0011004
1702	0.0012978
1714	0.0019698
1726	0.0039858
1738	0.0080514
1750	0.01554
1762	0.0281778
1774	0.042
1786	0.0252294
1798	0.0128646
1810	0.0061488
1822	0.0024528
1834	0.001302
1846	0.0007854
1858	0.0004662
1870	0.000378
1882	0.0003402
1894	0.0003234
1906	0.000357
1918	0.000546
1930	0.0004242
1942	0.0001596
1954	9.66e-05
1966	0.0001008
1978	9.66e-05
1990	4.2e-05
2002	5.46e-05
2014	4.2e-05
2026	8.4e-06
2038	1.26e-05
2050	2.94e-05
2062	2.94e-05
2074	8.4e-05
2086	8.82e-05
2098	3.78e-05
2110	4.2e-05
2122	3.78e-05
2134	4.2e-05
2146	7.14e-05
2158	5.04e-05
2170	5.46e-05
2182	6.3e-05
2194	5.46e-05
2206	9.66e-05
2218	0.000105
2230	0.000126
2242	0.0001806
2254	0.0001386
2266	0.0001428
2278	0.0001722
2290	0.0001722
2302	0.000231
2314	0.0003024
2326	0.0003822
2338	0.0003696
2350	0.0003696
2362	0.0005082
2374	0.00042
2386	0.0001596
2398	0.0001176
2410	7.14e-05
2422	0.0001386
2434	0.0001848
2446	0.0002352
2458	0.0001638
2470	0.0001722
2482	0.0001344
2494	8.4e-05
2506	9.24e-05
2518	0.0001134
2530	0.0001176
2542	0.0001218
2554	0.000147
2566	9.66e-05
2578	0.0001218
2590	5.88e-05
2602	8.4e-05
2614	3.36e-05
2626	4.2e-05
2638	3.78e-05
2650	7.14e-05
2662	0.0001134
2674	0.0001848
2686	0.0002142
2698	0.000273
2710	0.0001596
2722	9.66e-05
2734	9.66e-05
2746	8.82e-05
2758	2.94e-05
2770	5.04e-05
2782	4.62e-05
2794	5.04e-05
2806	7.14e-05
2818	0.0001134
2830	0.0001386
2842	0.0002016
2854	0.000315
2866	0.0004536
2878	0.0006384
2890	0.0006468
2902	0.000504
2914	0.0003864
2926	0.0003822
2938	0.0003066
2950	0.0002604
2962	0.0002604
2974	0.0002226
2986	0.0002142
2998	0.0001638
3010	0.0001848
3022	0.0001596
3034	0.0002268
3046	0.0002478
3058	0.0002394
3070	0.000483
3082	0.00105
3094	0.0016086
3106	0.0010164
3118	0.0005712
3130	0.0002268
3142	0.0001344
3154	0.0001134
3166	6.3e-05
3178	0.0001092
3190	0.0001554
3202	7.14e-05
3214	0.0001218
3226	9.66e-05
3238	5.04e-05
3250	9.24e-05
3262	8.4e-05
3274	7.56e-05
3286	7.98e-05
3298	9.66e-05
3310	0.0001134
3322	9.24e-05
3334	5.46e-05
3346	7.98e-05
3358	0.000168
3370	0.000168
3382	0.0002058
3394	0.0001344
3406	0.0001974
3418	0.000147
3430	0.0002184
3442	0.0003024
3454	0.0002856
3466	0.0002814
3478	0.0002562
3490	0.0004494
3502	0.0005292
3514	0.0007182
3526	0.0009366
3538	0.0015162
3550	0.0026964
3562	0.0125874
3574	0.0199164
3586	0.0081144
3598	0.0016632
3610	0.0008904
3622	0.000609
3634	0.0004746
3646	0.0003528
3658	0.0003108
3670	0.0002604
3682	0.0002856
3694	0.000273
3706	0.0002436
3718	0.0002856
3730	0.0002772
3742	0.0002898
3754	0.0002604
3766	0.0002394
3778	0.0002604
3790	0.0002226
3802	0.0002772
3814	0.0002604
3826	0.000273
3838	0.0001974
