Infrared Spectrum: 5-Chloro-2-nitrobenzoic acid
Formula: C 7 H 4 Cl N O 4
CAS: 2516-95-2
State: gas
Instrument: HP-GC/MS/IRD
Origin: NIST Mass Spectrometry Data Center
1/CM	ABSORBANCE
550	0.0016116
562	0.0026129
574	0.0032589
586	0.0034391
598	0.0026333
610	0.0012818
622	0.0013583
634	0.0028577
646	0.0012274
658	0.0003757
670	0.0003893
682	0.0006103
694	0.0014518
706	0.001411
718	0.0004488
730	0.0005406
742	0.0010897
754	0.0012274
766	0.0007395
778	0.0009724
790	0.001275
802	0.0005083
814	0.0005219
826	0.0013175
838	0.002057
850	0.0009435
862	0.0023902
874	0.003026
886	0.0012376
898	0.0014756
910	0.0004998
922	0.0003434
934	5.27e-05
946	1.02e-05
958	5.44e-05
970	7.31e-05
982	5.27e-05
994	5.61e-05
1006	0.0001156
1018	0.0003281
1030	0.0009537
1042	0.0021777
1054	0.002312
1066	0.0020621
1078	0.0018836
1090	0.0033473
1102	0.0068986
1114	0.0094469
1126	0.0061574
1138	0.0027438
1150	0.0023919
1162	0.0032028
1174	0.005372
1186	0.0069462
1198	0.0042381
1210	0.0017918
1222	0.0010591
1234	0.0008823
1246	0.0012733
1258	0.0015368
1270	0.0014977
1282	0.0018938
1294	0.0023766
1306	0.0027523
1318	0.0038998
1330	0.0055301
1342	0.0090848
1354	0.0107848
1366	0.0060384
1378	0.0035224
1390	0.0027523
1402	0.0027081
1414	0.001955
1426	0.0012189
1438	0.0009129
1450	0.0010268
1462	0.0015776
1474	0.0018088
1486	0.0011747
1498	0.0010642
1510	0.0013464
1522	0.0025228
1534	0.0055505
1546	0.0100776
1558	0.0102765
1570	0.0079084
1582	0.0052836
1594	0.0029903
1606	0.0027166
1618	0.0017731
1630	0.0008908
1642	0.0007463
1654	0.0004981
1666	0.0003706
1678	0.0003757
1690	0.0003179
1702	0.0003876
1714	0.0005542
1726	0.0010268
1738	0.0021726
1750	0.0047668
1762	0.0092327
1774	0.0161908
1786	0.0124984
1798	0.0050796
1810	0.0019686
1822	0.0007531
1834	0.0003893
1846	0.0002533
1858	0.000221
1870	0.0001768
1882	0.0001513
1894	0.0001666
1906	0.0001921
1918	0.0001734
1930	9.86e-05
1942	5.78e-05
1954	2.89e-05
1966	3.23e-05
1978	1.7e-05
1990	3.23e-05
2002	3.57e-05
2014	1.19e-05
2026	1.19e-05
2038	5.1e-06
2050	8.5e-06
2062	5.1e-06
2074	2.38e-05
2086	1.7e-06
2098	1.87e-05
2110	4.25e-05
2122	3.57e-05
2134	5.1e-06
2146	3.74e-05
2158	1.87e-05
2170	2.04e-05
2182	1.02e-05
2194	5.1e-06
2206	1.7e-06
2218	2.72e-05
2230	1.36e-05
2242	2.89e-05
2254	3.06e-05
2266	5.27e-05
2278	3.91e-05
2290	6.97e-05
2302	9.35e-05
2314	0.0001649
2326	0.0002244
2338	0.0002091
2350	0.0002125
2362	0.0003145
2374	0.0002278
2386	6.63e-05
2398	5.61e-05
2410	3.57e-05
2422	5.95e-05
2434	6.97e-05
2446	4.93e-05
2458	5.44e-05
2470	3.57e-05
2482	3.57e-05
2494	3.4e-05
2506	1.19e-05
2518	3.57e-05
2530	4.42e-05
2542	2.04e-05
2554	2.04e-05
2566	4.25e-05
2578	2.55e-05
2590	1.19e-05
2602	2.04e-05
2614	3.57e-05
2626	4.08e-05
2638	5.1e-05
2650	2.21e-05
2662	2.89e-05
2674	8.84e-05
2686	7.14e-05
2698	6.29e-05
2710	7.99e-05
2722	6.8e-05
2734	2.55e-05
2746	3.06e-05
2758	1.87e-05
2770	2.72e-05
2782	3.06e-05
2794	6.8e-06
2806	3.06e-05
2818	2.38e-05
2830	9.01e-05
2842	0.0001088
2854	7.99e-05
2866	0.00017
2878	0.0002465
2890	0.0002142
2902	0.0001836
2914	0.0001853
2926	0.0001836
2938	0.0001122
2950	0.0001156
2962	0.0001258
2974	5.61e-05
2986	6.8e-05
2998	8.16e-05
3010	7.14e-05
3022	9.18e-05
3034	4.76e-05
3046	6.8e-05
3058	0.0001156
3070	0.0002142
3082	0.0003247
3094	0.0003315
3106	0.0002244
3118	0.0001394
3130	5.95e-05
3142	9.69e-05
3154	2.89e-05
3166	8.67e-05
3178	3.91e-05
3190	9.01e-05
3202	4.59e-05
3214	0.0001071
3226	8.67e-05
3238	4.25e-05
3250	3.91e-05
3262	6.29e-05
3274	0.0001105
3286	1.19e-05
3298	3.91e-05
3310	0.0001122
3322	1.19e-05
3334	2.72e-05
3346	6.29e-05
3358	2.89e-05
3370	4.59e-05
3382	2.04e-05
3394	0.0001105
3406	3.57e-05
3418	9.52e-05
3430	0.0001173
3442	0.0001173
3454	0.0001003
3466	8.5e-05
3478	8.67e-05
3490	0.0001411
3502	0.0002312
3514	0.00017
3526	0.0002686
3538	0.0004267
3550	0.0008092
3562	0.003723
3574	0.0086122
3586	0.0031756
3598	0.0007038
3610	0.000357
3622	0.0002499
3634	0.0001887
3646	8.67e-05
3658	0.0001037
3670	9.18e-05
3682	0.0001071
3694	8.16e-05
3706	0.0001037
3718	5.1e-06
3730	7.31e-05
3742	0.000102
3754	0.0001224
3766	6.12e-05
3778	0.0001054
3790	7.99e-05
3802	4.93e-05
3814	6.63e-05
3826	7.65e-05
3838	0.0001326
