Infrared Spectrum: 3-(3,4,5-Trimethoxyphenyl)propionic acid
Formula: C 12 H 16 O 5
CAS: 25173-72-2
State: gas
Origin: EPA-IR VAPOR PHASE LIBRARY
1/CM	ABSORBANCE
549.9	0.01082
559.547	0.01258
569.193	0.01494
578.84	0.01528
588.486	0.01306
598.133	0.01202
607.779	0.01129
617.426	0.01004
627.072	0.00902
636.719	0.00846
646.365	0.00793
656.012	0.00719
665.658	0.00609
675.305	0.00492
684.951	0.00416
694.598	0.00349
704.245	0.00302
713.891	0.0028014
723.538	0.0027071
733.184	0.00284
742.831	0.00371
752.477	0.00335
762.124	0.0032
771.77	0.00506
781.417	0.00626
791.063	0.00354
800.71	0.0026681
810.356	0.00276
820.003	0.00432
829.649	0.00592
839.296	0.00582
848.943	0.00533
858.589	0.00445
868.236	0.00332
877.882	0.00298
887.529	0.00335
897.175	0.00447
906.822	0.00467
916.468	0.00461
926.115	0.00537
935.761	0.00537
945.408	0.00545
955.054	0.00572
964.701	0.0061
974.347	0.00658
983.994	0.00726
993.64	0.00915
1003.29	0.01514
1012.93	0.02594
1022.58	0.02381
1032.23	0.01679
1041.87	0.02001
1051.52	0.01742
1061.17	0.01425
1070.81	0.01831
1080.46	0.02831
1090.11	0.04323
1099.75	0.0619
1109.4	0.08472
1119.05	0.09722
1128.69	0.07663
1138.34	0.05539
1147.99	0.03836
1157.63	0.02452
1167.28	0.01871
1176.92	0.01976
1186.57	0.02205
1196.22	0.02027
1205.86	0.02007
1215.51	0.02592
1225.16	0.03958
1234.8	0.04954
1244.45	0.04115
1254.1	0.02753
1263.74	0.02007
1273.39	0.01597
1283.04	0.0135
1292.68	0.01312
1302.33	0.01533
1311.98	0.02196
1321.62	0.02614
1331.27	0.02431
1340.92	0.0269
1350.56	0.02265
1360.21	0.01637
1369.86	0.01545
1379.5	0.01523
1389.15	0.01312
1398.79	0.01391
1408.44	0.02357
1418.09	0.03497
1427.73	0.03028
1437.38	0.02339
1447.03	0.01969
1456.67	0.02692
1466.32	0.02606
1475.97	0.02245
1485.61	0.02782
1495.26	0.04005
1504.91	0.03418
1514.55	0.01769
1524.2	0.00956
1533.85	0.00732
1543.49	0.00717
1553.14	0.00858
1562.79	0.01344
1572.43	0.02486
1582.08	0.03494
1591.73	0.0259
1601.37	0.01611
1611.02	0.01048
1620.67	0.00586
1630.31	0.00423
1639.96	0.00362
1649.6	0.00315
1659.25	0.00305
1668.9	0.00293
1678.54	0.00292
1688.19	0.00317
1697.84	0.00361
1707.48	0.00423
1717.13	0.00544
1726.78	0.00763
1736.42	0.01115
1746.07	0.01638
1755.72	0.02409
1765.36	0.03838
1775.01	0.0548
1784.66	0.04735
1794.3	0.02809
1803.95	0.01719
1813.6	0.01045
1823.24	0.00613
1832.89	0.00392
1842.54	0.0028174
1852.18	0.0022383
1861.83	0.0019836
1871.47	0.0018223
1881.12	0.0017866
1890.77	0.0017646
1900.41	0.0017615
1910.06	0.0017532
1919.71	0.001666
1929.35	0.001612
1939	0.001724
1948.65	0.00184893
1958.29	0.0020305
1967.94	0.0021365
1977.59	0.0021105
1987.23	0.0020991
1996.88	0.0021614
2006.53	0.002333
2016.17	0.0024903
2025.82	0.0024398
2035.47	0.0020159
2045.11	0.001739
2054.76	0.001663
2064.41	0.001712
2074.05	0.00171
2083.7	0.001559
2093.35	0.001486
2102.99	0.00148
2112.64	0.001444
2122.28	0.00149
2131.93	0.001521
2141.58	0.001556
2151.22	0.001643
2160.87	0.001609
2170.52	0.001516
2180.16	0.001477
2189.81	0.00139
2199.46	0.001379
2209.1	0.00141
2218.75	0.001447
2228.4	0.001599
2238.04	0.00166
2247.69	0.001625
2257.34	0.001553
2266.98	0.001461
2276.63	0.001359
2286.28	0.001209
2295.92	0.001052
2305.57	0.000973
2315.22	0.000933
2324.86	0.000875
2334.51	0.000906
2344.16	0.000943
2353.8	0.000901
2363.45	0.00082
2373.09	0.001038
2382.74	0.001134
2392.39	0.001186
2402.03	0.001179
2411.68	0.001216
2421.33	0.001252
2430.97	0.001233
2440.62	0.001223
2450.27	0.00127
2459.91	0.001305
2469.56	0.001313
2479.21	0.001215
2488.85	0.001194
2498.5	0.001216
2508.15	0.001147
2517.79	0.001071
2527.44	0.001115
2537.09	0.001118
2546.73	0.001213
2556.38	0.001211
2566.03	0.001263
2575.67	0.001245
2585.32	0.001191
2594.96	0.00125
2604.61	0.001233
2614.26	0.001087
2623.9	0.00114
2633.55	0.001103
2643.2	0.001116
2652.84	0.001164
2662.49	0.001048
2672.14	0.000988
2681.78	0.000961
2691.43	0.000964
2701.08	0.00095
2710.72	0.000999
2720.37	0.001038
2730.02	0.001147
2739.66	0.001188
2749.31	0.001213
2758.96	0.001255
2768.6	0.001439
2778.25	0.001576
2787.9	0.00184567
2797.54	0.0022612
2807.19	0.00301
2816.84	0.00449
2826.48	0.00826
2836.13	0.01551
2845.77	0.01536
2855.42	0.01071
2865.07	0.00937
2874.71	0.01031
2884.36	0.01111
2894.01	0.01175
2903.65	0.01238
2913.3	0.01447
2922.95	0.01833
2932.59	0.02618
2942.24	0.03703
2951.89	0.03304
2961.53	0.02412
2971.18	0.01909
2980.83	0.0162
2990.47	0.01721
3000.12	0.02098
3009.77	0.0169
3019.41	0.0091
3029.06	0.00618
3038.71	0.00511
3048.35	0.00489
3058	0.005
3067.64	0.00442
3077.29	0.00362
3086.94	0.0025979
3096.58	0.0021942
3106.23	0.001601
3115.88	0.00121
3125.52	0.001015
3135.17	0.00067
3144.82	0.00064
3154.46	0.00045
3164.11	0.00032
3173.76	0.00025
3183.4	0.00023
3193.05	0.00024
3202.7	0.00024
3212.34	0.00021
3221.99	0.00016
3231.64	0.00016
3241.28	0.00014
3250.93	0.00014
3260.58	9e-05
3270.22	0.00014
3279.87	0.00015
3289.52	0.00011
3299.16	0.00019
3308.81	4e-05
3318.45	0.00021
3328.1	0.00017
3337.75	0.00023
3347.39	0.00029
3357.04	0.00031
3366.69	0.00018
3376.33	0.00029
3385.98	0.00039
3395.63	0.00049
3405.27	0.00049
3414.92	0.00048
3424.57	0.00058
3434.21	0.00042
3443.86	0.00037
3453.51	0.00042
3463.15	0.00053
3472.8	0.00057
3482.45	0.00077
3492.09	0.00064
3501.74	0.000911
3511.39	0.001065
3521.03	0.001284
3530.68	0.001652
3540.33	0.00191882
3549.97	0.0026322
3559.62	0.00524
3569.26	0.02024
3578.91	0.02214
3588.56	0.00521
3598.2	0.0022805
3607.85	0.001598
3617.5	0.001355
3627.14	0.001194
3636.79	0.001075
3646.44	0.00074
3656.08	0.00069
3665.73	0.00076
3675.38	0.000841
3685.02	0.00078
3694.67	0.000869
3704.32	0.00084
3713.96	0.00078
3723.61	0.000893
3733.26	0.000909
3742.9	0.00082
3752.55	0.00079
3762.2	0.000867
3771.84	0.000942
3781.49	0.000857
3791.13	0.000902
3800.78	0.000913
3810.43	0.000975
3820.07	0.00082
3829.72	0.000863
3839.37	0.000918
3849.01	0.000923
3858.66	0.000906
3868.31	0.000888
3877.95	0.000941
3887.6	0.000972
3897.25	0.001002
3906.89	0.000971
3916.54	0.001105
3926.19	0.000933
3935.83	0.001057
3945.48	0.001108
3955.13	0.001251
3964.77	0.0011
3974.42	0.001089
3984.07	0.00105
3993.71	0.0011
