Infrared Spectrum: 3-(o-Methoxyphenyl)propionic acid
Formula: C 10 H 12 O 3
CAS: 25173-35-7
State: gas
Origin: EPA-IR VAPOR PHASE LIBRARY
1/CM	ABSORBANCE
549.8	0.019492
559.445	0.020602
569.09	0.019402
578.734	0.017172
588.379	0.015422
598.024	0.014382
607.669	0.014392
617.313	0.013782
626.958	0.012322
636.603	0.010012
646.248	0.007862
655.893	0.006592
665.537	0.005882
675.182	0.005222
684.827	0.004772
694.472	0.005222
704.116	0.006462
713.761	0.006152
723.406	0.006022
733.051	0.005452
742.695	0.004872
752.34	0.005322
761.985	0.004732
771.63	0.003602
781.275	0.003822
790.919	0.004582
800.564	0.006512
810.209	0.009632
819.854	0.014762
829.498	0.018362
839.143	0.012512
848.788	0.006172
858.433	0.003862
868.078	0.003062
877.722	0.002822
887.367	0.002912
897.012	0.002782
906.657	0.002802
916.301	0.002782
925.946	0.003222
935.591	0.003942
945.236	0.004822
954.88	0.004812
964.525	0.005172
974.17	0.005602
983.815	0.005882
993.46	0.006842
1003.1	0.008022
1012.75	0.010622
1022.39	0.014762
1032.04	0.021632
1041.68	0.026742
1051.33	0.020122
1060.97	0.013502
1070.62	0.012672
1080.26	0.016772
1089.91	0.026622
1099.55	0.040272
1109.2	0.053472
1118.84	0.065502
1128.49	0.053922
1138.13	0.034882
1147.78	0.026102
1157.42	0.023222
1167.07	0.028932
1176.71	0.040762
1186.36	0.028312
1196	0.020882
1205.64	0.018902
1215.29	0.019702
1224.93	0.025992
1234.58	0.044542
1244.22	0.083282
1253.87	0.080192
1263.51	0.042292
1273.16	0.029002
1282.8	0.025252
1292.45	0.024752
1302.09	0.019582
1311.74	0.012572
1321.38	0.010582
1331.03	0.009732
1340.67	0.009782
1350.32	0.010302
1359.96	0.012082
1369.61	0.014292
1379.25	0.015222
1388.9	0.012842
1398.54	0.009082
1408.18	0.007282
1417.83	0.007402
1427.47	0.008482
1437.12	0.010202
1446.76	0.012462
1456.41	0.012152
1466.05	0.012942
1475.7	0.010482
1485.34	0.008112
1494.99	0.013502
1504.63	0.044312
1514.28	0.079512
1523.92	0.024642
1533.57	0.006782
1543.21	0.003782
1552.86	0.002912
1562.5	0.002742
1572.15	0.003712
1581.79	0.005652
1591.44	0.007172
1601.08	0.011182
1610.73	0.016372
1620.37	0.011982
1630.01	0.005722
1639.66	0.003912
1649.3	0.003312
1658.95	0.003152
1668.59	0.003272
1678.24	0.003402
1687.88	0.003812
1697.53	0.004352
1707.17	0.005262
1716.82	0.007082
1726.46	0.010472
1736.11	0.016302
1745.75	0.025172
1755.4	0.036052
1765.04	0.056552
1774.69	0.081032
1784.33	0.070772
1793.98	0.043802
1803.62	0.026852
1813.27	0.017082
1822.91	0.010132
1832.55	0.006282
1842.2	0.004522
1851.84	0.003592
1861.49	0.003112
1871.13	0.002942
1880.78	0.002742
1890.42	0.002372
1900.07	0.002092
1909.71	0.001872
1919.36	0.001712
1929	0.001672
1938.65	0.001632
1948.29	0.001642
1957.94	0.001662
1967.58	0.001602
1977.23	0.001602
1986.87	0.001612
1996.52	0.001662
2006.16	0.001632
2015.81	0.001592
2025.45	0.001602
2035.1	0.001662
2044.74	0.001822
2054.38	0.002042
2064.03	0.002172
2073.67	0.002122
2083.32	0.001902
2092.96	0.001572
2102.61	0.0011955
2112.25	0.0011533
2121.9	0.0010615
2131.54	0.0009552
2141.19	0.000954
2150.83	0.0009158
2160.48	0.0008778
2170.12	0.0009482
2179.77	0.0009141
2189.41	0.0009387
2199.06	0.001153
2208.7	0.0010934
2218.35	0.0012509
2227.99	0.0012111
2237.64	0.0011175
2247.28	0.0011256
2256.92	0.0012032
2266.57	0.001184
2276.21	0.0012321
2285.86	0.0013545
2295.5	0.0013239
2305.15	0.0013086
2314.79	0.0013005
2324.44	0.0012653
2334.08	0.0012811
2343.73	0.0012501
2353.37	0.0012143
2363.02	0.0011543
2372.66	0.0011494
2382.31	0.0010498
2391.95	0.0010243
2401.6	0.0010549
2411.24	0.0011697
2420.89	0.0012494
2430.53	0.001286
2440.18	0.001226
2449.82	0.0012187
2459.47	0.0012219
2469.11	0.0012671
2478.75	0.0013257
2488.4	0.0013835
2498.04	0.0013405
2507.69	0.0012886
2517.33	0.0012105
2526.98	0.0013524
2536.62	0.001387
2546.27	0.0013227
2555.91	0.0012738
2565.56	0.0011027
2575.2	0.0010669
2584.85	0.0011596
2594.49	0.0011288
2604.14	0.001079
2613.78	0.0010649
2623.43	0.0010361
2633.07	0.0010953
2642.72	0.0011053
2652.36	0.0010454
2662.01	0.0009439
2671.65	0.0009627
2681.29	0.0009462
2690.94	0.0010617
2700.58	0.001035
2710.23	0.0010523
2719.87	0.0010329
2729.52	0.0009836
2739.16	0.001075
2748.81	0.0010856
2758.45	0.001216
2768.1	0.0013074
2777.74	0.001522
2787.39	0.001612
2797.03	0.001892
2806.68	0.002312
2816.32	0.002992
2825.97	0.004262
2835.61	0.007632
2845.26	0.011112
2854.9	0.007612
2864.55	0.006442
2874.19	0.006452
2883.84	0.006232
2893.48	0.006832
2903.12	0.008412
2912.77	0.011472
2922.41	0.014312
2932.06	0.018222
2941.7	0.021952
2951.35	0.020102
2960.99	0.016542
2970.64	0.013062
2980.28	0.010562
2989.93	0.010682
2999.57	0.014242
3009.22	0.016472
3018.86	0.010342
3028.51	0.010222
3038.15	0.010762
3047.8	0.006782
3057.44	0.005192
3067.09	0.005582
3076.73	0.005502
3086.38	0.004312
3096.02	0.003922
3105.67	0.003372
3115.31	0.002602
3124.95	0.002252
3134.6	0.001792
3144.24	0.001542
3153.89	0.0010964
3163.53	0.0011513
3173.18	0.0009251
3182.82	0.0010723
3192.47	0.0009345
3202.11	0.0009483
3211.76	0.0006983
3221.4	0.0007723
3231.05	0.0008049
3240.69	0.0006188
3250.34	0.0005909
3259.98	0.000647
3269.63	0.0006103
3279.27	0.0005618
3288.92	0.0006081
3298.56	0.0007073
3308.21	0.000683
3317.85	0.000567
3327.49	0.00053781
3337.14	0.00063
3346.78	0.00047561
3356.43	0.0004014
3366.07	0.0006275
3375.72	0.0006393
3385.36	0.0006635
3395.01	0.0006734
3404.65	0.000666
3414.3	0.00049769
3423.94	0.0006736
3433.59	0.0005563
3443.23	0.0005897
3452.88	0.0006249
3462.52	0.000667
3472.17	0.0006116
3481.81	0.0006576
3491.46	0.0006757
3501.1	0.0010462
3510.75	0.0010963
3520.39	0.0013143
3530.04	0.001962
3539.68	0.002132
3549.32	0.003272
3558.97	0.006812
3568.61	0.024762
3578.26	0.035202
3587.9	0.009452
3597.55	0.003272
3607.19	0.001832
3616.84	0.001522
3626.48	0.0010544
3636.13	0.0009346
3645.77	0.0007052
3655.42	0.00054054
3665.06	0.000458463
3674.71	0.0005541
3684.35	0.00047193
3694	0.0004073
3703.64	0.00028
3713.29	0.000268
3722.93	0.0003561
3732.58	0.000267
3742.22	0.000394
3751.86	0.000296
3761.51	0.000254
3771.15	0.00032
3780.8	0.00034
3790.44	0.000342
3800.09	0.000314
3809.73	0.00015
3819.38	0.0004202
3829.02	0.000331
3838.67	0.000218
3848.31	0.00046957
3857.96	0.0005945
3867.6	0.00054644
3877.25	0.000453861
3886.89	0.0003935
3896.54	0.0004104
3906.18	0.000301
3915.83	0.000272
3925.47	0.0005633
3935.12	0.000252
3944.76	0.0004274
3954.41	0.0003796
3964.05	0.00053036
3973.69	0.0003528
3983.34	0.0003781
3992.98	0.0006203
