Infrared Spectrum: 3-(3,4-Dichlorophenyl)propionic acid
Formula: C 9 H 8 Cl 2 O 2
CAS: 25173-68-6
State: gas
Origin: EPA-IR VAPOR PHASE LIBRARY
1/CM	ABSORBANCE
549.8	0.014628
559.445	0.015618
569.09	0.019118
578.734	0.026138
588.379	0.028338
598.024	0.024798
607.669	0.023878
617.313	0.018608
626.958	0.013918
636.603	0.013088
646.248	0.018038
655.893	0.017938
665.537	0.016438
675.182	0.016548
684.827	0.016498
694.472	0.010488
704.116	0.008938
713.761	0.007468
723.406	0.005308
733.051	0.004318
742.695	0.003558
752.34	0.003348
761.985	0.003398
771.63	0.003508
781.275	0.003748
790.919	0.005218
800.564	0.008828
810.209	0.016128
819.854	0.019378
829.498	0.010328
839.143	0.007248
848.788	0.009528
858.433	0.009578
868.078	0.011028
877.722	0.010798
887.367	0.006528
897.012	0.004668
906.657	0.004838
916.301	0.004718
925.946	0.004388
935.591	0.004958
945.236	0.006098
954.88	0.006458
964.525	0.006288
974.17	0.005518
983.815	0.005568
993.46	0.006198
1003.1	0.007988
1012.75	0.011168
1022.39	0.021218
1032.04	0.036088
1041.68	0.021718
1051.33	0.011058
1060.97	0.009298
1070.62	0.011228
1080.26	0.016978
1089.91	0.027408
1099.55	0.042468
1109.2	0.074748
1118.84	0.112488
1128.49	0.103428
1138.13	0.075318
1147.78	0.049038
1157.42	0.033038
1167.07	0.023408
1176.71	0.024398
1186.36	0.025318
1196	0.023948
1205.64	0.023138
1215.29	0.018378
1224.93	0.013878
1234.58	0.012288
1244.22	0.012408
1253.87	0.013258
1263.51	0.014158
1273.16	0.012408
1282.8	0.010668
1292.45	0.009738
1302.09	0.009348
1311.74	0.009258
1321.38	0.009618
1331.03	0.010898
1340.67	0.011388
1350.32	0.012248
1359.96	0.015988
1369.61	0.020998
1379.25	0.026118
1388.9	0.028248
1398.54	0.025028
1408.18	0.016998
1417.83	0.011928
1427.47	0.012288
1437.12	0.012788
1446.76	0.015618
1456.41	0.022258
1466.05	0.037528
1475.7	0.050718
1485.34	0.017868
1494.99	0.006488
1504.63	0.003858
1514.28	0.002918
1523.92	0.002708
1533.57	0.002778
1543.21	0.004228
1552.86	0.006848
1562.5	0.008348
1572.15	0.007098
1581.79	0.006118
1591.44	0.006078
1601.08	0.004658
1610.73	0.002568
1620.37	0.002098
1630.01	0.001998
1639.66	0.001848
1649.3	0.001478
1658.95	0.001518
1668.59	0.001718
1678.24	0.001848
1687.88	0.002398
1697.53	0.003228
1707.17	0.004648
1716.82	0.007468
1726.46	0.012398
1736.11	0.020328
1745.75	0.032328
1755.4	0.048978
1765.04	0.078678
1774.69	0.117598
1784.33	0.111848
1793.98	0.066098
1803.62	0.039388
1813.27	0.023538
1822.91	0.012878
1832.55	0.007278
1842.2	0.004448
1851.84	0.002958
1861.49	0.002318
1871.13	0.002208
1880.78	0.002538
1890.42	0.002638
1900.07	0.002198
1909.71	0.001658
1919.36	0.001418
1929	0.0012012
1938.65	0.0010493
1948.29	0.0010476
1957.94	0.0009088
1967.58	0.0008887
1977.23	0.0009615
1986.87	0.0009466
1996.52	0.0008368
2006.16	0.0007697
2015.81	0.0007363
2025.45	0.0007417
2035.1	0.0007191
2044.74	0.0006591
2054.38	0.0006634
2064.03	0.0006817
2073.67	0.0006789
2083.32	0.0006841
2092.96	0.000624
2102.61	0.0007025
2112.25	0.0007443
2121.9	0.0007111
2131.54	0.0007397
2141.19	0.0007925
2150.83	0.0007308
2160.48	0.0007624
2170.12	0.0007232
2179.77	0.0007116
2189.41	0.0007642
2199.06	0.0006985
2208.7	0.0008283
2218.35	0.0008971
2227.99	0.0009068
2237.64	0.0010223
2247.28	0.0009648
2256.92	0.0008753
2266.57	0.0007508
2276.21	0.0008185
2285.86	0.0007109
2295.5	0.0007799
2305.15	0.0006396
2314.79	0.0006119
2324.44	0.000553
2334.08	0.0006071
2343.73	0.0006829
2353.37	0.0006267
2363.02	0.0006612
2372.66	0.0008011
2382.31	0.000854
2391.95	0.0008203
2401.6	0.000824
2411.24	0.0008314
2420.89	0.0006812
2430.53	0.0006156
2440.18	0.0006037
2449.82	0.0006956
2459.47	0.0007253
2469.11	0.0006822
2478.75	0.0005209
2488.4	0.0006035
2498.04	0.0005865
2507.69	0.0006435
2517.33	0.0006308
2526.98	0.0006348
2536.62	0.0006631
2546.27	0.0007174
2555.91	0.0005547
2565.56	0.0004178
2575.2	0.0006027
2584.85	0.0006005
2594.49	0.0005727
2604.14	0.0005614
2613.78	0.0004898
2623.43	0.0004755
2633.07	0.0005628
2642.72	0.000496
2652.36	0.0004487
2662.01	0.0004844
2671.65	0.0005785
2681.29	0.0004374
2690.94	0.0005369
2700.58	0.0005104
2710.23	0.0005527
2719.87	0.0005546
2729.52	0.0004614
2739.16	0.0004457
2748.81	0.0004074
2758.45	0.0005501
2768.1	0.0005804
2777.74	0.0005597
2787.39	0.0006263
2797.03	0.0006962
2806.68	0.0007356
2816.32	0.0006926
2825.97	0.0007446
2835.61	0.0009431
2845.26	0.001308
2854.9	0.001728
2864.55	0.002228
2874.19	0.003148
2883.84	0.003118
2893.48	0.002568
2903.12	0.002628
2912.77	0.003418
2922.41	0.005748
2932.06	0.009098
2941.7	0.011448
2951.35	0.009788
2960.99	0.008408
2970.64	0.007698
2980.28	0.006028
2989.93	0.004408
2999.57	0.002928
3009.22	0.002288
3018.86	0.002378
3028.51	0.002838
3038.15	0.003168
3047.8	0.003408
3057.44	0.004068
3067.09	0.003748
3076.73	0.002548
3086.38	0.002028
3096.02	0.001698
3105.67	0.000905
3115.31	0.0005812
3124.95	0.00031101
3134.6	0.0004436
3144.24	0.0004295
3153.89	0.0004647
3163.53	0.000494
3173.18	0.00033696
3182.82	0.0004094
3192.47	0.0002028
3202.11	0.000289082
3211.76	0.00027925
3221.4	0.0002124
3231.05	0.000141
3240.69	0.0001998
3250.34	0.000159
3259.98	0.0002047
3269.63	0.000136
3279.27	5.5e-05
3288.92	0.00033268
3298.56	0.00033225
3308.21	0.0002477
3317.85	0.0003054
3327.49	0.000154
3337.14	0.0002103
3346.78	0.00033899
3356.43	0.000171
3366.07	0.0002421
3375.72	0.0002666
3385.36	0.000271
3395.01	0.000293024
3404.65	0
3414.3	0.0001976
3423.94	0.0004023
3433.59	0.0002522
3443.23	0.0004011
3452.88	0.000201
3462.52	0.000151
3472.17	0.00030401
3481.81	0.0005972
3491.46	0.0007598
3501.1	0.0006836
3510.75	0.0012329
3520.39	0.001678
3530.04	0.002208
3539.68	0.003028
3549.32	0.005168
3558.97	0.011938
3568.61	0.045478
3578.26	0.053698
3587.9	0.011588
3597.55	0.004468
3607.19	0.002498
3616.84	0.001638
3626.48	0.001408
3636.13	0.0009803
3645.77	0.0006525
3655.42	0.0005396
3665.06	0.0005526
3674.71	0.0004726
3684.35	0.0002572
3694	0.00036712
3703.64	0.000276
3713.29	0.0003987
3722.93	0.0005049
3732.58	0.0004129
3742.22	0.0002341
3751.86	0.0002739
3761.51	0.00036393
3771.15	0.0002465
3780.8	0.0002072
3790.44	0.00031819
3800.09	0.0002747
3809.73	0.0003884
3819.38	0.00029929
3829.02	0.0002716
3838.67	0.000134
3848.31	0.000177
3857.96	0.0004232
3867.6	0.0004124
3877.25	0.00035371
3886.89	0.0002155
3896.54	0.0001974
3906.18	0.000381
3915.83	0.0001889
3925.47	0.00031751
3935.12	0.0002659
3944.76	0.00038106
3954.41	0.00033893
3964.05	0.0002385
3973.69	0.00027904
3983.34	0.0002167
3992.98	0.0002608
