Infrared Spectrum: 3-(p-Methoxyphenyl)propionic acid
Formula: C 10 H 12 O 3
CAS: 25173-37-9
State: gas
Origin: EPA-IR VAPOR PHASE LIBRARY
1/CM	ABSORBANCE
549.8	0.0162633
559.445	0.0157833
569.09	0.0177133
578.734	0.0176933
588.379	0.0161433
598.024	0.0134633
607.669	0.0129633
617.313	0.0132733
626.958	0.0128633
636.603	0.0113533
646.248	0.0085433
655.893	0.0065233
665.537	0.0054933
675.182	0.0048133
684.827	0.0042233
694.472	0.0037833
704.116	0.0038533
713.761	0.0043733
723.406	0.0075233
733.051	0.0151233
742.695	0.0277033
752.34	0.0327633
761.985	0.0178033
771.63	0.0075033
781.275	0.0048933
790.919	0.0040533
800.564	0.0035033
810.209	0.0032433
819.854	0.0034833
829.498	0.0029633
839.143	0.0020233
848.788	0.0015533
858.433	0.0014033
868.078	0.0015433
877.722	0.0016033
887.367	0.0017533
897.012	0.0021633
906.657	0.0022933
916.301	0.0027633
925.946	0.0032633
935.591	0.0034733
945.236	0.0041633
954.88	0.0043533
964.525	0.0043033
974.17	0.0042833
983.815	0.0053733
993.46	0.0064233
1003.1	0.0079833
1012.75	0.0114633
1022.39	0.0173933
1032.04	0.0236433
1041.68	0.0251333
1051.33	0.0222533
1060.97	0.0156833
1070.62	0.0133133
1080.26	0.0187833
1089.91	0.0332733
1099.55	0.0533033
1109.2	0.0664133
1118.84	0.0682433
1128.49	0.0556033
1138.13	0.0364333
1147.78	0.0254033
1157.42	0.0218233
1167.07	0.0208433
1176.71	0.0233233
1186.36	0.0245033
1196	0.0244633
1205.64	0.0227733
1215.29	0.0221433
1224.93	0.0315233
1234.58	0.0567833
1244.22	0.0745733
1253.87	0.0527933
1263.51	0.0283833
1273.16	0.0217833
1282.8	0.0208933
1292.45	0.0181033
1302.09	0.0140933
1311.74	0.0125233
1321.38	0.0120233
1331.03	0.0113033
1340.67	0.0110133
1350.32	0.0113833
1359.96	0.0127133
1369.61	0.0146933
1379.25	0.0156833
1388.9	0.0123533
1398.54	0.0082433
1408.18	0.0068133
1417.83	0.0074933
1427.47	0.0105833
1437.12	0.0163633
1446.76	0.0187633
1456.41	0.0193433
1466.05	0.0216633
1475.7	0.0224533
1485.34	0.0339233
1494.99	0.0418733
1504.63	0.0230933
1514.28	0.0079133
1523.92	0.0042233
1533.57	0.0030133
1543.21	0.0024633
1552.86	0.0024533
1562.5	0.0034633
1572.15	0.0060333
1581.79	0.0099833
1591.44	0.0127433
1601.08	0.0118333
1610.73	0.0069733
1620.37	0.0030933
1630.01	0.0018633
1639.66	0.0015733
1649.3	0.0015233
1658.95	0.0016833
1668.59	0.0020433
1678.24	0.0022733
1687.88	0.0026533
1697.53	0.0032633
1707.17	0.0043133
1716.82	0.0063233
1726.46	0.0098333
1736.11	0.0158933
1745.75	0.0251833
1755.4	0.0394533
1765.04	0.0668533
1774.69	0.0944033
1784.33	0.0762133
1793.98	0.0456633
1803.62	0.0276433
1813.27	0.0156433
1822.91	0.0086333
1832.55	0.0050833
1842.2	0.0035433
1851.84	0.0026133
1861.49	0.0021433
1871.13	0.0019033
1880.78	0.0022533
1890.42	0.0022833
1900.07	0.0018733
1909.71	0.0016433
1919.36	0.0018833
1929	0.0018633
1938.65	0.0012733
1948.29	0.0010333
1957.94	0.0009254
1967.58	0.0009895
1977.23	0.0010533
1986.87	0.0011033
1996.52	0.0011433
2006.16	0.0010733
2015.81	0.0011133
2025.45	0.0011233
2035.1	0.0012033
2044.74	0.0013533
2054.38	0.0014433
2064.03	0.0015333
2073.67	0.0012633
2083.32	0.0009732
2092.96	0.0007901
2102.61	0.0006716
2112.25	0.0006524
2121.9	0.0006924
2131.54	0.0006359
2141.19	0.0006766
2150.83	0.0006913
2160.48	0.0005536
2170.12	0.0006653
2179.77	0.0005426
2189.41	0.0006282
2199.06	0.0006473
2208.7	0.0008373
2218.35	0.0008588
2227.99	0.0008213
2237.64	0.0007902
2247.28	0.0008279
2256.92	0.0007376
2266.57	0.0007799
2276.21	0.0006475
2285.86	0.0006735
2295.5	0.0006423
2305.15	0.0006153
2314.79	0.0006351
2324.44	0.0006538
2334.08	0.0005939
2343.73	0.0006173
2353.37	0.000618
2363.02	0.0005713
2372.66	0.0005553
2382.31	0.0004434
2391.95	0.000583
2401.6	0.000691
2411.24	0.0006832
2420.89	0.0004984
2430.53	0.0005683
2440.18	0.0005153
2449.82	0.0006174
2459.47	0.0007323
2469.11	0.0008832
2478.75	0.000751
2488.4	0.0008392
2498.04	0.0007567
2507.69	0.0006622
2517.33	0.0006493
2526.98	0.0007619
2536.62	0.0007463
2546.27	0.0007624
2555.91	0.0005354
2565.56	0.0006687
2575.2	0.0005447
2584.85	0.0006363
2594.49	0.0006623
2604.14	0.0008214
2613.78	0.0006616
2623.43	0.000619
2633.07	0.000583
2642.72	0.0006323
2652.36	0.000529
2662.01	0.0005151
2671.65	0.000347
2681.29	0.0005055
2690.94	0.0003819
2700.58	0.0005224
2710.23	0.0005436
2719.87	0.0005613
2729.52	0.0005677
2739.16	0.0006526
2748.81	0.0005961
2758.45	0.0007809
2768.1	0.0008505
2777.74	0.0008925
2787.39	0.0010933
2797.03	0.0012933
2806.68	0.0015533
2816.32	0.0022233
2825.97	0.0036733
2835.61	0.0073333
2845.26	0.0109333
2854.9	0.0083933
2864.55	0.0056733
2874.19	0.0054233
2883.84	0.0058733
2893.48	0.0066433
2903.12	0.0080833
2912.77	0.0104233
2922.41	0.0131033
2932.06	0.0167933
2941.7	0.0224233
2951.35	0.0236833
2960.99	0.0190133
2970.64	0.0131633
2980.28	0.0102133
2989.93	0.0099833
2999.57	0.0123533
3009.22	0.0121733
3018.86	0.0098233
3028.51	0.0105633
3038.15	0.0098333
3047.8	0.0078433
3057.44	0.0083733
3067.09	0.0106233
3076.73	0.0120733
3086.38	0.0091933
3096.02	0.0047733
3105.67	0.0034133
3115.31	0.0023933
3124.95	0.0015833
3134.6	0.0008814
3144.24	0.0007611
3153.89	0.0009123
3163.53	0.0007578
3173.18	0.0008978
3182.82	0.0005713
3192.47	0.0005459
3202.11	0.0004561
3211.76	0.0003305
3221.4	0.0003372
3231.05	0.000295
3240.69	0.0002581
3250.34	0.0002661
3259.98	1.769e-05
3269.63	0.0001733
3279.27	0.0004542
3288.92	0.0001301
3298.56	0.0002977
3308.21	0.0002039
3317.85	0.0004453
3327.49	0.0003153
3337.14	0.00010231
3346.78	0.0003251
3356.43	0.0002062
3366.07	0.00011834
3375.72	0.0002668
3385.36	0.000351
3395.01	0.00011407
3404.65	0.000534
3414.3	0.0002198
3423.94	0.0004068
3433.59	0.0004122
3443.23	0.0002164
3452.88	0.0004104
3462.52	0.000447
3472.17	0.0005152
3481.81	0.0005517
3491.46	0.0007706
3501.1	0.0010533
3510.75	0.0011933
3520.39	0.0014833
3530.04	0.0018133
3539.68	0.0022133
3549.32	0.0030433
3558.97	0.0060133
3568.61	0.0273433
3578.26	0.0362233
3587.9	0.0092533
3597.55	0.0032233
3607.19	0.0020633
3616.84	0.0012933
3626.48	0.0009787
3636.13	0.0007351
3645.77	0.0007112
3655.42	0.0004095
3665.06	0.0003646
3674.71	0.0007774
3684.35	0.0003081
3694	0.0002938
3703.64	0.0004661
3713.29	0.0004931
3722.93	0.0001555
3732.58	0.0003501
3742.22	0.0004465
3751.86	0.0001644
3761.51	5.857e-05
3771.15	0.0003162
3780.8	0.0003845
3790.44	0.0002113
3800.09	0.000183
3809.73	0.00012269
3819.38	0.0001432
3829.02	0.0002516
3838.67	0.0002049
3848.31	0.0001563
3857.96	0.0004651
3867.6	0.0004191
3877.25	0.0002448
3886.89	0.0004217
3896.54	0.0003932
3906.18	0.0003423
3915.83	0.0001545
3925.47	0.0001064
3935.12	0.0003724
3944.76	0.0002874
3954.41	0.0005898
3964.05	0.0005542
3973.69	0.0003292
3983.34	0.0004851
3992.98	0.000654
