Infrared Spectrum: 2,6-Dichlorobenzaldoxime
Formula: C 7 H 5 Cl 2 N O
CAS: 25185-95-9
State: gas
Origin: EPA-IR VAPOR PHASE LIBRARY
1/CM	ABSORBANCE
551.7	0.00251
563.274	0.0024
574.848	0.00225
586.421	0.00264
597.995	0.00257
609.569	0.00246
621.143	0.00249
632.717	0.00311
644.291	0.004
655.864	0.00574
667.438	0.01103
679.012	0.01406
690.586	0.01278
702.16	0.01441
713.734	0.02207
725.307	0.02403
736.881	0.01407
748.455	0.01212
760.029	0.02081
771.603	0.08289
783.177	0.1128
794.75	0.02947
806.324	0.00861
817.898	0.00569
829.472	0.00521
841.046	0.00655
852.619	0.01213
864.193	0.03337
875.767	0.05239
887.341	0.0299
898.915	0.01658
910.489	0.01919
922.062	0.02502
933.636	0.03551
945.21	0.07727
956.784	0.08601
968.358	0.02764
979.932	0.00893
991.505	0.0048
1003.08	0.00338
1014.65	0.00281
1026.23	0.00248
1037.8	0.00275
1049.37	0.00335
1060.95	0.00342
1072.52	0.00502
1084.1	0.01025
1095.67	0.02441
1107.24	0.01788
1118.82	0.00636
1130.39	0.00405
1141.97	0.00496
1153.54	0.00938
1165.11	0.01014
1176.69	0.01127
1188.26	0.02543
1199.83	0.02487
1211.41	0.01417
1222.98	0.01284
1234.56	0.01669
1246.13	0.03033
1257.7	0.05424
1269.28	0.0375
1280.85	0.01436
1292.42	0.00831
1304	0.00615
1315.57	0.00437
1327.15	0.00425
1338.72	0.00521
1350.29	0.00414
1361.87	0.00407
1373.44	0.00818
1385.02	0.01717
1396.59	0.01589
1408.16	0.017
1419.74	0.0381
1431.31	0.07176
1442.88	0.04266
1454.46	0.02199
1466.03	0.00728
1477.61	0.00516
1489.18	0.00593
1500.75	0.00472
1512.33	0.00321
1523.9	0.00248
1535.48	0.00462
1547.05	0.01754
1558.62	0.03951
1570.2	0.02535
1581.77	0.01675
1593.34	0.0073
1604.92	0.00361
1616.49	0.00266
1628.07	0.00222
1639.64	0.00211
1651.21	0.00259
1662.79	0.00339
1674.36	0.00235
1685.93	0.00133
1697.51	0.0010534
1709.08	0.0009036
1720.66	0.0009835
1732.23	0.0010555
1743.8	0.0010249
1755.38	0.000913
1766.95	0.00147
1778.53	0.00232
1790.1	0.00161
1801.67	0.00111
1813.25	0.00131
1824.82	0.00158
1836.39	0.00208
1847.97	0.00291
1859.54	0.00283
1871.12	0.00204
1882.69	0.0022
1894.26	0.00233
1905.84	0.0022
1917.41	0.00238
1928.99	0.00299
1940.56	0.00147
1952.13	0.0005123
1963.71	0.0004869
1975.28	0.0004676
1986.85	0.0004016
1998.43	0.0003787
2010	0.0003487
2021.58	0.0003538
2033.15	0.0003127
2044.72	0.0002529
2056.3	0.0003175
2067.87	0.0002809
2079.44	0.0002665
2091.02	0.0002722
2102.59	0.0002744
2114.17	0.000284
2125.74	0.0003045
2137.31	0.0003196
2148.89	0.0002903
2160.46	0.0002841
2172.04	0.0002921
2183.61	0.0003258
2195.18	0.0003731
2206.76	0.0004881
2218.33	0.0004647
2229.9	0.0004389
2241.48	0.0004156
2253.05	0.0004006
2264.63	0.0004662
2276.2	0.0004094
2287.77	0.0004192
2299.35	0.0006419
2310.92	0.0008656
2322.5	0.0007327
2334.07	0.0006525
2345.64	0.0005165
2357.22	0.0004773
2368.79	0.0004729
2380.36	0.0004413
2391.94	0.0004037
2403.51	0.0003042
2415.09	0.0002809
2426.66	0.0003317
2438.23	0.0003882
2449.81	0.0004053
2461.38	0.0004785
2472.96	0.0004478
2484.53	0.0005235
2496.1	0.0006479
2507.68	0.0007829
2519.25	0.000637
2530.82	0.0004739
2542.4	0.0004852
2553.97	0.0005189
2565.55	0.0005757
2577.12	0.0006581
2588.69	0.0006552
2600.27	0.0008287
2611.84	0.0009338
2623.41	0.00127
2634.99	0.00143
2646.56	0.00131
2658.14	0.0010053
2669.71	0.0008285
2681.28	0.0006042
2692.86	0.0004728
2704.43	0.0004235
2716.01	0.0004181
2727.58	0.000317
2739.15	0.0003195
2750.73	0.0002937
2762.3	0.0004239
2773.87	0.0003981
2785.45	0.0002603
2797.02	0.0002843
2808.6	0.0003536
2820.17	0.0003844
2831.74	0.000391
2843.32	0.0003946
2854.89	0.0003057
2866.47	0.0003579
2878.04	0.0002883
2889.61	0.0003719
2901.19	0.0004042
2912.76	0.0003132
2924.33	0.0003263
2935.91	0.0005502
2947.48	0.000685
2959.06	0.0011036
2970.63	0.00208
2982.2	0.00234
2993.78	0.0012
3005.35	0.0008992
3016.92	0.0009541
3028.5	0.0009985
3040.07	0.00119
3051.65	0.00254
3063.22	0.00495
3074.79	0.00401
3086.37	0.00349
3097.94	0.00163
3109.52	0.0016
3121.09	0.00192
3132.66	0.0010983
3144.24	0.0002992
3155.81	0.0002266
3167.38	0.00017061
3178.96	0.00015563
3190.53	0.00017262
3202.11	0.0003059
3213.68	0.0004196
3225.25	0.0003853
3236.83	0.0005354
3248.4	0.0006629
3259.98	0.0006204
3271.55	0.0005092
3283.12	0.0004916
3294.7	0.0003514
3306.27	0.00021864
3317.84	0.0002441
3329.42	0.0002625
3340.99	0.00016181
3352.57	4.31e-05
3364.14	9.16e-05
3375.71	7.58e-05
3387.29	0.000137323
3398.86	8.4e-05
3410.43	0.0001083
3422.01	0.00022064
3433.58	7.71e-05
3445.16	0.0001185
3456.73	0.0002366
3468.3	0.000247
3479.88	0.0002487
3491.45	0.000334
3503.03	0.0004177
3514.6	0.0003537
3526.17	0.0004993
3537.75	0.0005363
3549.32	0.0007679
3560.89	0.0010431
3572.47	0.00181
3584.04	0.00329
3595.62	0.00637
3607.19	0.01174
3618.76	0.02501
3630.34	0.06117
3641.91	0.08034
3653.49	0.02482
3665.06	0.0082
3676.63	0.00512
3688.21	0.00293
3699.78	0.00151
3711.35	0.0009807
3722.93	0.0007378
3734.5	0.0004681
3746.08	0.0003797
3757.65	0.00015308
3769.22	0.0002661
3780.8	0.000272
3792.37	0.0002751
3803.94	0.0003025
3815.52	0.0003264
3827.09	0.0003072
3838.67	0.00022625
3850.24	0.000235
3861.81	0.0004112
3873.39	0.0004198
3884.96	0.0002366
3896.54	0.0002509
3908.11	0.0003192
3919.68	0.0002969
3931.26	0.0004713
3942.83	0.0006619
3954.4	0.0006145
3965.98	0.0005597
3977.55	0.000532
3989.13	0.000508
4000.7	0.0004797
