Infrared Spectrum: 4-Methyl-1,6-heptadien-4-ol
Formula: C 8 H 14 O
CAS: 25201-40-5
State: gas
Instrument: HP-GC/MS/IRD
Origin: NIST Mass Spectrometry Data Center
1/CM	ABSORBANCE
550	0.0005712
562	0.0002394
574	0.0001442
586	0.0004858
598	0.0008162
610	0.000784
622	0.000644
634	0.0007826
646	0.0009926
658	0.0007462
670	0.0008848
682	0.000882
694	0.0005292
706	0.0003388
718	0.00021
730	4.62e-05
742	7e-06
754	0.0001162
766	0.0005992
778	0.0012082
790	0.001106
802	0.0006048
814	0.0003332
826	0.0004032
838	0.0006118
850	0.0010514
862	0.0018928
874	0.0029582
886	0.0039102
898	0.0051212
910	0.0107212
922	0.0136626
934	0.0079254
946	0.0049952
958	0.004081
970	0.003388
982	0.0045948
994	0.0070938
1006	0.0059654
1018	0.0033782
1030	0.0031192
1042	0.003528
1054	0.0035938
1066	0.0036834
1078	0.0039704
1090	0.0041342
1102	0.0043036
1114	0.0045514
1126	0.0045458
1138	0.0045304
1150	0.0047264
1162	0.0045444
1174	0.0036946
1186	0.0028252
1198	0.0024192
1210	0.0023842
1222	0.0026432
1234	0.0028196
1246	0.003108
1258	0.0035
1270	0.00357
1282	0.0034076
1294	0.003164
1306	0.0031066
1318	0.0029568
1330	0.0030226
1342	0.0034552
1354	0.003696
1366	0.0040334
1378	0.0049448
1390	0.0039312
1402	0.0022932
1414	0.0022316
1426	0.002982
1438	0.0038598
1450	0.0034594
1462	0.0022736
1474	0.0012208
1486	0.0006118
1498	0.0003878
1510	0.0003416
1522	0.0002688
1534	0.0002226
1546	0.0001736
1558	0.0001736
1570	0.0001862
1582	0.0002394
1594	0.000329
1606	0.0005264
1618	0.0011396
1630	0.0029904
1642	0.0039158
1654	0.0017808
1666	0.0004396
1678	0.0001974
1690	0.000119
1702	4.06e-05
1714	1.96e-05
1726	1.26e-05
1738	5.6e-06
1750	1.68e-05
1762	4.34e-05
1774	7.14e-05
1786	8.12e-05
1798	9.52e-05
1810	0.000224
1822	0.000602
1834	0.0012474
1846	0.0012236
1858	0.0005572
1870	0.0001946
1882	0.0001008
1894	7.84e-05
1906	7.28e-05
1918	4.48e-05
1930	3.5e-05
1942	3.08e-05
1954	1.82e-05
1966	6.02e-05
1978	0.0001064
1990	0.0001232
2002	8.82e-05
2014	4.34e-05
2026	4.34e-05
2038	3.92e-05
2050	2.24e-05
2062	1.4e-06
2074	1.68e-05
2086	1.4e-05
2098	8.4e-06
2110	2.8e-05
2122	1.96e-05
2134	4.48e-05
2146	2.66e-05
2158	3.64e-05
2170	4.48e-05
2182	1.54e-05
2194	1.12e-05
2206	3.22e-05
2218	5.6e-05
2230	4.48e-05
2242	5.32e-05
2254	4.2e-06
2266	4.9e-05
2278	4.34e-05
2290	4.62e-05
2302	4.34e-05
2314	5.18e-05
2326	7.14e-05
2338	6.44e-05
2350	5.18e-05
2362	6.86e-05
2374	8.12e-05
2386	6.02e-05
2398	7.56e-05
2410	7.14e-05
2422	4.2e-05
2434	5.04e-05
2446	5.04e-05
2458	7.28e-05
2470	6.44e-05
2482	5.18e-05
2494	6.86e-05
2506	7.14e-05
2518	7.98e-05
2530	9.66e-05
2542	0.0001372
2554	0.0001204
2566	0.000119
2578	0.0001456
2590	0.0001232
2602	0.0001162
2614	0.0001246
2626	0.0001162
2638	0.0001148
2650	8.82e-05
2662	0.000119
2674	0.0001232
2686	0.0001386
2698	0.0001666
2710	0.0001596
2722	0.000182
2734	0.0002324
2746	0.0002366
2758	0.0002296
2770	0.0002492
2782	0.0002632
2794	0.0003416
2806	0.0005124
2818	0.0008288
2830	0.0012866
2842	0.001876
2854	0.0021336
2866	0.0023716
2878	0.0027916
2890	0.0037744
2902	0.005649
2914	0.0078652
2926	0.0093156
2938	0.0090132
2950	0.0063574
2962	0.0062132
2974	0.0107324
2986	0.0113498
2998	0.0063616
3010	0.0040838
3022	0.0031612
3034	0.0018956
3046	0.0016338
3058	0.002352
3070	0.004571
3082	0.0078484
3094	0.0056308
3106	0.0014504
3118	0.0005908
3130	0.0004424
3142	0.0003808
3154	0.0003668
3166	0.0002702
3178	0.000203
3190	0.0001904
3202	0.0001778
3214	0.000133
3226	0.000119
3238	0.0001064
3250	0.0001036
3262	8.82e-05
3274	8.54e-05
3286	9.52e-05
3298	0.0001064
3310	8.4e-05
3322	8.12e-05
3334	8.54e-05
3346	7.98e-05
3358	7.98e-05
3370	0.0001134
3382	6.86e-05
3394	6.44e-05
3406	6.3e-05
3418	5.88e-05
3430	6.86e-05
3442	4.06e-05
3454	3.22e-05
3466	5.46e-05
3478	1.4e-06
3490	6.16e-05
3502	6.44e-05
3514	0.000119
3526	6.58e-05
3538	5.18e-05
3550	0.0001036
3562	8.12e-05
3574	0.0001652
3586	0.0004354
3598	0.0011172
3610	0.0017052
3622	0.001645
3634	0.0015778
3646	0.0011536
3658	0.0004746
3670	0.000133
3682	0.0001008
3694	0.0001092
3706	8.12e-05
3718	1.54e-05
3730	1.4e-06
3742	1.82e-05
3754	1.4e-06
3766	1.26e-05
3778	0
3790	1.96e-05
3802	2.66e-05
3814	9.8e-06
3826	1.12e-05
3838	6.3e-05
