Infrared Spectrum: 1-Naphthyl N-propylcarbamate
Formula: C 14 H 15 N O 2
CAS: 25216-27-7
State: gas
Origin: EPA-IR VAPOR PHASE LIBRARY
1/CM	ABSORBANCE
549.8	0.001629
559.445	0.001859
569.09	0.001259
578.734	0.001489
588.379	0.0007022
598.024	0.0009545
607.669	0.0008637
617.313	0.0008495
626.958	0.0006736
636.603	0.0007062
646.248	0.0006164
655.893	0.0007141
665.537	0.0005056
675.182	0.0006795
684.827	0.0004584
694.472	0.000477
704.116	0.0009893
713.761	0.0009379
723.406	0.0008231
733.051	0.001076
742.695	0.001669
752.34	0.003359
761.985	0.008509
771.63	0.009639
781.275	0.004789
790.919	0.004019
800.564	0.003039
810.209	0.001459
819.854	0.0008707
829.498	0.0010611
839.143	0.0011638
848.788	0.001379
858.433	0.001669
868.078	0.002029
877.722	0.001849
887.367	0.001969
897.012	0.002009
906.657	0.002129
916.301	0.001609
925.946	0.002089
935.591	0.001939
945.236	0.002029
954.88	0.003199
964.525	0.004409
974.17	0.003339
983.815	0.002239
993.46	0.002029
1003.1	0.002329
1012.75	0.003829
1022.39	0.003179
1032.04	0.002509
1041.68	0.005059
1051.33	0.004109
1060.97	0.002339
1070.62	0.002999
1080.26	0.004099
1089.91	0.006069
1099.55	0.006299
1109.2	0.006669
1118.84	0.006589
1128.49	0.004859
1138.13	0.004199
1147.78	0.008399
1157.42	0.016269
1167.07	0.013519
1176.71	0.013549
1186.36	0.020739
1196	0.030979
1205.64	0.026049
1215.29	0.018189
1224.93	0.016569
1234.58	0.011309
1244.22	0.007279
1253.87	0.009449
1263.51	0.006829
1273.16	0.004709
1282.8	0.003959
1292.45	0.004009
1302.09	0.003779
1311.74	0.004399
1321.38	0.005259
1331.03	0.004799
1340.67	0.003829
1350.32	0.003459
1359.96	0.003309
1369.61	0.003849
1379.25	0.005789
1388.9	0.009549
1398.54	0.008119
1408.18	0.003279
1417.83	0.002759
1427.47	0.002839
1437.12	0.004679
1446.76	0.006219
1456.41	0.007239
1466.05	0.009739
1475.7	0.009849
1485.34	0.017389
1494.99	0.022509
1504.63	0.013689
1514.28	0.008779
1523.92	0.005559
1533.57	0.003699
1543.21	0.002679
1552.86	0.002219
1562.5	0.001979
1572.15	0.002239
1581.79	0.002229
1591.44	0.002479
1601.08	0.002529
1610.73	0.001329
1620.37	0.0010919
1630.01	0.0011669
1639.66	0.0010025
1649.3	0.0007967
1658.95	0.0009369
1668.59	0.0008201
1678.24	0.0009137
1687.88	0.0009833
1697.53	0.0009338
1707.17	0.0012107
1716.82	0.001519
1726.46	0.002119
1736.11	0.002749
1745.75	0.004039
1755.4	0.008209
1765.04	0.019529
1774.69	0.031179
1784.33	0.016349
1793.98	0.005659
1803.62	0.003169
1813.27	0.002359
1822.91	0.001859
1832.55	0.001449
1842.2	0.0010613
1851.84	0.0009392
1861.49	0.0007145
1871.13	0.0005941
1880.78	0.0005934
1890.42	0.0005968
1900.07	0.0006839
1909.71	0.0009095
1919.36	0.0008015
1929	0.000759
1938.65	0.0006854
1948.29	0.0005249
1957.94	0.00047
1967.58	0.0004158
1977.23	0.0004915
1986.87	0.0005218
1996.52	0.0003938
2006.16	0.0003785
2015.81	0.0004231
2025.45	0.0003713
2035.1	0.0005044
2044.74	0.0004445
2054.38	0.0003978
2064.03	0.0004246
2073.67	0.000422
2083.32	0.0004275
2092.96	0.000482
2102.61	0.0004382
2112.25	0.0005189
2121.9	0.0004396
2131.54	0.0004147
2141.19	0.0004276
2150.83	0.0004993
2160.48	0.0006651
2170.12	0.0005837
2179.77	0.0006128
2189.41	0.000761
2199.06	0.0007801
2208.7	0.0008711
2218.35	0.000922
2227.99	0.001389
2237.64	0.001919
2247.28	0.002819
2256.92	0.004129
2266.57	0.004949
2276.21	0.004949
2285.86	0.003819
2295.5	0.002929
2305.15	0.002039
2314.79	0.001329
2324.44	0.0009977
2334.08	0.0006916
2343.73	0.0005558
2353.37	0.0004808
2363.02	0.0004375
2372.66	0.0004393
2382.31	0.0005017
2391.95	0.0004682
2401.6	0.0004522
2411.24	0.0005015
2420.89	0.0004175
2430.53	0.0004055
2440.18	0.000404
2449.82	0.0003283
2459.47	0.0003951
2469.11	0.00023196
2478.75	0.00026383
2488.4	0.0003493
2498.04	0.0003457
2507.69	0.0004165
2517.33	0.0003735
2526.98	0.00027861
2536.62	0.000225615
2546.27	0.00031586
2555.91	0.00021127
2565.56	0.000327
2575.2	0.0002005
2584.85	0.00027296
2594.49	0.0003994
2604.14	0.0003359
2613.78	0.0001983
2623.43	0.00027351
2633.07	0.00027489
2642.72	0.0003574
2652.36	0.000418
2662.01	0.00029964
2671.65	0.0003953
2681.29	0.0003779
2690.94	0.0003508
2700.58	0.0004149
2710.23	0.00022995
2719.87	0.0004581
2729.52	0.000545
2739.16	0.0003633
2748.81	0.0003563
2758.45	0.0003991
2768.1	0.0004055
2777.74	0.0004659
2787.39	0.0003827
2797.03	0.0004561
2806.68	0.0004038
2816.32	0.0005312
2825.97	0.0006184
2835.61	0.0006327
2845.26	0.0008171
2854.9	0.0009789
2864.55	0.001619
2874.19	0.002459
2883.84	0.003219
2893.48	0.003049
2903.12	0.002539
2912.77	0.002719
2922.41	0.003319
2932.06	0.004539
2941.7	0.005579
2951.35	0.005189
2960.99	0.005209
2970.64	0.006459
2980.28	0.005589
2989.93	0.003179
2999.57	0.001899
3009.22	0.001469
3018.86	0.001359
3028.51	0.001279
3038.15	0.001559
3047.8	0.002639
3057.44	0.005369
3067.09	0.005599
3076.73	0.003639
3086.38	0.002639
3096.02	0.001889
3105.67	0.0010654
3115.31	0.000723
3124.95	0.0005724
3134.6	0.00031237
3144.24	0.0002086
3153.89	0.00021449
3163.53	0.0002453
3173.18	0.000381
3182.82	0.0004238
3192.47	0.0003746
3202.11	0.000221444
3211.76	0.0001238
3221.4	0.0003652
3231.05	5.8e-05
3240.69	0.0003568
3250.34	0.0003692
3259.98	0.0001337
3269.63	0.000221303
3279.27	0.0001479
3288.92	0.0001288
3298.56	0.0003889
3308.21	0.00031529
3317.85	0.000198
3327.49	0.000116
3337.14	0.0002084
3346.78	0.000422
3356.43	0.000173
3366.07	0.00031186
3375.72	0.0002004
3385.36	0.0004312
3395.01	0.00028682
3404.65	0.0004623
3414.3	0.0001932
3423.94	0.0002981
3433.59	0.0005413
3443.23	0.000526
3452.88	0.0010875
3462.52	0.001729
3472.17	0.002049
3481.81	0.001969
3491.46	0.0011341
3501.1	0.0006226
3510.75	0.0004679
3520.39	0.000475
3530.04	0.0004326
3539.68	0.0005778
3549.32	0.0003361
3558.97	0.0003203
3568.61	0.00030211
3578.26	0.0003492
3587.9	0.000186
3597.55	0.00025089
3607.19	0.00029315
3616.84	0.0003407
3626.48	0.0005717
3636.13	0.0003898
3645.77	0.0007666
3655.42	0.0007371
3665.06	0.0003949
3674.71	0.0003337
3684.35	0.0004291
3694	0.0004145
3703.64	0.0001722
3713.29	7e-05
3722.93	8.4e-05
3732.58	8.1e-05
3742.22	0.0001831
3751.86	0.000103
3761.51	0.0003465
3771.15	0.00027757
3780.8	0.0003287
3790.44	0.0004179
3800.09	0.00021521
3809.73	0.0003781
3819.38	0.00024652
3829.02	8.2e-05
3838.67	0.000221484
3848.31	0.0001389
3857.96	0.0003306
3867.6	0.0002026
3877.25	9.3e-05
3886.89	0.00021192
3896.54	0.00020982
3906.18	0.00023955
3915.83	0.00027752
3925.47	6.6e-05
3935.12	0.0006004
3944.76	0.0003802
3954.41	0.0003843
3964.05	0.00026319
3973.69	9.7e-05
3983.34	0.0001967
3992.98	0.0004251
