Infrared Spectrum: 4-Chlorothiobenzamide
Formula: C 7 H 6 Cl N S
CAS: 2521-24-6
State: gas
Origin: EPA-IR VAPOR PHASE LIBRARY
1/CM	ABSORBANCE
549.9	0.006086
559.547	0.004266
569.193	0.004996
578.84	0.008986
588.486	0.008916
598.133	0.004066
607.779	0.002946
617.426	0.003586
627.072	0.003976
636.719	0.003806
646.365	0.003086
656.012	0.002116
665.658	0.001886
675.305	0.0016505
684.951	0.0017315
694.598	0.001876
704.245	0.002166
713.891	0.002586
723.538	0.002826
733.184	0.003166
742.831	0.006156
752.477	0.007056
762.124	0.005376
771.77	0.007056
781.417	0.008006
791.063	0.007796
800.71	0.008996
810.356	0.014266
820.003	0.023396
829.649	0.037376
839.296	0.028046
848.943	0.015906
858.589	0.007736
868.236	0.005336
877.882	0.004526
887.529	0.005246
897.175	0.007436
906.822	0.009846
916.468	0.010376
926.115	0.009586
935.761	0.008256
945.408	0.008176
955.054	0.008416
964.701	0.006816
974.347	0.005766
983.994	0.005376
993.64	0.004996
1003.29	0.007756
1012.93	0.019146
1022.58	0.013276
1032.23	0.004266
1041.87	0.003276
1051.52	0.003386
1061.17	0.004106
1070.81	0.006106
1080.46	0.015376
1090.11	0.051886
1099.75	0.053216
1109.4	0.012446
1119.05	0.006796
1128.69	0.004116
1138.34	0.002886
1147.99	0.002366
1157.63	0.002686
1167.28	0.003106
1176.92	0.003906
1186.57	0.003426
1196.22	0.003246
1205.86	0.003276
1215.51	0.004056
1225.16	0.004556
1234.8	0.005956
1244.45	0.008306
1254.1	0.011756
1263.74	0.010986
1273.39	0.007876
1283.04	0.008566
1292.68	0.014696
1302.33	0.019126
1311.98	0.027366
1321.62	0.048196
1331.27	0.061306
1340.92	0.040806
1350.56	0.021776
1360.21	0.013056
1369.86	0.009376
1379.5	0.008086
1389.15	0.009736
1398.79	0.012616
1408.44	0.010906
1418.09	0.006336
1427.73	0.003276
1437.38	0.002526
1447.03	0.002146
1456.67	0.003166
1466.32	0.005786
1475.97	0.015556
1485.61	0.035116
1495.26	0.028046
1504.91	0.007066
1514.55	0.002696
1524.2	0.002426
1533.85	0.002666
1543.49	0.003386
1553.14	0.004686
1562.79	0.007946
1572.43	0.012706
1582.08	0.027196
1591.73	0.059066
1601.37	0.057776
1611.02	0.026296
1620.67	0.010856
1630.31	0.005576
1639.96	0.004176
1649.6	0.003706
1659.25	0.003126
1668.9	0.002856
1678.54	0.002526
1688.19	0.001926
1697.84	0.0016162
1707.48	0.0012569
1717.13	0.0014858
1726.78	0.0011094
1736.42	0.001195
1746.07	0.0012342
1755.72	0.0014329
1765.36	0.0017124
1775.01	0.001986
1784.66	0.001776
1794.3	0.0012505
1803.95	0.0010518
1813.6	0.0009477
1823.24	0.0009264
1832.89	0.0009817
1842.54	0.0011005
1852.18	0.0009336
1861.83	0.0010098
1871.47	0.0012585
1881.12	0.0015663
1890.77	0.002006
1900.41	0.002216
1910.06	0.002196
1919.71	0.001796
1929.35	0.0012198
1939	0.0008897
1948.65	0.0007308
1958.29	0.0007333
1967.94	0.00078104
1977.59	0.000760567
1987.23	0.0007439
1996.88	0.0007329
2006.53	0.0007166
2016.17	0.00075136
2025.82	0.00080124
2035.47	0.0009136
2045.11	0.0009189
2054.76	0.00082773
2064.41	0.0008921
2074.05	0.0010083
2083.7	0.00084051
2093.35	0.0006797
2102.99	0.0006669
2112.64	0.0006594
2122.28	0.000648
2131.93	0.0006767
2141.58	0.0006705
2151.22	0.000643
2160.87	0.000632
2170.52	0.0007042
2180.16	0.000756641
2189.81	0.0007223
2199.46	0.0007277
2209.1	0.00083373
2218.75	0.0014446
2228.4	0.003216
2238.04	0.003706
2247.69	0.001766
2257.34	0.00080536
2266.98	0.00082652
2276.63	0.0009425
2286.28	0.000976
2295.92	0.0009492
2305.57	0.0008923
2315.22	0.0008571
2324.86	0.00077856
2334.51	0.00081896
2344.16	0.00078895
2353.8	0.00077992
2363.45	0.0008728
2373.09	0.0008611
2382.74	0.000759088
2392.39	0.0007151
2402.03	0.0007213
2411.68	0.0007011
2421.33	0.0006673
2430.97	0.000641
2440.62	0.000651
2450.27	0.000619
2459.91	0.000614
2469.56	0.000666
2479.21	0.0006781
2488.85	0.00078639
2498.5	0.0009001
2508.15	0.0010012
2517.79	0.0010345
2527.44	0.000939
2537.09	0.0008604
2546.73	0.00080801
2556.38	0.0007233
2566.03	0.00077456
2575.67	0.00085134
2585.32	0.00084722
2594.96	0.0007743
2604.61	0.000758003
2614.26	0.0006925
2623.9	0.0007249
2633.55	0.0006993
2643.2	0.0007336
2652.84	0.00079856
2662.49	0.00084425
2672.14	0.00075106
2681.78	0.00077593
2691.43	0.0006802
2701.08	0.000597
2710.72	0.000632
2720.37	0.000639
2730.02	0.000624
2739.66	0.000647
2749.31	0.000624
2758.96	0.000569
2768.6	0.0006769
2778.25	0.0007318
2787.9	0.000597
2797.54	0.000635
2807.19	0.000545
2816.84	0.000589
2826.48	0.000536
2836.13	0.000468
2845.77	0.000418
2855.42	0.000348
2865.07	0.000411
2874.71	0.000259
2884.36	0.00035
2894.01	0.00044
2903.65	0.00056
2913.3	0.0006829
2922.95	0.0007348
2932.59	0.000632
2942.24	0.000622
2951.89	0.000449
2961.53	0.000461
2971.18	0.000298
2980.83	0.000429
2990.47	0.000271
3000.12	0.000399
3009.77	0.000585
3019.41	0.0007302
3029.06	0.0011161
3038.71	0.0014678
3048.35	0.0015563
3058	0.0014822
3067.64	0.0015299
3077.29	0.0017314
3086.94	0.002096
3096.58	0.002176
3106.23	0.0014634
3115.88	0.00078776
3125.52	0.000502
3135.17	0.000474
3144.82	0.000375
3154.46	0.000465
3164.11	0.000554
3173.76	0.000651
3183.4	0.000621
3193.05	0.000444
3202.7	0.000489
3212.34	0.000298
3221.99	0.000308
3231.64	4.3e-05
3241.28	0.00016
3250.93	0.000298
3260.58	0.000125
3270.22	0.000192
3279.87	0.000245
3289.52	0.000237
3299.16	0.000262
3308.81	0.000234
3318.45	0.000277
3328.1	0.000396
3337.75	0.000385
3347.39	0.00056
3357.04	0.0008906
3366.69	0.0014362
3376.33	0.002296
3385.98	0.004386
3395.63	0.007946
3405.27	0.011376
3414.92	0.009946
3424.57	0.004906
3434.21	0.002086
3443.86	0.0011991
3453.51	0.001006
3463.15	0.001026
3472.8	0.0012418
3482.45	0.0017454
3492.09	0.002446
3501.74	0.003546
3511.39	0.005516
3521.03	0.008606
3530.68	0.009356
3540.33	0.003676
3549.97	0.0011839
3559.62	0.0008919
3569.26	0.0010172
3578.91	0.0007154
3588.56	0.0009093
3598.2	0.000566
3607.85	0.00074719
3617.5	0.00076722
3627.14	0.000764573
3636.79	0.000516
3646.44	0.00076964
3656.08	0.0007335
3665.73	0.0007439
3675.38	0.00081773
3685.02	0.000637
3694.67	0.0007057
3704.32	0.0006595
3713.96	0.0007991
3723.61	0.00079604
3733.26	0.0010028
3742.9	0.0010891
3752.55	0.0008365
3762.2	0.0006655
3771.84	0.0006586
3781.49	0.000649
3791.13	0.0007321
3800.78	0.00081583
3810.43	0.0007195
3820.07	0.0008751
3829.72	0.00082364
3839.37	0.0010417
3849.01	0.00082897
3858.66	0.00085395
3868.31	0.0009116
3877.95	0.00085594
3887.6	0.0009861
3897.25	0.0008973
3906.89	0.00080198
3916.54	0.00079869
3926.19	0.0006784
3935.83	0.0006752
3945.48	0.000756832
3955.13	0.0006811
3964.77	0.0006763
3974.42	0.000589
3984.07	0.0006567
3993.71	0.000631
