Infrared Spectrum: PHOSPHORODICHLORIDOTHIOIC ACID, O-METHYL ESTER
Formula: C H3 Cl2 O P S
CAS: 2523-94-6
State: SOLUTION (10% IN CCl4 FOR 3800-1330, 10% IN CS2 FOR 1330-400 CM^-^1)
Class: COBLENTZ III
Instrument: DOW KBr FOREPRISM-GRATING
Instrument parameters: BLAZED AT 3.5, 12.0, 20.0 MICRON, CHANGED AT 5.0, 7.5, 14.9 MICRON
Sampling: TRANSMISSION
Path length: 0.011, 0.010 CM
Resolution: 4
Origin: DOW CHEMICAL COMPANY
1/CM	TRANSMITTANCE
380.614	0.252
389.994	0.256
399.375	0.283
408.755	0.43
418.135	0.688
427.516	0.76
436.896	0.777
446.277	0.7291
455.657	0.454
465.037	0.681
474.418	0.368
483.798	0.366
493.178	0.719
502.559	0.793
511.939	0.753
521.319	0.5431
530.7	0.0341
540.08	0.1989
549.46	0.2832
558.841	0.007
568.221	0.284
577.602	0.754
586.982	0.882
596.362	0.937
605.743	0.964
615.123	0.962
624.503	0.966
633.884	0.96
643.264	0.925
652.644	0.829
662.025	0.728
671.405	0.878
680.785	0.846
690.166	0.683
699.546	0.1501
708.927	0.005
718.307	0.133
727.687	0.0749
737.068	0.8019
746.448	0.889
755.828	0.912
765.209	0.941
774.589	0.937
783.969	0.912
793.35	0.877
802.73	0.814
812.11	0.5831
821.491	0.0501
830.871	0.01
840.252	0.3759
849.632	0.555
859.012	0.677
868.393	0.793
877.773	0.852
887.153	0.91
896.534	0.945
905.914	0.954
915.294	0.954
924.675	0.95
934.055	0.95
943.436	0.949
952.816	0.94
962.196	0.924
971.577	0.904
980.957	0.868
990.337	0.802
999.718	0.664
1009.1	0.3871
1018.48	0.035
1027.86	0.01
1037.24	0.009
1046.62	0.014
1056	0.205
1065.38	0.519
1074.76	0.611
1084.14	0.699
1093.52	0.769
1102.9	0.792
1112.28	0.804
1121.66	0.832
1131.04	0.838
1140.42	0.833
1149.8	0.806
1159.18	0.749
1168.56	0.609
1177.94	0.467
1187.32	0.713
1196.71	0.822
1206.09	0.854
1215.47	0.873
1224.85	0.885
1234.23	0.884
1243.61	0.886
1252.99	0.89
1262.37	0.89
1271.75	0.897
1281.13	0.909
1290.51	0.913
1299.89	0.912
1309.27	0.912
1318.65	0.904
1328.03	0.904
1337.41	0.905
1346.79	0.905
1356.17	0.904
1365.55	0.902
1374.93	0.9
1384.31	0.896
1393.69	0.889
1403.07	0.877
1412.45	0.864
1421.83	0.85
1431.21	0.809
1440.59	0.5829
1449.97	0.535
1459.36	0.524
1468.74	0.728
1478.12	0.794
1487.5	0.79
1496.88	0.756
1506.26	0.707
1515.64	0.667
1525.02	0.621
1534.4	0.548
1543.78	0.466
1553.16	0.454
1562.54	0.523
1571.92	0.615
1581.3	0.631
1590.68	0.676
1600.06	0.78
1609.44	0.854
1618.82	0.881
1628.2	0.896
1637.58	0.904
1646.96	0.909
1656.34	0.91
1665.72	0.913
1675.1	0.913
1684.48	0.913
1693.86	0.913
1703.24	0.91
1712.62	0.904
1722.01	0.894
1731.39	0.896
1740.77	0.908
1750.15	0.909
1759.53	0.893
1768.91	0.901
1778.29	0.921
1787.67	0.924
1797.05	0.924
1806.43	0.921
1815.81	0.914
1825.19	0.91
1834.57	0.896
1843.95	0.87
1853.33	0.838
1862.71	0.864
1872.09	0.905
1881.47	0.918
1890.85	0.924
1900.23	0.93
1909.61	0.933
1918.99	0.938
1928.37	0.938
1937.75	0.938
1947.13	0.938
1956.51	0.942
1965.89	0.933
1975.27	0.929
1984.66	0.926
1994.04	0.926
2003.42	0.932
2012.8	0.935
2022.18	0.938
2031.56	0.94
2040.94	0.941
2050.32	0.941
2059.7	0.941
2069.08	0.941
2078.46	0.944
2087.84	0.944
2097.22	0.944
2106.6	0.945
2115.98	0.945
2125.36	0.945
2134.74	0.945
2144.12	0.945
2153.5	0.9441
2162.88	0.9446
2172.26	0.945
2181.64	0.944
2191.02	0.944
2200.4	0.942
2209.78	0.942
2219.16	0.941
2228.54	0.941
2237.92	0.9403
2247.31	0.938
2256.69	0.9346
2266.07	0.929
2275.45	0.9253
2284.83	0.924
2294.21	0.925
2303.59	0.9242
2312.97	0.9363
2322.35	0.9428
2331.73	0.948
2341.11	0.952
2350.49	0.952
2359.87	0.954
2369.25	0.954
2378.63	0.9481
2388.01	0.946
2397.39	0.948
2406.77	0.948
2416.15	0.948
2425.53	0.948
2434.91	0.946
2444.29	0.946
2453.67	0.946
2463.05	0.946
2472.43	0.9454
2481.81	0.946
2491.19	0.946
2500.58	0.945
2509.96	0.945
2519.34	0.946
2528.72	0.946
2538.1	0.945
2547.48	0.945
2556.86	0.945
2566.24	0.944
2575.62	0.944
2585	0.9431
2594.38	0.942
2603.76	0.941
2613.14	0.941
2622.52	0.942
2631.9	0.942
2641.28	0.944
2650.66	0.942
2660.04	0.942
2669.42	0.942
2678.8	0.942
2688.18	0.942
2697.56	0.9414
2706.94	0.9409
2716.32	0.94
2725.7	0.94
2735.08	0.938
2744.46	0.938
2753.84	0.938
2763.23	0.938
2772.61	0.937
2781.99	0.937
2791.37	0.937
2800.75	0.934
2810.13	0.9333
2819.51	0.9313
2828.89	0.9223
2838.27	0.9022
2847.65	0.7468
2857.03	0.9052
2866.41	0.917
2875.79	0.9138
2885.17	0.9031
2894.55	0.88
2903.93	0.8999
2913.31	0.902
2922.69	0.9003
2932.07	0.8885
2941.45	0.8499
2950.83	0.6371
2960.21	0.4831
2969.59	0.8441
2978.97	0.8818
2988.35	0.8788
2997.73	0.8559
3007.11	0.8306
3016.49	0.8448
3025.88	0.846
3035.26	0.8515
3044.64	0.8927
3054.02	0.912
3063.4	0.9204
3072.78	0.924
3082.16	0.9267
3091.54	0.93
3100.92	0.933
3110.3	0.9358
3119.68	0.94
3129.06	0.941
3138.44	0.942
3147.82	0.944
3157.2	0.945
3166.58	0.946
3175.96	0.948
3185.34	0.949
3194.72	0.949
3204.1	0.95
3213.48	0.952
3222.86	0.952
3232.24	0.952
3241.62	0.952
3251	0.953
3260.38	0.953
3269.76	0.953
3279.14	0.952
3288.53	0.954
3297.91	0.956
3307.29	0.956
3316.67	0.956
3326.05	0.956
3335.43	0.956
3344.81	0.957
3354.19	0.957
3363.57	0.957
3372.95	0.958
3382.33	0.958
3391.71	0.958
3401.09	0.957
3410.47	0.957
3419.85	0.957
3429.23	0.958
3438.61	0.9593
3447.99	0.961
3457.37	0.9617
3466.75	0.9612
3476.13	0.961
3485.51	0.962
3494.89	0.962
3504.27	0.964
3513.65	0.9643
3523.03	0.9652
3532.41	0.966
3541.79	0.9665
3551.18	0.968
3560.56	0.969
3569.94	0.968
3579.32	0.968
3588.7	0.9716
3598.08	0.974
3607.46	0.973
3616.84	0.973
3626.22	0.974
3635.6	0.976
3644.98	0.9813
3654.36	0.9713
3663.74	0.972
3673.12	0.972
3682.5	0.972
3691.88	0.9707
3701.26	0.976
3710.64	0.978
3720.02	0.978
3729.4	0.978
3738.78	0.978
3748.16	0.978
3757.54	0.978
3766.92	0.978
3776.3	0.978
3785.68	0.9789
3795.06	0.978
