Infrared Spectrum: PHOSPHORODICHLORIDOTHIOIC ACID, O-PROPYL ESTER
Formula: C3 H7 Cl2 O P S
CAS: 2523-96-8
State: SOLUTION (10% IN CCl4 FOR 3800-1330, 10% IN CS2 FOR 1330-450 CM^-^1)
Class: COBLENTZ III
Instrument: DOW KBr FOREPRISM-GRATING
Instrument parameters: BLAZED AT 3.5, 12.0, 20.0 MICRON, CHANGED AT 5.0, 7.5, 14.9 MICRON
Sampling: TRANSMISSION
Path length: 0.010, 0.010 CM
Resolution: 4
Origin: DOW CHEMICAL COMPANY
1/CM	TRANSMITTANCE
450.175	0.759
458.916	0.744
467.658	0.694
476.399	0.483
485.14	0.351
493.881	0.444
502.623	0.485
511.364	0.597
520.105	0.383
528.846	0.023
537.588	0.317
546.329	0.092
555.07	0.014
563.811	0.376
572.553	0.783
581.294	0.858
590.035	0.925
598.777	0.949
607.518	0.972
616.259	0.976
625	0.971
633.742	0.961
642.483	0.942
651.224	0.902
659.965	0.87
668.707	0.841
677.448	0.792
686.189	0.554
694.93	0.101
703.672	0.229
712.413	0.044
721.154	0.183
729.896	0.288
738.637	0.373
747.378	0.396
756.119	0.05
764.861	0.398
773.602	0.807
782.343	0.877
791.084	0.898
799.826	0.896
808.567	0.881
817.308	0.836
826.049	0.707
834.791	0.448
843.532	0.324
852.273	0.331
861.015	0.46
869.756	0.645
878.497	0.679
887.238	0.747
895.98	0.811
904.721	0.759
913.462	0.778
922.203	0.85
930.945	0.869
939.686	0.854
948.427	0.831
957.168	0.775
965.91	0.669
974.651	0.467
983.392	0.089
992.134	0.006
1000.87	0.006
1009.62	0.008
1018.36	0.017
1027.1	0.108
1035.84	0.353
1044.58	0.316
1053.32	0.263
1062.06	0.603
1070.8	0.745
1079.55	0.792
1088.29	0.793
1097.03	0.771
1105.77	0.823
1114.51	0.854
1123.25	0.855
1131.99	0.858
1140.74	0.841
1149.48	0.805
1158.22	0.869
1166.96	0.889
1175.7	0.932
1184.44	0.937
1193.18	0.96
1201.92	0.961
1210.67	0.964
1219.41	0.964
1228.15	0.96
1236.89	0.941
1245.63	0.904
1254.37	0.812
1263.11	0.847
1271.85	0.843
1280.6	0.86
1289.34	0.914
1298.08	0.918
1306.82	0.926
1315.56	0.949
1324.3	0.968
1333.04	0.972
1341.78	0.97
1350.53	0.963
1359.27	0.98
1368.01	0.975
1376.75	0.934
1385.49	0.869
1394.23	0.778
1402.97	0.944
1411.71	0.942
1420.46	0.936
1429.2	0.906
1437.94	0.839
1446.68	0.841
1455.42	0.673
1464.16	0.538
1472.9	0.645
1481.64	0.839
1490.39	0.862
1499.13	0.839
1507.87	0.808
1516.61	0.751
1525.35	0.707
1534.09	0.645
1542.83	0.547
1551.57	0.5
1560.32	0.577
1569.06	0.661
1577.8	0.695
1586.54	0.716
1595.28	0.793
1604.02	0.872
1612.76	0.932
1621.5	0.966
1630.25	0.985
1638.99	1.004
1647.73	1.008
1656.47	0.987
1665.21	0.983
1673.95	0.975
1682.69	0.976
1691.43	0.956
1700.18	0.966
1708.92	0.955
1717.66	0.953
1726.4	0.933
1735.14	0.936
1743.88	0.945
1752.62	0.957
1761.36	0.966
1770.11	0.976
1778.85	0.97
1787.59	0.97
1796.33	0.966
1805.07	0.961
1813.81	0.955
1822.55	0.951
1831.3	0.936
1840.04	0.929
1848.78	0.929
1857.52	0.941
1866.26	0.953
1875	0.961
1883.74	0.966
1892.48	0.974
1901.23	0.976
1909.97	0.98
1918.71	0.985
1927.45	0.987
1936.19	0.991
1944.93	0.995
1953.67	1
1962.41	1.002
1971.16	1.006
1979.9	1.01
1988.64	1.013
1997.38	1.016
2006.12	1.017
2014.86	1.019
2023.6	1.019
2032.34	1.019
2041.09	1.02
2049.83	1.02
2058.57	1.02
2067.31	1.021
2076.05	1.021
2084.79	1.021
2093.53	1.023
2102.27	1.023
2111.02	1.023
2119.76	1.0236
2128.5	1.0221
2137.24	1.021
2145.98	1.021
2154.72	1.0204
2163.46	1.0206
2172.2	1.0196
2180.95	1.0181
2189.69	1.016
2198.43	1.017
2207.17	1.017
2215.91	1.016
2224.65	1.014
2233.39	1.012
2242.13	1.01
2250.88	1.006
2259.62	1.0028
2268.36	0.9992
2277.1	0.9962
2285.84	0.994
2294.58	0.997
2303.32	1.001
2312.06	1.0044
2320.81	1.008
2329.55	1.0148
2338.29	1.0109
2347.03	1.0069
2355.77	1.017
2364.51	1.0153
2373.25	1.012
2381.99	1.009
2390.74	1.01
2399.48	1.012
2408.22	1.012
2416.96	1.01
2425.7	1.012
2434.44	1.012
2443.18	1.012
2451.92	1.012
2460.67	1.01
2469.41	1.01
2478.15	1.009
2486.89	1.009
2495.63	1.008
2504.37	1.008
2513.11	1.008
2521.86	1.008
2530.6	1.0087
2539.34	1.008
2548.08	1.006
2556.82	1.005
2565.56	1.005
2574.3	1.005
2583.04	1.004
2591.79	1.004
2600.53	1.001
2609.27	0.9994
2618.01	1.0026
2626.75	1.002
2635.49	1.002
2644.23	1.001
2652.97	1.001
2661.72	1
2670.46	1
2679.2	0.998
2687.94	0.997
2696.68	0.997
2705.42	0.995
2714.16	0.993
2722.9	0.991
2731.65	0.9858
2740.39	0.985
2749.13	0.9852
2757.87	0.9858
2766.61	0.986
2775.35	0.989
2784.09	0.989
2792.83	0.986
2801.58	0.9798
2810.32	0.975
2819.06	0.9696
2827.8	0.9583
2836.54	0.9409
2845.28	0.911
2854.02	0.8777
2862.76	0.9
2871.51	0.8601
2880.25	0.645
2888.99	0.707
2897.73	0.709
2906.47	0.797
2915.21	0.7685
2923.95	0.6817
2932.69	0.6642
2941.44	0.5405
2950.18	0.6183
2958.92	0.5256
2967.66	0.4289
2976.4	0.2603
2985.14	0.3649
2993.88	0.7269
3002.62	0.8628
3011.37	0.9236
3020.11	0.9525
3028.85	0.9643
3037.59	0.9712
3046.33	0.9763
3055.07	0.98
3063.81	0.985
3072.55	0.9851
3081.3	0.9873
3090.04	0.9891
3098.78	0.9941
3107.52	0.998
3116.26	0.9982
3125	1.001
3133.74	1.001
3142.49	1.001
3151.23	1.001
3159.97	1.004
3168.71	1.005
3177.45	1.005
3186.19	1.006
3194.93	1.008
3203.67	1.009
3212.42	1.009
3221.16	1.009
3229.9	1.01
3238.64	1.01
3247.38	1.012
3256.12	1.012
3264.86	1.012
3273.6	1.012
3282.35	1.012
3291.09	1.012
3299.83	1.0119
3308.57	1.0089
3317.31	1.0091
3326.05	1.01
3334.79	1.01
3343.53	1.01
3352.28	1.01
3361.02	1.012
3369.76	1.012
3378.5	1.01
3387.24	1.01
3395.98	1.009
3404.72	1.009
3413.46	1.006
3422.21	1.006
3430.95	1.004
3439.69	1.002
3448.43	1
3457.17	0.998
3465.91	0.995
3474.65	0.995
3483.39	0.995
3492.14	0.995
3500.88	0.994
3509.62	0.993
3518.36	0.994
3527.1	0.993
3535.84	0.993
3544.58	0.993
3553.32	0.993
3562.07	0.99
3570.81	0.989
3579.55	0.9831
3588.29	0.987
3597.03	0.986
3605.77	0.986
3614.51	0.982
3623.25	0.98
3632	0.98
3640.74	0.9819
3649.48	0.9821
3658.22	0.976
3666.96	0.9829
3675.7	0.9871
3684.44	0.98
3693.18	0.9751
3701.93	0.9817
3710.67	0.9872
3719.41	0.9889
3728.15	0.9909
3736.89	0.991
3745.63	0.9941
3754.37	0.989
3763.11	0.99
3771.86	0.987
3780.6	0.986
3789.34	0.9832
3798.08	0.978
