Infrared Spectrum: 2-Chlorofluorene
Formula: C 13 H 9 Cl
CAS: 2523-44-6
State: gas
Origin: EPA-IR VAPOR PHASE LIBRARY
1/CM	ABSORBANCE
549.8	0.0008838
559.445	0.0008527
569.09	0.0010964
578.734	0.00037264
588.379	0.0005731
598.024	0.00036539
607.669	0.0004929
617.313	0.00016
626.958	0.0006005
636.603	0.00088
646.248	0.000554
655.893	0.0004538
665.537	0.0010852
675.182	0.0012491
684.827	0.00042819
694.472	0.0006051
704.116	0.0009786
713.761	0.003694
723.406	0.009504
733.051	0.009384
742.695	0.005784
752.34	0.009004
761.985	0.011634
771.63	0.005924
781.275	0.001774
790.919	0.0006765
800.564	0.0013295
810.209	0.003554
819.854	0.006654
829.498	0.003154
839.143	0.0011734
848.788	0.001604
858.433	0.002844
868.078	0.007064
877.722	0.009014
887.367	0.001744
897.012	0.001333
906.657	0.001
916.301	0.0009177
925.946	0.0009644
935.591	0.0010306
945.236	0.0010288
954.88	0.0011761
964.525	0.0006085
974.17	0.0008099
983.815	0.0007297
993.46	0.0009464
1003.1	0.002674
1012.75	0.001484
1022.39	0.0005148
1032.04	0.0007265
1041.68	0.00035241
1051.33	0.001724
1060.97	0.002394
1070.62	0.007874
1080.26	0.006924
1089.91	0.002564
1099.55	0.002304
1109.2	0.0011262
1118.84	0.0009106
1128.49	0.0011827
1138.13	0.0010506
1147.78	0.002284
1157.42	0.002724
1167.07	0.002614
1176.71	0.003824
1186.36	0.003914
1196	0.002994
1205.64	0.000681
1215.29	0.0007957
1224.93	0.001414
1234.58	0.001604
1244.22	0.0006389
1253.87	0.0009564
1263.51	0.003264
1273.16	0.002654
1282.8	0.001624
1292.45	0.002184
1302.09	0.001394
1311.74	0.0006497
1321.38	0.0005885
1331.03	0.0006117
1340.67	0.0005541
1350.32	0.0010467
1359.96	0.0008486
1369.61	0.0007106
1379.25	0.0009223
1388.9	0.001414
1398.54	0.002784
1408.18	0.005684
1417.83	0.006274
1427.47	0.004574
1437.12	0.004994
1446.76	0.014494
1456.41	0.011684
1466.05	0.006584
1475.7	0.006334
1485.34	0.003094
1494.99	0.001584
1504.63	0.0009399
1514.28	0.000718
1523.92	0.0005296
1533.57	0.0005447
1543.21	0.0007505
1552.86	0.001039
1562.5	0.001814
1572.15	0.002014
1581.79	0.001904
1591.44	0.001454
1601.08	0.002564
1610.73	0.002614
1620.37	0.0012104
1630.01	0.0009909
1639.66	0.001084
1649.3	0.000908
1658.95	0.000644
1668.59	0.0006322
1678.24	0.000696
1687.88	0.0006101
1697.53	0.0005313
1707.17	0.0007529
1716.82	0.0008563
1726.46	0.0008476
1736.11	0.0006193
1745.75	0.0006067
1755.4	0.0005949
1765.04	0.0005747
1774.69	0.0007477
1784.33	0.0007788
1793.98	0.0007675
1803.62	0.0007115
1813.27	0.0007684
1822.91	0.0007915
1832.55	0.0006671
1842.2	0.0005826
1851.84	0.0006272
1861.49	0.0007799
1871.13	0.0008868
1880.78	0.0010064
1890.42	0.0009754
1900.07	0.0008428
1909.71	0.0006563
1919.36	0.00068
1929	0.0007556
1938.65	0.0010489
1948.29	0.0006842
1957.94	0.00041428
1967.58	0.00041473
1977.23	0.00035046
1986.87	0.0003055
1996.52	0.00036816
2006.16	0.0003392
2015.81	0.00037333
2025.45	0.0003667
2035.1	0.00040293
2044.74	0.00035097
2054.38	0.000354247
2064.03	0.0002719
2073.67	0.0002811
2083.32	0.0002594
2092.96	0.0002966
2102.61	0.00041693
2112.25	0.00040107
2121.9	0.00038908
2131.54	0.000358443
2141.19	0.00035041
2150.83	0.00040082
2160.48	0.0004778
2170.12	0.0003715
2179.77	0.0003355
2189.41	0.0002762
2199.06	0.0003384
2208.7	0.00042836
2218.35	0.00040546
2227.99	0.0004724
2237.64	0.00044626
2247.28	0.000504
2256.92	0.0004265
2266.57	0.0005272
2276.21	0.00037929
2285.86	0.00038373
2295.5	0.00041124
2305.15	0.00040906
2314.79	0.00041843
2324.44	0.0003455
2334.08	0.00043624
2343.73	0.0005126
2353.37	0.0004569
2363.02	0.00042339
2372.66	0.0003787
2382.31	0.0002974
2391.95	0.00039388
2401.6	0.00037462
2411.24	0.00040139
2420.89	0.000358638
2430.53	0.00040377
2440.18	0.00036984
2449.82	0.00038383
2459.47	0.00040796
2469.11	0.0003761
2478.75	0.0004773
2488.4	0.00044729
2498.04	0.00041122
2507.69	0.0003434
2517.33	0.00037129
2526.98	0.0005035
2536.62	0.00044926
2546.27	0.00039635
2555.91	0.000356916
2565.56	0.00042536
2575.2	0.0004765
2584.85	0.00038858
2594.49	0.0004619
2604.14	0.00040402
2613.78	0.0005036
2623.43	0.0003025
2633.07	0.0003188
2642.72	0.00044133
2652.36	0.00044641
2662.01	0.00038483
2671.65	0.00042508
2681.29	0.00042258
2690.94	0.00039297
2700.58	0.00041051
2710.23	0.0003871
2719.87	0.00041829
2729.52	0.0003368
2739.16	0.00042751
2748.81	0.00043819
2758.45	0.00041524
2768.1	0.0004716
2777.74	0.0004966
2787.39	0.0004724
2797.03	0.0008062
2806.68	0.0009686
2816.32	0.0007736
2825.97	0.0004728
2835.61	0.00039829
2845.26	0.0004545
2854.9	0.00039202
2864.55	0.00041652
2874.19	0.0004786
2883.84	0.000641
2893.48	0.0009779
2903.12	0.002144
2912.77	0.003634
2922.41	0.003114
2932.06	0.001824
2941.7	0.0007914
2951.35	0.0005649
2960.99	0.000501
2970.64	0.000354656
2980.28	0.0005359
2989.93	0.0005856
2999.57	0.0011603
3009.22	0.001994
3018.86	0.003064
3028.51	0.004044
3038.15	0.004334
3047.8	0.004284
3057.44	0.005334
3067.09	0.008964
3076.73	0.008304
3086.38	0.005064
3096.02	0.002734
3105.67	0.0012317
3115.31	0.000662
3124.95	0.000507
3134.6	0.0006655
3144.24	0.00045048
3153.89	0.0005285
3163.53	0.0005139
3173.18	0.0005966
3182.82	0.00044256
3192.47	0.0003014
3202.11	0.0003084
3211.76	0.0004772
3221.4	0.00044795
3231.05	0.0004643
3240.69	0.000242
3250.34	0.000255
3259.98	0.0002834
3269.63	0.000166
3279.27	0.000252
3288.92	0.000149
3298.56	0.000249
3308.21	0.00044429
3317.85	0.000193
3327.49	0.000246
3337.14	0.000182
3346.78	0.0002844
3356.43	0.000127
3366.07	0.000136
3375.72	0.0002917
3385.36	0.000228
3395.01	0.000191
3404.65	0.00044693
3414.3	0.000253
3423.94	0.0003266
3433.59	0.00036479
3443.23	0.00023
3452.88	0.0002995
3462.52	0.00039851
3472.17	0.00040784
3481.81	0.00044238
3491.46	0.0003394
3501.1	0.00034781
3510.75	0.000253
3520.39	0.0003418
3530.04	0.0002784
3539.68	0.00022
3549.32	0.0004983
3558.97	0.000166
3568.61	0.00037539
3578.26	0.000356873
3587.9	0.0003055
3597.55	0.000193
3607.19	0.000359245
3616.84	0.00041639
3626.48	0.0007456
3636.13	9.4e-05
3645.77	0.0002952
3655.42	0.00040591
3665.06	0.000165
3674.71	0.0003014
3684.35	0.000219
3694	0.00036807
3703.64	0.000145
3713.29	0.000291
3722.93	0.00037513
3732.58	0.0003367
3742.22	0.0005332
3751.86	0.000227
3761.51	0.0002989
3771.15	0.00034688
3780.8	0.00043778
3790.44	0.0005091
3800.09	0.0004842
3809.73	0.000195
3819.38	0.00044752
3829.02	0.00045042
3838.67	0.000177
3848.31	0.000183
3857.96	0.0002667
3867.6	0.0004711
3877.25	0.0003343
3886.89	0.00039353
3896.54	0.000241
3906.18	0.00036435
3915.83	0.0005697
3925.47	0.0002657
3935.12	0.00040441
3944.76	0.0003118
3954.41	0.0002961
3964.05	0.0004308
3973.69	0.0002564
3983.34	0.0002996
3992.98	0.00040547
