Infrared Spectrum: PHOSPHOROCHLORIDOTHIOIC ACID, O,O-DIETHYL ESTER
Formula: C4 H10 Cl O2 P S
CAS: 2524-04-1
State: SOLUTION (10% CCl4 FOR 3800-1333, 10% CS2 FOR 1333-450 CM^-^1)
Class: COBLENTZ III
Instrument: Not specified, most likely a prism, grating, or hybrid spectrometer.
Sampling: TRANSMISSION
Path length: 0.011 CM, 0.011 CM
Resolution: 4
Origin: DOW CHEMICAL COMPANY
1/CM	TRANSMITTANCE
450.988	0.726
460.107	0.726
469.225	0.724
478.344	0.701
487.462	0.588
496.581	0.063
505.7	0.09
514.818	0.4339
523.937	0.598
533.055	0.54
542.174	0.514
551.293	0.7058
560.411	0.9359
569.53	1.012
578.648	1.033
587.767	1.033
596.886	1.035
606.004	1.024
615.123	1.022
624.241	1.007
633.36	0.964
642.479	0.8391
651.597	0.2013
660.716	0.005
669.834	0.088
678.953	0.1271
688.071	0.5748
697.19	0.8559
706.309	0.954
715.427	0.978
724.546	0.996
733.664	0.996
742.783	0.991
751.902	0.98
761.02	0.955
770.139	0.888
779.257	0.7042
788.376	0.4431
797.495	0.21
806.613	0.107
815.732	0.038
824.85	0.056
833.969	0.068
843.088	0.3399
852.206	0.671
861.325	0.726
870.443	0.791
879.562	0.851
888.681	0.895
897.799	0.948
906.918	0.941
916.036	0.897
925.155	0.84
934.274	0.726
943.392	0.464
952.511	0.166
961.629	0.037
970.748	0.012
979.867	0.015
988.985	0.111
998.104	0.2169
1007.22	0.0001
1016.34	0
1025.46	0.001
1034.58	0.003
1043.7	0.005
1052.82	0.021
1061.93	0.104
1071.05	0.298
1080.17	0.496
1089.29	0.54
1098.41	0.4151
1107.53	0.445
1116.65	0.671
1125.76	0.766
1134.88	0.765
1144	0.738
1153.12	0.66
1162.24	0.353
1171.36	0.5001
1180.48	0.7661
1189.59	0.89
1198.71	0.943
1207.83	0.971
1216.95	0.989
1226.07	1
1235.19	1.008
1244.31	1.012
1253.42	1.001
1262.54	0.98
1271.66	0.966
1280.78	0.943
1289.9	0.872
1299.02	0.849
1308.14	0.929
1317.25	0.969
1326.37	0.985
1335.49	0.992
1344.61	0.994
1353.73	0.987
1362.85	0.971
1371.97	0.901
1381.08	0.858
1390.2	0.6667
1399.32	0.4383
1408.44	0.8351
1417.56	0.906
1426.68	0.908
1435.8	0.849
1444.91	0.484
1454.03	0.777
1463.15	0.777
1472.27	0.734
1481.39	0.464
1490.51	0.823
1499.63	0.851
1508.75	0.819
1517.86	0.768
1526.98	0.722
1536.1	0.653
1545.22	0.533
1554.34	0.517
1563.46	0.597
1572.58	0.681
1581.69	0.712
1590.81	0.7501
1599.93	0.83
1609.05	0.925
1618.17	0.961
1627.29	0.991
1636.41	1.01
1645.52	1.019
1654.64	1.014
1663.76	1.012
1672.88	0.996
1682	0.996
1691.12	1
1700.24	1
1709.35	1.001
1718.47	1.005
1727.59	1.005
1736.71	1.003
1745.83	1.003
1754.95	1.003
1764.07	1.003
1773.18	1.001
1782.3	0.996
1791.42	0.987
1800.54	0.971
1809.66	0.952
1818.78	0.941
1827.9	0.925
1837.01	0.922
1846.13	0.932
1855.25	0.959
1864.37	0.982
1873.49	0.998
1882.61	1.003
1891.73	1.007
1900.84	1.007
1909.96	1.01
1919.08	1.01
1928.2	1.01
1937.32	1.007
1946.44	1.007
1955.56	1.008
1964.67	1.008
1973.79	1.01
1982.91	1.012
1992.03	1.012
2001.15	0.992
2010.27	0.994
2019.39	0.9915
2028.51	0.9969
2037.62	0.9971
2046.74	0.996
2055.86	0.996
2064.98	0.996
2074.1	0.996
2083.22	0.996
2092.34	0.996
2101.45	0.996
2110.57	0.996
2119.69	0.996
2128.81	0.996
2137.93	0.996
2147.05	0.996
2156.17	0.996
2165.28	0.996
2174.4	0.998
2183.52	0.998
2192.64	0.998
2201.76	0.998
2210.88	0.998
2220	0.998
2229.11	0.9982
2238.23	0.9979
2247.35	0.994
2256.47	0.9869
2265.59	0.984
2274.71	0.98
2283.83	0.98
2292.94	0.98
2302.06	0.98
2311.18	0.945
2320.3	0.9872
2329.42	0.992
2338.54	0.992
2347.66	0.991
2356.77	0.991
2365.89	0.991
2375.01	0.994
2384.13	0.998
2393.25	0.998
2402.37	0.9996
2411.49	0.9995
2420.6	0.9995
2429.72	0.998
2438.84	0.998
2447.96	0.998
2457.08	0.9946
2466.2	0.992
2475.32	0.9973
2484.43	1
2493.55	1
2502.67	1.001
2511.79	0.998
2520.91	1.001
2530.03	1
2539.15	1
2548.27	1
2557.38	0.998
2566.5	0.998
2575.62	0.9991
2584.74	0.998
2593.86	0.996
2602.98	0.998
2612.1	1
2621.21	0.998
2630.33	0.998
2639.45	0.998
2648.57	0.998
2657.69	0.998
2666.81	0.998
2675.93	1
2685.04	0.998
2694.16	1
2703.28	0.9975
2712.4	0.996
2721.52	0.9882
2730.64	0.9836
2739.76	0.98
2748.87	0.984
2757.99	0.9817
2767.11	0.975
2776.23	0.9773
2785.35	0.985
2794.47	0.985
2803.59	0.9778
2812.7	0.9677
2821.82	0.959
2830.94	0.961
2840.06	0.952
2849.18	0.943
2858.3	0.9311
2867.42	0.8301
2876.53	0.8693
2885.65	0.8862
2894.77	0.8283
2903.89	0.6571
2913.01	0.5673
2922.13	0.763
2931.25	0.6377
2940.36	0.6345
2949.48	0.7156
2958.6	0.7097
2967.72	0.6086
2976.84	0.515
2985.96	0.228
2995.08	0.2567
3004.19	0.3214
3013.31	0.6538
3022.43	0.8289
3031.55	0.9108
3040.67	0.9474
3049.79	0.9616
3058.91	0.9722
3068.02	0.978
3077.14	0.984
3086.26	0.985
3095.38	0.991
3104.5	0.994
3113.62	0.994
3122.74	0.994
3131.86	0.998
3140.97	0.998
3150.09	0.998
3159.21	0.9968
3168.33	0.998
3177.45	0.998
3186.57	1
3195.69	0.998
3204.8	0.998
3213.92	0.998
3223.04	0.998
3232.16	0.998
3241.28	1
3250.4	1.001
3259.52	1.0045
3268.63	1.005
3277.75	1.008
3286.87	1.0084
3295.99	1.01
3305.11	1.01
3314.23	1.01
3323.35	1.01
3332.46	1.01
3341.58	1.0102
3350.7	1.012
3359.82	1.012
3368.94	1.01
3378.06	1.01
3387.18	1.01
3396.29	1.01
3405.41	1.008
3414.53	1.008
3423.65	1.008
3432.77	1.008
3441.89	1.0052
3451.01	1.001
3460.12	1.001
3469.24	1.001
3478.36	1.001
3487.48	1.001
3496.6	1.001
3505.72	1.001
3514.84	1.0026
3523.95	1.001
3533.07	1.0045
3542.19	1.003
3551.31	1.0016
3560.43	1.003
3569.55	1.003
3578.67	1.003
3587.78	1.001
3596.9	1.003
3606.02	1.003
3615.14	1.001
3624.26	1
3633.38	1
3642.5	1
3651.62	1.0005
3660.73	1
3669.85	1
3678.97	0.999
