Infrared Spectrum: PHOSPHOROTHIOLOTHIONIC ACID, O,O,S-TRIETHYL ESTER
Formula: C6 H15 O2 P S2
CAS: 2524-09-6
Class: COBLENTZ
Instrument: Not specified, most likely a prism, grating, or hybrid spectrometer.
Sampling: TRANSMISSION
Path length: SMEAR
Resolution: 4
Origin: TENNESSEE EASTMAN COMPANY, RESEARCH LABORATORIES
MICROMETERS	TRANSMITTANCE
2.059	0.969
2.09904	0.969
2.13909	0.969
2.17913	0.969
2.21918	0.969
2.25922	0.958
2.29927	0.948
2.33931	0.956
2.37936	0.958
2.4194	0.958
2.45945	0.959
2.49949	0.961
2.53954	0.964
2.57958	0.973
2.61963	0.973
2.65967	0.974
2.69972	0.974
2.73976	0.971
2.77981	0.971
2.81985	0.969
2.8599	0.969
2.89994	0.969
2.93999	0.969
2.98003	0.971
3.02008	0.968
3.06012	0.968
3.10017	0.966
3.14021	0.958
3.18026	0.956
3.2203	0.958
3.26035	0.953
3.30039	0.901
3.34044	0.505
3.38048	0.687
3.42053	0.726
3.46057	0.789
3.50062	0.891
3.54066	0.929
3.58071	0.953
3.62075	0.954
3.6608	0.958
3.70084	0.959
3.74089	0.966
3.78093	0.971
3.82098	0.971
3.86102	0.973
3.90107	0.973
3.94111	0.974
3.98116	0.976
4.0212	0.976
4.06125	0.976
4.10129	0.976
4.14134	0.974
4.18138	0.973
4.22143	0.989
4.26147	1.025
4.30152	1
4.34156	0.968
4.38161	0.976
4.42165	0.983
4.4617	0.983
4.50174	0.983
4.54179	0.983
4.58183	0.983
4.62188	0.983
4.66192	0.984
4.70197	0.984
4.74201	0.986
4.78206	0.986
4.8221	0.986
4.86215	0.989
4.90219	0.991
4.94224	0.993
4.98228	0.996
5.02233	0.989
5.06237	0.989
5.10242	0.989
5.14246	0.989
5.18251	0.988
5.22255	0.984
5.2626	0.981
5.30264	0.983
5.34269	0.983
5.38273	0.976
5.42278	0.964
5.46282	0.959
5.50287	0.951
5.54291	0.958
5.58296	0.949
5.623	0.971
5.66305	0.959
5.70309	0.973
5.74314	0.959
5.78318	0.963
5.82323	0.958
5.86327	0.973
5.90332	0.949
5.94336	0.979
5.98341	0.969
6.02345	0.974
6.0635	0.984
6.10354	0.981
6.14359	0.966
6.18363	0.971
6.22368	0.976
6.26372	0.971
6.30377	0.976
6.34381	0.976
6.38386	0.989
6.4239	0.951
6.46395	0.978
6.50399	0.963
6.54404	0.974
6.58408	0.966
6.62413	0.936
6.66417	0.939
6.70422	0.879
6.74426	0.799
6.78431	0.772
6.82435	0.799
6.8644	0.672
6.90444	0.659
6.94449	0.736
6.98453	0.821
7.02458	0.843
7.06462	0.874
7.10467	0.854
7.14471	0.772
7.18476	0.624
7.2248	0.721
7.26485	0.784
7.30489	0.853
7.34494	0.901
7.38498	0.938
7.42503	0.951
7.46507	0.961
7.50512	0.959
7.54516	0.961
7.58521	0.958
7.62525	0.948
7.6653	0.933
7.70534	0.891
7.74539	0.864
7.78543	0.854
7.82548	0.841
7.86552	0.809
7.90557	0.749
7.94561	0.779
7.98566	0.861
8.0257	0.914
8.06575	0.936
8.10579	0.941
8.14584	0.943
8.18588	0.946
8.22593	0.949
8.26597	0.951
8.30602	0.968
8.34606	0.954
8.38611	0.951
8.42615	0.941
8.4662	0.914
8.50624	0.853
8.54629	0.767
8.58633	0.674
8.62638	0.719
8.66642	0.792
8.70647	0.841
8.74651	0.863
8.78656	0.864
8.8266	0.864
8.86665	0.861
8.90669	0.849
8.94674	0.824
8.98678	0.796
9.02683	0.736
9.06687	0.677
9.10692	0.674
9.14696	0.712
9.18701	0.739
9.22705	0.739
9.2671	0.709
9.30714	0.659
9.34719	0.602
9.38723	0.539
9.42728	0.462
9.46732	0.402
9.50737	0.343
9.54741	0.297
9.58746	0.258
9.6275	0.23
9.66755	0.215
9.70759	0.19
9.74764	0.14
9.78768	0.101
9.82773	0.096
9.86777	0.12
9.90782	0.248
9.94786	0.37
9.98791	0.497
10.028	0.589
10.068	0.631
10.108	0.636
10.1481	0.614
10.1881	0.564
10.2282	0.455
10.2682	0.348
10.3083	0.238
10.3483	0.196
10.3884	0.165
10.4284	0.161
10.4684	0.17
10.5085	0.208
10.5485	0.247
10.5886	0.295
10.6286	0.353
10.6687	0.434
10.7087	0.507
10.7488	0.579
10.7888	0.659
10.8288	0.721
10.8689	0.776
10.9089	0.819
10.949	0.843
10.989	0.866
11.0291	0.881
11.0691	0.903
11.1092	0.911
11.1492	0.921
11.1893	0.929
11.2293	0.938
11.2693	0.943
11.3094	0.946
11.3494	0.946
11.3895	0.949
11.4295	0.951
11.4696	0.953
11.5096	0.954
11.5497	0.954
11.5897	0.956
11.6297	0.953
11.6698	0.949
11.7098	0.946
11.7499	0.941
11.7899	0.926
11.83	0.903
11.87	0.871
11.9101	0.821
11.9501	0.759
11.9902	0.669
12.0302	0.529
12.0702	0.479
12.1103	0.485
12.1503	0.519
12.1904	0.547
12.2304	0.559
12.2705	0.544
12.3105	0.522
12.3506	0.499
12.3906	0.48
12.4306	0.459
12.4707	0.442
12.5107	0.432
12.5508	0.432
12.5908	0.442
12.6309	0.454
12.6709	0.465
12.711	0.479
12.751	0.495
12.7911	0.507
12.8311	0.53
12.8711	0.554
12.9112	0.577
12.9512	0.617
12.9913	0.657
13.0313	0.699
13.0714	0.731
13.1114	0.757
13.1515	0.781
13.1915	0.808
13.2315	0.831
13.2716	0.849
13.3116	0.869
13.3517	0.881
13.3917	0.899
13.4318	0.903
13.4718	0.908
13.5119	0.913
13.5519	0.919
13.592	0.924
13.632	0.928
13.672	0.931
13.7121	0.931
13.7521	0.933
13.7922	0.933
13.8322	0.933
13.8723	0.933
13.9123	0.933
13.9524	0.934
13.9924	0.934
14.0324	0.933
14.0725	0.931
14.1125	0.928
14.1526	0.919
14.1926	0.913
14.2327	0.906
14.2727	0.903
14.3128	0.894
14.3528	0.879
14.3929	0.868
14.4329	0.843
14.4729	0.831
14.513	0.811
14.553	0.787
14.5931	0.752
14.6331	0.709
14.6732	0.661
14.7132	0.627
14.7533	0.592
14.7933	0.559
14.8333	0.527
14.8734	0.5
14.9134	0.475
14.9535	0.447
14.9935	0.41
15.0336	0.373
15.0736	0.323
15.1137	0.305
15.1537	0.3
15.1938	0.303
15.2338	0.332
15.2738	0.377
15.3139	0.437
15.3539	0.492
15.394	0.545
15.434	0.597
15.4741	0.644
15.5141	0.674
15.5542	0.699
15.5942	0.726
15.6342	0.746
15.6743	0.756
15.7143	0.764
15.7544	0.771
15.7944	0.774
15.8345	0.777
15.8745	0.779
15.9146	0.781
15.9546	0.781
15.9947	0.781
