Infrared Spectrum: PHOSPHOROCHLORIDOTHIOIC ACID, O,O-DIMETHYL ESTER
Formula: C2 H6 Cl O2 S P
CAS: 2524-03-0
State: SOLUTION (10% IN CCl4 FOR 3800-1333, 10% IN CS2 FOR 1333-450 CM^-^1)
Class: COBLENTZ III
Instrument: DOW KBr FOREPRISM-GRATING
Instrument parameters: BLAZED AT 3.5, 12.0, 20.0 MICRON, CHANGED AT 5.0, 7.5, 14.9 MICRON
Sampling: TRANSMISSION
Path length: 0.011, 0.010 CM
Resolution: 4
Origin: DOW CHEMICAL COMPANY
1/CM	TRANSMITTANCE
449.687	0.764
458.215	0.754
466.742	0.692
475.27	0.459
483.797	0.098
492.325	0.207
500.853	0.541
509.38	0.64
517.908	0.619
526.435	0.569
534.963	0.728
543.491	0.912
552.018	0.96
560.546	0.986
569.073	0.994
577.601	0.998
586.129	0.996
594.656	0.99
603.184	0.978
611.711	0.958
620.239	0.932
628.767	0.873
637.294	0.729
645.822	0.2169
654.349	0
662.877	0.001
671.405	0.3
679.932	0.732
688.46	0.845
696.987	0.893
705.515	0.921
714.043	0.936
722.57	0.948
731.098	0.954
739.625	0.958
748.153	0.958
756.681	0.954
765.208	0.941
773.736	0.906
782.263	0.868
790.791	0.812
799.319	0.696
807.846	0.434
816.374	0.13
824.901	0.019
833.429	0.001
841.957	0.017
850.484	0.054
859.012	0.272
867.539	0.632
876.067	0.733
884.595	0.821
893.122	0.886
901.65	0.925
910.177	0.94
918.705	0.949
927.233	0.948
935.76	0.945
944.288	0.934
952.815	0.921
961.343	0.906
969.871	0.885
978.398	0.854
986.926	0.788
995.453	0.665
1003.98	0.439
1012.51	0.139
1021.04	0.003
1029.56	0.001
1038.09	0.001
1046.62	0.001
1055.15	0.007
1063.67	0.105
1072.2	0.286
1080.73	0.486
1089.26	0.659
1097.78	0.711
1106.31	0.733
1114.84	0.77
1123.37	0.802
1131.89	0.809
1140.42	0.804
1148.95	0.782
1157.48	0.732
1166.01	0.5869
1174.53	0.2879
1183.06	0.314
1191.59	0.6521
1200.12	0.788
1208.64	0.833
1217.17	0.86
1225.7	0.882
1234.23	0.9
1242.75	0.912
1251.28	0.925
1259.81	0.932
1268.34	0.944
1276.86	0.949
1285.39	0.957
1293.92	0.96
1302.45	0.956
1310.97	0.957
1319.5	0.954
1328.03	0.949
1336.56	0.946
1345.09	0.942
1353.61	0.938
1362.14	0.936
1370.67	0.93
1379.2	0.921
1387.72	0.917
1396.25	0.913
1404.78	0.9
1413.31	0.885
1421.83	0.857
1430.36	0.797
1438.89	0.5877
1447.42	0.459
1455.94	0.331
1464.47	0.5041
1473	0.72
1481.53	0.76
1490.05	0.76
1498.58	0.733
1507.11	0.709
1515.64	0.683
1524.16	0.648
1532.69	0.595
1541.22	0.501
1549.75	0.472
1558.28	0.537
1566.8	0.624
1575.33	0.657
1583.86	0.685
1592.39	0.756
1600.91	0.842
1609.44	0.896
1617.97	0.926
1626.5	0.945
1635.02	0.957
1643.55	0.96
1652.08	0.962
1660.61	0.957
1669.13	0.953
1677.66	0.944
1686.19	0.942
1694.72	0.95
1703.24	0.944
1711.77	0.944
1720.3	0.945
1728.83	0.957
1737.35	0.966
1745.88	0.969
1754.41	0.97
1762.94	0.97
1771.47	0.969
1779.99	0.969
1788.52	0.968
1797.05	0.964
1805.58	0.961
1814.1	0.956
1822.63	0.948
1831.16	0.933
1839.69	0.916
1848.21	0.896
1856.74	0.87
1865.27	0.844
1873.8	0.836
1882.32	0.857
1890.85	0.885
1899.38	0.91
1907.91	0.934
1916.43	0.952
1924.96	0.96
1933.49	0.964
1942.02	0.966
1950.54	0.969
1959.07	0.968
1967.6	0.965
1976.13	0.964
1984.66	0.96
1993.18	0.949
2001.71	0.95
2010.24	0.946
2018.77	0.95
2027.29	0.956
2035.82	0.96
2044.35	0.961
2052.88	0.962
2061.4	0.961
2069.93	0.96
2078.46	0.962
2086.99	0.964
2095.51	0.966
2104.04	0.966
2112.57	0.969
2121.1	0.972
2129.62	0.972
2138.15	0.974
2146.68	0.973
2155.21	0.973
2163.73	0.972
2172.26	0.973
2180.79	0.973
2189.32	0.972
2197.85	0.97
2206.37	0.969
2214.9	0.969
2223.43	0.968
2231.96	0.965
2240.48	0.962
2249.01	0.961
2257.54	0.954
2266.07	0.95
2274.59	0.948
2283.12	0.948
2291.65	0.9501
2300.18	0.9541
2308.7	0.9581
2317.23	0.965
2325.76	0.966
2334.29	0.9699
2342.81	0.9691
2351.34	0.9801
2359.87	0.986
2368.4	0.981
2376.92	0.978
2385.45	0.976
2393.98	0.978
2402.51	0.978
2411.04	0.978
2419.56	0.978
2428.09	0.978
2436.62	0.978
2445.15	0.978
2453.67	0.978
2462.2	0.978
2470.73	0.977
2479.26	0.977
2487.78	0.978
2496.31	0.977
2504.84	0.977
2513.37	0.977
2521.89	0.977
2530.42	0.976
2538.95	0.976
2547.48	0.976
2556	0.9759
2564.53	0.974
2573.06	0.9729
2581.59	0.972
2590.11	0.9699
2598.64	0.968
2607.17	0.966
2615.7	0.966
2624.22	0.966
2632.75	0.9681
2641.28	0.9721
2649.81	0.973
2658.34	0.973
2666.86	0.973
2675.39	0.974
2683.92	0.9731
2692.45	0.976
2700.97	0.976
2709.5	0.976
2718.03	0.976
2726.56	0.976
2735.08	0.976
2743.61	0.976
2752.14	0.9739
2760.67	0.973
2769.19	0.973
2777.72	0.973
2786.25	0.972
2794.78	0.97
2803.3	0.9689
2811.83	0.9639
2820.36	0.9579
2828.89	0.9475
2837.41	0.8928
2845.94	0.5679
2854.47	0.8274
2863	0.9251
2871.53	0.9249
2880.05	0.9137
2888.58	0.8724
2897.11	0.8393
2905.64	0.881
2914.16	0.881
2922.69	0.8684
2931.22	0.8314
2939.75	0.6917
2948.27	0.3089
2956.8	0.3158
2965.33	0.757
2973.86	0.8321
2982.38	0.8196
2990.91	0.7426
2999.44	0.7112
3007.97	0.7212
3016.49	0.716
3025.02	0.7279
3033.55	0.7998
3042.08	0.8902
3050.61	0.9104
3059.13	0.9224
3067.66	0.9321
3076.19	0.9371
3084.72	0.944
3093.24	0.9502
3101.77	0.9542
3110.3	0.9601
3118.83	0.965
3127.35	0.9693
3135.88	0.976
3144.41	0.978
3152.94	0.9801
3161.46	0.984
3169.99	0.985
3178.52	0.985
3187.05	0.986
3195.57	0.989
3204.1	0.9891
3212.63	0.99
3221.16	0.99
3229.68	0.992
3238.21	0.993
3246.74	0.993
3255.27	0.994
3263.8	0.996
3272.32	0.997
3280.85	0.997
3289.38	0.9982
3297.91	1.0001
3306.43	1
3314.96	1
3323.49	1
3332.02	1
3340.54	1
3349.07	1.001
3357.6	1.001
3366.13	1.001
3374.65	1.001
3383.18	1.001
3391.71	1.001
3400.24	1
3408.76	1
3417.29	1
3425.82	1
3434.35	1
3442.87	0.998
3451.4	0.998
3459.93	0.998
3468.46	0.998
3476.99	0.997
3485.51	0.997
3494.04	0.996
3502.57	0.996
3511.1	0.994
3519.62	0.994
3528.15	0.993
3536.68	0.993
3545.21	0.992
3553.73	0.99
3562.26	0.9859
3570.79	0.9812
3579.32	0.9903
3587.84	0.9877
3596.37	0.9842
3604.9	0.989
3613.43	0.989
3621.95	0.986
3630.48	0.9892
3639.01	0.9917
3647.54	0.989
3656.06	0.99
3664.59	0.989
3673.12	0.9858
3681.65	0.9852
3690.18	0.989
3698.7	0.9903
3707.23	0.992
3715.76	0.992
3724.29	0.993
3732.81	0.993
3741.34	0.9917
3749.87	0.9898
3758.4	0.989
3766.92	0.989
3775.45	0.99
3783.98	0.993
3792.51	0.9888
