Infrared Spectrum: Diphenyl phosphorochloridate
Formula: C 12 H 10 Cl O 3 P
CAS: 2524-64-3
State: gas
Origin: EPA-IR VAPOR PHASE LIBRARY
1/CM	ABSORBANCE
549.9	0.03856
559.547	0.03743
569.193	0.04063
578.84	0.04851
588.486	0.04727
598.133	0.04283
607.779	0.05171
617.426	0.05971
627.072	0.0442
636.719	0.02576
646.365	0.01657
656.012	0.01412
665.658	0.01619
675.305	0.02407
684.951	0.03825
694.598	0.02999
704.245	0.01771
713.891	0.0141
723.538	0.01887
733.184	0.02742
742.831	0.04007
752.477	0.06669
762.124	0.09274
771.77	0.07501
781.417	0.03529
791.063	0.01653
800.71	0.01023
810.356	0.00889
820.003	0.00837
829.649	0.00709
839.296	0.00698
848.943	0.00735
858.589	0.00819
868.236	0.00956
877.882	0.01151
887.529	0.01466
897.175	0.021
906.822	0.027
916.468	0.0369
926.115	0.07242
935.761	0.12736
945.408	0.15244
955.054	0.29047
964.701	0.37594
974.347	0.18961
983.994	0.09874
993.64	0.05781
1003.29	0.0599
1012.93	0.07255
1022.58	0.07082
1032.23	0.04669
1041.87	0.01749
1051.52	0.01364
1061.17	0.01437
1070.81	0.01466
1080.46	0.01106
1090.11	0.00878
1099.75	0.00824
1109.4	0.00826
1119.05	0.00927
1128.69	0.01245
1138.34	0.01991
1147.99	0.04318
1157.63	0.1383
1167.28	0.18793
1176.92	0.20021
1186.57	0.36887
1196.22	0.18348
1205.86	0.12669
1215.51	0.10367
1225.16	0.06695
1234.8	0.04629
1244.45	0.02726
1254.1	0.02131
1263.74	0.01946
1273.39	0.01874
1283.04	0.01853
1292.68	0.02139
1302.33	0.03571
1311.98	0.06913
1321.62	0.09304
1331.27	0.09062
1340.92	0.06248
1350.56	0.02442
1360.21	0.01268
1369.86	0.00922
1379.5	0.00796
1389.15	0.00742
1398.79	0.0068
1408.44	0.00615
1418.09	0.00588
1427.73	0.00659
1437.38	0.00812
1447.03	0.01108
1456.67	0.01629
1466.32	0.02479
1475.97	0.047
1485.61	0.1528
1495.26	0.16067
1504.91	0.04256
1514.55	0.01864
1524.2	0.01179
1533.85	0.00937
1543.49	0.00867
1553.14	0.01002
1562.79	0.01407
1572.43	0.02736
1582.08	0.05811
1591.73	0.08143
1601.37	0.04544
1611.02	0.01702
1620.67	0.00898
1630.31	0.00624
1639.96	0.00553
1649.6	0.0050793
1659.25	0.004836
1668.9	0.0047047
1678.54	0.0049276
1688.19	0.00573
1697.84	0.00666
1707.48	0.00723
1717.13	0.00743
1726.78	0.00715
1736.42	0.00614
1746.07	0.0053797
1755.72	0.0051934
1765.36	0.00603
1775.01	0.00735
1784.66	0.00559
1794.3	0.00449278
1803.95	0.00404
1813.6	0.0036
1823.24	0.00345
1832.89	0.003736
1842.54	0.004309
1852.18	0.0052386
1861.83	0.00588
1871.47	0.00612
1881.12	0.00597
1890.77	0.0059
1900.41	0.00649
1910.06	0.0072
1919.71	0.00836
1929.35	0.00917
1939	0.00894
1948.65	0.00849
1958.29	0.00773
1967.94	0.00619
1977.59	0.0054281
1987.23	0.00459961
1996.88	0.003896
2006.53	0.00342
2016.17	0.00309
2025.82	0.00301
2035.47	0.00294
2045.11	0.00288
2054.76	0.00286
2064.41	0.00287
2074.05	0.00286
2083.7	0.00275
2093.35	0.0027
2102.99	0.00271
2112.64	0.00266
2122.28	0.00268
2131.93	0.00264
2141.58	0.00264
2151.22	0.00259
2160.87	0.00259
2170.52	0.00262
2180.16	0.00263
2189.81	0.00259
2199.46	0.00262
2209.1	0.00269
2218.75	0.00285
2228.4	0.00294
2238.04	0.00303
2247.69	0.00311
2257.34	0.00311
2266.98	0.00298
2276.63	0.00283
2286.28	0.00274
2295.92	0.00278
2305.57	0.00308
2315.22	0.00344
2324.86	0.00346
2334.51	0.00346
2344.16	0.003512
2353.8	0.003522
2363.45	0.00345
2373.09	0.003509
2382.74	0.00347
2392.39	0.003521
2402.03	0.00334
2411.68	0.003
2421.33	0.0029
2430.97	0.00288
2440.62	0.00281
2450.27	0.00267
2459.91	0.0026
2469.56	0.00245
2479.21	0.00247
2488.85	0.00251
2498.5	0.00249
2508.15	0.00251
2517.79	0.00255
2527.44	0.00246
2537.09	0.00252
2546.73	0.00256
2556.38	0.00254
2566.03	0.00259
2575.67	0.00249
2585.32	0.00236
2594.96	0.00226
2604.61	0.00225
2614.26	0.00237
2623.9	0.00232
2633.55	0.00224
2643.2	0.00218
2652.84	0.0022
2662.49	0.00206
2672.14	0.00192
2681.78	0.00184
2691.43	0.00173
2701.08	0.00181
2710.72	0.00166
2720.37	0.00168
2730.02	0.00175
2739.66	0.00158
2749.31	0.00168
2758.96	0.00151
2768.6	0.00152
2778.25	0.00158
2787.9	0.00144
2797.54	0.00153
2807.19	0.00134
2816.84	0.0012
2826.48	0.00127
2836.13	0.00118
2845.77	0.00126
2855.42	0.00112
2865.07	0.00134
2874.71	0.0012
2884.36	0.00119
2894.01	0.00115
2903.65	0.00129
2913.3	0.00109
2922.95	0.00097
2932.59	0.00094
2942.24	0.00109
2951.89	0.00095
2961.53	0.00092
2971.18	0.00082
2980.83	0.00079
2990.47	0.00093
3000.12	0.0012
3009.77	0.0018
3019.41	0.00322
3029.06	0.00589
3038.71	0.01003
3048.35	0.01615
3058	0.0162
3067.64	0.01801
3077.29	0.02677
3086.94	0.02549
3096.58	0.01176
3106.23	0.00798
3115.88	0.00377
3125.52	0.00167
3135.17	0.00087
3144.82	0.00064
3154.46	0.00038
3164.11	0.00033
3173.76	0.00046
3183.4	0.00038
3193.05	0.00026
3202.7	0.00022
3212.34	0.00024
3221.99	0.00028
3231.64	0
3241.28	0.00029
3250.93	0.0003
3260.58	0.00026
3270.22	0.00029
3279.87	0.0003
3289.52	0.00032
3299.16	0.00039
3308.81	0.00031
3318.45	0.00038
3328.1	0.00039
3337.75	0.00038
3347.39	0.00054
3357.04	0.00039
3366.69	0.00069
3376.33	0.00069
3385.98	0.00059
3395.63	0.00073
3405.27	0.0007
3414.92	0.00073
3424.57	0.00074
3434.21	0.00099
3443.86	0.00089
3453.51	0.00101
3463.15	0.00121
3472.8	0.00111
3482.45	0.00116
3492.09	0.00113
3501.74	0.00132
3511.39	0.00132
3521.03	0.0014
3530.68	0.0015
3540.33	0.00147
3549.97	0.00144
3559.62	0.00159
3569.26	0.00151
3578.91	0.0017
3588.56	0.00177
3598.2	0.00168
3607.85	0.00188
3617.5	0.0018
3627.14	0.00189
3636.79	0.00199
3646.44	0.00202
3656.08	0.00204
3665.73	0.00211
3675.38	0.00216
3685.02	0.00208
3694.67	0.00223
3704.32	0.00211
3713.96	0.00221
3723.61	0.00218
3733.26	0.0021
3742.9	0.00202
3752.55	0.00213
3762.2	0.00201
3771.84	0.00214
3781.49	0.00218
3791.13	0.00213
3800.78	0.00222
3810.43	0.00252
3820.07	0.00225
3829.72	0.00235
3839.37	0.0022
3849.01	0.0023
3858.66	0.00221
3868.31	0.00224
3877.95	0.00215
3887.6	0.00206
3897.25	0.00218
3906.89	0.0021
3916.54	0.0023
3926.19	0.00226
3935.83	0.00219
3945.48	0.00216
3955.13	0.00221
3964.77	0.00218
3974.42	0.00234
3984.07	0.00227
3993.71	0.00236
