Infrared Spectrum: o-METHYL CAPROLACTIM
Formula: C7 H13 N O
CAS: 2525-16-8
State: LIQUID
Class: COBLENTZ
Instrument: PERKIN-ELMER
Sampling: TRANSMISSION
Path length: CAPILLARY
Resolution: 4
Origin: ABBOTT LABORATORIES - WASHBURN
MICROMETERS	TRANSMITTANCE
2.029	0.89
2.06315	0.894
2.09731	0.895
2.13146	0.894
2.16562	0.899
2.19977	0.9023
2.23393	0.912
2.26808	0.916
2.30224	0.9209
2.33639	0.919
2.37055	0.9181
2.4047	0.923
2.43886	0.923
2.47301	0.921
2.50717	0.926
2.54132	0.926
2.57548	0.924
2.60963	0.924
2.64379	0.928
2.67794	0.924
2.7121	0.93
2.74625	0.928
2.78041	0.924
2.81456	0.9139
2.84872	0.899
2.88287	0.897
2.91703	0.899
2.95118	0.897
2.98534	0.897
3.01949	0.8969
3.05365	0.8992
3.0878	0.9072
3.12196	0.912
3.15611	0.921
3.19027	0.93
3.22442	0.9331
3.25858	0.936
3.29273	0.94
3.32689	0.9112
3.36104	0.8175
3.3952	0.6549
3.42935	0.4353
3.46351	0.292
3.49766	0.6068
3.53182	0.5906
3.56597	0.6577
3.60013	0.8614
3.63428	0.912
3.66844	0.9402
3.70259	0.953
3.73675	0.9497
3.7709	0.94
3.80506	0.936
3.83921	0.943
3.87337	0.948
3.90752	0.9469
3.94167	0.9428
3.97583	0.938
4.00998	0.938
4.04414	0.935
4.07829	0.9329
4.11245	0.9229
4.1466	0.9104
4.18076	0.8988
4.21491	0.8987
4.24907	0.894
4.28322	0.897
4.31738	0.897
4.35153	0.895
4.38569	0.8917
4.41984	0.8748
4.454	0.8698
4.48815	0.866
4.52231	0.861
4.55646	0.8559
4.59062	0.8509
4.62477	0.8458
4.65893	0.846
4.69308	0.841
4.72724	0.837
4.76139	0.8369
4.79555	0.837
4.8297	0.832
4.86386	0.827
4.89801	0.831
4.93217	0.825
4.96632	0.824
5.00048	0.8239
5.03463	0.8169
5.06879	0.8155
5.10294	0.822
5.1371	0.82
5.17125	0.812
5.20541	0.8081
5.23956	0.8191
5.27372	0.825
5.30787	0.8238
5.34203	0.817
5.37618	0.815
5.41034	0.82
5.44449	0.82
5.47865	0.815
5.5128	0.815
5.54696	0.815
5.58111	0.82
5.61527	0.817
5.64942	0.8169
5.68358	0.813
5.71773	0.8079
5.75188	0.802
5.78604	0.793
5.82019	0.7728
5.85435	0.7021
5.8885	0.5798
5.92266	0.3082
5.95681	0.1006
5.99097	0.132
6.02512	0.5228
6.05928	0.6532
6.09343	0.7087
6.12759	0.7543
6.16174	0.7789
6.1959	0.79
6.23005	0.793
6.26421	0.798
6.29836	0.805
6.33252	0.8049
6.36667	0.805
6.40083	0.813
6.43498	0.812
6.46914	0.805
6.50329	0.8
6.53745	0.8031
6.5716	0.808
6.60576	0.81
6.63991	0.808
6.67407	0.802
6.70822	0.791
6.74238	0.7757
6.77653	0.7286
6.81069	0.6126
6.84484	0.5291
6.879	0.53
6.91315	0.4906
6.94731	0.3936
6.98146	0.346
7.01562	0.5284
7.04977	0.6811
7.08393	0.7346
7.11808	0.761
7.15224	0.762
7.18639	0.759
7.22055	0.761
7.2547	0.759
7.28886	0.7287
7.32301	0.5778
7.35717	0.416
7.39132	0.5677
7.42548	0.5244
7.45963	0.3466
7.49379	0.3587
7.52794	0.5399
7.5621	0.7028
7.59625	0.7492
7.6304	0.7687
7.66456	0.773
7.69871	0.7526
7.73287	0.6942
7.76702	0.5563
7.80118	0.5409
7.83533	0.6153
7.86949	0.5743
7.90364	0.5168
7.9378	0.6165
7.97195	0.5854
8.00611	0.3431
8.04026	0.1669
8.07442	0.2832
8.10857	0.5536
8.14273	0.602
8.17688	0.503
8.21104	0.6237
8.24519	0.6963
8.27935	0.697
8.3135	0.6544
8.34766	0.5158
8.38181	0.2952
8.41597	0.25
8.45012	0.2221
8.48428	0.3007
8.51843	0.5793
8.55259	0.6814
8.58674	0.7072
8.6209	0.7047
8.65505	0.6691
8.68921	0.5964
8.72336	0.3505
8.75752	0.2545
8.79167	0.5685
8.82583	0.7051
8.85998	0.7536
8.89414	0.7739
8.92829	0.7789
8.96245	0.784
8.9966	0.7865
9.03076	0.784
9.06491	0.779
9.09907	0.7611
9.13322	0.7307
9.16738	0.6931
9.20153	0.5185
9.23569	0.423
9.26984	0.5903
9.304	0.7024
9.33815	0.7343
9.37231	0.7586
9.40646	0.782
9.44062	0.79
9.47477	0.793
9.50892	0.7863
9.54308	0.7718
9.57723	0.6977
9.61139	0.5504
9.64554	0.4589
9.6797	0.6344
9.71385	0.7454
9.74801	0.7805
9.78216	0.7953
9.81632	0.795
9.85047	0.7965
9.88463	0.7935
9.91878	0.7794
9.95294	0.7416
9.98709	0.6508
10.0212	0.6217
10.0554	0.6721
10.0896	0.6955
10.1237	0.6736
10.1579	0.652
10.192	0.7298
10.2262	0.779
10.2603	0.7952
10.2945	0.808
10.3286	0.815
10.3628	0.813
10.397	0.815
10.4311	0.813
10.4653	0.8073
10.4994	0.7753
10.5336	0.7278
10.5677	0.7254
10.6019	0.7632
10.636	0.7888
10.6702	0.8027
10.7043	0.815
10.7385	0.817
10.7727	0.8231
10.8068	0.8256
10.841	0.8317
10.8751	0.8326
10.9093	0.839
10.9434	0.834
10.9776	0.834
11.0117	0.834
11.0459	0.834
11.0801	0.8354
11.1142	0.834
11.1484	0.834
11.1825	0.832
11.2167	0.8243
11.2508	0.8157
11.285	0.7818
11.3191	0.7617
11.3533	0.7827
11.3874	0.8017
11.4216	0.809
11.4558	0.812
11.4899	0.8073
11.5241	0.7825
11.5582	0.7448
11.5924	0.7577
11.6265	0.791
11.6607	0.8063
11.6948	0.813
11.729	0.813
11.7631	0.812
11.7973	0.8035
11.8315	0.7854
11.8656	0.7434
11.8998	0.7339
11.9339	0.7714
11.9681	0.7944
12.0022	0.8142
12.0364	0.819
12.0705	0.8182
12.1047	0.817
12.1389	0.82
12.173	0.82
12.2072	0.82
12.2413	0.8194
12.2755	0.813
12.3096	0.8074
12.3438	0.7974
12.3779	0.7838
12.4121	0.75
12.4462	0.6782
12.4804	0.6057
12.5146	0.6055
12.5487	0.686
12.5829	0.7411
12.617	0.7737
12.6512	0.7899
12.6853	0.8018
12.7195	0.807
12.7536	0.81
12.7878	0.8127
12.822	0.813
12.8561	0.815
12.8903	0.812
12.9244	0.812
12.9586	0.815
12.9927	0.817
13.0269	0.815
13.061	0.815
13.0952	0.8139
13.1293	0.8108
13.1635	0.812
13.1977	0.8107
13.2318	0.8044
13.266	0.7938
13.3001	0.7904
13.3343	0.7784
13.3684	0.754
13.4026	0.7014
13.4367	0.6694
13.4709	0.6724
13.505	0.71
13.5392	0.742
13.5734	0.7602
13.6075	0.771
13.6417	0.7803
13.6758	0.7852
13.71	0.786
13.7441	0.79
13.7783	0.791
13.8124	0.793
13.8466	0.795
13.8808	0.791
13.9149	0.793
13.9491	0.7889
13.9832	0.788
14.0174	0.785
14.0515	0.7826
14.0857	0.779
14.1198	0.78
14.154	0.778
14.1881	0.776
14.2223	0.769
14.2565	0.767
14.2906	0.765
14.3248	0.761
14.3589	0.755
14.3931	0.7495
14.4272	0.743
14.4614	0.7367
14.4955	0.7266
14.5297	0.71
14.5639	0.6889
14.598	0.6723
14.6322	0.647
14.6663	0.6248
14.7005	0.6018
14.7346	0.588
14.7688	0.586
14.8029	0.6021
14.8371	0.6194
14.8712	0.6451
14.9054	0.6624
14.9396	0.6745
14.9737	0.6865
15.0079	0.6956
15.042	0.701
15.0762	0.6952
15.1103	0.694
15.1445	0.694
15.1786	0.696
15.2128	0.694
15.2469	0.694
15.2811	0.6916
15.3153	0.689
15.3494	0.689
15.3836	0.6881
