Infrared Spectrum: Dipropylene glycol
Formula: C 6 H 14 O 3
CAS: 25265-71-8
State: gas
Origin: EPA-IR VAPOR PHASE LIBRARY
1/CM	ABSORBANCE
501.5	0.00242
513.074	0.00241
524.648	0.00237
536.222	0.00192
547.796	0.00173
559.37	0.00155
570.944	0.00141
582.518	0.00106
594.092	0.00119
605.666	0.001
617.24	0.00114
628.814	0.00102
640.388	0.0009994
651.962	0.00114
663.536	0.00121
675.11	0.00109
686.684	0.0007868
698.258	0.0007911
709.832	0.0007769
721.406	0.0006977
732.98	0.0007308
744.554	0.0006134
756.128	0.0007582
767.702	0.0009215
779.276	0.00105
790.85	0.00138
802.423	0.00185
813.997	0.00221
825.571	0.00244
837.145	0.00249
848.719	0.00272
860.293	0.00265
871.867	0.00214
883.441	0.00208
895.015	0.0026
906.589	0.00312
918.163	0.00352
929.737	0.0042
941.311	0.00488
952.885	0.00463
964.459	0.00413
976.033	0.00451
987.607	0.00568
999.181	0.0065
1010.76	0.00739
1022.33	0.01017
1033.9	0.01535
1045.48	0.02006
1057.05	0.02139
1068.63	0.02237
1080.2	0.02503
1091.77	0.02659
1103.35	0.02366
1114.92	0.02043
1126.49	0.02016
1138.07	0.02013
1149.64	0.01646
1161.22	0.01055
1172.79	0.00651
1184.36	0.00483
1195.94	0.00478
1207.51	0.00527
1219.09	0.00583
1230.66	0.00608
1242.23	0.00645
1253.81	0.00703
1265.38	0.0065
1276.96	0.00536
1288.53	0.00484
1300.1	0.00553
1311.68	0.00667
1323.25	0.00687
1334.83	0.00672
1346.4	0.00671
1357.97	0.00676
1369.55	0.00867
1381.12	0.01087
1392.7	0.00961
1404.27	0.00683
1415.84	0.00432
1427.42	0.00309
1438.99	0.00314
1450.57	0.00392
1462.14	0.00443
1473.71	0.00354
1485.29	0.00195
1496.86	0.00112
1508.44	0.0007908
1520.01	0.0006744
1531.58	0.0005938
1543.16	0.0005332
1554.73	0.0005257
1566.31	0.0004738
1577.88	0.000432
1589.45	0.0004257
1601.03	0.0003796
1612.6	0.00036
1624.18	0.0004157
1635.75	0.0003801
1647.32	0.0003824
1658.9	0.0003425
1670.47	0.0003182
1682.05	0.000325
1693.62	0.000319
1705.19	0.0003001
1716.77	0.0003399
1728.34	0.0003162
1739.92	0.0002716
1751.49	0.0002931
1763.06	0.0002722
1774.64	0.0002613
1786.21	0.0002605
1797.79	0.0002298
1809.36	0.0002538
1820.93	0.0002461
1832.51	0.0002503
1844.08	0.0002626
1855.66	0.0002819
1867.23	0.0002872
1878.8	0.0002892
1890.38	0.0002879
1901.95	0.0003271
1913.53	0.0003124
1925.1	0.0003015
1936.67	0.0002896
1948.25	0.0002891
1959.82	0.0003089
1971.4	0.0003173
1982.97	0.0003419
1994.54	0.0003263
2006.12	0.0003331
2017.69	0.0002971
2029.27	0.0003328
2040.84	0.0003178
2052.41	0.0003233
2063.99	0.0003132
2075.56	0.0003216
2087.14	0.0002993
2098.71	0.0002535
2110.28	0.0002592
2121.86	0.0002783
2133.43	0.0002415
2145.01	0.0002572
2156.58	0.0002603
2168.15	0.000256
2179.73	0.0002655
2191.3	0.0002774
2202.88	0.0002612
2214.45	0.0002383
2226.02	0.0002573
2237.6	0.0001813
2249.17	0.0002003
2260.74	0.0001738
2272.32	0.0001987
2283.89	0.0002099
2295.47	0.0002071
2307.04	0.0001979
2318.61	0.0002063
2330.19	0.0001669
2341.76	0.0001861
2353.34	0.0001632
2364.91	0.0001508
2376.48	0.0002091
2388.06	0.0002319
2399.63	0.0002407
2411.21	0.0002185
2422.78	0.000211
2434.35	0.0002488
2445.93	0.0002422
2457.5	0.00018
2469.08	0.000147
2480.65	0.0001772
2492.22	0.0002533
2503.8	0.0001863
2515.37	0.0002163
2526.95	0.0001973
2538.52	0.0001898
2550.09	0.0002112
2561.67	0.0002124
2573.24	0.0003205
2584.82	0.0003041
2596.39	0.0003392
2607.96	0.0003907
2619.54	0.000416
2631.11	0.0004712
2642.69	0.0005142
2654.26	0.000534
2665.83	0.0005671
2677.41	0.0005979
2688.98	0.0006725
2700.56	0.0007182
2712.13	0.000741
2723.7	0.0008248
2735.28	0.0009542
2746.85	0.00108
2758.43	0.00126
2770	0.00141
2781.57	0.00153
2793.15	0.00171
2804.72	0.00184
2816.3	0.00217
2827.87	0.00274
2839.44	0.00393
2851.02	0.00607
2862.59	0.00961
2874.17	0.01363
2885.74	0.01565
2897.31	0.01524
2908.89	0.01512
2920.46	0.016
2932.04	0.01691
2943.61	0.01571
2955.18	0.01288
2966.76	0.0134
2978.33	0.01762
2989.91	0.01458
3001.48	0.00612
3013.05	0.00224
3024.63	0.00122
3036.2	0.0008286
3047.78	0.0007036
3059.35	0.0006407
3070.92	0.000502
3082.5	0.0005265
3094.07	0.0005041
3105.65	0.0004386
3117.22	0.0004168
3128.79	0.0004067
3140.37	0.0002221
3151.94	0.0002209
3163.52	0.0003028
3175.09	0.0003052
3186.66	0.0003936
3198.24	0.0002859
3209.81	0.0002286
3221.39	0.0001894
3232.96	0.0001804
3244.53	0.0001827
3256.11	0.0001678
3267.68	0.0001062
3279.26	0.0001984
3290.83	0.0001105
3302.4	0.0002318
3313.98	0.0001508
3325.55	0.0001775
3337.13	0.0001797
3348.7	0.0002098
3360.27	0.0002152
3371.85	0.0002783
3383.42	0.0002504
3395	0.0002673
3406.57	0.0002763
3418.14	0.0002492
3429.72	0.0003581
3441.29	0.0002374
3452.86	0.0003628
3464.44	0.0002883
3476.01	0.0004514
3487.59	0.0004299
3499.16	0.0005604
3510.73	0.0006003
3522.31	0.0007837
3533.88	0.000989
3545.46	0.00115
3557.03	0.00136
3568.6	0.00135
3580.18	0.00141
3591.75	0.00168
3603.33	0.00261
3614.9	0.00467
3626.47	0.00552
3638.05	0.00419
3649.62	0.00305
3661.2	0.00291
3672.77	0.00258
3684.34	0.00177
3695.92	0.0008997
3707.49	0.0005681
3719.07	0.0005002
3730.64	0.0004679
3742.21	0.0004269
3753.79	0.0003799
3765.36	0.0002934
3776.94	0.0002279
3788.51	0.000255
3800.08	0.0001944
3811.66	0.0002161
3823.23	0.0002871
3834.81	0.0001578
3846.38	0.0002426
3857.95	0.000175
3869.53	0.0002906
3881.1	0.0002621
3892.68	0.0002011
3904.25	9.091e-05
3915.82	0.0001312
3927.4	0.0003043
3938.97	0.0002237
3950.55	0.0003313
3962.12	0.0002185
3973.69	0.0003231
3985.27	0.0002083
3996.84	0.0001882
