Infrared Spectrum: cis-1,4-Diacetoxy-2-butene
Formula: C 8 H 12 O 4
CAS: 25260-60-0
State: gas
Origin: EPA-IR VAPOR PHASE LIBRARY
1/CM	ABSORBANCE
549.9	0.00347
559.547	0.00419
569.193	0.00511
578.84	0.00635
588.486	0.00749
598.133	0.00916
607.779	0.0108
617.426	0.01131
627.072	0.01198
636.719	0.01141
646.365	0.00896
656.012	0.00645
665.658	0.00514
675.305	0.00463
684.951	0.00441
694.598	0.00455
704.245	0.0049
713.891	0.0051
723.538	0.00497
733.184	0.00477
742.831	0.00446
752.477	0.00391
762.124	0.00307
771.77	0.0025833
781.417	0.0022003
791.063	0.0022435
800.71	0.0024021
810.356	0.00337
820.003	0.00513
829.649	0.00775
839.296	0.00915
848.943	0.00823
858.589	0.00731
868.236	0.00754
877.882	0.00782
887.529	0.00818
897.175	0.00762
906.822	0.0071
916.468	0.00711
926.115	0.00811
935.761	0.01041
945.408	0.01432
955.054	0.02148
964.701	0.03071
974.347	0.03142
983.994	0.02871
993.64	0.0338
1003.29	0.04789
1012.93	0.0722
1022.58	0.10211
1032.23	0.10839
1041.87	0.08129
1051.52	0.05307
1061.17	0.03767
1070.81	0.03161
1080.46	0.02899
1090.11	0.02535
1099.75	0.02046
1109.4	0.01552
1119.05	0.01136
1128.69	0.00871
1138.34	0.00726
1147.99	0.00743
1157.63	0.00886
1167.28	0.01217
1176.92	0.01886
1186.57	0.03537
1196.22	0.07469
1205.86	0.18131
1215.51	0.38453
1225.16	0.40881
1234.8	0.25407
1244.45	0.16245
1254.1	0.09795
1263.74	0.06472
1273.39	0.04999
1283.04	0.03586
1292.68	0.02077
1302.33	0.0128
1311.98	0.00928
1321.62	0.00826
1331.27	0.00876
1340.92	0.01108
1350.56	0.01769
1360.21	0.03612
1369.86	0.07218
1379.5	0.06667
1389.15	0.03644
1398.79	0.02139
1408.44	0.01416
1418.09	0.01204
1427.73	0.01213
1437.38	0.01387
1447.03	0.01605
1456.67	0.01562
1466.32	0.01362
1475.97	0.01121
1485.61	0.00902
1495.26	0.00752
1504.91	0.00653
1514.55	0.00596
1524.2	0.0055
1533.85	0.00507
1543.49	0.00458
1553.14	0.00439
1562.79	0.00413
1572.43	0.00405
1582.08	0.00391
1591.73	0.00396
1601.37	0.00392
1611.02	0.00408
1620.67	0.00424
1630.31	0.0045
1639.96	0.00483
1649.6	0.00542
1659.25	0.00577
1668.9	0.00622
1678.54	0.00669
1688.19	0.0077
1697.84	0.00985
1707.48	0.0136
1717.13	0.02075
1726.78	0.03318
1736.42	0.05823
1746.07	0.10823
1755.72	0.18779
1765.36	0.22504
1775.01	0.15851
1784.66	0.08189
1794.3	0.04042
1803.95	0.02195
1813.6	0.01358
1823.24	0.00914
1832.89	0.00684
1842.54	0.00563
1852.18	0.00483
1861.83	0.00438
1871.47	0.00395
1881.12	0.00354
1890.77	0.00332
1900.41	0.00322
1910.06	0.00307
1919.71	0.00308
1929.35	0.00303
1939	0.0028182
1948.65	0.002831
1958.29	0.0026519
1967.94	0.0026363
1977.59	0.0025332
1987.23	0.0025471
1996.88	0.0024363
2006.53	0.0023984
2016.17	0.002464
2025.82	0.0025999
2035.47	0.0026726
2045.11	0.0028904
2054.76	0.00314
2064.41	0.0029421
2074.05	0.0026507
2083.7	0.0024964
2093.35	0.002435
2102.99	0.0024715
2112.64	0.0024368
2122.28	0.0023264
2131.93	0.0021009
2141.58	0.001838
2151.22	0.00168
2160.87	0.001576
2170.52	0.001574
2180.16	0.001539
2189.81	0.001526
2199.46	0.001619
2209.1	0.001661
2218.75	0.001689
2228.4	0.001541
2238.04	0.001558
2247.69	0.001522
2257.34	0.001431
2266.98	0.00141
2276.63	0.001396
2286.28	0.001281
2295.92	0.001405
2305.57	0.001263
2315.22	0.001296
2324.86	0.001388
2334.51	0.001449
2344.16	0.001337
2353.8	0.001397
2363.45	0.001398
2373.09	0.00139
2382.74	0.001321
2392.39	0.001402
2402.03	0.001507
2411.68	0.001558
2421.33	0.001642
2430.97	0.001608
2440.62	0.001782
2450.27	0.001768
2459.91	0.00168
2469.56	0.001667
2479.21	0.001575
2488.85	0.001445
2498.5	0.00126
2508.15	0.001189
2517.79	0.001088
2527.44	0.000962
2537.09	0.00093
2546.73	0.000987
2556.38	0.001061
2566.03	0.001053
2575.67	0.001221
2585.32	0.001234
2594.96	0.001273
2604.61	0.001239
2614.26	0.001113
2623.9	0.001127
2633.55	0.000998
2643.2	0.001061
2652.84	0.000985
2662.49	0.000979
2672.14	0.001014
2681.78	0.00099
2691.43	0.001039
2701.08	0.001047
2710.72	0.000979
2720.37	0.001204
2730.02	0.001169
2739.66	0.001137
2749.31	0.001155
2758.96	0.001022
2768.6	0.00126
2778.25	0.001021
2787.9	0.001269
2797.54	0.001326
2807.19	0.00148
2816.84	0.00151
2826.48	0.001511
2836.13	0.001612
2845.77	0.00197593
2855.42	0.0024742
2865.07	0.00296
2874.71	0.0038
2884.36	0.00489
2894.01	0.00595
2903.65	0.00679
2913.3	0.00732
2922.95	0.00863
2932.59	0.01075
2942.24	0.01512
2951.89	0.01845
2961.53	0.01781
2971.18	0.01503
2980.83	0.0128
2990.47	0.01056
3000.12	0.00866
3009.77	0.00765
3019.41	0.00822
3029.06	0.01051
3038.71	0.0135
3048.35	0.01288
3058	0.00851
3067.64	0.0049
3077.29	0.00374
3086.94	0.00319
3096.58	0.002748
3106.23	0.0019239
3115.88	0.00138
3125.52	0.001417
3135.17	0.001202
3144.82	0.00084
3154.46	0.00058
3164.11	0.00024
3173.76	0.0005
3183.4	0.00029
3193.05	0.00031
3202.7	0.00024
3212.34	0.00053
3221.99	0.00052
3231.64	0.00033
3241.28	0.0001
3250.93	0.00032
3260.58	0.00024
3270.22	0.00029
3279.87	0.00013
3289.52	0.00038
3299.16	0.00031
3308.81	0.00022
3318.45	0.00016
3328.1	0.00035
3337.75	0.00034
3347.39	0.00029
3357.04	0.00061
3366.69	0.0002
3376.33	0.00011
3385.98	0.00021
3395.63	0.00054
3405.27	0.0004
3414.92	0.00035
3424.57	0.00066
3434.21	0.00042
3443.86	0.00053
3453.51	0.00089
3463.15	0.000967
3472.8	0.001196
3482.45	0.00144
3492.09	0.00202322
3501.74	0.00298
3511.39	0.0029385
3521.03	0.002194
3530.68	0.001689
3540.33	0.001279
3549.97	0.001202
3559.62	0.00076
3569.26	0.00093
3578.91	0.00091
3588.56	0.000984
3598.2	0.00077
3607.85	0.00062
3617.5	0.00082
3627.14	0.00076
3636.79	0.001085
3646.44	0.00089
3656.08	0.00074
3665.73	0.00083
3675.38	0.001027
3685.02	0.001147
3694.67	0.00095
3704.32	0.00081
3713.96	0.00091
3723.61	0.00091
3733.26	0.001003
3742.9	0.00084
3752.55	0.000991
3762.2	0.001166
3771.84	0.000988
3781.49	0.001102
3791.13	0.000983
3800.78	0.001142
3810.43	0.00091
3820.07	0.001047
3829.72	0.001087
3839.37	0.001116
3849.01	0.001148
3858.66	0.000994
3868.31	0.00125
3877.95	0.001335
3887.6	0.001172
3897.25	0.0015
3906.89	0.001213
3916.54	0.001221
3926.19	0.001333
3935.83	0.001344
3945.48	0.001314
3955.13	0.001428
3964.77	0.001331
3974.42	0.001559
3984.07	0.001427
3993.71	0.001509
