Infrared Spectrum: Quinazoline
Formula: C 8 H 6 N 2
CAS: 253-82-7
State: gas
Origin: EPA-IR VAPOR PHASE LIBRARY
1/CM	ABSORBANCE
549.8	0.0005889
559.445	0.00022468
569.09	0.000588
578.734	0.0004026
588.379	0.0003912
598.024	0.0002685
607.669	0.001416
617.313	0.006646
626.958	0.028296
636.603	0.047046
646.248	0.016506
655.893	0.002256
665.537	0.0010016
675.182	0.0008508
684.827	0.001146
694.472	0.001146
704.116	0.001276
713.761	0.002416
723.406	0.011816
733.051	0.037486
742.695	0.065996
752.34	0.056596
761.985	0.041176
771.63	0.022616
781.275	0.025146
790.919	0.037696
800.564	0.019326
810.209	0.012186
819.854	0.008206
829.498	0.006996
839.143	0.003276
848.788	0.005066
858.433	0.007016
868.078	0.011286
877.722	0.005976
887.367	0.003306
897.012	0.003686
906.657	0.008486
916.301	0.012676
925.946	0.014206
935.591	0.019826
945.236	0.017966
954.88	0.014476
964.525	0.006116
974.17	0.003166
983.815	0.001646
993.46	0.001536
1003.1	0.004446
1012.75	0.003826
1022.39	0.002096
1032.04	0.001196
1041.68	0.001986
1051.33	0.009066
1060.97	0.019716
1070.62	0.020246
1080.26	0.008566
1089.91	0.003136
1099.55	0.002626
1109.2	0.003956
1118.84	0.006826
1128.49	0.014756
1138.13	0.021696
1147.78	0.019716
1157.42	0.017046
1167.07	0.005276
1176.71	0.001706
1186.36	0.001926
1196	0.005216
1205.64	0.005746
1215.29	0.004916
1224.93	0.002926
1234.58	0.003386
1244.22	0.002666
1253.87	0.002636
1263.51	0.002276
1273.16	0.002966
1282.8	0.005796
1292.45	0.011686
1302.09	0.013146
1311.74	0.011416
1321.38	0.006376
1331.03	0.003616
1340.67	0.004116
1350.32	0.010056
1359.96	0.033476
1369.61	0.058436
1379.25	0.055946
1388.9	0.030246
1398.54	0.025156
1408.18	0.022006
1417.83	0.012126
1427.47	0.005226
1437.12	0.005206
1446.76	0.005136
1456.41	0.007226
1466.05	0.012186
1475.7	0.033356
1485.34	0.051066
1494.99	0.049256
1504.63	0.014386
1514.28	0.006336
1523.92	0.007096
1533.57	0.011936
1543.21	0.028466
1552.86	0.064916
1562.5	0.097066
1572.15	0.096236
1581.79	0.065816
1591.44	0.047786
1601.08	0.028466
1610.73	0.045666
1620.37	0.061936
1630.01	0.046506
1639.66	0.013366
1649.3	0.006096
1658.95	0.003836
1668.59	0.003236
1678.24	0.002876
1687.88	0.002996
1697.53	0.003766
1707.17	0.003516
1716.82	0.002586
1726.46	0.002266
1736.11	0.002316
1745.75	0.002396
1755.4	0.002406
1765.04	0.002306
1774.69	0.002246
1784.33	0.001776
1793.98	0.001326
1803.62	0.001776
1813.27	0.002866
1822.91	0.003246
1832.55	0.003836
1842.2	0.003706
1851.84	0.002866
1861.49	0.001976
1871.13	0.002836
1880.78	0.003996
1890.42	0.004946
1900.07	0.004856
1909.71	0.004136
1919.36	0.002956
1929	0.003596
1938.65	0.004046
1948.29	0.004856
1957.94	0.005296
1967.58	0.004526
1977.23	0.002296
1986.87	0.001256
1996.52	0.001206
2006.16	0.001236
2015.81	0.0011255
2025.45	0.0010205
2035.1	0.0008122
2044.74	0.0006758
2054.38	0.0007366
2064.03	0.0007718
2073.67	0.0008525
2083.32	0.0008794
2092.96	0.0007367
2102.61	0.0006269
2112.25	0.0005732
2121.9	0.0006085
2131.54	0.0007425
2141.19	0.0007767
2150.83	0.000675
2160.48	0.000506
2170.12	0.0004553
2179.77	0.0005718
2189.41	0.0006299
2199.06	0.0008272
2208.7	0.001166
2218.35	0.0011312
2227.99	0.0007457
2237.64	0.0007079
2247.28	0.0007717
2256.92	0.0010589
2266.57	0.001496
2276.21	0.001656
2285.86	0.001416
2295.5	0.001256
2305.15	0.0010827
2314.79	0.00095
2324.44	0.000822
2334.08	0.0010058
2343.73	0.0010912
2353.37	0.0011152
2363.02	0.0008239
2372.66	0.0008571
2382.31	0.0009014
2391.95	0.0010727
2401.6	0.001226
2411.24	0.001186
2420.89	0.001114
2430.53	0.001346
2440.18	0.001546
2449.82	0.001386
2459.47	0.0011059
2469.11	0.0009343
2478.75	0.000753
2488.4	0.000707
2498.04	0.000806
2507.69	0.0009884
2517.33	0.0011228
2526.98	0.0009388
2536.62	0.0008395
2546.27	0.0008403
2555.91	0.0008909
2565.56	0.0008061
2575.2	0.00084
2584.85	0.0007689
2594.49	0.0007374
2604.14	0.0008618
2613.78	0.0008778
2623.43	0.0008316
2633.07	0.0008609
2642.72	0.0007784
2652.36	0.000674
2662.01	0.0007956
2671.65	0.0007649
2681.29	0.0005937
2690.94	0.0005851
2700.58	0.0006898
2710.23	0.0006413
2719.87	0.0006656
2729.52	0.0006816
2739.16	0.0006943
2748.81	0.0007569
2758.45	0.0005908
2768.1	0.0006718
2777.74	0.0008785
2787.39	0.0006454
2797.03	0.0005671
2806.68	0.0003098
2816.32	0.0003808
2825.97	0.0005691
2835.61	0.0009061
2845.26	0.001346
2854.9	0.001586
2864.55	0.001686
2874.19	0.001526
2883.84	0.001486
2893.48	0.001476
2903.12	0.001516
2912.77	0.002346
2922.41	0.003306
2932.06	0.004386
2941.7	0.004516
2951.35	0.004196
2960.99	0.003736
2970.64	0.003986
2980.28	0.004546
2989.93	0.006406
2999.57	0.010936
3009.22	0.021136
3018.86	0.028786
3028.51	0.031356
3038.15	0.027276
3047.8	0.032046
3057.44	0.043456
3067.09	0.053896
3076.73	0.047676
3086.38	0.029166
3096.02	0.012426
3105.67	0.004526
3115.31	0.002746
3124.95	0.002236
3134.6	0.001926
3144.24	0.001896
3153.89	0.001666
3163.53	0.001686
3173.18	0.001346
3182.82	0.001386
3192.47	0.0011077
3202.11	0.0007069
3211.76	0.0006162
3221.4	0.0005673
3231.05	0.000613
3240.69	0.000676
3250.34	0.0004535
3259.98	0.0003525
3269.63	0.0004067
3279.27	0.0003497
3288.92	0.00018167
3298.56	0.0003924
3308.21	0.0002712
3317.85	0.0003652
3327.49	0.0003204
3337.14	0.00034
3346.78	0.0003326
3356.43	0.00018062
3366.07	0.0003739
3375.72	0.0003491
3385.36	0.0005351
3395.01	0.0003685
3404.65	0.0005363
3414.3	0.0004493
3423.94	0.0004262
3433.59	0.0004475
3443.23	0.0005081
3452.88	0.0005469
3462.52	0.000486
3472.17	0.000542
3481.81	0.0003927
3491.46	0.0004373
3501.1	0.0002903
3510.75	0.0004598
3520.39	0.0005192
3530.04	0.000442
3539.68	0.0003494
3549.32	0.0003117
3558.97	0.0004006
3568.61	0.0004909
3578.26	0.0005556
3587.9	0.0005399
3597.55	0.0003223
3607.19	0.0005884
3616.84	0.0005096
3626.48	0.0005667
3636.13	0.0004266
3645.77	0.0004697
3655.42	0.0004965
3665.06	0.0006838
3674.71	0.0006211
3684.35	0.0003464
3694	0.0005194
3703.64	0.0004565
3713.29	0.0005805
3722.93	0.0005353
3732.58	0.000401
3742.22	0.0004824
3751.86	0.000437
3761.51	0.0004431
3771.15	0.0006058
3780.8	0.0003962
3790.44	0.0005477
3800.09	0.0003099
3809.73	0.0006308
3819.38	0.0006331
3829.02	0.0005123
3838.67	0.0007399
3848.31	0.0007552
3857.96	0.0005307
3867.6	0.0008664
3877.25	0.0010513
3886.89	0.001186
3896.54	0.0007846
3906.18	0.0007423
3915.83	0.0005355
3925.47	0.0003746
3935.12	0.0006428
3944.76	0.0004563
3954.41	0.0008252
3964.05	0.0007849
3973.69	0.0010057
3983.34	0.0009228
3992.98	0.0011317
