Infrared Spectrum: SILANE, 3(GLYCIDOXY)PROPYL TRIMETHOXY-
Formula: C9 H20 O5 Si
CAS: 2530-83-8
State: SOLUTION (10% IN CCl4 FOR 3800-1300, 2% IN CS2 FOR 1300-650, AND 10% IN CCl4 FOR 650-280 CM^-^1) VS. SOLVENT
Class: COBLENTZ III
Instrument: PERKIN-ELMER 521 (GRATING)
Instrument parameters: FILTERS AT 3150, 2500, 2000, 1150, 700, 410 AND GRATING CHANGES AT 2000, 630 CM^-^1
Sampling: TRANSMISSION
Path length: 0.011, 0.010, AND 0.011 CM (CsBr CELL)
Resolution: 4
Origin: DOW CORNING CORP.
1/CM	TRANSMITTANCE
276.923	0.718
286.108	0.722
295.293	0.723
304.478	0.723
313.662	0.718
322.847	0.705
332.032	0.682
341.217	0.664
350.402	0.65
359.587	0.64
368.772	0.631
377.957	0.648
387.141	0.676
396.326	0.682
405.511	0.682
414.696	0.675
423.881	0.646
433.066	0.601
442.251	0.579
451.436	0.603
460.62	0.628
469.805	0.65
478.99	0.681
488.175	0.764
497.36	0.818
506.545	0.818
515.73	0.818
524.915	0.827
534.099	0.832
543.284	0.848
552.469	0.845
561.654	0.847
570.839	0.855
580.024	0.854
589.209	0.843
598.393	0.828
607.578	0.822
616.763	0.835
625.948	0.878
635.133	0.863
644.318	0.843
653.503	0.874
662.688	0.898
671.872	0.902
681.057	0.905
690.242	0.909
699.427	0.914
708.612	0.919
717.797	0.922
726.982	0.919
736.167	0.912
745.351	0.889
754.536	0.817
763.721	0.735
772.906	0.711
782.091	0.65
791.276	0.641
800.461	0.643
809.646	0.599
818.83	0.513
828.015	0.498
837.2	0.574
846.385	0.652
855.57	0.694
864.755	0.773
873.94	0.888
883.124	0.9
892.309	0.894
901.494	0.864
910.679	0.825
919.864	0.866
929.049	0.911
938.234	0.911
947.419	0.907
956.603	0.904
965.788	0.902
974.973	0.898
984.158	0.896
993.343	0.895
1002.53	0.901
1011.71	0.895
1020.9	0.888
1030.08	0.874
1039.27	0.85
1048.45	0.8
1057.64	0.706
1066.82	0.638
1076.01	0.475
1085.19	0.186
1094.38	0.116
1103.56	0.203
1112.75	0.3
1121.93	0.457
1131.12	0.578
1140.3	0.7
1149.49	0.726
1158.67	0.733
1167.86	0.725
1177.04	0.682
1186.23	0.563
1195.41	0.549
1204.59	0.696
1213.78	0.827
1222.96	0.863
1232.15	0.871
1241.33	0.851
1250.52	0.848
1259.7	0.875
1268.89	0.891
1278.07	0.898
1287.26	0.905
1296.44	0.91
1305.63	0.706
1314.81	0.697
1324	0.737
1333.18	0.589
1342.37	0.563
1351.55	0.648
1360.74	0.706
1369.92	0.725
1379.11	0.711
1388.29	0.672
1397.48	0.701
1406.66	0.671
1415.85	0.618
1425.03	0.705
1434.22	0.625
1443.4	0.594
1452.59	0.529
1461.77	0.496
1470.96	0.509
1480.14	0.5241
1489.33	0.69
1498.51	0.758
1507.7	0.772
1516.88	0.781
1526.07	0.798
1535.25	0.815
1544.44	0.827
1553.62	0.83
1562.8	0.833
1571.99	0.834
1581.17	0.842
1590.36	0.843
1599.54	0.845
1608.73	0.847
1617.91	0.853
1627.1	0.86
1636.28	0.866
1645.47	0.865
1654.65	0.864
1663.84	0.865
1673.02	0.868
1682.21	0.87
1691.39	0.869
1700.58	0.869
1709.76	0.87
1718.95	0.861
1728.13	0.859
1737.32	0.864
1746.5	0.869
1755.69	0.874
1764.87	0.878
1774.06	0.878
1783.24	0.876
1792.43	0.875
1801.61	0.875
1810.8	0.873
1819.98	0.87
1829.17	0.866
1838.35	0.865
1847.54	0.863
1856.72	0.86
1865.91	0.854
1875.09	0.848
1884.28	0.844
1893.46	0.842
1902.65	0.84
1911.83	0.842
1921.01	0.843
1930.2	0.851
1939.38	0.86
1948.57	0.866
1957.75	0.868
1966.94	0.87
1976.12	0.87
1985.31	0.871
1994.49	0.87
2003.68	0.891
2012.86	0.898
2022.05	0.899
2031.23	0.9
2040.42	0.898
2049.6	0.9001
2058.79	0.9021
2067.97	0.9019
2077.16	0.9
2086.34	0.902
2095.53	0.902
2104.71	0.902
2113.9	0.9
2123.08	0.899
2132.27	0.898
2141.45	0.896
2150.64	0.894
2159.82	0.893
2169.01	0.894
2178.19	0.894
2187.38	0.8942
2196.56	0.8965
2205.75	0.8982
2214.93	0.8992
2224.12	0.9
2233.3	0.9013
2242.49	0.9017
2251.67	0.9026
2260.86	0.9043
2270.04	0.907
2279.22	0.9067
2288.41	0.9103
2297.59	0.912
2306.78	0.914
2315.96	0.914
2325.15	0.914
2334.33	0.912
2343.52	0.915
2352.7	0.914
2361.89	0.914
2371.07	0.915
2380.26	0.914
2389.44	0.914
2398.63	0.9155
2407.81	0.915
2417	0.915
2426.18	0.916
2435.37	0.915
2444.55	0.914
2453.74	0.914
2462.92	0.914
2472.11	0.912
2481.29	0.911
2490.48	0.911
2499.66	0.91
2508.85	0.91
2518.03	0.911
2527.22	0.9104
2536.4	0.909
2545.59	0.907
2554.77	0.907
2563.96	0.906
2573.14	0.905
2582.33	0.8993
2591.51	0.8946
2600.7	0.8903
2609.88	0.8853
2619.07	0.884
2628.25	0.88
2637.43	0.8787
2646.62	0.8798
2655.8	0.8815
2664.99	0.879
2674.17	0.879
2683.36	0.879
2692.54	0.8752
2701.73	0.8693
2710.91	0.8605
2720.1	0.8506
2729.28	0.842
2738.47	0.8206
2747.65	0.8022
2756.84	0.7971
2766.02	0.794
2775.21	0.792
2784.39	0.7744
2793.58	0.7288
2802.76	0.6574
2811.95	0.6098
2821.13	0.5314
2830.32	0.2842
2839.5	0.0415
2848.69	0.17
2857.87	0.217
2867.06	0.218
2876.24	0.2302
2885.43	0.2501
2894.61	0.256
2903.8	0.2251
2912.98	0.1744
2922.17	0.1356
2931.35	0.0994
2940.54	0.031
2949.72	0.0692
2958.91	0.1442
2968.09	0.195
2977.27	0.2391
2986.46	0.303
2995.64	0.335
3004.83	0.4436
3014.01	0.5629
3023.2	0.6412
3032.38	0.6586
3041.57	0.6287
3050.75	0.6218
3059.94	0.7079
3069.12	0.7957
3078.31	0.8417
3087.49	0.8657
3096.68	0.8852
3105.86	0.8943
3115.05	0.904
3124.23	0.9
3133.42	0.9113
3142.6	0.912
3151.79	0.917
3160.97	0.9214
3170.16	0.924
3179.34	0.922
3188.53	0.926
3197.71	0.926
3206.9	0.926
3216.08	0.927
3225.27	0.927
3234.45	0.927
3243.64	0.926
3252.82	0.9255
3262.01	0.9265
3271.19	0.925
3280.38	0.923
3289.56	0.9195
3298.75	0.9165
3307.93	0.917
3317.12	0.9155
3326.3	0.915
3335.48	0.915
3344.67	0.9132
3353.85	0.912
3363.04	0.912
3372.22	0.912
3381.41	0.911
3390.59	0.914
3399.78	0.914
3408.96	0.914
3418.15	0.912
3427.33	0.9134
3436.52	0.914
3445.7	0.912
3454.89	0.912
3464.07	0.911
3473.26	0.911
3482.44	0.909
3491.63	0.907
3500.81	0.907
3510	0.9074
3519.18	0.9074
3528.37	0.907
3537.55	0.911
3546.74	0.911
3555.92	0.912
3565.11	0.914
3574.29	0.915
3583.48	0.916
3592.66	0.914
3601.85	0.9191
3611.03	0.916
3620.22	0.9168
3629.4	0.914
3638.59	0.914
3647.77	0.915
3656.96	0.914
3666.14	0.911
3675.33	0.91
3684.51	0.916
3693.69	0.916
3702.88	0.917
3712.06	0.916
3721.25	0.9169
3730.43	0.914
3739.62	0.916
3748.8	0.916
3757.99	0.916
3767.17	0.916
3776.36	0.915
3785.54	0.916
