Infrared Spectrum: METHACRYLIC ACID, 3-(TRIMETHOXYSILYL)PROPYL ESTER
Formula: C10 H20 O5 Si
CAS: 2530-85-0
State: LIQUID (NEAT)
Boiling point: 80 C AT 1 mmHg
Class: COBLENTZ
Instrument: BECKMAN IR-4 (HYBRID PRISM-GRATING)
Sampling: TRANSMISSION
Path length: CAPILLARY CELL
Resolution: 4
Origin: ALDRICH CHEMICAL COMPANY, MILWAUKEE, WIS.
MICROMETERS	TRANSMITTANCE
2.02	0.958
2.05491	0.957
2.08983	0.958
2.12474	0.952
2.15966	0.936
2.19457	0.897
2.22948	0.873
2.2644	0.904
2.29931	0.921
2.33422	0.933
2.36914	0.917
2.40405	0.907
2.43897	0.903
2.47388	0.921
2.50879	0.934
2.54371	0.951
2.57862	0.956
2.61353	0.946
2.64845	0.939
2.68336	0.922
2.71828	0.906
2.75319	0.907
2.7881	0.904
2.82302	0.911
2.85793	0.913
2.89285	0.911
2.92776	0.929
2.96267	0.941
2.99759	0.948
3.0325	0.949
3.06741	0.943
3.10233	0.934
3.13724	0.929
3.17216	0.904
3.20707	0.835
3.24198	0.761
3.2769	0.631
3.31181	0.462
3.34672	0.288
3.38164	0.214
3.41655	0.26
3.45147	0.34
3.48638	0.39
3.52129	0.5
3.55621	0.781
3.59112	0.884
3.62604	0.928
3.66095	0.939
3.69586	0.936
3.73078	0.927
3.76569	0.932
3.8006	0.943
3.83552	0.952
3.87043	0.954
3.90535	0.958
3.94026	0.966
3.97517	0.963
4.01009	0.971
4.045	0.978
4.07991	0.981
4.11483	0.981
4.14974	0.974
4.18466	0.976
4.21957	0.977
4.25448	0.978
4.2894	0.978
4.32431	0.978
4.35923	0.976
4.39414	0.969
4.42905	0.959
4.46397	0.954
4.49888	0.954
4.53379	0.951
4.56871	0.932
4.60362	0.931
4.63854	0.938
4.67345	0.952
4.70836	0.954
4.74328	0.958
4.77819	0.968
4.8131	0.966
4.84802	0.967
4.88293	0.953
4.91785	0.933
4.95276	0.928
4.98767	0.931
5.02259	0.927
5.0575	0.919
5.09242	0.917
5.12733	0.909
5.16224	0.88
5.19716	0.849
5.23207	0.828
5.26698	0.822
5.3019	0.832
5.33681	0.869
5.37173	0.889
5.40664	0.899
5.44155	0.899
5.47647	0.906
5.51138	0.898
5.54629	0.864
5.58121	0.844
5.61612	0.799
5.65104	0.76
5.68595	0.642
5.72086	0.464
5.75578	0.253
5.79069	0.137
5.82561	0.234
5.86052	0.493
5.89543	0.602
5.93035	0.671
5.96526	0.721
6.00017	0.76
6.03509	0.649
6.07	0.468
6.10492	0.426
6.13983	0.553
6.17474	0.708
6.20966	0.77
6.24457	0.807
6.27948	0.824
6.3144	0.824
6.34931	0.825
6.38423	0.822
6.41914	0.822
6.45405	0.803
6.48897	0.789
6.52388	0.776
6.5588	0.749
6.59371	0.735
6.62862	0.713
6.66354	0.68
6.69845	0.625
6.73336	0.541
6.76828	0.431
6.80319	0.367
6.83811	0.342
6.87302	0.328
6.90793	0.373
6.94285	0.398
6.97776	0.494
7.01267	0.522
7.04759	0.451
7.0825	0.431
7.11742	0.419
7.15233	0.494
7.18724	0.51
7.22216	0.531
7.25707	0.515
7.29199	0.621
7.3269	0.656
7.36181	0.615
7.39673	0.56
7.43164	0.575
7.46655	0.467
7.50147	0.333
7.53638	0.251
7.5713	0.233
7.60621	0.266
7.64112	0.288
7.67604	0.239
7.71095	0.192
7.74586	0.274
7.78078	0.417
7.81569	0.481
7.85061	0.517
7.88552	0.525
7.92043	0.53
7.95535	0.545
7.99026	0.55
8.02518	0.531
8.06009	0.511
8.095	0.476
8.12992	0.432
8.16483	0.387
8.19974	0.324
8.23466	0.261
8.26957	0.199
8.30449	0.151
8.3394	0.132
8.37431	0.129
8.40923	0.127
8.44414	0.125
8.47905	0.12
8.51397	0.114
8.54888	0.105
8.5838	0.101
8.61871	0.112
8.65362	0.13
8.68854	0.167
8.72345	0.203
8.75837	0.219
8.79328	0.218
8.82819	0.209
8.86311	0.199
8.89802	0.174
8.93293	0.151
8.96785	0.13
9.00276	0.112
9.03768	0.098
9.07259	0.083
9.1075	0.077
9.14242	0.065
9.17733	0.055
9.21224	0.053
9.24716	0.062
9.28207	0.078
9.31699	0.105
9.3519	0.131
9.38681	0.169
9.42173	0.194
9.45664	0.218
9.49156	0.25
9.52647	0.274
9.56138	0.284
9.5963	0.299
9.63121	0.312
9.66612	0.339
9.70104	0.373
9.73595	0.393
9.77087	0.392
9.80578	0.369
9.84069	0.342
9.87561	0.317
9.91052	0.345
9.94543	0.416
9.98035	0.494
10.0153	0.521
10.0502	0.517
10.0851	0.497
10.12	0.471
10.1549	0.442
10.1898	0.431
10.2247	0.442
10.2597	0.492
10.2946	0.552
10.3295	0.602
10.3644	0.612
10.3993	0.593
10.4342	0.55
10.4691	0.492
10.5041	0.446
10.539	0.395
10.5739	0.359
10.6088	0.335
10.6437	0.325
10.6786	0.33
10.7135	0.368
10.7485	0.418
10.7834	0.5
10.8183	0.581
10.8532	0.647
10.8881	0.687
10.923	0.703
10.9579	0.691
10.9928	0.664
11.0278	0.627
11.0627	0.606
11.0976	0.593
11.1325	0.598
11.1674	0.61
11.2023	0.625
11.2372	0.647
11.2722	0.664
11.3071	0.67
11.342	0.659
11.3769	0.626
11.4118	0.577
11.4467	0.516
11.4816	0.466
11.5166	0.427
11.5515	0.394
11.5864	0.388
11.6213	0.377
11.6562	0.364
11.6911	0.337
11.726	0.31
11.761	0.28
11.7959	0.264
11.8308	0.265
11.8657	0.27
11.9006	0.265
11.9355	0.256
11.9704	0.236
12.0053	0.214
12.0403	0.196
12.0752	0.171
12.1101	0.157
12.145	0.147
12.1799	0.141
12.2148	0.135
12.2497	0.134
12.2847	0.136
12.3196	0.141
12.3545	0.152
12.3894	0.172
12.4243	0.186
12.4592	0.194
12.4941	0.197
12.5291	0.2
12.564	0.2
12.5989	0.203
12.6338	0.206
12.6687	0.208
12.7036	0.211
12.7385	0.213
12.7735	0.213
12.8084	0.213
12.8433	0.213
12.8782	0.213
12.9131	0.216
12.948	0.224
12.9829	0.234
13.0178	0.246
13.0528	0.26
13.0877	0.276
13.1226	0.284
13.1575	0.289
13.1924	0.289
13.2273	0.294
13.2622	0.312
13.2972	0.332
13.3321	0.368
13.367	0.414
13.4019	0.463
13.4368	0.511
13.4717	0.556
13.5066	0.593
13.5416	0.624
13.5765	0.652
13.6114	0.675
13.6463	0.691
13.6812	0.706
13.7161	0.713
13.751	0.719
13.786	0.721
13.8209	0.721
13.8558	0.72
13.8907	0.719
13.9256	0.715
13.9605	0.711
13.9954	0.706
14.0304	0.701
14.0653	0.69
14.1002	0.682
14.1351	0.671
14.17	0.662
14.2049	0.651
14.2398	0.639
14.2747	0.631
14.3097	0.626
14.3446	0.617
14.3795	0.612
14.4144	0.606
14.4493	0.602
14.4842	0.598
14.5191	0.591
14.5541	0.585
14.589	0.575
14.6239	0.562
14.6588	0.551
14.6937	0.54
14.7286	0.531
14.7635	0.525
14.7985	0.527
14.8334	0.526
14.8683	0.521
14.9032	0.513
14.9381	0.508
14.973	0.5
15.0079	0.512
