Infrared Spectrum: 3-Acetyl-2,5-dimethylthiophene
Formula: C 8 H 10 O S
CAS: 2530-10-1
State: gas
Origin: EPA-IR VAPOR PHASE LIBRARY
1/CM	ABSORBANCE
549.9	0.0024038
559.547	0.00295
569.193	0.00529
578.84	0.01257
588.486	0.0314
598.133	0.03755
607.779	0.02034
617.426	0.00727
627.072	0.00542
636.719	0.00382
646.365	0.00287
656.012	0.00391
665.658	0.00523
675.305	0.00368
684.951	0.00268
694.598	0.00284
704.245	0.0025602
713.891	0.00158437
723.538	0.000718
733.184	0.00053
742.831	0.000603
752.477	0.00056
762.124	0.000761
771.77	0.001052
781.417	0.001456
791.063	0.0017836
800.71	0.00341
810.356	0.01169
820.003	0.02865
829.649	0.02703
839.296	0.01506
848.943	0.00709
858.589	0.00451
868.236	0.00284
877.882	0.0021537
887.529	0.0017728
897.175	0.0016879
906.822	0.0019786
916.468	0.00265
926.115	0.00466
935.761	0.0103
945.408	0.01794
955.054	0.01748
964.701	0.00997
974.347	0.00645
983.994	0.00536
993.64	0.00474
1003.29	0.00449
1012.93	0.00491
1022.58	0.00501
1032.23	0.00469
1041.87	0.00425
1051.52	0.00387
1061.17	0.00363
1070.81	0.00353
1080.46	0.00342
1090.11	0.00369
1099.75	0.00456
1109.4	0.00647
1119.05	0.00959
1128.69	0.01649
1138.34	0.03598
1147.99	0.04533
1157.63	0.03814
1167.28	0.04481
1176.92	0.04294
1186.57	0.02522
1196.22	0.0147
1205.86	0.01178
1215.51	0.01501
1225.16	0.05262
1234.8	0.14124
1244.45	0.13712
1254.1	0.03633
1263.74	0.0099
1273.39	0.007
1283.04	0.00608
1292.68	0.00599
1302.33	0.00703
1311.98	0.0094
1321.62	0.01283
1331.27	0.01755
1340.92	0.02726
1350.56	0.04934
1360.21	0.07421
1369.86	0.07085
1379.5	0.04444
1389.15	0.03015
1398.79	0.02189
1408.44	0.01941
1418.09	0.02018
1427.73	0.02375
1437.38	0.0265
1447.03	0.03067
1456.67	0.04051
1466.32	0.06595
1475.97	0.09491
1485.61	0.08299
1495.26	0.0378
1504.91	0.01666
1514.55	0.01317
1524.2	0.01492
1533.85	0.01883
1543.49	0.0263
1553.14	0.02878
1562.79	0.01939
1572.43	0.01097
1582.08	0.00803
1591.73	0.00741
1601.37	0.00788
1611.02	0.00769
1620.67	0.0077
1630.31	0.01107
1639.96	0.01739
1649.6	0.02273
1659.25	0.02533
1668.9	0.03414
1678.54	0.0853
1688.19	0.19632
1697.84	0.19982
1707.48	0.07545
1717.13	0.02295
1726.78	0.01646
1736.42	0.01552
1746.07	0.01016
1755.72	0.00556
1765.36	0.00361
1775.01	0.0029
1784.66	0.0023151
1794.3	0.0019456
1803.95	0.0018641
1813.6	0.0019866
1823.24	0.0024447
1832.89	0.00302
1842.54	0.00294
1852.18	0.0023455
1861.83	0.0019478
1871.47	0.001764
1881.12	0.00163294
1890.77	0.001366
1900.41	0.001291
1910.06	0.001191
1919.71	0.001291
1929.35	0.001355
1939	0.001353
1948.65	0.001273
1958.29	0.001306
1967.94	0.001288
1977.59	0.001295
1987.23	0.001158
1996.88	0.001065
2006.53	0.001062
2016.17	0.001018
2025.82	0.001002
2035.47	0.00102
2045.11	0.001045
2054.76	0.001197
2064.41	0.001254
2074.05	0.00123
2083.7	0.001133
2093.35	0.000989
2102.99	0.000841
2112.64	0.000839
2122.28	0.000858
2131.93	0.000812
2141.58	0.000898
2151.22	0.000903
2160.87	0.001014
2170.52	0.001231
2180.16	0.001272
2189.81	0.001248
2199.46	0.001118
2209.1	0.000995
2218.75	0.00094
2228.4	0.00101
2238.04	0.000993
2247.69	0.001094
2257.34	0.001177
2266.98	0.00113
2276.63	0.001208
2286.28	0.001387
2295.92	0.00169
2305.57	0.0018519
2315.22	0.0017575
2324.86	0.001488
2334.51	0.001335
2344.16	0.001264
2353.8	0.001336
2363.45	0.001389
2373.09	0.001399
2382.74	0.001423
2392.39	0.001358
2402.03	0.001325
2411.68	0.001297
2421.33	0.001232
2430.97	0.001241
2440.62	0.001206
2450.27	0.001182
2459.91	0.001163
2469.56	0.001317
2479.21	0.00141
2488.85	0.001261
2498.5	0.001169
2508.15	0.001236
2517.79	0.001397
2527.44	0.0015215
2537.09	0.001454
2546.73	0.001215
2556.38	0.001102
2566.03	0.001109
2575.67	0.001139
2585.32	0.001258
2594.96	0.001155
2604.61	0.001019
2614.26	0.001089
2623.9	0.001187
2633.55	0.001218
2643.2	0.001138
2652.84	0.000894
2662.49	0.000891
2672.14	0.000874
2681.78	0.000971
2691.43	0.000989
2701.08	0.001114
2710.72	0.00131
2720.37	0.001442
2730.02	0.00164558
2739.66	0.0023948
2749.31	0.00318
2758.96	0.0025199
2768.6	0.0016915
2778.25	0.0016885
2787.9	0.0018163
2797.54	0.0019754
2807.19	0.0021372
2816.84	0.00263
2826.48	0.00346
2836.13	0.00493
2845.77	0.0071
2855.42	0.01032
2865.07	0.01541
2874.71	0.01957
2884.36	0.01929
2894.01	0.0173
2903.65	0.01629
2913.3	0.01945
2922.95	0.03613
2932.59	0.05614
2942.24	0.04826
2951.89	0.02623
2961.53	0.02239
2971.18	0.02264
2980.83	0.02165
2990.47	0.01793
3000.12	0.01552
3009.77	0.01638
3019.41	0.01443
3029.06	0.0107
3038.71	0.00944
3048.35	0.00954
3058	0.0098
3067.64	0.00915
3077.29	0.00798
3086.94	0.00689
3096.58	0.00606
3106.23	0.00472
3115.88	0.00331
3125.52	0.0021892
3135.17	0.001407
3144.82	0.001129
3154.46	0.000903
3164.11	0.000706
3173.76	0.00052
3183.4	0.00032
3193.05	0.00029
3202.7	0.00031
3212.34	0.00024
3221.99	0.00028
3231.64	0.0002
3241.28	0.00025
3250.93	0.00016
3260.58	0.00025
3270.22	0
3279.87	7e-05
3289.52	0.00014
3299.16	0.00036
3308.81	0.00039
3318.45	0.00046
3328.1	0.00071
3337.75	0.001096
3347.39	0.00167159
3357.04	0.0023927
3366.69	0.00305
3376.33	0.00271
3385.98	0.001397
3395.63	0.000604
3405.27	0.00039
3414.92	0.00027
3424.57	0.00045
3434.21	0.00037
3443.86	0.00036
3453.51	0.0003
3463.15	0.00022
3472.8	0.00026
3482.45	0.00025
3492.09	0.00029
3501.74	0.00011
3511.39	0.00032
3521.03	0.0004
3530.68	0.00039
3540.33	0.0003
3549.97	0.00033
3559.62	0.00037
3569.26	0.00044
3578.91	0.00033
3588.56	0.00032
3598.2	0.00044
3607.85	0.00037
3617.5	0.00042
3627.14	0.0005
3636.79	0.00047
3646.44	0.00049
3656.08	0.00046
3665.73	0.00054
3675.38	0.0004
3685.02	0.00052
3694.67	0.00043
3704.32	0.00046
3713.96	0.00043
3723.61	0.00055
3733.26	0.000643
3742.9	0.000611
3752.55	0.000618
3762.2	0.00057
3771.84	0.000712
3781.49	0.000748
3791.13	0.00073
3800.78	0.000837
3810.43	0.000695
3820.07	0.000769
3829.72	0.000723
3839.37	0.000617
3849.01	0.000849
3858.66	0.000831
3868.31	0.000826
3877.95	0.000982
3887.6	0.001056
3897.25	0.00093
3906.89	0.000934
3916.54	0.001046
3926.19	0.000906
3935.83	0.000981
3945.48	0.001025
3955.13	0.00107
3964.77	0.001033
3974.42	0.000991
3984.07	0.000861
3993.71	0.00086
