Infrared Spectrum: 1-Ethyl-4-iodobenzene
Formula: C 8 H 9 I
CAS: 25309-64-2
State: gas
Origin: EPA-IR VAPOR PHASE LIBRARY
1/CM	ABSORBANCE
549.8	0.001339
559.445	0.001579
569.09	0.002509
578.734	0.005669
588.379	0.005879
598.024	0.001979
607.669	0.0012295
617.313	0.0009969
626.958	0.001309
636.603	0.001215
646.248	0.0009009
655.893	0.0010071
665.537	0.000634
675.182	0.000777
684.827	0.0010916
694.472	0.001589
704.116	0.001909
713.761	0.002069
723.406	0.001979
733.051	0.002339
742.695	0.003269
752.34	0.005169
761.985	0.010539
771.63	0.010789
781.275	0.006499
790.919	0.008649
800.564	0.014549
810.209	0.022219
819.854	0.024209
829.498	0.017479
839.143	0.008859
848.788	0.003829
858.433	0.002079
868.078	0.001529
877.722	0.0011776
887.367	0.0010998
897.012	0.0009949
906.657	0.0007421
916.301	0.000894
925.946	0.0008668
935.591	0.0010216
945.236	0.001389
954.88	0.002409
964.525	0.005459
974.17	0.005519
983.815	0.004449
993.46	0.009219
1003.1	0.043129
1012.75	0.041099
1022.39	0.006279
1032.04	0.003339
1041.68	0.003839
1051.33	0.007699
1060.97	0.025599
1070.62	0.013959
1080.26	0.003529
1089.91	0.003469
1099.55	0.003709
1109.2	0.003969
1118.84	0.003729
1128.49	0.002529
1138.13	0.001659
1147.78	0.001309
1157.42	0.001859
1167.07	0.001769
1176.71	0.002519
1186.36	0.003829
1196	0.006139
1205.64	0.004969
1215.29	0.003829
1224.93	0.004529
1234.58	0.001609
1244.22	0.001349
1253.87	0.001549
1263.51	0.0012637
1273.16	0.001319
1282.8	0.001689
1292.45	0.002049
1302.09	0.002749
1311.74	0.004069
1321.38	0.005439
1331.03	0.004069
1340.67	0.002379
1350.32	0.002189
1359.96	0.002179
1369.61	0.002829
1379.25	0.004689
1388.9	0.007349
1398.54	0.008959
1408.18	0.008409
1417.83	0.006459
1427.47	0.005839
1437.12	0.006489
1446.76	0.007679
1456.41	0.009069
1466.05	0.012769
1475.7	0.028289
1485.34	0.058409
1494.99	0.025309
1504.63	0.005429
1514.28	0.003109
1523.92	0.002009
1533.57	0.001409
1543.21	0.001349
1552.86	0.001349
1562.5	0.001529
1572.15	0.001609
1581.79	0.002369
1591.44	0.003239
1601.08	0.002049
1610.73	0.001459
1620.37	0.001859
1630.01	0.002379
1639.66	0.002649
1649.3	0.002439
1658.95	0.001559
1668.59	0.0011095
1678.24	0.000861
1687.88	0.0006112
1697.53	0.0005774
1707.17	0.0005719
1716.82	0.0006865
1726.46	0.0005932
1736.11	0.0007589
1745.75	0.0010429
1755.4	0.0011058
1765.04	0.001459
1774.69	0.002489
1784.33	0.001439
1793.98	0.000488
1803.62	0.0004823
1813.27	0.0004777
1822.91	0.0005029
1832.55	0.0004894
1842.2	0.0005376
1851.84	0.0006209
1861.49	0.0010084
1871.13	0.001649
1880.78	0.002609
1890.42	0.003079
1900.07	0.002489
1909.71	0.001309
1919.36	0.0006415
1929	0.0005652
1938.65	0.0005639
1948.29	0.0004658
1957.94	0.0004903
1967.58	0.0004008
1977.23	0.0004355
1986.87	0.00039762
1996.52	0.00035065
2006.16	0.0004021
2015.81	0.0004626
2025.45	0.0005136
2035.1	0.0005044
2044.74	0.000464
2054.38	0.0004632
2064.03	0.0005822
2073.67	0.0006335
2083.32	0.000439
2092.96	0.000414
2102.61	0.0004691
2112.25	0.0004945
2121.9	0.0005258
2131.54	0.0004676
2141.19	0.0002809
2150.83	0.0004125
2160.48	0.00033085
2170.12	0.00037847
2179.77	0.0003349
2189.41	0.0003998
2199.06	0.0004536
2208.7	0.00038926
2218.35	0.00037259
2227.99	0.0004328
2237.64	0.0005613
2247.28	0.0005033
2256.92	0.0004955
2266.57	0.0005248
2276.21	0.0004936
2285.86	0.0006735
2295.5	0.0007278
2305.15	0.0007172
2314.79	0.0005902
2324.44	0.0004845
2334.08	0.0005829
2343.73	0.0005269
2353.37	0.0005391
2363.02	0.0006088
2372.66	0.0004706
2382.31	0.0005395
2391.95	0.0004465
2401.6	0.0004426
2411.24	0.0005764
2420.89	0.0005884
2430.53	0.0006183
2440.18	0.0005444
2449.82	0.00037154
2459.47	0.00039581
2469.11	0.00031127
2478.75	0.00038151
2488.4	0.0004726
2498.04	0.0004539
2507.69	0.0005061
2517.33	0.0005767
2526.98	0.0006062
2536.62	0.00066
2546.27	0.0006614
2555.91	0.0005825
2565.56	0.0006547
2575.2	0.0006875
2584.85	0.0007516
2594.49	0.0008852
2604.14	0.0006915
2613.78	0.0005379
2623.43	0.000565
2633.07	0.0006842
2642.72	0.0007478
2652.36	0.0006994
2662.01	0.000471
2671.65	0.0005616
2681.29	0.0004481
2690.94	0.0004122
2700.58	0.0005093
2710.23	0.0005839
2719.87	0.0005963
2729.52	0.0006828
2739.16	0.000984
2748.81	0.0009309
2758.45	0.0010508
2768.1	0.001389
2777.74	0.001379
2787.39	0.001399
2797.03	0.001609
2806.68	0.001699
2816.32	0.002219
2825.97	0.002469
2835.61	0.003119
2845.26	0.004429
2854.9	0.006369
2864.55	0.010259
2874.19	0.014309
2883.84	0.017299
2893.48	0.017469
2903.12	0.015749
2912.77	0.016129
2922.41	0.016719
2932.06	0.021739
2941.7	0.031049
2951.35	0.030609
2960.99	0.028029
2970.64	0.052649
2980.28	0.053979
2989.93	0.020279
2999.57	0.012249
3009.22	0.009819
3018.86	0.012779
3028.51	0.014919
3038.15	0.011579
3047.8	0.009699
3057.44	0.009349
3067.09	0.009159
3076.73	0.009059
3086.38	0.008809
3096.02	0.005639
3105.67	0.002729
3115.31	0.001709
3124.95	0.001409
3134.6	0.001459
3144.24	0.0012092
3153.89	0.001292
3163.53	0.0009855
3173.18	0.0010878
3182.82	0.0008531
3192.47	0.0008585
3202.11	0.0007318
3211.76	0.0006491
3221.4	0.0006261
3231.05	0.0006332
3240.69	0.0004709
3250.34	0.0004096
3259.98	0.00035755
3269.63	0.0002076
3279.27	0.0004569
3288.92	0.00032487
3298.56	0.0003803
3308.21	0.00030249
3317.85	0.000149
3327.49	0.0002822
3337.14	0.00037581
3346.78	0.00039423
3356.43	0.00037801
3366.07	0.000161
3375.72	0.0003401
3385.36	0.0002048
3395.01	0.0002078
3404.65	0.0002528
3414.3	0.000175
3423.94	0.000111
3433.59	0.000298575
3443.23	0.000177
3452.88	0.00031377
3462.52	0.000174
3472.17	0.0002741
3481.81	4.3e-05
3491.46	5.4e-05
3501.1	0.000173
3510.75	0.00035125
3520.39	0.0002837
3530.04	0.0002357
3539.68	0.000301786
3549.32	0.0002284
3558.97	0.0002811
3568.61	0.00032896
3578.26	0.0003478
3587.9	0.000145
3597.55	0.00033583
3607.19	0.000117
3616.84	0.00033074
3626.48	0.0002056
3636.13	0.00036494
3645.77	0.00033416
3655.42	0.0004394
3665.06	0.000658
3674.71	0.0005882
3684.35	0.0004515
3694	0.0004032
3703.64	0.0004081
3713.29	0.0005848
3722.93	0.0006349
3732.58	0.0004285
3742.22	0.00029327
3751.86	0.000304335
3761.51	0.0003482
3771.15	0.00029777
3780.8	0.0004027
3790.44	0.00032723
3800.09	0.0004762
3809.73	0.00033964
3819.38	0.0004849
3829.02	0.0004732
3838.67	0.0002401
3848.31	0.0004956
3857.96	0.0004549
3867.6	0.0005911
3877.25	0.000307926
3886.89	0.0004876
3896.54	0.0005087
3906.18	0.00033185
3915.83	0.00033664
3925.47	0.0003711
3935.12	0.00038348
3944.76	0.0004209
3954.41	0.00029226
3964.05	0.0005519
3973.69	0.0005301
3983.34	0.0005979
3992.98	0.0004806
