Infrared Spectrum: Isophenphos
Formula: C 15 H 24 N O 4 P S
CAS: 25311-71-1
State: gas
Instrument: HP-GC/MS/IRD
Origin: NIST Mass Spectrometry Data Center
1/CM	ABSORBANCE
550	0.0047415
562	0.001711
574	0.0015515
586	0.0019575
598	0.000319
610	0.000348
622	0.0047415
634	0.006235
646	0.007511
658	0.0154135
670	0.0125135
682	0.0056115
694	0.0065105
706	0.011078
718	0.008091
730	0.013746
742	0.0284055
754	0.0390485
766	0.0586815
778	0.0528815
790	0.0458925
802	0.03451
814	0.0360905
826	0.047531
838	0.043094
850	0.029783
862	0.0156165
874	0.018734
886	0.03393
898	0.0753565
910	0.121133
922	0.122148
934	0.0824035
946	0.060001
958	0.05046
970	0.029754
982	0.018618
994	0.019546
1006	0.033814
1018	0.072094
1030	0.123439
1042	0.145
1054	0.114057
1066	0.102399
1078	0.132327
1090	0.0786045
1102	0.064989
1114	0.0852745
1126	0.084187
1138	0.0880005
1150	0.062292
1162	0.05945
1174	0.0464725
1186	0.03161
1198	0.0276805
1210	0.0566225
1222	0.109417
1234	0.097034
1246	0.111331
1258	0.099818
1270	0.0654965
1282	0.089639
1294	0.0983825
1306	0.047473
1318	0.0271005
1330	0.01972
1342	0.0193575
1354	0.0223155
1366	0.024911
1378	0.037845
1390	0.0465015
1402	0.0375115
1414	0.030537
1426	0.0225185
1438	0.027115
1450	0.0496625
1462	0.027753
1474	0.035351
1486	0.062872
1498	0.0272745
1510	0.010904
1522	0.006003
1534	0.0041905
1546	0.0037265
1558	0.004901
1570	0.009657
1582	0.017255
1594	0.0172985
1606	0.019604
1618	0.005771
1630	0.003683
1642	0.0034945
1654	0.003915
1666	0.004785
1678	0.0065685
1690	0.0099615
1702	0.0173855
1714	0.041818
1726	0.098426
1738	0.103994
1750	0.049561
1762	0.016588
1774	0.007134
1786	0.0043065
1798	0.0034655
1810	0.003219
1822	0.0025665
1834	0.0019865
1846	0.0016095
1858	0.001131
1870	0.0008265
1882	0.000754
1894	0.0007685
1906	0.0010295
1918	0.0017835
1930	0.0014065
1942	0.001189
1954	0.0012325
1966	0.0007105
1978	0.000696
1990	0.000638
2002	0.00029
2014	5.8e-05
2026	1.45e-05
2038	1.45e-05
2050	0
2062	2.9e-05
2074	0.0001305
2086	0.0002755
2098	0.0003625
2110	0.0002465
2122	0.0003045
2134	0.0003915
2146	0.0003625
2158	0.000261
2170	0.000145
2182	0.000174
2194	0.0002465
2206	0.0003625
2218	0.000348
2230	0.000174
2242	0.0001885
2254	0.0002465
2266	0.000261
2278	0.0003045
2290	0.0004205
2302	0.000522
2314	0.0006815
2326	0.000696
2338	0.0005365
2350	0.000435
2362	0.000377
2374	0.0004205
2386	0.000406
2398	0.000406
2410	0.0003625
2422	0.0005365
2434	0.0007105
2446	0.0007105
2458	0.00058
2470	0.000435
2482	0.0003915
2494	0.000406
2506	0.000377
2518	0.000348
2530	0.0002755
2542	0.000203
2554	0.0002175
2566	0.000348
2578	0.000377
2590	0.000319
2602	0.0002465
2614	0.0001885
2626	0.0001885
2638	0.000174
2650	0.0002175
2662	0.0002465
2674	0.000348
2686	0.000435
2698	0.0005365
2710	0.000783
2722	0.00116
2734	0.0016095
2746	0.001595
2758	0.0014645
2770	0.001595
2782	0.001537
2794	0.001624
2806	0.0019575
2818	0.00261
2830	0.0031755
2842	0.003886
2854	0.0055535
2866	0.0093235
2878	0.0172115
2890	0.0185745
2902	0.0185745
2914	0.022272
2926	0.027231
2938	0.0418035
2950	0.0365835
2962	0.037265
2974	0.0666855
2986	0.0838245
2998	0.03915
3010	0.0173855
3022	0.0097005
3034	0.0072355
3046	0.005974
3058	0.0064525
3070	0.0096425
3082	0.0127745
3094	0.0053505
3106	0.002755
3118	0.0021315
3130	0.001885
3142	0.0018705
3154	0.002001
3166	0.001827
3178	0.00174
3190	0.001769
3202	0.001711
3214	0.0015225
3226	0.00145
3238	0.001305
3250	0.0012325
3262	0.001363
3274	0.0015515
3286	0.0018415
3298	0.0024215
3310	0.0033495
3322	0.0052635
3334	0.0075255
3346	0.007395
3358	0.0066555
3370	0.0068875
3382	0.00725
3394	0.006148
3406	0.0053505
3418	0.00609
3430	0.005974
3442	0.0027985
3454	0.001827
3466	0.0013775
3478	0.0009715
3490	0.0007395
3502	0.000493
3514	0.000435
3526	0.000348
3538	0.0002465
3550	0.000232
3562	0.0001595
3574	0.000203
3586	0.0001885
3598	0.0001885
3610	0.000232
3622	0.0002465
3634	0.0002175
3646	0.0001885
3658	0.000203
3670	0.00029
3682	0.0003045
3694	0.0003045
3706	0.00029
3718	0.00029
3730	0.0003915
3742	0.0003335
3754	0.0003045
3766	0.0004495
3778	0.000377
3790	0.000435
3802	0.0004205
3814	0.000493
3826	0.0005075
3838	0.000464
