Infrared Spectrum: 2-Methylphenanthrene
Formula: C 15 H 12
CAS: 2531-84-2
State: gas
Instrument: HP-GC/MS/IRD
Origin: NIST Mass Spectrometry Data Center
1/CM	ABSORBANCE
550	5.5e-05
562	4e-05
574	0.000304
586	0.00022
598	0.000625
610	0.000342
622	2.8e-05
634	7.3e-05
646	6.5e-05
658	0.000101
670	0.000869
682	0.000986
694	0.000695
706	0.001987
718	0.00125
730	0.004548
742	0.009654
754	0.003147
766	0.001669
778	0.001592
790	0.002584
802	0.009064
814	0.006989
826	0.001841
838	0.000598
850	0.000626
862	0.002083
874	0.003266
886	0.002445
898	0.000521
910	0.000331
922	0.00038
934	0.00041
946	0.000529
958	0.000327
970	0.000202
982	0.000273
994	0.000687
1006	0.001123
1018	0.000447
1030	0.00065
1042	0.000782
1054	0.000298
1066	0.000195
1078	0.000184
1090	0.000263
1102	0.000261
1114	0.000146
1126	0.000161
1138	0.000288
1150	0.000304
1162	0.000364
1174	0.000353
1186	0.000291
1198	0.000376
1210	0.00028
1222	0.000726
1234	0.001048
1246	0.001429
1258	0.00086
1270	0.00032
1282	0.000239
1294	0.00042
1306	0.000444
1318	0.000281
1330	0.000274
1342	0.000305
1354	0.000267
1366	0.000269
1378	0.000382
1390	0.000469
1402	0.000433
1414	0.000546
1426	0.000758
1438	0.000891
1450	0.001644
1462	0.003736
1474	0.002268
1486	0.002011
1498	0.001954
1510	0.000673
1522	0.000852
1534	0.000993
1546	0.000806
1558	0.000605
1570	0.000451
1582	0.00062
1594	0.000969
1606	0.001446
1618	0.002129
1630	0.001787
1642	0.000746
1654	0.000465
1666	0.000549
1678	0.000538
1690	0.000446
1702	0.000349
1714	0.000324
1726	0.000404
1738	0.000695
1750	0.001007
1762	0.000884
1774	0.000335
1786	0.00024
1798	0.000305
1810	0.000344
1822	0.000481
1834	0.000473
1846	0.000171
1858	0.000131
1870	0.000182
1882	0.000446
1894	0.000625
1906	0.000696
1918	0.000534
1930	0.000448
1942	0.000522
1954	0.000131
1966	6.1e-05
1978	3.4e-05
1990	1.3e-05
2002	2.2e-05
2014	3.1e-05
2026	4e-05
2038	2.3e-05
2050	3.1e-05
2062	5.2e-05
2074	2.8e-05
2086	4.2e-05
2098	4.4e-05
2110	3.4e-05
2122	4e-05
2134	3.1e-05
2146	1.8e-05
2158	4e-05
2170	3.1e-05
2182	2.8e-05
2194	3.8e-05
2206	2.9e-05
2218	1.1e-05
2230	1.5e-05
2242	3.4e-05
2254	1.6e-05
2266	5e-05
2278	6.7e-05
2290	7.3e-05
2302	0.000115
2314	0.000132
2326	0.000106
2338	0.000111
2350	7.5e-05
2362	6.7e-05
2374	8.7e-05
2386	0.000108
2398	0.000103
2410	7.8e-05
2422	8.1e-05
2434	5.7e-05
2446	8.1e-05
2458	7.7e-05
2470	9.1e-05
2482	8.8e-05
2494	7.5e-05
2506	6.8e-05
2518	7.8e-05
2530	6.3e-05
2542	7.3e-05
2554	7.1e-05
2566	8e-05
2578	7.3e-05
2590	6.9e-05
2602	9.6e-05
2614	0.00012
2626	0.000111
2638	7.6e-05
2650	5.9e-05
2662	8.9e-05
2674	8.2e-05
2686	8.5e-05
2698	8.8e-05
2710	8.1e-05
2722	0.000126
2734	0.000198
2746	0.000296
2758	0.000137
2770	0.000133
2782	0.000109
2794	0.000161
2806	0.000213
2818	0.000219
2830	0.000317
2842	0.000543
2854	0.000924
2866	0.001723
2878	0.002308
2890	0.001915
2902	0.001802
2914	0.002422
2926	0.004412
2938	0.004298
2950	0.00211
2962	0.001826
2974	0.001821
2986	0.002068
2998	0.00245
3010	0.003817
3022	0.006485
3034	0.006752
3046	0.007498
3058	0.008615
3070	0.007669
3082	0.005978
3094	0.00329
3106	0.001755
3118	0.00088
3130	0.000538
3142	0.000364
3154	0.000223
3166	0.000214
3178	0.000184
3190	0.000156
3202	0.000161
3214	0.000167
3226	0.000139
3238	0.000123
3250	7.2e-05
3262	6.7e-05
3274	7.7e-05
3286	7.2e-05
3298	7.2e-05
3310	7.2e-05
3322	9.7e-05
3334	6.9e-05
3346	3.5e-05
3358	7.9e-05
3370	7.7e-05
3382	3.2e-05
3394	5.7e-05
3406	7.2e-05
3418	3.9e-05
3430	8.9e-05
3442	6.3e-05
3454	4.9e-05
3466	6.5e-05
3478	1.2e-05
3490	7e-05
3502	5.9e-05
3514	8.8e-05
3526	7.6e-05
3538	5.7e-05
3550	7.9e-05
3562	8.8e-05
3574	9e-05
3586	8.2e-05
3598	7.6e-05
3610	0.000103
3622	6.1e-05
3634	9.6e-05
3646	6.5e-05
3658	3.7e-05
3670	6.9e-05
3682	0.00011
3694	7.3e-05
3706	9.2e-05
3718	0.000103
3730	8.9e-05
3742	8.5e-05
3754	0.000113
3766	0.000159
3778	9.7e-05
3790	0.000131
3802	0.000109
3814	0.000172
3826	0.000133
3838	0.00017
