Infrared Spectrum: Ethyl 2-nitropropionate
Formula: C 5 H 9 N O 4
CAS: 2531-80-8
State: gas
Origin: EPA-IR VAPOR PHASE LIBRARY
1/CM	ABSORBANCE
549.8	0.0014578
559.445	0.00222
569.09	0.00226
578.734	0.00251
588.379	0.00221
598.024	0.0016891
607.669	0.0016507
617.313	0.0016099
626.958	0.0013122
636.603	0.0016914
646.248	0.00223
655.893	0.0015667
665.537	0.00289
675.182	0.0031
684.827	0.00376
694.472	0.00338
704.116	0.00316
713.761	0.00265
723.406	0.0019914
733.051	0.0010391
742.695	0.0013101
752.34	0.0018203
761.985	0.0012418
771.63	0.00229
781.275	0.002048
790.919	0.0017924
800.564	0.000939
810.209	0.0017878
819.854	0.00319
829.498	0.0023
839.143	0.00335
848.788	0.00611
858.433	0.00996
868.078	0.01114
877.722	0.00696
887.367	0.0033
897.012	0.00351
906.657	0.00298
916.301	0.0018248
925.946	0.0018099
935.591	0.0009972
945.236	0.000939
954.88	0.0016452
964.525	0.0018303
974.17	0.0018769
983.815	0.00287
993.46	0.00412
1003.1	0.00542
1012.75	0.00828
1022.39	0.01183
1032.04	0.01575
1041.68	0.01482
1051.33	0.01219
1060.97	0.01027
1070.62	0.01353
1080.26	0.01795
1089.91	0.01897
1099.55	0.01632
1109.2	0.01656
1118.84	0.0173
1128.49	0.01267
1138.13	0.0103
1147.78	0.00851
1157.42	0.01466
1167.07	0.02277
1176.71	0.03335
1186.36	0.04001
1196	0.04326
1205.64	0.03688
1215.29	0.03046
1224.93	0.0262
1234.58	0.0227
1244.22	0.02614
1253.87	0.02938
1263.51	0.02919
1273.16	0.02281
1282.8	0.01694
1292.45	0.01474
1302.09	0.01571
1311.74	0.01927
1321.38	0.02099
1331.03	0.0187
1340.67	0.01692
1350.32	0.01784
1359.96	0.01838
1369.61	0.0164
1379.25	0.01685
1388.9	0.01779
1398.54	0.01565
1408.18	0.00931
1417.83	0.00588
1427.47	0.00556
1437.12	0.00679
1446.76	0.00979
1456.41	0.01158
1466.05	0.01009
1475.7	0.00758
1485.34	0.00525
1494.99	0.00412
1504.63	0.00408
1514.28	0.0053
1523.92	0.00718
1533.57	0.01065
1543.21	0.01595
1552.86	0.02767
1562.5	0.0478
1572.15	0.0664
1581.79	0.06126
1591.44	0.03806
1601.08	0.01919
1610.73	0.01011
1620.37	0.00679
1630.01	0.00451
1639.66	0.0034
1649.3	0.00239
1658.95	0.00241
1668.59	0.00211
1678.24	0.0022
1687.88	0.00211
1697.53	0.0026
1707.17	0.003
1716.82	0.00458
1726.46	0.00646
1736.11	0.01079
1745.75	0.02242
1755.4	0.04516
1765.04	0.0627
1774.69	0.05611
1784.33	0.02947
1793.98	0.01277
1803.62	0.0068
1813.27	0.00436
1822.91	0.00311
1832.55	0.00248
1842.2	0.00213
1851.84	0.0017757
1861.49	0.0015485
1871.13	0.0017145
1880.78	0.0014852
1890.42	0.001322
1900.07	0.0013136
1909.71	0.0012694
1919.36	0.0015062
1929	0.00114782
1938.65	0.0012628
1948.29	0.0013296
1957.94	0.0010384
1967.58	0.000919
1977.23	0.00109619
1986.87	0.0011658
1996.52	0.00105812
2006.16	0.000938
2015.81	0.0010291
2025.45	0.00112089
2035.1	0.00111546
2044.74	0.00105134
2054.38	0.0012497
2064.03	0.00111622
2073.67	0.001175
2083.32	0.0009691
2092.96	0.0012337
2102.61	0.0011627
2112.25	0.00112372
2121.9	0.00112112
2131.54	0.0010132
2141.19	0.00105645
2150.83	0.0010255
2160.48	0.000917
2170.12	0.000926
2179.77	0.0010469
2189.41	0.00110182
2199.06	0.0010367
2208.7	0.0010269
2218.35	0.00096
2227.99	0.0012018
2237.64	0.00113189
2247.28	0.0012358
2256.92	0.0014365
2266.57	0.0010632
2276.21	0.0015724
2285.86	0.0012594
2295.5	0.0012796
2305.15	0.0013844
2314.79	0.0012976
2324.44	0.0013827
2334.08	0.0015186
2343.73	0.001247
2353.37	0.0012858
2363.02	0.0014461
2372.66	0.0012079
2382.31	0.00108958
2391.95	0.0014193
2401.6	0.001319
2411.24	0.000935
2420.89	0.000925
2430.53	0.0013145
2440.18	0.0013629
2449.82	0.0014816
2459.47	0.001203
2469.11	0.001192
2478.75	0.00115182
2488.4	0.00115288
2498.04	0.00112264
2507.69	0.00109217
2517.33	0.0013089
2526.98	0.0011643
2536.62	0.00107977
2546.27	0.0011836
2555.91	0.0012163
2565.56	0.0011713
2575.2	0.0009816
2584.85	0.0009959
2594.49	0.0011978
2604.14	0.0013808
2613.78	0.00113185
2623.43	0.0013528
2633.07	0.0013215
2642.72	0.0012233
2652.36	0.0015926
2662.01	0.0012389
2671.65	0.0010314
2681.29	0.0014932
2690.94	0.00114556
2700.58	0.001277
2710.23	0.0015589
2719.87	0.001505
2729.52	0.0012489
2739.16	0.0012815
2748.81	0.0013031
2758.45	0.00107376
2768.1	0.0011876
2777.74	0.0016022
2787.39	0.0016392
2797.03	0.0019693
2806.68	0.0018546
2816.32	0.0014815
2825.97	0.0014712
2835.61	0.0016016
2845.26	0.0013981
2854.9	0.00211
2864.55	0.00267
2874.19	0.0033
2883.84	0.00348
2893.48	0.00473
2903.12	0.0048
2912.77	0.00546
2922.41	0.00588
2932.06	0.00621
2941.7	0.00815
2951.35	0.00931
2960.99	0.00815
2970.64	0.00842
2980.28	0.01244
2989.93	0.01471
2999.57	0.01355
3009.22	0.01126
3018.86	0.00735
3028.51	0.00436
3038.15	0.00302
3047.8	0.0022
3057.44	0.0016286
3067.09	0.0019077
3076.73	0.0018369
3086.38	0.0017735
3096.02	0.001417
3105.67	0.0016237
3115.31	0.00110388
3124.95	0.0012572
3134.6	0.0014547
3144.24	0.00175
3153.89	0.0012075
3163.53	0.000863
3173.18	0.000933
3182.82	0.000863
3192.47	0.00111584
3202.11	0.0012473
3211.76	0.000721
3221.4	0.000705
3231.05	0.00052
3240.69	0.000828
3250.34	0.00079
3259.98	0.000997
3269.63	0.0011602
3279.27	0.0012195
3288.92	0.001234
3298.56	0.000366
3308.21	0.00107074
3317.85	0.000389
3327.49	0.000633
3337.14	0.00084
3346.78	0.000815
3356.43	0.000772
3366.07	0.000324
3375.72	0.000923
3385.36	0.0009977
3395.01	0.000512
3404.65	0.0012021
3414.3	0.0012331
3423.94	0.0012944
3433.59	0.0011083
3443.23	0.0011249
3452.88	0.000464
3462.52	0.0010432
3472.17	0.000194
3481.81	0.000959
3491.46	0.0014552
3501.1	0.0015552
3510.75	0.00115805
3520.39	0.0016527
3530.04	0.0014446
3539.68	0.00114735
3549.32	0.000865
3558.97	0.000421
3568.61	0.000636
3578.26	0.000729
3587.9	0.0009
3597.55	0.000834
3607.19	0.000809
3616.84	0.000572
3626.48	0.00107441
3636.13	0.00108101
3645.77	0.000571
3655.42	0.000709
3665.06	0.000467
3674.71	0.0013166
3684.35	0.000707
3694	0.000789
3703.64	0.001023
3713.29	0.000809
3722.93	0.000641
3732.58	0.00114756
3742.22	0.0013043
3751.86	0.000817
3761.51	0.000846
3771.15	0.0010364
3780.8	0.000805
3790.44	0.00105023
3800.09	0.001304
3809.73	0.000724
3819.38	0.000831
3829.02	0.000786
3838.67	0.000616
3848.31	0.0014288
3857.96	0.000903
3867.6	0.000827
3877.25	0.000485
3886.89	0.0010315
3896.54	0.000775
3906.18	0.000798
3915.83	0.000804
3925.47	0.001438
3935.12	0.0013149
3944.76	0.000561
3954.41	0.000622
3964.05	0.0009976
3973.69	0.000811
3983.34	0.000342
3992.98	0.0017125
