Infrared Spectrum: 1.alpha.,2.beta.,3.alpha.,4.beta.-Tetramethylcyclope
Formula: C 9 H 18
CAS: 2532-67-4
State: gas
Instrument: HP-GC/MS/IRD
Origin: NIST Mass Spectrometry Data Center
1/CM	ABSORBANCE
550	0.0002409
562	0.0003333
574	1.65e-05
586	0.0001749
598	0.0003762
610	0.0003993
622	0.0002277
634	0.0002145
646	0.0002838
658	0.0003894
670	0.0002607
682	0.0003102
694	0.0002937
706	0.0002673
718	0.000231
730	0.0003003
742	0.0003102
754	0.0003201
766	0.00033
778	0.0003168
790	0.0003102
802	0.0002838
814	0.0002145
826	5.61e-05
838	0.0003828
850	0.0002871
862	0.0003366
874	0.0003135
886	0.0002574
898	0.0003168
910	0.0003564
922	0.0004026
934	0.0003069
946	0.0003993
958	0.0005181
970	0.0005544
982	0.0006171
994	0.0007656
1006	0.0007425
1018	0.00066
1030	0.0005115
1042	0.0003861
1054	0.0003663
1066	0.0002937
1078	0.0002277
1090	0.0002574
1102	0.0001683
1114	0.0002178
1126	0.000231
1138	0.00033
1150	0.0003597
1162	0.0005148
1174	0.000429
1186	0.0003663
1198	0.00033
1210	0.0002607
1222	0.0003135
1234	0.0004026
1246	0.0004356
1258	0.0004851
1270	0.000561
1282	0.000693
1294	0.0006864
1306	0.0006666
1318	0.0006765
1330	0.0006072
1342	0.0008118
1354	0.0012474
1366	0.0020625
1378	0.0030756
1390	0.0020196
1402	0.0007755
1414	0.0006369
1426	0.0008052
1438	0.0015114
1450	0.0031383
1462	0.0040029
1474	0.0026136
1486	0.001155
1498	0.0005709
1510	0.0003894
1522	0.0003168
1534	0.0002904
1546	0.0002739
1558	0.0002475
1570	0.0002508
1582	0.0002211
1594	0.0002376
1606	0.0002541
1618	0.000264
1630	0.0002904
1642	0.0002673
1654	0.0003201
1666	0.0002574
1678	0.0002937
1690	0.0001947
1702	0.0002013
1714	0.0001683
1726	0.0001485
1738	0.0001815
1750	0.000165
1762	0.0001452
1774	0.0001617
1786	0.000132
1798	0.0001353
1810	0.0001056
1822	0.0001122
1834	0.0001485
1846	0.0001155
1858	9.57e-05
1870	9.9e-05
1882	8.58e-05
1894	8.91e-05
1906	9.24e-05
1918	0.0001122
1930	6.93e-05
1942	8.91e-05
1954	6.6e-05
1966	9.57e-05
1978	5.28e-05
1990	5.94e-05
2002	5.94e-05
2014	6.27e-05
2026	4.62e-05
2038	3.96e-05
2050	6.27e-05
2062	5.28e-05
2074	4.62e-05
2086	6.27e-05
2098	3.63e-05
2110	6.27e-05
2122	2.64e-05
2134	4.62e-05
2146	4.29e-05
2158	5.28e-05
2170	5.28e-05
2182	6.6e-05
2194	2.97e-05
2206	6.27e-05
2218	6.6e-06
2230	2.97e-05
2242	2.31e-05
2254	5.94e-05
2266	5.28e-05
2278	4.29e-05
2290	3.3e-05
2302	6.27e-05
2314	9.9e-05
2326	8.25e-05
2338	0.0001122
2350	0.0001155
2362	0.0001353
2374	0.0001023
2386	9.24e-05
2398	0.0001089
2410	0.0001188
2422	0.0001353
2434	0.0001386
2446	0.0001254
2458	0.0001122
2470	9.24e-05
2482	0.0001089
2494	9.9e-05
2506	0.0001386
2518	0.0001485
2530	0.0001749
2542	0.0001254
2554	0.0001848
2566	0.0001848
2578	0.0002046
2590	0.0002211
2602	0.0002739
2614	0.0002706
2626	0.0003003
2638	0.0002574
2650	0.0002112
2662	0.0002772
2674	0.000231
2686	0.0002607
2698	0.0003234
2710	0.0004125
2722	0.0005808
2734	0.0006831
2746	0.0005874
2758	0.000462
2770	0.0004686
2782	0.0004917
2794	0.0006105
2806	0.0008448
2818	0.0012111
2830	0.0016368
2842	0.0024651
2854	0.0048114
2866	0.0112134
2878	0.0162096
2890	0.0135168
2902	0.0106095
2914	0.0124509
2926	0.0165099
2938	0.0183645
2950	0.0251922
2962	0.0311718
2974	0.0145959
2986	0.003333
2998	0.0015279
3010	0.0009801
3022	0.0007392
3034	0.0006567
3046	0.0006765
3058	0.0006171
3070	0.0006204
3082	0.0006105
3094	0.0005643
3106	0.0004851
3118	0.0004653
3130	0.0004389
3142	0.0004422
3154	0.0004719
3166	0.0004851
3178	0.0004356
3190	0.0003069
3202	0.0003267
3214	0.0002871
3226	0.0001518
3238	0.0001254
3250	0.0001155
3262	0.0001122
3274	6.93e-05
3286	4.95e-05
3298	7.26e-05
3310	4.95e-05
3322	0.0001056
3334	8.25e-05
3346	6.6e-05
3358	9.9e-05
3370	0.0001089
3382	5.28e-05
3394	7.92e-05
3406	0.0001056
3418	3.96e-05
3430	0
3442	4.95e-05
3454	6.6e-05
3466	5.94e-05
3478	6.93e-05
3490	5.61e-05
3502	9.57e-05
3514	3.3e-06
3526	7.59e-05
3538	8.58e-05
3550	4.29e-05
3562	8.58e-05
3574	3.63e-05
3586	0.0001155
3598	3.96e-05
3610	7.92e-05
3622	5.94e-05
3634	8.91e-05
3646	0.0001221
3658	0.0001089
3670	6.93e-05
3682	7.59e-05
3694	0.0001188
3706	0.0001023
3718	7.26e-05
3730	3.3e-05
3742	0.0001287
3754	9.24e-05
3766	4.29e-05
3778	4.29e-05
3790	0.0001254
3802	0.0001188
3814	0.0001122
3826	8.91e-05
3838	0.0001155
