Infrared Spectrum: cis-1,3-Dimethylcyclopentane
Formula: C 7 H 14
CAS: 2532-58-3
State: gas
Instrument: HP-GC/MS/IRD
Origin: NIST Mass Spectrometry Data Center
1/CM	ABSORBANCE
550	0.000348
562	0.000246
574	0.000222
586	0.000144
598	0.000138
610	0.000162
622	0.000132
634	0.000156
646	0.000174
658	6.6e-05
670	0.00012
682	4.2e-05
694	6e-06
706	5.4e-05
718	8.4e-05
730	8.4e-05
742	7.8e-05
754	5.4e-05
766	0.000126
778	0.000108
790	0.000126
802	0.00012
814	0.000114
826	0.00015
838	0.000126
850	0.000162
862	0.000162
874	0.00015
886	0.00012
898	0.000102
910	0.000102
922	0.00012
934	0.000138
946	0.00018
958	0.00024
970	0.000348
982	0.000372
994	0.000402
1006	0.000384
1018	0.000264
1030	0.000192
1042	0.00015
1054	0.000168
1066	0.00018
1078	0.000162
1090	0.000174
1102	0.000174
1114	0.000276
1126	0.000348
1138	0.0006
1150	0.000588
1162	0.000426
1174	0.00027
1186	0.000282
1198	0.000288
1210	0.0003
1222	0.000342
1234	0.000306
1246	0.000336
1258	0.000342
1270	0.000318
1282	0.00039
1294	0.000432
1306	0.000516
1318	0.000678
1330	0.000984
1342	0.001674
1354	0.001914
1366	0.002064
1378	0.002472
1390	0.00207
1402	0.00111
1414	0.000876
1426	0.001236
1438	0.002394
1450	0.0039
1462	0.004632
1474	0.003612
1486	0.002052
1498	0.000978
1510	0.000456
1522	0.000282
1534	0.00021
1546	0.00015
1558	0.000156
1570	0.000126
1582	0.000174
1594	0.000132
1606	0.00015
1618	0.000156
1630	0.00015
1642	0.000156
1654	0.000144
1666	0.000162
1678	0.000156
1690	0.000156
1702	0.000156
1714	0.000102
1726	7.8e-05
1738	9.6e-05
1750	9e-05
1762	4.8e-05
1774	6e-05
1786	7.8e-05
1798	6.6e-05
1810	6e-05
1822	6e-05
1834	4.8e-05
1846	5.4e-05
1858	4.8e-05
1870	3.6e-05
1882	4.8e-05
1894	5.4e-05
1906	3.6e-05
1918	1.2e-05
1930	1.2e-05
1942	4.2e-05
1954	2.4e-05
1966	2.4e-05
1978	4.2e-05
1990	2.4e-05
2002	1.8e-05
2014	3.6e-05
2026	6e-06
2038	1.8e-05
2050	2.4e-05
2062	2.4e-05
2074	4.2e-05
2086	5.4e-05
2098	3.6e-05
2110	5.4e-05
2122	2.4e-05
2134	1.8e-05
2146	0
2158	3e-05
2170	2.4e-05
2182	3e-05
2194	6e-05
2206	5.4e-05
2218	5.4e-05
2230	4.2e-05
2242	6.6e-05
2254	4.2e-05
2266	4.8e-05
2278	3.6e-05
2290	6e-05
2302	4.2e-05
2314	3.6e-05
2326	5.4e-05
2338	8.4e-05
2350	7.8e-05
2362	7.8e-05
2374	3e-05
2386	4.2e-05
2398	3e-05
2410	0
2422	4.2e-05
2434	8.4e-05
2446	7.2e-05
2458	6e-05
2470	3e-05
2482	4.2e-05
2494	3e-05
2506	6.6e-05
2518	4.2e-05
2530	7.2e-05
2542	9.6e-05
2554	0.000138
2566	0.00015
2578	0.000186
2590	0.000228
2602	0.000246
2614	0.000252
2626	0.000252
2638	0.00021
2650	0.000234
2662	0.000246
2674	0.000288
2686	0.000336
2698	0.000378
2710	0.00045
2722	0.000594
2734	0.000774
2746	0.00078
2758	0.000672
2770	0.00066
2782	0.000774
2794	0.000978
2806	0.00141
2818	0.002088
2830	0.003294
2842	0.005688
2854	0.010032
2866	0.017802
2878	0.02166
2890	0.020502
2902	0.019596
2914	0.024216
2926	0.031746
2938	0.043896
2950	0.058314
2962	0.054744
2974	0.030834
2986	0.010698
2998	0.004002
3010	0.002202
3022	0.001464
3034	0.001056
3046	0.000924
3058	0.000846
3070	0.000738
3082	0.000696
3094	0.0006
3106	0.00057
3118	0.00051
3130	0.000492
3142	0.000456
3154	0.000468
3166	0.000462
3178	0.000504
3190	0.00045
3202	0.000318
3214	0.000216
3226	0.000162
3238	0.000132
3250	5.4e-05
3262	9.6e-05
3274	0.000138
3286	0.000102
3298	0.00012
3310	9e-05
3322	0.000132
3334	0.000138
3346	0.000156
3358	0.000126
3370	0.00012
3382	0.000138
3394	8.4e-05
3406	4.8e-05
3418	1.2e-05
3430	0
3442	1.2e-05
3454	6e-06
3466	1.8e-05
3478	6.6e-05
3490	1.2e-05
3502	1.8e-05
3514	1.2e-05
3526	5.4e-05
3538	2.4e-05
3550	6e-05
3562	4.2e-05
3574	1.2e-05
3586	5.4e-05
3598	3e-05
3610	5.4e-05
3622	6e-06
3634	1.8e-05
3646	6.6e-05
3658	6e-05
3670	3e-05
3682	3.6e-05
3694	7.2e-05
3706	7.2e-05
3718	9e-05
3730	0.000108
3742	9e-05
3754	9e-05
3766	0.00015
3778	0.000138
3790	0.00015
3802	0.000162
3814	0.000132
3826	9.6e-05
3838	0.000138
