Infrared Spectrum: 1,2,3,4,5-PENTACHLOROCYCLO PENTADIENE
Formula: C5 H Cl5
CAS: 25329-35-5
Class: COBLENTZ
Instrument: Not specified, most likely a prism, grating, or hybrid spectrometer.
Sampling: TRANSMISSION
Path length: 0.0025 CM
Resolution: 4
Origin: WYANDOTTE CHEMICALS CORP., WYANDOTTE, MICHIGAN, USA
MICROMETERS	TRANSMITTANCE
2.02	0.966
2.05973	0.966
2.09947	0.965
2.1392	0.965
2.17894	0.957
2.21867	0.966
2.25841	0.968
2.29814	0.965
2.33788	0.957
2.37761	0.952
2.41734	0.955
2.45708	0.961
2.49681	0.961
2.53655	0.961
2.57628	0.961
2.61602	0.955
2.65575	0.963
2.69549	0.95
2.73522	0.95
2.77495	0.945
2.81469	0.943
2.85442	0.947
2.89416	0.947
2.93389	0.945
2.97363	0.938
3.01336	0.938
3.0531	0.937
3.09283	0.942
3.13257	0.943
3.1723	0.943
3.21203	0.942
3.25177	0.94
3.2915	0.932
3.33124	0.894
3.37097	0.803
3.41071	0.631
3.45044	0.871
3.49018	0.917
3.52991	0.93
3.56964	0.94
3.60938	0.938
3.64911	0.947
3.68885	0.95
3.72858	0.953
3.76832	0.955
3.80805	0.955
3.84779	0.957
3.88752	0.96
3.92725	0.955
3.96699	0.945
4.00672	0.948
4.04646	0.95
4.08619	0.938
4.12593	0.935
4.16566	0.948
4.2054	0.953
4.24513	0.961
4.28486	0.95
4.3246	0.945
4.36433	0.945
4.40407	0.95
4.4438	0.955
4.48354	0.958
4.52327	0.955
4.56301	0.952
4.60274	0.948
4.64248	0.952
4.68221	0.96
4.72194	0.965
4.76168	0.973
4.80141	0.975
4.84115	0.97
4.88088	0.971
4.92062	0.978
4.96035	0.98
5.00009	0.976
5.03982	0.973
5.07955	0.961
5.11929	0.95
5.15902	0.957
5.19876	0.95
5.23849	0.942
5.27823	0.947
5.31796	0.95
5.3577	0.95
5.39743	0.947
5.43716	0.95
5.4769	0.952
5.51663	0.94
5.55637	0.919
5.5961	0.905
5.63584	0.922
5.67557	0.9
5.71531	0.879
5.75504	0.895
5.79477	0.919
5.83451	0.91
5.87424	0.904
5.91398	0.91
5.95371	0.9
5.99345	0.884
6.03318	0.864
6.07292	0.816
6.11265	0.715
6.15239	0.442
6.19212	0.044
6.23185	0.104
6.27159	0.502
6.31132	0.461
6.35106	0.515
6.39079	0.71
6.43053	0.806
6.47026	0.844
6.51	0.889
6.54973	0.895
6.58946	0.895
6.6292	0.895
6.66893	0.902
6.70867	0.912
6.7484	0.899
6.78814	0.889
6.82787	0.867
6.86761	0.869
6.90734	0.862
6.94707	0.867
6.98681	0.862
7.02654	0.846
7.06628	0.862
7.10601	0.862
7.14575	0.864
7.18548	0.866
7.22522	0.869
7.26495	0.872
7.30468	0.872
7.34442	0.879
7.38415	0.879
7.42389	0.877
7.46362	0.862
7.50336	0.831
7.54309	0.823
7.58283	0.819
7.62256	0.798
7.6623	0.79
7.70203	0.773
7.74176	0.78
7.7815	0.761
7.82123	0.677
7.86097	0.642
7.9007	0.561
7.94044	0.5
7.98017	0.401
8.01991	0.171
8.05964	0.046
8.09937	0.042
8.13911	0.069
8.17884	0.231
8.21858	0.376
8.25831	0.418
8.29805	0.449
8.33778	0.272
8.37752	0.046
8.41725	0.054
8.45698	0.279
8.49672	0.58
8.53645	0.656
8.57619	0.642
8.61592	0.661
8.65566	0.68
8.69539	0.626
8.73513	0.239
8.77486	0.163
8.81459	0.388
8.85433	0.337
8.89406	0.36
8.9338	0.583
8.97353	0.449
9.01327	0.591
9.053	0.719
9.09274	0.704
9.13247	0.72
9.17221	0.753
9.21194	0.766
9.25167	0.761
9.29141	0.757
9.33114	0.76
9.37088	0.765
9.41061	0.768
9.45035	0.783
9.49008	0.781
9.52982	0.773
9.56955	0.722
9.60928	0.735
9.64902	0.778
9.68875	0.783
9.72849	0.757
9.76822	0.742
9.80796	0.77
9.84769	0.776
9.88743	0.765
9.92716	0.77
9.96689	0.773
10.0066	0.723
10.0464	0.704
10.0861	0.709
10.1258	0.687
10.1656	0.636
10.2053	0.59
10.245	0.431
10.2848	0.266
10.3245	0.325
10.3642	0.37
10.404	0.413
10.4437	0.497
10.4834	0.565
10.5232	0.6
10.5629	0.606
10.6026	0.56
10.6424	0.436
10.6821	0.191
10.7218	0.219
10.7616	0.449
10.8013	0.638
10.8411	0.725
10.8808	0.76
10.9205	0.801
10.9603	0.821
11	0.821
11.0397	0.818
11.0795	0.831
11.1192	0.833
11.1589	0.839
11.1987	0.829
11.2384	0.809
11.2781	0.796
11.3179	0.781
11.3576	0.771
11.3973	0.768
11.4371	0.761
11.4768	0.775
11.5165	0.8
11.5563	0.808
11.596	0.798
11.6357	0.76
11.6755	0.676
11.7152	0.613
11.7549	0.609
11.7947	0.661
11.8344	0.704
11.8741	0.712
11.9139	0.727
11.9536	0.748
11.9934	0.768
12.0331	0.771
12.0728	0.766
12.1126	0.743
12.1523	0.71
12.192	0.679
12.2318	0.659
12.2715	0.624
12.3112	0.494
12.351	0.223
12.3907	0.074
12.4304	0.054
12.4702	0.054
12.5099	0.077
12.5496	0.152
12.5894	0.294
12.6291	0.419
12.6688	0.492
12.7086	0.477
12.7483	0.398
12.788	0.347
12.8278	0.365
12.8675	0.403
12.9072	0.416
12.947	0.309
12.9867	0.161
13.0264	0.062
13.0662	0.056
13.1059	0.057
13.1457	0.062
13.1854	0.125
13.2251	0.271
13.2649	0.449
13.3046	0.548
13.3443	0.6
13.3841	0.619
13.4238	0.636
13.4635	0.672
13.5033	0.692
13.543	0.709
13.5827	0.709
13.6225	0.7
13.6622	0.689
13.7019	0.672
13.7417	0.644
13.7814	0.614
13.8211	0.59
13.8609	0.568
13.9006	0.573
13.9403	0.558
13.9801	0.505
14.0198	0.433
14.0595	0.345
14.0993	0.249
14.139	0.2
14.1787	0.208
14.2185	0.254
14.2582	0.305
14.298	0.333
14.3377	0.305
14.3774	0.238
14.4172	0.17
14.4569	0.145
14.4966	0.138
14.5364	0.15
14.5761	0.176
14.6158	0.211
14.6556	0.226
14.6953	0.229
14.735	0.219
14.7748	0.229
14.8145	0.267
14.8542	0.33
14.894	0.403
14.9337	0.476
14.9734	0.522
15.0132	0.537
15.0529	0.552
15.0926	0.566
15.1324	0.566
15.1721	0.547
15.2118	0.543
15.2516	0.538
15.2913	0.535
15.331	0.523
15.3708	0.519
15.4105	0.523
15.4503	0.535
15.49	0.535
15.5297	0.535
15.5695	0.53
15.6092	0.525
15.6489	0.505
15.6887	0.484
15.7284	0.464
15.7681	0.428
15.8079	0.419
15.8476	0.413
15.8873	0.419
15.9271	0.433
15.9668	0.447
