Infrared Spectrum: Di-isopropylbenzene
Formula: C 12 H 18
CAS: 25321-09-9
State: gas
Instrument: HP-GC/MS/IRD
Origin: NIST Mass Spectrometry Data Center
1/CM	ABSORBANCE
550	0.0015555
562	0.0032844
574	0.0040188
586	0.002448
598	0.0009027
610	0.0004692
622	0.0003009
634	0.0002346
646	0.0001428
658	2.55e-05
670	0.0002958
682	0.000357
694	0.0001887
706	0.0001428
718	0.0001224
730	0.0001275
742	0.0001326
754	0.0001428
766	0.0001734
778	0.0003111
790	0.0005661
802	0.0011424
814	0.0032028
826	0.0071196
838	0.0047379
850	0.0012495
862	0.0005712
874	0.0004029
886	0.0004794
898	0.0002958
910	0.0002805
922	0.0003978
934	0.0003621
946	0.0002091
958	0.0001836
970	0.0002142
982	0.0003519
994	0.0004896
1006	0.001479
1018	0.0026673
1030	0.0010098
1042	0.0014025
1054	0.0025449
1066	0.0035394
1078	0.0025398
1090	0.0014382
1102	0.0018615
1114	0.0017289
1126	0.001071
1138	0.001224
1150	0.001173
1162	0.0003927
1174	0.0002091
1186	0.000204
1198	0.0002499
1210	0.0004335
1222	0.0003927
1234	0.0004437
1246	0.0003774
1258	0.0006732
1270	0.0012546
1282	0.0013821
1294	0.0024429
1306	0.0022899
1318	0.0022134
1330	0.002091
1342	0.0020247
1354	0.0025602
1366	0.0031416
1378	0.0034374
1390	0.0035598
1402	0.0026316
1414	0.0024837
1426	0.002346
1438	0.0021624
1450	0.003213
1462	0.004794
1474	0.0042228
1486	0.0028254
1498	0.0039066
1510	0.0058752
1522	0.0039882
1534	0.0011169
1546	0.0004794
1558	0.0003315
1570	0.0003162
1582	0.0002397
1594	0.0001938
1606	0.0002346
1618	0.0002499
1630	0.0002754
1642	0.0004998
1654	0.0006579
1666	0.0004386
1678	0.0002499
1690	0.0001785
1702	0.0001326
1714	9.69e-05
1726	7.65e-05
1738	0.0001122
1750	0.0001989
1762	0.0003519
1774	0.0005049
1786	0.000408
1798	0.0001326
1810	9.18e-05
1822	8.67e-05
1834	0.0001122
1846	0.0001326
1858	0.0001377
1870	0.0002805
1882	0.0004896
1894	0.0006375
1906	0.0004233
1918	0.0001836
1930	0.0001275
1942	8.16e-05
1954	6.63e-05
1966	5.1e-05
1978	5.1e-05
1990	2.55e-05
2002	4.08e-05
2014	5.1e-05
2026	6.12e-05
2038	2.55e-05
2050	3.06e-05
2062	3.06e-05
2074	2.04e-05
2086	4.08e-05
2098	3.06e-05
2110	1.02e-05
2122	3.57e-05
2134	0
2146	1.53e-05
2158	1.02e-05
2170	3.57e-05
2182	4.59e-05
2194	6.12e-05
2206	3.57e-05
2218	4.08e-05
2230	6.63e-05
2242	0.0001071
2254	0.0001428
2266	0.0001683
2278	0.0001479
2290	0.0001275
2302	9.18e-05
2314	9.69e-05
2326	9.18e-05
2338	0.0001275
2350	0.0001224
2362	0.0001173
2374	0.0001224
2386	0.0001428
2398	0.0001275
2410	0.0001122
2422	9.69e-05
2434	7.14e-05
2446	0.0001122
2458	0.0001581
2470	0.0001581
2482	0.0001479
2494	0.0001581
2506	0.0001377
2518	0.0001377
2530	0.000153
2542	0.0001479
2554	0.0001938
2566	0.0002193
2578	0.0003009
2590	0.0004335
2602	0.0003774
2614	0.0003111
2626	0.0002499
2638	0.0002193
2650	0.0002448
2662	0.0002397
2674	0.0003315
2686	0.0002958
2698	0.0003264
2710	0.0004284
2722	0.0005865
2734	0.000663
2746	0.0005763
2758	0.0006426
2770	0.0006375
2782	0.0005865
2794	0.0007854
2806	0.0009894
2818	0.0012087
2830	0.0013668
2842	0.0018411
2854	0.0031263
2866	0.0063801
2878	0.0124593
2890	0.0131223
2902	0.0128418
2914	0.0127347
2926	0.0137037
2938	0.0181152
2950	0.0201501
2962	0.0434214
2974	0.0426717
2986	0.0145248
2998	0.0072573
3010	0.0062475
3022	0.0075837
3034	0.0055233
3046	0.0043401
3058	0.0039474
3070	0.0032079
3082	0.0028407
3094	0.0023919
3106	0.0017085
3118	0.0013107
3130	0.0011271
3142	0.0008262
3154	0.000663
3166	0.0006171
3178	0.0006885
3190	0.0006426
3202	0.0005967
3214	0.0005253
3226	0.0004539
3238	0.0003111
3250	0.0002499
3262	0.0001989
3274	0.0001836
3286	0.0001632
3298	0.0001581
3310	0.0001989
3322	0.0001785
3334	0.0001173
3346	0.0001224
3358	0.0001224
3370	0.0001173
3382	0.0001479
3394	0.000102
3406	0.0001734
3418	0.0001326
3430	0.0001581
3442	0.0001275
3454	7.14e-05
3466	0.000102
3478	0.000102
3490	9.18e-05
3502	8.16e-05
3514	9.18e-05
3526	7.65e-05
3538	0.0001071
3550	5.1e-05
3562	4.08e-05
3574	6.63e-05
3586	3.06e-05
3598	7.14e-05
3610	0.0001479
3622	0.0001428
3634	5.1e-05
3646	9.18e-05
3658	0.0001275
3670	0.0001122
3682	0.0001071
3694	7.14e-05
3706	8.16e-05
3718	0.0001122
3730	0.0001326
3742	0.0001122
3754	0.000153
3766	0.0001377
3778	0.0001275
3790	0.0001581
3802	0.000204
3814	0.000153
3826	0.0001479
3838	0.0002193
