Infrared Spectrum: PROPIONIC ACID, Beta-BENZOYL-, METHYL ESTER
Formula: C11 H12 O3
CAS: 25333-24-8
State: LIQUID (NEAT)
Class: COBLENTZ III
Instrument: PERKIN-ELMER 21 (GRATING)
Instrument parameters: FILTER AT ABOUT 10 MICRONS
Sampling: TRANSMISSION
Path length: CAPILLARY
Resolution: 2
1/CM	TRANSMITTANCE
4000	0.856
3991	0.8563
3982	0.8567
3973	0.8571
3964	0.8575
3955	0.8578
3946	0.8583
3937	0.8588
3928	0.8591
3919	0.8595
3910	0.8599
3901	0.8603
3892	0.8607
3883	0.8609
3874	0.861
3865	0.8611
3856	0.8612
3847	0.8612
3838	0.8613
3829	0.8614
3820	0.8613
3811	0.8612
3802	0.861
3793	0.8608
3784	0.8607
3775	0.8606
3766	0.8606
3757	0.8607
3748	0.8608
3739	0.8608
3730	0.861
3721	0.8617
3712	0.8623
3703	0.863
3694	0.8631
3685	0.8628
3676	0.8625
3667	0.8624
3658	0.8611
3649	0.8597
3640	0.8582
3631	0.8571
3622	0.8571
3613	0.8571
3604	0.8574
3595	0.8575
3586	0.8577
3577	0.8578
3568	0.8581
3559	0.8584
3550	0.8586
3541	0.8585
3532	0.8585
3523	0.8584
3514	0.8582
3505	0.8575
3496	0.8551
3487	0.8531
3478	0.8512
3469	0.8495
3460	0.8496
3451	0.8502
3442	0.8518
3433	0.8534
3424	0.8548
3415	0.8561
3406	0.8573
3397	0.8577
3388	0.8571
3379	0.8548
3370	0.8518
3361	0.8501
3352	0.8516
3343	0.8534
3334	0.8554
3325	0.8575
3316	0.8595
3307	0.8603
3298	0.8611
3289	0.8618
3280	0.8621
3271	0.862
3262	0.8618
3253	0.8616
3244	0.8612
3235	0.8609
3226	0.86
3217	0.8587
3208	0.8571
3199	0.8552
3190	0.8531
3181	0.851
3172	0.8495
3163	0.8487
3154	0.8484
3145	0.8485
3136	0.8481
3127	0.8464
3118	0.8423
3109	0.8363
3100	0.8275
3091	0.8168
3082	0.8028
3073	0.7887
3064	0.785
3055	0.7851
3046	0.7851
3037	0.7825
3028	0.7798
3019	0.7769
3010	0.7747
3001	0.7744
2992	0.7742
2983	0.7733
2974	0.7676
2965	0.7344
2956	0.7139
2947	0.7165
2938	0.7358
2929	0.7487
2920	0.7618
2911	0.7781
2902	0.8025
2893	0.8175
2884	0.8243
2875	0.828
2866	0.8304
2857	0.8334
2848	0.8364
2839	0.8395
2830	0.8424
2821	0.8449
2812	0.8474
2803	0.8496
2794	0.8515
2785	0.8534
2776	0.8552
2767	0.8566
2758	0.8581
2749	0.8594
2740	0.8601
2731	0.8607
2722	0.8606
2713	0.86
2704	0.8584
2695	0.8545
2686	0.8534
2677	0.854
2668	0.855
2659	0.8563
2650	0.8577
2641	0.8585
2632	0.8589
2623	0.8593
2614	0.8587
2605	0.8568
2596	0.8552
2587	0.8544
2578	0.8555
2569	0.8568
2560	0.8583
2551	0.8589
2542	0.8591
2533	0.8592
2524	0.8589
2515	0.8586
2506	0.8583
2497	0.8575
2488	0.857
2479	0.8583
2470	0.8587
2461	0.8585
2452	0.8581
2443	0.8577
2434	0.858
2425	0.858
2416	0.8567
2407	0.856
2398	0.8557
2389	0.857
2380	0.8611
2371	0.8652
2362	0.8671
2353	0.8636
2344	0.8604
2335	0.858
2326	0.8566
2317	0.8561
2308	0.8594
2299	0.8624
2290	0.8625
2281	0.8609
2272	0.8607
2263	0.8607
2254	0.8606
2245	0.8606
2236	0.8607
2227	0.8605
2218	0.86
2209	0.8607
2200	0.8618
2191	0.862
2182	0.8607
2173	0.8603
2164	0.8618
2155	0.8631
2146	0.8633
2137	0.8632
2128	0.8632
2119	0.863
2110	0.8625
2101	0.8616
2092	0.8605
2083	0.8597
2074	0.8586
2065	0.8565
2056	0.8563
2047	0.8574
2038	0.8593
2029	0.8573
2020	0.8536
2011	0.8503
2002	0.8468
1993	0.8441
1984	0.8421
1975	0.8423
1966	0.8468
1957	0.8518
1948	0.8528
1939	0.8518
1930	0.8501
1921	0.8493
1912	0.8488
1903	0.8487
1894	0.8507
1885	0.8531
1876	0.855
1867	0.8568
1858	0.8557
1849	0.8513
1840	0.8445
1831	0.8343
1822	0.8185
1813	0.758
1804	0.7501
1795	0.7718
1786	0.784
1777	0.7808
1768	0.7548
1759	0.6037
1750	0.3226
1741	0.1442
1732	0.2756
1723	0.5121
1714	0.6634
1705	0.5429
1696	0.2441
1687	0.1968
1678	0.526
1669	0.7475
1660	0.7711
1651	0.7815
1642	0.8011
1633	0.8144
1624	0.8151
1615	0.8057
1606	0.7701
1597	0.671
1588	0.745
1579	0.7421
1570	0.8192
1561	0.8374
1552	0.8344
1543	0.8437
1534	0.8344
1525	0.8352
1516	0.8356
1507	0.8373
1498	0.8231
1489	0.8168
1480	0.8149
1471	0.7751
1462	0.7298
1453	0.5377
1444	0.5293
1435	0.5392
1426	0.6604
1417	0.6359
1408	0.6064
1399	0.6672
1390	0.7154
1381	0.693
1372	0.5344
1363	0.4541
1354	0.4456
1345	0.6272
1336	0.606
1327	0.5364
1318	0.5972
1309	0.6107
1300	0.6322
1291	0.6538
1282	0.6532
1273	0.5906
1264	0.5498
1255	0.5312
1246	0.4854
1237	0.473
1228	0.3591
1219	0.2396
1210	0.3626
1201	0.4385
1192	0.4678
1183	0.4572
1174	0.3558
1165	0.3184
1156	0.4028
1147	0.5474
1138	0.681
1129	0.7596
1120	0.7864
1111	0.7783
1102	0.7808
1093	0.8018
1084	0.7715
1075	0.743
1066	0.7328
1057	0.7786
1048	0.8122
1039	0.7934
1030	0.7361
1021	0.7293
1012	0.7687
1003	0.5888
994	0.6583
985	0.6746
976	0.6983
967	0.7241
958	0.7621
949	0.6697
940	0.7575
931	0.8119
922	0.8256
913	0.8353
904	0.813
895	0.8228
886	0.8401
877	0.8528
868	0.8497
859	0.8378
850	0.7326
841	0.7832
832	0.8364
823	0.8383
814	0.8351
805	0.8427
796	0.8358
787	0.8197
778	0.7961
769	0.675
760	0.5328
751	0.5048
742	0.674
733	0.7732
724	0.7914
715	0.7788
706	0.7381
697	0.5815
688	0.458
679	0.6846
670	0.6889
661	0.6754
