Infrared Spectrum: BENZALDEHYDE, p-METHOXYTHIO-
Formula: C8 H8 O S
CAS: 25332-53-0
State: SOLID (1 mg / 200 mg KBr DISC) VS KBr
Class: COBLENTZ III
Instrument: PERKIN-ELMER 21 (GRATING)
Instrument parameters: FILTER AT ABOUT 10 MICRONS
Sampling: TRANSMISSION
Path length: 0.054 CM
Resolution: 2
1/CM	TRANSMITTANCE
4000	0.7331
3991	0.7335
3982	0.734
3973	0.7344
3964	0.7349
3955	0.7353
3946	0.7357
3937	0.7362
3928	0.7368
3919	0.7376
3910	0.7386
3901	0.7397
3892	0.7407
3883	0.7417
3874	0.743
3865	0.7445
3856	0.7458
3847	0.7471
3838	0.7483
3829	0.7487
3820	0.7489
3811	0.7489
3802	0.7488
3793	0.7488
3784	0.7492
3775	0.7495
3766	0.7499
3757	0.7503
3748	0.7508
3739	0.7512
3730	0.7518
3721	0.7525
3712	0.753
3703	0.7536
3694	0.7542
3685	0.7547
3676	0.7553
3667	0.7558
3658	0.7562
3649	0.7568
3640	0.7571
3631	0.7575
3622	0.7578
3613	0.7583
3604	0.7587
3595	0.7591
3586	0.7595
3577	0.7598
3568	0.7603
3559	0.7604
3550	0.7601
3541	0.7598
3532	0.7596
3523	0.7593
3514	0.759
3505	0.7587
3496	0.7583
3487	0.7581
3478	0.758
3469	0.7578
3460	0.7578
3451	0.7576
3442	0.7575
3433	0.7578
3424	0.7581
3415	0.7584
3406	0.7586
3397	0.7591
3388	0.7597
3379	0.7604
3370	0.7621
3361	0.7642
3352	0.7675
3343	0.7708
3334	0.7751
3325	0.7789
3316	0.7826
3307	0.786
3298	0.7889
3289	0.7915
3280	0.7934
3271	0.7951
3262	0.7965
3253	0.7968
3244	0.7971
3235	0.7969
3226	0.7967
3217	0.7968
3208	0.7968
3199	0.7974
3190	0.798
3181	0.7986
3172	0.7993
3163	0.7998
3154	0.8003
3145	0.8007
3136	0.801
3127	0.8011
3118	0.8015
3109	0.8018
3100	0.801
3091	0.7975
3082	0.7933
3073	0.7875
3064	0.7824
3055	0.7812
3046	0.7804
3037	0.7744
3028	0.7682
3019	0.7571
3010	0.7451
3001	0.7411
2992	0.7415
2983	0.7447
2974	0.751
2965	0.7525
2956	0.7358
2947	0.7142
2938	0.7122
2929	0.7115
2920	0.7138
2911	0.7161
2902	0.718
2893	0.7151
2884	0.7183
2875	0.7324
2866	0.7465
2857	0.7608
2848	0.7753
2839	0.7808
2830	0.7635
2821	0.7435
2812	0.7408
2803	0.7507
2794	0.7643
2785	0.7762
2776	0.7834
2767	0.7882
2758	0.7926
2749	0.7967
2740	0.8005
2731	0.8037
2722	0.8067
2713	0.8089
2704	0.811
2695	0.8132
2686	0.8154
2677	0.8175
2668	0.8196
2659	0.8215
2650	0.8233
2641	0.8247
2632	0.8262
2623	0.8257
2614	0.8218
2605	0.8178
2596	0.8176
2587	0.8204
2578	0.8224
2569	0.8227
2560	0.8218
2551	0.8207
2542	0.8195
2533	0.8182
2524	0.8168
2515	0.8165
2506	0.8167
2497	0.8186
2488	0.823
2479	0.8257
2470	0.8265
2461	0.8268
2452	0.8285
2443	0.8315
2434	0.8359
2425	0.8391
2416	0.8395
2407	0.8396
2398	0.8397
2389	0.8401
2380	0.8416
2371	0.8457
2362	0.8495
2353	0.8524
2344	0.8515
2335	0.8498
2326	0.8488
2317	0.848
2308	0.8465
2299	0.8443
2290	0.8433
2281	0.8432
2272	0.8446
2263	0.8467
2254	0.8492
2245	0.8521
2236	0.8556
2227	0.8585
2218	0.859
2209	0.8585
2200	0.8589
2191	0.8603
2182	0.8617
2173	0.8643
2164	0.8665
2155	0.8675
2146	0.8664
2137	0.8654
2128	0.8646
2119	0.8636
2110	0.864
2101	0.8643
2092	0.864
2083	0.8639
2074	0.8637
2065	0.8589
2056	0.8513
2047	0.8473
2038	0.8468
2029	0.8473
2020	0.8471
2011	0.8473
2002	0.8481
1993	0.8549
1984	0.8615
1975	0.8653
1966	0.8677
1957	0.8625
1948	0.8621
1939	0.8656
1930	0.8686
1921	0.8668
1912	0.8627
1903	0.8678
1894	0.8571
1885	0.8484
1876	0.8601
1867	0.8632
1858	0.8698
1849	0.8782
1840	0.8849
1831	0.8882
1822	0.8809
1813	0.8723
1804	0.871
1795	0.88
1786	0.8861
1777	0.8855
1768	0.8849
1759	0.8924
1750	0.9018
1741	0.9088
1732	0.9115
1723	0.9124
1714	0.912
1705	0.9141
1696	0.922
1687	0.9274
1678	0.9248
1669	0.9249
1660	0.9151
1651	0.9214
1642	0.9145
1633	0.8846
1624	0.7741
1615	0.3859
1606	0.4024
1597	0.6154
1588	0.7218
1579	0.7331
1570	0.8561
1561	0.8836
1552	0.9021
1543	0.9125
1534	0.8838
1525	0.7198
1516	0.0921
1507	0.3296
1498	0.5642
1489	0.6756
1480	0.6199
1471	0.6521
1462	0.4866
1453	0.5925
1444	0.6287
1435	0.7606
1426	0.789
1417	0.7712
1408	0.822
1399	0.8485
1390	0.8633
1381	0.8742
1372	0.8823
1363	0.8896
1354	0.8847
1345	0.8728
1336	0.861
1327	0.7975
1318	0.5928
1309	0.7254
1300	0.4064
1291	0.7524
1282	0.8228
1273	0.7498
1264	0.3243
1255	0.0726
1246	0.248
1237	0.4553
1228	0.6007
1219	0.6796
1210	0.6838
1201	0.5941
1192	0.7271
1183	0.6701
1174	0.2705
1165	0.363
1156	0.6253
1147	0.6983
1138	0.7461
1129	0.7692
1120	0.7884
1111	0.7418
1102	0.7008
1093	0.7985
1084	0.82
1075	0.8389
1066	0.8455
1057	0.843
1048	0.8298
1039	0.621
1030	0.2399
1021	0.5176
1012	0.6705
1003	0.7446
994	0.7825
985	0.8124
976	0.818
967	0.8305
958	0.8125
949	0.8338
940	0.8474
931	0.8327
922	0.8543
913	0.8557
904	0.8661
895	0.8727
886	0.8686
877	0.8778
868	0.8804
859	0.8721
850	0.7253
841	0.5499
832	0.7412
823	0.7894
814	0.8394
805	0.8661
796	0.8108
787	0.4503
778	0.4614
769	0.6245
760	0.6304
751	0.6983
742	0.7928
733	0.8175
724	0.8457
715	0.8191
706	0.7225
697	0.6885
688	0.6833
679	0.3542
