Infrared Spectrum: 2-Chloro-4-methylpentane
Formula: C 6 H 13 Cl
CAS: 25346-32-1
State: gas
Instrument: HP-GC/MS/IRD
Origin: NIST Mass Spectrometry Data Center
1/CM	ABSORBANCE
550	0.000448
562	0.0001504
574	0.00016
586	0.0002688
598	0.0007008
610	0.0019104
622	0.0035776
634	0.0033248
646	0.0015136
658	0.001104
670	0.0019936
682	0.0023808
694	0.0014272
706	0.000464
718	0.0002464
730	8e-05
742	0.0001216
754	9.28e-05
766	7.04e-05
778	0.0001152
790	0.0001792
802	0.0002496
814	0.0002784
826	0.000272
838	0.0005984
850	0.0009536
862	0.0010592
874	0.001072
886	0.0009536
898	0.0009344
910	0.000752
922	0.0006368
934	0.0005792
946	0.0006336
958	0.0008256
970	0.0009376
982	0.0009824
994	0.0014432
1006	0.0017984
1018	0.0015232
1030	0.000896
1042	0.0008128
1054	0.0008704
1066	0.0007488
1078	0.0008768
1090	0.0014112
1102	0.001456
1114	0.0011136
1126	0.0012864
1138	0.002192
1150	0.0026848
1162	0.0023808
1174	0.001584
1186	0.0009056
1198	0.0008736
1210	0.001504
1222	0.0020736
1234	0.0018336
1246	0.001584
1258	0.0023584
1270	0.0036032
1282	0.0037664
1294	0.0025312
1306	0.0013984
1318	0.0010144
1330	0.00112
1342	0.0015488
1354	0.0023968
1366	0.003584
1378	0.0048032
1390	0.0045984
1402	0.0023808
1414	0.0012384
1426	0.0016
1438	0.0026528
1450	0.0039072
1462	0.0047232
1474	0.00416
1486	0.0022912
1498	0.0009344
1510	0.00048
1522	0.0003296
1534	0.0002368
1546	0.0002016
1558	0.0001632
1570	0.000176
1582	0.0001568
1594	0.0001664
1606	0.000144
1618	0.0001664
1630	0.0001312
1642	0.0001344
1654	0.00016
1666	0.0001344
1678	0.0001632
1690	0.0001568
1702	0.000144
1714	9.92e-05
1726	8.64e-05
1738	8.96e-05
1750	8e-05
1762	7.36e-05
1774	3.2e-05
1786	6.08e-05
1798	4.8e-05
1810	3.84e-05
1822	2.24e-05
1834	3.84e-05
1846	2.88e-05
1858	5.12e-05
1870	2.24e-05
1882	9.6e-06
1894	3.84e-05
1906	3.2e-05
1918	0
1930	2.24e-05
1942	2.88e-05
1954	3.2e-05
1966	1.92e-05
1978	2.88e-05
1990	2.24e-05
2002	2.88e-05
2014	3.2e-05
2026	6.4e-06
2038	1.92e-05
2050	3.52e-05
2062	3.84e-05
2074	1.92e-05
2086	1.6e-05
2098	0
2110	3.84e-05
2122	4.8e-05
2134	3.52e-05
2146	3.52e-05
2158	3.84e-05
2170	2.56e-05
2182	6.72e-05
2194	8.32e-05
2206	6.72e-05
2218	6.4e-05
2230	8e-05
2242	7.36e-05
2254	8.32e-05
2266	9.6e-05
2278	7.68e-05
2290	6.72e-05
2302	8.64e-05
2314	8.64e-05
2326	0.0001056
2338	0.0001024
2350	9.92e-05
2362	0.0001248
2374	0.0001152
2386	0.0001216
2398	0.0001472
2410	0.0001408
2422	0.0001312
2434	0.000144
2446	0.0001504
2458	0.0001312
2470	0.0001248
2482	0.0001216
2494	0.0001728
2506	0.0001792
2518	0.0001472
2530	0.0001472
2542	0.0001888
2554	0.0001632
2566	0.0002464
2578	0.0002688
2590	0.0002688
2602	0.0002848
2614	0.0002784
2626	0.0003168
2638	0.0002912
2650	0.0002976
2662	0.0003232
2674	0.0003008
2686	0.0003552
2698	0.0003872
2710	0.0004256
2722	0.0005984
2734	0.00072
2746	0.0007328
2758	0.0006368
2770	0.0006464
2782	0.0006816
2794	0.0008768
2806	0.0010784
2818	0.0014464
2830	0.002
2842	0.002608
2854	0.003344
2866	0.0057344
2878	0.0097856
2890	0.011168
2902	0.0105568
2914	0.0119392
2926	0.0154912
2938	0.018112
2950	0.0201984
2962	0.0300448
2974	0.0301696
2986	0.0173536
2998	0.0087264
3010	0.003536
3022	0.0016352
3034	0.0010624
3046	0.000832
3058	0.0007904
3070	0.0007488
3082	0.0007264
3094	0.0006272
3106	0.0006368
3118	0.000592
3130	0.000576
3142	0.000544
3154	0.0005664
3166	0.0005696
3178	0.000592
3190	0.0005664
3202	0.0005248
3214	0.000416
3226	0.000336
3238	0.0002464
3250	0.000272
3262	0.0002592
3274	0.0001568
3286	0.0001856
3298	0.0002176
3310	0.0002304
3322	0.000176
3334	0.0002048
3346	0.000224
3358	0.0002176
3370	0.0002176
3382	0.000176
3394	0.0001344
3406	0.0002048
3418	0.0001632
3430	0.0001696
3442	0.0001472
3454	0.0001312
3466	8.64e-05
3478	8.32e-05
3490	9.92e-05
3502	0.0001504
3514	0.0001088
3526	0.0001312
3538	0.0001088
3550	0.0001216
3562	0.0001024
3574	7.04e-05
3586	6.72e-05
3598	9.92e-05
3610	0.0001088
3622	0.0001536
3634	0.0001504
3646	0.0001696
3658	0.0001664
3670	0.000128
3682	0.0001056
3694	7.04e-05
3706	0.0001024
3718	0.0001312
3730	0.0001568
3742	0.0001536
3754	0.00016
3766	0.000176
3778	0.0001856
3790	0.000192
3802	0.0002688
3814	0.0002112
3826	0.0001952
3838	0.0002464
