Infrared Spectrum: Diethyl benzene
Formula: C 10 H 14
CAS: 25340-17-4
State: gas
Instrument: HP-GC/MS/IRD
Origin: NIST Mass Spectrometry Data Center
1/CM	ABSORBANCE
550	0.00028
562	5.92e-05
574	0.0001248
586	8.96e-05
598	0.000168
610	3.84e-05
622	0.0001536
634	0.0001344
646	8.96e-05
658	0.0001424
670	0.0003648
682	0.0010128
694	0.0025984
706	0.0029472
718	0.00156
730	0.0009152
742	0.0008944
754	0.0010288
766	0.00128
778	0.0022544
790	0.00268
802	0.0015952
814	0.0007632
826	0.0004544
838	0.000376
850	0.0005728
862	0.0011536
874	0.0010768
886	0.0013056
898	0.0006784
910	0.0002496
922	0.0001168
934	0.0001744
946	0.0001664
958	0.000224
970	0.0002528
982	0.0002128
994	0.0001776
1006	0.0002336
1018	0.0003264
1030	0.0004192
1042	0.0006736
1054	0.0008672
1066	0.000936
1078	0.0005536
1090	0.0003904
1102	0.0004384
1114	0.0003344
1126	0.000248
1138	0.0001952
1150	0.0002944
1162	0.000336
1174	0.0002112
1186	0.0002336
1198	0.0001904
1210	0.0002048
1222	0.0002032
1234	0.0002384
1246	0.0003248
1258	0.0002704
1270	0.0003232
1282	0.000448
1294	0.0005136
1306	0.000856
1318	0.0012624
1330	0.0010448
1342	0.0006192
1354	0.0004064
1366	0.0005472
1378	0.0007904
1390	0.00076
1402	0.0007312
1414	0.000848
1426	0.0012112
1438	0.0018624
1450	0.0024592
1462	0.0026544
1474	0.0025584
1486	0.002624
1498	0.001664
1510	0.0007936
1522	0.0004752
1534	0.0003936
1546	0.0003552
1558	0.0004064
1570	0.0007264
1582	0.0013776
1594	0.0024272
1606	0.003096
1618	0.0017536
1630	0.0005008
1642	0.0003328
1654	0.0002624
1666	0.0002752
1678	0.0003136
1690	0.000288
1702	0.0001968
1714	0.00016
1726	0.0002112
1738	0.0001856
1750	0.000224
1762	0.0003408
1774	0.0003824
1786	0.0003248
1798	0.0002224
1810	0.000136
1822	0.0001264
1834	0.0001696
1846	0.0003024
1858	0.0004112
1870	0.0002368
1882	0.0001328
1894	0.0001408
1906	0.0001424
1918	0.0002656
1930	0.0002944
1942	0.0001712
1954	8.96e-05
1966	8e-05
1978	9.28e-05
1990	8.96e-05
2002	6.88e-05
2014	9.28e-05
2026	0.00012
2038	0.0001296
2050	8.64e-05
2062	6.72e-05
2074	6.4e-05
2086	6.88e-05
2098	7.04e-05
2110	7.04e-05
2122	5.76e-05
2134	7.2e-05
2146	7.04e-05
2158	7.52e-05
2170	7.04e-05
2182	5.92e-05
2194	5.76e-05
2206	5.28e-05
2218	2.88e-05
2230	9.76e-05
2242	5.12e-05
2254	4.64e-05
2266	6.24e-05
2278	9.44e-05
2290	7.52e-05
2302	6.88e-05
2314	8.32e-05
2326	9.28e-05
2338	0.0001216
2350	0.000104
2362	5.92e-05
2374	7.36e-05
2386	4.8e-05
2398	6.08e-05
2410	7.36e-05
2422	7.2e-05
2434	6.88e-05
2446	7.04e-05
2458	7.2e-05
2470	6.56e-05
2482	4.96e-05
2494	2.4e-05
2506	5.44e-05
2518	3.2e-06
2530	5.28e-05
2542	6.56e-05
2554	5.76e-05
2566	4.16e-05
2578	4.96e-05
2590	0.0001024
2602	8.48e-05
2614	0.0001088
2626	0.0001072
2638	0.0001312
2650	0.00012
2662	4.48e-05
2674	0.0001152
2686	9.12e-05
2698	0.0001376
2710	0.0001488
2722	0.0001904
2734	0.0002528
2746	0.00028
2758	0.0002864
2770	0.0003392
2782	0.000368
2794	0.0004304
2806	0.0005424
2818	0.0006992
2830	0.000976
2842	0.0014352
2854	0.0022512
2866	0.0037968
2878	0.0054384
2890	0.0060768
2902	0.0056832
2914	0.0054448
2926	0.006856
2938	0.0102256
2950	0.0098352
2962	0.0115184
2974	0.016
2986	0.008416
2998	0.0042448
3010	0.0042352
3022	0.004736
3034	0.0045136
3046	0.00368
3058	0.0036416
3070	0.0029296
3082	0.0015392
3094	0.0011088
3106	0.0009232
3118	0.000664
3130	0.0004496
3142	0.000416
3154	0.0003952
3166	0.0003536
3178	0.0002336
3190	0.000216
3202	0.0001888
3214	0.0001264
3226	7.52e-05
3238	0.0001392
3250	0.0001264
3262	0.0001152
3274	5.6e-05
3286	0.0001264
3298	0.0001136
3310	9.12e-05
3322	6.4e-05
3334	9.92e-05
3346	3.52e-05
3358	0.0001152
3370	8.16e-05
3382	6.08e-05
3394	7.36e-05
3406	6.24e-05
3418	8.8e-05
3430	9.44e-05
3442	8e-05
3454	0.0001072
3466	7.84e-05
3478	6.24e-05
3490	0.0001072
3502	8.32e-05
3514	0.000112
3526	0.000176
3538	7.68e-05
3550	0.0001344
3562	0.0001808
3574	0.0001312
3586	0.0001264
3598	0.0001136
3610	0.0001232
3622	0.0001232
3634	0.0001424
3646	0.0001056
3658	0.0001104
3670	0.0001552
3682	0.0001056
3694	0.0002
3706	0.0002352
3718	0.0001824
3730	0.0002192
3742	0.0002176
3754	0.0002
3766	0.000216
3778	0.000168
3790	0.0001904
3802	0.0001216
3814	0.000176
3826	0.0002272
3838	0.0001984
