Infrared Spectrum: 2,6-Diethylphenyl isothiocyanate
Formula: C 11 H 13 N S
CAS: 25343-69-5
State: gas
Origin: EPA-IR VAPOR PHASE LIBRARY
1/CM	ABSORBANCE
549.8	0.006988
559.445	0.007428
569.09	0.007938
578.734	0.006148
588.379	0.004068
598.024	0.003108
607.669	0.002508
617.313	0.002498
626.958	0.002518
636.603	0.001868
646.248	0.0012386
655.893	0.0012669
665.537	0.001468
675.182	0.001648
684.827	0.001898
694.472	0.002578
704.116	0.003968
713.761	0.004628
723.406	0.009308
733.051	0.030878
742.695	0.054228
752.34	0.030508
761.985	0.013808
771.63	0.012028
781.275	0.019198
790.919	0.020348
800.564	0.013398
810.209	0.007378
819.854	0.004038
829.498	0.002548
839.143	0.002328
848.788	0.002678
858.433	0.005378
868.078	0.008978
877.722	0.007338
887.367	0.005428
897.012	0.006288
906.657	0.007868
916.301	0.012228
925.946	0.025738
935.591	0.043688
945.236	0.031968
954.88	0.014048
964.525	0.008538
974.17	0.004628
983.815	0.002778
993.46	0.002468
1003.1	0.001978
1012.75	0.001718
1022.39	0.0013784
1032.04	0.001728
1041.68	0.002208
1051.33	0.004368
1060.97	0.005818
1070.62	0.003988
1080.26	0.002438
1089.91	0.0012504
1099.55	0.0013586
1109.2	0.002078
1118.84	0.0007838
1128.49	0.0008164
1138.13	0.0005285
1147.78	0.0007747
1157.42	0.000948
1167.07	0.0012746
1176.71	0.001212
1186.36	0.0010415
1196	0.0012711
1205.64	0.002008
1215.29	0.001948
1224.93	0.001548
1234.58	0.002238
1244.22	0.003358
1253.87	0.004478
1263.51	0.006118
1273.16	0.004888
1282.8	0.004208
1292.45	0.004428
1302.09	0.005058
1311.74	0.006178
1321.38	0.007348
1331.03	0.005958
1340.67	0.004598
1350.32	0.003928
1359.96	0.003418
1369.61	0.004388
1379.25	0.007278
1388.9	0.006818
1398.54	0.004508
1408.18	0.004488
1417.83	0.005738
1427.47	0.009628
1437.12	0.023978
1446.76	0.039788
1456.41	0.034898
1466.05	0.026358
1475.7	0.019018
1485.34	0.009168
1494.99	0.005348
1504.63	0.003788
1514.28	0.003208
1523.92	0.003108
1533.57	0.003278
1543.21	0.003388
1552.86	0.003488
1562.5	0.004078
1572.15	0.005998
1581.79	0.010288
1591.44	0.011048
1601.08	0.006078
1610.73	0.003868
1620.37	0.003538
1630.01	0.003248
1639.66	0.003098
1649.3	0.002618
1658.95	0.002298
1668.59	0.002128
1678.24	0.002418
1687.88	0.002668
1697.53	0.002708
1707.17	0.002808
1716.82	0.002258
1726.46	0.001978
1736.11	0.001968
1745.75	0.002128
1755.4	0.002098
1765.04	0.002148
1774.69	0.002478
1784.33	0.003248
1793.98	0.003868
1803.62	0.003098
1813.27	0.002828
1822.91	0.002958
1832.55	0.003418
1842.2	0.003998
1851.84	0.005498
1861.49	0.006328
1871.13	0.005208
1880.78	0.004508
1890.42	0.004208
1900.07	0.004238
1909.71	0.005068
1919.36	0.008048
1929	0.008958
1938.65	0.007308
1948.29	0.008958
1957.94	0.011998
1967.58	0.016158
1977.23	0.021748
1986.87	0.029048
1996.52	0.038658
2006.16	0.051268
2015.81	0.068948
2025.45	0.095378
2035.1	0.136168
2044.74	0.196048
2054.38	0.279358
2064.03	0.386118
2073.67	0.486978
2083.32	0.532268
2092.96	0.490678
2102.61	0.374538
2112.25	0.246638
2121.9	0.174068
2131.54	0.153368
2141.19	0.161398
2150.83	0.171528
2160.48	0.139878
2170.12	0.085138
2179.77	0.052948
2189.41	0.038778
2199.06	0.030758
2208.7	0.022988
2218.35	0.015908
2227.99	0.011258
2237.64	0.008138
2247.28	0.006038
2256.92	0.004698
2266.57	0.003848
2276.21	0.003318
2285.86	0.002978
2295.5	0.002848
2305.15	0.002918
2314.79	0.003218
2324.44	0.003318
2334.08	0.003308
2343.73	0.003318
2353.37	0.002968
2363.02	0.002998
2372.66	0.003098
2382.31	0.003038
2391.95	0.003008
2401.6	0.003558
2411.24	0.004148
2420.89	0.004408
2430.53	0.003858
2440.18	0.003438
2449.82	0.003468
2459.47	0.003818
2469.11	0.004058
2478.75	0.004108
2488.4	0.003928
2498.04	0.003828
2507.69	0.003798
2517.33	0.003838
2526.98	0.003828
2536.62	0.003958
2546.27	0.004028
2555.91	0.004148
2565.56	0.003888
2575.2	0.003488
2584.85	0.003188
2594.49	0.002828
2604.14	0.002618
2613.78	0.002638
2623.43	0.002788
2633.07	0.003068
2642.72	0.003068
2652.36	0.002798
2662.01	0.002908
2671.65	0.002858
2681.29	0.002658
2690.94	0.002708
2700.58	0.002518
2710.23	0.002418
2719.87	0.002308
2729.52	0.002388
2739.16	0.002568
2748.81	0.002518
2758.45	0.002358
2768.1	0.002418
2777.74	0.002898
2787.39	0.003378
2797.03	0.003638
2806.68	0.004118
2816.32	0.004478
2825.97	0.005008
2835.61	0.005748
2845.26	0.006398
2854.9	0.007598
2864.55	0.011538
2874.19	0.021428
2883.84	0.033078
2893.48	0.030838
2903.12	0.024278
2912.77	0.023208
2922.41	0.024338
2932.06	0.032978
2941.7	0.052458
2951.35	0.052528
2960.99	0.040828
2970.64	0.073308
2980.28	0.095028
2989.93	0.042468
2999.57	0.019198
3009.22	0.015438
3018.86	0.016008
3028.51	0.016218
3038.15	0.013978
3047.8	0.013138
3057.44	0.019308
3067.09	0.024518
3076.73	0.019648
3086.38	0.011598
3096.02	0.005158
3105.67	0.003318
3115.31	0.002818
3124.95	0.002408
3134.6	0.002298
3144.24	0.002358
3153.89	0.002278
3163.53	0.002128
3173.18	0.001768
3182.82	0.0012743
3192.47	0.0007114
3202.11	0.0007553
3211.76	0.00043729
3221.4	0.0003818
3231.05	0.0003332
3240.69	0.000273
3250.34	0.000281
3259.98	0.00048924
3269.63	0.000274
3279.27	0.00017
3288.92	0.000171
3298.56	0.000197
3308.21	0.0003322
3317.85	0.000279
3327.49	0.0003365
3337.14	0.000156
3346.78	0.000231
3356.43	0.0003505
3366.07	0.000146
3375.72	0.000233
3385.36	0.000278
3395.01	0.000296
3404.65	0.000207
3414.3	0.000112
3423.94	0.000127
3433.59	0.000182
3443.23	3.9e-05
3452.88	0.000156
3462.52	0.000262
3472.17	0.000233
3481.81	0.0003767
3491.46	0.000117
3501.1	3e-05
3510.75	0.000149
3520.39	0.000269
3530.04	0.000228
3539.68	0.000156
3549.32	0.0003386
3558.97	0.0003677
3568.61	0.0003
3578.26	0.0003676
3587.9	0.000184
3597.55	0.000167
3607.19	0.000178
3616.84	0.0003188
3626.48	0.000114
3636.13	0.000156
3645.77	0.000204
3655.42	0.0003959
3665.06	0.0003942
3674.71	0.00041099
3684.35	0.0003392
3694	0.00044784
3703.64	0.000217
3713.29	0.0003314
3722.93	0.0003263
3732.58	0.000598
3742.22	0.000593
3751.86	0.00048341
3761.51	0.0007342
3771.15	0.0006529
3780.8	0.00049832
3790.44	0.0007014
3800.09	0.0006672
3809.73	0.0006065
3819.38	0.0006936
3829.02	0.000621
3838.67	0.0004674
3848.31	0.0004058
3857.96	0.00048456
3867.6	0.0005918
3877.25	0.0003855
3886.89	0.0005885
3896.54	0.0005939
3906.18	0.0003907
3915.83	0.0009708
3925.47	0.0006396
3935.12	0.0010982
3944.76	0.0008819
3954.41	0.0012948
3964.05	0.0008191
3973.69	0.0011961
3983.34	0.0012839
3992.98	0.0012248
