Infrared Spectrum: 2,6-Diisopropylphenyl isothiocyanate
Formula: C 13 H 17 N S
CAS: 25343-70-8
State: gas
Origin: EPA-IR VAPOR PHASE LIBRARY
1/CM	ABSORBANCE
549.8	0.00652
559.445	0.00838
569.09	0.00788
578.734	0.00516
588.379	0.00372
598.024	0.00385
607.669	0.0051
617.313	0.00499
626.958	0.00387
636.603	0.00266
646.248	0.00155
655.893	0.0014478
665.537	0.00154
675.182	0.00147
684.827	0.0013741
694.472	0.00206
704.116	0.00466
713.761	0.01
723.406	0.02422
733.051	0.02971
742.695	0.04808
752.34	0.02455
761.985	0.00329
771.63	0.00358
781.275	0.00765
790.919	0.019
800.564	0.01518
810.209	0.00413
819.854	0.00176
829.498	0.00182
839.143	0.0014098
848.788	0.0014476
858.433	0.0012482
868.078	0.00296
877.722	0.0054
887.367	0.00485
897.012	0.00624
906.657	0.00965
916.301	0.01812
925.946	0.03671
935.591	0.04728
945.236	0.03477
954.88	0.0179
964.525	0.00944
974.17	0.0049
983.815	0.00299
993.46	0.0021
1003.1	0.00207
1012.75	0.00183
1022.39	0.000852
1032.04	0.0013427
1041.68	0.00225
1051.33	0.0036
1060.97	0.00674
1070.62	0.00459
1080.26	0.00275
1089.91	0.00299
1099.55	0.00476
1109.2	0.0058
1118.84	0.00353
1128.49	0.00218
1138.13	0.00181
1147.78	0.00232
1157.42	0.00348
1167.07	0.00295
1176.71	0.00447
1186.36	0.00413
1196	0.00196
1205.64	0.00203
1215.29	0.00272
1224.93	0.00306
1234.58	0.00315
1244.22	0.00526
1253.87	0.01355
1263.51	0.01004
1273.16	0.00429
1282.8	0.00362
1292.45	0.00404
1302.09	0.0058
1311.74	0.00732
1321.38	0.01048
1331.03	0.01391
1340.67	0.01649
1350.32	0.01372
1359.96	0.01271
1369.61	0.02144
1379.25	0.01248
1388.9	0.01448
1398.54	0.00886
1408.18	0.00645
1417.83	0.00894
1427.47	0.01825
1437.12	0.03213
1446.76	0.0273
1456.41	0.02216
1466.05	0.02714
1475.7	0.02362
1485.34	0.0103
1494.99	0.00551
1504.63	0.00411
1514.28	0.00336
1523.92	0.00292
1533.57	0.00343
1543.21	0.00368
1552.86	0.00312
1562.5	0.00337
1572.15	0.00563
1581.79	0.00965
1591.44	0.00798
1601.08	0.0042
1610.73	0.00344
1620.37	0.00301
1630.01	0.00278
1639.66	0.00321
1649.3	0.00265
1658.95	0.002
1668.59	0.00195
1678.24	0.00221
1687.88	0.00337
1697.53	0.00384
1707.17	0.0038
1716.82	0.0031
1726.46	0.00246
1736.11	0.00217
1745.75	0.00208
1755.4	0.00218
1765.04	0.00197
1774.69	0.0019
1784.33	0.00221
1793.98	0.00298
1803.62	0.00253
1813.27	0.00216
1822.91	0.00241
1832.55	0.00291
1842.2	0.00354
1851.84	0.00482
1861.49	0.00602
1871.13	0.00489
1880.78	0.00421
1890.42	0.00402
1900.07	0.0041
1909.71	0.00452
1919.36	0.00686
1929	0.00896
1938.65	0.00717
1948.29	0.00755
1957.94	0.00966
1967.58	0.0127
1977.23	0.01725
1986.87	0.02328
1996.52	0.03138
2006.16	0.04239
2015.81	0.0573
2025.45	0.07867
2035.1	0.11016
2044.74	0.15665
2054.38	0.22329
2064.03	0.31057
2073.67	0.40328
2083.32	0.46908
2092.96	0.48458
2102.61	0.42465
2112.25	0.30672
2121.9	0.22394
2131.54	0.19643
2141.19	0.19564
2150.83	0.18713
2160.48	0.14011
2170.12	0.08642
2179.77	0.05581
2189.41	0.04006
2199.06	0.02973
2208.7	0.02142
2218.35	0.01527
2227.99	0.0111
2237.64	0.00874
2247.28	0.00722
2256.92	0.00614
2266.57	0.00529
2276.21	0.0045
2285.86	0.00388
2295.5	0.00352
2305.15	0.00374
2314.79	0.00355
2324.44	0.00302
2334.08	0.00267
2343.73	0.00259
2353.37	0.00266
2363.02	0.00275
2372.66	0.00268
2382.31	0.00286
2391.95	0.00329
2401.6	0.00388
2411.24	0.0037
2420.89	0.00321
2430.53	0.00321
2440.18	0.00375
2449.82	0.00444
2459.47	0.00475
2469.11	0.00448
2478.75	0.00429
2488.4	0.00408
2498.04	0.00413
2507.69	0.0043
2517.33	0.00444
2526.98	0.0045
2536.62	0.00443
2546.27	0.00431
2555.91	0.00422
2565.56	0.00413
2575.2	0.0041
2584.85	0.00381
2594.49	0.00342
2604.14	0.00288
2613.78	0.00258
2623.43	0.00219
2633.07	0.0021
2642.72	0.00188
2652.36	0.002
2662.01	0.00195
2671.65	0.00212
2681.29	0.00218
2690.94	0.00219
2700.58	0.00253
2710.23	0.0029
2719.87	0.00333
2729.52	0.00389
2739.16	0.00379
2748.81	0.00304
2758.45	0.00305
2768.1	0.00352
2777.74	0.00346
2787.39	0.0037
2797.03	0.00413
2806.68	0.00493
2816.32	0.00573
2825.97	0.00585
2835.61	0.00598
2845.26	0.00685
2854.9	0.00876
2864.55	0.01397
2874.19	0.03046
2883.84	0.04511
2893.48	0.03437
2903.12	0.03131
2912.77	0.03483
2922.41	0.04075
2932.06	0.05631
2941.7	0.06611
2951.35	0.05135
2960.99	0.07637
2970.64	0.17064
2980.28	0.12104
2989.93	0.04049
2999.57	0.01992
3009.22	0.01523
3018.86	0.01296
3028.51	0.0117
3038.15	0.01021
3047.8	0.00943
3057.44	0.01314
3067.09	0.02362
3076.73	0.02776
3086.38	0.01333
3096.02	0.00576
3105.67	0.00426
3115.31	0.00335
3124.95	0.00298
3134.6	0.00251
3144.24	0.00233
3153.89	0.00249
3163.53	0.00268
3173.18	0.00247
3182.82	0.00211
3192.47	0.00205
3202.11	0.00173
3211.76	0.0013811
3221.4	0.0012587
3231.05	0.0010806
3240.69	0.0008759
3250.34	0.0007324
3259.98	0.0004547
3269.63	0.0006238
3279.27	0.00055514
3288.92	0.00050002
3298.56	0.000249
3308.21	0.000239
3317.85	0.000315
3327.49	0.000241
3337.14	0.00032
3346.78	0.000277
3356.43	0.000267
3366.07	0.000273
3375.72	0.000287
3385.36	0.000394
3395.01	0.000326
3404.65	0.0005849
3414.3	0.00048306
3423.94	0.0004131
3433.59	0.00049097
3443.23	0.00031
3452.88	0.000334
3462.52	0.000232
3472.17	0.000219
3481.81	0.000257
3491.46	0.000293
3501.1	0.000288
3510.75	0.00022
3520.39	0.000306
3530.04	0.000204
3539.68	0.000346
3549.32	0.0004377
3558.97	0.000313
3568.61	0.000229
3578.26	0.000248
3587.9	0.000293
3597.55	0.000277
3607.19	0.000359
3616.84	0.000137
3626.48	0.000211
3636.13	0.000107
3645.77	5.8e-05
3655.42	0.000156
3665.06	0.000148
3674.71	0.000363
3684.35	0.000281
3694	0.000232
3703.64	5.9e-05
3713.29	0.000361
3722.93	0.000116
3732.58	0.0003739
3742.22	0.000137
3751.86	0.00036
3761.51	0.000323
3771.15	0.000305
3780.8	0.0004328
3790.44	0.000307
3800.09	0.00051494
3809.73	0.0007304
3819.38	0.00056602
3829.02	0.00051897
3838.67	0.0006588
3848.31	0.0006116
3857.96	0.000596
3867.6	0.0007472
3877.25	0.0006715
3886.89	0.000454
3896.54	0.0004494
3906.18	0.0006195
3915.83	0.0007227
3925.47	0.000477547
3935.12	0.0005956
3944.76	0.0006599
3954.41	0.0006338
3964.05	0.0007827
3973.69	0.0008414
3983.34	0.0007216
3992.98	0.0008084
