Infrared Spectrum: exo-2-Bromonorbornane
Formula: C 7 H 11 Br
CAS: 2534-77-2
State: gas
Instrument: HP-GC/MS/IRD
Origin: NIST Mass Spectrometry Data Center
1/CM	ABSORBANCE
550	0.0002862
562	0.000689
574	0.0016324
586	0.0006996
598	0.0011978
610	0.0050456
622	0.012084
634	0.0082998
646	0.0010706
658	0.0005194
670	0.0006254
682	0.0002226
694	2.12e-05
706	0.000212
718	0.0003604
730	3.18e-05
742	0.000318
754	0.0021518
766	0.0038478
778	0.0018974
790	0.0012826
802	0.0021624
814	0.0023108
826	0.0017596
838	0.0011024
850	0.0007738
862	0.001325
874	0.0024486
886	0.0047912
898	0.0043248
910	0.0018338
922	0.002332
934	0.006148
946	0.0130062
958	0.0055544
970	0.000689
982	0.0001802
994	0.0002014
1006	0.0002756
1018	0.0003922
1030	0.001219
1042	0.0023214
1054	0.0016324
1066	0.0003392
1078	0.0001696
1090	0.0003604
1102	0.0007738
1114	0.0017702
1126	0.002756
1138	0.0029998
1150	0.00159
1162	0.0010494
1174	0.0015582
1186	0.0056922
1198	0.0064448
1210	0.003922
1222	0.012402
1234	0.0185606
1246	0.01166
1258	0.0067204
1270	0.0027984
1282	0.0025546
1294	0.0040068
1306	0.0053742
1318	0.004399
1330	0.0015688
1342	0.0005724
1354	0.0002544
1366	9.54e-05
1378	0.0001166
1390	0.000212
1402	0.000477
1414	0.0007738
1426	0.0018868
1438	0.0053
1450	0.0095824
1462	0.008533
1474	0.0051516
1486	0.0029468
1498	0.00106
1510	0.0005088
1522	0.0003498
1534	0.0002968
1546	0.0002544
1558	0.000106
1570	9.54e-05
1582	0.0001272
1594	9.54e-05
1606	0.0001166
1618	6.36e-05
1630	5.3e-05
1642	3.18e-05
1654	0
1666	8.48e-05
1678	8.48e-05
1690	8.48e-05
1702	4.24e-05
1714	4.24e-05
1726	5.3e-05
1738	5.3e-05
1750	0.000106
1762	0.0001378
1774	0.0001378
1786	0.0001378
1798	0.0001166
1810	0.000106
1822	0.0001272
1834	0.0001696
1846	0.0001696
1858	0.000159
1870	0.0001378
1882	0.000159
1894	0.0001378
1906	0.0001166
1918	0.0001166
1930	0.000159
1942	0.0001696
1954	0.0001484
1966	9.54e-05
1978	6.36e-05
1990	9.54e-05
2002	8.48e-05
2014	0.0001378
2026	0.0001802
2038	0.0001908
2050	0.0002226
2062	0.000371
2074	0.0004346
2086	0.0003498
2098	0.0002756
2110	0.0002332
2122	0.000265
2134	0.0003498
2146	0.0003498
2158	0.0003498
2170	0.0003816
2182	0.000424
2194	0.0003604
2206	0.0003392
2218	0.000318
2230	0.000318
2242	0.000318
2254	0.000265
2266	0.0002226
2278	0.0001696
2290	0.000212
2302	0.0002332
2314	0.0002968
2326	0.000265
2338	0.0002968
2350	0.0002862
2362	0.0001908
2374	0.0001696
2386	0.0001378
2398	0.000159
2410	0.0001484
2422	0.0001484
2434	0.0001484
2446	0.0001696
2458	9.54e-05
2470	3.18e-05
2482	6.36e-05
2494	9.54e-05
2506	0.0001166
2518	9.54e-05
2530	3.18e-05
2542	6.36e-05
2554	8.48e-05
2566	0.0001484
2578	0.0001484
2590	0.0001484
2602	0.0001484
2614	0.0001272
2626	4.24e-05
2638	2.12e-05
2650	6.36e-05
2662	9.54e-05
2674	7.42e-05
2686	0.000106
2698	0.0001484
2710	0.0001802
2722	0.0001908
2734	0.0001908
2746	0.0002862
2758	0.0004134
2770	0.00053
2782	0.0005724
2794	0.0004876
2806	0.0004876
2818	0.0006148
2830	0.001007
2842	0.001961
2854	0.0045156
2866	0.0123384
2878	0.0269028
2890	0.0260866
2902	0.014946
2914	0.015317
2926	0.0226946
2938	0.0354252
2950	0.0555864
2962	0.0971596
2974	0.0981242
2986	0.0525336
2998	0.0225356
3010	0.006678
3022	0.0020458
3034	0.0012614
3046	0.001113
3058	0.0010706
3070	0.0009328
3082	0.0005724
3094	0.0002544
3106	0.0002332
3118	0.0001908
3130	0.0001484
3142	0.0001696
3154	0.0002862
3166	0.0003816
3178	0.0003816
3190	0.000265
3202	0.0001802
3214	7.42e-05
3226	0.0001696
3238	0.0003074
3250	0.0002226
3262	0.0002014
3274	7.42e-05
3286	7.42e-05
3298	2.12e-05
3310	6.36e-05
3322	3.18e-05
3334	0.0001484
3346	0.0002544
3358	0.000265
3370	0.0002226
3382	9.54e-05
3394	6.36e-05
3406	0.000106
3418	0.0002226
3430	0.0003286
3442	0.0002226
3454	0.0001378
3466	7.42e-05
3478	4.24e-05
3490	3.18e-05
3502	4.24e-05
3514	7.42e-05
3526	7.42e-05
3538	0.000159
3550	0.0001272
3562	6.36e-05
3574	9.54e-05
3586	0.0001166
3598	6.36e-05
3610	0.0001166
3622	0.0001272
3634	8.48e-05
3646	0.0001484
3658	0.0001484
3670	9.54e-05
3682	0.000159
3694	0.0001484
3706	0.0002544
3718	0.0003286
3730	0.0004134
3742	0.0003604
3754	0.0002862
3766	0.0003074
3778	0.000265
3790	0.0002438
3802	0.0002968
3814	0.0001908
3826	0.0002226
3838	0.0002014
