Infrared Spectrum: 4-Methylthiomorpholine-1,1-dioxide
Formula: C 5 H 11 N O 2 S
CAS: 25343-91-3
State: gas
Origin: EPA-IR VAPOR PHASE LIBRARY
1/CM	ABSORBANCE
549.8	0.0013143
559.445	4.1e-05
569.09	0.0005582
578.734	0.0011536
588.379	0.002051
598.024	0.002631
607.669	0.002571
617.313	0.001401
626.958	0.001501
636.603	0.0012475
646.248	0.002901
655.893	0.007411
665.537	0.010171
675.182	0.007371
684.827	0.003221
694.472	0.004891
704.116	0.009501
713.761	0.012551
723.406	0.010681
733.051	0.004761
742.695	0.002831
752.34	0.003361
761.985	0.003881
771.63	0.002791
781.275	0.001501
790.919	0.0011116
800.564	0.0007204
810.209	0.0009204
819.854	0.002171
829.498	0.006521
839.143	0.013611
848.788	0.015561
858.433	0.010241
868.078	0.004621
877.722	0.001881
887.367	0.0010265
897.012	0.001491
906.657	0.001771
916.301	0.002701
925.946	0.003901
935.591	0.005601
945.236	0.011481
954.88	0.012571
964.525	0.008491
974.17	0.009901
983.815	0.012311
993.46	0.012011
1003.1	0.007761
1012.75	0.006411
1022.39	0.006321
1032.04	0.010331
1041.68	0.015791
1051.33	0.016521
1060.97	0.011481
1070.62	0.008501
1080.26	0.005191
1089.91	0.003631
1099.55	0.008541
1109.2	0.020921
1118.84	0.059381
1128.49	0.089021
1138.13	0.088001
1147.78	0.069871
1157.42	0.039751
1167.07	0.020481
1176.71	0.014071
1186.36	0.028221
1196	0.030151
1205.64	0.017001
1215.29	0.005801
1224.93	0.005301
1234.58	0.005201
1244.22	0.007941
1253.87	0.019041
1263.51	0.042871
1273.16	0.051661
1282.8	0.030461
1292.45	0.015681
1302.09	0.016411
1311.74	0.021611
1321.38	0.030721
1331.03	0.053531
1340.67	0.093431
1350.32	0.117771
1359.96	0.086061
1369.61	0.051501
1379.25	0.039521
1388.9	0.028521
1398.54	0.014251
1408.18	0.010381
1417.83	0.007151
1427.47	0.006371
1437.12	0.007201
1446.76	0.010561
1456.41	0.015111
1466.05	0.016391
1475.7	0.012031
1485.34	0.005961
1494.99	0.002851
1504.63	0.001581
1514.28	0.0013345
1523.92	0.001431
1533.57	0.0013464
1543.21	0.0009866
1552.86	0.0010144
1562.5	0.0010456
1572.15	0.0007085
1581.79	0.0007286
1591.44	0.0008925
1601.08	0.0007847
1610.73	0.0010429
1620.37	0.0010841
1630.01	0.0009213
1639.66	0.0009855
1649.3	0.0008793
1658.95	0.0008911
1668.59	0.0008926
1678.24	0.0007386
1687.88	0.0008929
1697.53	0.0008226
1707.17	0.0010076
1716.82	0.0008233
1726.46	0.000628
1736.11	0.0008215
1745.75	0.0006688
1755.4	0.000929
1765.04	0.0008009
1774.69	0.0007936
1784.33	0.0006149
1793.98	0.0009267
1803.62	0.0007378
1813.27	0.000761
1822.91	0.000707
1832.55	0.0007024
1842.2	0.0006481
1851.84	0.0006157
1861.49	0.0007094
1871.13	0.0009639
1880.78	0.0008719
1890.42	0.0010643
1900.07	0.0009043
1909.71	0.0008999
1919.36	0.00084
1929	0.0010141
1938.65	0.0009035
1948.29	0.0008362
1957.94	0.0005828
1967.58	0.0008449
1977.23	0.0006411
1986.87	0.0008368
1996.52	0.0009895
2006.16	0.0009241
2015.81	0.0009765
2025.45	0.0009428
2035.1	0.0008702
2044.74	0.0007861
2054.38	0.0007648
2064.03	0.0006976
2073.67	0.0006424
2083.32	0.0007753
2092.96	0.0009055
2102.61	0.0010798
2112.25	0.001183
2121.9	0.0010305
2131.54	0.0007521
2141.19	0.0008655
2150.83	0.0007588
2160.48	0.0007578
2170.12	0.0007708
2179.77	0.0008818
2189.41	0.0008206
2199.06	0.0006721
2208.7	0.0006682
2218.35	0.0007938
2227.99	0.0009715
2237.64	0.0012537
2247.28	0.001242
2256.92	0.0012673
2266.57	0.0010813
2276.21	0.0011153
2285.86	0.0007857
2295.5	0.0009333
2305.15	0.0008659
2314.79	0.0007733
2324.44	0.0007536
2334.08	0.0007859
2343.73	0.0007031
2353.37	0.0008304
2363.02	0.0006587
2372.66	0.0008028
2382.31	0.0007987
2391.95	0.0007932
2401.6	0.00092
2411.24	0.0008467
2420.89	0.0009405
2430.53	0.0008581
2440.18	0.0009119
2449.82	0.0011274
2459.47	0.001451
2469.11	0.0011072
2478.75	0.0013165
2488.4	0.001421
2498.04	0.0011639
2507.69	0.0010885
2517.33	0.001032
2526.98	0.0009291
2536.62	0.0009086
2546.27	0.0009502
2555.91	0.0008284
2565.56	0.0008149
2575.2	0.0007491
2584.85	0.0009596
2594.49	0.0011447
2604.14	0.0010711
2613.78	0.0011233
2623.43	0.0013536
2633.07	0.0012893
2642.72	0.0012609
2652.36	0.0011995
2662.01	0.001601
2671.65	0.001871
2681.29	0.002481
2690.94	0.002571
2700.58	0.002921
2710.23	0.003011
2719.87	0.003581
2729.52	0.003651
2739.16	0.003801
2748.81	0.004331
2758.45	0.005111
2768.1	0.007411
2777.74	0.012661
2787.39	0.016341
2797.03	0.018051
2806.68	0.026961
2816.32	0.037571
2825.97	0.038341
2835.61	0.033021
2845.26	0.026191
2854.9	0.021781
2864.55	0.018991
2874.19	0.014341
2883.84	0.011631
2893.48	0.011831
2903.12	0.011481
2912.77	0.010791
2922.41	0.013451
2932.06	0.021311
2941.7	0.034781
2951.35	0.044941
2960.99	0.038131
2970.64	0.022581
2980.28	0.018101
2989.93	0.015641
2999.57	0.008341
3009.22	0.003351
3018.86	0.001461
3028.51	0.001641
3038.15	0.001681
3047.8	0.0012784
3057.44	0.001381
3067.09	0.0010302
3076.73	0.0011385
3086.38	0.0011501
3096.02	0.0008583
3105.67	0.0009526
3115.31	0.000779
3124.95	0.0010225
3134.6	0.0009899
3144.24	0.0008647
3153.89	0.0007768
3163.53	0.0009381
3173.18	0.0006458
3182.82	0.0006515
3192.47	0.0007915
3202.11	0.0008749
3211.76	0.0009177
3221.4	0.0008247
3231.05	0.000209
3240.69	0.0005636
3250.34	0.00040631
3259.98	0.0002998
3269.63	0.0007719
3279.27	0.0006627
3288.92	0.0006243
3298.56	0.0008568
3308.21	0.0005555
3317.85	0.0005177
3327.49	0.0006139
3337.14	0.0006582
3346.78	0.0008202
3356.43	0.0009125
3366.07	0.0007779
3375.72	0.0007997
3385.36	0.0005522
3395.01	0.0005696
3404.65	0.0008732
3414.3	0.00042291
3423.94	0.0007067
3433.59	0.0005981
3443.23	0.0005406
3452.88	0.00045947
3462.52	0.0005148
3472.17	0.0007013
3481.81	0.00040046
3491.46	0.00047517
3501.1	0.0005437
3510.75	0.0009662
3520.39	0.0002942
3530.04	0.0007712
3539.68	0.0006889
3549.32	0.0005453
3558.97	0.000567
3568.61	0.00046432
3578.26	0.0005086
3587.9	0.0006754
3597.55	0.0006044
3607.19	0.0005488
3616.84	0.0005912
3626.48	0.0006436
3636.13	0.0008036
3645.77	0.0004312
3655.42	0.0005279
3665.06	0.0006376
3674.71	0.0008844
3684.35	0.0007811
3694	0.0005505
3703.64	0.0007095
3713.29	0.00044947
3722.93	0.0003599
3732.58	0.0005275
3742.22	0.00040523
3751.86	0.00046665
3761.51	0.00047639
3771.15	0.00043142
3780.8	0.0004044
3790.44	0.0005995
3800.09	0.0008453
3809.73	0.00044241
3819.38	0.0004835
3829.02	0.00047486
3838.67	0.0004844
3848.31	0.00047609
3857.96	0.00026
3867.6	0.0007059
3877.25	0.0003519
3886.89	0.0007803
3896.54	0.0009009
3906.18	0.0006458
3915.83	0.0009779
3925.47	0.0010962
3935.12	0.000863
3944.76	0.0009461
3954.41	0.0009715
3964.05	0.0010509
3973.69	0.0005526
3983.34	0.0005223
3992.98	0.000911
