Infrared Spectrum: UREA, 3-(p-METHOXYPHENYL)-1-METHYL-1-NITROSO-
Formula: C9 H11 N3 O3
CAS: 25355-59-3
State: SOLID (1.0 mg / 650 mg KBr DISC)
Class: COBLENTZ III
Instrument: PERKIN-ELMER 221 (GRATING)
Instrument parameters: FILTER AT 980 CM^-^1. GRATING 4000-1428 AND NaCl PRISM 1428-650 CM^-^1
Sampling: TRANSMISSION
Resolution: 4
Origin: SOUTHERN RESEARCH INSTITUTE
1/CM	TRANSMITTANCE
647.069	0.857
655.475	0.8659
663.88	0.8739
672.286	0.8722
680.691	0.875
689.097	0.8684
697.503	0.8481
705.908	0.86
714.314	0.851
722.719	0.8293
731.125	0.7285
739.531	0.8282
747.936	0.7187
756.342	0.8509
764.747	0.826
773.153	0.7921
781.559	0.7329
789.964	0.5778
798.37	0.4428
806.775	0.7835
815.181	0.595
823.587	0.4478
831.992	0.6791
840.398	0.8786
848.803	0.881
857.209	0.8764
865.615	0.8588
874.02	0.8289
882.426	0.7739
890.831	0.6963
899.237	0.8169
907.643	0.8082
916.048	0.7832
924.454	0.7562
932.859	0.728
941.265	0.6902
949.671	0.6188
958.076	0.5524
966.482	0.4595
974.887	0.3535
983.293	0.2711
991.698	0.5125
1000.1	0.727
1008.51	0.6651
1016.92	0.6458
1025.32	0.5275
1033.73	0.8226
1042.13	0.8283
1050.54	0.8019
1058.94	0.7817
1067.35	0.7502
1075.75	0.7115
1084.16	0.6472
1092.57	0.5692
1100.97	0.3811
1109.38	0.288
1117.78	0.3285
1126.19	0.3592
1134.59	0.6593
1143	0.7814
1151.4	0.7943
1159.81	0.7568
1168.22	0.6398
1176.62	0.6532
1185.03	0.6867
1193.43	0.6199
1201.84	0.4844
1210.24	0.3672
1218.65	0.3737
1227.06	0.464
1235.46	0.3998
1243.87	0.2601
1252.27	0.5855
1260.68	0.781
1269.08	0.8584
1277.49	0.8529
1285.89	0.8205
1294.3	0.7611
1302.71	0.735
1311.11	0.7105
1319.52	0.6473
1327.92	0.7061
1336.33	0.7621
1344.73	0.7631
1353.14	0.763
1361.54	0.758
1369.95	0.7351
1378.36	0.6771
1386.76	0.6197
1395.17	0.601
1403.57	0.4697
1411.98	0.4898
1420.38	0.5228
1428.79	0.4812
1437.2	0.3697
1445.6	0.4987
1454.01	0.4198
1462.41	0.3278
1470.82	0.2287
1479.22	0.2792
1487.63	0.503
1496.03	0.4629
1504.44	0.3495
1512.85	0.2321
1521.25	0.3838
1529.66	0.2341
1538.06	0.1523
1546.47	0.1839
1554.87	0.3334
1563.28	0.5357
1571.68	0.6775
1580.09	0.7632
1588.5	0.7232
1596.9	0.507
1605.31	0.6411
1613.71	0.708
1622.12	0.7539
1630.52	0.782
1638.93	0.781
1647.34	0.787
1655.74	0.7795
1664.15	0.7584
1672.55	0.6849
1680.96	0.6562
1689.36	0.5509
1697.77	0.4251
1706.17	0.2883
1714.58	0.21
1722.99	0.3145
1731.39	0.4281
1739.8	0.5608
1748.2	0.6984
1756.61	0.7853
1765.01	0.8318
1773.42	0.8863
1781.82	0.9025
1790.23	0.9086
1798.64	0.913
1807.04	0.9191
1815.45	0.9221
1823.85	0.925
1832.26	0.929
1840.66	0.9261
1849.07	0.9201
1857.48	0.9142
1865.88	0.911
1874.29	0.901
1882.69	0.89
1891.1	0.929
1899.5	0.93
1907.91	0.9283
1916.31	0.9253
1924.72	0.922
1933.13	0.922
1941.53	0.922
1949.94	0.919
1958.34	0.9175
1966.75	0.9131
1975.15	0.9092
1983.56	0.9046
1991.96	0.9
2000.37	0.9
2008.78	0.9
2017.18	0.8974
2025.59	0.893
2033.99	0.8887
2042.4	0.886
2050.8	0.888
2059.21	0.8887
2067.61	0.8893
2076.02	0.892
2084.43	0.888
2092.83	0.886
2101.24	0.884
2109.64	0.882
2118.05	0.877
2126.45	0.875
2134.86	0.875
2143.27	0.876
2151.67	0.876
2160.08	0.876
2168.48	0.875
2176.89	0.874
2185.29	0.8717
2193.7	0.87
2202.1	0.87
2210.51	0.868
2218.92	0.863
2227.32	0.8597
2235.73	0.859
2244.13	0.859
2252.54	0.8567
2260.94	0.853
2269.35	0.851
2277.75	0.8517
2286.16	0.8477
2294.57	0.8453
2302.97	0.8417
2311.38	0.8387
2319.78	0.834
2328.19	0.8297
2336.59	0.828
2345	0.828
2353.41	0.827
2361.81	0.823
2370.22	0.8283
2378.62	0.829
2387.03	0.8287
2395.43	0.828
2403.84	0.8237
2412.24	0.8167
2420.65	0.812
2429.06	0.81
2437.46	0.809
2445.87	0.8093
2454.27	0.81
2462.68	0.81
2471.08	0.8074
2479.49	0.806
2487.89	0.803
2496.3	0.8
2504.71	0.7997
2513.11	0.7977
2521.52	0.794
2529.92	0.791
2538.33	0.7894
2546.73	0.7877
2555.14	0.788
2563.55	0.787
2571.95	0.782
2580.36	0.78
2588.76	0.78
2597.17	0.779
2605.57	0.778
2613.98	0.779
2622.38	0.779
2630.79	0.778
2639.2	0.776
2647.6	0.775
2656.01	0.774
2664.41	0.7747
2672.82	0.773
2681.22	0.769
2689.63	0.768
2698.03	0.7667
2706.44	0.763
2714.85	0.762
2723.25	0.7594
2731.66	0.757
2740.06	0.756
2748.47	0.755
2756.87	0.75
2765.28	0.7487
2773.69	0.748
2782.09	0.7437
2790.5	0.7417
2798.9	0.7335
2807.31	0.725
2815.71	0.7194
2824.12	0.7009
2832.52	0.6845
2840.93	0.7046
2849.34	0.721
2857.74	0.72
2866.15	0.719
2874.55	0.717
2882.96	0.7017
2891.36	0.6877
2899.77	0.6707
2908.17	0.6684
2916.58	0.669
2924.99	0.67
2933.39	0.672
2941.8	0.678
2950.2	0.6571
2958.61	0.6255
2967.01	0.6571
2975.42	0.7096
2983.83	0.709
2992.23	0.706
3000.64	0.6957
3009.04	0.689
3017.45	0.684
3025.85	0.718
3034.26	0.7137
3042.66	0.7087
3051.07	0.706
3059.48	0.7057
3067.88	0.705
3076.29	0.705
3084.69	0.705
3093.1	0.703
3101.5	0.6984
3109.91	0.695
3118.31	0.695
3126.72	0.695
3135.13	0.694
3143.53	0.694
3151.94	0.6924
3160.34	0.689
3168.75	0.687
3177.15	0.685
3185.56	0.681
3193.97	0.678
3202.37	0.676
3210.78	0.672
3219.18	0.667
3227.59	0.661
3235.99	0.651
3244.4	0.6464
3252.8	0.6397
3261.21	0.635
3269.62	0.6277
3278.02	0.6204
3286.43	0.6107
3294.83	0.6004
3303.24	0.5947
3311.64	0.5671
3320.05	0.5461
3328.45	0.4933
3336.86	0.4289
3345.27	0.3444
3353.67	0.3959
3362.08	0.474
3370.48	0.5139
3378.89	0.6403
3387.29	0.646
3395.7	0.647
3404.1	0.646
3412.51	0.645
3420.92	0.648
3429.32	0.651
3437.73	0.654
3446.13	0.655
3454.54	0.6577
3462.94	0.658
3471.35	0.657
3479.76	0.659
3488.16	0.659
3496.57	0.6616
3504.97	0.6633
3513.38	0.666
3521.78	0.67
3530.19	0.671
3538.59	0.672
3547	0.6723
3555.41	0.675
3563.81	0.676
3572.22	0.679
3580.62	0.6833
3589.03	0.685
3597.43	0.6873
3605.84	0.687
3614.24	0.688
3622.65	0.688
3631.06	0.688
3639.46	0.689
3647.87	0.689
3656.27	0.688
3664.68	0.6877
3673.08	0.684
3681.49	0.684
3689.9	0.684
3698.3	0.6837
3706.71	0.683
3715.11	0.683
3723.52	0.682
3731.92	0.682
3740.33	0.682
3748.73	0.681
3757.14	0.682
3765.55	0.682
3773.95	0.682
3782.36	0.682
3790.76	0.6787
3799.17	0.679
3807.57	0.678
3815.98	0.677
3824.38	0.677
3832.79	0.677
3841.2	0.675
3849.6	0.673
3858.01	0.671
3866.41	0.67
3874.82	0.669
3883.22	0.669
3891.63	0.669
3900.04	0.6697
