Infrared Spectrum: t-Nonyl mercaptan
Formula: C 9 H 20 S
CAS: 25360-10-5
State: gas
Origin: EPA-IR VAPOR PHASE LIBRARY
1/CM	ABSORBANCE
549.8	6.924e-05
559.445	0
569.09	0.0006367
578.734	0.000423
588.379	0.0004447
598.024	0.000306
607.669	0.0003625
617.313	0.0003098
626.958	0.0002444
636.603	0.0003138
646.248	6.291e-05
655.893	0.00010466
665.537	0.0003805
675.182	3.982e-05
684.827	0.0003233
694.472	0.00011045
704.116	0.0001792
713.761	0.0003453
723.406	0.0004852
733.051	0.000574
742.695	0.0007592
752.34	0.0007061
761.985	0.0007065
771.63	0.0007611
781.275	0.0008447
790.919	0.0008458
800.564	0.001073
810.209	0.001083
819.854	0.001243
829.498	0.001143
839.143	0.0009935
848.788	0.0008912
858.433	0.0008245
868.078	0.0008185
877.722	0.0005713
887.367	0.0006924
897.012	0.0006347
906.657	0.0007527
916.301	0.000728
925.946	0.0007863
935.591	0.0006874
945.236	0.0006131
954.88	0.0006397
964.525	0.0007035
974.17	0.0008292
983.815	0.0008357
993.46	0.001063
1003.1	0.001343
1012.75	0.001253
1022.39	0.001133
1032.04	0.001007
1041.68	0.000853
1051.33	0.0008518
1060.97	0.0008912
1070.62	0.0009957
1080.26	0.001563
1089.91	0.001533
1099.55	0.001593
1109.2	0.001643
1118.84	0.001983
1128.49	0.002903
1138.13	0.002773
1147.78	0.002173
1157.42	0.001793
1167.07	0.001313
1176.71	0.0008571
1186.36	0.0007168
1196	0.0005901
1205.64	0.0006967
1215.29	0.0007684
1224.93	0.0007059
1234.58	0.0007754
1244.22	0.001013
1253.87	0.0009093
1263.51	0.001093
1273.16	0.001253
1282.8	0.001513
1292.45	0.001533
1302.09	0.001453
1311.74	0.001423
1321.38	0.001473
1331.03	0.001653
1340.67	0.001763
1350.32	0.001843
1359.96	0.002463
1369.61	0.004653
1379.25	0.007553
1388.9	0.006863
1398.54	0.003273
1408.18	0.001573
1417.83	0.001423
1427.47	0.001693
1437.12	0.002783
1446.76	0.005053
1456.41	0.007693
1466.05	0.008183
1475.7	0.005633
1485.34	0.002823
1494.99	0.001503
1504.63	0.001073
1514.28	0.0008683
1523.92	0.0007537
1533.57	0.0006204
1543.21	0.0005689
1552.86	0.00058
1562.5	0.0005519
1572.15	0.0005126
1581.79	0.0004856
1591.44	0.0003814
1601.08	0.0004665
1610.73	0.000385
1620.37	0.0004467
1630.01	0.0004132
1639.66	0.0004461
1649.3	0.0003662
1658.95	0.0003901
1668.59	0.000294
1678.24	0.0003274
1687.88	0.0003347
1697.53	0.0003127
1707.17	0.0003375
1716.82	0.0002677
1726.46	0.0002514
1736.11	0.0001559
1745.75	0.0002689
1755.4	0.0002636
1765.04	0.0002885
1774.69	0.000238
1784.33	0.0002798
1793.98	0.0002265
1803.62	0.0002467
1813.27	0.0002641
1822.91	0.0002813
1832.55	0.0003407
1842.2	0.0002453
1851.84	0.0002974
1861.49	0.000235
1871.13	0.0002615
1880.78	0.0002606
1890.42	0.0002271
1900.07	0.0002989
1909.71	0.0002909
1919.36	0.0002543
1929	0.0002709
1938.65	0.0002124
1948.29	0.000237
1957.94	0.0002855
1967.58	0.0002465
1977.23	0.0003264
1986.87	0.000277
1996.52	0.0003221
2006.16	0.0003009
2015.81	0.0002873
2025.45	0.0002569
2035.1	0.0003039
2044.74	0.0002766
2054.38	0.0002897
2064.03	0.000313
2073.67	0.0003004
2083.32	0.0003785
2092.96	0.0003565
2102.61	0.0002593
2112.25	0.0003633
2121.9	0.0002723
2131.54	0.0003331
2141.19	0.0003339
2150.83	0.0003656
2160.48	0.0003084
2170.12	0.0003141
2179.77	0.0003236
2189.41	0.0003008
2199.06	0.0003114
2208.7	0.0003865
2218.35	0.0003773
2227.99	0.0003796
2237.64	0.0003715
2247.28	0.0003828
2256.92	0.0003466
2266.57	0.0003409
2276.21	0.0003239
2285.86	0.0004043
2295.5	0.0004163
2305.15	0.0004119
2314.79	0.0004187
2324.44	0.0004096
2334.08	0.0004221
2343.73	0.0004439
2353.37	0.0004383
2363.02	0.0003965
2372.66	0.0003292
2382.31	0.0004828
2391.95	0.000533
2401.6	0.0004522
2411.24	0.0004128
2420.89	0.0004264
2430.53	0.0003995
2440.18	0.0004812
2449.82	0.0004619
2459.47	0.0004058
2469.11	0.0004201
2478.75	0.0004511
2488.4	0.0004713
2498.04	0.0004968
2507.69	0.0004469
2517.33	0.0004828
2526.98	0.0004928
2536.62	0.0006183
2546.27	0.0006005
2555.91	0.0005016
2565.56	0.0007837
2575.2	0.001013
2584.85	0.001393
2594.49	0.001403
2604.14	0.001093
2613.78	0.0008754
2623.43	0.0008098
2633.07	0.0006843
2642.72	0.0007864
2652.36	0.0008268
2662.01	0.0007935
2671.65	0.0007826
2681.29	0.0007566
2690.94	0.0007541
2700.58	0.0008435
2710.23	0.0008543
2719.87	0.0009452
2729.52	0.001103
2739.16	0.001313
2748.81	0.001323
2758.45	0.001173
2768.1	0.001243
2777.74	0.001443
2787.39	0.001373
2797.03	0.001763
2806.68	0.001953
2816.32	0.002183
2825.97	0.002623
2835.61	0.003583
2845.26	0.005043
2854.9	0.008023
2864.55	0.011883
2874.19	0.016863
2883.84	0.020613
2893.48	0.019623
2903.12	0.018243
2912.77	0.020453
2922.41	0.025913
2932.06	0.033093
2941.7	0.037583
2951.35	0.035113
2960.99	0.040143
2970.64	0.048353
2980.28	0.037963
2989.93	0.021123
2999.57	0.009953
3009.22	0.005483
3018.86	0.003923
3028.51	0.003053
3038.15	0.002613
3047.8	0.002133
3057.44	0.001843
3067.09	0.001743
3076.73	0.001853
3086.38	0.001723
3096.02	0.001573
3105.67	0.001453
3115.31	0.001373
3124.95	0.001213
3134.6	0.001113
3144.24	0.001053
3153.89	0.0010002
3163.53	0.0010103
3173.18	0.001073
3182.82	0.0008907
3192.47	0.0008291
3202.11	0.0008669
3211.76	0.000633
3221.4	0.0007937
3231.05	0.0007214
3240.69	0.0006849
3250.34	0.0005711
3259.98	0.0005064
3269.63	0.0005887
3279.27	0.0005737
3288.92	0.0005598
3298.56	0.0004264
3308.21	0.0004668
3317.85	0.000538
3327.49	0.0005566
3337.14	0.0005015
3346.78	0.0005421
3356.43	0.0004036
3366.07	0.000495
3375.72	0.0006073
3385.36	0.000485
3395.01	0.0005074
3404.65	0.0004192
3414.3	0.0005875
3423.94	0.000606
3433.59	0.0005163
3443.23	0.0005772
3452.88	0.0004781
3462.52	0.0004444
3472.17	0.0004959
3481.81	0.0003693
3491.46	0.0004787
3501.1	0.0004392
3510.75	0.0005074
3520.39	0.0006089
3530.04	0.0005074
3539.68	0.000492
3549.32	0.0003171
3558.97	0.0005268
3568.61	0.0004774
3578.26	0.0005852
3587.9	0.0003828
3597.55	0.0004668
3607.19	0.0004038
3616.84	0.0004602
3626.48	0.0005337
3636.13	0.0004482
3645.77	0.0005335
3655.42	0.000502
3665.06	0.0005252
3674.71	0.0003005
3684.35	0.0003748
3694	0.0004902
3703.64	0.0004415
3713.29	0.0005837
3722.93	0.0004118
3732.58	0.0004704
3742.22	0.0006441
3751.86	0.0005607
3761.51	0.0005478
3771.15	0.000467
3780.8	0.0004762
3790.44	0.0004683
3800.09	0.0004499
3809.73	0.000605
3819.38	0.0003208
3829.02	0.0005016
3838.67	0.0004678
3848.31	0.0006514
3857.96	0.0004834
3867.6	0.0004978
3877.25	0.0005208
3886.89	0.0006386
3896.54	0.0005466
3906.18	0.0004958
3915.83	0.0004885
3925.47	0.0005493
3935.12	0.0005544
3944.76	0.0008131
3954.41	0.0005559
3964.05	0.0005764
3973.69	0.0006843
3983.34	0.0006088
3992.98	0.0005559
