Infrared Spectrum: 1-(3-Tolyl)imidazole
Formula: C 10 H 10 N 2
CAS: 25364-43-6
State: gas
Origin: EPA-IR VAPOR PHASE LIBRARY
1/CM	ABSORBANCE
549.8	0.000707
559.445	0.0003975
569.09	0.0008603
578.734	0.0006637
588.379	0.000844
598.024	0.0008461
607.669	0.001301
617.313	0.002271
626.958	0.003701
636.603	0.004731
646.248	0.010301
655.893	0.015591
665.537	0.012111
675.182	0.013251
684.827	0.018691
694.472	0.022341
704.116	0.016231
713.761	0.019051
723.406	0.024731
733.051	0.015401
742.695	0.007051
752.34	0.005051
761.985	0.008811
771.63	0.020771
781.275	0.035931
790.919	0.022661
800.564	0.017041
810.209	0.019951
819.854	0.013331
829.498	0.013021
839.143	0.012511
848.788	0.004941
858.433	0.005371
868.078	0.007301
877.722	0.005921
887.367	0.007601
897.012	0.013651
906.657	0.007271
916.301	0.001641
925.946	0.0009349
935.591	0.0008934
945.236	0.0011637
954.88	0.001431
964.525	0.002521
974.17	0.004351
983.815	0.005511
993.46	0.007071
1003.1	0.007811
1012.75	0.005781
1022.39	0.003851
1032.04	0.004411
1041.68	0.015581
1051.33	0.064781
1060.97	0.057811
1070.62	0.010621
1080.26	0.007251
1089.91	0.009371
1099.55	0.010721
1109.2	0.010421
1118.84	0.007281
1128.49	0.003501
1138.13	0.002441
1147.78	0.002291
1157.42	0.002081
1167.07	0.002671
1176.71	0.003391
1186.36	0.008831
1196	0.013181
1205.64	0.006971
1215.29	0.003851
1224.93	0.004391
1234.58	0.013161
1244.22	0.021991
1253.87	0.013771
1263.51	0.006861
1273.16	0.005491
1282.8	0.008571
1292.45	0.025791
1302.09	0.051921
1311.74	0.037181
1321.38	0.012201
1331.03	0.004421
1340.67	0.003221
1350.32	0.003961
1359.96	0.006281
1369.61	0.007971
1379.25	0.005811
1388.9	0.003741
1398.54	0.003491
1408.18	0.003621
1417.83	0.004221
1427.47	0.006331
1437.12	0.009721
1446.76	0.013851
1456.41	0.018201
1466.05	0.022431
1475.7	0.041611
1485.34	0.074821
1494.99	0.131021
1504.63	0.120201
1514.28	0.042601
1523.92	0.020661
1533.57	0.018591
1543.21	0.014551
1552.86	0.010691
1562.5	0.013711
1572.15	0.022121
1581.79	0.029911
1591.44	0.039061
1601.08	0.045101
1610.73	0.052991
1620.37	0.036401
1630.01	0.012621
1639.66	0.005591
1649.3	0.005321
1658.95	0.006511
1668.59	0.004991
1678.24	0.003071
1687.88	0.002881
1697.53	0.004581
1707.17	0.003771
1716.82	0.002061
1726.46	0.002241
1736.11	0.002331
1745.75	0.002021
1755.4	0.002061
1765.04	0.001921
1774.69	0.001601
1784.33	0.001371
1793.98	0.0011386
1803.62	0.0009947
1813.27	0.0008116
1822.91	0.0011137
1832.55	0.001291
1842.2	0.001331
1851.84	0.001571
1861.49	0.001821
1871.13	0.001271
1880.78	0.0007372
1890.42	0.0005673
1900.07	0.0007253
1909.71	0.0008651
1919.36	0.001381
1929	0.002011
1938.65	0.001751
1948.29	0.0010129
1957.94	0.000613
1967.58	0.0006417
1977.23	0.0006834
1986.87	0.0006562
1996.52	0.0005134
2006.16	0.0004281
2015.81	0.0004639
2025.45	0.0004018
2035.1	0.0004425
2044.74	0.0004198
2054.38	0.0005259
2064.03	0.0004954
2073.67	0.0004249
2083.32	0.000434
2092.96	0.0004159
2102.61	0.0004672
2112.25	0.0004554
2121.9	0.0003852
2131.54	0.000572
2141.19	0.0006218
2150.83	0.0006057
2160.48	0.0006088
2170.12	0.0006422
2179.77	0.0006885
2189.41	0.0005265
2199.06	0.000608
2208.7	0.0006095
2218.35	0.0006472
2227.99	0.0005923
2237.64	0.0004429
2247.28	0.0003976
2256.92	0.0004621
2266.57	0.0005952
2276.21	0.0006197
2285.86	0.0006724
2295.5	0.0007945
2305.15	0.0007207
2314.79	0.0005111
2324.44	0.0005225
2334.08	0.0006516
2343.73	0.0008097
2353.37	0.0008468
2363.02	0.0007203
2372.66	0.000688
2382.31	0.0006823
2391.95	0.0008109
2401.6	0.0009326
2411.24	0.0009444
2420.89	0.0010302
2430.53	0.0009197
2440.18	0.000647
2449.82	0.0006373
2459.47	0.0006351
2469.11	0.0007392
2478.75	0.000972
2488.4	0.0011142
2498.04	0.001381
2507.69	0.0011664
2517.33	0.0009839
2526.98	0.0009493
2536.62	0.0010628
2546.27	0.001261
2555.91	0.001381
2565.56	0.001531
2575.2	0.001591
2584.85	0.001461
2594.49	0.001481
2604.14	0.001461
2613.78	0.001191
2623.43	0.0009743
2633.07	0.0006842
2642.72	0.0005844
2652.36	0.0007145
2662.01	0.0006163
2671.65	0.0008769
2681.29	0.0008189
2690.94	0.0008358
2700.58	0.0008295
2710.23	0.0011088
2719.87	0.001491
2729.52	0.001701
2739.16	0.001591
2748.81	0.001581
2758.45	0.001411
2768.1	0.001391
2777.74	0.001551
2787.39	0.001661
2797.03	0.001551
2806.68	0.001371
2816.32	0.0011457
2825.97	0.001311
2835.61	0.001531
2845.26	0.002131
2854.9	0.002911
2864.55	0.004231
2874.19	0.005991
2883.84	0.006211
2893.48	0.005281
2903.12	0.005571
2912.77	0.007231
2922.41	0.010621
2932.06	0.014231
2941.7	0.012541
2951.35	0.008441
2960.99	0.005911
2970.64	0.004861
2980.28	0.004161
2989.93	0.004701
2999.57	0.005501
3009.22	0.005751
3018.86	0.006081
3028.51	0.008701
3038.15	0.012891
3047.8	0.015351
3057.44	0.014421
3067.09	0.013001
3076.73	0.010441
3086.38	0.007031
3096.02	0.004701
3105.67	0.004311
3115.31	0.005141
3124.95	0.005601
3134.6	0.003241
3144.24	0.002181
3153.89	0.002311
3163.53	0.001251
3173.18	0.0007544
3182.82	0.0005392
3192.47	0.0002993
3202.11	0.0003655
3211.76	0.0002963
3221.4	0.0003293
3231.05	0.0003433
3240.69	0.0002317
3250.34	0.0003147
3259.98	0.0003274
3269.63	0.00027111
3279.27	0.00018997
3288.92	0.000318
3298.56	0.0001245
3308.21	0.0001628
3317.85	0.0003202
3327.49	0.0001189
3337.14	0.0002956
3346.78	0.0004356
3356.43	0.00022787
3366.07	0.0003488
3375.72	0.00020285
3385.36	0.0003614
3395.01	0.0004022
3404.65	0.000344
3414.3	0.0005029
3423.94	0.0003192
3433.59	8e-05
3443.23	0.0001531
3452.88	0.00023619
3462.52	0.0001717
3472.17	0.000344
3481.81	0.0004084
3491.46	0.0001493
3501.1	0.00023762
3510.75	8.95e-05
3520.39	0.000181484
3530.04	0.000293
3539.68	0.0003582
3549.32	0.0003053
3558.97	0.0003176
3568.61	0.0003457
3578.26	0.000188254
3587.9	0.00027829
3597.55	0.0001455
3607.19	0.0003097
3616.84	0.0003884
3626.48	0.0001684
3636.13	0.0004137
3645.77	0.0002964
3655.42	0.0003983
3665.06	0.0002845
3674.71	0.0003047
3684.35	0.00019226
3694	0.00027743
3703.64	0.0004357
3713.29	0.0003263
3722.93	0.0005018
3732.58	0.0004404
3742.22	0.0003189
3751.86	0.0003169
3761.51	0.0004385
3771.15	0.0004011
3780.8	0.0003797
3790.44	0.0003246
3800.09	0.0003196
3809.73	0.0002642
3819.38	0.0002953
3829.02	0.00025454
3838.67	0.000184849
3848.31	0.000393
3857.96	0.0003986
3867.6	0.0003827
3877.25	0.00027776
3886.89	0.0004176
3896.54	0.0004471
3906.18	0.000325
3915.83	0.0004652
3925.47	0.0005339
3935.12	0.0003283
3944.76	0.000486
3954.41	0.00025301
3964.05	0.0003488
3973.69	0.0004844
3983.34	0.0003616
3992.98	0.0004461
