Infrared Spectrum: 2-Amino-6-methylbenzothiazole
Formula: C 8 H 8 N 2 S
CAS: 2536-91-6
State: gas
Instrument: HP-GC/MS/IRD
Origin: NIST Mass Spectrometry Data Center
1/CM	ABSORBANCE
550	0.0019406
562	0.0026908
574	0.0021111
586	0.0020677
598	0.0027032
610	0.0020832
622	0.0015624
634	0.0026288
646	0.0036735
658	0.0030814
670	0.0028861
682	0.002263
694	0.002294
706	0.002666
718	0.0021576
730	0.001953
742	0.002325
754	0.0024862
766	0.0023839
778	0.0024924
790	0.0029388
802	0.0059427
814	0.0113181
826	0.0066278
838	0.0021576
850	0.0016461
862	0.0012989
874	0.0007192
886	0.0006913
898	0.0010974
910	0.0009331
922	0.000434
934	0.00031
946	0.0003255
958	0.0002139
970	0.0001612
982	0.0002108
994	0.0003503
1006	0.0002759
1018	4.96e-05
1030	0.000217
1042	0.0004247
1054	0.0010323
1066	0.0007812
1078	0.0017701
1090	0.0044578
1102	0.0037789
1114	0.0014229
1126	0.0006696
1138	0.0001674
1150	6.2e-05
1162	3.1e-05
1174	0.0001488
1186	0.0001581
1198	0.0006138
1210	0.0006696
1222	0.0004619
1234	0.000961
1246	0.0022878
1258	0.0042439
1270	0.007161
1282	0.0114514
1294	0.0120838
1306	0.0125829
1318	0.0118668
1330	0.0063488
1342	0.0025761
1354	0.0011439
1366	0.0005456
1378	0.0003937
1390	0.000465
1402	0.001395
1414	0.0019561
1426	0.001457
1438	0.0018879
1450	0.0076725
1462	0.0167648
1474	0.0078771
1486	0.0020274
1498	0.0014725
1510	0.0022847
1522	0.0041571
1534	0.0099014
1546	0.0282286
1558	0.0202554
1570	0.0054777
1582	0.0054374
1594	0.0110949
1606	0.0235972
1618	0.0305784
1630	0.0154597
1642	0.0051677
1654	0.0019871
1666	0.0010881
1678	0.0007502
1690	0.0007347
1702	0.0008091
1714	0.0006355
1726	0.0003317
1738	0.000248
1750	0.0003286
1762	0.0001271
1774	6.2e-05
1786	0.0001116
1798	0.0002015
1810	0.0001209
1822	1.86e-05
1834	0
1846	2.79e-05
1858	6.82e-05
1870	0.000279
1882	0.0003999
1894	0.0002356
1906	6.82e-05
1918	9.3e-06
1930	3.1e-06
1942	2.48e-05
1954	3.1e-05
1966	2.17e-05
1978	6.82e-05
1990	8.37e-05
2002	4.03e-05
2014	1.24e-05
2026	2.17e-05
2038	5.27e-05
2050	7.44e-05
2062	0.0001147
2074	9.92e-05
2086	7.13e-05
2098	8.06e-05
2110	7.13e-05
2122	7.44e-05
2134	0.0001023
2146	0.0001209
2158	0.0001364
2170	9.92e-05
2182	0.0001023
2194	0.0001426
2206	0.0001488
2218	9.61e-05
2230	7.75e-05
2242	8.68e-05
2254	9.3e-05
2266	9.3e-05
2278	7.75e-05
2290	5.27e-05
2302	6.82e-05
2314	7.13e-05
2326	8.37e-05
2338	8.06e-05
2350	7.13e-05
2362	0.0001333
2374	0.0001302
2386	0.0001364
2398	9.3e-05
2410	8.68e-05
2422	4.34e-05
2434	4.96e-05
2446	5.58e-05
2458	5.27e-05
2470	6.2e-05
2482	5.27e-05
2494	5.58e-05
2506	7.44e-05
2518	7.44e-05
2530	7.75e-05
2542	7.75e-05
2554	6.82e-05
2566	0.0001085
2578	0.0001333
2590	0.0001023
2602	0.0001178
2614	0.0001426
2626	0.0001798
2638	0.0002728
2650	0.0002325
2662	0.0001736
2674	0.0001953
2686	0.0002325
2698	0.0003069
2710	0.0003007
2722	0.0002604
2734	0.0002635
2746	0.0003596
2758	0.0001891
2770	0.0001457
2782	0.0001705
2794	0.0002139
2806	0.0002759
2818	0.0003627
2830	0.0004898
2842	0.0007502
2854	0.0011594
2866	0.0019654
2878	0.0025482
2890	0.0022382
2902	0.0021638
2914	0.0026784
2926	0.0042594
2938	0.0044795
2950	0.0023033
2962	0.001488
2974	0.001333
2986	0.0014167
2998	0.0016585
3010	0.0019437
3022	0.0026288
3034	0.0033511
3046	0.0026908
3058	0.002449
3070	0.0020429
3082	0.0016275
3094	0.001147
3106	0.000558
3118	0.0003348
3130	0.0003038
3142	0.0003844
3154	0.0003286
3166	0.000248
3178	0.0001705
3190	0.0001581
3202	0.000248
3214	0.0002697
3226	0.0002697
3238	0.0002821
3250	0.0001581
3262	0.000124
3274	9.3e-05
3286	0.000124
3298	0.0001085
3310	0.0001271
3322	0.0001705
3334	0.0001333
3346	0.0001271
3358	0.0001922
3370	0.0003813
3382	0.0008246
3394	0.0023994
3406	0.006727
3418	0.0070153
3430	0.0033015
3442	0.0010726
3454	0.0004898
3466	0.0004619
3478	0.000744
3490	0.0016523
3502	0.0030411
3514	0.0031434
3526	0.0021421
3538	0.0011935
3550	0.0004991
3562	0.0002201
3574	0.0001488
3586	0.0001147
3598	5.89e-05
3610	7.44e-05
3622	0.0001457
3634	9.3e-05
3646	0.0001116
3658	0.0001085
3670	0.0001364
3682	6.82e-05
3694	0.0001395
3706	0.0001302
3718	0.0001581
3730	0.0002046
3742	0.0001922
3754	0.0002449
3766	0.0002108
3778	0.0001984
3790	0.0001426
3802	0.0001116
3814	9.3e-05
3826	0.0001767
3838	0.0001519
