Infrared Spectrum: 1-(2-Trifluoromethylphenyl)imidazole
Formula: C 10 H 7 F 3 N 2
CAS: 25371-96-4
State: gas
Origin: EPA-IR VAPOR PHASE LIBRARY
1/CM	ABSORBANCE
549.8	0.007348
559.445	0.002768
569.09	0.001578
578.734	0.001698
588.379	0.003758
598.024	0.006988
607.669	0.006108
617.313	0.008548
626.958	0.012748
636.603	0.014598
646.248	0.025498
655.893	0.028038
665.537	0.015698
675.182	0.006158
684.827	0.007448
694.472	0.013508
704.116	0.011548
713.761	0.015958
723.406	0.038568
733.051	0.023858
742.695	0.010728
752.34	0.027748
761.985	0.074058
771.63	0.053518
781.275	0.015678
790.919	0.007448
800.564	0.012108
810.209	0.029478
819.854	0.018438
829.498	0.004778
839.143	0.004738
848.788	0.006258
858.433	0.005208
868.078	0.003538
877.722	0.004658
887.367	0.009128
897.012	0.017378
906.657	0.006098
916.301	0.002128
925.946	0.001828
935.591	0.001928
945.236	0.003578
954.88	0.012638
964.525	0.016338
974.17	0.006088
983.815	0.002648
993.46	0.002778
1003.1	0.003828
1012.75	0.006398
1022.39	0.017568
1032.04	0.048668
1041.68	0.066268
1051.33	0.095988
1060.97	0.121098
1070.62	0.076538
1080.26	0.016758
1089.91	0.023028
1099.55	0.046318
1109.2	0.060928
1118.84	0.099758
1128.49	0.103658
1138.13	0.102548
1147.78	0.172298
1157.42	0.183998
1167.07	0.125008
1176.71	0.156918
1186.36	0.182058
1196	0.078458
1205.64	0.025238
1215.29	0.017238
1224.93	0.017658
1234.58	0.030358
1244.22	0.042338
1253.87	0.032548
1263.51	0.046098
1273.16	0.051638
1282.8	0.040168
1292.45	0.064048
1302.09	0.133528
1311.74	0.243848
1321.38	0.245838
1331.03	0.072378
1340.67	0.017918
1350.32	0.011528
1359.96	0.013258
1369.61	0.015728
1379.25	0.010748
1388.9	0.005228
1398.54	0.003668
1408.18	0.003908
1417.83	0.004948
1427.47	0.006778
1437.12	0.010988
1446.76	0.023498
1456.41	0.040718
1466.05	0.040258
1475.7	0.063168
1485.34	0.090808
1494.99	0.132258
1504.63	0.157008
1514.28	0.058708
1523.92	0.023718
1533.57	0.016478
1543.21	0.010598
1552.86	0.007458
1562.5	0.009318
1572.15	0.020578
1581.79	0.031658
1591.44	0.030308
1601.08	0.037098
1610.73	0.039548
1620.37	0.020298
1630.01	0.009838
1639.66	0.007068
1649.3	0.006148
1658.95	0.006798
1668.59	0.005628
1678.24	0.002868
1687.88	0.002648
1697.53	0.004708
1707.17	0.005608
1716.82	0.003928
1726.46	0.003188
1736.11	0.002608
1745.75	0.002408
1755.4	0.002048
1765.04	0.001698
1774.69	0.001808
1784.33	0.001908
1793.98	0.001718
1803.62	0.0014087
1813.27	0.001718
1822.91	0.003048
1832.55	0.002878
1842.2	0.001438
1851.84	0.001488
1861.49	0.001648
1871.13	0.0011634
1880.78	0.0010414
1890.42	0.0011431
1900.07	0.001618
1909.71	0.002068
1919.36	0.002038
1929	0.002888
1938.65	0.003638
1948.29	0.002248
1957.94	0.002288
1967.58	0.002748
1977.23	0.001498
1986.87	0.0007594
1996.52	0.0008602
2006.16	0.0007486
2015.81	0.0008582
2025.45	0.0007949
2035.1	0.0006967
2044.74	0.000621
2054.38	0.0008022
2064.03	0.0008155
2073.67	0.0009946
2083.32	0.0011747
2092.96	0.0013338
2102.61	0.0011355
2112.25	0.0007119
2121.9	0.0006396
2131.54	0.0007893
2141.19	0.0008881
2150.83	0.0009804
2160.48	0.0010585
2170.12	0.0009351
2179.77	0.001087
2189.41	0.0010709
2199.06	0.0013207
2208.7	0.0013143
2218.35	0.0012629
2227.99	0.0013128
2237.64	0.0012805
2247.28	0.0013091
2256.92	0.0011644
2266.57	0.0012506
2276.21	0.001448
2285.86	0.001658
2295.5	0.001678
2305.15	0.001548
2314.79	0.0013203
2324.44	0.001478
2334.08	0.001758
2343.73	0.001668
2353.37	0.0012571
2363.02	0.0011203
2372.66	0.0011129
2382.31	0.0010531
2391.95	0.0011771
2401.6	0.0011413
2411.24	0.0011504
2420.89	0.0011448
2430.53	0.0011063
2440.18	0.0009379
2449.82	0.0008953
2459.47	0.0010717
2469.11	0.0010485
2478.75	0.0013006
2488.4	0.0013429
2498.04	0.0012878
2507.69	0.0013136
2517.33	0.001327
2526.98	0.001438
2536.62	0.001528
2546.27	0.001698
2555.91	0.001858
2565.56	0.001908
2575.2	0.001738
2584.85	0.001538
2594.49	0.0014086
2604.14	0.0013142
2613.78	0.0012298
2623.43	0.0011297
2633.07	0.0008416
2642.72	0.0006372
2652.36	0.0005526
2662.01	0.0005645
2671.65	0.0006494
2681.29	0.0007587
2690.94	0.0006444
2700.58	0.0007666
2710.23	0.0008424
2719.87	0.0011666
2729.52	0.0013324
2739.16	0.0013203
2748.81	0.0010121
2758.45	0.0009697
2768.1	0.0011245
2777.74	0.001458
2787.39	0.001293
2797.03	0.0009562
2806.68	0.0007831
2816.32	0.0006496
2825.97	0.0006476
2835.61	0.00049852
2845.26	0.00046778
2854.9	0.00044259
2864.55	0.0003458
2874.19	0.00049892
2883.84	0.00050867
2893.48	0.0005545
2903.12	0.0007793
2912.77	0.0010576
2922.41	0.0010078
2932.06	0.0009325
2941.7	0.0007461
2951.35	0.0008187
2960.99	0.000639
2970.64	0.00051766
2980.28	0.0006712
2989.93	0.0007477
2999.57	0.000901
3009.22	0.0011581
3018.86	0.0011686
3028.51	0.001438
3038.15	0.002278
3047.8	0.003768
3057.44	0.004858
3067.09	0.005788
3076.73	0.009038
3086.38	0.010558
3096.02	0.007018
3105.67	0.003038
3115.31	0.003448
3124.95	0.005968
3134.6	0.003498
3144.24	0.001838
3153.89	0.002718
3163.53	0.001858
3173.18	0.0008106
3182.82	0.0009228
3192.47	0.0006925
3202.11	0.00047869
3211.76	0.000278
3221.4	0.000286
3231.05	0.000326
3240.69	0.000254
3250.34	0.000251
3259.98	2.9e-05
3269.63	0.000262
3279.27	0.0003315
3288.92	0.000191
3298.56	0.000212
3308.21	0.000214
3317.85	0.0003664
3327.49	0.00017
3337.14	0.000196
3346.78	0.000208
3356.43	0.000226
3366.07	0.000308
3375.72	0.000215
3385.36	0.000224
3395.01	0.00044166
3404.65	0.0003559
3414.3	0.000276
3423.94	0.000265
3433.59	0.00027
3443.23	0.000121
3452.88	0.0003511
3462.52	0.000366
3472.17	0.000238
3481.81	0.000131
3491.46	0.000256
3501.1	0.0004006
3510.75	0.0003391
3520.39	0.0003657
3530.04	0.0003443
3539.68	0.0003486
3549.32	0.0004085
3558.97	0.0003569
3568.61	0.0003724
3578.26	0.0003846
3587.9	0.000249
3597.55	0.00044332
3607.19	0.000245
3616.84	0.000108
3626.48	0.0003486
3636.13	0.000285
3645.77	0.00047449
3655.42	0.0003338
3665.06	0.00044388
3674.71	0.0004067
3684.35	0.0005893
3694	0.00049437
3703.64	0.000669
3713.29	0.00046961
3722.93	0.000234
3732.58	0.00042072
3742.22	0.0005956
3751.86	0.00051735
3761.51	0.0003493
3771.15	0.0005017
3780.8	0.00051627
3790.44	0.000208
3800.09	0.00046936
3809.73	0.0003483
3819.38	0.0003755
3829.02	0.0003425
3838.67	0.000193
3848.31	0.0003569
3857.96	0.0005788
3867.6	0.00048655
3877.25	0.0004558
3886.89	0.000202
3896.54	0.0003885
3906.18	0.000325
3915.83	8.3e-05
3925.47	0.0003693
3935.12	0.000194
3944.76	3.7e-05
3954.41	0.000318
3964.05	0.000166
3973.69	0.000155
3983.34	0.0003822
3992.98	0.000294
