Infrared Spectrum: 1-(3-Trifluoromethylphenyl)imidazole
Formula: C 10 H 7 F 3 N 2
CAS: 25371-97-5
State: gas
Origin: EPA-IR VAPOR PHASE LIBRARY
1/CM	ABSORBANCE
549.8	0.0008865
559.445	0.0004525
569.09	0.0005425
578.734	0.0009037
588.379	0.0009936
598.024	0.0010684
607.669	0.001406
617.313	0.002236
626.958	0.002176
636.603	0.004566
646.248	0.011016
655.893	0.017936
665.537	0.012536
675.182	0.006736
684.827	0.013186
694.472	0.039926
704.116	0.057656
713.761	0.030126
723.406	0.021256
733.051	0.010796
742.695	0.005296
752.34	0.003496
761.985	0.003106
771.63	0.003986
781.275	0.009926
790.919	0.026836
800.564	0.044986
810.209	0.024586
819.854	0.009836
829.498	0.005056
839.143	0.003386
848.788	0.002936
858.433	0.003176
868.078	0.002726
877.722	0.005166
887.367	0.015576
897.012	0.022296
906.657	0.007696
916.301	0.002886
925.946	0.002066
935.591	0.001716
945.236	0.001206
954.88	0.001356
964.525	0.002456
974.17	0.005716
983.815	0.006926
993.46	0.005216
1003.1	0.004376
1012.75	0.003516
1022.39	0.003856
1032.04	0.006626
1041.68	0.029026
1051.33	0.109666
1060.97	0.062426
1070.62	0.054316
1080.26	0.036286
1089.91	0.032196
1099.55	0.031366
1109.2	0.037746
1118.84	0.030556
1128.49	0.030936
1138.13	0.078956
1147.78	0.175566
1157.42	0.175646
1167.07	0.089526
1176.71	0.123166
1186.36	0.129896
1196	0.047056
1205.64	0.016036
1215.29	0.010966
1224.93	0.012776
1234.58	0.023146
1244.22	0.035086
1253.87	0.028576
1263.51	0.022986
1273.16	0.027396
1282.8	0.039446
1292.45	0.048106
1302.09	0.056116
1311.74	0.090756
1321.38	0.233606
1331.03	0.195446
1340.67	0.034766
1350.32	0.014596
1359.96	0.018306
1369.61	0.035316
1379.25	0.034426
1388.9	0.008556
1398.54	0.004476
1408.18	0.004526
1417.83	0.007256
1427.47	0.009536
1437.12	0.012516
1446.76	0.022826
1456.41	0.044356
1466.05	0.033186
1475.7	0.057586
1485.34	0.082556
1494.99	0.105366
1504.63	0.116706
1514.28	0.033896
1523.92	0.011936
1533.57	0.008346
1543.21	0.005296
1552.86	0.004176
1562.5	0.005626
1572.15	0.011066
1581.79	0.013916
1591.44	0.020426
1601.08	0.024326
1610.73	0.025246
1620.37	0.024136
1630.01	0.009046
1639.66	0.004676
1649.3	0.004326
1658.95	0.005376
1668.59	0.004886
1678.24	0.003156
1687.88	0.002956
1697.53	0.004066
1707.17	0.006026
1716.82	0.002996
1726.46	0.001486
1736.11	0.001516
1745.75	0.001676
1755.4	0.001886
1765.04	0.002446
1774.69	0.002576
1784.33	0.002206
1793.98	0.001696
1803.62	0.001366
1813.27	0.001396
1822.91	0.001296
1832.55	0.0008928
1842.2	0.0007421
1851.84	0.0008097
1861.49	0.000995
1871.13	0.001406
1880.78	0.002276
1890.42	0.001696
1900.07	0.0009395
1909.71	0.0008016
1919.36	0.0006411
1929	0.0007819
1938.65	0.001416
1948.29	0.001926
1957.94	0.001376
1967.58	0.0009183
1977.23	0.0007662
1986.87	0.0006383
1996.52	0.0005512
2006.16	0.0003401
2015.81	0.0004036
2025.45	0.0004553
2035.1	0.0004297
2044.74	0.0004997
2054.38	0.0004681
2064.03	0.0004632
2073.67	0.0005284
2083.32	0.0006202
2092.96	0.0006483
2102.61	0.0007504
2112.25	0.0005387
2121.9	0.0007095
2131.54	0.000797
2141.19	0.000714
2150.83	0.0007281
2160.48	0.0006097
2170.12	0.0004931
2179.77	0.0004873
2189.41	0.000611
2199.06	0.000621
2208.7	0.0006982
2218.35	0.000698
2227.99	0.000627
2237.64	0.0006377
2247.28	0.0006179
2256.92	0.0007881
2266.57	0.0008239
2276.21	0.0009904
2285.86	0.001136
2295.5	0.001136
2305.15	0.0008771
2314.79	0.000738
2324.44	0.0007325
2334.08	0.0007616
2343.73	0.0009799
2353.37	0.0010475
2363.02	0.0008814
2372.66	0.0006561
2382.31	0.0006389
2391.95	0.0006272
2401.6	0.0006333
2411.24	0.0006917
2420.89	0.0008481
2430.53	0.0006689
2440.18	0.0005786
2449.82	0.0003858
2459.47	0.0004355
2469.11	0.0008112
2478.75	0.001136
2488.4	0.001206
2498.04	0.0009896
2507.69	0.0007337
2517.33	0.0006008
2526.98	0.0005592
2536.62	0.000687
2546.27	0.0008827
2555.91	0.0009968
2565.56	0.0010718
2575.2	0.001216
2584.85	0.001136
2594.49	0.001176
2604.14	0.0010011
2613.78	0.0009066
2623.43	0.0005764
2633.07	0.0004011
2642.72	0.0004354
2652.36	0.0004448
2662.01	0.0003985
2671.65	0.0003894
2681.29	0.000427
2690.94	0.0003848
2700.58	0.0005106
2710.23	0.0006393
2719.87	0.0009069
2729.52	0.0009559
2739.16	0.0008581
2748.81	0.0009804
2758.45	0.0006815
2768.1	0.0007638
2777.74	0.0008959
2787.39	0.0008401
2797.03	0.0007969
2806.68	0.0004981
2816.32	0.0004416
2825.97	0.0002634
2835.61	0.0003
2845.26	0.0002448
2854.9	0.0002239
2864.55	0.0002146
2874.19	0.0002466
2883.84	0.0003557
2893.48	0.0002912
2903.12	0.000377
2912.77	0.0005921
2922.41	0.0005218
2932.06	0.000552
2941.7	0.0005131
2951.35	0.0006063
2960.99	0.000679
2970.64	0.0006146
2980.28	0.0006859
2989.93	0.0005285
2999.57	0.0005464
3009.22	0.0004967
3018.86	0.0005093
3028.51	0.0006743
3038.15	0.0009954
3047.8	0.001656
3057.44	0.002596
3067.09	0.002866
3076.73	0.004166
3086.38	0.004436
3096.02	0.002746
3105.67	0.001896
3115.31	0.002176
3124.95	0.003406
3134.6	0.002326
3144.24	0.001246
3153.89	0.001536
3163.53	0.0006433
3173.18	0.0004349
3182.82	0.0002418
3192.47	0.0002089
3202.11	0.00014833
3211.76	0.0002201
3221.4	0.00012021
3231.05	0.0002529
3240.69	0.00014599
3250.34	0.00010098
3259.98	9.812e-05
3269.63	0.0003482
3279.27	0.0002719
3288.92	0.0002863
3298.56	2.4e-05
3308.21	0.00013589
3317.85	0.00010387
3327.49	0.0002729
3337.14	0.0002891
3346.78	0.00017642
3356.43	0.00019423
3366.07	0.00014412
3375.72	0.0002524
3385.36	0.0002919
3395.01	0.0003313
3404.65	0.0002595
3414.3	0.0003271
3423.94	0.00011662
3433.59	0.0003041
3443.23	0.00014973
3452.88	0.0003448
3462.52	0.0003209
3472.17	0.0004408
3481.81	0.0003794
3491.46	0.0003834
3501.1	0.0003392
3510.75	0.0002949
3520.39	0.0004725
3530.04	0.00020176
3539.68	0.00014925
3549.32	0.0002865
3558.97	0.00017954
3568.61	0.0004068
3578.26	0.0004357
3587.9	0.0002318
3597.55	0.0002138
3607.19	0.0004704
3616.84	7.18e-05
3626.48	0.0003545
3636.13	5.9e-05
3645.77	0.0003507
3655.42	0.0002718
3665.06	0.0002661
3674.71	0.00015955
3684.35	0.0003169
3694	0.0002959
3703.64	0.0003422
3713.29	0.0003786
3722.93	0.0004928
3732.58	0.0003967
3742.22	0.0004198
3751.86	0.0003938
3761.51	0.0003815
3771.15	0.0004995
3780.8	0.000287
3790.44	0.00010424
3800.09	0.0004428
3809.73	0.000274
3819.38	0.0004311
3829.02	0.000284
3838.67	0.0004178
3848.31	0.0003474
3857.96	0.0004234
3867.6	0.00013476
3877.25	0.0003027
3886.89	0.0004861
3896.54	0.0004013
3906.18	0.0003703
3915.83	0.0003056
3925.47	0.0002215
3935.12	0.0003061
3944.76	0.0003939
3954.41	0.0003794
3964.05	0.0002256
3973.69	0.000397
3983.34	0.0003039
3992.98	0.0002262
