Infrared Spectrum: 1-(2-Trifluoromethylphenyl)imidazoline-2-thione
Formula: C 10 H 7 F 3 N 2 S
CAS: 25372-17-2
State: gas
Origin: EPA-IR VAPOR PHASE LIBRARY
1/CM	ABSORBANCE
549.8	0.0008029
559.445	0.0008606
569.09	0.001265
578.734	0.002275
588.379	0.001725
598.024	0.001555
607.669	0.001325
617.313	0.0007596
626.958	0.0005048
636.603	0.0008607
646.248	0.001865
655.893	0.002815
665.537	0.004255
675.182	0.001535
684.827	0.001625
694.472	0.004105
704.116	0.004585
713.761	0.001355
723.406	0.0004987
733.051	0.0005908
742.695	0.0006041
752.34	0.002385
761.985	0.005775
771.63	0.002285
781.275	0.00081
790.919	0.000495
800.564	0.0003315
810.209	0.0001427
819.854	0.0003631
829.498	0.00030887
839.143	0.0003896
848.788	0.0004856
858.433	0.0006578
868.078	0.0010688
877.722	0.00030759
887.367	0.0005305
897.012	0.0011922
906.657	0.002035
916.301	0.0006912
925.946	0.0005288
935.591	0.0003803
945.236	0.0008481
954.88	0.0007722
964.525	0.001325
974.17	0.001375
983.815	0.000643
993.46	0.0005535
1003.1	0.0008572
1012.75	0.0008933
1022.39	0.001255
1032.04	0.004535
1041.68	0.005835
1051.33	0.005295
1060.97	0.006825
1070.62	0.007425
1080.26	0.003015
1089.91	0.002335
1099.55	0.003175
1109.2	0.004915
1118.84	0.006635
1128.49	0.007665
1138.13	0.010175
1147.78	0.016395
1157.42	0.008175
1167.07	0.005335
1176.71	0.011255
1186.36	0.017035
1196	0.007655
1205.64	0.003665
1215.29	0.004735
1224.93	0.004255
1234.58	0.004965
1244.22	0.007265
1253.87	0.007175
1263.51	0.005235
1273.16	0.006225
1282.8	0.004705
1292.45	0.005235
1302.09	0.011515
1311.74	0.022255
1321.38	0.018735
1331.03	0.005235
1340.67	0.001905
1350.32	0.001635
1359.96	0.001515
1369.61	0.0011836
1379.25	0.0011305
1388.9	0.002115
1398.54	0.004495
1408.18	0.004175
1417.83	0.002865
1427.47	0.006105
1437.12	0.016645
1446.76	0.021055
1456.41	0.014435
1466.05	0.011745
1475.7	0.005965
1485.34	0.003225
1494.99	0.004965
1504.63	0.006795
1514.28	0.004045
1523.92	0.001395
1533.57	0.0009447
1543.21	0.0008059
1552.86	0.0008643
1562.5	0.0008533
1572.15	0.001435
1581.79	0.002075
1591.44	0.002035
1601.08	0.002435
1610.73	0.002595
1620.37	0.001355
1630.01	0.0008967
1639.66	0.0005362
1649.3	0.0004734
1658.95	0.0003978
1668.59	0.0003542
1678.24	0.0003916
1687.88	0.00028017
1697.53	0.00034
1707.17	0.0003461
1716.82	0.0003528
1726.46	0.0004059
1736.11	0.0005052
1745.75	0.0003808
1755.4	0.0003685
1765.04	0.00027475
1774.69	0.000283
1784.33	0.00026099
1793.98	0.00025919
1803.62	0.0003838
1813.27	0.0003783
1822.91	0.0003705
1832.55	0.00030048
1842.2	0.0003709
1851.84	0.0003629
1861.49	0.00021858
1871.13	0.000228807
1880.78	0.00021534
1890.42	0.00030277
1900.07	0.0003441
1909.71	0.00027105
1919.36	0.0004016
1929	0.0004652
1938.65	0.0003955
1948.29	0.000326
1957.94	0.0004046
1967.58	0.000474
1977.23	0.00025826
1986.87	0.00025065
1996.52	0.00025006
2006.16	0.00025026
2015.81	0.0001797
2025.45	0.000226001
2035.1	0.00026662
2044.74	0.0002078
2054.38	0.000228645
2064.03	0.0002123
2073.67	0.00021922
2083.32	0.00025082
2092.96	0.0003398
2102.61	0.00028938
2112.25	0.0003166
2121.9	0.00023877
2131.54	0.00029451
2141.19	0.00026859
2150.83	0.00027376
2160.48	0.00027371
2170.12	0.0002693
2179.77	0.00025547
2189.41	0.00032332
2199.06	0.00023538
2208.7	0.00031004
2218.35	0.00025687
2227.99	0.00024689
2237.64	0.0003291
2247.28	0.00025351
2256.92	0.0003476
2266.57	0.00032163
2276.21	0.00024727
2285.86	0.0002727
2295.5	0.00031495
2305.15	0.00030102
2314.79	0.0002041
2324.44	0.0003591
2334.08	0.0004044
2343.73	0.0003387
2353.37	0.0001615
2363.02	0.00029634
2372.66	0.000225024
2382.31	0.00024795
2391.95	0.00023895
2401.6	0.00030625
2411.24	0.00025145
2420.89	0.0002018
2430.53	0.00027517
2440.18	0.00025609
2449.82	0.000228467
2459.47	0.00026922
2469.11	0.00026521
2478.75	0.0002973
2488.4	0.00032382
2498.04	0.00027031
2507.69	0.00030695
2517.33	0.0001781
2526.98	0.00023981
2536.62	0.00022027
2546.27	0.000228025
2555.91	0.0001626
2565.56	0.00026504
2575.2	0.00023513
2584.85	0.0001923
2594.49	0.00026131
2604.14	0.0002169
2613.78	0.00022207
2623.43	0.0002107
2633.07	0.00025788
2642.72	0.00032326
2652.36	0.00030537
2662.01	0.00029664
2671.65	0.0002121
2681.29	0.0001739
2690.94	0.000233377
2700.58	9.3e-05
2710.23	0.00030584
2719.87	0.00026431
2729.52	0.0001911
2739.16	0.000172
2748.81	0.000123
2758.45	0.00030978
2768.1	0.0001279
2777.74	0.00027956
2787.39	0.00021656
2797.03	0.0001944
2806.68	0.000202
2816.32	9.9e-05
2825.97	0.0002466
2835.61	0.00025626
2845.26	0.00022019
2854.9	0.00028501
2864.55	0.00028378
2874.19	0.00022283
2883.84	0.00021777
2893.48	0.0001553
2903.12	0.00024931
2912.77	0.0001398
2922.41	0.0001532
2932.06	0.0001462
2941.7	0.00030336
2951.35	0.0001923
2960.99	0.0004066
2970.64	0.0001521
2980.28	0.0001256
2989.93	0.0001535
2999.57	0.00011
3009.22	0.00029134
3018.86	0.000435
3028.51	0.0001719
3038.15	0.0005071
3047.8	0.00030821
3057.44	0.0004176
3067.09	0.000504
3076.73	0.0007666
3086.38	0.0010838
3096.02	0.0006406
3105.67	0.000453
3115.31	0.0003429
3124.95	0.0001574
3134.6	0.0003404
3144.24	0.000409
3153.89	0.0005776
3163.53	0.0001596
3173.18	0.0004912
3182.82	0.0003689
3192.47	0.0003696
3202.11	0.0002076
3211.76	0.0003284
3221.4	0.00031038
3231.05	0.00024494
3240.69	0.00028553
3250.34	0.0001289
3259.98	0.00022364
3269.63	0.000114
3279.27	0.0001834
3288.92	9.4e-05
3298.56	0.0002128
3308.21	0.0001457
3317.85	0.00021755
3327.49	0.00027346
3337.14	0.00026337
3346.78	0.0001501
3356.43	0.0001407
3366.07	0.0001474
3375.72	0.00025232
3385.36	0.00031447
3395.01	0.0003584
3404.65	0.0004408
3414.3	0.00030428
3423.94	0.0001764
3433.59	0.0003255
3443.23	0.00027204
3452.88	0.0001752
3462.52	0.0003383
3472.17	0.0005236
3481.81	0.0011792
3491.46	0.002895
3501.1	0.006935
3510.75	0.006945
3520.39	0.0011407
3530.04	0.0004613
3539.68	0.00030361
3549.32	0.000332
3558.97	0.0003944
3568.61	0.000225517
3578.26	0.0005324
3587.9	0.000446
3597.55	0.0004622
3607.19	0.00029379
3616.84	7.5e-05
3626.48	0.0003438
3636.13	0.000201
3645.77	0.00031001
3655.42	0.00029463
3665.06	0.0003434
3674.71	0.00027814
3684.35	0.00031846
3694	0.0001651
3703.64	0.000229448
3713.29	0.0001694
3722.93	0.0001447
3732.58	0.0003376
3742.22	0.00029269
3751.86	2.7e-05
3761.51	0.00027211
3771.15	0.00031352
3780.8	0.00023815
3790.44	0.00025735
3800.09	0.0004668
3809.73	0.00031208
3819.38	0.0003614
3829.02	0.00025257
3838.67	0.0003733
3848.31	0.0003696
3857.96	3.4e-05
3867.6	0.00023798
3877.25	0.000184
3886.89	0.0004686
3896.54	0.00024972
3906.18	0.0001534
3915.83	0
3925.47	0.0001381
3935.12	0.00022195
3944.76	0.00031748
3954.41	0.0004023
3964.05	0.0001806
3973.69	0.000162
3983.34	0.0003584
3992.98	0.00027774
