Infrared Spectrum: 1-(4-Trifluoromethylphenyl)imidazole
Formula: C 10 H 7 F 3 N 2
CAS: 25371-98-6
State: gas
Origin: EPA-IR VAPOR PHASE LIBRARY
1/CM	ABSORBANCE
549.8	0.0014258
559.445	0.00194
569.09	0.00314
578.734	0.00448
588.379	0.00685
598.024	0.01092
607.669	0.01119
617.313	0.0084
626.958	0.00584
636.603	0.00751
646.248	0.01217
655.893	0.01478
665.537	0.01033
675.182	0.00634
684.827	0.00714
694.472	0.01457
704.116	0.01347
713.761	0.0197
723.406	0.02217
733.051	0.01434
742.695	0.00715
752.34	0.00437
761.985	0.00376
771.63	0.00665
781.275	0.00921
790.919	0.00973
800.564	0.01676
810.209	0.02316
819.854	0.02147
829.498	0.02706
839.143	0.04181
848.788	0.03929
858.433	0.02246
868.078	0.00949
877.722	0.00435
887.367	0.00508
897.012	0.01506
906.657	0.00403
916.301	0.00196
925.946	0.00187
935.591	0.00232
945.236	0.00409
954.88	0.012
964.525	0.03251
974.17	0.00553
983.815	0.00357
993.46	0.00472
1003.1	0.00778
1012.75	0.01738
1022.39	0.03805
1032.04	0.0216
1041.68	0.07578
1051.33	0.1395
1060.97	0.04153
1070.62	0.09797
1080.26	0.03248
1089.91	0.02891
1099.55	0.05329
1109.2	0.05498
1118.84	0.06168
1128.49	0.07178
1138.13	0.11558
1147.78	0.2044
1157.42	0.212
1167.07	0.16875
1176.71	0.16386
1186.36	0.09461
1196	0.03895
1205.64	0.02067
1215.29	0.0171
1224.93	0.02054
1234.58	0.03171
1244.22	0.06455
1253.87	0.04365
1263.51	0.02687
1273.16	0.01937
1282.8	0.02564
1292.45	0.07476
1302.09	0.18677
1311.74	0.14433
1321.38	0.33547
1331.03	0.33863
1340.67	0.06212
1350.32	0.01929
1359.96	0.01494
1369.61	0.02807
1379.25	0.03764
1388.9	0.01352
1398.54	0.00873
1408.18	0.01012
1417.83	0.01472
1427.47	0.0156
1437.12	0.01354
1446.76	0.01376
1456.41	0.0178
1466.05	0.02583
1475.7	0.08824
1485.34	0.091
1494.99	0.02055
1504.63	0.03341
1514.28	0.06408
1523.92	0.07753
1533.57	0.04907
1543.21	0.02622
1552.86	0.01555
1562.5	0.01112
1572.15	0.01667
1581.79	0.01561
1591.44	0.01405
1601.08	0.02613
1610.73	0.07251
1620.37	0.07903
1630.01	0.02243
1639.66	0.00799
1649.3	0.00658
1658.95	0.00911
1668.59	0.00848
1678.24	0.00557
1687.88	0.00376
1697.53	0.00378
1707.17	0.0063
1716.82	0.00395
1726.46	0.0023
1736.11	0.00235
1745.75	0.00294
1755.4	0.00289
1765.04	0.00303
1774.69	0.0039
1784.33	0.00465
1793.98	0.00293
1803.62	0.0018
1813.27	0.0012103
1822.91	0.0012347
1832.55	0.00161
1842.2	0.00169
1851.84	0.00147
1861.49	0.0011758
1871.13	0.0011687
1880.78	0.0014245
1890.42	0.00207
1900.07	0.00329
1909.71	0.00375
1919.36	0.00299
1929	0.00198
1938.65	0.0013902
1948.29	0.0013541
1957.94	0.0013159
1967.58	0.0012143
1977.23	0.0014255
1986.87	0.00151
1996.52	0.0014069
2006.16	0.0011245
2015.81	0.0009656
2025.45	0.0009029
2035.1	0.0007886
2044.74	0.0007636
2054.38	0.0007005
2064.03	0.00086
2073.67	0.0010734
2083.32	0.0010372
2092.96	0.00154
2102.61	0.0018
2112.25	0.0015
2121.9	0.001031
2131.54	0.0008752
2141.19	0.001006
2150.83	0.0010094
2160.48	0.0009397
2170.12	0.0008339
2179.77	0.0009882
2189.41	0.0009002
2199.06	0.0011062
2208.7	0.0013764
2218.35	0.0014362
2227.99	0.0014125
2237.64	0.0012803
2247.28	0.0011683
2256.92	0.001144
2266.57	0.0015
2276.21	0.00185
2285.86	0.00209
2295.5	0.00184
2305.15	0.00161
2314.79	0.00155
2324.44	0.0015
2334.08	0.00148
2343.73	0.00148
2353.37	0.0013152
2363.02	0.0012402
2372.66	0.0011224
2382.31	0.0011029
2391.95	0.0012611
2401.6	0.001313
2411.24	0.0012169
2420.89	0.001397
2430.53	0.0012958
2440.18	0.0009829
2449.82	0.0010199
2459.47	0.0010112
2469.11	0.001185
2478.75	0.00182
2488.4	0.00223
2498.04	0.00227
2507.69	0.00178
2517.33	0.0012609
2526.98	0.0010123
2536.62	0.0012039
2546.27	0.001391
2555.91	0.00166
2565.56	0.00186
2575.2	0.00175
2584.85	0.00182
2594.49	0.00184
2604.14	0.00175
2613.78	0.00169
2623.43	0.00163
2633.07	0.00159
2642.72	0.00156
2652.36	0.0014019
2662.01	0.0010931
2671.65	0.0010763
2681.29	0.0009942
2690.94	0.000927
2700.58	0.0010677
2710.23	0.0013459
2719.87	0.00183
2729.52	0.0017
2739.16	0.0017
2748.81	0.0014111
2758.45	0.0012933
2768.1	0.00147
2777.74	0.00177
2787.39	0.00147
2797.03	0.0008636
2806.68	0.0008294
2816.32	0.0007729
2825.97	0.0009281
2835.61	0.0008992
2845.26	0.0010665
2854.9	0.0007422
2864.55	0.0005882
2874.19	0.0006024
2883.84	0.0005878
2893.48	0.0006368
2903.12	0.0006615
2912.77	0.000868
2922.41	0.0011651
2932.06	0.00158
2941.7	0.0018
2951.35	0.0015
2960.99	0.0010179
2970.64	0.0006471
2980.28	0.00049449
2989.93	0.0005991
2999.57	0.0006253
3009.22	0.0008184
3018.86	0.0007435
3028.51	0.0008238
3038.15	0.0009482
3047.8	0.00146
3057.44	0.00252
3067.09	0.00308
3076.73	0.00218
3086.38	0.00261
3096.02	0.00241
3105.67	0.00236
3115.31	0.0028
3124.95	0.00436
3134.6	0.00291
3144.24	0.00209
3153.89	0.00213
3163.53	0.0009437
3173.18	0.0005975
3182.82	0.00053291
3192.47	0.00046917
3202.11	0.000277
3211.76	0.000289
3221.4	0.00052991
3231.05	0.0003583
3240.69	0.00046155
3250.34	0.000286
3259.98	0.000113
3269.63	0.0004124
3279.27	0.0004205
3288.92	0.000215
3298.56	0.00050448
3308.21	0.000158
3317.85	0.000167
3327.49	0.000201
3337.14	0.0003938
3346.78	0.00011
3356.43	0.000259
3366.07	0.000292
3375.72	0.000267
3385.36	0.000253
3395.01	7.1e-05
3404.65	0.000305
3414.3	0.000192
3423.94	0.000213
3433.59	0.000186
3443.23	0.0003787
3452.88	0.000268
3462.52	0.000261
3472.17	0.000245
3481.81	0.0003607
3491.46	0.000346
3501.1	0.000329
3510.75	0.000331
3520.39	0.000102
3530.04	0.000269
3539.68	0.0003829
3549.32	8.6e-05
3558.97	0.000223
3568.61	0.0003677
3578.26	0.0003803
3587.9	0.0004396
3597.55	0.00025
3607.19	0.000287
3616.84	0.000217
3626.48	0.000338
3636.13	0.000318
3645.77	0.000152
3655.42	0.000183
3665.06	0.000193
3674.71	0.000167
3684.35	0.0003834
3694	0.0006142
3703.64	0.000323
3713.29	0.0003
3722.93	0.0006115
3732.58	0.00047931
3742.22	0.00047479
3751.86	0.0005767
3761.51	0.0005917
3771.15	0.00047762
3780.8	0.0005668
3790.44	0.00044457
3800.09	0.000252
3809.73	0.000336
3819.38	0.00044866
3829.02	0.0004106
3838.67	0.000436
3848.31	0.000238
3857.96	0.000333
3867.6	0.000252
3877.25	0.0004969
3886.89	0.000251
3896.54	0.0003675
3906.18	0.000277
3915.83	0.0006041
3925.47	0.00046635
3935.12	0.000286
3944.76	0.000251
3954.41	0.000191
3964.05	4e-05
3973.69	0.000344
3983.34	0.00028
3992.98	0.000336
