Infrared Spectrum: Diacetin
Formula: C 7 H 12 O 5
CAS: 25395-31-7
State: gas
Origin: EPA-IR VAPOR PHASE LIBRARY
1/CM	ABSORBANCE
501.5	0.0002668
513.074	0.0003729
524.648	0.0003741
536.222	0.0006052
547.796	0.0006266
559.37	0.0004417
570.944	0.0006824
582.518	0.00139
594.092	0.00316
605.666	0.005
617.24	0.00348
628.814	0.00366
640.388	0.00385
651.962	0.00269
663.536	0.00174
675.11	0.00139
686.684	0.00116
698.258	0.0008926
709.832	0.0005784
721.406	0.0004497
732.98	0.0004564
744.554	0.0004386
756.128	0.0004521
767.702	0.0005982
779.276	0.0007156
790.85	0.0009931
802.423	0.00167
813.997	0.00278
825.571	0.00344
837.145	0.00434
848.719	0.00504
860.293	0.00506
871.867	0.00483
883.441	0.00483
895.015	0.00439
906.589	0.00348
918.163	0.00314
929.737	0.00397
941.311	0.00581
952.885	0.0081
964.459	0.00783
976.033	0.0068
987.607	0.00772
999.181	0.01096
1010.76	0.01605
1022.33	0.02031
1033.9	0.02747
1045.48	0.03566
1057.05	0.03604
1068.63	0.03021
1080.2	0.02412
1091.77	0.02022
1103.35	0.01757
1114.92	0.01164
1126.49	0.00767
1138.07	0.00643
1149.64	0.00623
1161.22	0.00707
1172.79	0.01041
1184.36	0.01934
1195.94	0.04814
1207.51	0.14135
1219.09	0.21276
1230.66	0.11065
1242.23	0.0595
1253.81	0.03823
1265.38	0.02578
1276.96	0.01839
1288.53	0.01303
1300.1	0.00884
1311.68	0.00697
1323.25	0.00563
1334.83	0.0054
1346.4	0.00749
1357.97	0.01569
1369.55	0.03562
1381.12	0.03108
1392.7	0.01475
1404.27	0.00874
1415.84	0.00602
1427.42	0.00578
1438.99	0.0067
1450.57	0.0073
1462.14	0.00672
1473.71	0.00502
1485.29	0.00358
1496.86	0.00296
1508.44	0.00271
1520.01	0.00252
1531.58	0.00229
1543.16	0.00213
1554.73	0.002
1566.31	0.00186
1577.88	0.00176
1589.45	0.00166
1601.03	0.00164
1612.6	0.00164
1624.18	0.00175
1635.75	0.00192
1647.32	0.00206
1658.9	0.0022
1670.47	0.00237
1682.05	0.00272
1693.62	0.0035
1705.19	0.00524
1716.77	0.00849
1728.34	0.01343
1739.92	0.02157
1751.49	0.04606
1763.06	0.12036
1774.64	0.10828
1786.21	0.04142
1797.79	0.01932
1809.36	0.01084
1820.93	0.00683
1832.51	0.00454
1844.08	0.00307
1855.66	0.00226
1867.23	0.00187
1878.8	0.0017
1890.38	0.00154
1901.95	0.00138
1913.53	0.0012
1925.1	0.0010768
1936.67	0.0009916
1948.25	0.0009088
1959.82	0.0008454
1971.4	0.0007755
1982.97	0.0007689
1994.54	0.0007899
2006.12	0.0009178
2017.69	0.0010396
2029.27	0.00116
2040.84	0.00121
2052.41	0.00119
2063.99	0.00113
2075.56	0.0010947
2087.14	0.00112
2098.71	0.0010769
2110.28	0.000968
2121.86	0.0008448
2133.43	0.0006807
2145.01	0.0005649
2156.58	0.0004877
2168.15	0.0004754
2179.73	0.0004629
2191.3	0.0004504
2202.88	0.0004297
2214.45	0.0003986
2226.02	0.0003516
2237.6	0.0003734
2249.17	0.0003624
2260.74	0.000312
2272.32	0.0002949
2283.89	0.0003039
2295.47	0.0002949
2307.04	0.0002938
2318.61	0.00028
2330.19	0.0003308
2341.76	0.0003506
2353.34	0.0003488
2364.91	0.0002961
2376.48	0.000296
2388.06	0.0002739
2399.63	0.0003615
2411.21	0.0003964
2422.78	0.0004509
2434.35	0.0004391
2445.93	0.0004272
2457.5	0.0004242
2469.08	0.0003431
2480.65	0.0003215
2492.22	0.0002932
2503.8	0.0002636
2515.37	0.0001942
2526.95	0.00018579
2538.52	0.0001756
2550.09	0.0002095
2561.67	0.00019744
2573.24	0.0002716
2584.82	0.000284
2596.39	0.000283
2607.96	0.0002381
2619.54	0.0002114
2631.11	0.000201
2642.69	0.000207
2654.26	0.00019325
2665.83	0.00019419
2677.41	0.00018297
2688.98	0.0002173
2700.56	0.0002463
2712.13	0.0002657
2723.7	0.0003376
2735.28	0.0003179
2746.85	0.0003765
2758.43	0.0003466
2770	0.0003393
2781.57	0.0003616
2793.15	0.0003256
2804.72	0.0003148
2816.3	0.0003559
2827.87	0.000433
2839.44	0.0005563
2851.02	0.000663
2862.59	0.0008547
2874.17	0.000957
2885.74	0.00122
2897.31	0.00165
2908.89	0.00182
2920.46	0.00194
2932.04	0.00247
2943.61	0.00446
2955.18	0.00785
2966.76	0.00827
2978.33	0.00615
2989.91	0.00487
3001.48	0.00381
3013.05	0.0026
3024.63	0.00212
3036.2	0.00198
3047.78	0.00165
3059.35	0.00151
3070.92	0.00131
3082.5	0.00117
3094.07	0.0009814
3105.65	0.0007646
3117.22	0.0006224
3128.79	0.0005221
3140.37	0.0004328
3151.94	0.0002501
3163.52	0.0002503
3175.09	0.0001407
3186.66	0.00018073
3198.24	0.00012594
3209.81	8.57e-05
3221.39	0.00012133
3232.96	0.0001255
3244.53	0.00016634
3256.11	0.00013166
3267.68	8.34e-05
3279.26	7.55e-05
3290.83	6.1e-05
3302.4	0.00015798
3313.98	0.00011308
3325.55	0.000103505
3337.13	7.04e-05
3348.7	0.000106089
3360.27	0.00016665
3371.85	8.48e-05
3383.42	0.00018825
3395	0.00013588
3406.57	0.00012744
3418.14	0.00013003
3429.72	0.00014156
3441.29	0.0002094
3452.86	0.00019119
3464.44	0.0002099
3476.01	0.0004345
3487.59	0.0005572
3499.16	0.0009029
3510.73	0.00137
3522.31	0.00137
3533.88	0.0009231
3545.46	0.0006697
3557.03	0.0004819
3568.6	0.0003605
3580.18	0.0002591
3591.75	0.00018942
3603.33	0.00017692
3614.9	0.00017259
3626.47	0.00015944
3638.05	6.76e-05
3649.62	5.99e-05
3661.2	4.96e-05
3672.77	6.72e-05
3684.34	6.59e-05
3695.92	8.32e-05
3707.49	7.68e-05
3719.07	6.78e-05
3730.64	0.00013719
3742.21	7.49e-05
3753.79	2.18e-05
3765.36	6.16e-05
3776.94	6.87e-05
3788.51	8.25e-05
3800.08	0.000101849
3811.66	6.41e-05
3823.23	8.44e-05
3834.81	0.00019142
3846.38	6.99e-05
3857.95	0.0001802
3869.53	0.00012222
3881.1	0.00017968
3892.68	0.00015167
3904.25	0.00015583
3915.82	0.0002041
3927.4	0.0002075
3938.97	0.0002292
3950.55	0.000211
3962.12	0.0002251
3973.69	0.0002031
3985.27	0.0002314
3996.84	0.0002529
