Infrared Spectrum: Phosphorodithioic acid, o,o-dimethyl ester, s-ester with N-formyl-N-methylglycolamide
Formula: C6 H12 N O4 P S2
CAS: 2540-82-1
State: SOLUTION (10% CCl4 FOR 3800-1330, 10% CS2 FOR 1330-455 CM^-^1)
Class: COBLENTZ III
Instrument: DOW KBr FOREPRISM-GRATING
Instrument parameters: BLAZED AT 3.5, 12.0, 20.0 MICRON AND CHANGED AT 5.0, 7.5, 14.9 MICRON
Sampling: TRANSMISSION
Path length: 0.012 CM, 0.012 CM
Resolution: 2
Origin: DOW CHEMICAL COMPANY
1/CM	TRANSMITTANCE
3800	0.9822
3791	0.9839
3782	0.9812
3773	0.9827
3764	0.9824
3755	0.9824
3746	0.982
3737	0.9843
3728	0.9844
3719	0.982
3710	0.9828
3701	0.9811
3692	0.9718
3683	0.9626
3674	0.9573
3665	0.9594
3656	0.9625
3647	0.9575
3638	0.9582
3629	0.9618
3620	0.9597
3611	0.959
3602	0.9578
3593	0.9578
3584	0.9564
3575	0.9534
3566	0.9506
3557	0.9485
3548	0.9488
3539	0.9464
3530	0.9456
3521	0.942
3512	0.9407
3503	0.9402
3494	0.9401
3485	0.939
3476	0.9365
3467	0.9227
3458	0.9098
3449	0.9083
3440	0.9063
3431	0.8926
3422	0.8682
3413	0.8489
3404	0.8377
3395	0.8388
3386	0.8476
3377	0.8597
3368	0.8707
3359	0.8778
3350	0.883
3341	0.8865
3332	0.8897
3323	0.8929
3314	0.8952
3305	0.8992
3296	0.8992
3287	0.9012
3278	0.9043
3269	0.9058
3260	0.9068
3251	0.9069
3242	0.9066
3233	0.9057
3224	0.9047
3215	0.9033
3206	0.9
3197	0.8998
3188	0.8988
3179	0.8953
3170	0.8937
3161	0.893
3152	0.892
3143	0.8877
3134	0.8858
3125	0.8815
3116	0.8756
3107	0.8709
3098	0.8677
3089	0.8645
3080	0.8573
3071	0.8572
3062	0.8465
3053	0.8342
3044	0.8206
3035	0.7885
3026	0.7134
3017	0.6815
3008	0.6692
2999	0.641
2990	0.6523
2981	0.6788
2972	0.689
2963	0.6238
2954	0.291
2945	0.3544
2936	0.559
2927	0.6054
2918	0.6621
2909	0.6907
2900	0.6925
2891	0.7049
2882	0.7734
2873	0.807
2864	0.8279
2855	0.8103
2846	0.6045
2837	0.8136
2828	0.8582
2819	0.8752
2810	0.8857
2801	0.8977
2792	0.9035
2783	0.9071
2774	0.9127
2765	0.9174
2756	0.9222
2747	0.9264
2738	0.9306
2729	0.9333
2720	0.9359
2711	0.9378
2702	0.9392
2693	0.9403
2684	0.9404
2675	0.9396
2666	0.9382
2657	0.9377
2648	0.9331
2639	0.9279
2630	0.9257
2621	0.9268
2612	0.9288
2603	0.9305
2594	0.9323
2585	0.934
2576	0.9358
2567	0.9376
2558	0.9395
2549	0.9413
2540	0.9432
2531	0.9445
2522	0.9457
2513	0.947
2504	0.9481
2495	0.9491
2486	0.9501
2477	0.9532
2468	0.954
2459	0.9547
2450	0.954
2441	0.9552
2432	0.955
2423	0.9537
2414	0.9523
2405	0.9527
2396	0.9515
2387	0.956
2378	0.9673
2369	0.9768
2360	0.9811
2351	0.9848
2342	0.9817
2333	0.9754
2324	0.9763
2315	0.9715
2306	0.9682
2297	0.9685
2288	0.9664
2279	0.9633
2270	0.9579
2261	0.9535
2252	0.9509
2243	0.95
2234	0.9517
2225	0.9553
2216	0.9572
2207	0.9606
2198	0.9638
2189	0.9645
2180	0.9658
2171	0.9679
2162	0.9647
2153	0.9625
2144	0.9613
2135	0.9613
2126	0.9605
2117	0.9599
2108	0.9603
2099	0.9613
2090	0.9619
2081	0.9607
2072	0.9594
2063	0.9582
2054	0.9579
2045	0.9535
2036	0.9521
2027	0.9519
2018	0.9507
2009	0.9493
2000	0.9392
1991	0.9086
1982	0.9162
1973	0.9164
1964	0.9163
1955	0.9172
1946	0.9115
1937	0.909
1928	0.9065
1919	0.9042
1910	0.9004
1901	0.8977
1892	0.8913
1883	0.8832
1874	0.874
1865	0.8576
1856	0.8478
1847	0.8418
1838	0.8445
1829	0.8485
1820	0.8406
1811	0.8423
1802	0.8338
1793	0.8074
1784	0.8073
1775	0.8113
1766	0.7973
1757	0.7481
1748	0.629
1739	0.2471
1730	0.0277
1721	0.1938
1712	0.1761
1703	0.0033
1694	-0.0036
1685	-0.0036
1676	-0.0036
1667	0.2403
1658	0.3802
1649	0.5242
1640	0.6483
1631	0.7444
1622	0.7858
1613	0.8108
1604	0.8286
1595	0.8422
1586	0.8181
1577	0.8141
1568	0.7734
1559	0.7298
1550	0.7945
1541	0.8027
1532	0.7708
1523	0.7644
1514	0.7616
1505	0.7443
1496	0.7089
1487	0.6543
1478	0.5568
1469	0.4563
1460	0.3268
1451	0.4232
1442	0.3885
1433	0.5288
1424	0.3406
1415	0.4155
1406	0.5635
1397	0.5904
1388	0.6017
1379	0.6084
1370	0.617
1361	0.495
1352	0.4002
1343	0.3242
1334	0.1012
1325	0.2487
1316	0.3237
1307	0.4455
1298	0.1557
1289	0.3707
1280	0.4843
1271	0.4399
1262	0.5939
1253	0.6286
1244	0.5899
1235	0.6329
1226	0.7054
1217	0.7474
1208	0.7298
1199	0.668
1190	0.6814
1181	0.4785
1172	0.5728
1163	0.6772
1154	0.7158
1145	0.7328
1136	0.7438
1127	0.7391
1118	0.7252
1109	0.687
1100	0.5736
1091	0.3793
1082	0.2401
1073	0.0991
1064	0.1797
1055	0.2092
1046	0.0865
1037	0.0733
1028	0.015
1019	-0.0036
1010	0.0702
1001	0.5469
992	0.6942
983	0.71
974	0.6088
965	0.6564
956	0.7737
947	0.8337
938	0.8513
929	0.8542
920	0.8526
911	0.8367
902	0.7869
893	0.7643
884	0.7746
875	0.7776
866	0.7654
857	0.6871
848	0.4699
839	0.2165
830	0.174
821	0.1291
812	0.1941
803	0.376
794	0.5275
785	0.7059
776	0.7775
767	0.8051
758	0.8238
749	0.8412
740	0.8467
731	0.8397
722	0.8203
713	0.6101
704	0.6954
695	0.7642
686	0.6925
677	0.5026
668	0.2328
659	0.0556
650	0.3256
641	0.7598
632	0.8224
623	0.844
614	0.8543
605	0.8418
596	0.8242
587	0.8316
578	0.8454
569	0.8499
560	0.839
551	0.8096
542	0.7896
533	0.7329
524	0.6873
515	0.7135
506	0.7372
497	0.6943
488	0.6846
479	0.6859
470	0.7368
461	0.7602
