Infrared Spectrum: 5-Dimethylamino-2-methyl-3-pentyn-2-ol
Formula: C 8 H 15 N O
CAS: 25400-83-3
State: gas
Origin: EPA-IR VAPOR PHASE LIBRARY
1/CM	ABSORBANCE
549.8	0.010214
559.445	0.010584
569.09	0.009714
578.734	0.007974
588.379	0.007254
598.024	0.004414
607.669	0.004954
617.313	0.003454
626.958	0.002784
636.603	0.003274
646.248	0.002934
655.893	0.002874
665.537	0.004044
675.182	0.004984
684.827	0.005574
694.472	0.004884
704.116	0.003454
713.761	0.003014
723.406	0.001974
733.051	0.002134
742.695	0.001704
752.34	0.001804
761.985	0.0013411
771.63	0.001744
781.275	0.001624
790.919	0.002354
800.564	0.004794
810.209	0.009284
819.854	0.009984
829.498	0.010224
839.143	0.011024
848.788	0.009944
858.433	0.009444
868.078	0.006874
877.722	0.004634
887.367	0.004314
897.012	0.005154
906.657	0.007304
916.301	0.012994
925.946	0.024244
935.591	0.038314
945.236	0.039194
954.88	0.025284
964.525	0.012714
974.17	0.007414
983.815	0.008034
993.46	0.009464
1003.1	0.016874
1012.75	0.025094
1022.39	0.025414
1032.04	0.028714
1041.68	0.035514
1051.33	0.028704
1060.97	0.019714
1070.62	0.015424
1080.26	0.013154
1089.91	0.016684
1099.55	0.019924
1109.2	0.023634
1118.84	0.025004
1128.49	0.028264
1138.13	0.036694
1147.78	0.051544
1157.42	0.067414
1167.07	0.066974
1176.71	0.049894
1186.36	0.032444
1196	0.023384
1205.64	0.026764
1215.29	0.031874
1224.93	0.036084
1234.58	0.032804
1244.22	0.032924
1253.87	0.035584
1263.51	0.037944
1273.16	0.033554
1282.8	0.027814
1292.45	0.025714
1302.09	0.029014
1311.74	0.039734
1321.38	0.057954
1331.03	0.053264
1340.67	0.043044
1350.32	0.050924
1359.96	0.056164
1369.61	0.043344
1379.25	0.032874
1388.9	0.022164
1398.54	0.011904
1408.18	0.009434
1417.83	0.009974
1427.47	0.014174
1437.12	0.019294
1446.76	0.024254
1456.41	0.027424
1466.05	0.026644
1475.7	0.019794
1485.34	0.011514
1494.99	0.006834
1504.63	0.004804
1514.28	0.003784
1523.92	0.003374
1533.57	0.002924
1543.21	0.002504
1552.86	0.002194
1562.5	0.002034
1572.15	0.001634
1581.79	0.001794
1591.44	0.001824
1601.08	0.001824
1610.73	0.001694
1620.37	0.001704
1630.01	0.001714
1639.66	0.001704
1649.3	0.0013131
1658.95	0.001454
1668.59	0.0012486
1678.24	0.001484
1687.88	0.0012998
1697.53	0.0012874
1707.17	0.0010262
1716.82	0.0011331
1726.46	0.0009642
1736.11	0.0008025
1745.75	0.0010331
1755.4	0.0010101
1765.04	0.0011337
1774.69	0.0012206
1784.33	0.0011844
1793.98	0.0012051
1803.62	0.0010673
1813.27	0.0010481
1822.91	0.0010996
1832.55	0.0012384
1842.2	0.001514
1851.84	0.001424
1861.49	0.001424
1871.13	0.0012803
1880.78	0.0010507
1890.42	0.0011338
1900.07	0.0010928
1909.71	0.0007886
1919.36	0.0006889
1929	0.0006448
1938.65	0.0008939
1948.29	0.0008068
1957.94	0.0011076
1967.58	0.0009456
1977.23	0.0008989
1986.87	0.0008096
1996.52	0.0008511
2006.16	0.0009238
2015.81	0.0010446
2025.45	0.0007779
2035.1	0.0007992
2044.74	0.000843
2054.38	0.0008815
2064.03	0.0010621
2073.67	0.001514
2083.32	0.0013331
2092.96	0.0013429
2102.61	0.0012541
2112.25	0.0008362
2121.9	0.0008939
2131.54	0.0009156
2141.19	0.0006092
2150.83	0.0006963
2160.48	0.0005486
2170.12	0.0007067
2179.77	0.0008685
2189.41	0.0010745
2199.06	0.0011461
2208.7	0.0011354
2218.35	0.0012102
2227.99	0.0012713
2237.64	0.0012962
2247.28	0.0011797
2256.92	0.0009739
2266.57	0.0010546
2276.21	0.001055
2285.86	0.0010267
2295.5	0.0011533
2305.15	0.0012678
2314.79	0.0012716
2324.44	0.0008657
2334.08	0.0011066
2343.73	0.0008224
2353.37	0.0008345
2363.02	0.0008338
2372.66	0.0009579
2382.31	0.0009367
2391.95	0.0011137
2401.6	0.0007806
2411.24	0.0011074
2420.89	0.001454
2430.53	0.0012337
2440.18	0.0012746
2449.82	0.000809
2459.47	0.0011879
2469.11	0.0010468
2478.75	0.001114
2488.4	0.0012196
2498.04	0.001404
2507.69	0.001764
2517.33	0.001844
2526.98	0.001614
2536.62	0.001774
2546.27	0.001604
2555.91	0.0011562
2565.56	0.001434
2575.2	0.001464
2584.85	0.001854
2594.49	0.001594
2604.14	0.001804
2613.78	0.001984
2623.43	0.002064
2633.07	0.001734
2642.72	0.001714
2652.36	0.001794
2662.01	0.002234
2671.65	0.002524
2681.29	0.003234
2690.94	0.004214
2700.58	0.005244
2710.23	0.006364
2719.87	0.008024
2729.52	0.009164
2739.16	0.010654
2748.81	0.014524
2758.45	0.025234
2768.1	0.045074
2777.74	0.062744
2787.39	0.060294
2797.03	0.045854
2806.68	0.033484
2816.32	0.031964
2825.97	0.038094
2835.61	0.037924
2845.26	0.032024
2854.9	0.030074
2864.55	0.031954
2874.19	0.033514
2883.84	0.032924
2893.48	0.030824
2903.12	0.031824
2912.77	0.038174
2922.41	0.050044
2932.06	0.064194
2941.7	0.079994
2951.35	0.079584
2960.99	0.062454
2970.64	0.068364
2980.28	0.101574
2989.93	0.103874
2999.57	0.048274
3009.22	0.018524
3018.86	0.008844
3028.51	0.005294
3038.15	0.004384
3047.8	0.003804
3057.44	0.003544
3067.09	0.003094
3076.73	0.002784
3086.38	0.002754
3096.02	0.002884
3105.67	0.002874
3115.31	0.002404
3124.95	0.002644
3134.6	0.002444
3144.24	0.002474
3153.89	0.001894
3163.53	0.002024
3173.18	0.001984
3182.82	0.002454
3192.47	0.002934
3202.11	0.002174
3211.76	0.001924
3221.4	0.002034
3231.05	0.001934
3240.69	0.001544
3250.34	0.001454
3259.98	0.001404
3269.63	0.0008677
3279.27	0.0010705
3288.92	0.0008633
3298.56	0.0007093
3308.21	0.0011586
3317.85	0.0008401
3327.49	0.0009304
3337.14	0.0013551
3346.78	0.0009033
3356.43	0.0012846
3366.07	0.001684
3375.72	0.0009825
3385.36	0.0011069
3395.01	0.0012708
3404.65	0.0012108
3414.3	0.0007556
3423.94	0.001394
3433.59	0.0010631
3443.23	0.0010208
3452.88	0.0005272
3462.52	0.00039199
3472.17	0.000728
3481.81	0.0005322
3491.46	0.0008426
3501.1	0.0011297
3510.75	0.0007004
3520.39	0.0005516
3530.04	0.0007417
3539.68	0.0006722
3549.32	0.0005913
3558.97	0.000535
3568.61	0.0007204
3578.26	0.0009292
3587.9	0.0007009
3597.55	0.0008016
3607.19	0.001984
3616.84	0.003614
3626.48	0.007574
3636.13	0.011844
3645.77	0.012584
3655.42	0.008084
3665.06	0.003634
3674.71	0.001384
3684.35	0.0007735
3694	0.0010215
3703.64	0.0006855
3713.29	0.0002927
3722.93	0.000376313
3732.58	0.000256
3742.22	0.0007903
3751.86	0.000239
3761.51	0.0008696
3771.15	0.0009639
3780.8	0.0011588
3790.44	0.0009514
3800.09	0.000957
3809.73	0.0005937
3819.38	0.0010604
3829.02	0.0007417
3838.67	0.000863
3848.31	0.0005928
3857.96	5.9e-05
3867.6	0.0013483
3877.25	0.0005301
3886.89	0.0008065
3896.54	0.001424
3906.18	0.0007843
3915.83	0.0013582
3925.47	0.0008156
3935.12	0.001076
3944.76	0.001394
3954.41	0.001414
3964.05	0.0007487
3973.69	0.001085
3983.34	0.0010863
3992.98	0.0008006
