Infrared Spectrum: LINOLEYL ALDEHYDE
Formula: C18 H32 O
CAS: 2541-61-9
State: SOLUTION (10% CS2 FOR 5000-2380 AND 1390-625, 10% C2Cl4 FOR 2380-1390 CM^-^1)
Class: COBLENTZ
Instrument: PERKIN-ELMER
Sampling: TRANSMISSION
Path length: 0.01 CM, 0.01 CM
Resolution: 4
Origin: HORMEL INSTITUTE
MICROMETERS	TRANSMITTANCE
2.027	0.901
2.06089	0.901
2.09478	0.901
2.12867	0.903
2.16256	0.903
2.19645	0.903
2.23034	0.901
2.26424	0.895
2.29813	0.888
2.33202	0.874
2.36591	0.874
2.3998	0.876
2.43369	0.878
2.46758	0.878
2.50147	0.881
2.53536	0.888
2.56925	0.895
2.60314	0.898
2.63703	0.895
2.67092	0.896
2.70481	0.893
2.73871	0.891
2.7726	0.888
2.80649	0.869
2.84038	0.857
2.87427	0.842
2.90816	0.825
2.94205	0.808
2.97594	0.815
3.00983	0.818
3.04372	0.82
3.07761	0.822
3.1115	0.824
3.14539	0.825
3.17929	0.829
3.21318	0.832
3.24707	0.832
3.28096	0.815
3.31485	0.768
3.34874	0.463
3.38263	0.51
3.41652	0.172
3.45041	0.067
3.4843	0.23
3.51819	0.187
3.55208	0.379
3.58597	0.541
3.61986	0.71
3.65376	0.78
3.68765	0.741
3.72154	0.585
3.75543	0.751
3.78932	0.82
3.82321	0.846
3.8571	0.866
3.89099	0.873
3.92488	0.878
3.95877	0.881
3.99266	0.883
4.02655	0.893
4.06044	0.893
4.09434	0.895
4.12823	0.895
4.16212	0.896
4.19601	0.896
4.2299	0.901
4.26379	0.901
4.29768	0.895
4.33157	0.89
4.36546	0.878
4.39935	0.884
4.43324	0.886
4.46713	0.886
4.50102	0.888
4.53491	0.888
4.56881	0.888
4.6027	0.888
4.63659	0.89
4.67048	0.891
4.70437	0.891
4.73826	0.89
4.77215	0.89
4.80604	0.891
4.83993	0.888
4.87382	0.886
4.90771	0.888
4.9416	0.888
4.97549	0.888
5.00939	0.895
5.04328	0.901
5.07717	0.903
5.11106	0.903
5.14495	0.9
5.17884	0.895
5.21273	0.896
5.24662	0.895
5.28051	0.893
5.3144	0.89
5.34829	0.888
5.38218	0.881
5.41607	0.881
5.44996	0.881
5.48386	0.879
5.51775	0.864
5.55164	0.862
5.58553	0.851
5.61942	0.827
5.65331	0.81
5.6872	0.751
5.72109	0.654
5.75498	0.404
5.78887	0.15
5.82276	0.335
5.85665	0.592
5.89054	0.683
5.92443	0.722
5.95833	0.761
5.99222	0.78
6.02611	0.764
6.06	0.766
6.09389	0.774
6.12778	0.793
6.16167	0.802
6.19556	0.803
6.22945	0.803
6.26334	0.808
6.29723	0.813
6.33112	0.83
6.36501	0.832
6.39891	0.842
6.4328	0.84
6.46669	0.852
6.50058	0.859
6.53447	0.854
6.56836	0.861
6.60225	0.861
6.63614	0.854
6.67003	0.846
6.70392	0.829
6.73781	0.8
6.7717	0.766
6.80559	0.494
6.83948	0.423
6.87338	0.461
6.90727	0.526
6.94116	0.573
6.97505	0.605
7.00894	0.651
7.04283	0.673
7.07672	0.636
7.11061	0.637
7.1445	0.639
7.17839	0.634
7.21228	0.656
7.24617	0.654
7.28006	0.651
7.31396	0.663
7.34785	0.676
7.38174	0.683
7.41563	0.688
7.44952	0.705
7.48341	0.732
7.5173	0.746
7.55119	0.741
7.58508	0.741
7.61897	0.741
7.65286	0.739
7.68675	0.736
7.72064	0.737
7.75453	0.739
7.78843	0.729
7.82232	0.707
7.85621	0.702
7.8901	0.705
7.92399	0.717
7.95788	0.725
7.99177	0.725
8.02566	0.707
8.05955	0.683
8.09344	0.673
8.12733	0.692
8.16122	0.724
8.19511	0.737
8.22901	0.752
8.2629	0.759
8.29679	0.764
8.33068	0.768
8.36457	0.769
8.39846	0.769
8.43235	0.769
8.46624	0.766
8.50013	0.766
8.53402	0.768
8.56791	0.769
8.6018	0.769
8.63569	0.766
8.66958	0.764
8.70348	0.763
8.73737	0.763
8.77126	0.764
8.80515	0.764
8.83904	0.761
8.87293	0.756
8.90682	0.752
8.94071	0.751
8.9746	0.744
9.00849	0.736
9.04238	0.724
9.07627	0.727
9.11016	0.734
9.14406	0.739
9.17795	0.746
9.21184	0.746
9.24573	0.744
9.27962	0.741
9.31351	0.737
9.3474	0.737
9.38129	0.734
9.41518	0.73
9.44907	0.722
9.48296	0.722
9.51685	0.72
9.55074	0.72
9.58463	0.715
9.61853	0.712
9.65242	0.714
9.68631	0.719
9.7202	0.722
9.75409	0.72
9.78798	0.72
9.82187	0.722
9.85576	0.724
9.88965	0.73
9.92354	0.736
9.95743	0.739
9.99132	0.744
10.0252	0.749
10.0591	0.751
10.093	0.751
10.1269	0.751
10.1608	0.742
10.1947	0.737
10.2286	0.732
10.2624	0.722
10.2963	0.712
10.3302	0.705
10.3641	0.705
10.398	0.714
10.4319	0.724
10.4658	0.734
10.4997	0.736
10.5336	0.737
10.5675	0.739
10.6014	0.739
10.6352	0.742
10.6691	0.749
10.703	0.751
10.7369	0.752
10.7708	0.752
10.8047	0.752
10.8386	0.752
10.8725	0.744
10.9064	0.736
10.9403	0.722
10.9742	0.722
11.008	0.727
11.0419	0.737
11.0758	0.751
11.1097	0.756
11.1436	0.766
11.1775	0.769
11.2114	0.771
11.2453	0.773
11.2792	0.774
11.3131	0.774
11.347	0.774
11.3808	0.774
11.4147	0.774
11.4486	0.773
11.4825	0.771
11.5164	0.774
11.5503	0.773
11.5842	0.768
11.6181	0.768
11.652	0.764
11.6859	0.764
11.7198	0.764
11.7536	0.763
11.7875	0.763
11.8214	0.763
11.8553	0.764
11.8892	0.766
11.9231	0.773
11.957	0.776
11.9909	0.778
12.0248	0.78
12.0587	0.78
12.0925	0.786
12.1264	0.788
12.1603	0.79
12.1942	0.79
12.2281	0.79
12.262	0.788
12.2959	0.786
12.3298	0.781
12.3637	0.785
12.3976	0.785
12.4315	0.783
12.4653	0.781
12.4992	0.781
12.5331	0.78
12.567	0.778
12.6009	0.778
12.6348	0.778
12.6687	0.774
12.7026	0.771
12.7365	0.764
12.7704	0.763
12.8043	0.761
12.8381	0.758
12.872	0.752
12.9059	0.749
12.9398	0.742
12.9737	0.736
13.0076	0.736
13.0415	0.736
13.0754	0.73
13.1093	0.72
13.1432	0.712
13.1771	0.703
13.2109	0.697
13.2448	0.695
13.2787	0.69
13.3126	0.68
13.3465	0.673
13.3804	0.663
13.4143	0.649
13.4482	0.637
13.4821	0.617
13.516	0.604
13.5499	0.588
13.5837	0.565
13.6176	0.543
13.6515	0.521
13.6854	0.505
13.7193	0.494
13.7532	0.482
13.7871	0.47
13.821	0.458
13.8549	0.456
13.8888	0.458
13.9226	0.467
13.9565	0.47
13.9904	0.482
14.0243	0.485
14.0582	0.489
14.0921	0.495
14.126	0.5
14.1599	0.5
14.1938	0.504
14.2277	0.509
14.2616	0.51
14.2954	0.51
14.3293	0.514
14.3632	0.512
14.3971	0.512
14.431	0.516
14.4649	0.521
14.4988	0.522
14.5327	0.522
14.5666	0.522
14.6005	0.524
14.6344	0.524
14.6682	0.526
14.7021	0.529
14.736	0.531
14.7699	0.538
14.8038	0.538
14.8377	0.541
14.8716	0.546
14.9055	0.549
14.9394	0.561
14.9733	0.588
15.0072	0.563
15.041	0.538
