Infrared Spectrum: Aniline, 2-tert-butyl-5-chloro-
Formula: C10 H14 Cl N
CAS: 25414-78-2
State: LIQUID (NEAT)
Class: COBLENTZ III
Instrument: BECKMAN IR-4 (HYBRID PRISM-GRATING)
Instrument parameters: NaCl PRISM
Sampling: TRANSMISSION
Path length: CAPILLARY
Resolution: 2
Origin: MONSANTO (J. FREEMAN)
1/CM	TRANSMITTANCE
625.998	0.7433
634.892	0.7504
643.787	0.7623
652.681	0.7591
661.576	0.7655
670.47	0.7716
679.364	0.7783
688.259	0.7786
697.153	0.7633
706.048	0.7027
714.942	0.7912
723.836	0.8203
732.731	0.7986
741.625	0.784
750.52	0.8186
759.414	0.8363
768.308	0.8486
777.203	0.8465
786.097	0.7693
794.992	0.4399
803.886	0.5047
812.78	0.6392
821.675	0.681
830.569	0.7896
839.464	0.5944
848.358	0.4326
857.252	0.5855
866.147	0.7711
875.041	0.8381
883.936	0.8223
892.83	0.6617
901.724	0.3355
910.619	0.4865
919.513	0.8301
928.408	0.8775
937.302	0.9167
946.196	0.958
955.091	0.9665
963.985	0.9669
972.88	0.9719
981.774	0.9819
990.668	0.9838
999.563	0.9823
1008.46	0.9662
1017.35	0.7795
1026.25	0.7938
1035.14	0.9065
1044.03	0.9659
1052.93	0.9743
1061.82	0.9773
1070.72	0.9659
1079.61	0.9073
1088.51	0.7417
1097.4	0.6988
1106.3	0.7254
1115.19	0.3573
1124.08	0.7284
1132.98	0.8928
1141.87	0.8252
1150.77	0.9593
1159.66	0.9744
1168.56	0.9751
1177.45	0.9696
1186.35	0.9481
1195.24	0.8182
1204.13	0.8216
1213.03	0.8907
1221.92	0.894
1230.82	0.8857
1239.71	0.8437
1248.61	0.6277
1257.5	0.3466
1266.39	0.6455
1275.29	0.6704
1284.18	0.707
1293.08	0.674
1301.97	0.785
1310.87	0.8794
1319.76	0.9477
1328.66	0.9649
1337.55	0.97
1346.44	0.9671
1355.34	0.9398
1364.23	0.6365
1373.13	0.7485
1382.02	0.8371
1390.92	0.6358
1399.81	0.5771
1408.71	0.3246
1417.6	0.5639
1426.49	0.8419
1435.39	0.8092
1444.28	0.7397
1453.18	0.6972
1462.07	0.5894
1470.97	0.5521
1479.86	0.367
1488.75	0.2641
1497.65	0.1612
1506.54	0.6311
1515.44	0.7898
1524.33	0.8044
1533.23	0.8425
1542.12	0.8476
1551.02	0.795
1559.91	0.6015
1568.8	0.4433
1577.7	0.6029
1586.59	0.4098
1595.49	0.3931
1604.38	0.3084
1613.28	0.1928
1622.17	0.1397
1631.07	0.3104
1639.96	0.5259
1648.85	0.7427
1657.75	0.8407
1666.64	0.8646
1675.54	0.9259
1684.43	0.9403
1693.33	0.948
1702.22	0.9549
1711.11	0.9623
1720.01	0.97
1728.9	0.9781
1737.8	0.9857
1746.69	0.9873
1755.59	0.9871
1764.48	0.9873
1773.38	0.9893
1782.27	0.9903
1791.16	0.9897
1800.06	0.9857
1808.95	0.9814
1817.85	0.9781
1826.74	0.9767
1835.64	0.9793
1844.53	0.9781
1853.43	0.9689
1862.32	0.9586
1871.21	0.9549
1880.11	0.9563
1889	0.9609
1897.9	0.9705
1906.79	0.9765
1915.69	0.9797
1924.58	0.9808
1933.47	0.9812
1942.37	0.9815
1951.26	0.9818
1960.16	0.9821
1969.05	0.9827
1977.95	0.9833
1986.84	0.9832
1995.74	0.9831
2004.63	0.983
2013.52	0.9828
2022.42	0.9827
2031.31	0.9822
2040.21	0.9815
2049.1	0.9809
2058	0.9803
2066.89	0.9797
2075.79	0.979
2084.68	0.9784
2093.57	0.9777
2102.47	0.9771
2111.36	0.9765
2120.26	0.9759
2129.15	0.9754
2138.05	0.9748
2146.94	0.9742
2155.83	0.9737
2164.73	0.9732
2173.62	0.9728
2182.52	0.9723
2191.41	0.9718
2200.31	0.9717
2209.2	0.972
2218.1	0.9723
2226.99	0.9725
2235.88	0.9726
2244.78	0.9727
2253.67	0.9721
2262.57	0.9713
2271.46	0.97
2280.36	0.9684
2289.25	0.9673
2298.15	0.968
2307.04	0.9691
2315.93	0.9704
2324.83	0.9719
2333.72	0.9737
2342.62	0.9747
2351.51	0.9755
2360.41	0.9747
2369.3	0.9718
2378.19	0.9666
2387.09	0.9605
2395.98	0.9589
2404.88	0.9616
2413.77	0.9651
2422.67	0.9687
2431.56	0.9695
2440.46	0.9693
2449.35	0.9685
2458.24	0.9676
2467.14	0.9664
2476.03	0.9651
2484.93	0.9639
2493.82	0.9624
2502.72	0.9607
2511.61	0.9589
2520.51	0.956
2529.4	0.9524
2538.29	0.9487
2547.19	0.9441
2556.08	0.943
2564.98	0.943
2573.87	0.9437
2582.77	0.9443
2591.66	0.945
2600.55	0.9463
2609.45	0.9478
2618.34	0.9494
2627.24	0.9512
2636.13	0.948
2645.03	0.9438
2653.92	0.941
2662.82	0.9394
2671.71	0.9381
2680.6	0.9356
2689.5	0.9319
2698.39	0.9275
2707.29	0.9239
2716.18	0.9217
2725.08	0.922
2733.97	0.9224
2742.87	0.923
2751.76	0.9239
2760.65	0.9244
2769.55	0.9238
2778.44	0.9215
2787.34	0.9179
2796.23	0.9124
2805.13	0.9049
2814.02	0.895
2822.91	0.882
2831.81	0.8635
2840.7	0.8358
2849.6	0.7944
2858.49	0.5636
2867.39	0.5416
2876.28	0.5461
2885.18	0.5476
2894.07	0.5446
2902.96	0.5062
2911.86	0.4851
2920.75	0.4431
2929.65	0.3947
2938.54	0.3467
2947.44	0.2988
2956.33	0.2573
2965.23	0.2687
2974.12	0.3709
2983.01	0.4725
2991.91	0.5735
3000.8	0.6739
3009.7	0.8243
3018.59	0.8405
3027.49	0.8508
3036.38	0.857
3045.27	0.8598
3054.17	0.8612
3063.06	0.8624
3071.96	0.8646
3080.85	0.8684
3089.75	0.8753
3098.64	0.8894
3107.54	0.898
3116.43	0.8992
3125.32	0.8985
3134.22	0.8976
3143.11	0.8956
3152.01	0.8932
3160.9	0.8891
3169.8	0.8849
3178.69	0.8758
3187.59	0.8613
3196.48	0.8471
3205.37	0.8426
3214.27	0.8458
3223.16	0.8585
3232.06	0.871
3240.95	0.8738
3249.85	0.8732
3258.74	0.8705
3267.64	0.8644
3276.53	0.8517
3285.42	0.8381
3294.32	0.8246
3303.21	0.8111
3312.11	0.7978
3321	0.7833
3329.9	0.7481
3338.79	0.6745
3347.68	0.617
3356.58	0.5598
3365.47	0.537
3374.37	0.5439
3383.26	0.5853
3392.16	0.627
3401.05	0.6685
3409.95	0.7097
3418.84	0.7402
3427.73	0.7397
3436.63	0.7216
3445.52	0.7028
3454.42	0.6841
3463.31	0.6654
3472.21	0.6469
3481.1	0.6291
3490	0.6269
3498.89	0.7525
3507.78	0.8431
3516.68	0.8572
3525.57	0.8679
3534.47	0.8764
3543.36	0.8816
3552.26	0.8857
3561.15	0.8888
3570.04	0.8909
3578.94	0.8918
3587.83	0.8926
3596.73	0.893
3605.62	0.8931
3614.52	0.8933
3623.41	0.8935
3632.31	0.8936
3641.2	0.8936
3650.09	0.8936
3658.99	0.8935
3667.88	0.8935
3676.78	0.8933
3685.67	0.8932
3694.57	0.893
3703.46	0.8928
3712.36	0.8927
3721.25	0.8924
3730.14	0.8921
3739.04	0.8917
3747.93	0.8912
3756.83	0.8908
3765.72	0.8904
3774.62	0.8899
3783.51	0.8896
3792.4	0.8892
3801.3	0.8888
3810.19	0.8884
3819.09	0.8881
3827.98	0.8876
3836.88	0.8871
3845.77	0.8867
3854.67	0.8863
3863.56	0.8859
3872.45	0.8853
3881.35	0.8847
3890.24	0.8842
3899.14	0.8836
3908.03	0.883
3916.93	0.8825
3925.82	0.882
3934.72	0.8813
3943.61	0.8807
3952.5	0.8802
