Infrared Spectrum: 8-Heptadecanol
Formula: C 17 H 36 O
CAS: 2541-75-5
State: gas
Origin: EPA-IR VAPOR PHASE LIBRARY
1/CM	ABSORBANCE
549.8	0.0005822
559.445	0.001331
569.09	0.0002638
578.734	0.0005918
588.379	0.0007485
598.024	0.0004581
607.669	0.0005327
617.313	0.0003562
626.958	0.0006224
636.603	7.64e-05
646.248	0.0007543
655.893	0.0005114
665.537	0.0008807
675.182	0.0005406
684.827	0.0009269
694.472	0.0010731
704.116	0.001671
713.761	0.001981
723.406	0.002871
733.051	0.001681
742.695	0.002151
752.34	0.001541
761.985	0.001641
771.63	0.001481
781.275	0.001251
790.919	0.001471
800.564	0.001471
810.209	0.001181
819.854	0.001121
829.498	0.001521
839.143	0.001351
848.788	0.001421
858.433	0.001841
868.078	0.002401
877.722	0.002321
887.367	0.002291
897.012	0.002301
906.657	0.002551
916.301	0.002401
925.946	0.002431
935.591	0.002471
945.236	0.002331
954.88	0.003581
964.525	0.003841
974.17	0.004741
983.815	0.005341
993.46	0.006261
1003.1	0.006681
1012.75	0.006101
1022.39	0.005711
1032.04	0.005941
1041.68	0.005631
1051.33	0.005491
1060.97	0.006831
1070.62	0.006901
1080.26	0.006191
1089.91	0.005171
1099.55	0.004321
1109.2	0.004191
1118.84	0.005111
1128.49	0.005121
1138.13	0.004311
1147.78	0.003881
1157.42	0.004071
1167.07	0.003301
1176.71	0.003731
1186.36	0.003781
1196	0.005051
1205.64	0.005551
1215.29	0.006481
1224.93	0.005411
1234.58	0.005071
1244.22	0.005651
1253.87	0.005191
1263.51	0.005081
1273.16	0.004691
1282.8	0.004701
1292.45	0.004381
1302.09	0.004671
1311.74	0.004401
1321.38	0.004441
1331.03	0.004471
1340.67	0.005721
1350.32	0.006711
1359.96	0.007421
1369.61	0.007581
1379.25	0.007871
1388.9	0.006911
1398.54	0.005011
1408.18	0.003911
1417.83	0.003431
1427.47	0.003891
1437.12	0.005801
1446.76	0.008911
1456.41	0.012361
1466.05	0.012401
1475.7	0.007321
1485.34	0.003631
1494.99	0.002221
1504.63	0.001611
1514.28	0.001351
1523.92	0.001271
1533.57	0.0010337
1543.21	0.0008879
1552.86	0.0007128
1562.5	0.0007344
1572.15	0.0005442
1581.79	0.0008243
1591.44	0.0006975
1601.08	0.0004155
1610.73	0.0005098
1620.37	0.000575
1630.01	0.0003205
1639.66	0.0005857
1649.3	0.0003199
1658.95	0.0003468
1668.59	0.0005037
1678.24	0.0004553
1687.88	0.0005306
1697.53	0.0003631
1707.17	0.0004887
1716.82	0.0003154
1726.46	0.0004008
1736.11	0.0004097
1745.75	0.0003204
1755.4	0.0004758
1765.04	0.000342
1774.69	0.0003778
1784.33	0.0003979
1793.98	0.0003595
1803.62	0.0004067
1813.27	0.0003077
1822.91	0.0003663
1832.55	0.00038
1842.2	0.0003285
1851.84	0.00037
1861.49	0.0003382
1871.13	0.000325
1880.78	0.0004091
1890.42	0.0003089
1900.07	0.0004131
1909.71	0.0004288
1919.36	0.00027
1929	0.0002562
1938.65	0.0003594
1948.29	0.00019543
1957.94	0.0002835
1967.58	0.0003786
1977.23	0.0002514
1986.87	0.0002687
1996.52	0.0003537
2006.16	0.0003837
2015.81	0.0002775
2025.45	0.0005031
2035.1	0.0003037
2044.74	0.0005067
2054.38	0.0004452
2064.03	0.0003653
2073.67	0.0004843
2083.32	0.0005039
2092.96	0.0004224
2102.61	0.0006488
2112.25	0.000469
2121.9	0.0003886
2131.54	0.00020143
2141.19	0.0003928
2150.83	0.0003793
2160.48	0.0004509
2170.12	0.0002218
2179.77	0.0005411
2189.41	0.0004392
2199.06	0.0003816
2208.7	0.0003325
2218.35	0.0002866
2227.99	0.0003124
2237.64	0.0005282
2247.28	0.0003755
2256.92	0.0003229
2266.57	0.0003784
2276.21	0.0004532
2285.86	0.0005416
2295.5	0.0005435
2305.15	0.0004798
2314.79	0.0004893
2324.44	0.0002433
2334.08	0.0005165
2343.73	0.0003771
2353.37	0.0006494
2363.02	0.0006017
2372.66	0.0005269
2382.31	0.0003472
2391.95	0.0004646
2401.6	0.0002954
2411.24	0.000507
2420.89	0.000553
2430.53	0.000419
2440.18	0.0006886
2449.82	0.0005295
2459.47	0.0003821
2469.11	0.0004408
2478.75	0.0005867
2488.4	0.0005591
2498.04	0.0005247
2507.69	0.0007403
2517.33	0.0007632
2526.98	0.0006984
2536.62	0.000816
2546.27	0.0007411
2555.91	0.0010378
2565.56	0.0008557
2575.2	0.001035
2584.85	0.0007811
2594.49	0.0010794
2604.14	0.001201
2613.78	0.001221
2623.43	0.001441
2633.07	0.001491
2642.72	0.001371
2652.36	0.001731
2662.01	0.001961
2671.65	0.001901
2681.29	0.002101
2690.94	0.001781
2700.58	0.002051
2710.23	0.001901
2719.87	0.001901
2729.52	0.001961
2739.16	0.002241
2748.81	0.002351
2758.45	0.002331
2768.1	0.002501
2777.74	0.003011
2787.39	0.003621
2797.03	0.004431
2806.68	0.004931
2816.32	0.006341
2825.97	0.008601
2835.61	0.012441
2845.26	0.022041
2854.9	0.043441
2864.55	0.062581
2874.19	0.051261
2883.84	0.042341
2893.48	0.038741
2903.12	0.049351
2912.77	0.073221
2922.41	0.115661
2932.06	0.166211
2941.7	0.136201
2951.35	0.079621
2960.99	0.061481
2970.64	0.053831
2980.28	0.027521
2989.93	0.014771
2999.57	0.010041
3009.22	0.007061
3018.86	0.005171
3028.51	0.003921
3038.15	0.003431
3047.8	0.003151
3057.44	0.002501
3067.09	0.002241
3076.73	0.001971
3086.38	0.001891
3096.02	0.001571
3105.67	0.001451
3115.31	0.001331
3124.95	0.001261
3134.6	0.001551
3144.24	0.001141
3153.89	0.0005263
3163.53	0.001221
3173.18	0.0009211
3182.82	0.0009674
3192.47	0.0009893
3202.11	0.000582
3211.76	0.0009426
3221.4	0.0007164
3231.05	8.19e-05
3240.69	0.0005046
3250.34	0.0004236
3259.98	0.0004277
3269.63	0.0006471
3279.27	0.0005255
3288.92	0.0004625
3298.56	0.0004688
3308.21	0.0005338
3317.85	0.0002933
3327.49	0.0005952
3337.14	0.0005222
3346.78	0.000391
3356.43	0.0002377
3366.07	0.0003782
3375.72	0.0005404
3385.36	0.0003883
3395.01	0.000713
3404.65	0.0008826
3414.3	0.0003953
3423.94	0.0005488
3433.59	0.0003665
3443.23	0.0006733
3452.88	0.0005533
3462.52	0.000888
3472.17	0.0003357
3481.81	0.0002881
3491.46	0.0002832
3501.1	0.0006744
3510.75	0.000442
3520.39	0.0005154
3530.04	0.0004233
3539.68	0.0002215
3549.32	0.0004031
3558.97	0.0005135
3568.61	0.0004611
3578.26	0.0004878
3587.9	0.0004539
3597.55	0.0005723
3607.19	0.0010739
3616.84	0.001121
3626.48	0.001281
3636.13	0.001961
3645.77	0.002891
3655.42	0.003581
3665.06	0.002201
3674.71	0.001231
3684.35	0.0009874
3694	0.0006054
3703.64	0.0004493
3713.29	0.0007163
3722.93	0.0007591
3732.58	0.0007667
3742.22	0.0009549
3751.86	0.0005097
3761.51	0.0007454
3771.15	0.0006238
3780.8	0.0004967
3790.44	0.000483
3800.09	0.0003902
3809.73	0.0007399
3819.38	0.0007026
3829.02	0.0005126
3838.67	0.0005562
3848.31	0.0008318
3857.96	0.0009014
3867.6	0.0007756
3877.25	0.000671
3886.89	0.0005417
3896.54	0.00014519
3906.18	0.0006061
3915.83	0.0008309
3925.47	0.0005483
3935.12	0.0003241
3944.76	0.0009968
3954.41	0.0003136
3964.05	0.0007095
3973.69	0.0007907
3983.34	0.000806
3992.98	0.0010254
