Infrared Spectrum: n-Amylisovalerate
Formula: C 10 H 20 O 2
CAS: 25415-62-7
State: gas
Instrument: HP-GC/MS/IRD
Origin: NIST Mass Spectrometry Data Center
1/CM	ABSORBANCE
550	0.0002145
562	0.000117
574	9.75e-05
586	0.000273
598	0.0003861
610	0.0003393
622	0.0004836
634	0.000429
646	0.0002847
658	0.0001911
670	7.41e-05
682	0.0001092
694	0.0002652
706	0.0004953
718	0.0007293
730	0.00078
742	0.0007137
754	0.0005031
766	0.0005655
778	0.0004602
790	0.0003627
802	0.0004212
814	0.0005031
826	0.0006747
838	0.0007371
850	0.0006942
862	0.0007956
874	0.0008307
886	0.0009945
898	0.0011895
910	0.001209
922	0.0011154
934	0.0011583
946	0.001092
958	0.0013611
970	0.002145
982	0.0048048
994	0.0070512
1006	0.0058929
1018	0.0044694
1030	0.004836
1042	0.0049491
1054	0.0040599
1066	0.0044304
1078	0.0071019
1090	0.0108147
1102	0.0131898
1114	0.0134784
1126	0.0106743
1138	0.0090129
1150	0.01209
1162	0.0202098
1174	0.0276666
1186	0.028587
1198	0.0192933
1210	0.0139152
1222	0.010218
1234	0.0110175
1246	0.0141219
1258	0.0128817
1270	0.0091416
1282	0.010998
1294	0.014352
1306	0.0089778
1318	0.0055965
1330	0.0051753
1342	0.00624
1354	0.0079209
1366	0.0069303
1378	0.0059865
1390	0.0055731
1402	0.0032643
1414	0.0024531
1426	0.0031317
1438	0.0037557
1450	0.0044811
1462	0.0059631
1474	0.0053235
1486	0.0028197
1498	0.0013962
1510	0.0008775
1522	0.000624
1534	0.0004836
1546	0.0004095
1558	0.0003588
1570	0.0003744
1582	0.0004212
1594	0.000429
1606	0.0004758
1618	0.0004953
1630	0.0004992
1642	0.000507
1654	0.0005928
1666	0.0007098
1678	0.0009243
1690	0.0013767
1702	0.0024141
1714	0.0042354
1726	0.0082836
1738	0.0197496
1750	0.0358644
1762	0.0225771
1774	0.0078312
1786	0.0034788
1798	0.0017355
1810	0.001014
1822	0.0007215
1834	0.0005382
1846	0.0004446
1858	0.0003549
1870	0.0003003
1882	0.0002964
1894	0.0002613
1906	0.0002301
1918	0.0002379
1930	0.000234
1942	0.0002301
1954	0.0002262
1966	0.0002262
1978	0.000195
1990	0.0002418
2002	0.0002028
2014	0.0002028
2026	0.0002457
2038	0.0002613
2050	0.0002379
2062	0.0002262
2074	0.0001911
2086	0.0001521
2098	0.0001326
2110	0.000156
2122	0.0001131
2134	0.0001014
2146	9.75e-05
2158	0.0001014
2170	5.85e-05
2182	6.24e-05
2194	6.63e-05
2206	5.46e-05
2218	6.63e-05
2230	5.85e-05
2242	5.07e-05
2254	5.85e-05
2266	6.24e-05
2278	9.36e-05
2290	0.0001092
2302	7.8e-05
2314	8.97e-05
2326	8.19e-05
2338	7.41e-05
2350	9.36e-05
2362	7.41e-05
2374	5.46e-05
2386	5.46e-05
2398	3.9e-05
2410	5.85e-05
2422	6.63e-05
2434	6.63e-05
2446	6.24e-05
2458	3.12e-05
2470	4.29e-05
2482	3.9e-05
2494	1.56e-05
2506	3.51e-05
2518	7.8e-06
2530	2.73e-05
2542	6.63e-05
2554	1.95e-05
2566	5.07e-05
2578	7.41e-05
2590	8.97e-05
2602	8.58e-05
2614	0.0001053
2626	0.0001248
2638	0.000195
2650	0.0001911
2662	0.0002457
2674	0.0002184
2686	0.0002457
2698	0.0002691
2710	0.0002769
2722	0.0003978
2734	0.0005304
2746	0.0006201
2758	0.0006006
2770	0.0006552
2782	0.0006396
2794	0.0008112
2806	0.0010491
2818	0.0014391
2830	0.0020124
2842	0.0029913
2854	0.0051168
2866	0.0089076
2878	0.013065
2890	0.0130923
2902	0.0126867
2914	0.0154479
2926	0.0213174
2938	0.0281502
2950	0.0295698
2962	0.0364884
2974	0.0348972
2986	0.0164658
2998	0.0068172
3010	0.0034749
3022	0.0021606
3034	0.0014742
3046	0.0011193
3058	0.0008502
3070	0.0007332
3082	0.0006903
3094	0.0006279
3106	0.0005421
3118	0.0004329
3130	0.0003861
3142	0.0004017
3154	0.0003666
3166	0.0003432
3178	0.0003159
3190	0.0003978
3202	0.0002652
3214	0.0001872
3226	0.0001209
3238	0.0001131
3250	3.12e-05
3262	7.02e-05
3274	1.17e-05
3286	3.12e-05
3298	5.85e-05
3310	4.68e-05
3322	9.75e-05
3334	5.85e-05
3346	0.0001209
3358	6.24e-05
3370	0.0001287
3382	6.24e-05
3394	0.0001053
3406	8.58e-05
3418	7.41e-05
3430	8.58e-05
3442	0.0001326
3454	0.0001794
3466	0.0003003
3478	0.0003666
3490	0.0004407
3502	0.0002652
3514	0.0002535
3526	0.0001794
3538	0.0001287
3550	0.0001053
3562	0.0001053
3574	6.24e-05
3586	7.02e-05
3598	0.0001209
3610	3.12e-05
3622	7.8e-05
3634	3.9e-05
3646	5.85e-05
3658	0.0001053
3670	3.9e-05
3682	0.0001092
3694	5.85e-05
3706	0.0001053
3718	0.0001053
3730	0.0001092
3742	0.0001443
3754	0.0001209
3766	0.0001209
3778	0.0001248
3790	0.0001443
3802	0.0001755
3814	0.0001872
3826	0.0001326
3838	0.0001755
