Infrared Spectrum: 2,4,5-TRICHLOROPHENYL TRICHLOROACETATE
Formula: C8 H2 Cl6 O2
CAS: 25438-23-7
State: SOLUTION (10% CCl4 FOR 5000-1330, 10% CS2 FOR 1330-625 CM^-^1)
Class: COBLENTZ
Instrument: Not specified, most likely a prism, grating, or hybrid spectrometer.
Sampling: TRANSMISSION
Path length: 0.0121 CM, 0.0116 CM
Resolution: 4
Origin: DOW CHEMICAL COMPANY
MICROMETERS	TRANSMITTANCE
2.048	0.902
2.0891	0.905
2.13019	0.905
2.17129	0.903
2.21239	0.902
2.25349	0.902
2.29458	0.903
2.33568	0.907
2.37678	0.907
2.41787	0.909
2.45897	0.912
2.50007	0.924
2.54116	0.927
2.58226	0.929
2.62336	0.929
2.66446	0.929
2.70555	0.927
2.74665	0.903
2.78775	0.852
2.82884	0.857
2.86994	0.893
2.91104	0.888
2.95213	0.888
2.99323	0.893
3.03433	0.898
3.07543	0.902
3.11652	0.903
3.15762	0.902
3.19872	0.859
3.23981	0.902
3.28091	0.91
3.32201	0.91
3.36311	0.924
3.4042	0.933
3.4453	0.934
3.4864	0.933
3.52749	0.933
3.56859	0.943
3.60969	0.95
3.65078	0.95
3.69188	0.95
3.73298	0.951
3.77408	0.951
3.81517	0.951
3.85627	0.95
3.89737	0.95
3.93846	0.953
3.97956	0.953
4.02066	0.946
4.06175	0.95
4.10285	0.95
4.14395	0.95
4.18505	0.943
4.22614	0.934
4.26724	0.933
4.30834	0.929
4.34943	0.931
4.39053	0.939
4.43163	0.955
4.47272	0.958
4.51382	0.958
4.55492	0.958
4.59602	0.955
4.63711	0.943
4.67821	0.936
4.71931	0.938
4.7604	0.939
4.8015	0.955
4.8426	0.957
4.8837	0.951
4.92479	0.951
4.96589	0.946
5.00699	0.955
5.04808	0.953
5.08918	0.958
5.13028	0.953
5.17137	0.948
5.21247	0.946
5.25357	0.939
5.29467	0.927
5.33576	0.926
5.37686	0.91
5.41796	0.888
5.45905	0.847
5.50015	0.765
5.54125	0.451
5.58234	0.169
5.62344	0.639
5.66454	0.782
5.70564	0.83
5.74673	0.879
5.78783	0.912
5.82893	0.938
5.87002	0.953
5.91112	0.958
5.95222	0.948
5.99332	0.948
6.03441	0.946
6.07551	0.934
6.11661	0.914
6.1577	0.902
6.1988	0.864
6.2399	0.765
6.28099	0.682
6.32209	0.643
6.36319	0.598
6.40429	0.524
6.44538	0.492
6.48648	0.524
6.52758	0.62
6.56867	0.668
6.60977	0.706
6.65087	0.72
6.69196	0.713
6.73306	0.487
6.77416	0.451
6.81526	0.409
6.85635	0.156
6.89745	0.56
6.93855	0.794
6.97964	0.878
7.02074	0.893
7.06184	0.9
7.10294	0.903
7.14403	0.879
7.18513	0.909
7.22623	0.919
7.26732	0.89
7.30842	0.85
7.34952	0.715
7.39061	0.439
7.43171	0.631
7.47281	0.878
7.51391	0.897
7.555	0.895
7.5961	0.857
7.6372	0.852
7.67829	0.819
7.71939	0.723
7.76049	0.759
7.80158	0.811
7.84268	0.799
7.88378	0.754
7.92488	0.68
7.96597	0.639
8.00707	0.627
8.04817	0.524
8.08926	0.355
8.13036	0.193
8.17146	0.19
8.21255	0.19
8.25365	0.418
8.29475	0.437
8.33585	0.246
8.37694	0.039
8.41804	0.046
8.45914	0.269
8.50023	0.492
8.54133	0.588
8.58243	0.639
8.62353	0.682
8.66462	0.716
8.70572	0.728
8.74682	0.704
8.78791	0.593
8.82901	0.456
8.87011	0.363
8.9112	0.222
8.9523	0.234
8.9934	0.404
9.0345	0.583
9.07559	0.691
9.11669	0.723
9.15779	0.696
9.19888	0.548
9.23998	0.264
9.28108	0.21
9.32217	0.572
9.36327	0.687
9.40437	0.756
9.44547	0.777
9.48656	0.777
9.52766	0.782
9.56876	0.782
9.60985	0.768
9.65095	0.753
9.69205	0.753
9.73315	0.759
9.77424	0.763
9.81534	0.763
9.85644	0.77
9.89753	0.804
9.93863	0.828
9.97973	0.843
10.0208	0.85
10.0619	0.852
10.103	0.852
10.1441	0.85
10.1852	0.845
10.2263	0.835
10.2674	0.804
10.3085	0.718
10.3496	0.518
10.3907	0.317
10.4318	0.382
10.4729	0.668
10.514	0.759
10.5551	0.813
10.5962	0.84
10.6373	0.849
10.6784	0.852
10.7195	0.852
10.7606	0.852
10.8017	0.842
10.8428	0.801
10.8839	0.79
10.925	0.825
10.9661	0.838
11.0072	0.843
11.0483	0.845
11.0893	0.849
11.1304	0.838
11.1715	0.818
11.2126	0.799
11.2537	0.744
11.2948	0.646
11.3359	0.495
11.377	0.257
11.4181	0.224
11.4592	0.363
11.5003	0.475
11.5414	0.504
11.5825	0.475
11.6236	0.375
11.6647	0.308
11.7058	0.272
11.7469	0.169
11.788	0.09
11.8291	0.137
11.8702	0.283
11.9113	0.43
11.9524	0.516
11.9935	0.547
12.0346	0.552
12.0757	0.526
12.1168	0.476
12.1579	0.37
12.199	0.277
12.2401	0.26
12.2812	0.392
12.3223	0.523
12.3634	0.588
12.4045	0.603
12.4455	0.595
12.4866	0.502
12.5277	0.368
12.5688	0.217
12.6099	0.281
12.651	0.457
12.6921	0.566
12.7332	0.624
12.7743	0.651
12.8154	0.682
12.8565	0.699
12.8976	0.71
12.9387	0.713
12.9798	0.718
13.0209	0.734
13.062	0.751
13.1031	0.761
13.1442	0.777
13.1853	0.785
13.2264	0.789
13.2675	0.792
13.3086	0.795
13.3497	0.797
13.3908	0.797
13.4319	0.789
13.473	0.768
13.5141	0.751
13.5552	0.739
13.5963	0.713
13.6374	0.689
13.6785	0.68
13.7196	0.696
13.7607	0.711
13.8018	0.713
13.8428	0.701
13.8839	0.651
13.925	0.581
13.9661	0.547
14.0072	0.572
14.0483	0.629
14.0894	0.658
14.1305	0.667
14.1716	0.67
14.2127	0.668
14.2538	0.663
14.2949	0.655
14.336	0.644
14.3771	0.634
14.4182	0.622
14.4593	0.603
14.5004	0.574
14.5415	0.531
14.5826	0.475
14.6237	0.38
14.6648	0.291
14.7059	0.205
14.747	0.161
14.7881	0.145
14.8292	0.137
14.8703	0.135
14.9114	0.161
14.9525	0.234
14.9936	0.332
15.0347	0.401
15.0758	0.44
15.1169	0.454
15.158	0.464
15.1991	0.468
15.2401	0.468
15.2812	0.469
15.3223	0.469
15.3634	0.469
15.4045	0.468
15.4456	0.466
15.4867	0.463
15.5278	0.457
15.5689	0.449
15.61	0.445
15.6511	0.442
15.6922	0.439
15.7333	0.435
15.7744	0.433
15.8155	0.428
15.8566	0.425
15.8977	0.42
