Infrared Spectrum: Anisole, 2,4-bis(chloromethyl)-
Formula: C9 H10 Cl2 O
CAS: 25445-34-5
State: SOLID (SPLIT MULL), FLUOROLUBE FOR 3800-1330 CM^-^1, NUJOL FOR 1330-460 CM^-^1
Melting point: 61 C
Class: COBLENTZ III
Instrument: DOW KBr FOREPRISM-GRATING
Instrument parameters: BLAZED AT 3.5, 12.0, 20.0 MICRON AND CHANGED AT 5.0, 7.5, 14.9 MICRON
Sampling: TRANSMISSION
Resolution: 2
Origin: DOW CHEMICAL COMPANY
1/CM	TRANSMITTANCE
3804	0.6305
3795	0.6322
3786	0.634
3777	0.6351
3768	0.6357
3759	0.6364
3750	0.6375
3741	0.6388
3732	0.6401
3723	0.6421
3714	0.644
3705	0.646
3696	0.6478
3687	0.6488
3678	0.6494
3669	0.6511
3660	0.6528
3651	0.6542
3642	0.6551
3633	0.6562
3624	0.6574
3615	0.6588
3606	0.6603
3597	0.6615
3588	0.6631
3579	0.6645
3570	0.6657
3561	0.6661
3552	0.6665
3543	0.6668
3534	0.6669
3525	0.6669
3516	0.6671
3507	0.668
3498	0.669
3489	0.6699
3480	0.671
3471	0.6721
3462	0.6733
3453	0.6745
3444	0.6756
3435	0.6767
3426	0.6776
3417	0.6787
3408	0.6797
3399	0.6804
3390	0.6808
3381	0.6811
3372	0.6815
3363	0.6822
3354	0.6833
3345	0.6842
3336	0.6853
3327	0.6868
3318	0.6884
3309	0.69
3300	0.6912
3291	0.6924
3282	0.6936
3273	0.6944
3264	0.6945
3255	0.6945
3246	0.6946
3237	0.6946
3228	0.6946
3219	0.6946
3210	0.6945
3201	0.6945
3192	0.6944
3183	0.6943
3174	0.6932
3165	0.6925
3156	0.6922
3147	0.6924
3138	0.6931
3129	0.695
3120	0.6974
3111	0.7011
3102	0.7038
3093	0.7056
3084	0.7062
3075	0.7061
3066	0.7048
3057	0.7004
3048	0.696
3039	0.6941
3030	0.6872
3021	0.6665
3012	0.6442
3003	0.6715
2994	0.6821
2985	0.6742
2976	0.5678
2967	0.6115
2958	0.625
2949	0.6209
2940	0.6172
2931	0.6193
2922	0.6336
2913	0.6437
2904	0.656
2895	0.6701
2886	0.6855
2877	0.6943
2868	0.6955
2859	0.6944
2850	0.6805
2841	0.6539
2832	0.6831
2823	0.7058
2814	0.7219
2805	0.735
2796	0.7411
2787	0.7465
2778	0.7506
2769	0.7534
2760	0.755
2751	0.7565
2742	0.7575
2733	0.7584
2724	0.7597
2715	0.7611
2706	0.7633
2697	0.7658
2688	0.7684
2679	0.7703
2670	0.7732
2661	0.7751
2652	0.7772
2643	0.7793
2634	0.7811
2625	0.7828
2616	0.785
2607	0.7871
2598	0.7883
2589	0.7854
2580	0.784
2571	0.7857
2562	0.7884
2553	0.79
2544	0.791
2535	0.7895
2526	0.7881
2517	0.7881
2508	0.7893
2499	0.7904
2490	0.7914
2481	0.7924
2472	0.7934
2463	0.7944
2454	0.7956
2445	0.7965
2436	0.7976
2427	0.7984
2418	0.7992
2409	0.7998
2400	0.8001
2391	0.7994
2382	0.7965
2373	0.7936
2364	0.793
2355	0.7931
2346	0.7931
2337	0.7926
2328	0.7934
2319	0.7943
2310	0.7955
2301	0.7967
2292	0.7995
2283	0.8008
2274	0.8025
2265	0.8043
2256	0.8055
2247	0.8092
2238	0.8138
2229	0.8187
2220	0.8245
2211	0.8314
2202	0.834
2193	0.8337
2184	0.8352
2175	0.8382
2166	0.8415
2157	0.8444
2148	0.8471
2139	0.8494
2130	0.8514
2121	0.853
2112	0.8547
2103	0.8565
2094	0.8575
2085	0.859
2076	0.8616
2067	0.8624
2058	0.8605
2049	0.8546
2040	0.8559
2031	0.8591
2022	0.862
2013	0.8658
2004	0.8688
1995	0.8686
1986	0.8632
1977	0.8655
1968	0.8671
1959	0.8688
1950	0.8694
1941	0.8692
1932	0.8693
1923	0.8698
1914	0.8713
1905	0.8736
1896	0.8725
1887	0.843
1878	0.8566
1869	0.8645
1860	0.8664
1851	0.868
1842	0.8681
1833	0.8706
1824	0.8725
1815	0.872
1806	0.8684
1797	0.8718
1788	0.8678
1779	0.8702
1770	0.8747
1761	0.8744
1752	0.875
1743	0.8692
1734	0.8646
1725	0.866
1716	0.8668
1707	0.8654
1698	0.8628
1689	0.8589
1680	0.8657
1671	0.8778
1662	0.881
1653	0.8749
1644	0.872
1635	0.8824
1626	0.8775
1617	0.7131
1608	0.6112
1599	0.7987
1590	0.7928
1581	0.8263
1572	0.8649
1563	0.884
1554	0.8893
1545	0.8914
1536	0.8907
1527	0.8818
1518	0.7322
1509	0.3076
1500	0.43
1491	0.6496
1482	0.7581
1473	0.7683
1464	0.5385
1455	0.5497
1446	0.5923
1437	0.6521
1428	0.7365
1419	0.7567
1410	0.7791
1401	0.7955
1392	0.8111
1383	0.8087
1374	0.8115
1365	0.8101
1356	0.7888
1347	0.74
1338	0.723
1329	0.6433
1320	0.4874
1311	0.6517
1302	0.6508
1293	0.5872
1284	0.5718
1275	0.0797
1266	0.0744
1257	0.1548
1248	0.3707
1239	0.5139
1230	0.589
1221	0.6441
1212	0.6961
1203	0.75
1194	0.7692
1185	0.6103
1176	0.7282
1167	0.7367
1158	0.5602
1149	0.6142
1140	0.7528
1131	0.7051
1122	0.3678
1113	0.6046
1104	0.7295
1095	0.7948
1086	0.809
1077	0.8117
1068	0.8256
1059	0.8341
1050	0.8307
1041	0.8011
1032	0.5102
1023	0.3156
1014	0.7078
1005	0.774
996	0.8093
987	0.8306
978	0.8381
969	0.8271
960	0.7053
951	0.8242
942	0.8225
933	0.8263
924	0.8281
915	0.8033
906	0.7708
897	0.6771
888	0.8314
879	0.8568
870	0.8713
861	0.8817
852	0.8813
843	0.8728
834	0.8538
825	0.4429
816	0.6624
807	0.7725
798	0.845
789	0.8589
780	0.844
771	0.821
762	0.6921
753	0.4947
744	0.7432
735	0.7165
726	0.7461
717	0.7482
708	0.7762
699	0.7504
690	0.8011
681	0.7946
672	0.656
663	0.243
654	0.2578
645	0.615
636	0.7387
627	0.7988
618	0.7992
609	0.7053
600	0.8345
591	0.8399
582	0.8335
573	0.8375
564	0.8411
555	0.8072
546	0.8157
537	0.8291
528	0.7848
519	0.5177
510	0.7808
501	0.8118
492	0.8069
483	0.6481
474	0.784
465	0.7981
456	0.7976
