Infrared Spectrum: PURINE, 6-IODO-
Formula: C5 H3 I N4
CAS: 2545-26-8
State: SOLID (1 mg / 650 KBr DISC)
Class: COBLENTZ III
Instrument: PERKIN-ELMER 21 (GRATING)
Instrument parameters: FILTER CHANGE AT ABOUT 1090 CM^-^1.
Sampling: TRANSMISSION
Resolution: 2
Origin: SOUTHERN RESEARCH INSTITUTE
1/CM	TRANSMITTANCE
613.861	0.842
623.049	0.8142
632.237	0.7397
641.425	0.5121
650.612	0.6339
659.8	0.889
668.988	0.8432
678.176	0.8748
687.364	0.8857
696.552	0.892
705.739	0.889
714.927	0.8869
724.115	0.883
733.303	0.87
742.491	0.8571
751.679	0.8476
760.867	0.8363
770.054	0.8184
779.242	0.8002
788.43	0.7723
797.618	0.7154
806.806	0.7767
815.994	0.7363
825.182	0.6356
834.369	0.3878
843.557	0.489
852.745	0.68
861.933	0.6472
871.121	0.6445
880.309	0.6785
889.496	0.7227
898.684	0.7428
907.872	0.7088
917.06	0.4597
926.248	0.5942
935.436	0.6141
944.624	0.7354
953.811	0.744
962.999	0.7791
972.187	0.7857
981.375	0.8184
990.563	0.819
999.751	0.812
1008.94	0.81
1018.13	0.808
1027.31	0.8016
1036.5	0.7907
1045.69	0.789
1054.88	0.7849
1064.07	0.7719
1073.25	0.768
1082.44	0.7621
1091.63	0.7523
1100.82	0.7491
1110	0.7354
1119.19	0.7132
1128.38	0.684
1137.57	0.6251
1146.76	0.6457
1155.94	0.6853
1165.13	0.706
1174.32	0.6839
1183.51	0.6415
1192.7	0.5367
1201.88	0.5511
1211.07	0.5909
1220.26	0.4228
1229.45	0.149
1238.63	0.5033
1247.82	0.5765
1257.01	0.739
1266.2	0.6546
1275.39	0.703
1284.57	0.6852
1293.76	0.7049
1302.95	0.6342
1312.14	0.4796
1321.33	0.2592
1330.51	0.2137
1339.7	0.5238
1348.89	0.7522
1358.08	0.7528
1367.26	0.7105
1376.45	0.6397
1385.64	0.4429
1394.83	0.3375
1404.02	0.6667
1413.2	0.6405
1422.39	0.6243
1431.58	0.5727
1440.77	0.3328
1449.96	0.5961
1459.14	0.6516
1468.33	0.6412
1477.52	0.5784
1486.71	0.6466
1495.89	0.716
1505.08	0.7045
1514.27	0.687
1523.46	0.642
1532.65	0.6301
1541.83	0.4728
1551.02	0.3184
1560.21	0.1617
1569.4	0.2254
1578.59	0.554
1587.77	0.4628
1596.96	0.3253
1606.15	0.4386
1615.34	0.6902
1624.52	0.688
1633.71	0.6805
1642.9	0.673
1652.09	0.659
1661.28	0.6558
1670.46	0.6691
1679.65	0.697
1688.84	0.7146
1698.03	0.716
1707.22	0.7144
1716.4	0.717
1725.59	0.7261
1734.78	0.734
1743.97	0.7369
1753.15	0.738
1762.34	0.741
1771.53	0.7379
1780.72	0.7341
1789.91	0.722
1799.09	0.71
1808.28	0.7115
1817.47	0.718
1826.66	0.7404
1835.84	0.743
1845.03	0.737
1854.22	0.741
1863.41	0.7399
1872.6	0.7255
1881.78	0.725
1890.97	0.7318
1900.16	0.741
1909.35	0.741
1918.54	0.7387
1927.72	0.739
1936.91	0.738
1946.1	0.737
1955.29	0.7349
1964.47	0.733
1973.66	0.73
1982.85	0.729
1992.04	0.726
2001.23	0.726
2010.41	0.725
2019.6	0.724
2028.79	0.7201
2037.98	0.7161
2047.17	0.712
2056.35	0.709
2065.54	0.7061
2074.73	0.706
2083.92	0.7041
2093.1	0.704
2102.29	0.7031
2111.48	0.7
2120.67	0.696
2129.86	0.692
2139.04	0.6871
2148.23	0.683
2157.42	0.679
2166.61	0.678
2175.8	0.675
2184.98	0.672
2194.17	0.668
2203.36	0.666
2212.55	0.662
2221.73	0.659
2230.92	0.659
2240.11	0.657
2249.3	0.6511
2258.49	0.647
2267.67	0.647
2276.86	0.647
2286.05	0.6411
2295.24	0.6361
2304.43	0.6281
2313.61	0.6171
2322.8	0.6091
2331.99	0.608
2341.18	0.6031
2350.36	0.5961
2359.55	0.587
2368.74	0.587
2377.93	0.5909
2387.12	0.59
2396.3	0.5841
2405.49	0.5762
2414.68	0.578
2423.87	0.575
2433.06	0.5701
2442.24	0.5611
2451.43	0.5511
2460.62	0.547
2469.81	0.547
2478.99	0.542
2488.18	0.5222
2497.37	0.5042
2506.56	0.4921
2515.75	0.4831
2524.93	0.478
2534.12	0.474
2543.31	0.4731
2552.5	0.4631
2561.68	0.457
2570.87	0.454
2580.06	0.458
2589.25	0.459
2598.44	0.4571
2607.62	0.4481
2616.81	0.4382
2626	0.4252
2635.19	0.412
2644.38	0.4061
2653.56	0.3855
2662.75	0.3671
2671.94	0.366
2681.13	0.365
2690.31	0.3601
2699.5	0.354
2708.69	0.353
2717.88	0.3599
2727.07	0.365
2736.25	0.3611
2745.44	0.3531
2754.63	0.3202
2763.82	0.3036
2773.01	0.2751
2782.19	0.2729
2791.38	0.2817
2800.57	0.2999
2809.76	0.3277
2818.94	0.3607
2828.13	0.3948
2837.32	0.4089
2846.51	0.4189
2855.7	0.423
2864.88	0.424
2874.07	0.423
2883.26	0.4161
2892.45	0.4032
2901.64	0.3753
2910.82	0.3422
2920.01	0.3143
2929.2	0.314
2938.39	0.323
2947.57	0.337
2956.76	0.3568
2965.95	0.3709
2975.14	0.3869
2984.33	0.4059
2993.51	0.4041
3002.7	0.3823
3011.89	0.3741
3021.08	0.3581
3030.27	0.35
3039.45	0.3529
3048.64	0.36
3057.83	0.362
3067.02	0.3728
3076.2	0.379
3085.39	0.374
3094.58	0.3749
3103.77	0.4079
3112.96	0.4406
3122.14	0.4579
3131.33	0.461
3140.52	0.459
3149.71	0.4501
3158.9	0.444
3168.08	0.442
3177.27	0.441
3186.46	0.442
3195.65	0.4448
3204.83	0.448
3214.02	0.4529
3223.21	0.457
3232.4	0.459
3241.59	0.4629
3250.77	0.463
3259.96	0.461
3269.15	0.4581
3278.34	0.4541
3287.53	0.4452
3296.71	0.4331
3305.9	0.4281
3315.09	0.4171
3324.28	0.4111
3333.46	0.4001
3342.65	0.3901
3351.84	0.3829
3361.03	0.3731
3370.22	0.365
3379.4	0.3521
3388.59	0.3461
3397.78	0.345
3406.97	0.345
3416.15	0.345
3425.34	0.345
3434.53	0.3499
3443.72	0.353
3452.91	0.3629
3462.09	0.3729
3471.28	0.3819
3480.47	0.3919
3489.66	0.4019
3498.85	0.4119
3508.03	0.4229
3517.22	0.431
3526.41	0.4409
3535.6	0.4549
3544.78	0.4729
3553.97	0.4859
3563.16	0.4979
3572.35	0.5089
3581.54	0.5209
3590.72	0.5358
3599.91	0.5549
3609.1	0.562
3618.29	0.5669
3627.48	0.5719
3636.66	0.5818
3645.85	0.588
3655.04	0.591
3664.23	0.591
3673.41	0.59
3682.6	0.5831
3691.79	0.576
3700.98	0.5701
3710.17	0.568
3719.35	0.5699
3728.54	0.5749
3737.73	0.576
3746.92	0.576
3756.11	0.5819
3765.29	0.586
3774.48	0.588
3783.67	0.586
3792.86	0.5792
3802.04	0.5721
3811.23	0.571
3820.42	0.57
3829.61	0.567
3838.8	0.5651
3847.98	0.563
3857.17	0.562
3866.36	0.561
3875.55	0.557
3884.74	0.558
3893.92	0.561
3903.11	0.565
3912.3	0.5631
3921.49	0.5591
3930.67	0.557
3939.86	0.555
3949.05	0.5531
3958.24	0.553
3967.43	0.553
3976.61	0.5511
3985.8	0.55
3994.99	0.544
4004.18	0.547
