Infrared Spectrum: 2-Chloro-6-methylpyridine-4-carboxylic acid
Formula: C 7 H 6 Cl N O 2
CAS: 25462-85-5
State: gas
Origin: EPA-IR VAPOR PHASE LIBRARY
1/CM	ABSORBANCE
549.8	0.004901
559.445	0.002821
569.09	0.004101
578.734	0.004871
588.379	0.006991
598.024	0.006661
607.669	0.004721
617.313	0.002781
626.958	0.001941
636.603	0.003131
646.248	0.011231
655.893	0.018211
665.537	0.005811
675.182	0.0012586
684.827	0.0014583
694.472	0.002021
704.116	0.0012823
713.761	0.002701
723.406	0.002991
733.051	0.001881
742.695	0.001901
752.34	0.002571
761.985	0.006821
771.63	0.007211
781.275	0.003811
790.919	0.002291
800.564	0.003001
810.209	0.002631
819.854	0.002151
829.498	0.003071
839.143	0.006381
848.788	0.007101
858.433	0.003841
868.078	0.002641
877.722	0.003351
887.367	0.004451
897.012	0.003801
906.657	0.005291
916.301	0.005721
925.946	0.003341
935.591	0.0016658
945.236	0.0016288
954.88	0.0016688
964.525	0.001791
974.17	0.002361
983.815	0.002681
993.46	0.002071
1003.1	0.002381
1012.75	0.002061
1022.39	0.0016353
1032.04	0.002031
1041.68	0.003221
1051.33	0.003121
1060.97	0.002571
1070.62	0.003311
1080.26	0.004631
1089.91	0.007841
1099.55	0.012171
1109.2	0.009581
1118.84	0.008341
1128.49	0.013841
1138.13	0.020531
1147.78	0.019391
1157.42	0.013491
1167.07	0.011651
1176.71	0.016931
1186.36	0.019011
1196	0.010921
1205.64	0.004101
1215.29	0.004451
1224.93	0.003331
1234.58	0.005291
1244.22	0.006401
1253.87	0.006051
1263.51	0.004561
1273.16	0.002981
1282.8	0.004291
1292.45	0.005141
1302.09	0.007151
1311.74	0.008031
1321.38	0.009881
1331.03	0.013771
1340.67	0.013601
1350.32	0.009151
1359.96	0.007311
1369.61	0.010341
1379.25	0.012071
1388.9	0.012361
1398.54	0.016151
1408.18	0.015071
1417.83	0.008721
1427.47	0.005041
1437.12	0.003731
1446.76	0.003541
1456.41	0.003841
1466.05	0.003631
1475.7	0.002911
1485.34	0.003061
1494.99	0.003061
1504.63	0.002971
1514.28	0.003371
1523.92	0.004291
1533.57	0.005951
1543.21	0.009491
1552.86	0.016641
1562.5	0.016921
1572.15	0.008361
1581.79	0.005611
1591.44	0.006271
1601.08	0.006161
1610.73	0.004311
1620.37	0.002111
1630.01	0.001981
1639.66	0.0015507
1649.3	0.001981
1658.95	0.0016601
1668.59	0.001771
1678.24	0.002121
1687.88	0.002101
1697.53	0.002051
1707.17	0.002471
1716.82	0.003591
1726.46	0.004901
1736.11	0.005611
1745.75	0.007111
1755.4	0.014681
1765.04	0.036101
1774.69	0.038371
1784.33	0.013741
1793.98	0.005071
1803.62	0.004201
1813.27	0.004981
1822.91	0.003691
1832.55	0.002261
1842.2	0.001961
1851.84	0.0017281
1861.49	0.0015816
1871.13	0.0014158
1880.78	0.001473
1890.42	0.0014804
1900.07	0.0014907
1909.71	0.0016365
1919.36	0.001971
1929	0.0014246
1938.65	0.0016599
1948.29	0.0015857
1957.94	0.0015141
1967.58	0.0016857
1977.23	0.0016598
1986.87	0.0016265
1996.52	0.0014946
2006.16	0.0015477
2015.81	0.0014072
2025.45	0.0015265
2035.1	0.0013854
2044.74	0.0010765
2054.38	0.0012395
2064.03	0.001513
2073.67	0.001209
2083.32	0.0016415
2092.96	0.0017322
2102.61	0.0015708
2112.25	0.0013218
2121.9	0.0014807
2131.54	0.0016443
2141.19	0.001222
2150.83	0.0016556
2160.48	0.0013608
2170.12	0.0015139
2179.77	0.0015357
2189.41	0.0013496
2199.06	0.0013113
2208.7	0.0015026
2218.35	0.0015729
2227.99	0.0012501
2237.64	0.0013741
2247.28	0.0011456
2256.92	0.0010638
2266.57	0.0011658
2276.21	0.0011811
2285.86	0.0010257
2295.5	0.00098
2305.15	0.0015779
2314.79	0.0015241
2324.44	0.0013543
2334.08	0.0014897
2343.73	0.0012403
2353.37	0.0013143
2363.02	0.0014667
2372.66	0.0012777
2382.31	0.0012444
2391.95	0.0011215
2401.6	0.0013742
2411.24	0.0013779
2420.89	0.0012159
2430.53	0.001821
2440.18	0.0013547
2449.82	0.0013725
2459.47	0.0014375
2469.11	0.0012401
2478.75	0.0016734
2488.4	0.0015143
2498.04	0.0014529
2507.69	0.0013308
2517.33	0.0015432
2526.98	0.0012682
2536.62	0.0012516
2546.27	0.0014424
2555.91	0.0010983
2565.56	0.0015059
2575.2	0.0014395
2584.85	0.0009803
2594.49	0.0013596
2604.14	0.0010071
2613.78	0.001308
2623.43	0.0013965
2633.07	0.0012994
2642.72	0.0011271
2652.36	0.0012472
2662.01	0.0016612
2671.65	0.0011107
2681.29	0.0009571
2690.94	0.0013304
2700.58	0.0011463
2710.23	0.0013766
2719.87	0.001771
2729.52	0.0012366
2739.16	0.0013144
2748.81	0.0015077
2758.45	0.0013838
2768.1	0.0013276
2777.74	0.0013871
2787.39	0.0012188
2797.03	0.001801
2806.68	0.0011529
2816.32	0.0015749
2825.97	0.0012543
2835.61	0.0015279
2845.26	0.0016768
2854.9	0.0015766
2864.55	0.002441
2874.19	0.0011794
2883.84	0.0015043
2893.48	0.0016526
2903.12	0.001921
2912.77	0.001861
2922.41	0.002011
2932.06	0.002881
2941.7	0.002741
2951.35	0.002111
2960.99	0.002331
2970.64	0.001891
2980.28	0.0016681
2989.93	0.002371
2999.57	0.0014235
3009.22	0.0014213
3018.86	0.0015598
3028.51	0.0016862
3038.15	0.001891
3047.8	0.001334
3057.44	0.002011
3067.09	0.001901
3076.73	0.001811
3086.38	0.0016521
3096.02	0.0013982
3105.67	0.0013259
3115.31	0.0012865
3124.95	0.001038
3134.6	0.0009233
3144.24	0.0015423
3153.89	0.0016646
3163.53	0.001921
3173.18	0.0016829
3182.82	0.0009235
3192.47	0.0017439
3202.11	0.0015579
3211.76	0.0011568
3221.4	0.0016108
3231.05	0.0010801
3240.69	0.0011858
3250.34	0.0012808
3259.98	0.001396
3269.63	0.0008655
3279.27	0.0011782
3288.92	0.00075128
3298.56	0.0011782
3308.21	0.0017444
3317.85	0.0011853
3327.49	0.001941
3337.14	0.0009663
3346.78	0.0012145
3356.43	0.0017208
3366.07	0.00085363
3375.72	0.0010202
3385.36	0.0017257
3395.01	0.0014195
3404.65	0.0011981
3414.3	0.0010494
3423.94	0.001791
3433.59	0.00075589
3443.23	0.002181
3452.88	0.0017527
3462.52	0.002681
3472.17	0.0015113
3481.81	0.000651
3491.46	0.00081865
3501.1	0.001761
3510.75	0.002081
3520.39	0.001971
3530.04	0.002191
3539.68	0.001397
3549.32	0.0016694
3558.97	0.0015385
3568.61	0.008931
3578.26	0.018111
3587.9	0.012811
3597.55	0.002361
3607.19	0.0016337
3616.84	0.002201
3626.48	0.001355
3636.13	0.001242
3645.77	0.00153
3655.42	0.0013872
3665.06	0.002431
3674.71	0.0009133
3684.35	0.0015739
3694	0.0015251
3703.64	0.0013475
3713.29	0.0010087
3722.93	0.0013515
3732.58	0.001419
3742.22	0.001496
3751.86	0.00083932
3761.51	0.0015513
3771.15	0.0011516
3780.8	0.0010863
3790.44	0.0010376
3800.09	0.0014279
3809.73	0.000499
3819.38	0.0010217
3829.02	0.0009721
3838.67	0.0006612
3848.31	0.0013638
3857.96	0.0012315
3867.6	0.0010914
3877.25	0.0013785
3886.89	0.001318
3896.54	0.0011078
3906.18	0.000893
3915.83	0.000524
3925.47	0.000262
3935.12	0.0015139
3944.76	0.001971
3954.41	0.00075877
3964.05	0.0012707
3973.69	0.002041
3983.34	0.0011254
3992.98	0.0014704
