Infrared Spectrum: 4-BROMO-o-TOLOXY ACETIC ACID
Formula: C9 H9 Br O3
CAS: 25477-00-3
State: SOLID (MINERAL OIL MULL)
Class: COBLENTZ
Instrument: Not specified, most likely a prism, grating, or hybrid spectrometer.
Sampling: TRANSMISSION
Resolution: 4
MICROMETERS	TRANSMITTANCE
2.041	0.674
2.08212	0.689
2.12324	0.696
2.16435	0.706
2.20547	0.712
2.24659	0.717
2.28771	0.718
2.32883	0.724
2.36994	0.732
2.41106	0.744
2.45218	0.752
2.4933	0.759
2.53442	0.768
2.57553	0.773
2.61665	0.788
2.65777	0.795
2.69889	0.798
2.74001	0.802
2.78112	0.802
2.82224	0.807
2.86336	0.81
2.90448	0.81
2.94559	0.81
2.98671	0.81
3.02783	0.802
3.06895	0.79
3.11007	0.761
3.15118	0.727
3.1923	0.695
3.23342	0.66
3.27454	0.623
3.31566	0.601
3.35677	0.557
3.39789	0.39
3.43901	0.199
3.48013	0.289
3.52125	0.356
3.56236	0.579
3.60348	0.606
3.6446	0.621
3.68572	0.643
3.72684	0.638
3.76795	0.647
3.80907	0.657
3.85019	0.664
3.89131	0.635
3.93243	0.664
3.97354	0.705
4.01466	0.727
4.05578	0.744
4.0969	0.776
4.13802	0.793
4.17913	0.802
4.22025	0.797
4.26137	0.809
4.30249	0.836
4.3436	0.838
4.38472	0.836
4.42584	0.844
4.46696	0.856
4.50808	0.862
4.54919	0.865
4.59031	0.865
4.63143	0.863
4.67255	0.862
4.71367	0.867
4.75478	0.88
4.7959	0.887
4.83702	0.889
4.87814	0.889
4.91926	0.89
4.96037	0.896
5.00149	0.897
5.04261	0.901
5.08373	0.904
5.12485	0.904
5.16596	0.899
5.20708	0.902
5.2482	0.897
5.28932	0.899
5.33044	0.902
5.37155	0.899
5.41267	0.885
5.45379	0.879
5.49491	0.89
5.53603	0.879
5.57714	0.867
5.61826	0.862
5.65938	0.833
5.7005	0.724
5.74161	0.504
5.78273	0.255
5.82385	0.483
5.86497	0.466
5.90609	0.492
5.9472	0.798
5.98832	0.846
6.02944	0.877
6.07056	0.884
6.11168	0.902
6.15279	0.906
6.19391	0.904
6.23503	0.885
6.27615	0.839
6.31727	0.879
6.35838	0.882
6.3995	0.904
6.44062	0.913
6.48174	0.918
6.52286	0.916
6.56397	0.909
6.60509	0.872
6.64621	0.79
6.68733	0.579
6.72845	0.311
6.76956	0.64
6.81068	0.638
6.8518	0.611
6.89292	0.558
6.93404	0.65
6.97515	0.652
7.01627	0.475
7.05739	0.705
7.09851	0.85
7.13963	0.817
7.18074	0.766
7.22186	0.8
7.26298	0.729
7.3041	0.77
7.34521	0.787
7.38633	0.833
7.42745	0.882
7.46857	0.896
7.50969	0.908
7.5508	0.89
7.59192	0.797
7.63304	0.614
7.67416	0.473
7.71528	0.475
7.75639	0.632
7.79751	0.752
7.83863	0.708
7.87975	0.7
7.92087	0.64
7.96198	0.453
8.0031	0.267
8.04422	0.12
8.08534	0.141
8.12646	0.332
8.16757	0.579
8.20869	0.713
8.24981	0.793
8.29093	0.831
8.33205	0.768
8.37316	0.562
8.41428	0.419
8.4554	0.724
8.49652	0.809
8.53764	0.839
8.57875	0.855
8.61987	0.862
8.66099	0.846
8.70211	0.754
8.74322	0.678
8.78434	0.586
8.82546	0.431
8.86658	0.586
8.9077	0.783
8.94881	0.833
8.98993	0.848
9.03105	0.858
9.07217	0.853
9.11329	0.836
9.1544	0.805
9.19552	0.781
9.23664	0.768
9.27776	0.773
9.31888	0.703
9.35999	0.669
9.40111	0.775
9.44223	0.858
9.48335	0.884
9.52447	0.89
9.56558	0.89
9.6067	0.89
9.64782	0.89
9.68894	0.892
9.73006	0.899
9.77117	0.899
9.81229	0.897
9.85341	0.889
9.89453	0.885
9.93565	0.896
9.97676	0.894
10.0179	0.868
10.059	0.846
10.1001	0.853
10.1412	0.882
10.1824	0.892
10.2235	0.894
10.2646	0.894
10.3057	0.897
10.3468	0.896
10.3879	0.89
10.4291	0.885
10.4702	0.877
10.5113	0.862
10.5524	0.848
10.5935	0.834
10.6347	0.824
10.6758	0.817
10.7169	0.804
10.758	0.781
10.7991	0.764
10.8402	0.77
10.8814	0.764
10.9225	0.746
10.9636	0.744
11.0047	0.752
11.0458	0.781
11.0869	0.812
11.1281	0.839
11.1692	0.858
11.2103	0.873
11.2514	0.879
11.2925	0.88
11.3337	0.824
11.3748	0.766
11.4159	0.814
11.457	0.855
11.4981	0.817
11.5392	0.773
11.5804	0.792
11.6215	0.844
11.6626	0.863
11.7037	0.88
11.7448	0.892
11.786	0.897
11.8271	0.901
11.8682	0.902
11.9093	0.902
11.9504	0.902
11.9915	0.904
12.0327	0.906
12.0738	0.908
12.1149	0.908
12.156	0.908
12.1971	0.908
12.2383	0.908
12.2794	0.899
12.3205	0.862
12.3616	0.776
12.4027	0.679
12.4438	0.543
12.485	0.521
12.5261	0.57
12.5672	0.642
12.6083	0.724
12.6494	0.804
12.6905	0.855
12.7317	0.872
12.7728	0.882
12.8139	0.89
12.855	0.894
12.8961	0.897
12.9373	0.899
12.9784	0.899
13.0195	0.902
13.0606	0.902
13.1017	0.901
13.1428	0.899
13.184	0.896
13.2251	0.894
13.2662	0.885
13.3073	0.882
13.3484	0.88
13.3896	0.879
13.4307	0.872
13.4718	0.867
13.5129	0.862
13.554	0.858
13.5951	0.855
13.6363	0.85
13.6774	0.844
13.7185	0.838
13.7596	0.831
13.8007	0.822
13.8418	0.819
13.883	0.816
13.9241	0.812
13.9652	0.809
14.0063	0.805
14.0474	0.798
14.0886	0.793
14.1297	0.785
14.1708	0.778
14.2119	0.773
14.253	0.764
14.2941	0.758
14.3353	0.747
14.3764	0.735
14.4175	0.722
14.4586	0.708
14.4997	0.684
14.5409	0.654
14.582	0.614
14.6231	0.562
14.6642	0.511
14.7053	0.47
14.7464	0.459
14.7876	0.477
14.8287	0.512
14.8698	0.534
14.9109	0.55
14.952	0.56
14.9932	0.574
15.0343	0.58
15.0754	0.584
15.1165	0.582
15.1576	0.575
15.1987	0.567
15.2399	0.565
15.281	0.562
15.3221	0.555
15.3632	0.545
15.4043	0.541
15.4454	0.534
15.4866	0.526
15.5277	0.516
15.5688	0.505
15.6099	0.497
15.651	0.492
15.6922	0.485
15.7333	0.478
15.7744	0.47
15.8155	0.463
15.8566	0.454
15.8977	0.446
