Infrared Spectrum: 3-Methyl-2-hexanone
Formula: C 7 H 14 O
CAS: 2550-21-2
State: gas
Instrument: HP-GC/MS/IRD
Origin: NIST Mass Spectrometry Data Center
1/CM	ABSORBANCE
550	0.000358
562	0.000376
574	0.000548
586	0.000878
598	0.000936
610	0.000602
622	0.000312
634	0.000136
646	0.000222
658	8.8e-05
670	1.8e-05
682	0.00013
694	0.000364
706	0.00057
718	0.000496
730	0.000358
742	0.00023
754	0.000262
766	0.000254
778	0.000202
790	0.000172
802	0.000102
814	0.000108
826	0.00011
838	0.000132
850	0.000146
862	0.000164
874	0.000196
886	0.00025
898	0.000434
910	0.000716
922	0.00105
934	0.001494
946	0.001914
958	0.001696
970	0.00118
982	0.001002
994	0.000874
1006	0.00081
1018	0.00077
1030	0.00072
1042	0.00071
1054	0.000772
1066	0.00085
1078	0.001156
1090	0.001732
1102	0.00228
1114	0.002666
1126	0.00345
1138	0.003696
1150	0.00309
1162	0.003522
1174	0.004462
1186	0.003628
1198	0.002248
1210	0.001888
1222	0.002052
1234	0.00217
1246	0.001848
1258	0.001426
1270	0.001148
1282	0.001022
1294	0.001048
1306	0.0012
1318	0.001486
1330	0.002262
1342	0.004168
1354	0.006992
1366	0.00687
1378	0.004578
1390	0.00326
1402	0.002118
1414	0.001758
1426	0.002022
1438	0.002536
1450	0.003688
1462	0.004454
1474	0.003502
1486	0.001892
1498	0.001052
1510	0.000686
1522	0.000646
1534	0.00061
1546	0.000526
1558	0.000448
1570	0.000516
1582	0.00045
1594	0.000436
1606	0.000412
1618	0.000388
1630	0.000456
1642	0.000502
1654	0.000606
1666	0.001036
1678	0.001816
1690	0.003276
1702	0.006554
1714	0.013326
1726	0.01884
1738	0.013224
1750	0.005216
1762	0.002082
1774	0.001058
1786	0.000556
1798	0.000302
1810	0.000224
1822	0.000166
1834	0.000148
1846	0.000104
1858	0.000128
1870	0.000112
1882	0.000124
1894	0.000106
1906	0.000102
1918	8e-05
1930	8e-05
1942	7.4e-05
1954	9.2e-05
1966	7.4e-05
1978	6e-05
1990	3.2e-05
2002	6.8e-05
2014	4.8e-05
2026	8.2e-05
2038	7.6e-05
2050	7.6e-05
2062	7.4e-05
2074	8.6e-05
2086	6.2e-05
2098	3.6e-05
2110	5.6e-05
2122	5.4e-05
2134	4e-05
2146	5.8e-05
2158	3.4e-05
2170	2.8e-05
2182	3e-05
2194	2.8e-05
2206	1.8e-05
2218	3.4e-05
2230	2e-05
2242	2.2e-05
2254	2.4e-05
2266	3.2e-05
2278	2.8e-05
2290	4.2e-05
2302	4e-05
2314	5.4e-05
2326	4.4e-05
2338	4.2e-05
2350	3e-05
2362	3.4e-05
2374	1.8e-05
2386	5.2e-05
2398	7e-05
2410	2.4e-05
2422	6.4e-05
2434	4.4e-05
2446	4.2e-05
2458	6.4e-05
2470	7.2e-05
2482	4.8e-05
2494	7.2e-05
2506	6.8e-05
2518	6.6e-05
2530	7.2e-05
2542	7.4e-05
2554	6.8e-05
2566	0.000102
2578	0.000114
2590	0.00013
2602	0.00013
2614	0.000122
2626	0.000138
2638	0.00014
2650	0.000152
2662	0.000176
2674	0.000216
2686	0.000232
2698	0.000252
2710	0.000258
2722	0.000278
2734	0.000358
2746	0.000428
2758	0.000422
2770	0.000414
2782	0.000504
2794	0.000604
2806	0.0008
2818	0.001014
2830	0.00137
2842	0.002048
2854	0.003408
2866	0.005596
2878	0.008412
2890	0.009094
2902	0.008176
2914	0.009308
2926	0.012706
2938	0.015932
2950	0.015736
2962	0.017912
2974	0.019534
2986	0.012014
2998	0.005238
3010	0.00306
3022	0.002228
3034	0.001666
3046	0.001342
3058	0.001146
3070	0.000978
3082	0.000862
3094	0.000722
3106	0.000626
3118	0.000528
3130	0.000436
3142	0.000404
3154	0.000354
3166	0.0003
3178	0.000294
3190	0.000268
3202	0.00023
3214	0.00014
3226	0.00012
3238	8.4e-05
3250	8.8e-05
3262	8.8e-05
3274	6.4e-05
3286	4.4e-05
3298	6.4e-05
3310	4.8e-05
3322	7.2e-05
3334	5.6e-05
3346	6.4e-05
3358	5.4e-05
3370	7e-05
3382	0.00012
3394	0.000144
3406	0.00018
3418	0.000322
3430	0.00039
3442	0.000346
3454	0.00025
3466	0.00014
3478	7.2e-05
3490	5.8e-05
3502	3.2e-05
3514	2.8e-05
3526	1.6e-05
3538	5e-05
3550	2e-05
3562	7e-05
3574	5.8e-05
3586	2.6e-05
3598	8.4e-05
3610	4.8e-05
3622	3.8e-05
3634	8.6e-05
3646	4e-05
3658	5e-05
3670	1e-05
3682	9.4e-05
3694	0.000106
3706	7.6e-05
3718	9.4e-05
3730	7e-05
3742	5.6e-05
3754	6e-05
3766	0.000124
3778	0.000136
3790	0.00015
3802	6.4e-05
3814	0.00012
3826	0.000128
3838	9.8e-05
