Infrared Spectrum: 1-Acetylpiperidine-4-carboxylic acid
Formula: C 8 H 13 N O 3
CAS: 25503-90-6
State: gas
Origin: EPA-IR VAPOR PHASE LIBRARY
1/CM	ABSORBANCE
549.9	0.004938
559.547	0.005548
569.193	0.005928
578.84	0.006358
588.486	0.006858
598.133	0.006758
607.779	0.005258
617.426	0.003718
627.072	0.003128
636.719	0.003728
646.365	0.004418
656.012	0.003198
665.658	0.002148
675.305	0.0019085
684.951	0.0018773
694.598	0.002038
704.245	0.002608
713.891	0.003168
723.538	0.003178
733.184	0.002608
742.831	0.001978
752.477	0.0018658
762.124	0.0017108
771.77	0.0014461
781.417	0.0012053
791.063	0.0010633
800.71	0.00097612
810.356	0.001067
820.003	0.0013709
829.649	0.0014876
839.296	0.0011848
848.943	0.0010315
858.589	0.0010464
868.236	0.00097979
877.882	0.0010445
887.529	0.0010421
897.175	0.0012131
906.822	0.0014799
916.468	0.0014868
926.115	0.0015725
935.761	0.0017578
945.408	0.002648
955.054	0.003388
964.701	0.004048
974.347	0.006298
983.994	0.007128
993.64	0.006128
1003.29	0.005218
1012.93	0.005138
1022.58	0.007188
1032.23	0.007768
1041.87	0.005108
1051.52	0.004338
1061.17	0.004288
1070.81	0.004838
1080.46	0.007148
1090.11	0.011838
1099.75	0.015088
1109.4	0.015558
1119.05	0.017158
1128.69	0.019868
1138.34	0.019618
1147.99	0.015678
1157.63	0.012418
1167.28	0.009618
1176.92	0.007308
1186.57	0.005818
1196.22	0.005538
1205.86	0.006358
1215.51	0.011428
1225.16	0.014128
1234.8	0.009538
1244.45	0.006768
1254.1	0.007848
1263.74	0.011248
1273.39	0.012108
1283.04	0.009638
1292.68	0.008678
1302.33	0.008088
1311.98	0.006648
1321.62	0.006208
1331.27	0.007408
1340.92	0.008648
1350.56	0.008228
1360.21	0.007578
1369.86	0.008578
1379.5	0.009928
1389.15	0.012358
1398.79	0.017608
1408.44	0.024398
1418.09	0.025488
1427.73	0.019028
1437.38	0.012398
1447.03	0.009718
1456.67	0.007758
1466.32	0.005668
1475.97	0.003928
1485.61	0.002758
1495.26	0.002248
1504.91	0.001948
1514.55	0.0018315
1524.2	0.0015593
1533.85	0.0014866
1543.49	0.0014009
1553.14	0.0013935
1562.79	0.0013508
1572.43	0.0014432
1582.08	0.0015692
1591.73	0.0018152
1601.37	0.001938
1611.02	0.001958
1620.67	0.002008
1630.31	0.002478
1639.96	0.003388
1649.6	0.004628
1659.25	0.007388
1668.9	0.016508
1678.54	0.041608
1688.19	0.053558
1697.84	0.026528
1707.48	0.009038
1717.13	0.005608
1726.78	0.005778
1736.42	0.007388
1746.07	0.010698
1755.72	0.016888
1765.36	0.028338
1775.01	0.031858
1784.66	0.019708
1794.3	0.011128
1803.95	0.006718
1813.6	0.003728
1823.24	0.002268
1832.89	0.0017014
1842.54	0.0014166
1852.18	0.001213
1861.83	0.00100949
1871.47	0.00094387
1881.12	0.0008911
1890.77	0.000921623
1900.41	0.0008966
1910.06	0.0008762
1919.71	0.000921734
1929.35	0.0009014
1939	0.0008897
1948.65	0.0008879
1958.29	0.000818
1967.94	0.0008201
1977.59	0.0008303
1987.23	0.0008323
1996.88	0.000805
2006.53	0.000789
2016.17	0.000797
2025.82	0.0008314
2035.47	0.000811
2045.11	0.000764
2054.76	0.000758
2064.41	0.000764
2074.05	0.000766
2083.7	0.000767
2093.35	0.000779
2102.99	0.000837
2112.64	0.000917047
2122.28	0.00098462
2131.93	0.0008906
2141.58	0.0008961
2151.22	0.000817
2160.87	0.000796
2170.52	0.000775
2180.16	0.000798
2189.81	0.000786
2199.46	0.0008256
2209.1	0.0008445
2218.75	0.00079
2228.4	0.000816
2238.04	0.000767
2247.69	0.000808
2257.34	0.000808
2266.98	0.0008267
2276.63	0.000799
2286.28	0.000802
2295.92	0.000786
2305.57	0.000795
2315.22	0.000791
2324.86	0.000761
2334.51	0.000796
2344.16	0.000788
2353.8	0.000738
2363.45	0.000805
2373.09	0.000784
2382.74	0.0008363
2392.39	0.000801
2402.03	0.000778
2411.68	0.000747
2421.33	0.000733
2430.97	0.000758
2440.62	0.000749
2450.27	0.00075
2459.91	0.000809
2469.56	0.000742
2479.21	0.000748
2488.85	0.000729
2498.5	0.000674
2508.15	0.000726
2517.79	0.000687
2527.44	0.000666
2537.09	0.000677
2546.73	0.000669
2556.38	0.000695
2566.03	0.000698
2575.67	0.000704
2585.32	0.000656
2594.96	0.000698
2604.61	0.000696
2614.26	0.000717
2623.9	0.000758
2633.55	0.000758
2643.2	0.000746
2652.84	0.000798
2662.49	0.000785
2672.14	0.0008207
2681.78	0.000923703
2691.43	0.0008872
2701.08	0.0008419
2710.72	0.0008339
2720.37	0.0008677
2730.02	0.00099855
2739.66	0.0008675
2749.31	0.0008193
2758.96	0.000736
2768.6	0.0008571
2778.25	0.000777
2787.9	0.0008774
2797.54	0.0010149
2807.19	0.0011534
2816.84	0.0015077
2826.48	0.002158
2836.13	0.002708
2845.77	0.004288
2855.42	0.006898
2865.07	0.007508
2874.71	0.006188
2884.36	0.004808
2894.01	0.004248
2903.65	0.004068
2913.3	0.004278
2922.95	0.005298
2932.59	0.006808
2942.24	0.007918
2951.89	0.009368
2961.53	0.010228
2971.18	0.006998
2980.83	0.003808
2990.47	0.002888
3000.12	0.003948
3009.77	0.004428
3019.41	0.003138
3029.06	0.0015917
3038.71	0.00115
3048.35	0.0008741
3058	0.000689
3067.64	0.000583
3077.29	0.000588
3086.94	0.000551
3096.58	0.000515
3106.23	0.000343
3115.88	0.000553
3125.52	0.000356
3135.17	0.000535
3144.82	0.000361
3154.46	0.00026
3164.11	0.000224
3173.76	0.000318
3183.4	0.000134
3193.05	0.000265
3202.7	0.000113
3212.34	0.000137
3221.99	8.1e-05
3231.64	0.000144
3241.28	0.000124
3250.93	0.000119
3260.58	3.2e-05
3270.22	0.000116
3279.87	0.00018
3289.52	0.000141
3299.16	0.000167
3308.81	0.000162
3318.45	0.000211
3328.1	0.000396
3337.75	0.000268
3347.39	0.00046
3357.04	0.000558
3366.69	0.000395
3376.33	0.000394
3385.98	0.000252
3395.63	0.000226
3405.27	0.000214
3414.92	0.000168
3424.57	0.000273
3434.21	0.00021
3443.86	0.000265
3453.51	0.000232
3463.15	0.000317
3472.8	0.00022
3482.45	0.000414
3492.09	0.000423
3501.74	0.00044
3511.39	0.000482
3521.03	0.000686
3530.68	0.000706
3540.33	0.0008503
3549.97	0.0012222
3559.62	0.003748
3569.26	0.013568
3578.91	0.011908
3588.56	0.002488
3598.2	0.00093889
3607.85	0.000756
3617.5	0.000551
3627.14	0.000453
3636.79	0.000517
3646.44	0.000404
3656.08	0.00052
3665.73	0.000524
3675.38	0.000486
3685.02	0.000461
3694.67	0.000619
3704.32	0.000485
3713.96	0.000481
3723.61	0.000419
3733.26	0.000383
3742.9	0.000439
3752.55	0.000464
3762.2	0.000517
3771.84	0.000488
3781.49	0.000496
3791.13	0.000606
3800.78	0.000474
3810.43	0.000489
3820.07	0.000632
3829.72	0.000488
3839.37	0.000531
3849.01	0.000518
3858.66	0.000516
3868.31	0.000481
3877.95	0.0005
3887.6	0.000512
3897.25	0.000556
3906.89	0.000548
3916.54	0.000593
3926.19	0.000488
3935.83	0.000608
3945.48	0.000463
3955.13	0.000704
3964.77	0.000635
3974.42	0.000602
3984.07	0.00069
3993.71	0.000592
