Infrared Spectrum: 2-Methoxybenzophenone
Formula: C 14 H 12 O 2
CAS: 2553-04-0
State: gas
Origin: EPA-IR VAPOR PHASE LIBRARY
1/CM	ABSORBANCE
549.8	0.013063
559.445	0.016523
569.09	0.016493
578.734	0.011963
588.379	0.010233
598.024	0.008263
607.669	0.006773
617.313	0.009963
626.958	0.048523
636.603	0.153023
646.248	0.046833
655.893	0.019083
665.537	0.020413
675.182	0.030573
684.827	0.067103
694.472	0.171123
704.116	0.167863
713.761	0.076053
723.406	0.044933
733.051	0.048993
742.695	0.107943
752.34	0.174063
761.985	0.097063
771.63	0.038883
781.275	0.022993
790.919	0.024513
800.564	0.036033
810.209	0.025363
819.854	0.012273
829.498	0.009273
839.143	0.008963
848.788	0.009463
858.433	0.010003
868.078	0.010553
877.722	0.011213
887.367	0.013533
897.012	0.018703
906.657	0.034733
916.301	0.106073
925.946	0.235083
935.591	0.149323
945.236	0.095233
954.88	0.025273
964.525	0.017483
974.17	0.015213
983.815	0.016073
993.46	0.024043
1003.1	0.040713
1012.75	0.063703
1022.39	0.095033
1032.04	0.092523
1041.68	0.083123
1051.33	0.065223
1060.97	0.035043
1070.62	0.025033
1080.26	0.018893
1089.91	0.026053
1099.55	0.050763
1109.2	0.064083
1118.84	0.041643
1128.49	0.027473
1138.13	0.033563
1147.78	0.057923
1157.42	0.069113
1167.07	0.050453
1176.71	0.068063
1186.36	0.061593
1196	0.037253
1205.64	0.043173
1215.29	0.069283
1224.93	0.135293
1234.58	0.266603
1244.22	0.370173
1253.87	0.358283
1263.51	0.278723
1273.16	0.236293
1282.8	0.318153
1292.45	0.345673
1302.09	0.201543
1311.74	0.162623
1321.38	0.094163
1331.03	0.037763
1340.67	0.024613
1350.32	0.017853
1359.96	0.015023
1369.61	0.014083
1379.25	0.014423
1388.9	0.014053
1398.54	0.015013
1408.18	0.019623
1417.83	0.032503
1427.47	0.069103
1437.12	0.124623
1446.76	0.139073
1456.41	0.132663
1466.05	0.124563
1475.7	0.154593
1485.34	0.192303
1494.99	0.123703
1504.63	0.050693
1514.28	0.027833
1523.92	0.020933
1533.57	0.019993
1543.21	0.022043
1552.86	0.025943
1562.5	0.036523
1572.15	0.064873
1581.79	0.105323
1591.44	0.148013
1601.08	0.171603
1610.73	0.079373
1620.37	0.036173
1630.01	0.027263
1639.66	0.028583
1649.3	0.035993
1658.95	0.058493
1668.59	0.120573
1678.24	0.282413
1687.88	0.367983
1697.53	0.185433
1707.17	0.083883
1716.82	0.048453
1726.46	0.031063
1736.11	0.019483
1745.75	0.014133
1755.4	0.012833
1765.04	0.012213
1774.69	0.011503
1784.33	0.010003
1793.98	0.010883
1803.62	0.013483
1813.27	0.012573
1822.91	0.008603
1832.55	0.006413
1842.2	0.005713
1851.84	0.006103
1861.49	0.006253
1871.13	0.006053
1880.78	0.007273
1890.42	0.010313
1900.07	0.012453
1909.71	0.012253
1919.36	0.008353
1929	0.008133
1938.65	0.009713
1948.29	0.009943
1957.94	0.009603
1967.58	0.007743
1977.23	0.004783
1986.87	0.004053
1996.52	0.004163
2006.16	0.004513
2015.81	0.005153
2025.45	0.006663
2035.1	0.007793
2044.74	0.008203
2054.38	0.007823
2064.03	0.006613
2073.67	0.005153
2083.32	0.003973
2092.96	0.003053
2102.61	0.002393
2112.25	0.001943
2121.9	0.001823
2131.54	0.001873
2141.19	0.001933
2150.83	0.001813
2160.48	0.001903
2170.12	0.001983
2179.77	0.002043
2189.41	0.002123
2199.06	0.002073
2208.7	0.001873
2218.35	0.001823
2227.99	0.001823
2237.64	0.002073
2247.28	0.002513
2256.92	0.003053
2266.57	0.003403
2276.21	0.003523
2285.86	0.003433
2295.5	0.003183
2305.15	0.002703
2314.79	0.003553
2324.44	0.003173
2334.08	0.002713
2343.73	0.002543
2353.37	0.002193
2363.02	0.002183
2372.66	0.002413
2382.31	0.002983
2391.95	0.003293
2401.6	0.003203
2411.24	0.002673
2420.89	0.002273
2430.53	0.002283
2440.18	0.002183
2449.82	0.002093
2459.47	0.002243
2469.11	0.002593
2478.75	0.002833
2488.4	0.002973
2498.04	0.003143
2507.69	0.003293
2517.33	0.003363
2526.98	0.003313
2536.62	0.003413
2546.27	0.003353
2555.91	0.003093
2565.56	0.002803
2575.2	0.002833
2584.85	0.002983
2594.49	0.003273
2604.14	0.002763
2613.78	0.002453
2623.43	0.002483
2633.07	0.002513
2642.72	0.002193
2652.36	0.001593
2662.01	0.0013786
2671.65	0.0012704
2681.29	0.0014007
2690.94	0.001723
2700.58	0.002183
2710.23	0.002423
2719.87	0.002683
2729.52	0.002813
2739.16	0.003553
2748.81	0.003453
2758.45	0.003303
2768.1	0.002953
2777.74	0.003323
2787.39	0.003533
2797.03	0.004383
2806.68	0.005893
2816.32	0.008873
2825.97	0.014993
2835.61	0.030923
2845.26	0.045193
2854.9	0.031163
2864.55	0.020913
2874.19	0.019823
2883.84	0.021333
2893.48	0.023653
2903.12	0.026463
2912.77	0.030093
2922.41	0.035483
2932.06	0.045573
2941.7	0.065583
2951.35	0.069613
2960.99	0.054503
2970.64	0.039623
2980.28	0.028793
2989.93	0.028613
2999.57	0.037803
3009.22	0.050143
3018.86	0.047053
3028.51	0.052343
3038.15	0.054703
3047.8	0.048123
3057.44	0.065143
3067.09	0.113873
3076.73	0.126163
3086.38	0.090053
3096.02	0.049673
3105.67	0.027673
3115.31	0.013783
3124.95	0.008303
3134.6	0.006273
3144.24	0.005733
3153.89	0.006093
3163.53	0.005523
3173.18	0.003553
3182.82	0.002403
3192.47	0.001793
3202.11	0.001633
3211.76	0.0009983
3221.4	0.0010548
3231.05	0.0009297
3240.69	0.0009348
3250.34	0.0007139
3259.98	0.0009935
3269.63	0.0009239
3279.27	0.0010635
3288.92	0.0009409
3298.56	0.0010208
3308.21	0.0014186
3317.85	0.001663
3327.49	0.002293
3337.14	0.003383
3346.78	0.005283
3356.43	0.005113
3366.07	0.003603
3375.72	0.002523
3385.36	0.0015466
3395.01	0.0011128
3404.65	0.000737
3414.3	0.0010877
3423.94	0.0007874
3433.59	0.000415
3443.23	0.000425
3452.88	0.000301
3462.52	0.00060252
3472.17	0.00045
3481.81	0.000165
3491.46	0.000389
3501.1	0.0005205
3510.75	0.000272
3520.39	0.000362
3530.04	0.000353
3539.68	0.000134
3549.32	0.00034
3558.97	0.000397
3568.61	0.000185
3578.26	0.000236
3587.9	0.000359
3597.55	0.000399
3607.19	0.000361
3616.84	2.4e-05
3626.48	0.000395
3636.13	0.000857
3645.77	0.0007765
3655.42	0.0007663
3665.06	0.0012713
3674.71	0.000415
3684.35	0.00062812
3694	0.0006935
3703.64	0.0010359
3713.29	0.0011995
3722.93	0.0008592
3732.58	0.0005353
3742.22	0.00021
3751.86	0.0007278
3761.51	0.000814
3771.15	0.0010566
3780.8	0.0007705
3790.44	0.0008384
3800.09	0.0007044
3809.73	0.00061283
3819.38	0.000772
3829.02	0.00061646
3838.67	0.00107
3848.31	0.0005648
3857.96	0.0011793
3867.6	0.0013783
3877.25	0.0010071
3886.89	0.0007266
3896.54	0.000384
3906.18	0.0006417
3915.83	0.0004939
3925.47	0.000443
3935.12	0.0009632
3944.76	0.0009839
3954.41	0.0009826
3964.05	0.0013196
3973.69	0.0012936
3983.34	0.0013681
3992.98	0.002013
