Infrared Spectrum: Diethoxydiphenylsilane
Formula: C 16 H 20 O 2 Si
CAS: 2553-19-7
State: gas
Origin: EPA-IR VAPOR PHASE LIBRARY
1/CM	ABSORBANCE
501.5	0.01952
513.074	0.03419
524.648	0.05314
536.222	0.01449
547.796	0.00405
559.37	0.00189
570.944	0.00106
582.518	0.0007935
594.092	0.0008009
605.666	0.0007848
617.24	0.00108
628.814	0.0012
640.388	0.00155
651.962	0.00303
663.536	0.00509
675.11	0.00666
686.684	0.01142
698.258	0.02968
709.832	0.03808
721.406	0.04201
732.98	0.03851
744.554	0.02384
756.128	0.0145
767.702	0.01323
779.276	0.01635
790.85	0.00941
802.423	0.00446
813.997	0.00263
825.571	0.00195
837.145	0.00152
848.719	0.0013
860.293	0.00123
871.867	0.00122
883.441	0.00133
895.015	0.00176
906.589	0.00261
918.163	0.00493
929.737	0.01168
941.311	0.02111
952.885	0.02233
964.459	0.01293
976.033	0.00591
987.607	0.00427
999.181	0.00531
1010.76	0.00524
1022.33	0.0074
1033.9	0.0105
1045.48	0.01405
1057.05	0.02261
1068.63	0.04182
1080.2	0.0633
1091.77	0.05573
1103.35	0.08303
1114.92	0.12433
1126.49	0.10231
1138.07	0.05264
1149.64	0.0377
1161.22	0.03031
1172.79	0.02383
1184.36	0.01848
1195.94	0.01107
1207.51	0.00631
1219.09	0.00457
1230.66	0.00388
1242.23	0.00396
1253.81	0.00392
1265.38	0.00376
1276.96	0.00386
1288.53	0.00389
1300.1	0.00398
1311.68	0.00322
1323.25	0.0026
1334.83	0.00234
1346.4	0.00242
1357.97	0.00328
1369.55	0.00483
1381.12	0.00715
1392.7	0.01177
1404.27	0.00679
1415.84	0.00531
1427.42	0.01023
1438.99	0.00615
1450.57	0.00352
1462.14	0.00258
1473.71	0.00203
1485.29	0.00228
1496.86	0.00159
1508.44	0.00116
1520.01	0.001
1531.58	0.0009545
1543.16	0.00107
1554.73	0.00114
1566.31	0.00121
1577.88	0.00155
1589.45	0.00289
1601.03	0.00148
1612.6	0.00114
1624.18	0.000845
1635.75	0.0007677
1647.32	0.00114
1658.9	0.00116
1670.47	0.000724
1682.05	0.0006061
1693.62	0.0005608
1705.19	0.0005613
1716.77	0.0006182
1728.34	0.0006197
1739.92	0.0006679
1751.49	0.0007247
1763.06	0.0009704
1774.64	0.00114
1786.21	0.0009179
1797.79	0.00106
1809.36	0.00197
1820.93	0.00257
1832.51	0.00188
1844.08	0.00155
1855.66	0.00165
1867.23	0.0018
1878.8	0.00229
1890.38	0.00266
1901.95	0.00206
1913.53	0.00109
1925.1	0.0008292
1936.67	0.0008559
1948.25	0.00146
1959.82	0.00162
1971.4	0.0009686
1982.97	0.0004296
1994.54	0.0003188
2006.12	0.0002916
2017.69	0.0002839
2029.27	0.0002352
2040.84	0.0002217
2052.41	0.0002278
2063.99	0.0002203
2075.56	0.0002304
2087.14	0.0002353
2098.71	0.0002399
2110.28	0.0002455
2121.86	0.0002312
2133.43	0.0002898
2145.01	0.0003386
2156.58	0.0003249
2168.15	0.0003721
2179.73	0.0004138
2191.3	0.0003923
2202.88	0.0003534
2214.45	0.0004181
2226.02	0.0004758
2237.6	0.000428
2249.17	0.0003921
2260.74	0.0003639
2272.32	0.0003317
2283.89	0.0003203
2295.47	0.0003879
2307.04	0.0005012
2318.61	0.0006139
2330.19	0.0003963
2341.76	0.0004451
2353.34	0.0003617
2364.91	0.0002703
2376.48	0.0002518
2388.06	0.0002871
2399.63	0.0002869
2411.21	0.0002798
2422.78	0.0002794
2434.35	0.0003174
2445.93	0.0003631
2457.5	0.0003267
2469.08	0.0002934
2480.65	0.0002691
2492.22	0.0002673
2503.8	0.0003052
2515.37	0.0003032
2526.95	0.0002974
2538.52	0.0003115
2550.09	0.0003073
2561.67	0.0003839
2573.24	0.0003749
2584.82	0.0004756
2596.39	0.0004878
2607.96	0.0005156
2619.54	0.0005517
2631.11	0.0004999
2642.69	0.0004862
2654.26	0.0004737
2665.83	0.0005391
2677.41	0.0005368
2688.98	0.0006731
2700.56	0.0008939
2712.13	0.00102
2723.7	0.00131
2735.28	0.00141
2746.85	0.00151
2758.43	0.00142
2770	0.00162
2781.57	0.00148
2793.15	0.00145
2804.72	0.00168
2816.3	0.0021
2827.87	0.00248
2839.44	0.00313
2851.02	0.00432
2862.59	0.0063
2874.17	0.01047
2885.74	0.01514
2897.31	0.01536
2908.89	0.01468
2920.46	0.01576
2932.04	0.01977
2943.61	0.01686
2955.18	0.01252
2966.76	0.01645
2978.33	0.02615
2989.91	0.01751
3001.48	0.01302
3013.05	0.01208
3024.63	0.00958
3036.2	0.00797
3047.78	0.01205
3059.35	0.02444
3070.92	0.01921
3082.5	0.01221
3094.07	0.00677
3105.65	0.00303
3117.22	0.0018
3128.79	0.00191
3140.37	0.00186
3151.94	0.0009592
3163.52	0.0007193
3175.09	0.0007073
3186.66	0.0006603
3198.24	0.0006056
3209.81	0.0005659
3221.39	0.0005201
3232.96	0.0005317
3244.53	0.0004656
3256.11	0.0003698
3267.68	0.0004274
3279.26	0.000393
3290.83	0.0003407
3302.4	0.0003849
3313.98	0.000268
3325.55	0.000317
3337.13	0.0002863
3348.7	0.0002934
3360.27	0.0003299
3371.85	0.0003032
3383.42	0.0003366
3395	0.00036
3406.57	0.0003182
3418.14	0.0003366
3429.72	0.0003415
3441.29	0.0003246
3452.86	0.0002809
3464.44	0.0003225
3476.01	0.0003134
3487.59	0.000349
3499.16	0.0002628
3510.73	0.0003089
3522.31	0.0002886
3533.88	0.000286
3545.46	0.0002586
3557.03	0.000302
3568.6	0.0003077
3580.18	0.0002553
3591.75	0.0003024
3603.33	0.0002608
3614.9	0.0003737
3626.47	0.0004367
3638.05	0.0003899
3649.62	0.000326
3661.2	0.0003449
3672.77	0.0003712
3684.34	0.0004145
3695.92	0.000553
3707.49	0.0004597
3719.07	0.0004159
3730.64	0.0004237
3742.21	0.0004303
3753.79	0.0004409
3765.36	0.0004467
3776.94	0.0004544
3788.51	0.0005009
3800.08	0.0004931
3811.66	0.000421
3823.23	0.0004833
3834.81	0.0004378
3846.38	0.000388
3857.95	0.0004011
3869.53	0.0004052
3881.1	0.0004325
3892.68	0.0004399
3904.25	0.0004458
3915.82	0.0003988
3927.4	0.0004341
3938.97	0.000513
3950.55	0.0004667
3962.12	0.0005274
3973.69	0.000504
3985.27	0.0005617
3996.84	0.0007339
