Infrared Spectrum: 2-(Dimethylamino)-5-nitropyridine
Formula: C7 H9 N3 O2
CAS: 2554-75-8
State: SOLID (SPLIT MULL), FLUOROLUBE FOR 3800-1330 CM^-^1, NUJOL FOR 1330-450 CM^-^1
Class: COBLENTZ III
Instrument: DOW KBr FOREPRISM-GRATING
Instrument parameters: BLAZED AT 3.5, 12.0, 20.0 MICRON AND CHANGED AT 5.0, 7.5, 14.9 MICRON
Sampling: TRANSMISSION
Resolution: 2
Origin: DOW CHEMICAL COMPANY
1/CM	TRANSMITTANCE
387	0.7549
396	0.7519
405	0.7525
414	0.7545
423	0.7569
432	0.7798
441	0.8165
450	0.836
459	0.8483
468	0.8715
477	0.8696
486	0.827
495	0.8175
504	0.9032
513	0.9191
522	0.9214
531	0.9098
540	0.7758
549	0.8535
558	0.9309
567	0.9316
576	0.9304
585	0.9277
594	0.9227
603	0.89
612	0.9221
621	0.9168
630	0.9195
639	0.929
648	0.923
657	0.9152
666	0.909
675	0.9054
684	0.9043
693	0.9031
702	0.9004
711	0.8908
720	0.8366
729	0.8119
738	0.8758
747	0.8685
756	0.6649
765	0.5551
774	0.9044
783	0.906
792	0.8945
801	0.8695
810	0.4832
819	0.6109
828	0.853
837	0.8793
846	0.8193
855	0.8921
864	0.8871
873	0.8836
882	0.8796
891	0.874
900	0.8683
909	0.8621
918	0.8545
927	0.8432
936	0.8189
945	0.7631
954	0.6793
963	0.835
972	0.8138
981	0.8165
990	0.7687
999	0.7605
1008	0.7999
1017	0.8117
1026	0.81
1035	0.801
1044	0.7835
1053	0.749
1062	0.7346
1071	0.7698
1080	0.7628
1089	0.7465
1098	0.7125
1107	0.6428
1116	0.4517
1125	0.5028
1134	0.8156
1143	0.7906
1152	0.7503
1161	0.735
1170	0.7533
1179	0.7287
1188	0.695
1197	0.6885
1206	0.6238
1215	0.668
1224	0.6665
1233	0.6475
1242	0.6226
1251	0.5835
1260	0.5418
1269	0.4662
1278	0.3853
1287	0.2529
1296	0.0739
1305	0.2641
1314	0.5236
1323	0.3546
1332	0.0969
1341	0.0732
1350	0.2219
1359	0.5203
1368	0.7119
1377	0.6303
1386	0.6611
1395	0.6306
1404	0.4894
1413	0.3798
1422	0.5194
1431	0.6285
1440	0.5635
1449	0.5268
1458	0.4449
1467	0.4448
1476	0.4553
1485	0.3858
1494	0.39
1503	0.5335
1512	0.5156
1521	0.4394
1530	0.2832
1539	0.1969
1548	0.3797
1557	0.4469
1566	0.283
1575	0.2923
1584	0.2602
1593	0.0932
1602	0.1271
1611	0.1785
1620	0.4745
1629	0.6611
1638	0.77
1647	0.8504
1656	0.8853
1665	0.8952
1674	0.8888
1683	0.8747
1692	0.8618
1701	0.8603
1710	0.8598
1719	0.8512
1728	0.8428
1737	0.831
1746	0.8141
1755	0.8058
1764	0.8001
1773	0.7934
1782	0.7868
1791	0.7842
1800	0.7828
1809	0.78
1818	0.7745
1827	0.7688
1836	0.7633
1845	0.7576
1854	0.7519
1863	0.7462
1872	0.7431
1881	0.7408
1890	0.7386
1899	0.7318
1908	0.7267
1917	0.7238
1926	0.721
1935	0.7193
1944	0.7198
1953	0.7151
1962	0.7186
1971	0.7135
1980	0.7069
1989	0.6974
1998	0.7022
2007	0.6993
2016	0.6972
2025	0.6935
2034	0.6897
2043	0.6858
2052	0.6821
2061	0.6782
2070	0.6734
2079	0.6678
2088	0.6624
2097	0.6567
2106	0.6511
2115	0.6455
2124	0.6414
2133	0.6379
2142	0.6351
2151	0.6329
2160	0.6307
2169	0.6281
2178	0.6257
2187	0.6232
2196	0.6207
2205	0.618
2214	0.6138
2223	0.6091
2232	0.6047
2241	0.6006
2250	0.595
2259	0.5893
2268	0.5838
2277	0.5802
2286	0.5767
2295	0.5733
2304	0.5708
2313	0.5683
2322	0.5679
2331	0.5676
2340	0.5656
2349	0.5633
2358	0.5614
2367	0.5595
2376	0.5575
2385	0.5555
2394	0.5524
2403	0.5512
2412	0.5512
2421	0.5526
2430	0.5506
2439	0.5468
2448	0.5428
2457	0.5457
2466	0.5469
2475	0.5468
2484	0.5465
2493	0.5458
2502	0.5444
2511	0.5429
2520	0.5414
2529	0.5401
2538	0.5388
2547	0.5375
2556	0.5365
2565	0.5355
2574	0.5325
2583	0.5285
2592	0.5246
2601	0.5209
2610	0.5212
2619	0.5222
2628	0.5231
2637	0.5252
2646	0.5265
2655	0.5273
2664	0.5266
2673	0.5243
2682	0.5219
2691	0.5194
2700	0.5168
2709	0.5142
2718	0.5112
2727	0.5077
2736	0.5031
2745	0.4997
2754	0.4988
2763	0.498
2772	0.4968
2781	0.4918
2790	0.4858
2799	0.4829
2808	0.4818
2817	0.4807
2826	0.4797
2835	0.4714
2844	0.4615
2853	0.4544
2862	0.4519
2871	0.4495
2880	0.4478
2889	0.446
2898	0.4424
2907	0.4373
2916	0.4314
2925	0.4271
2934	0.4259
2943	0.4272
2952	0.4299
2961	0.4414
2970	0.466
2979	0.4786
2988	0.4794
2997	0.4784
3006	0.4765
3015	0.4746
3024	0.4731
3033	0.4693
3042	0.4653
3051	0.4609
3060	0.4567
3069	0.4565
3078	0.4588
3087	0.4621
3096	0.4608
3105	0.466
3114	0.4679
3123	0.4683
3132	0.4666
3141	0.465
3150	0.4636
3159	0.4622
3168	0.461
3177	0.4597
3186	0.4584
3195	0.4567
3204	0.455
3213	0.4532
3222	0.4515
3231	0.4498
3240	0.4482
3249	0.4466
3258	0.4449
3267	0.4433
3276	0.4417
3285	0.44
3294	0.4384
3303	0.4368
3312	0.4352
3321	0.4337
3330	0.4321
3339	0.4305
3348	0.429
3357	0.4274
3366	0.426
3375	0.4245
3384	0.4231
3393	0.4216
3402	0.4202
3411	0.4187
3420	0.4173
3429	0.4162
3438	0.4154
3447	0.4145
3456	0.4136
3465	0.4127
3474	0.4119
3483	0.411
3492	0.4101
3501	0.4092
3510	0.4082
3519	0.4075
3528	0.4066
3537	0.4057
3546	0.4048
3555	0.4039
3564	0.403
3573	0.4022
3582	0.4012
3591	0.4004
3600	0.3997
3609	0.3989
3618	0.3982
3627	0.3975
3636	0.3966
3645	0.3959
3654	0.395
3663	0.3942
3672	0.3932
3681	0.3924
3690	0.3916
3699	0.3909
3708	0.3903
3717	0.3896
3726	0.3892
3735	0.3887
3744	0.3882
3753	0.3879
3762	0.3872
3771	0.3862
3780	0.3853
