Infrared Spectrum: p-Methoxybenzylidene p-biphenylaniline
Formula: C 20 H 17 N O
CAS: 25543-63-9
State: gas
Origin: EPA-IR VAPOR PHASE LIBRARY
1/CM	ABSORBANCE
549.8	0.001843
559.445	0.001943
569.09	0.001753
578.734	0.0008208
588.379	0.0006537
598.024	0.0007667
607.669	0.001313
617.313	0.003893
626.958	0.001373
636.603	0.0009087
646.248	0.0008559
655.893	0.0009539
665.537	0.0008757
675.182	0.001243
684.827	0.002163
694.472	0.003683
704.116	0.003173
713.761	0.001913
723.406	0.001953
733.051	0.001783
742.695	0.001883
752.34	0.003213
761.985	0.003913
771.63	0.002653
781.275	0.001603
790.919	0.0011169
800.564	0.001433
810.209	0.002033
819.854	0.003493
829.498	0.005793
839.143	0.007443
848.788	0.004463
858.433	0.002283
868.078	0.002213
877.722	0.002803
887.367	0.004323
897.012	0.002093
906.657	0.0010155
916.301	0.0008799
925.946	0.0008201
935.591	0.0008563
945.236	0.001133
954.88	0.0009396
964.525	0.001263
974.17	0.001433
983.815	0.001173
993.46	0.001643
1003.1	0.002793
1012.75	0.002873
1022.39	0.003053
1032.04	0.005383
1041.68	0.005873
1051.33	0.003123
1060.97	0.001963
1070.62	0.001533
1080.26	0.0008288
1089.91	0.001183
1099.55	0.001983
1109.2	0.002663
1118.84	0.001663
1128.49	0.001413
1138.13	0.001243
1147.78	0.002803
1157.42	0.011583
1167.07	0.029463
1176.71	0.006603
1186.36	0.004863
1196	0.006323
1205.64	0.003823
1215.29	0.004283
1224.93	0.005773
1234.58	0.010983
1244.22	0.022043
1253.87	0.025323
1263.51	0.011913
1273.16	0.006053
1282.8	0.005383
1292.45	0.007313
1302.09	0.009543
1311.74	0.005273
1321.38	0.002423
1331.03	0.001783
1340.67	0.001563
1350.32	0.001303
1359.96	0.001283
1369.61	0.001313
1379.25	0.001223
1388.9	0.001233
1398.54	0.001283
1408.18	0.001853
1417.83	0.003973
1427.47	0.002323
1437.12	0.002133
1446.76	0.003413
1456.41	0.002943
1466.05	0.004273
1475.7	0.006873
1485.34	0.012073
1494.99	0.005973
1504.63	0.012583
1514.28	0.023043
1523.92	0.006563
1533.57	0.002793
1543.21	0.002323
1552.86	0.002463
1562.5	0.003453
1572.15	0.008013
1581.79	0.010373
1591.44	0.015933
1601.08	0.025073
1610.73	0.013503
1620.37	0.008393
1630.01	0.014013
1639.66	0.009423
1649.3	0.004483
1658.95	0.002903
1668.59	0.002063
1678.24	0.001493
1687.88	0.0011092
1697.53	0.0009433
1707.17	0.0008816
1716.82	0.0009165
1726.46	0.0008621
1736.11	0.0007881
1745.75	0.0007977
1755.4	0.0008021
1765.04	0.0009343
1774.69	0.0008555
1784.33	0.0007365
1793.98	0.0008705
1803.62	0.0006669
1813.27	0.0005999
1822.91	0.000607
1832.55	0.0005517
1842.2	0.0005572
1851.84	0.0005462
1861.49	0.0006227
1871.13	0.0007366
1880.78	0.0009084
1890.42	0.0009313
1900.07	0.0008094
1909.71	0.0006641
1919.36	0.0007213
1929	0.0008229
1938.65	0.0008832
1948.29	0.0007566
1957.94	0.0006995
1967.58	0.0004929
1977.23	0.0005028
1986.87	0.0005502
1996.52	0.0005684
2006.16	0.0006717
2015.81	0.0008136
2025.45	0.0007764
2035.1	0.0006829
2044.74	0.0006723
2054.38	0.0008098
2064.03	0.0008198
2073.67	0.0007764
2083.32	0.0005822
2092.96	0.0005003
2102.61	0.0004556
2112.25	0.0002876
2121.9	0.0003325
2131.54	0.0003773
2141.19	0.0004097
2150.83	0.0003768
2160.48	0.0003115
2170.12	0.000318
2179.77	0.0002933
2189.41	0.00028
2199.06	0.0002549
2208.7	0.0002441
2218.35	0.000319
2227.99	0.0003348
2237.64	0.0003128
2247.28	0.00033
2256.92	0.000343
2266.57	0.0004252
2276.21	0.0004177
2285.86	0.0004375
2295.5	0.0003399
2305.15	0.0003779
2314.79	0.0004235
2324.44	0.0003862
2334.08	0.000436
2343.73	0.0004373
2353.37	0.000419
2363.02	0.0003554
2372.66	0.000408
2382.31	0.0003951
2391.95	0.0004251
2401.6	0.0003912
2411.24	0.0003431
2420.89	0.0004069
2430.53	0.0004073
2440.18	0.0004138
2449.82	0.0004394
2459.47	0.0003951
2469.11	0.0004362
2478.75	0.0004453
2488.4	0.0003892
2498.04	0.000495
2507.69	0.0004208
2517.33	0.0005213
2526.98	0.00043
2536.62	0.0005325
2546.27	0.0006762
2555.91	0.0006836
2565.56	0.0004922
2575.2	0.0004427
2584.85	0.000438
2594.49	0.0004172
2604.14	0.0003625
2613.78	0.000395
2623.43	0.0004853
2633.07	0.0004036
2642.72	0.0003699
2652.36	0.0002424
2662.01	0.0003506
2671.65	0.0003045
2681.29	0.0002734
2690.94	0.0002631
2700.58	0.00021352
2710.23	0.0003477
2719.87	0.0004045
2729.52	0.0003601
2739.16	0.0003442
2748.81	0.0004973
2758.45	0.0004687
2768.1	0.0003976
2777.74	0.000578
2787.39	0.0005255
2797.03	0.0005886
2806.68	0.0006614
2816.32	0.0008033
2825.97	0.0010326
2835.61	0.001793
2845.26	0.003813
2854.9	0.003043
2864.55	0.002633
2874.19	0.002333
2883.84	0.002083
2893.48	0.001843
2903.12	0.001693
2912.77	0.002163
2922.41	0.002073
2932.06	0.002233
2941.7	0.003133
2951.35	0.003233
2960.99	0.002963
2970.64	0.002293
2980.28	0.001823
2989.93	0.001893
2999.57	0.002673
3009.22	0.004263
3018.86	0.003373
3028.51	0.005013
3038.15	0.005763
3047.8	0.003033
3057.44	0.003523
3067.09	0.006103
3076.73	0.005293
3086.38	0.003823
3096.02	0.002533
3105.67	0.001753
3115.31	0.001293
3124.95	0.0009223
3134.6	0.0006345
3144.24	0.000524
3153.89	0.0004109
3163.53	0.0004678
3173.18	0.000129364
3182.82	0.0002589
3192.47	0.0003472
3202.11	0.0002902
3211.76	0.0002321
3221.4	0.0003515
3231.05	0.0004206
3240.69	0.0003154
3250.34	0.0003313
3259.98	0.0003606
3269.63	0.0002895
3279.27	0.00016205
3288.92	0.0002093
3298.56	0.00020835
3308.21	9e-05
3317.85	0.000132178
3327.49	0.00011734
3337.14	0.00016943
3346.78	0.0002572
3356.43	0.0002737
3366.07	0.00015715
3375.72	0.0002313
3385.36	0.0003515
3395.01	0.0002374
3404.65	0.00020703
3414.3	0.0002342
3423.94	0.0002395
3433.59	0.0002515
3443.23	0.00015757
3452.88	0.00019336
3462.52	0.0003148
3472.17	0.00011785
3481.81	0.0002309
3491.46	0.00017996
3501.1	0.00019353
3510.75	0.0003187
3520.39	0.0003664
3530.04	0.0002862
3539.68	0.00022202
3549.32	0.00021602
3558.97	0.000245
3568.61	0.00017934
3578.26	0.00020917
3587.9	0.00015447
3597.55	6.5e-05
3607.19	7.09e-05
3616.84	6.44e-05
3626.48	0.0003472
3636.13	0.0003005
3645.77	0.00017887
3655.42	0.0002584
3665.06	0.00014283
3674.71	0.0002537
3684.35	0.00019602
3694	0.0003421
3703.64	0.00016301
3713.29	8.05e-05
3722.93	0.00016604
3732.58	0.00018021
3742.22	0.0002561
3751.86	0.0002658
3761.51	0.00016419
3771.15	0.000246
3780.8	0.0001928
3790.44	0.00013967
3800.09	0.0002413
3809.73	0.0003624
3819.38	0.00020868
3829.02	0.00016271
3838.67	0.00015111
3848.31	0.00016699
3857.96	0.0002589
3867.6	0.000275
3877.25	0.0003131
3886.89	0.00016858
3896.54	0.0002283
3906.18	0.0002434
3915.83	0.000130531
3925.47	0.00013945
3935.12	0.00015741
3944.76	0.0002247
3954.41	0.0001059
3964.05	0.00016644
3973.69	0.0002874
3983.34	0.00013384
3992.98	0.0002316
