Infrared Spectrum: COUMARIN, 3-(4-NITROPHENYL)-
Formula: C15 H9 N O4
CAS: 2555-25-1
State: SOLID (SPLIT MULL, FLUOROLUBE FOR 3800-1333 AND NUJOL FOR 1333-400 CM ^-^1)
Class: COBLENTZ III
Instrument: DOW KBr FOREPRISM-GRATING
Instrument parameters: BLAZED AT 3.5, 12.0, 20.0 MICRON, CHANGED AT 5.0, 7.5, 14.9 MICRON
Sampling: TRANSMISSION
Resolution: 4
Origin: DOW CHEMICAL COMPANY
1/CM	TRANSMITTANCE
382.578	0.904
391.407	0.911
400.235	0.912
409.064	0.911
417.893	0.904
426.722	0.876
435.55	0.824
444.379	0.952
453.208	0.907
462.037	0.789
470.865	0.952
479.694	0.952
488.523	0.95
497.352	0.937
506.18	0.901
515.009	0.835
523.838	0.918
532.667	0.947
541.495	0.945
550.324	0.957
559.153	0.957
567.982	0.918
576.81	0.958
585.639	0.943
594.468	0.957
603.296	0.965
612.125	0.958
620.954	0.862
629.783	0.955
638.611	0.88
647.44	0.962
656.269	0.958
665.098	0.951
673.926	0.944
682.755	0.911
691.584	0.617
700.413	0.897
709.241	0.89
718.07	0.851
726.899	0.781
735.728	0.814
744.556	0.814
753.385	0.63
762.214	0.175
771.043	0.871
779.871	0.889
788.7	0.817
797.529	0.893
806.357	0.885
815.186	0.861
824.015	0.747
832.844	0.613
841.672	0.821
850.501	0.54
859.33	0.346
868.159	0.779
876.987	0.885
885.816	0.875
894.645	0.862
903.474	0.861
912.302	0.85
921.131	0.815
929.96	0.811
938.789	0.796
947.617	0.732
956.446	0.63
965.275	0.213
974.104	0.6641
982.932	0.742
991.761	0.839
1000.59	0.819
1009.42	0.796
1018.25	0.814
1027.08	0.79
1035.9	0.804
1044.73	0.797
1053.56	0.79
1062.39	0.777
1071.22	0.759
1080.05	0.738
1088.88	0.707
1097.71	0.645
1106.53	0.38
1115.36	0.5
1124.19	0.47
1133.02	0.562
1141.85	0.717
1150.68	0.72
1159.51	0.624
1168.34	0.692
1177.16	0.677
1185.99	0.585
1194.82	0.692
1203.65	0.659
1212.48	0.606
1221.31	0.505
1230.14	0.4339
1238.97	0.577
1247.79	0.631
1256.62	0.619
1265.45	0.473
1274.28	0.61
1283.11	0.565
1291.94	0.516
1300.77	0.436
1309.6	0.36
1318.42	0.39
1327.25	0.355
1336.08	0.217
1344.91	0.062
1353.74	0.367
1362.57	0.718
1371.4	0.883
1380.23	0.896
1389.05	0.86
1397.88	0.911
1406.71	0.886
1415.54	0.81
1424.37	0.853
1433.2	0.849
1442.03	0.795
1450.86	0.75
1459.68	0.813
1468.51	0.806
1477.34	0.76
1486.17	0.66
1495	0.613
1503.83	0.66
1512.66	0.447
1521.49	0.191
1530.31	0.71
1539.14	0.85
1547.97	0.849
1556.8	0.777
1565.63	0.631
1574.46	0.686
1583.29	0.644
1592.12	0.421
1600.94	0.439
1609.77	0.245
1618.6	0.801
1627.43	0.961
1636.26	0.9
1645.09	0.84
1653.92	0.792
1662.75	0.727
1671.57	0.616
1680.4	0.408
1689.23	0.249
1698.06	0.404
1706.89	0.149
1715.72	0.296
1724.55	0.868
1733.38	0.864
1742.2	0.997
1751.03	0.99
1759.86	0.99
1768.69	0.968
1777.52	0.954
1786.35	0.939
1795.18	0.932
1804.01	0.916
1812.83	0.918
1821.66	0.918
1830.49	0.911
1839.32	0.903
1848.15	0.894
1856.98	0.894
1865.81	0.887
1874.63	0.878
1883.46	0.873
1892.29	0.862
1901.12	0.865
1909.95	0.854
1918.78	0.836
1927.61	0.817
1936.44	0.831
1945.26	0.831
1954.09	0.832
1962.92	0.821
1971.75	0.831
1980.58	0.828
1989.41	0.821
1998.24	0.81
2007.07	0.806
2015.89	0.801
2024.72	0.799
2033.55	0.797
2042.38	0.796
2051.21	0.7929
2060.04	0.7899
2068.87	0.7879
2077.7	0.785
2086.52	0.7819
2095.35	0.778
2104.18	0.7749
2113.01	0.771
2121.84	0.7679
2130.67	0.7639
2139.5	0.7608
2148.33	0.7568
2157.15	0.7528
2165.98	0.7468
2174.81	0.743
2183.64	0.7398
2192.47	0.736
2201.3	0.7318
2210.13	0.7265
2218.96	0.7195
2227.78	0.7125
2236.61	0.707
2245.44	0.702
2254.27	0.6987
2263.1	0.695
2271.93	0.6917
2280.76	0.6834
2289.59	0.6777
2298.41	0.674
2307.24	0.668
2316.07	0.653
2324.9	0.652
2333.73	0.652
2342.56	0.652
2351.39	0.652
2360.22	0.653
2369.04	0.653
2377.87	0.6528
2386.7	0.6471
2395.53	0.644
2404.36	0.6401
2413.19	0.634
2422.02	0.6305
2430.85	0.6245
2439.67	0.6215
2448.5	0.634
2457.33	0.6289
2466.16	0.624
2474.99	0.623
2483.82	0.621
2492.65	0.62
2501.48	0.6178
2510.3	0.613
2519.13	0.6108
2527.96	0.609
2536.79	0.605
2545.62	0.6014
2554.45	0.598
2563.28	0.5913
2572.11	0.5887
2580.93	0.5843
2589.76	0.581
2598.59	0.5786
2607.42	0.577
2616.25	0.5763
2625.08	0.573
2633.91	0.569
2642.74	0.565
2651.56	0.5605
2660.39	0.5565
2669.22	0.5542
2678.05	0.549
2686.88	0.5472
2695.71	0.5424
2704.54	0.5372
2713.37	0.534
2722.19	0.5302
2731.02	0.529
2739.85	0.5261
2748.68	0.5231
2757.51	0.5202
2766.34	0.516
2775.17	0.513
2784	0.509
2792.82	0.5051
2801.65	0.502
2810.48	0.4981
2819.31	0.491
2828.14	0.487
2836.97	0.49
2845.8	0.491
2854.63	0.488
2863.45	0.484
2872.28	0.481
2881.11	0.4789
2889.94	0.4749
2898.77	0.469
2907.6	0.4658
2916.43	0.458
2925.25	0.457
2934.08	0.462
2942.91	0.4608
2951.74	0.4549
2960.57	0.4509
2969.4	0.4479
2978.23	0.445
2987.06	0.4438
2995.88	0.437
3004.71	0.429
3013.54	0.4188
3022.37	0.4142
3031.2	0.4134
3040.03	0.354
3048.86	0.4337
3057.69	0.436
3066.51	0.4335
3075.34	0.4245
3084.17	0.426
3093	0.4174
3101.83	0.4196
3110.66	0.429
3119.49	0.426
3128.32	0.425
3137.14	0.423
3145.97	0.419
3154.8	0.416
3163.63	0.415
3172.46	0.409
3181.29	0.407
3190.12	0.4046
3198.95	0.4028
3207.77	0.4
3216.6	0.398
3225.43	0.397
3234.26	0.3936
3243.09	0.3896
3251.92	0.3881
3260.75	0.385
3269.58	0.3825
3278.4	0.38
3287.23	0.377
3296.06	0.375
3304.89	0.374
3313.72	0.372
3322.55	0.371
3331.38	0.369
3340.21	0.365
3349.03	0.362
3357.86	0.361
3366.69	0.36
3375.52	0.358
3384.35	0.357
3393.18	0.3558
3402.01	0.354
3410.84	0.353
3419.66	0.351
3428.49	0.35
3437.32	0.349
3446.15	0.3476
3454.98	0.346
3463.81	0.344
3472.64	0.342
3481.47	0.342
3490.29	0.34
3499.12	0.3375
3507.95	0.336
3516.78	0.333
3525.61	0.333
3534.44	0.332
3543.27	0.3312
3552.1	0.331
3560.92	0.329
3569.75	0.3252
3578.58	0.322
3587.41	0.3193
3596.24	0.318
3605.07	0.317
3613.9	0.3141
3622.73	0.311
3631.55	0.31
3640.38	0.307
3649.21	0.3042
3658.04	0.303
3666.87	0.3
3675.7	0.3
3684.53	0.2971
3693.36	0.296
3702.18	0.295
3711.01	0.293
3719.84	0.292
3728.67	0.29
3737.5	0.288
3746.33	0.286
3755.16	0.285
3763.99	0.283
3772.81	0.282
3781.64	0.279
3790.47	0.278
