Infrared Spectrum: 7-Methoxy-4-methylcoumarin
Formula: C 11 H 10 O 3
CAS: 2555-28-4
State: gas
Origin: EPA-IR VAPOR PHASE LIBRARY
1/CM	ABSORBANCE
549.8	0.000674
559.445	0.000687
569.09	0.002708
578.734	0.002918
588.379	0.0014644
598.024	0.00092086
607.669	0.000808
617.313	0.000613
626.958	0.0016954
636.603	0.002148
646.248	0.001988
655.893	0.0011329
665.537	0.00095378
675.182	0.0008566
684.827	0.0018257
694.472	0.002828
704.116	0.003228
713.761	0.0015863
723.406	0.0011521
733.051	0.001392
742.695	0.002088
752.34	0.0016871
761.985	0.00098136
771.63	0.0016044
781.275	0.003088
790.919	0.004188
800.564	0.004908
810.209	0.005278
819.854	0.003188
829.498	0.004368
839.143	0.010698
848.788	0.017488
858.433	0.022128
868.078	0.016018
877.722	0.005618
887.367	0.002578
897.012	0.0014452
906.657	0.001649
916.301	0.0015711
925.946	0.002088
935.591	0.002128
945.236	0.002788
954.88	0.004408
964.525	0.009028
974.17	0.012058
983.815	0.007368
993.46	0.004698
1003.1	0.006838
1012.75	0.007838
1022.39	0.009338
1032.04	0.009658
1041.68	0.005968
1051.33	0.005968
1060.97	0.019548
1070.62	0.025258
1080.26	0.007968
1089.91	0.003778
1099.55	0.003068
1109.2	0.004728
1118.84	0.008628
1128.49	0.026428
1138.13	0.049928
1147.78	0.055948
1157.42	0.031308
1167.07	0.013278
1176.71	0.008428
1186.36	0.007428
1196	0.011508
1205.64	0.021508
1215.29	0.015908
1224.93	0.006768
1234.58	0.004338
1244.22	0.006468
1253.87	0.015318
1263.51	0.025528
1273.16	0.035318
1282.8	0.039928
1292.45	0.027678
1302.09	0.013108
1311.74	0.008748
1321.38	0.011108
1331.03	0.012188
1340.67	0.011198
1350.32	0.010148
1359.96	0.019258
1369.61	0.026158
1379.25	0.020158
1388.9	0.028428
1398.54	0.018538
1408.18	0.011348
1417.83	0.010288
1427.47	0.007888
1437.12	0.007278
1446.76	0.009488
1456.41	0.009268
1466.05	0.009448
1475.7	0.008208
1485.34	0.006688
1494.99	0.009228
1504.63	0.014278
1514.28	0.010738
1523.92	0.004448
1533.57	0.003878
1543.21	0.005668
1552.86	0.009948
1562.5	0.013938
1572.15	0.013298
1581.79	0.013898
1591.44	0.019818
1601.08	0.037188
1610.73	0.068078
1620.37	0.082958
1630.01	0.055678
1639.66	0.020648
1649.3	0.008518
1658.95	0.005678
1668.59	0.004788
1678.24	0.004498
1687.88	0.004318
1697.53	0.004858
1707.17	0.006268
1716.82	0.008338
1726.46	0.010998
1736.11	0.012878
1745.75	0.015878
1755.4	0.033418
1765.04	0.116618
1774.69	0.187308
1784.33	0.077148
1793.98	0.019088
1803.62	0.008398
1813.27	0.005448
1822.91	0.004208
1832.55	0.003838
1842.2	0.003468
1851.84	0.003108
1861.49	0.002788
1871.13	0.002398
1880.78	0.002048
1890.42	0.0015813
1900.07	0.0014299
1909.71	0.0014259
1919.36	0.0015637
1929	0.0015543
1938.65	0.0013856
1948.29	0.00147
1957.94	0.0014481
1967.58	0.0013819
1977.23	0.0015524
1986.87	0.0015935
1996.52	0.0016782
2006.16	0.0017934
2015.81	0.0016463
2025.45	0.0017326
2035.1	0.0015733
2044.74	0.0017273
2054.38	0.0018019
2064.03	0.0016774
2073.67	0.0015725
2083.32	0.0015685
2092.96	0.0015303
2102.61	0.001327
2112.25	0.0012041
2121.9	0.0012945
2131.54	0.0011393
2141.19	0.0013284
2150.83	0.0012213
2160.48	0.0010969
2170.12	0.001178
2179.77	0.0012033
2189.41	0.0012633
2199.06	0.001233
2208.7	0.0013265
2218.35	0.001295
2227.99	0.0012604
2237.64	0.0013463
2247.28	0.0014132
2256.92	0.0014959
2266.57	0.0014636
2276.21	0.0014576
2285.86	0.0016262
2295.5	0.0018367
2305.15	0.0017196
2314.79	0.0016989
2324.44	0.001632
2334.08	0.0015293
2343.73	0.0016442
2353.37	0.0015555
2363.02	0.0013353
2372.66	0.0014803
2382.31	0.0013159
2391.95	0.0014918
2401.6	0.0016185
2411.24	0.0013833
2420.89	0.0014258
2430.53	0.001335
2440.18	0.0015279
2449.82	0.001255
2459.47	0.0014393
2469.11	0.0014722
2478.75	0.0015714
2488.4	0.0010844
2498.04	0.0011901
2507.69	0.0011148
2517.33	0.001157
2526.98	0.00101018
2536.62	0.0014527
2546.27	0.0012434
2555.91	0.0011677
2565.56	0.0013062
2575.2	0.0013784
2584.85	0.0014161
2594.49	0.0014003
2604.14	0.0014639
2613.78	0.0016582
2623.43	0.0015233
2633.07	0.0016628
2642.72	0.0013705
2652.36	0.0014351
2662.01	0.0012245
2671.65	0.000774
2681.29	0.00093408
2690.94	0.0009016
2700.58	0.001131
2710.23	0.0011913
2719.87	0.0010789
2729.52	0.0011667
2739.16	0.0013972
2748.81	0.0012212
2758.45	0.0015433
2768.1	0.0012553
2777.74	0.0014132
2787.39	0.0013617
2797.03	0.0015964
2806.68	0.0017067
2816.32	0.0017988
2825.97	0.002298
2835.61	0.003558
2845.26	0.005578
2854.9	0.005878
2864.55	0.003888
2874.19	0.003348
2883.84	0.003228
2893.48	0.003388
2903.12	0.003808
2912.77	0.005368
2922.41	0.006238
2932.06	0.007388
2941.7	0.009548
2951.35	0.009708
2960.99	0.009398
2970.64	0.008538
2980.28	0.006488
2989.93	0.006558
2999.57	0.006508
3009.22	0.007778
3018.86	0.007088
3028.51	0.003528
3038.15	0.002148
3047.8	0.002368
3057.44	0.002968
3067.09	0.002948
3076.73	0.002768
3086.38	0.003088
3096.02	0.002748
3105.67	0.0017827
3115.31	0.0016119
3124.95	0.0014747
3134.6	0.0012151
3144.24	0.0012693
3153.89	0.0010518
3163.53	0.0010857
3173.18	0.0012144
3182.82	0.0008305
3192.47	0.000646
3202.11	0.000646
3211.76	0.00099417
3221.4	0.000719
3231.05	0.000802
3240.69	0.00053
3250.34	0.0008579
3259.98	0.000937064
3269.63	0.000743
3279.27	0.000537
3288.92	0.000667
3298.56	0.00059
3308.21	0.00045
3317.85	0.000556
3327.49	0.000613
3337.14	0.000698
3346.78	0.00079
3356.43	0.000616
3366.07	0.000247
3375.72	0.000576
3385.36	0.000758
3395.01	0.000559
3404.65	0.000828
3414.3	0.0009128
3423.94	0.000328
3433.59	0.0006
3443.23	0.000564
3452.88	0.000214
3462.52	0.000263
3472.17	0.0010511
3481.81	0.000691
3491.46	0.0010436
3501.1	0.0013671
3510.75	0.0012382
3520.39	0.0018247
3530.04	0.001988
3539.68	0.0018542
3549.32	0.0008877
3558.97	0.000802
3568.61	0.000557
3578.26	0.000727
3587.9	0.00047
3597.55	0.000688
3607.19	0.000274
3616.84	0.00051
3626.48	0.000275
3636.13	0.000449
3645.77	0.000388
3655.42	0.000304
3665.06	0.000646
3674.71	0.0008695
3684.35	0.000481
3694	0.000538
3703.64	0.000591
3713.29	0.000438
3722.93	0.000604
3732.58	0.000288
3742.22	0.000611
3751.86	0.00062
3761.51	0.00063
3771.15	0.00096053
3780.8	0.00095138
3790.44	0.00099068
3800.09	0.000306
3809.73	0.000354
3819.38	0.000618
3829.02	0.000348
3838.67	0.000619
3848.31	0.00037
3857.96	0.000397
3867.6	0.000762
3877.25	0.000513
3886.89	0.000489
3896.54	0.000301
3906.18	0.000718
3915.83	0.000453
3925.47	0.000538
3935.12	0.0009739
3944.76	0.00061
3954.41	0.000605
3964.05	0.000455
3973.69	0.000512
3983.34	0.000762
3992.98	0.000769
