Infrared Spectrum: 2-Phenoxyphenylacetonitrile
Formula: C 14 H 11 N O
CAS: 25562-98-5
State: gas
Origin: EPA-IR VAPOR PHASE LIBRARY
1/CM	ABSORBANCE
549.8	0.0008673
559.445	0.0010065
569.09	0.0005907
578.734	0.0011263
588.379	0.0010407
598.024	0.001222
607.669	0.002012
617.313	0.002082
626.958	0.002262
636.603	0.001982
646.248	0.002272
655.893	0.003582
665.537	0.005002
675.182	0.007182
684.827	0.022312
694.472	0.026572
704.116	0.012512
713.761	0.011332
723.406	0.013692
733.051	0.027522
742.695	0.066482
752.34	0.063772
761.985	0.028962
771.63	0.019082
781.275	0.018182
790.919	0.017902
800.564	0.016892
810.209	0.013742
819.854	0.008202
829.498	0.005462
839.143	0.004982
848.788	0.006812
858.433	0.013632
868.078	0.031202
877.722	0.029652
887.367	0.012992
897.012	0.009312
906.657	0.008192
916.301	0.006792
925.946	0.005262
935.591	0.004572
945.236	0.004532
954.88	0.003372
964.525	0.002512
974.17	0.002372
983.815	0.002572
993.46	0.002552
1003.1	0.003442
1012.75	0.004922
1022.39	0.010102
1032.04	0.006862
1041.68	0.006982
1051.33	0.004652
1060.97	0.005772
1070.62	0.008042
1080.26	0.006022
1089.91	0.011782
1099.55	0.022022
1109.2	0.009082
1118.84	0.002972
1128.49	0.003062
1138.13	0.003952
1147.78	0.007592
1157.42	0.019822
1167.07	0.028122
1176.71	0.025752
1186.36	0.027232
1196	0.050602
1205.64	0.067162
1215.29	0.052852
1224.93	0.094232
1234.58	0.241482
1244.22	0.291322
1253.87	0.110862
1263.51	0.046382
1273.16	0.034032
1282.8	0.026592
1292.45	0.019372
1302.09	0.017192
1311.74	0.018392
1321.38	0.020712
1331.03	0.015772
1340.67	0.009282
1350.32	0.005962
1359.96	0.004842
1369.61	0.004652
1379.25	0.004862
1388.9	0.004882
1398.54	0.004942
1408.18	0.006482
1417.83	0.010632
1427.47	0.014062
1437.12	0.015122
1446.76	0.034902
1456.41	0.068952
1466.05	0.043792
1475.7	0.068762
1485.34	0.183902
1494.99	0.167332
1504.63	0.050582
1514.28	0.018122
1523.92	0.009892
1533.57	0.007552
1543.21	0.007452
1552.86	0.009972
1562.5	0.017262
1572.15	0.043172
1581.79	0.081232
1591.44	0.066052
1601.08	0.037082
1610.73	0.016392
1620.37	0.007952
1630.01	0.005602
1639.66	0.004582
1649.3	0.003742
1658.95	0.003342
1668.59	0.003242
1678.24	0.003162
1687.88	0.003192
1697.53	0.003342
1707.17	0.003382
1716.82	0.003072
1726.46	0.002692
1736.11	0.002242
1745.75	0.001992
1755.4	0.002122
1765.04	0.002812
1774.69	0.003582
1784.33	0.003062
1793.98	0.002732
1803.62	0.002402
1813.27	0.002012
1822.91	0.002032
1832.55	0.002152
1842.2	0.002502
1851.84	0.002832
1861.49	0.002722
1871.13	0.002572
1880.78	0.002342
1890.42	0.002552
1900.07	0.002792
1909.71	0.003342
1919.36	0.004242
1929	0.004662
1938.65	0.004622
1948.29	0.004152
1957.94	0.002762
1967.58	0.002482
1977.23	0.002622
1986.87	0.002652
1996.52	0.002352
2006.16	0.002152
2015.81	0.002202
2025.45	0.002702
2035.1	0.003102
2044.74	0.002862
2054.38	0.002322
2064.03	0.002092
2073.67	0.001992
2083.32	0.001702
2092.96	0.001402
2102.61	0.001282
2112.25	0.001172
2121.9	0.0010054
2131.54	0.0008775
2141.19	0.0008278
2150.83	0.000816
2160.48	0.000762
2170.12	0.000813
2179.77	0.0008905
2189.41	0.0008611
2199.06	0.0008961
2208.7	0.0009564
2218.35	0.0010112
2227.99	0.0011186
2237.64	0.001572
2247.28	0.002232
2256.92	0.002442
2266.57	0.002062
2276.21	0.001542
2285.86	0.001252
2295.5	0.001202
2305.15	0.001472
2314.79	0.001762
2324.44	0.001992
2334.08	0.001952
2343.73	0.001802
2353.37	0.001722
2363.02	0.001782
2372.66	0.001762
2382.31	0.001752
2391.95	0.002152
2401.6	0.002632
2411.24	0.002572
2420.89	0.002232
2430.53	0.002382
2440.18	0.002842
2449.82	0.002632
2459.47	0.002122
2469.11	0.002152
2478.75	0.002012
2488.4	0.001542
2498.04	0.001212
2507.69	0.0011394
2517.33	0.0011216
2526.98	0.001162
2536.62	0.001312
2546.27	0.001352
2555.91	0.001432
2565.56	0.001222
2575.2	0.0011428
2584.85	0.001182
2594.49	0.001212
2604.14	0.0010493
2613.78	0.0010756
2623.43	0.0008871
2633.07	0.0006987
2642.72	0.0007166
2652.36	0.0007109
2662.01	0.0006611
2671.65	0.0006051
2681.29	0.0006736
2690.94	0.0007924
2700.58	0.000935
2710.23	0.0008164
2719.87	0.000683
2729.52	0.0007703
2739.16	0.0008945
2748.81	0.0007625
2758.45	0.0006427
2768.1	0.0005919
2777.74	0.0006982
2787.39	0.000614
2797.03	0.0006756
2806.68	0.0006787
2816.32	0.0006875
2825.97	0.0010457
2835.61	0.0011585
2845.26	0.0009993
2854.9	0.0009219
2864.55	0.0010201
2874.19	0.0009212
2883.84	0.0010036
2893.48	0.0010201
2903.12	0.0010196
2912.77	0.001422
2922.41	0.002052
2932.06	0.003372
2941.7	0.004392
2951.35	0.002772
2960.99	0.001492
2970.64	0.001382
2980.28	0.001272
2989.93	0.001582
2999.57	0.001982
3009.22	0.003372
3018.86	0.006232
3028.51	0.011172
3038.15	0.017722
3047.8	0.020202
3057.44	0.017022
3067.09	0.021162
3076.73	0.031202
3086.38	0.029402
3096.02	0.016162
3105.67	0.008322
3115.31	0.003782
3124.95	0.001902
3134.6	0.001282
3144.24	0.0010295
3153.89	0.0009557
3163.53	0.001182
3173.18	0.001182
3182.82	0.001172
3192.47	0.0011184
3202.11	0.0009578
3211.76	0.0007205
3221.4	0.0003714
3231.05	0.0004555
3240.69	0.0004132
3250.34	0.0004528
3259.98	0.00021715
3269.63	0.00021501
3279.27	0.0001489
3288.92	0.0004486
3298.56	0.000351
3308.21	0.0002801
3317.85	0.00020994
3327.49	0.00023275
3337.14	0.0003519
3346.78	0.0002663
3356.43	0.0005488
3366.07	0.0002553
3375.72	0.0003029
3385.36	0.0003838
3395.01	0.00033
3404.65	0.0001103
3414.3	0.0002198
3423.94	0.0001916
3433.59	0.00016786
3443.23	0.0003107
3452.88	0.00018443
3462.52	0.0003474
3472.17	0.0003477
3481.81	0.0003561
3491.46	0.0001175
3501.1	0.000149
3510.75	0.0002809
3520.39	0.0003411
3530.04	0.0002847
3539.68	0.00022594
3549.32	0.0004339
3558.97	0.0003301
3568.61	0.000435
3578.26	0.0004042
3587.9	0.000276
3597.55	0.0002761
3607.19	0.0002628
3616.84	0.0003287
3626.48	0.0004713
3636.13	0.00023693
3645.77	0.000542
3655.42	0.0005736
3665.06	0.0004818
3674.71	0.0005657
3684.35	0.0005525
3694	0.0005038
3703.64	0.0004694
3713.29	0.0002109
3722.93	0.0002931
3732.58	0.0004372
3742.22	0.00024237
3751.86	0.0003221
3761.51	0.0002845
3771.15	0.0002796
3780.8	0.00023545
3790.44	0.00023703
3800.09	0.0002837
3809.73	0.0003592
3819.38	0.0005004
3829.02	0.0004135
3838.67	0.0004053
3848.31	0.0003357
3857.96	0.000461
3867.6	0.0004469
3877.25	0.000402
3886.89	0.0005749
3896.54	0.0003711
3906.18	0.0005252
3915.83	0.0003773
3925.47	0.0006548
3935.12	0.0006155
3944.76	0.0004454
3954.41	0.000506
3964.05	0.0005243
3973.69	0.0003686
3983.34	0.00024771
3992.98	0.00025529
