Infrared Spectrum: 2-Phenoxyphenylacetic acid
Formula: C 14 H 12 O 3
CAS: 25563-02-4
State: gas
Origin: EPA-IR VAPOR PHASE LIBRARY
1/CM	ABSORBANCE
549.8	0.00609
559.445	0.0091
569.09	0.01789
578.734	0.02275
588.379	0.03498
598.024	0.0369
607.669	0.02987
617.313	0.02607
626.958	0.02276
636.603	0.01857
646.248	0.01557
655.893	0.015
665.537	0.01472
675.182	0.01507
684.827	0.02538
694.472	0.02793
704.116	0.01495
713.761	0.01185
723.406	0.01393
733.051	0.02588
742.695	0.05535
752.34	0.04953
761.985	0.02148
771.63	0.01428
781.275	0.01425
790.919	0.01562
800.564	0.01228
810.209	0.00974
819.854	0.01079
829.498	0.01157
839.143	0.00898
848.788	0.01097
858.433	0.01168
868.078	0.01471
877.722	0.02209
887.367	0.01695
897.012	0.01033
906.657	0.00712
916.301	0.00652
925.946	0.00772
935.591	0.00672
945.236	0.00472
954.88	0.00378
964.525	0.00352
974.17	0.00331
983.815	0.00337
993.46	0.00336
1003.1	0.00387
1012.75	0.00509
1022.39	0.00991
1032.04	0.00716
1041.68	0.00828
1051.33	0.0072
1060.97	0.01151
1070.62	0.01824
1080.26	0.02136
1089.91	0.03294
1099.55	0.06369
1109.2	0.10364
1118.84	0.11591
1128.49	0.0831
1138.13	0.05776
1147.78	0.04149
1157.42	0.03692
1167.07	0.03552
1176.71	0.03754
1186.36	0.03771
1196	0.04758
1205.64	0.06904
1215.29	0.06682
1224.93	0.10045
1234.58	0.20941
1244.22	0.23475
1253.87	0.09465
1263.51	0.04568
1273.16	0.0357
1282.8	0.03039
1292.45	0.02549
1302.09	0.02341
1311.74	0.02266
1321.38	0.02099
1331.03	0.02
1340.67	0.01976
1350.32	0.02137
1359.96	0.02478
1369.61	0.02389
1379.25	0.01681
1388.9	0.0115
1398.54	0.00923
1408.18	0.00945
1417.83	0.01121
1427.47	0.01171
1437.12	0.01341
1446.76	0.03077
1456.41	0.05091
1466.05	0.03213
1475.7	0.05447
1485.34	0.14653
1494.99	0.13968
1504.63	0.04225
1514.28	0.0156
1523.92	0.00875
1533.57	0.00649
1543.21	0.00617
1552.86	0.00806
1562.5	0.01451
1572.15	0.03641
1581.79	0.06463
1591.44	0.05078
1601.08	0.03271
1610.73	0.0147
1620.37	0.00742
1630.01	0.00493
1639.66	0.00386
1649.3	0.00341
1658.95	0.00328
1668.59	0.00355
1678.24	0.00423
1687.88	0.00488
1697.53	0.00586
1707.17	0.00743
1716.82	0.00966
1726.46	0.01394
1736.11	0.02092
1745.75	0.03177
1755.4	0.04754
1765.04	0.07484
1774.69	0.11763
1784.33	0.12334
1793.98	0.0778
1803.62	0.04405
1813.27	0.02457
1822.91	0.01445
1832.55	0.0088
1842.2	0.00618
1851.84	0.00499
1861.49	0.00415
1871.13	0.00349
1880.78	0.00293
1890.42	0.00277
1900.07	0.00337
1909.71	0.00368
1919.36	0.00385
1929	0.00461
1938.65	0.0044
1948.29	0.00343
1957.94	0.00267
1967.58	0.00244
1977.23	0.00249
1986.87	0.0027
1996.52	0.00253
2006.16	0.00223
2015.81	0.00229
2025.45	0.00279
2035.1	0.00311
2044.74	0.00257
2054.38	0.00193
2064.03	0.00178
2073.67	0.00167
2083.32	0.00146
2092.96	0.00135
2102.61	0.00117
2112.25	0.00108
2121.9	0.00101
2131.54	0.0009083
2141.19	0.0008934
2150.83	0.0007638
2160.48	0.0008032
2170.12	0.0008616
2179.77	0.0009263
2189.41	0.0009059
2199.06	0.00101
2208.7	0.0009925
2218.35	0.00119
2227.99	0.00113
2237.64	0.00112
2247.28	0.00107
2256.92	0.0009063
2266.57	0.0009715
2276.21	0.0009847
2285.86	0.00101
2295.5	0.00104
2305.15	0.00136
2314.79	0.00157
2324.44	0.00166
2334.08	0.00165
2343.73	0.00145
2353.37	0.00153
2363.02	0.00156
2372.66	0.00157
2382.31	0.00152
2391.95	0.0018
2401.6	0.00212
2411.24	0.00225
2420.89	0.00228
2430.53	0.00236
2440.18	0.00252
2449.82	0.00236
2459.47	0.002
2469.11	0.00188
2478.75	0.00159
2488.4	0.00145
2498.04	0.00101
2507.69	0.0008757
2517.33	0.0008628
2526.98	0.0009255
2536.62	0.0009525
2546.27	0.000947
2555.91	0.0009307
2565.56	0.0008577
2575.2	0.000902
2584.85	0.0008721
2594.49	0.0008265
2604.14	0.0006869
2613.78	0.0007136
2623.43	0.0004674
2633.07	0.0005243
2642.72	0.0005055
2652.36	0.0004453
2662.01	0.0004467
2671.65	0.0005465
2681.29	0.0004649
2690.94	0.0005811
2700.58	0.0005999
2710.23	0.0005262
2719.87	0.0003137
2729.52	0.0006618
2739.16	0.0003978
2748.81	0.0003985
2758.45	0.0003828
2768.1	0.00035
2777.74	0.0004403
2787.39	0.0004596
2797.03	0.0003967
2806.68	0.000391
2816.32	0.0005166
2825.97	0.0005801
2835.61	0.0006847
2845.26	0.0007642
2854.9	0.0008203
2864.55	0.0007999
2874.19	0.0009751
2883.84	0.0009441
2893.48	0.00104
2903.12	0.00138
2912.77	0.00165
2922.41	0.00287
2932.06	0.00502
2941.7	0.0058
2951.35	0.004
2960.99	0.00287
2970.64	0.00227
2980.28	0.00207
2989.93	0.00197
2999.57	0.00246
3009.22	0.00355
3018.86	0.0063
3028.51	0.01199
3038.15	0.01826
3047.8	0.01908
3057.44	0.01675
3067.09	0.02141
3076.73	0.03004
3086.38	0.02461
3096.02	0.01296
3105.67	0.00679
3115.31	0.00307
3124.95	0.00171
3134.6	0.000949
3144.24	0.0006802
3153.89	0.0007789
3163.53	0.0008188
3173.18	0.000786
3182.82	0.0006507
3192.47	0.0003728
3202.11	0.0005285
3211.76	0.000333
3221.4	0.0003182
3231.05	0.0002257
3240.69	0.0003967
3250.34	0.0002392
3259.98	0.0002253
3269.63	0.0002667
3279.27	0.0001944
3288.92	0.0002258
3298.56	0.0002518
3308.21	0.0001075
3317.85	0.000133
3327.49	0.0002544
3337.14	0.0005119
3346.78	0.000424
3356.43	0.0002574
3366.07	0.0002833
3375.72	0.0002016
3385.36	0.0004801
3395.01	0.0004016
3404.65	0.0003137
3414.3	0.0004569
3423.94	0.0004872
3433.59	0.0005193
3443.23	0.000571
3452.88	0.0005027
3462.52	0.0009475
3472.17	0.0009745
3481.81	0.00129
3491.46	0.0015
3501.1	0.00167
3510.75	0.00177
3520.39	0.00214
3530.04	0.00276
3539.68	0.00372
3549.32	0.00568
3558.97	0.01173
3568.61	0.04096
3578.26	0.05108
3587.9	0.01456
3597.55	0.00508
3607.19	0.00285
3616.84	0.00172
3626.48	0.00138
3636.13	0.000895
3645.77	0.0007604
3655.42	0.0007638
3665.06	0.0008141
3674.71	0.0004877
3684.35	0.0005053
3694	0.0005333
3703.64	0.0003176
3713.29	0.0004068
3722.93	0.0002381
3732.58	0.0002645
3742.22	0.0002344
3751.86	0.0003458
3761.51	0.0004907
3771.15	0.0001724
3780.8	0.0003066
3790.44	0.0003056
3800.09	0.0004485
3809.73	0.0002702
3819.38	0.0004595
3829.02	0.0004487
3838.67	0.0002953
3848.31	0.000372
3857.96	0.0003753
3867.6	0.0004353
3877.25	0.0003321
3886.89	0.0004769
3896.54	0.0004058
3906.18	0.000253
3915.83	0.0003446
3925.47	0.0004534
3935.12	0.0005213
3944.76	0.0006984
3954.41	0.0006352
3964.05	0.0004589
3973.69	0.0003292
3983.34	0.0004254
3992.98	0.0003537
