Infrared Spectrum: N,N-DIPHENYL ACRYLAMIDE
Formula: C15 H13 N O
CAS: 25574-93-0
State: SOLID (MINERAL OIL MULL)
Class: COBLENTZ
Instrument: Not specified, most likely a prism, grating, or hybrid spectrometer.
Sampling: TRANSMISSION
Resolution: 4
Origin: DOW CHEMICAL COMPANY
MICROMETERS	TRANSMITTANCE
2.014	0.249
2.05528	0.255
2.09656	0.261
2.13783	0.269
2.17911	0.276
2.22039	0.283
2.26167	0.284
2.30295	0.291
2.34423	0.303
2.3855	0.313
2.42678	0.317
2.46806	0.327
2.50934	0.339
2.55062	0.346
2.5919	0.356
2.63317	0.366
2.67445	0.372
2.71573	0.382
2.75701	0.39
2.79829	0.401
2.83957	0.409
2.88084	0.414
2.92212	0.421
2.9634	0.43
3.00468	0.43
3.04596	0.433
3.08724	0.435
3.12851	0.431
3.16979	0.431
3.21107	0.419
3.25235	0.39
3.29363	0.356
3.3349	0.252
3.37618	0.049
3.41746	0.056
3.45874	0.129
3.50002	0.257
3.5413	0.585
3.58257	0.605
3.62385	0.61
3.66513	0.598
3.70641	0.605
3.74769	0.602
3.78897	0.612
3.83024	0.619
3.87152	0.624
3.9128	0.639
3.95408	0.643
3.99536	0.653
4.03664	0.658
4.07791	0.66
4.11919	0.67
4.16047	0.67
4.20175	0.662
4.24303	0.665
4.28431	0.686
4.32558	0.699
4.36686	0.701
4.40814	0.709
4.44942	0.711
4.4907	0.718
4.53197	0.723
4.57325	0.728
4.61453	0.737
4.65581	0.738
4.69709	0.749
4.73837	0.75
4.77964	0.754
4.82092	0.759
4.8622	0.761
4.90348	0.767
4.94476	0.769
4.98604	0.771
5.02731	0.762
5.06859	0.752
5.10987	0.769
5.15115	0.779
5.19243	0.791
5.23371	0.8
5.27498	0.796
5.31626	0.802
5.35754	0.822
5.39882	0.822
5.4401	0.831
5.48138	0.829
5.52265	0.822
5.56393	0.843
5.60521	0.853
5.64649	0.839
5.68777	0.848
5.72905	0.861
5.77032	0.87
5.8116	0.863
5.85288	0.834
5.89416	0.73
5.93544	0.552
5.97671	0.334
6.01799	0.175
6.05927	0.404
6.10055	0.564
6.14183	0.534
6.18311	0.593
6.22438	0.587
6.26566	0.448
6.30694	0.544
6.34822	0.631
6.3895	0.687
6.43078	0.74
6.47205	0.745
6.51333	0.767
6.55461	0.771
6.59589	0.754
6.63717	0.619
6.67845	0.349
6.71972	0.324
6.761	0.435
6.80228	0.339
6.84356	0.305
6.88484	0.378
6.92612	0.576
6.96739	0.674
7.00867	0.627
7.04995	0.447
7.09123	0.249
7.13251	0.441
7.17378	0.616
7.21506	0.549
7.25634	0.529
7.29762	0.633
7.3389	0.711
7.38018	0.689
7.42145	0.58
7.46273	0.397
7.50401	0.302
7.54529	0.383
7.58657	0.448
7.62785	0.534
7.66912	0.561
7.7104	0.578
7.75168	0.563
7.79296	0.563
7.83424	0.482
7.87552	0.255
7.91679	0.153
7.95807	0.312
7.99935	0.436
8.04063	0.561
8.08191	0.612
8.12319	0.643
8.16446	0.672
8.20574	0.699
8.24702	0.732
8.2883	0.755
8.32958	0.762
8.37085	0.718
8.41213	0.554
8.45341	0.498
8.49469	0.633
8.53597	0.665
8.57725	0.663
8.61852	0.684
8.6598	0.735
8.70108	0.761
8.74236	0.774
8.78364	0.781
8.82492	0.793
8.86619	0.8
8.90747	0.8
8.94875	0.803
8.99003	0.808
9.03131	0.817
9.07259	0.822
9.11386	0.825
9.15514	0.825
9.19642	0.81
9.2377	0.771
9.27898	0.738
9.32026	0.73
9.36153	0.786
9.40281	0.798
9.44409	0.817
9.48537	0.832
9.52665	0.837
9.56792	0.839
9.6092	0.834
9.65048	0.822
9.69176	0.773
9.73304	0.749
9.77432	0.803
9.81559	0.832
9.85687	0.832
9.89815	0.798
9.93943	0.626
9.98071	0.515
10.022	0.5
10.0633	0.486
10.1045	0.598
10.1458	0.718
10.1871	0.771
10.2284	0.73
10.2697	0.645
10.3109	0.668
10.3522	0.754
10.3935	0.784
10.4348	0.813
10.476	0.827
10.5173	0.834
10.5586	0.841
10.5999	0.843
10.6412	0.841
10.6824	0.843
10.7237	0.841
10.765	0.834
10.8063	0.815
10.8476	0.815
10.8888	0.831
10.9301	0.832
10.9714	0.817
11.0127	0.783
11.0539	0.803
11.0952	0.837
11.1365	0.841
11.1778	0.841
11.2191	0.834
11.2603	0.815
11.3016	0.793
11.3429	0.822
11.3842	0.841
11.4254	0.848
11.4667	0.853
11.508	0.856
11.5493	0.856
11.5906	0.858
11.6318	0.853
11.6731	0.86
11.7144	0.86
11.7557	0.853
11.797	0.841
11.8382	0.843
11.8795	0.846
11.9208	0.82
11.9621	0.81
12.0033	0.819
12.0446	0.844
12.0859	0.853
12.1272	0.86
12.1685	0.86
12.2097	0.86
12.251	0.861
12.2923	0.861
12.3336	0.861
12.3748	0.86
12.4161	0.856
12.4574	0.851
12.4987	0.849
12.54	0.837
12.5812	0.819
12.6225	0.766
12.6638	0.648
12.7051	0.503
12.7464	0.455
12.7876	0.587
12.8289	0.697
12.8702	0.711
12.9115	0.656
12.9527	0.517
12.994	0.337
13.0353	0.191
13.0766	0.296
13.1179	0.479
13.1591	0.607
13.2004	0.667
13.2417	0.711
13.283	0.733
13.3242	0.755
13.3655	0.766
13.4068	0.769
13.4481	0.773
13.4894	0.773
13.5306	0.767
13.5719	0.757
13.6132	0.721
13.6545	0.662
13.6958	0.656
13.737	0.703
13.7783	0.733
13.8196	0.742
13.8609	0.744
13.9021	0.75
13.9434	0.752
13.9847	0.749
14.026	0.73
14.0673	0.675
14.1085	0.581
14.1498	0.503
14.1911	0.46
14.2324	0.431
14.2736	0.349
14.3149	0.232
14.3562	0.174
14.3975	0.206
14.4388	0.327
14.48	0.436
14.5213	0.523
14.5626	0.566
14.6039	0.587
14.6452	0.598
14.6864	0.602
14.7277	0.604
14.769	0.605
14.8103	0.604
14.8515	0.598
14.8928	0.592
14.9341	0.58
14.9754	0.569
15.0167	0.547
15.0579	0.517
15.0992	0.482
15.1405	0.448
15.1818	0.426
15.223	0.424
15.2643	0.44
15.3056	0.459
15.3469	0.472
15.3882	0.479
15.4294	0.481
15.4707	0.481
15.512	0.479
15.5533	0.474
15.5946	0.467
15.6358	0.46
15.6771	0.457
15.7184	0.45
15.7597	0.441
15.8009	0.433
15.8422	0.426
15.8835	0.428
