Infrared Spectrum: 2-Fluorothiophenol
Formula: C 6 H 5 F S
CAS: 2557-78-0
State: gas
Origin: EPA-IR VAPOR PHASE LIBRARY
1/CM	ABSORBANCE
549.8	0.00388
559.445	0.00389
569.09	0.0013986
578.734	0.001106
588.379	0.0015174
598.024	0.00231
607.669	0.0012995
617.313	3e-05
626.958	0.0018581
636.603	0.0022785
646.248	0.0014451
655.893	0.0020126
665.537	0.00439
675.182	0.00727
684.827	0.00511
694.472	0.00305
704.116	0.00251
713.761	0.00282
723.406	0.00532
733.051	0.01592
742.695	0.02757
752.34	0.02947
761.985	0.01769
771.63	0.00625
781.275	0.00312
790.919	0.00278
800.564	0.00382
810.209	0.00765
819.854	0.0096
829.498	0.00862
839.143	0.00432
848.788	0.00326
858.433	0.0016951
868.078	0.0022115
877.722	0.00262
887.367	0.00237
897.012	0.0019583
906.657	0.0020516
916.301	0.0019723
925.946	0.00274
935.591	0.00291
945.236	0.0019002
954.88	0.0017577
964.525	0.001112
974.17	0.0012328
983.815	0.0017686
993.46	0.0016172
1003.1	0.0018727
1012.75	0.00361
1022.39	0.00557
1032.04	0.00508
1041.68	0.00363
1051.33	0.00347
1060.97	0.0032
1070.62	0.00555
1080.26	0.00471
1089.91	0.00653
1099.55	0.00261
1109.2	0.00241
1118.84	0.00323
1128.49	0.00421
1138.13	0.0022497
1147.78	0.00387
1157.42	0.00127043
1167.07	0.0022449
1176.71	0.00256
1186.36	0.000505
1196	0.00304
1205.64	0.00503
1215.29	0.00944
1224.93	0.02305
1234.58	0.02599
1244.22	0.02158
1253.87	0.00944
1263.51	0.00785
1273.16	0.0068
1282.8	0.00459
1292.45	0.00319
1302.09	0.0018026
1311.74	0.0016423
1321.38	0.0015351
1331.03	0.0016497
1340.67	0.0016636
1350.32	0.0015951
1359.96	0.0016661
1369.61	0.0022205
1379.25	0.00251
1388.9	0.00258
1398.54	0.00245
1408.18	0.0022599
1417.83	0.0021791
1427.47	0.00436
1437.12	0.00848
1446.76	0.01029
1456.41	0.01375
1466.05	0.02565
1475.7	0.03652
1485.34	0.03617
1494.99	0.01766
1504.63	0.00891
1514.28	0.00432
1523.92	0.0022121
1533.57	0.0019518
1543.21	0.0024
1552.86	0.00346
1562.5	0.00638
1572.15	0.00873
1581.79	0.00917
1591.44	0.00576
1601.08	0.00374
1610.73	0.00265
1620.37	0.0022436
1630.01	0.001806
1639.66	0.0018195
1649.3	0.0017936
1658.95	0.0017009
1668.59	0.0019604
1678.24	0.0016765
1687.88	0.0020561
1697.53	0.0017064
1707.17	0.0020896
1716.82	0.0015689
1726.46	0.0014263
1736.11	0.00152
1745.75	0.0018504
1755.4	0.0020244
1765.04	0.0020741
1774.69	0.00247
1784.33	0.0022707
1793.98	0.001694
1803.62	0.0018055
1813.27	0.0018955
1822.91	0.0018209
1832.55	0.0016084
1842.2	0.0015417
1851.84	0.0018777
1861.49	0.0018181
1871.13	0.0020339
1880.78	0.0020414
1890.42	0.00255
1900.07	0.00247
1909.71	0.002255
1919.36	0.0020894
1929	0.00238
1938.65	0.0018129
1948.29	0.0018025
1957.94	0.0014258
1967.58	0.0014762
1977.23	0.0014059
1986.87	0.00132175
1996.52	0.001138
2006.16	0.0015487
2015.81	0.0015987
2025.45	0.0017917
2035.1	0.002106
2044.74	0.001823
2054.38	0.0015773
2064.03	0.0015981
2073.67	0.00132837
2083.32	0.0015402
2092.96	0.0016774
2102.61	0.0014335
2112.25	0.0014886
2121.9	0.00116
2131.54	0.0016587
2141.19	0.0014139
2150.83	0.0015649
2160.48	0.001523
2170.12	0.0014654
2179.77	0.00134935
2189.41	0.001382
2199.06	0.00131382
2208.7	0.001547
2218.35	0.0013878
2227.99	0.0016713
2237.64	0.0015982
2247.28	0.001558
2256.92	0.001878
2266.57	0.0019021
2276.21	0.0017419
2285.86	0.001935
2295.5	0.0018767
2305.15	0.0014689
2314.79	0.0015493
2324.44	0.001169
2334.08	0.0017374
2343.73	0.0017258
2353.37	0.0016375
2363.02	0.001748
2372.66	0.0017235
2382.31	0.0015972
2391.95	0.0016323
2401.6	0.0017382
2411.24	0.0015653
2420.89	0.001454
2430.53	0.0015646
2440.18	0.0018195
2449.82	0.0018404
2459.47	0.00195
2469.11	0.0019836
2478.75	0.0015127
2488.4	0.0015226
2498.04	0.0014233
2507.69	0.0016048
2517.33	0.001566
2526.98	0.001905
2536.62	0.00137391
2546.27	0.0020066
2555.91	0.0017172
2565.56	0.0019587
2575.2	0.0021822
2584.85	0.0017071
2594.49	0.0015365
2604.14	0.002183
2613.78	0.0022105
2623.43	0.0017955
2633.07	0.0014902
2642.72	0.00128147
2652.36	0.00127529
2662.01	0.001688
2671.65	0.0015007
2681.29	0.0016588
2690.94	0.0018869
2700.58	0.0019168
2710.23	0.0016869
2719.87	0.0015435
2729.52	0.0014113
2739.16	0.0012455
2748.81	0.0015962
2758.45	0.0015485
2768.1	0.0020021
2777.74	0.0015147
2787.39	0.0015842
2797.03	0.0016036
2806.68	0.0012351
2816.32	0.0014876
2825.97	0.00108
2835.61	0.0020507
2845.26	0.0019286
2854.9	0.0015632
2864.55	0.001932
2874.19	0.0021791
2883.84	0.0013776
2893.48	0.0015267
2903.12	0.0014871
2912.77	0.0016482
2922.41	0.0018404
2932.06	0.0015568
2941.7	0.0020304
2951.35	0.0019301
2960.99	0.0015035
2970.64	0.0015441
2980.28	0.0020151
2989.93	0.002213
2999.57	0.0018954
3009.22	0.00137275
3018.86	0.00316
3028.51	0.00282
3038.15	0.00397
3047.8	0.00358
3057.44	0.00467
3067.09	0.00655
3076.73	0.00824
3086.38	0.00833
3096.02	0.00573
3105.67	0.00291
3115.31	0.001452
3124.95	0.0015376
3134.6	0.0019294
3144.24	0.0014625
3153.89	0.0016912
3163.53	0.0016861
3173.18	0.0015107
3182.82	0.00261
3192.47	0.0018949
3202.11	0.001556
3211.76	0.0019852
3221.4	0.00129046
3231.05	0.0021109
3240.69	0.00127729
3250.34	0.0018975
3259.98	0.0019021
3269.63	0.0016721
3279.27	0.0014729
3288.92	0.000829
3298.56	0.0017645
3308.21	0.0017728
3317.85	0.001023
3327.49	0.001007
3337.14	0.000616
3346.78	0.0017024
3356.43	0.0014035
3366.07	0.0015151
3375.72	0.0020432
3385.36	0.001016
3395.01	0.00131534
3404.65	0.0014722
3414.3	0.001048
3423.94	0.000859
3433.59	0.0017096
3443.23	0.0014323
3452.88	0.00118
3462.52	0.0014336
3472.17	0.001129
3481.81	0.0018262
3491.46	0.0016691
3501.1	0.00129687
3510.75	0.00165
3520.39	0.0015618
3530.04	0.0019956
3539.68	0.0017621
3549.32	0.0017472
3558.97	0.0018005
3568.61	0.0018138
3578.26	0.0015261
3587.9	0.0020418
3597.55	0.0016799
3607.19	0.0013905
3616.84	0.0015833
3626.48	0.0022023
3636.13	0.0012021
3645.77	0.00132809
3655.42	0.0016777
3665.06	0.0018263
3674.71	0.0017305
3684.35	0.00236
3694	0.002237
3703.64	0.0018924
3713.29	0.00127994
3722.93	0.002275
3732.58	0.000837
3742.22	0.0016169
3751.86	0.0022153
3761.51	0.0015335
3771.15	0.0021889
3780.8	0.0019127
3790.44	0.0018012
3800.09	0.000943
3809.73	0.0016785
3819.38	0.0017841
3829.02	0.001855
3838.67	0.0017119
3848.31	0.00256
3857.96	0.0021511
3867.6	0.0021511
3877.25	0.0014565
3886.89	0.00256
3896.54	0.0014253
3906.18	0.0022531
3915.83	0.0015451
3925.47	0.00275
3935.12	0.0015717
3944.76	0.0021143
3954.41	0.002231
3964.05	0.0020976
3973.69	0.00275
3983.34	0.0016208
3992.98	0.00254
