Infrared Spectrum: 3,3,'5,5'-Tetramethylbiphenyl
Formula: C 16 H 18
CAS: 25570-02-9
State: gas
Origin: EPA-IR VAPOR PHASE LIBRARY
1/CM	ABSORBANCE
549.8	0.0007756
559.445	0.00131
569.09	0.00125
578.734	0.00223
588.379	0.0003369
598.024	0.0008212
607.669	0.0011399
617.313	0.00026336
626.958	0.000391
636.603	0.00125
646.248	0.00137
655.893	0.00144
665.537	0.00269
675.182	0.00468
684.827	0.02046
694.472	0.06302
704.116	0.03319
713.761	0.00872
723.406	0.01187
733.051	0.03228
742.695	0.00526
752.34	0.00219
761.985	0.00181
771.63	0.00204
781.275	0.00278
790.919	0.00179
800.564	0.00233
810.209	0.00309
819.854	0.00633
829.498	0.03241
839.143	0.11478
848.788	0.07611
858.433	0.01966
868.078	0.00647
877.722	0.00799
887.367	0.00788
897.012	0.00723
906.657	0.00458
916.301	0.00507
925.946	0.0048
935.591	0.00649
945.236	0.00729
954.88	0.00493
964.525	0.00463
974.17	0.00473
983.815	0.0047
993.46	0.00536
1003.1	0.00547
1012.75	0.00403
1022.39	0.00414
1032.04	0.00516
1041.68	0.00808
1051.33	0.00886
1060.97	0.00804
1070.62	0.00557
1080.26	0.00456
1089.91	0.00361
1099.55	0.01044
1109.2	0.01216
1118.84	0.00467
1128.49	0.00332
1138.13	0.00237
1147.78	0.00133
1157.42	0.00337
1167.07	0.00255
1176.71	0.00269
1186.36	0.00334
1196	0.0025
1205.64	0.00448
1215.29	0.0033
1224.93	0.00309
1234.58	0.00356
1244.22	0.00389
1253.87	0.00398
1263.51	0.00334
1273.16	0.00327
1282.8	0.00352
1292.45	0.00441
1302.09	0.00507
1311.74	0.00478
1321.38	0.00461
1331.03	0.00507
1340.67	0.00655
1350.32	0.00921
1359.96	0.01177
1369.61	0.0141
1379.25	0.0186
1388.9	0.01819
1398.54	0.01791
1408.18	0.01944
1417.83	0.0221
1427.47	0.0304
1437.12	0.04546
1446.76	0.04323
1456.41	0.03807
1466.05	0.03166
1475.7	0.03198
1485.34	0.038
1494.99	0.03505
1504.63	0.03229
1514.28	0.02914
1523.92	0.0315
1533.57	0.03576
1543.21	0.03098
1552.86	0.02683
1562.5	0.03238
1572.15	0.04355
1581.79	0.0768
1591.44	0.17098
1601.08	0.21969
1610.73	0.07244
1620.37	0.02243
1630.01	0.0099
1639.66	0.00607
1649.3	0.0047
1658.95	0.00368
1668.59	0.00299
1678.24	0.0034
1687.88	0.00417
1697.53	0.00382
1707.17	0.00421
1716.82	0.00606
1726.46	0.01235
1736.11	0.01416
1745.75	0.00657
1755.4	0.00875
1765.04	0.00953
1774.69	0.0086
1784.33	0.00493
1793.98	0.00218
1803.62	0.00197
1813.27	0.0021
1822.91	0.00242
1832.55	0.00204
1842.2	0.00183
1851.84	0.00199
1861.49	0.00188
1871.13	0.00221
1880.78	0.0026
1890.42	0.00315
1900.07	0.00298
1909.71	0.00267
1919.36	0.00277
1929	0.00269
1938.65	0.00217
1948.29	0.00171
1957.94	0.00137
1967.58	0.0011057
1977.23	0.0009957
1986.87	0.0009512
1996.52	0.0009245
2006.16	0.0008537
2015.81	0.0007679
2025.45	0.0009724
2035.1	0.0007584
2044.74	0.0007646
2054.38	0.0007715
2064.03	0.0006359
2073.67	0.0007189
2083.32	0.0007475
2092.96	0.0008664
2102.61	0.00121
2112.25	0.0017
2121.9	0.0011967
2131.54	0.00123
2141.19	0.00143
2150.83	0.0009773
2160.48	0.0006914
2170.12	0.0006838
2179.77	0.0008916
2189.41	0.000757
2199.06	0.0006789
2208.7	0.000516
2218.35	0.0004469
2227.99	0.0008802
2237.64	0.0007969
2247.28	0.0007201
2256.92	0.0008035
2266.57	0.0006045
2276.21	0.0008283
2285.86	0.0008554
2295.5	0.0010942
2305.15	0.0010461
2314.79	0.00133
2324.44	0.00205
2334.08	0.00203
2343.73	0.00135
2353.37	0.0013
2363.02	0.00123
2372.66	0.00138
2382.31	0.0014
2391.95	0.00173
2401.6	0.0017
2411.24	0.00184
2420.89	0.00191
2430.53	0.00194
2440.18	0.00191
2449.82	0.00163
2459.47	0.00155
2469.11	0.00134
2478.75	0.00142
2488.4	0.00125
2498.04	0.00142
2507.69	0.00128
2517.33	0.00125
2526.98	0.0010692
2536.62	0.0011828
2546.27	0.0011569
2555.91	0.0010498
2565.56	0.0009164
2575.2	0.0009869
2584.85	0.0009475
2594.49	0.00114
2604.14	0.0010154
2613.78	0.0009564
2623.43	0.0010587
2633.07	0.00138
2642.72	0.0010908
2652.36	0.0011081
2662.01	0.0009209
2671.65	0.0009365
2681.29	0.0009851
2690.94	0.00132
2700.58	0.0018
2710.23	0.00198
2719.87	0.00279
2729.52	0.00484
2739.16	0.00915
2748.81	0.00736
2758.45	0.00411
2768.1	0.00321
2777.74	0.00321
2787.39	0.00356
2797.03	0.00446
2806.68	0.00542
2816.32	0.00795
2825.97	0.01078
2835.61	0.01497
2845.26	0.02169
2854.9	0.03521
2864.55	0.06086
2874.19	0.08222
2883.84	0.06837
2893.48	0.0585
2903.12	0.06984
2912.77	0.09427
2922.41	0.14982
2932.06	0.17936
2941.7	0.1152
2951.35	0.06928
2960.99	0.0486
2970.64	0.03661
2980.28	0.04094
2989.93	0.05459
2999.57	0.06604
3009.22	0.07965
3018.86	0.11064
3028.51	0.13813
3038.15	0.10965
3047.8	0.07159
3057.44	0.04192
3067.09	0.02529
3076.73	0.01829
3086.38	0.01453
3096.02	0.01144
3105.67	0.00722
3115.31	0.00537
3124.95	0.00388
3134.6	0.00274
3144.24	0.00234
3153.89	0.00187
3163.53	0.00151
3173.18	0.00155
3182.82	0.00144
3192.47	0.00141
3202.11	0.00165
3211.76	0.00139
3221.4	0.0011495
3231.05	0.0008812
3240.69	0.0011599
3250.34	0.0011899
3259.98	0.0011209
3269.63	0.0011977
3279.27	0.0010074
3288.92	0.0011644
3298.56	0.0007318
3308.21	0.0007136
3317.85	0.0007433
3327.49	0.0009178
3337.14	0.0005761
3346.78	0.0009123
3356.43	0.00086
3366.07	0.0011023
3375.72	0.0007884
3385.36	0.0007382
3395.01	0.0008652
3404.65	0.0007523
3414.3	0.0005002
3423.94	0.0009689
3433.59	0.0008904
3443.23	0.0011149
3452.88	0.0010615
3462.52	0.0009444
3472.17	0.0008342
3481.81	0.0008887
3491.46	0.000549
3501.1	0.0006874
3510.75	0.0006676
3520.39	0.0007505
3530.04	0.000388
3539.68	0.0010109
3549.32	0.000907
3558.97	0.0010433
3568.61	0.00128
3578.26	0.0009728
3587.9	0.0003579
3597.55	0.000375
3607.19	0.0007059
3616.84	0.0005818
3626.48	0.0005903
3636.13	0.0004982
3645.77	0.0006023
3655.42	0.0004644
3665.06	0.0005727
3674.71	0.0005616
3684.35	0.00029505
3694	0.0005567
3703.64	0.0003134
3713.29	0.0006414
3722.93	0.0008662
3732.58	0.0003349
3742.22	0.0005994
3751.86	0.0009967
3761.51	0.0009064
3771.15	0.00123
3780.8	0.00023116
3790.44	0.000613
3800.09	0.0007811
3809.73	0.0005514
3819.38	0.0009103
3829.02	0.0005591
3838.67	0.0007667
3848.31	0.0006597
3857.96	0.0009726
3867.6	0.0010917
3877.25	0.00142
3886.89	0.0008632
3896.54	0.001084
3906.18	0.00195
3915.83	0.00166
3925.47	0.00154
3935.12	0.00177
3944.76	0.00151
3954.41	0.00152
3964.05	0.00171
3973.69	0.00141
3983.34	0.00159
3992.98	0.00145
