Infrared Spectrum: 3-Fluorothiophenol
Formula: C 6 H 5 F S
CAS: 2557-77-9
State: gas
Origin: EPA-IR VAPOR PHASE LIBRARY
1/CM	ABSORBANCE
549.8	0.002333
559.445	0.000539
569.09	0.000983
578.734	0
588.379	0.0016959
598.024	0.001883
607.669	0.0009045
617.313	0.0011807
626.958	0.0012092
636.603	0.0013594
646.248	0.002843
655.893	0.005313
665.537	0.007883
675.182	0.015693
684.827	0.007933
694.472	0.004913
704.116	0.002123
713.761	0.0016694
723.406	0.0015196
733.051	0.002213
742.695	0.003613
752.34	0.009453
761.985	0.018193
771.63	0.032383
781.275	0.017973
790.919	0.009803
800.564	0.003143
810.209	0.002073
819.854	0.002573
829.498	0.003243
839.143	0.005993
848.788	0.009703
858.433	0.014793
868.078	0.027633
877.722	0.040013
887.367	0.033773
897.012	0.013883
906.657	0.005843
916.301	0.005213
925.946	0.004723
935.591	0.003403
945.236	0.001873
954.88	0.0016572
964.525	0.0016942
974.17	0.0017028
983.815	0.0016504
993.46	0.003053
1003.1	0.003303
1012.75	0.002583
1022.39	0.001833
1032.04	0.002303
1041.68	0.0017212
1051.33	0.003483
1060.97	0.004413
1070.62	0.004463
1080.26	0.004733
1089.91	0.007423
1099.55	0.007253
1109.2	0.002953
1118.84	0.002823
1128.49	0.000381
1138.13	0.002133
1147.78	0.004313
1157.42	0.005063
1167.07	0.004233
1176.71	0.0016111
1186.36	0.004873
1196	0.005693
1205.64	0.010183
1215.29	0.023433
1224.93	0.029463
1234.58	0.028473
1244.22	0.013623
1253.87	0.017463
1263.51	0.020473
1273.16	0.017923
1282.8	0.005473
1292.45	0.003923
1302.09	0.003283
1311.74	0.002673
1321.38	0.002583
1331.03	0.002553
1340.67	0.001973
1350.32	0.0015468
1359.96	0.0014992
1369.61	0.0016333
1379.25	0.002153
1388.9	0.002973
1398.54	0.004033
1408.18	0.007673
1417.83	0.014803
1427.47	0.016983
1437.12	0.015493
1446.76	0.008593
1456.41	0.011663
1466.05	0.029173
1475.7	0.043283
1485.34	0.036653
1494.99	0.009533
1504.63	0.005663
1514.28	0.006893
1523.92	0.007103
1533.57	0.005163
1543.21	0.005213
1552.86	0.007973
1562.5	0.015513
1572.15	0.031073
1581.79	0.050163
1591.44	0.071583
1601.08	0.058983
1610.73	0.026753
1620.37	0.006613
1630.01	0.003463
1639.66	0.002243
1649.3	0.002183
1658.95	0.002693
1668.59	0.002433
1678.24	0.002083
1687.88	0.002223
1697.53	0.002033
1707.17	0.002463
1716.82	0.002533
1726.46	0.002933
1736.11	0.002693
1745.75	0.002393
1755.4	0.002323
1765.04	0.001873
1774.69	0.001913
1784.33	0.001863
1793.98	0.0013402
1803.62	0.0013005
1813.27	0.0015415
1822.91	0.0015773
1832.55	0.001903
1842.2	0.002303
1851.84	0.001923
1861.49	0.0015767
1871.13	0.0014338
1880.78	0.0012273
1890.42	0.0012852
1900.07	0.0014817
1909.71	0.001993
1919.36	0.002323
1929	0.002023
1938.65	0.0017365
1948.29	0.0010273
1957.94	0.0010914
1967.58	0.0012562
1977.23	0.0009675
1986.87	0.0011628
1996.52	0.0010709
2006.16	0.0011123
2015.81	0.0011879
2025.45	0.0010158
2035.1	0.0010899
2044.74	0.0011975
2054.38	0.0010464
2064.03	0.0009972
2073.67	0.0010863
2083.32	0.0011771
2092.96	0.0015784
2102.61	0.0016916
2112.25	0.0015483
2121.9	0.0012761
2131.54	0.0009531
2141.19	0.0012606
2150.83	0.0014494
2160.48	0.0012954
2170.12	0.0010938
2179.77	0.0009299
2189.41	0.0011976
2199.06	0.0009409
2208.7	0.0009298
2218.35	0.0011569
2227.99	0.0010209
2237.64	0.000775117
2247.28	0.0010864
2256.92	0.0010234
2266.57	0.00086279
2276.21	0.0012037
2285.86	0.0009942
2295.5	0.0010356
2305.15	0.0011773
2314.79	0.0014974
2324.44	0.0013367
2334.08	0.0010619
2343.73	0.0011853
2353.37	0.0010748
2363.02	0.0013193
2372.66	0.0012182
2382.31	0.0011613
2391.95	0.001562
2401.6	0.0010785
2411.24	0.0011632
2420.89	0.0012157
2430.53	0.0015277
2440.18	0.0012996
2449.82	0.002003
2459.47	0.0014375
2469.11	0.0016276
2478.75	0.0016199
2488.4	0.0014001
2498.04	0.0011436
2507.69	0.0010588
2517.33	0.0010857
2526.98	0.0009458
2536.62	0.00080455
2546.27	0.0011715
2555.91	0.0011336
2565.56	0.00086724
2575.2	0.0013885
2584.85	0.0011514
2594.49	0.0011828
2604.14	0.0009841
2613.78	0.0010548
2623.43	0.00084418
2633.07	0.0011121
2642.72	0.0011348
2652.36	0.0010984
2662.01	0.0012206
2671.65	0.0010389
2681.29	0.0013109
2690.94	0.0010471
2700.58	0.0009824
2710.23	0.0012729
2719.87	0.0015189
2729.52	0.0009799
2739.16	0.0010564
2748.81	0.00086428
2758.45	0.000665
2768.1	0.0010658
2777.74	0.00084501
2787.39	0.0012534
2797.03	0.0014138
2806.68	0.0009655
2816.32	0.00076495
2825.97	0.0012697
2835.61	0.0012575
2845.26	0.001316
2854.9	0.00086975
2864.55	0.00079271
2874.19	0.0008215
2883.84	0.0006958
2893.48	0.0006857
2903.12	0.0006751
2912.77	0.0009836
2922.41	0.0012633
2932.06	0.0010922
2941.7	0.0010668
2951.35	0.0011999
2960.99	0.001166
2970.64	0.0011018
2980.28	0.00085202
2989.93	0.001362
2999.57	0.0009906
3009.22	0.0014023
3018.86	0.001993
3028.51	0.001823
3038.15	0.002873
3047.8	0.002823
3057.44	0.003693
3067.09	0.004943
3076.73	0.006803
3086.38	0.006253
3096.02	0.003833
3105.67	0.002983
3115.31	0.001933
3124.95	0.0017025
3134.6	0.000491
3144.24	0.00085089
3153.89	0.0006986
3163.53	0.000538
3173.18	0.0011074
3182.82	0.0012273
3192.47	0.0009515
3202.11	0.0012615
3211.76	0.000667
3221.4	0.0012109
3231.05	0.0011511
3240.69	0.0006758
3250.34	0.001148
3259.98	0.00083036
3269.63	0.0008115
3279.27	0.0009028
3288.92	0.0011482
3298.56	0.000355
3308.21	0.0014908
3317.85	0.0007501
3327.49	0.000577
3337.14	0.0007485
3346.78	0.0009142
3356.43	0.0017146
3366.07	0.0008895
3375.72	0.0010348
3385.36	0.00103
3395.01	0.001348
3404.65	0.0009725
3414.3	0.0008108
3423.94	0.001583
3433.59	0.0010084
3443.23	0.0009521
3452.88	0.0007409
3462.52	0.0009491
3472.17	0.0009614
3481.81	0.0011802
3491.46	0.0010027
3501.1	0.0012176
3510.75	0.00079766
3520.39	0.00146
3530.04	0.0013036
3539.68	0.0014634
3549.32	0.0010182
3558.97	0.0011708
3568.61	0.0011316
3578.26	0.0011784
3587.9	0.0010948
3597.55	0.0009023
3607.19	0.001438
3616.84	0.000657
3626.48	0.0014284
3636.13	0.0012385
3645.77	0.0013011
3655.42	0.000956
3665.06	0.0007931
3674.71	0.00079217
3684.35	0.0010468
3694	0.00048
3703.64	0.0011043
3713.29	0.0007102
3722.93	0.0012055
3732.58	0.0009881
3742.22	0.0011406
3751.86	0.0011365
3761.51	0.0012961
3771.15	0.0008877
3780.8	0.0010259
3790.44	0.0007335
3800.09	0.0007448
3809.73	0.000779723
3819.38	0.000673
3829.02	0.0010316
3838.67	0.0013068
3848.31	0.000495
3857.96	0.0013959
3867.6	0.0006742
3877.25	0.0012205
3886.89	0.0010176
3896.54	0.0015007
3906.18	0.000321
3915.83	0.0013692
3925.47	0.0013643
3935.12	0.0017635
3944.76	0.0010845
3954.41	0.0010366
3964.05	0.0009656
3973.69	0.00084073
3983.34	0.0012321
3992.98	0.0011967
