Infrared Spectrum: Methyl 3-trifluoromethylbenzoate
Formula: C 9 H 7 F 3 O 2
CAS: 2557-13-3
State: gas
Origin: EPA-IR VAPOR PHASE LIBRARY
1/CM	ABSORBANCE
549.8	0.00062239
559.445	0.00057746
569.09	0.000376
578.734	0.0006501
588.379	0.0004863
598.024	0.0009295
607.669	0.001614
617.313	0.0014713
626.958	0.0013253
636.603	0.001994
646.248	0.007514
655.893	0.007764
665.537	0.002784
675.182	0.003854
684.827	0.019444
694.472	0.052834
704.116	0.022954
713.761	0.005534
723.406	0.002504
733.051	0.002964
742.695	0.007304
752.34	0.021904
761.985	0.028444
771.63	0.016154
781.275	0.006704
790.919	0.003054
800.564	0.003894
810.209	0.006554
819.854	0.006834
829.498	0.004514
839.143	0.006544
848.788	0.006384
858.433	0.003864
868.078	0.002144
877.722	0.001634
887.367	0.001674
897.012	0.002114
906.657	0.003844
916.301	0.007954
925.946	0.008314
935.591	0.005044
945.236	0.004274
954.88	0.005994
964.525	0.010804
974.17	0.021294
983.815	0.021964
993.46	0.008664
1003.1	0.004424
1012.75	0.004274
1022.39	0.003834
1032.04	0.004174
1041.68	0.004444
1051.33	0.007244
1060.97	0.017104
1070.62	0.047774
1080.26	0.068514
1089.91	0.055944
1099.55	0.033264
1109.2	0.040274
1118.84	0.049994
1128.49	0.057624
1138.13	0.107544
1147.78	0.188464
1157.42	0.138104
1167.07	0.103084
1176.71	0.125614
1186.36	0.089734
1196	0.048484
1205.64	0.030174
1215.29	0.025094
1224.93	0.035314
1234.58	0.079584
1244.22	0.230754
1253.87	0.410204
1263.51	0.240194
1273.16	0.071264
1282.8	0.037964
1292.45	0.044794
1302.09	0.040874
1311.74	0.035574
1321.38	0.064754
1331.03	0.143654
1340.67	0.128064
1350.32	0.043014
1359.96	0.016344
1369.61	0.009454
1379.25	0.006714
1388.9	0.005924
1398.54	0.005814
1408.18	0.006694
1417.83	0.008434
1427.47	0.016694
1437.12	0.031964
1446.76	0.018774
1456.41	0.009424
1466.05	0.006714
1475.7	0.005594
1485.34	0.005124
1494.99	0.004514
1504.63	0.003394
1514.28	0.003174
1523.92	0.003024
1533.57	0.002974
1543.21	0.002884
1552.86	0.002704
1562.5	0.002984
1572.15	0.003494
1581.79	0.004074
1591.44	0.004944
1601.08	0.005514
1610.73	0.008024
1620.37	0.009264
1630.01	0.005504
1639.66	0.004154
1649.3	0.003574
1658.95	0.002924
1668.59	0.002794
1678.24	0.003264
1687.88	0.004784
1697.53	0.007624
1707.17	0.011444
1716.82	0.011564
1726.46	0.016214
1736.11	0.048814
1745.75	0.146194
1755.4	0.138584
1765.04	0.029524
1774.69	0.009544
1784.33	0.010074
1793.98	0.010444
1803.62	0.005444
1813.27	0.002924
1822.91	0.002384
1832.55	0.002564
1842.2	0.002754
1851.84	0.002704
1861.49	0.002194
1871.13	0.001774
1880.78	0.0014452
1890.42	0.001371
1900.07	0.001774
1909.71	0.002634
1919.36	0.002784
1929	0.002254
1938.65	0.002104
1948.29	0.002444
1957.94	0.002634
1967.58	0.002434
1977.23	0.001734
1986.87	0.001173
1996.52	0.001013
2006.16	0.0009412
2015.81	0.0010147
2025.45	0.0011735
2035.1	0.0011912
2044.74	0.0012054
2054.38	0.0011145
2064.03	0.0012178
2073.67	0.0013161
2083.32	0.001624
2092.96	0.001784
2102.61	0.001914
2112.25	0.001684
2121.9	0.0011052
2131.54	0.0008199
2141.19	0.0008611
2150.83	0.0008537
2160.48	0.0008535
2170.12	0.0009635
2179.77	0.001008
2189.41	0.0009664
2199.06	0.0008857
2208.7	0.0008809
2218.35	0.0009624
2227.99	0.0010216
2237.64	0.0010849
2247.28	0.0010237
2256.92	0.0009908
2266.57	0.0011219
2276.21	0.0011969
2285.86	0.0013413
2295.5	0.001231
2305.15	0.0009886
2314.79	0.0010145
2324.44	0.0010254
2334.08	0.001004
2343.73	0.0011349
2353.37	0.001201
2363.02	0.0009939
2372.66	0.0009108
2382.31	0.0008713
2391.95	0.0008176
2401.6	0.0007886
2411.24	0.0007542
2420.89	0.0007866
2430.53	0.0007352
2440.18	0.0006736
2449.82	0.00063505
2459.47	0.00061676
2469.11	0.0006897
2478.75	0.0007669
2488.4	0.0008006
2498.04	0.0008038
2507.69	0.0007954
2517.33	0.0007455
2526.98	0.0006804
2536.62	0.0006818
2546.27	0.00061514
2555.91	0.00064239
2565.56	0.0006715
2575.2	0.0007517
2584.85	0.000962
2594.49	0.0010828
2604.14	0.0009752
2613.78	0.0007976
2623.43	0.0006881
2633.07	0.00060166
2642.72	0.000548364
2652.36	0.0004949
2662.01	0.00060778
2671.65	0.000459
2681.29	0.000403
2690.94	0.000473
2700.58	0.00054195
2710.23	0.0004461
2719.87	0.0006505
2729.52	0.00053588
2739.16	0.0007083
2748.81	0.00058065
2758.45	0.0006981
2768.1	0.00060498
2777.74	0.00058763
2787.39	0.00059147
2797.03	0.0006508
2806.68	0.0008085
2816.32	0.0008978
2825.97	0.001058
2835.61	0.001664
2845.26	0.003504
2854.9	0.004384
2864.55	0.002284
2874.19	0.001714
2883.84	0.002154
2893.48	0.002654
2903.12	0.003334
2912.77	0.004104
2922.41	0.004204
2932.06	0.003914
2941.7	0.004964
2951.35	0.010754
2960.99	0.025194
2970.64	0.016254
2980.28	0.005384
2989.93	0.004664
2999.57	0.005764
3009.22	0.006064
3018.86	0.005014
3028.51	0.004924
3038.15	0.004754
3047.8	0.003934
3057.44	0.003574
3067.09	0.003874
3076.73	0.005864
3086.38	0.007004
3096.02	0.004384
3105.67	0.002384
3115.31	0.001834
3124.95	0.0014924
3134.6	0.0012109
3144.24	0.000861
3153.89	0.0007896
3163.53	0.0006911
3173.18	0.0007713
3182.82	0.000803
3192.47	0.0007682
3202.11	0.000808
3211.76	0.0007942
3221.4	0.00060214
3231.05	0.00063675
3240.69	0.0004703
3250.34	0.000459
3259.98	0.000433
3269.63	0.00053756
3279.27	0.0004784
3288.92	0.000506
3298.56	0.0005248
3308.21	0.000433
3317.85	0.000352
3327.49	0.00039
3337.14	0.00056731
3346.78	0.00055859
3356.43	0.0005321
3366.07	0.00064215
3375.72	0.0004577
3385.36	0.0005021
3395.01	0.00056907
3404.65	0.0005045
3414.3	0.00061781
3423.94	0.0006537
3433.59	0.00056824
3443.23	0.0006479
3452.88	0.0007087
3462.52	0.0009008
3472.17	0.001644
3481.81	0.001974
3491.46	0.0013992
3501.1	0.0009352
3510.75	0.0008324
3520.39	0.0007435
3530.04	0.0004507
3539.68	0.00055243
3549.32	0.00061364
3558.97	0.000437
3568.61	0.0004828
3578.26	0.000544306
3587.9	0.0007201
3597.55	0.0004582
3607.19	0.0005177
3616.84	0.00054197
3626.48	0.0005224
3636.13	0.0005194
3645.77	0.000301
3655.42	0.0004493
3665.06	0.000375
3674.71	0.00053426
3684.35	0.0004977
3694	0.0004501
3703.64	0.0004593
3713.29	0.0006619
3722.93	0.000404
3732.58	0.0005138
3742.22	0.00057776
3751.86	0.000415
3761.51	0.00057523
3771.15	0.00057256
3780.8	0.0005019
3790.44	0.0004532
3800.09	0.00063747
3809.73	0.000546992
3819.38	0.0006614
3829.02	0.0004626
3838.67	0.0007117
3848.31	0.000442
3857.96	0.000432
3867.6	0.000412
3877.25	0.0004676
3886.89	0.000339
3896.54	0.00060392
3906.18	0.0006973
3915.83	0.00062368
3925.47	0.000553145
3935.12	0.0007306
3944.76	0.0006631
3954.41	0.0005595
3964.05	0.00060223
3973.69	0.0004669
3983.34	0.000545416
3992.98	0.00057176
