Infrared Spectrum: Hydroxypropyl acrylate
Formula: C 6 H 10 O 3
CAS: 25584-83-2
State: gas
Origin: EPA-IR VAPOR PHASE LIBRARY
1/CM	ABSORBANCE
501.5	0.0014206
513.074	0.0014606
524.648	0.0012006
536.222	0.0010206
547.796	0.0008986
559.37	0.0007767
570.944	0.0007491
582.518	0.0008008
594.092	0.0007524
605.666	0.0006983
617.24	0.0008284
628.814	0.0008642
640.388	0.0009647
651.962	0.0010306
663.536	0.0013706
675.11	0.0011306
686.684	0.000647
698.258	0.0004408
709.832	0.000422
721.406	0.0003804
732.98	0.0004649
744.554	0.0005203
756.128	0.0005301
767.702	0.0007938
779.276	0.0014006
790.85	0.0029206
802.423	0.0053806
813.997	0.0060406
825.571	0.0046406
837.145	0.0037806
848.719	0.0034706
860.293	0.0031206
871.867	0.0028206
883.441	0.0028206
895.015	0.0031306
906.589	0.0036306
918.163	0.0048906
929.737	0.0069406
941.311	0.0091406
952.885	0.0108906
964.459	0.0123206
976.033	0.0130806
987.607	0.0133906
999.181	0.0117906
1010.76	0.0099706
1022.33	0.0076706
1033.9	0.0097806
1045.48	0.0166306
1057.05	0.0257606
1068.63	0.0245306
1080.2	0.0154306
1091.77	0.0115406
1103.35	0.0104906
1114.92	0.0105706
1126.49	0.0123306
1138.07	0.0149706
1149.64	0.0185006
1161.22	0.0276206
1172.79	0.0528306
1184.36	0.0752006
1195.94	0.0537006
1207.51	0.0231206
1219.09	0.0139906
1230.66	0.0156606
1242.23	0.0246606
1253.81	0.0359706
1265.38	0.0347806
1276.96	0.0232706
1288.53	0.0186906
1300.1	0.0156606
1311.68	0.0092306
1323.25	0.0066806
1334.83	0.0059306
1346.4	0.0055106
1357.97	0.0056506
1369.55	0.0066206
1381.12	0.0087206
1392.7	0.0122406
1404.27	0.0232306
1415.84	0.0215406
1427.42	0.0085606
1438.99	0.0059706
1450.57	0.0059906
1462.14	0.0052106
1473.71	0.0036506
1485.29	0.0022906
1496.86	0.0016206
1508.44	0.0013106
1520.01	0.0011306
1531.58	0.0010106
1543.16	0.0008762
1554.73	0.0007714
1566.31	0.0007183
1577.88	0.0007806
1589.45	0.0010706
1601.03	0.0016706
1612.6	0.0026906
1624.18	0.0041306
1635.75	0.0049506
1647.32	0.0032406
1658.9	0.0016206
1670.47	0.0014906
1682.05	0.0019206
1693.62	0.0029206
1705.19	0.0050906
1716.77	0.0104106
1728.34	0.0224706
1739.92	0.0406906
1751.49	0.0458406
1763.06	0.0289006
1774.64	0.0111206
1786.21	0.0044706
1797.79	0.0024106
1809.36	0.0016206
1820.93	0.0011906
1832.51	0.0008612
1844.08	0.0007528
1855.66	0.0006991
1867.23	0.0006078
1878.8	0.0005824
1890.38	0.000585
1901.95	0.0006524
1913.53	0.0008719
1925.1	0.0011506
1936.67	0.0010906
1948.25	0.0007386
1959.82	0.000537
1971.4	0.000425
1982.97	0.0004207
1994.54	0.000463
2006.12	0.0005475
2017.69	0.0005865
2029.27	0.0005784
2040.84	0.0005365
2052.41	0.0004527
2063.99	0.0004642
2075.56	0.0004537
2087.14	0.0004296
2098.71	0.000397
2110.28	0.0003258
2121.86	0.0003247
2133.43	0.0002614
2145.01	0.0002068
2156.58	0.0001795
2168.15	0.0001582
2179.73	0.000159
2191.3	0.0001513
2202.88	0.0001367
2214.45	0.0001148
2226.02	0.0001204
2237.6	0.0001303
2249.17	0.0001147
2260.74	0.0001184
2272.32	0.0001159
2283.89	0.0001309
2295.47	0.0001674
2307.04	0.0001872
2318.61	0.0002017
2330.19	0.000223
2341.76	0.0002226
2353.34	0.0002755
2364.91	0.000262
2376.48	0.0002786
2388.06	0.0001805
2399.63	0.0001506
2411.21	0.0001333
2422.78	9.585e-05
2434.35	0.00010246
2445.93	0.0001365
2457.5	0.0001619
2469.08	0.0001344
2480.65	0.0001707
2492.22	0.0001437
2503.8	0.0001186
2515.37	0.0001133
2526.95	9.827e-05
2538.52	9.645e-05
2550.09	9.476e-05
2561.67	8.93e-05
2573.24	0.0001164
2584.82	0.0001661
2596.39	0.0001184
2607.96	0.0001612
2619.54	0.0001272
2631.11	0.0001971
2642.69	0.0001926
2654.26	0.0002091
2665.83	0.000258
2677.41	0.0002607
2688.98	0.0002861
2700.56	0.0002654
2712.13	0.0002791
2723.7	0.0002478
2735.28	0.0003127
2746.85	0.000339
2758.43	0.0003477
2770	0.0003853
2781.57	0.0003959
2793.15	0.0004655
2804.72	0.0005719
2816.3	0.0006271
2827.87	0.0007937
2839.44	0.0010206
2851.02	0.0013606
2862.59	0.0020506
2874.17	0.0033406
2885.74	0.0050606
2897.31	0.0059406
2908.89	0.0057806
2920.46	0.0055906
2932.04	0.0063006
2943.61	0.0079706
2955.18	0.0095706
2966.76	0.0102406
2978.33	0.0122506
2989.91	0.0125406
3001.48	0.0071506
3013.05	0.0027106
3024.63	0.0015506
3036.2	0.0016906
3047.78	0.0015906
3059.35	0.0009318
3070.92	0.0007588
3082.5	0.0007215
3094.07	0.0007703
3105.65	0.0014406
3117.22	0.0012606
3128.79	0.0003979
3140.37	0.0002423
3151.94	0.0001598
3163.52	0.0001556
3175.09	0.0001611
3186.66	0.0002039
3198.24	0.0001527
3209.81	0.0001343
3221.39	0.0001371
3232.96	9.568e-05
3244.53	7.819e-05
3256.11	7.992e-05
3267.68	8.731e-05
3279.26	7.91e-05
3290.83	8.233e-05
3302.4	0.0001335
3313.98	6.811e-05
3325.55	5.614e-05
3337.13	0.0001117
3348.7	8.388e-05
3360.27	0.0001503
3371.85	0.0002712
3383.42	0.0002916
3395	0.0003386
3406.57	0.0003052
3418.14	0.0003916
3429.72	0.0003415
3441.29	0.0004919
3452.86	0.0005599
3464.44	0.0007118
3476.01	0.0008792
3487.59	0.0008544
3499.16	0.0007139
3510.73	0.0006457
3522.31	0.0006948
3533.88	0.0010406
3545.46	0.0015406
3557.03	0.0017006
3568.6	0.0016906
3580.18	0.0016206
3591.75	0.0015206
3603.33	0.0014206
3614.9	0.0013706
3626.47	0.0019506
3638.05	0.0033806
3649.62	0.0037206
3661.2	0.0026606
3672.77	0.0014806
3684.34	0.0008278
3695.92	0.0004681
3707.49	0.0004144
3719.07	0.0002738
3730.64	0.0001832
3742.21	0.0002225
3753.79	0.0002198
3765.36	0.0001327
3776.94	0.0001761
3788.51	0.0001152
3800.08	0.0001266
3811.66	0.0002102
3823.23	0.0002123
3834.81	0.0002186
3846.38	0.0001953
3857.95	0.0002406
3869.53	0.0002121
3881.1	0.0002815
3892.68	0.0001344
3904.25	0.0001804
3915.82	0.0001764
3927.4	0.000135
3938.97	0.0001467
3950.55	1.3048e-05
3962.12	0.00010972
3973.69	7.147e-05
3985.27	0
3996.84	0.0001566
