Infrared Spectrum: 9-Phenyl-9-fluorenol
Formula: C 19 H 14 O
CAS: 25603-67-2
State: gas
Origin: EPA-IR VAPOR PHASE LIBRARY
1/CM	ABSORBANCE
549.8	0.0008676
559.445	0.0007794
569.09	0.0009532
578.734	0.0024054
588.379	0.0058454
598.024	0.0031554
607.669	0.0015754
617.313	0.0039254
626.958	0.0036754
636.603	0.0166054
646.248	0.0209954
655.893	0.0042054
665.537	0.0047554
675.182	0.0064954
684.827	0.0085754
694.472	0.0280254
704.116	0.0193054
713.761	0.0097154
723.406	0.0308654
733.051	0.0822054
742.695	0.0452654
752.34	0.0551554
761.985	0.0344154
771.63	0.0238954
781.275	0.0082854
790.919	0.0046954
800.564	0.0025754
810.209	0.0018954
819.854	0.0019854
829.498	0.0017654
839.143	0.0018154
848.788	0.0022054
858.433	0.0027054
868.078	0.0031554
877.722	0.0039154
887.367	0.0063454
897.012	0.0076654
906.657	0.0137754
916.301	0.0164454
925.946	0.0076154
935.591	0.0045354
945.236	0.0037454
954.88	0.0034554
964.525	0.0037554
974.17	0.0039754
983.815	0.0043954
993.46	0.0067254
1003.1	0.0090654
1012.75	0.0190854
1022.39	0.0367454
1032.04	0.0338854
1041.68	0.0158954
1051.33	0.0056054
1060.97	0.0029754
1070.62	0.0026954
1080.26	0.0028154
1089.91	0.0025954
1099.55	0.0043854
1109.2	0.0046054
1118.84	0.0034354
1128.49	0.0039554
1138.13	0.0061354
1147.78	0.0122754
1157.42	0.0193954
1167.07	0.0236054
1176.71	0.0248654
1186.36	0.0155954
1196	0.0066954
1205.64	0.0054754
1215.29	0.0047454
1224.93	0.0049354
1234.58	0.0061254
1244.22	0.0061854
1253.87	0.0059454
1263.51	0.0065554
1273.16	0.0084854
1282.8	0.0126054
1292.45	0.0127254
1302.09	0.0113954
1311.74	0.0124254
1321.38	0.0156854
1331.03	0.0199254
1340.67	0.0160854
1350.32	0.0081654
1359.96	0.0050154
1369.61	0.0039854
1379.25	0.0036454
1388.9	0.0028654
1398.54	0.0025054
1408.18	0.0028754
1417.83	0.0040554
1427.47	0.0058754
1437.12	0.0130254
1446.76	0.0372554
1456.41	0.0228154
1466.05	0.0073654
1475.7	0.0093554
1485.34	0.0098754
1494.99	0.0117254
1504.63	0.0062654
1514.28	0.0024254
1523.92	0.0017254
1533.57	0.0015954
1543.21	0.0011854
1552.86	0.0010754
1562.5	0.0012854
1572.15	0.0024254
1581.79	0.0058154
1591.44	0.0099754
1601.08	0.0123654
1610.73	0.0070754
1620.37	0.0032954
1630.01	0.0021254
1639.66	0.0011554
1649.3	0.0010454
1658.95	0.0012454
1668.59	0.0014454
1678.24	0.0014954
1687.88	0.0015454
1697.53	0.0015454
1707.17	0.0011954
1716.82	0.0010454
1726.46	0.0015354
1736.11	0.0014454
1745.75	0.0014654
1755.4	0.0031954
1765.04	0.0019554
1774.69	0.0015354
1784.33	0.0015854
1793.98	0.0031254
1803.62	0.0042854
1813.27	0.0020954
1822.91	0.0013054
1832.55	0.0019154
1842.2	0.0017354
1851.84	0.0016954
1861.49	0.0015354
1871.13	0.0019754
1880.78	0.0021254
1890.42	0.0017954
1900.07	0.0028854
1909.71	0.0039454
1919.36	0.0016754
1929	0.0016654
1938.65	0.0048654
1948.29	0.0043554
1957.94	0.0016554
1967.58	0.0006995
1977.23	0.0004471
1986.87	0.0003637
1996.52	0.0003054
2006.16	0.0002873
2015.81	0.0002745
2025.45	0.0002387
2035.1	0.0002948
2044.74	0.000343
2054.38	0.0003265
2064.03	0.0002741
2073.67	0.0002703
2083.32	0.0002465
2092.96	0.0002595
2102.61	0.0003117
2112.25	0.0002988
2121.9	0.0001878
2131.54	0.0002274
2141.19	0.000216
2150.83	0.0001857
2160.48	0.000219
2170.12	0.0002346
2179.77	0.0002929
2189.41	0.0003037
2199.06	0.0003145
2208.7	0.0003714
2218.35	0.0003263
2227.99	0.0002946
2237.64	0.0003164
2247.28	0.0002903
2256.92	0.0005026
2266.57	0.0004762
2276.21	0.0002972
2285.86	0.0003071
2295.5	0.0003486
2305.15	0.0007185
2314.79	0.0011354
2324.44	0.0004921
2334.08	0.0002871
2343.73	0.0003084
2353.37	0.0002781
2363.02	0.0002938
2372.66	0.0002934
2382.31	0.0002812
2391.95	0.0003872
2401.6	0.0003526
2411.24	0.0002774
2420.89	0.0003947
2430.53	0.0004039
2440.18	0.0003603
2449.82	0.0003241
2459.47	0.0003065
2469.11	0.0003353
2478.75	0.0003441
2488.4	0.0003549
2498.04	0.0004122
2507.69	0.0003979
2517.33	0.0003788
2526.98	0.0002886
2536.62	0.0002629
2546.27	0.0002609
2555.91	0.000335
2565.56	0.0004253
2575.2	0.0004844
2584.85	0.0005275
2594.49	0.0005767
2604.14	0.0005735
2613.78	0.0006189
2623.43	0.000632
2633.07	0.000519
2642.72	0.0006038
2652.36	0.0004401
2662.01	0.0003609
2671.65	0.0004076
2681.29	0.0002614
2690.94	0.0001944
2700.58	0.0003689
2710.23	0.0002357
2719.87	0.0003073
2729.52	0.0002847
2739.16	0.0003877
2748.81	0.0004504
2758.45	0.0004841
2768.1	0.0005447
2777.74	0.0006616
2787.39	0.0004756
2797.03	0.00042
2806.68	0.0004158
2816.32	0.0004518
2825.97	0.0005122
2835.61	0.0005026
2845.26	0.000538
2854.9	0.0008794
2864.55	0.0010954
2874.19	0.0010454
2883.84	0.0010354
2893.48	0.0011954
2903.12	0.0012954
2912.77	0.0015154
2922.41	0.0017954
2932.06	0.0022454
2941.7	0.0019154
2951.35	0.0014454
2960.99	0.0012354
2970.64	0.0012954
2980.28	0.0013854
2989.93	0.0014954
2999.57	0.0026254
3009.22	0.0051354
3018.86	0.0124654
3028.51	0.0220254
3038.15	0.0232954
3047.8	0.0225354
3057.44	0.0310354
3067.09	0.0565254
3076.73	0.0503254
3086.38	0.0250954
3096.02	0.0140254
3105.67	0.0058154
3115.31	0.0031354
3124.95	0.0018454
3134.6	0.0013254
3144.24	0.0010091
3153.89	0.0012554
3163.53	0.0015354
3173.18	0.0010954
3182.82	0.0004871
3192.47	0.0004053
3202.11	0.0003624
3211.76	0.0002011
3221.4	0.0001558
3231.05	0.0001171
3240.69	0.0001373
3250.34	0.0001165
3259.98	0.0002145
3269.63	6.266e-05
3279.27	0.0002738
3288.92	0.0001162
3298.56	0.000254
3308.21	0.0001619
3317.85	0.0001368
3327.49	6.365e-05
3337.14	0.0001413
3346.78	0.0001778
3356.43	0.0004255
3366.07	0.0003895
3375.72	0.0003677
3385.36	0.0004387
3395.01	0.0004734
3404.65	0.0004303
3414.3	0.0004389
3423.94	0.0003547
3433.59	0.0003483
3443.23	0.0004606
3452.88	0.000239
3462.52	0.0003492
3472.17	0.000237
3481.81	0.0002021
3491.46	0.00010097
3501.1	0.0001976
3510.75	0
3520.39	0.0002171
3530.04	0.0001871
3539.68	0.0004148
3549.32	0.0002094
3558.97	0.000146
3568.61	0.0003646
3578.26	0.0005862
3587.9	0.0007712
3597.55	0.0006228
3607.19	0.000786
3616.84	0.0028554
3626.48	0.0133554
3636.13	0.0119854
3645.77	0.0022854
3655.42	0.0010754
3665.06	0.0009109
3674.71	0.0006182
3684.35	0.0006255
3694	0.0005806
3703.64	0.0005783
3713.29	0.000581
3722.93	0.0004115
3732.58	0.0003204
3742.22	0.0002416
3751.86	0.0002743
3761.51	0.0004604
3771.15	0.0005258
3780.8	0.0004159
3790.44	0.0004092
3800.09	0.0003475
3809.73	0.0004736
3819.38	0.0003272
3829.02	0.0004926
3838.67	0.0003347
3848.31	0.0004123
3857.96	0.0002931
3867.6	0.0002143
3877.25	0.0002107
3886.89	0.0003511
3896.54	6.966e-05
3906.18	0.0002393
3915.83	0.0003523
3925.47	0.0001256
3935.12	0.0002452
3944.76	0.0002614
3954.41	0.0003397
3964.05	0.0002782
3973.69	0.0002834
3983.34	0.0003724
3992.98	0.0003086
