Infrared Spectrum: BARIUM DI-NONYL NAPHTHALENE SULFONATE
CAS: 25619-56-1
State: LIQUID
Class: COBLENTZ
Instrument: Not specified, most likely a prism, grating, or hybrid spectrometer.
Sampling: TRANSMISSION
Path length: CAPILLARY
Resolution: 4
Origin: WYANDOTTE CHEMICALS CORP., WYANDOTTE, MICHIGAN, USA
MICROMETERS	TRANSMITTANCE
2.033	0.951
2.07285	0.951
2.1127	0.953
2.15255	0.948
2.19239	0.923
2.23224	0.896
2.27209	0.901
2.31194	0.908
2.35179	0.92
2.39164	0.911
2.43149	0.923
2.47133	0.92
2.51118	0.921
2.55103	0.933
2.59088	0.941
2.63073	0.946
2.67058	0.948
2.71043	0.903
2.75027	0.891
2.79012	0.895
2.82997	0.883
2.86982	0.858
2.90967	0.835
2.94952	0.815
2.98937	0.806
3.02921	0.81
3.06906	0.85
3.10891	0.863
3.14876	0.863
3.18861	0.871
3.22846	0.873
3.26831	0.803
3.30815	0.721
3.348	0.281
3.38785	0.01
3.4277	0.025
3.46755	0.061
3.5074	0.07
3.54725	0.593
3.58709	0.806
3.62694	0.873
3.66679	0.881
3.70664	0.883
3.74649	0.9
3.78634	0.906
3.82619	0.915
3.86603	0.923
3.90588	0.933
3.94573	0.951
3.98558	0.96
4.02543	0.961
4.06528	0.963
4.10513	0.961
4.14497	0.961
4.18482	0.963
4.22467	0.956
4.26452	0.955
4.30437	0.961
4.34422	0.966
4.38407	0.978
4.42391	0.975
4.46376	0.971
4.50361	0.973
4.54346	0.975
4.58331	0.975
4.62316	0.976
4.66301	0.978
4.70285	0.978
4.7427	0.978
4.78255	0.983
4.8224	0.98
4.86225	0.981
4.9021	0.976
4.94195	0.988
4.98179	0.98
5.02164	0.988
5.06149	0.978
5.10134	0.98
5.14119	0.983
5.18104	0.981
5.22089	0.978
5.26073	0.978
5.30058	0.976
5.34043	0.976
5.38028	0.98
5.42013	0.973
5.45998	0.973
5.49983	0.965
5.53967	0.97
5.57952	0.963
5.61937	0.961
5.65922	0.96
5.69907	0.958
5.73892	0.958
5.77877	0.955
5.81861	0.95
5.85846	0.941
5.89831	0.938
5.93816	0.931
5.97801	0.916
6.01786	0.901
6.05771	0.89
6.09755	0.81
6.1374	0.788
6.17725	0.711
6.2171	0.743
6.25695	0.851
6.2968	0.873
6.33665	0.881
6.37649	0.886
6.41634	0.898
6.45619	0.898
6.49604	0.898
6.53589	0.888
6.57574	0.87
6.61559	0.801
6.65543	0.751
6.69528	0.691
6.73513	0.533
6.77498	0.273
6.81483	0.181
6.85468	0.255
6.89453	0.411
6.93437	0.581
6.97422	0.721
7.01407	0.778
7.05392	0.798
7.09377	0.798
7.13362	0.775
7.17347	0.636
7.21331	0.425
7.25316	0.341
7.29301	0.458
7.33286	0.588
7.37271	0.716
7.41256	0.756
7.45241	0.75
7.49225	0.753
7.5321	0.756
7.57195	0.761
7.6118	0.758
7.65165	0.763
7.6915	0.768
7.73135	0.77
7.77119	0.768
7.81104	0.75
7.85089	0.72
7.89074	0.678
7.93059	0.605
7.97044	0.516
8.01029	0.423
8.05013	0.355
8.08998	0.315
8.12983	0.283
8.16968	0.245
8.20953	0.218
8.24938	0.221
8.28923	0.245
8.32907	0.291
8.36892	0.331
8.40877	0.351
8.44862	0.346
8.48847	0.323
8.52832	0.276
8.56817	0.23
8.60801	0.21
8.64786	0.218
8.68771	0.261
8.72756	0.346
8.76741	0.451
8.80726	0.595
8.84711	0.69
8.88695	0.741
8.9268	0.76
8.96665	0.773
9.0065	0.776
9.04635	0.778
9.0862	0.778
9.12605	0.778
9.16589	0.77
9.20574	0.743
9.24559	0.7
9.28544	0.65
9.32529	0.595
9.36514	0.536
9.40499	0.46
9.44483	0.313
9.48468	0.195
9.52453	0.133
9.56438	0.133
9.60423	0.21
9.64408	0.335
9.68393	0.446
9.72377	0.505
9.76362	0.545
9.80347	0.585
9.84332	0.641
9.88317	0.7
9.92302	0.751
9.96287	0.781
10.0027	0.796
10.0426	0.805
10.0824	0.773
10.1223	0.758
10.1621	0.783
10.202	0.778
10.2418	0.781
10.2817	0.808
10.3215	0.82
10.3614	0.831
10.4012	0.84
10.441	0.845
10.4809	0.845
10.5207	0.845
10.5606	0.845
10.6004	0.845
10.6403	0.84
10.6801	0.838
10.72	0.833
10.7598	0.828
10.7997	0.826
10.8395	0.82
10.8794	0.805
10.9192	0.786
10.9591	0.79
10.9989	0.793
11.0388	0.778
11.0786	0.735
11.1185	0.706
11.1583	0.706
11.1982	0.706
11.238	0.701
11.2779	0.725
11.3177	0.765
11.3576	0.791
11.3974	0.81
11.4373	0.818
11.4771	0.84
11.517	0.84
11.5568	0.848
11.5967	0.856
11.6365	0.851
11.6764	0.853
11.7162	0.85
11.7561	0.85
11.7959	0.855
11.8357	0.858
11.8756	0.86
11.9154	0.86
11.9553	0.848
11.9951	0.841
12.035	0.823
12.0748	0.801
12.1147	0.781
12.1545	0.751
12.1944	0.741
12.2342	0.768
12.2741	0.788
12.3139	0.783
12.3538	0.778
12.3936	0.805
12.4335	0.838
12.4733	0.855
12.5132	0.868
12.553	0.876
12.5929	0.878
12.6327	0.873
12.6726	0.868
12.7124	0.865
12.7523	0.851
12.7921	0.843
12.832	0.84
12.8718	0.836
12.9117	0.83
12.9515	0.818
12.9914	0.808
13.0312	0.816
13.0711	0.83
13.1109	0.831
13.1508	0.831
13.1906	0.83
13.2304	0.826
13.2703	0.823
13.3101	0.818
13.35	0.816
13.3898	0.81
13.4297	0.806
13.4695	0.805
13.5094	0.798
13.5492	0.796
13.5891	0.795
13.6289	0.791
13.6688	0.786
13.7086	0.786
13.7485	0.791
13.7883	0.801
13.8282	0.813
13.868	0.821
13.9079	0.836
13.9477	0.845
13.9876	0.855
14.0274	0.861
14.0673	0.863
14.1071	0.871
14.147	0.865
14.1868	0.856
14.2267	0.846
14.2665	0.836
14.3064	0.826
14.3462	0.815
14.3861	0.796
14.4259	0.78
14.4658	0.761
14.5056	0.738
14.5455	0.726
14.5853	0.728
14.6251	0.733
14.665	0.745
14.7048	0.755
14.7447	0.765
14.7845	0.776
14.8244	0.791
14.8642	0.803
14.9041	0.811
14.9439	0.815
14.9838	0.803
15.0236	0.791
15.0635	0.78
15.1033	0.78
15.1432	0.775
15.183	0.771
15.2229	0.761
15.2627	0.751
15.3026	0.743
15.3424	0.726
15.3823	0.716
15.4221	0.703
15.462	0.698
15.5018	0.696
15.5417	0.693
15.5815	0.691
15.6214	0.685
15.6612	0.678
15.7011	0.675
15.7409	0.668
15.7808	0.668
15.8206	0.67
15.8605	0.676
15.9003	0.685
15.9402	0.686
15.98	0.685
