Infrared Spectrum: PURINE, 2,6,8-TRICHLORO-
Formula: C5 H Cl3 N4
CAS: 2562-52-9
State: SOLID (0.7 mg / 625 mg, KBr DISC)
Class: COBLENTZ III
Instrument: PERKIN-ELMER 21 (GRATING)
Instrument parameters: FILTER CHANGE AT ABOUT 1075 CM^-^1
Sampling: TRANSMISSION
Resolution: 2
Origin: SOUTHERN RESEARCH INSTITUTE
1/CM	TRANSMITTANCE
623.69	0.908
633.126	0.8775
642.561	0.8031
651.997	0.6977
661.432	0.8442
670.868	0.7553
680.303	0.7585
689.739	0.9216
699.174	0.9113
708.61	0.9009
718.045	0.89
727.481	0.8801
736.917	0.8683
746.352	0.8433
755.788	0.8207
765.223	0.7972
774.659	0.7202
784.094	0.5683
793.53	0.6849
802.965	0.676
812.401	0.7295
821.837	0.7649
831.272	0.7879
840.708	0.8028
850.143	0.814
859.579	0.814
869.014	0.791
878.45	0.7312
887.885	0.454
897.321	0.4854
906.756	0.8649
916.192	0.877
925.628	0.877
935.063	0.8682
944.499	0.8141
953.934	0.7461
963.37	0.7777
972.805	0.8139
982.241	0.849
991.676	0.8363
1001.11	0.8006
1010.55	0.7173
1019.98	0.5029
1029.42	0.6556
1038.85	0.837
1048.29	0.837
1057.73	0.837
1067.16	0.837
1076.6	0.837
1086.03	0.837
1095.47	0.837
1104.9	0.837
1114.34	0.838
1123.77	0.8341
1133.21	0.8234
1142.65	0.8039
1152.08	0.773
1161.52	0.6567
1170.95	0.2674
1180.39	0.5461
1189.82	0.6748
1199.26	0.7209
1208.69	0.71
1218.13	0.709
1227.57	0.6945
1237	0.6292
1246.44	0.341
1255.87	0.4284
1265.31	0.4825
1274.74	0.164
1284.18	0.1686
1293.61	0.5686
1303.05	0.7321
1312.49	0.7133
1321.92	0.6242
1331.36	0.5474
1340.79	0.3401
1350.23	0.1143
1359.66	0.1865
1369.1	0.4484
1378.53	0.6049
1387.97	0.6541
1397.41	0.7169
1406.84	0.709
1416.28	0.6814
1425.71	0.6732
1435.15	0.7299
1444.58	0.6569
1454.02	0.4831
1463.45	0.4037
1472.89	0.4293
1482.32	0.5512
1491.76	0.79
1501.2	0.7808
1510.63	0.7361
1520.07	0.6656
1529.5	0.6245
1538.94	0.3842
1548.37	0.3554
1557.81	0.1382
1567.24	0.1582
1576.68	0.4904
1586.12	0.5145
1595.55	0.2775
1604.99	0.3442
1614.42	0.569
1623.86	0.6822
1633.29	0.7542
1642.73	0.8044
1652.16	0.8255
1661.6	0.8494
1671.04	0.874
1680.47	0.8852
1689.91	0.896
1699.34	0.903
1708.78	0.9108
1718.21	0.9198
1727.65	0.9264
1737.08	0.931
1746.52	0.9331
1755.96	0.9344
1765.39	0.935
1774.83	0.936
1784.26	0.9391
1793.7	0.943
1803.13	0.944
1812.57	0.944
1822	0.9405
1831.44	0.938
1840.88	0.938
1850.31	0.936
1859.75	0.9356
1869.18	0.9334
1878.62	0.9278
1888.05	0.927
1897.49	0.925
1906.92	0.925
1916.36	0.925
1925.8	0.925
1935.23	0.925
1944.67	0.925
1954.1	0.924
1963.54	0.924
1972.97	0.924
1982.41	0.923
1991.84	0.923
2001.28	0.923
2010.72	0.921
2020.15	0.92
2029.59	0.919
2039.02	0.919
2048.46	0.9199
2057.89	0.92
2067.33	0.919
2076.76	0.915
2086.2	0.913
2095.64	0.911
2105.07	0.909
2114.51	0.908
2123.94	0.9051
2133.38	0.904
2142.81	0.903
2152.25	0.9
2161.68	0.9
2171.12	0.9
2180.56	0.897
2189.99	0.8931
2199.43	0.8891
2208.86	0.8861
2218.3	0.8841
2227.73	0.884
2237.17	0.884
2246.6	0.882
2256.04	0.882
2265.48	0.882
2274.91	0.882
2284.35	0.8849
2293.78	0.886
2303.22	0.889
2312.65	0.8821
2322.09	0.878
2331.52	0.873
2340.96	0.868
2350.4	0.861
2359.83	0.8541
2369.27	0.8461
2378.7	0.839
2388.14	0.833
2397.57	0.826
2407.01	0.823
2416.44	0.826
2425.88	0.826
2435.32	0.826
2444.75	0.826
2454.19	0.82
2463.62	0.8111
2473.06	0.806
2482.49	0.8001
2491.93	0.795
2501.36	0.79
2510.8	0.7831
2520.24	0.7761
2529.67	0.7681
2539.11	0.7591
2548.54	0.7491
2557.98	0.7401
2567.41	0.7261
2576.85	0.7161
2586.28	0.7091
2595.72	0.7051
2605.16	0.702
2614.59	0.702
2624.03	0.6991
2633.46	0.693
2642.9	0.6871
2652.33	0.6851
2661.77	0.682
2671.2	0.6811
2680.64	0.6721
2690.08	0.6602
2699.51	0.6351
2708.95	0.6201
2718.38	0.6012
2727.82	0.5901
2737.25	0.585
2746.69	0.5741
2756.12	0.565
2765.56	0.559
2775	0.565
2784.43	0.569
2793.87	0.569
2803.3	0.566
2812.74	0.5621
2822.17	0.561
2831.61	0.5571
2841.04	0.555
2850.48	0.55
2859.92	0.5411
2869.35	0.5281
2878.79	0.5141
2888.22	0.5021
2897.66	0.4911
2907.09	0.4811
2916.53	0.4761
2925.96	0.4681
2935.4	0.4611
2944.84	0.4571
2954.27	0.4531
2963.71	0.4481
2973.14	0.444
2982.58	0.4371
2992.01	0.4301
3001.45	0.426
3010.88	0.426
3020.32	0.427
3029.75	0.4299
3039.19	0.433
3048.63	0.437
3058.06	0.4419
3067.5	0.4499
3076.93	0.4619
3086.37	0.4867
3095.8	0.5108
3105.24	0.5299
3114.67	0.5429
3124.11	0.5549
3133.55	0.5649
3142.98	0.5759
3152.42	0.5859
3161.85	0.593
3171.29	0.597
3180.72	0.6019
3190.16	0.6089
3199.59	0.611
3209.03	0.611
3218.47	0.612
3227.9	0.613
3237.34	0.6111
3246.77	0.6061
3256.21	0.6011
3265.64	0.597
3275.08	0.593
3284.51	0.59
3293.95	0.59
3303.39	0.5881
3312.82	0.586
3322.26	0.584
3331.69	0.581
3341.13	0.5761
3350.56	0.574
3360	0.572
3369.43	0.573
3378.87	0.5798
3388.31	0.586
3397.74	0.5899
3407.18	0.5979
3416.61	0.6149
3426.05	0.6249
3435.48	0.6369
3444.92	0.6459
3454.35	0.6698
3463.79	0.676
3473.23	0.6938
3482.66	0.705
3492.1	0.713
3501.53	0.7377
3510.97	0.7549
3520.4	0.7609
3529.84	0.7668
3539.27	0.7788
3548.71	0.7949
3558.15	0.8039
3567.58	0.8159
3577.02	0.827
3586.45	0.834
3595.89	0.8389
3605.32	0.8449
3614.76	0.846
3624.19	0.847
3633.63	0.85
3643.07	0.851
3652.5	0.8539
3661.94	0.855
3671.37	0.855
3680.81	0.855
3690.24	0.855
3699.68	0.857
3709.11	0.8541
3718.55	0.8511
3727.99	0.849
3737.42	0.849
3746.86	0.849
3756.29	0.851
3765.73	0.854
3775.16	0.855
3784.6	0.855
3794.03	0.8531
3803.47	0.853
3812.91	0.8491
3822.34	0.8431
3831.78	0.8411
3841.21	0.839
3850.65	0.8352
3860.08	0.835
3869.52	0.8378
3878.95	0.8371
3888.39	0.834
3897.83	0.8338
3907.26	0.839
3916.7	0.837
3926.13	0.8351
3935.57	0.835
3945	0.8331
3954.44	0.831
3963.87	0.831
3973.31	0.827
3982.75	0.829
3992.18	0.831
4001.62	0.83
4011.05	0.829
