Infrared Spectrum: 4-Pyrimidinol, 6-methyl-5-nitro-
Formula: C5 H5 N3 O3
CAS: 25624-76-4
State: SOLID (0.8 mg / 650 mg KBr DISC)
Class: COBLENTZ III
Instrument: PERKIN-ELMER 21 (GRATING)
Instrument parameters: FILTER CHANGE ABOUT 1070 CM^-^1
Sampling: TRANSMISSION
Resolution: 2
Origin: SOUTHERN RESEARCH INSTITUTE
1/CM	TRANSMITTANCE
625.643	0.4709
634.665	0.5368
643.687	0.5851
652.71	0.5983
661.732	0.592
670.754	0.5638
679.776	0.517
688.799	0.4115
697.821	0.4157
706.843	0.4507
715.865	0.4422
724.888	0.4321
733.91	0.4477
742.932	0.4796
751.954	0.514
760.977	0.5257
769.999	0.5329
779.021	0.5352
788.043	0.4792
797.066	0.3502
806.088	0.1581
815.11	0.3555
824.132	0.3323
833.155	0.376
842.177	0.401
851.199	0.3989
860.221	0.4874
869.244	0.5548
878.266	0.3063
887.288	0.5547
896.31	0.6047
905.333	0.4732
914.355	0.5746
923.377	0.7276
932.399	0.7577
941.422	0.7544
950.444	0.746
959.466	0.7372
968.488	0.7083
977.511	0.6695
986.533	0.6473
995.555	0.6678
1004.58	0.6656
1013.6	0.7089
1022.62	0.7112
1031.64	0.7011
1040.67	0.6803
1049.69	0.6587
1058.71	0.634
1067.73	0.6095
1076.76	0.5429
1085.78	0.4605
1094.8	0.3565
1103.82	0.2565
1112.84	0.3206
1121.87	0.3343
1130.89	0.3453
1139.91	0.3456
1148.93	0.2921
1157.96	0.2059
1166.98	0.4339
1176	0.4829
1185.02	0.5138
1194.04	0.5481
1203.07	0.563
1212.09	0.5656
1221.11	0.5208
1230.13	0.4088
1239.16	0.6218
1248.18	0.6071
1257.2	0.5924
1266.22	0.5663
1275.24	0.5379
1284.27	0.4967
1293.29	0.4335
1302.31	0.3632
1311.33	0.3472
1320.36	0.4344
1329.38	0.4351
1338.4	0.4019
1347.42	0.3383
1356.44	0.2135
1365.47	0.1244
1374.49	0.0638
1383.51	0.1138
1392.53	0.087
1401.56	0.1642
1410.58	0.3113
1419.6	0.3095
1428.62	0.3023
1437.65	0.2896
1446.67	0.2422
1455.69	0.1743
1464.71	0.1139
1473.73	0.0517
1482.76	0.0238
1491.78	0.0503
1500.8	0.0666
1509.82	0.0457
1518.85	0.0389
1527.87	0.0729
1536.89	0.1236
1545.91	0.2824
1554.93	0.3019
1563.96	0.3056
1572.98	0.2395
1582	0.1336
1591.02	0.0538
1600.05	0.0237
1609.07	0.0249
1618.09	0.0362
1627.11	0.0631
1636.13	0.073
1645.16	0.0831
1654.18	0.1267
1663.2	0.1657
1672.22	0.195
1681.25	0.2329
1690.27	0.2857
1699.29	0.3226
1708.31	0.4167
1717.33	0.4944
1726.36	0.5511
1735.38	0.5954
1744.4	0.6209
1753.42	0.645
1762.45	0.6725
1771.47	0.6936
1780.49	0.7175
1789.51	0.725
1798.53	0.7372
1807.56	0.7478
1816.58	0.7742
1825.6	0.7868
1834.62	0.7962
1843.65	0.8051
1852.67	0.8117
1861.69	0.8176
1870.71	0.8238
1879.74	0.8307
1888.76	0.8355
1897.78	0.841
1906.8	0.8433
1915.82	0.845
1924.85	0.8452
1933.87	0.8417
1942.89	0.8346
1951.91	0.8287
1960.94	0.8355
1969.96	0.849
1978.98	0.8529
1988	0.856
1997.02	0.8569
2006.05	0.8578
2015.07	0.8577
2024.09	0.8575
2033.11	0.8571
2042.14	0.8561
2051.16	0.8551
2060.18	0.8537
2069.2	0.8515
2078.22	0.8494
2087.25	0.8473
2096.27	0.8451
2105.29	0.8424
2114.31	0.8397
2123.34	0.8353
2132.36	0.8333
2141.38	0.8325
2150.4	0.8307
2159.42	0.8271
2168.45	0.8238
2177.47	0.8194
2186.49	0.8133
2195.51	0.8064
2204.54	0.802
2213.56	0.7983
2222.58	0.7958
2231.6	0.7934
2240.62	0.792
2249.65	0.7916
2258.67	0.7915
2267.69	0.7924
2276.71	0.7954
2285.74	0.8011
2294.76	0.8047
2303.78	0.805
2312.8	0.8053
2321.83	0.8075
2330.85	0.8121
2339.87	0.8127
2348.89	0.8123
2357.91	0.8123
2366.94	0.8124
2375.96	0.8127
2384.98	0.8119
2394	0.8105
2403.03	0.8086
2412.05	0.8062
2421.07	0.8046
2430.09	0.8025
2439.11	0.7991
2448.14	0.7959
2457.16	0.7931
2466.18	0.7913
2475.2	0.7899
2484.23	0.7882
2493.25	0.7848
2502.27	0.7816
2511.29	0.7787
2520.31	0.777
2529.34	0.7738
2538.36	0.768
2547.38	0.7597
2556.4	0.7502
2565.43	0.7436
2574.45	0.7371
2583.47	0.731
2592.49	0.7247
2601.51	0.7179
2610.54	0.7115
2619.56	0.7057
2628.58	0.7017
2637.6	0.6978
2646.63	0.6934
2655.65	0.6881
2664.67	0.6796
2673.69	0.6708
2682.72	0.6619
2691.74	0.6522
2700.76	0.6416
2709.78	0.629
2718.8	0.616
2727.83	0.603
2736.85	0.5876
2745.87	0.5718
2754.89	0.5558
2763.92	0.5406
2772.94	0.526
2781.96	0.5115
2790.98	0.4971
2800	0.4814
2809.03	0.4605
2818.05	0.4387
2827.07	0.4225
2836.09	0.413
2845.12	0.4096
2854.14	0.3986
2863.16	0.3807
2872.18	0.3657
2881.2	0.345
2890.23	0.3231
2899.25	0.3036
2908.27	0.2885
2917.29	0.2774
2926.32	0.2663
2935.34	0.2549
2944.36	0.2424
2953.38	0.2284
2962.4	0.212
2971.43	0.1962
2980.45	0.1832
2989.47	0.1735
2998.49	0.1607
3007.52	0.1519
3016.54	0.144
3025.56	0.1368
3034.58	0.1302
3043.6	0.1251
3052.63	0.1205
3061.65	0.1173
3070.67	0.1147
3079.69	0.1129
3088.72	0.1123
3097.74	0.1114
3106.76	0.1124
3115.78	0.1162
3124.81	0.121
3133.83	0.1277
3142.85	0.1347
3151.87	0.1341
3160.89	0.1304
3169.92	0.1223
3178.94	0.1153
3187.96	0.1096
3196.98	0.1042
3206.01	0.0991
3215.03	0.0958
3224.05	0.0927
3233.07	0.0906
3242.09	0.0889
3251.12	0.0884
3260.14	0.0881
3269.16	0.0874
3278.18	0.0835
3287.21	0.0834
3296.23	0.0829
3305.25	0.08
3314.27	0.0765
3323.29	0.0763
3332.32	0.0763
3341.34	0.0764
3350.36	0.0767
3359.38	0.0777
3368.41	0.0796
3377.43	0.0821
3386.45	0.0908
3395.47	0.1089
3404.49	0.1223
3413.52	0.1386
3422.54	0.1574
3431.56	0.1758
3440.58	0.194
3449.61	0.2024
3458.63	0.2068
3467.65	0.2135
3476.67	0.2215
3485.69	0.2455
3494.72	0.2725
3503.74	0.3022
3512.76	0.3469
3521.78	0.3887
3530.81	0.4245
3539.83	0.456
3548.85	0.4849
3557.87	0.5184
3566.9	0.5594
3575.92	0.5919
3584.94	0.6177
3593.96	0.6391
3602.98	0.6565
3612.01	0.6749
3621.03	0.696
3630.05	0.7088
3639.07	0.7214
3648.1	0.7315
3657.12	0.7398
3666.14	0.7477
3675.16	0.7559
3684.18	0.764
3693.21	0.7715
3702.23	0.7751
3711.25	0.7781
3720.27	0.7809
3729.3	0.7835
3738.32	0.7862
3747.34	0.7883
3756.36	0.7904
3765.38	0.7934
3774.41	0.7975
3783.43	0.8011
3792.45	0.8035
3801.47	0.8059
3810.5	0.8062
3819.52	0.8064
3828.54	0.806
3837.56	0.8049
3846.58	0.8039
3855.61	0.8058
3864.63	0.8039
3873.65	0.8038
3882.67	0.8039
3891.7	0.8044
3900.72	0.8048
3909.74	0.8053
3918.76	0.8058
3927.78	0.8061
3936.81	0.8062
3945.83	0.8062
3954.85	0.8063
3963.87	0.8068
3972.9	0.8076
3981.92	0.8084
3990.94	0.8091
3999.96	0.8098
4008.99	0.8106
