Infrared Spectrum: 2-Ethoxy-4-methylphenol
Formula: C 9 H 12 O 2
CAS: 2563-07-7
State: gas
Origin: EPA-IR VAPOR PHASE LIBRARY
1/CM	ABSORBANCE
549.8	0.00968
559.445	0.00945
569.09	0.00964
578.734	0.01246
588.379	0.01572
598.024	0.01429
607.669	0.00972
617.313	0.00548
626.958	0.00386
636.603	0.00263
646.248	0.002
655.893	0.00201
665.537	0.0024
675.182	0.0026
684.827	0.00279
694.472	0.00291
704.116	0.00376
713.761	0.00524
723.406	0.00596
733.051	0.00615
742.695	0.00673
752.34	0.00869
761.985	0.01195
771.63	0.02209
781.275	0.04013
790.919	0.05853
800.564	0.07634
810.209	0.09296
819.854	0.04534
829.498	0.02008
839.143	0.01669
848.788	0.01752
858.433	0.01802
868.078	0.01666
877.722	0.01397
887.367	0.01098
897.012	0.00863
906.657	0.00736
916.301	0.00849
925.946	0.01249
935.591	0.02038
945.236	0.02683
954.88	0.02471
964.525	0.01712
974.17	0.0133
983.815	0.01552
993.46	0.01846
1003.1	0.02086
1012.75	0.0278
1022.39	0.05087
1032.04	0.08802
1041.68	0.10329
1051.33	0.07753
1060.97	0.04182
1070.62	0.02585
1080.26	0.02467
1089.91	0.02609
1099.55	0.03341
1109.2	0.07171
1118.84	0.12156
1128.49	0.10974
1138.13	0.10076
1147.78	0.11973
1157.42	0.10131
1167.07	0.08101
1176.71	0.07516
1186.36	0.08228
1196	0.09849
1205.64	0.09531
1215.29	0.08984
1224.93	0.13343
1234.58	0.18267
1244.22	0.1879
1253.87	0.19296
1263.51	0.27446
1273.16	0.29551
1282.8	0.16858
1292.45	0.07972
1302.09	0.04353
1311.74	0.03017
1321.38	0.0266
1331.03	0.03042
1340.67	0.04626
1350.32	0.06766
1359.96	0.07073
1369.61	0.06372
1379.25	0.05816
1388.9	0.05199
1398.54	0.04632
1408.18	0.03708
1417.83	0.04011
1427.47	0.05499
1437.12	0.05495
1446.76	0.03826
1456.41	0.02903
1466.05	0.02837
1475.7	0.03937
1485.34	0.06052
1494.99	0.11736
1504.63	0.26789
1514.28	0.3363
1523.92	0.18733
1533.57	0.05703
1543.21	0.02619
1552.86	0.01873
1562.5	0.01597
1572.15	0.01493
1581.79	0.01756
1591.44	0.02746
1601.08	0.04006
1610.73	0.04063
1620.37	0.02709
1630.01	0.01253
1639.66	0.00749
1649.3	0.00647
1658.95	0.00594
1668.59	0.00541
1678.24	0.00504
1687.88	0.0047
1697.53	0.00441
1707.17	0.00413
1716.82	0.0041
1726.46	0.00442
1736.11	0.00459
1745.75	0.00418
1755.4	0.00365
1765.04	0.00323
1774.69	0.00299
1784.33	0.00268
1793.98	0.00249
1803.62	0.00242
1813.27	0.0024
1822.91	0.00272
1832.55	0.00376
1842.2	0.00546
1851.84	0.00718
1861.49	0.00672
1871.13	0.00477
1880.78	0.00367
1890.42	0.0034
1900.07	0.00352
1909.71	0.00357
1919.36	0.0035
1929	0.00312
1938.65	0.00273
1948.29	0.00242
1957.94	0.00222
1967.58	0.00229
1977.23	0.00228
1986.87	0.00242
1996.52	0.0025
2006.16	0.0025
2015.81	0.00255
2025.45	0.00272
2035.1	0.00304
2044.74	0.0033
2054.38	0.00349
2064.03	0.00332
2073.67	0.00293
2083.32	0.00227
2092.96	0.00184
2102.61	0.00151
2112.25	0.00137
2121.9	0.00143
2131.54	0.00157
2141.19	0.00177
2150.83	0.00178
2160.48	0.00173
2170.12	0.00165
2179.77	0.00154
2189.41	0.00138
2199.06	0.00135
2208.7	0.00155
2218.35	0.00156
2227.99	0.00166
2237.64	0.00157
2247.28	0.00148
2256.92	0.00152
2266.57	0.00175
2276.21	0.00201
2285.86	0.00238
2295.5	0.00263
2305.15	0.0028
2314.79	0.00274
2324.44	0.0025
2334.08	0.00215
2343.73	0.00189
2353.37	0.00185
2363.02	0.00189
2372.66	0.00213
2382.31	0.00252
2391.95	0.00282
2401.6	0.00297
2411.24	0.00294
2420.89	0.00283
2430.53	0.0026
2440.18	0.00245
2449.82	0.00244
2459.47	0.0027
2469.11	0.00298
2478.75	0.00314
2488.4	0.00338
2498.04	0.00355
2507.69	0.00357
2517.33	0.00329
2526.98	0.00295
2536.62	0.00289
2546.27	0.00276
2555.91	0.00245
2565.56	0.00194
2575.2	0.00167
2584.85	0.00153
2594.49	0.0016
2604.14	0.00187
2613.78	0.00208
2623.43	0.00251
2633.07	0.00237
2642.72	0.00216
2652.36	0.00202
2662.01	0.00181
2671.65	0.00162
2681.29	0.00162
2690.94	0.00179
2700.58	0.00213
2710.23	0.00253
2719.87	0.00301
2729.52	0.00376
2739.16	0.005
2748.81	0.0053
2758.45	0.00449
2768.1	0.00426
2777.74	0.00431
2787.39	0.00445
2797.03	0.00469
2806.68	0.00526
2816.32	0.00608
2825.97	0.00741
2835.61	0.00929
2845.26	0.01248
2854.9	0.01853
2864.55	0.03057
2874.19	0.04512
2883.84	0.05163
2893.48	0.05074
2903.12	0.05249
2912.77	0.05943
2922.41	0.07601
2932.06	0.08848
2941.7	0.08029
2951.35	0.06008
2960.99	0.04937
2970.64	0.05557
2980.28	0.07665
2989.93	0.08472
2999.57	0.05832
3009.22	0.04006
3018.86	0.03427
3028.51	0.03587
3038.15	0.04139
3047.8	0.04541
3057.44	0.0399
3067.09	0.02662
3076.73	0.0158
3086.38	0.0087
3096.02	0.00654
3105.67	0.00582
3115.31	0.00545
3124.95	0.00462
3134.6	0.00393
3144.24	0.00292
3153.89	0.00221
3163.53	0.002
3173.18	0.00178
3182.82	0.00156
3192.47	0.00167
3202.11	0.00169
3211.76	0.00169
3221.4	0.00159
3231.05	0.00158
3240.69	0.00125
3250.34	0.00113
3259.98	0.00148
3269.63	0.00142
3279.27	0.00124
3288.92	0.00145
3298.56	0.00145
3308.21	0.00113
3317.85	0.00115
3327.49	0.0008094
3337.14	0.0008277
3346.78	0.0007783
3356.43	0.0006807
3366.07	0.0006879
3375.72	0.0006485
3385.36	0.000628
3395.01	0.0005011
3404.65	0.0006391
3414.3	0.0006173
3423.94	0.0004532
3433.59	0.0006147
3443.23	0.000664
3452.88	0.0006865
3462.52	0.0008026
3472.17	0.0007052
3481.81	0.0007849
3491.46	0.0009546
3501.1	0.00117
3510.75	0.00119
3520.39	0.00168
3530.04	0.00244
3539.68	0.00372
3549.32	0.00676
3558.97	0.01485
3568.61	0.04356
3578.26	0.11439
3587.9	0.13997
3597.55	0.07647
3607.19	0.02392
3616.84	0.00901
3626.48	0.00503
3636.13	0.00422
3645.77	0.00597
3655.42	0.00552
3665.06	0.00261
3674.71	0.00118
3684.35	0.0007456
3694	0.0008099
3703.64	0.0008088
3713.29	0.0007951
3722.93	0.0005903
3732.58	0.0009662
3742.22	0.0007373
3751.86	0.0009479
3761.51	0.0008116
3771.15	0.00093
3780.8	0.0008047
3790.44	0.0009092
3800.09	0.000455
3809.73	0.000591
3819.38	0.0008424
3829.02	0.0008946
3838.67	0.0008796
3848.31	0.00106
3857.96	0.00137
3867.6	0.00156
3877.25	0.00157
3886.89	0.00163
3896.54	0.00125
3906.18	0.00118
3915.83	0.0011
3925.47	0.0011
3935.12	0.00119
3944.76	0.00106
3954.41	0.00103
3964.05	0.00118
3973.69	0.00115
3983.34	0.00142
3992.98	0.00147
