Infrared Spectrum: trans-1,2-Bis(4-fluorobenzoyl)ethylene
Formula: C 16 H 10 F 2 O 2
CAS: 25650-13-9
State: gas
Origin: EPA-IR VAPOR PHASE LIBRARY
1/CM	ABSORBANCE
549.8	0.004847
559.445	0.011207
569.09	0.022407
578.734	0.026627
588.379	0.023997
598.024	0.009577
607.669	0.006557
617.313	0.003267
626.958	0.003067
636.603	0.002437
646.248	0.002527
655.893	0.0015544
665.537	0.0015228
675.182	0.002777
684.827	0.003987
694.472	0.003577
704.116	0.002647
713.761	0.002317
723.406	0.003477
733.051	0.004237
742.695	0.004127
752.34	0.009077
761.985	0.012727
771.63	0.006217
781.275	0.003627
790.919	0.004407
800.564	0.006937
810.209	0.011227
819.854	0.013157
829.498	0.017917
839.143	0.032967
848.788	0.033427
858.433	0.015797
868.078	0.007437
877.722	0.005137
887.367	0.003857
897.012	0.003457
906.657	0.002537
916.301	0.003217
925.946	0.002697
935.591	0.003127
945.236	0.003977
954.88	0.005997
964.525	0.010877
974.17	0.012997
983.815	0.010667
993.46	0.009227
1003.1	0.015637
1012.75	0.037547
1022.39	0.040187
1032.04	0.020617
1041.68	0.011697
1051.33	0.009487
1060.97	0.007997
1070.62	0.007047
1080.26	0.003537
1089.91	0.004677
1099.55	0.004847
1109.2	0.004077
1118.84	0.003347
1128.49	0.004057
1138.13	0.006297
1147.78	0.021277
1157.42	0.102747
1167.07	0.016547
1176.71	0.012757
1186.36	0.034297
1196	0.034037
1205.64	0.019677
1215.29	0.021537
1224.93	0.034337
1234.58	0.077767
1244.22	0.137467
1253.87	0.062947
1263.51	0.059937
1273.16	0.054737
1282.8	0.067537
1292.45	0.103087
1302.09	0.081257
1311.74	0.094657
1321.38	0.043697
1331.03	0.019297
1340.67	0.012127
1350.32	0.010487
1359.96	0.007317
1369.61	0.005347
1379.25	0.005017
1388.9	0.005857
1398.54	0.010987
1408.18	0.025487
1417.83	0.010647
1427.47	0.005387
1437.12	0.003997
1446.76	0.003557
1456.41	0.004027
1466.05	0.004567
1475.7	0.005487
1485.34	0.007797
1494.99	0.015197
1504.63	0.038627
1514.28	0.028677
1523.92	0.007897
1533.57	0.004487
1543.21	0.004647
1552.86	0.005037
1562.5	0.006607
1572.15	0.011517
1581.79	0.028657
1591.44	0.078457
1601.08	0.106357
1610.73	0.042787
1620.37	0.019467
1630.01	0.011937
1639.66	0.010857
1649.3	0.012987
1658.95	0.019587
1668.59	0.049887
1678.24	0.091947
1687.88	0.053457
1697.53	0.022827
1707.17	0.010707
1716.82	0.006067
1726.46	0.004017
1736.11	0.003147
1745.75	0.002887
1755.4	0.002787
1765.04	0.002667
1774.69	0.003167
1784.33	0.002287
1793.98	0.001927
1803.62	0.001677
1813.27	0.0016011
1822.91	0.0014229
1832.55	0.0014465
1842.2	0.0016134
1851.84	0.0015256
1861.49	0.0014297
1871.13	0.0013784
1880.78	0.001887
1890.42	0.002177
1900.07	0.002227
1909.71	0.002307
1919.36	0.001967
1929	0.001807
1938.65	0.001457
1948.29	0.001295
1957.94	0.0013905
1967.58	0.0014117
1977.23	0.0013592
1986.87	0.0013787
1996.52	0.0012559
2006.16	0.0011253
2015.81	0.0012058
2025.45	0.0011935
2035.1	0.0013265
2044.74	0.0015878
2054.38	0.0014976
2064.03	0.0014444
2073.67	0.0015364
2083.32	0.0011482
2092.96	0.0008891
2102.61	0.0010962
2112.25	0.0009369
2121.9	0.0007642
2131.54	0.0008623
2141.19	0.0008865
2150.83	0.0007309
2160.48	0.00070831
2170.12	0.0006776
2179.77	0.00067496
2189.41	0.00066003
2199.06	0.00069818
2208.7	0.0007789
2218.35	0.0007675
2227.99	0.00065258
2237.64	0.0009103
2247.28	0.0008848
2256.92	0.0010454
2266.57	0.0012064
2276.21	0.0010502
2285.86	0.0008189
2295.5	0.0008779
2305.15	0.0008524
2314.79	0.0009574
2324.44	0.0009092
2334.08	0.0008221
2343.73	0.0009109
2353.37	0.0008352
2363.02	0.0008637
2372.66	0.0007573
2382.31	0.0011363
2391.95	0.0013295
2401.6	0.0015603
2411.24	0.0014275
2420.89	0.0015922
2430.53	0.0016076
2440.18	0.0014755
2449.82	0.0012946
2459.47	0.0013388
2469.11	0.001356
2478.75	0.001657
2488.4	0.0013296
2498.04	0.0010456
2507.69	0.0009688
2517.33	0.0012531
2526.98	0.0010185
2536.62	0.0012733
2546.27	0.0009961
2555.91	0.0013336
2565.56	0.0015491
2575.2	0.0016123
2584.85	0.001907
2594.49	0.001777
2604.14	0.0013141
2613.78	0.0010485
2623.43	0.0010131
2633.07	0.0010684
2642.72	0.0009487
2652.36	0.000962
2662.01	0.0008808
2671.65	0.0009622
2681.29	0.0009745
2690.94	0.0008139
2700.58	0.0009668
2710.23	0.0011131
2719.87	0.0009565
2729.52	0.000984
2739.16	0.0011052
2748.81	0.0013047
2758.45	0.0009266
2768.1	0.0007417
2777.74	0.0008776
2787.39	0.0011318
2797.03	0.0008958
2806.68	0.0008288
2816.32	0.0009251
2825.97	0.0008424
2835.61	0.0009044
2845.26	0.0008253
2854.9	0.0008017
2864.55	0.0008007
2874.19	0.0010466
2883.84	0.0010739
2893.48	0.0008564
2903.12	0.00070655
2912.77	0.00066109
2922.41	0.000617394
2932.06	0.0007358
2941.7	0.00068408
2951.35	0.000737
2960.99	0.0007419
2970.64	0.00065396
2980.28	0.00067263
2989.93	0.0010496
2999.57	0.001242
3009.22	0.0010228
3018.86	0.001183
3028.51	0.0012722
3038.15	0.001897
3047.8	0.003257
3057.44	0.005117
3067.09	0.004277
3076.73	0.003807
3086.38	0.004557
3096.02	0.002097
3105.67	0.002067
3115.31	0.001917
3124.95	0.0012143
3134.6	0.0010899
3144.24	0.0008822
3153.89	0.0005347
3163.53	0.0010166
3173.18	0.0010509
3182.82	0.0010806
3192.47	0.0007604
3202.11	0.00063186
3211.76	0.000517
3221.4	0.0009275
3231.05	0.0009149
3240.69	0.0007228
3250.34	0.0007227
3259.98	0.0007048
3269.63	0.00071068
3279.27	0.0007771
3288.92	0.000912
3298.56	0.0013703
3308.21	0.0010459
3317.85	0.0012066
3327.49	0.0013915
3337.14	0.001637
3346.78	0.001847
3356.43	0.001647
3366.07	0.0014211
3375.72	0.0011535
3385.36	0.0008139
3395.01	0.0010678
3404.65	0.00062856
3414.3	0.00061505
3423.94	0.000445
3433.59	0.00063366
3443.23	0.0008269
3452.88	0.000469
3462.52	0.0005248
3472.17	0.000622924
3481.81	0.0007797
3491.46	0.000457
3501.1	0.000486
3510.75	0.000493
3520.39	0.0006026
3530.04	0.0005941
3539.68	0.000449
3549.32	0.000353
3558.97	0.000325
3568.61	0.000459
3578.26	0.0008672
3587.9	0.0007471
3597.55	0.0005415
3607.19	0.000408
3616.84	0.000403
3626.48	0.0006006
3636.13	0.000374
3645.77	0.000485
3655.42	0.0005235
3665.06	0.00071172
3674.71	0.0009634
3684.35	0.0008697
3694	0.000504
3703.64	0.000336
3713.29	0.00069052
3722.93	0.000965
3732.58	0.000185
3742.22	0.00063559
3751.86	0.0005447
3761.51	0.0010476
3771.15	0.0005867
3780.8	0.000381
3790.44	0.00064543
3800.09	0.0005256
3809.73	0.0009767
3819.38	0.0005644
3829.02	0.000511
3838.67	0.0005873
3848.31	0.000202
3857.96	0.00064673
3867.6	0.00068865
3877.25	0.00068091
3886.89	0.000516
3896.54	0.00044
3906.18	0.0007906
3915.83	0.000432
3925.47	0.0005599
3935.12	0.000478
3944.76	0.000358
3954.41	0.0007427
3964.05	0.0007759
3973.69	0.00065128
3983.34	0.00025
3992.98	0.000364
