Infrared Spectrum: Methyl m-tolyl carbinol
Formula: C 9 H 12 O
CAS: 25675-28-9
State: gas
Origin: EPA-IR VAPOR PHASE LIBRARY
1/CM	ABSORBANCE
549.9	0.0012728
559.547	0.0013548
569.193	0.0013282
578.84	0.0016247
588.486	0.0015775
598.133	0.0018949
607.779	0.002177
617.426	0.002707
627.072	0.002407
636.719	0.0016253
646.365	0.0013193
656.012	0.0013613
665.658	0.001506
675.305	0.002157
684.951	0.004827
694.598	0.010337
704.245	0.016217
713.891	0.010057
723.538	0.005147
733.184	0.003047
742.831	0.002557
752.477	0.002917
762.124	0.004797
771.77	0.010057
781.417	0.016887
791.063	0.011757
800.71	0.005757
810.356	0.002547
820.003	0.0018638
829.649	0.001997
839.296	0.002987
848.943	0.005727
858.589	0.006777
868.236	0.005457
877.882	0.005107
887.529	0.004667
897.175	0.004807
906.822	0.005727
916.468	0.006677
926.115	0.006017
935.761	0.003987
945.408	0.002907
955.054	0.002767
964.701	0.003267
974.347	0.004167
983.994	0.005677
993.64	0.007877
1003.29	0.010187
1012.93	0.010807
1022.58	0.009317
1032.23	0.008037
1041.87	0.008967
1051.52	0.012047
1061.17	0.015727
1070.81	0.019617
1080.46	0.022147
1090.11	0.019877
1099.75	0.014857
1109.4	0.010227
1119.05	0.006967
1128.69	0.005267
1138.34	0.005517
1147.99	0.007937
1157.63	0.009507
1167.28	0.007877
1176.92	0.005567
1186.57	0.004527
1196.22	0.004727
1205.86	0.005077
1215.51	0.005907
1225.16	0.006577
1234.8	0.008427
1244.45	0.010477
1254.1	0.011117
1263.74	0.009957
1273.39	0.009817
1283.04	0.009417
1292.68	0.007837
1302.33	0.007437
1311.98	0.007377
1321.62	0.007657
1331.27	0.009157
1340.92	0.011447
1350.56	0.012977
1360.21	0.012947
1369.86	0.012807
1379.5	0.012897
1389.15	0.010177
1398.79	0.007127
1408.44	0.005887
1418.09	0.005917
1427.73	0.006637
1437.38	0.008157
1447.03	0.008697
1456.67	0.007907
1466.32	0.006987
1475.97	0.007277
1485.61	0.008367
1495.26	0.007187
1504.91	0.004667
1514.55	0.003517
1524.2	0.003237
1533.85	0.003007
1543.49	0.002667
1553.14	0.002477
1562.79	0.002627
1572.43	0.003147
1582.08	0.004077
1591.73	0.005787
1601.37	0.008287
1611.02	0.007857
1620.67	0.004417
1630.31	0.001977
1639.96	0.001409
1649.6	0.0012117
1659.25	0.0011523
1668.9	0.0014019
1678.54	0.0015813
1688.19	0.0015407
1697.84	0.0011926
1707.48	0.00090012
1717.13	0.00088858
1726.78	0.0008783
1736.42	0.0010308
1746.07	0.0012144
1755.72	0.0013413
1765.36	0.0014589
1775.01	0.0015755
1784.66	0.0015403
1794.3	0.0012441
1803.95	0.0010502
1813.6	0.00092351
1823.24	0.00099426
1832.89	0.0011408
1842.54	0.001376
1852.18	0.0014774
1861.83	0.0016704
1871.47	0.0014609
1881.12	0.0010554
1890.77	0.0008283
1900.41	0.0008525
1910.06	0.0010412
1919.71	0.0013004
1929.35	0.0015578
1939	0.0014647
1948.65	0.0011114
1958.29	0.0008652
1967.94	0.000722
1977.59	0.000717
1987.23	0.00074
1996.88	0.000644
2006.53	0.000695
2016.17	0.000638
2025.82	0.000698
2035.47	0.000571
2045.11	0.00058
2054.76	0.000595
2064.41	0.000584
2074.05	0.000554
2083.7	0.000576
2093.35	0.000608
2102.99	0.000613
2112.64	0.000588
2122.28	0.000554
2131.93	0.000559
2141.58	0.000555
2151.22	0.000575
2160.87	0.000553
2170.52	0.000567
2180.16	0.000599
2189.81	0.000564
2199.46	0.000575
2209.1	0.00058
2218.75	0.000613
2228.4	0.000669
2238.04	0.000668
2247.69	0.00067
2257.34	0.000651
2266.98	0.000633
2276.63	0.00062
2286.28	0.000668
2295.92	0.000681
2305.57	0.000682
2315.22	0.000707
2324.86	0.000699
2334.51	0.000754
2344.16	0.000782
2353.8	0.00072
2363.45	0.000702
2373.09	0.00072
2382.74	0.000771
2392.39	0.000746
2402.03	0.0008364
2411.68	0.0008248
2421.33	0.00078
2430.97	0.000806
2440.62	0.000743
2450.27	0.000792
2459.91	0.000791
2469.56	0.000769
2479.21	0.000746
2488.85	0.000737
2498.5	0.0008024
2508.15	0.000764
2517.79	0.000757
2527.44	0.000701
2537.09	0.000656
2546.73	0.000758
2556.38	0.000732
2566.03	0.000751
2575.67	0.00078
2585.32	0.0008434
2594.96	0.0009267
2604.61	0.0009999
2614.26	0.00094636
2623.9	0.00089371
2633.55	0.000758
2643.2	0.0008621
2652.84	0.000752
2662.49	0.000817
2672.14	0.000775
2681.78	0.00076
2691.43	0.0008176
2701.08	0.0008466
2710.72	0.000900978
2720.37	0.001046
2730.02	0.0012434
2739.66	0.0014097
2749.31	0.0013819
2758.96	0.0011367
2768.6	0.0010832
2778.25	0.0011474
2787.9	0.0012109
2797.54	0.0014167
2807.19	0.0016996
2816.84	0.002047
2826.48	0.002467
2836.13	0.003177
2845.77	0.004337
2855.42	0.006417
2865.07	0.010147
2874.71	0.014267
2884.36	0.016167
2894.01	0.015637
2903.65	0.014967
2913.3	0.015397
2922.95	0.018327
2932.59	0.020277
2942.24	0.017357
2951.89	0.012857
2961.53	0.012817
2971.18	0.019187
2980.83	0.026767
2990.47	0.022757
3000.12	0.013257
3009.77	0.011727
3019.41	0.013857
3029.06	0.016447
3038.71	0.016047
3048.35	0.013977
3058	0.013437
3067.64	0.011667
3077.29	0.008037
3086.94	0.005127
3096.58	0.003807
3106.23	0.003037
3115.88	0.002267
3125.52	0.0011774
3135.17	0.000614
3144.82	0.000507
3154.46	0.000506
3164.11	0.000402
3173.76	0.000433
3183.4	0.000371
3193.05	0.000228
3202.7	0.000473
3212.34	0.000423
3221.99	0.000337
3231.64	0.00029
3241.28	0.000196
3250.93	0.00012
3260.58	0.000288
3270.22	0.000167
3279.87	0.00012
3289.52	0.000163
3299.16	4.2e-05
3308.81	0.000212
3318.45	1e-06
3328.1	9.8e-05
3337.75	0.000187
3347.39	0.000189
3357.04	0.000287
3366.69	0.000382
3376.33	0.00028
3385.98	0.00032
3395.63	0.000388
3405.27	0.000327
3414.92	0.000277
3424.57	0.000301
3434.21	0.000248
3443.86	0.000154
3453.51	0.000292
3463.15	0.000293
3472.8	0.000349
3482.45	0.000315
3492.09	0.000107
3501.74	0.000472
3511.39	0.000108
3521.03	0.000202
3530.68	0.000447
3540.33	0.000207
3549.97	0.000247
3559.62	0.000439
3569.26	0.000363
3578.91	0.000188
3588.56	0.000675
3598.2	0.000535
3607.85	0.000749
3617.5	0.0014199
3627.14	0.002567
3636.79	0.004567
3646.44	0.007007
3656.08	0.005697
3665.73	0.003207
3675.38	0.0015036
3685.02	0.00092478
3694.67	0.000699
3704.32	0.000523
3713.96	0.000431
3723.61	0.00044
3733.26	0.000583
3742.9	0.000544
3752.55	0.000441
3762.2	0.000512
3771.84	0.000363
3781.49	0.000567
3791.13	0.000554
3800.78	0.000522
3810.43	0.000532
3820.07	0.000554
3829.72	0.000673
3839.37	0.0005
3849.01	0.000576
3858.66	0.000599
3868.31	0.00068
3877.95	0.000688
3887.6	0.000687
3897.25	0.000566
3906.89	0.000768
3916.54	0.000678
3926.19	0.000703
3935.83	0.000571
3945.48	0.000639
3955.13	0.000541
3964.77	0.000518
3974.42	0.000543
3984.07	0.000551
3993.71	0.000544
