Infrared Spectrum: BIPHENYL, 4-(BROMOMETHYL)-
Formula: C13 H11 Br
CAS: 2567-29-5
State: SOLUTION (10% CCl4 FOR 3800-1335, 10% CS2 FOR 1335-450 CM^-^1)
Melting point: 87 C
Class: COBLENTZ III
Instrument: DOW KBr FOREPRISM-GRATING
Instrument parameters: BLAZED AT 3.5, 12.0, 20.0 MICRON AND CHANGED AT 5.0, 7.5, 14.9 MICRON
Sampling: TRANSMISSION
Path length: 0.012 CM, 0.011 CM
Resolution: 2
Origin: DOW CHEMICAL COMPANY
1/CM	TRANSMITTANCE
458	0.7311
467	0.7219
476	0.7081
485	0.6783
494	0.6471
503	0.6991
512	0.7751
521	0.7851
530	0.7775
539	0.5877
548	0.7928
557	0.7987
566	0.7908
575	0.7147
584	0.771
593	0.7065
602	0.3634
611	0.3284
620	0.5287
629	0.7008
638	0.7187
647	0.7119
656	0.7384
665	0.7543
674	0.7862
683	0.73
692	0.1662
701	0.33
710	0.2515
719	0.6444
728	0.2259
737	0.7425
746	0.7272
755	0.3764
764	0.4096
773	0.8119
782	0.8382
791	0.8328
800	0.7941
809	0.7492
818	0.6145
827	0.6057
836	0.3257
845	0.562
854	0.6341
863	0.6705
872	0.6769
881	0.7471
890	0.8271
899	0.8394
908	0.735
917	0.8617
926	0.8678
935	0.8602
944	0.8556
953	0.8528
962	0.8504
971	0.8612
980	0.8701
989	0.8321
998	0.853
1007	0.3455
1016	0.8632
1025	0.8604
1034	0.8366
1043	0.864
1052	0.8718
1061	0.8535
1070	0.7369
1079	0.8378
1088	0.8282
1097	0.6941
1106	0.8246
1115	0.8325
1124	0.809
1133	0.8275
1142	0.8324
1151	0.8154
1160	0.8216
1169	0.81
1178	0.7661
1187	0.7582
1196	0.4662
1205	0.5996
1214	0.6412
1223	0.3518
1232	0.5617
1241	0.7355
1250	0.8126
1259	0.8303
1268	0.8055
1277	0.8377
1286	0.8361
1295	0.8457
1304	0.8228
1313	0.8234
1322	0.8202
1331	0.8533
1340	0.8728
1349	0.8438
1358	0.8377
1367	0.8441
1376	0.8497
1385	0.8539
1394	0.8371
1403	0.6761
1412	0.6868
1421	0.8433
1430	0.8257
1439	0.7588
1448	0.6721
1457	0.835
1466	0.8271
1475	0.7703
1484	0.4179
1493	0.3634
1502	0.7172
1511	0.6721
1520	0.5604
1529	0.5782
1538	0.519
1547	0.4352
1556	0.4574
1565	0.4989
1574	0.5815
1583	0.5915
1592	0.6562
1601	0.4968
1610	0.7419
1619	0.7997
1628	0.8539
1637	0.8627
1646	0.8631
1655	0.8583
1664	0.8434
1673	0.8352
1682	0.869
1691	0.8777
1700	0.88
1709	0.879
1718	0.8763
1727	0.872
1736	0.866
1745	0.8575
1754	0.855
1763	0.8761
1772	0.8721
1781	0.8633
1790	0.8418
1799	0.8341
1808	0.867
1817	0.8616
1826	0.8747
1835	0.8794
1844	0.88
1853	0.877
1862	0.8714
1871	0.8468
1880	0.8607
1889	0.8414
1898	0.8427
1907	0.7961
1916	0.8682
1925	0.8728
1934	0.8649
1943	0.8232
1952	0.8566
1961	0.8554
1970	0.8762
1979	0.88
1988	0.8736
1997	0.8668
2006	0.8824
2015	0.8839
2024	0.8852
2033	0.886
2042	0.887
2051	0.888
2060	0.8891
2069	0.8903
2078	0.8915
2087	0.8918
2096	0.8925
2105	0.8928
2114	0.8933
2123	0.8935
2132	0.8938
2141	0.8938
2150	0.8938
2159	0.8937
2168	0.8936
2177	0.8935
2186	0.8933
2195	0.8928
2204	0.8925
2213	0.8921
2222	0.8928
2231	0.8923
2240	0.8893
2249	0.8857
2258	0.8818
2267	0.877
2276	0.8724
2285	0.8677
2294	0.8639
2303	0.871
2312	0.8805
2321	0.8912
2330	0.8983
2339	0.8994
2348	0.8989
2357	0.8978
2366	0.8967
2375	0.895
2384	0.8931
2393	0.8914
2402	0.8909
2411	0.8914
2420	0.8918
2429	0.8925
2438	0.8932
2447	0.8933
2456	0.8932
2465	0.8931
2474	0.8924
2483	0.8915
2492	0.8906
2501	0.8899
2510	0.8893
2519	0.8886
2528	0.888
2537	0.8875
2546	0.8871
2555	0.8865
2564	0.8861
2573	0.8855
2582	0.8849
2591	0.8841
2600	0.8825
2609	0.8812
2618	0.8795
2627	0.8763
2636	0.875
2645	0.8758
2654	0.8801
2663	0.8855
2672	0.8878
2681	0.8881
2690	0.8877
2699	0.8865
2708	0.8853
2717	0.8848
2726	0.8858
2735	0.8866
2744	0.8874
2753	0.8871
2762	0.887
2771	0.8868
2780	0.8863
2789	0.8857
2798	0.885
2807	0.8839
2816	0.8805
2825	0.8771
2834	0.8718
2843	0.8661
2852	0.8596
2861	0.8601
2870	0.8617
2879	0.8589
2888	0.8581
2897	0.8631
2906	0.86
2915	0.8545
2924	0.8488
2933	0.842
2942	0.8325
2951	0.8161
2960	0.7865
2969	0.7372
2978	0.7868
2987	0.8134
2996	0.7998
3005	0.783
3014	0.7615
3023	0.6695
3032	0.4332
3041	0.5792
3050	0.6608
3059	0.6055
3068	0.619
3077	0.6855
3086	0.6848
3095	0.7615
3104	0.8031
3113	0.8486
3122	0.8462
3131	0.8506
3140	0.8644
3149	0.8732
3158	0.8773
3167	0.8786
3176	0.8791
3185	0.8795
3194	0.8795
3203	0.8794
3212	0.8792
3221	0.8789
3230	0.8786
3239	0.8781
3248	0.8775
3257	0.8761
3266	0.8745
3275	0.8728
3284	0.8724
3293	0.8721
3302	0.872
3311	0.8734
3320	0.8753
3329	0.8768
3338	0.8773
3347	0.8775
3356	0.878
3365	0.8778
3374	0.8778
3383	0.8777
3392	0.8777
3401	0.8775
3410	0.8775
3419	0.8773
3428	0.8771
3437	0.8771
3446	0.877
3455	0.877
3464	0.8768
3473	0.8768
3482	0.8768
3491	0.8768
3500	0.8768
3509	0.8767
3518	0.8766
3527	0.8764
3536	0.8763
3545	0.8761
3554	0.8752
3563	0.8735
3572	0.8706
3581	0.8723
3590	0.8731
3599	0.8728
3608	0.8727
3617	0.8727
3626	0.8725
3635	0.8725
3644	0.8725
3653	0.8725
3662	0.8725
3671	0.8725
3680	0.8727
3689	0.8728
3698	0.8734
3707	0.8737
3716	0.8741
3725	0.8745
3734	0.8741
3743	0.8737
3752	0.8733
3761	0.8733
3770	0.8734
3779	0.8736
3788	0.8737
