Infrared Spectrum: 1,4-NAPHTHALENEDINITRILE, 1,2,3,4-TETRAHYDRO-4-PHENYL-
Formula: C18 H14 N2
CAS: 25679-87-2
State: SOLID (KBr DISC)
Class: COBLENTZ III
Instrument: PERKIN-ELMER 521 (GRATING)
Sampling: TRANSMISSION
Resolution: 4
Origin: STANDARD OIL OF OHIO
1/CM	TRANSMITTANCE
252.097	0.907
262.149	0.907
272.202	0.908
282.254	0.902
292.306	0.907
302.359	0.908
312.411	0.904
322.463	0.906
332.516	0.9069
342.568	0.908
352.62	0.902
362.673	0.9011
372.725	0.8891
382.778	0.88
392.83	0.8647
402.882	0.8409
412.935	0.6985
422.987	0.8378
433.039	0.8354
443.092	0.7448
453.144	0.8244
463.196	0.8233
473.249	0.7331
483.301	0.7032
493.353	0.7347
503.406	0.685
513.458	0.7538
523.51	0.7304
533.563	0.8127
543.615	0.6603
553.667	0.7765
563.72	0.829
573.772	0.8284
583.825	0.8112
593.877	0.7006
603.929	0.813
613.982	0.7633
624.034	0.7286
634.086	0.8075
644.139	0.8054
654.191	0.8183
664.243	0.7461
674.296	0.777
684.348	0.6922
694.4	0.3576
704.453	0.5458
714.505	0.8095
724.557	0.7822
734.61	0.5344
744.662	0.6482
754.714	0.13
764.767	0.121
774.819	0.7464
784.872	0.8411
794.924	0.849
804.976	0.847
815.029	0.847
825.081	0.8347
835.133	0.7773
845.186	0.8298
855.238	0.837
865.29	0.835
875.343	0.827
885.395	0.839
895.447	0.8245
905.5	0.6846
915.552	0.7592
925.604	0.7455
935.657	0.8392
945.709	0.8324
955.761	0.7848
965.814	0.79
975.866	0.7476
985.919	0.5818
995.971	0.7545
1006.02	0.804
1016.08	0.7179
1026.13	0.7628
1036.18	0.6761
1046.23	0.832
1056.28	0.8176
1066.34	0.7433
1076.39	0.7812
1086.44	0.778
1096.49	0.7752
1106.55	0.81
1116.6	0.835
1126.65	0.837
1136.7	0.832
1146.76	0.8104
1156.81	0.6301
1166.86	0.7859
1176.91	0.7586
1186.97	0.715
1197.02	0.793
1207.07	0.786
1217.12	0.788
1227.17	0.7321
1237.23	0.8188
1247.28	0.818
1257.33	0.7992
1267.38	0.7425
1277.44	0.7966
1287.49	0.781
1297.54	0.751
1307.59	0.7942
1317.65	0.7898
1327.7	0.786
1337.75	0.789
1347.8	0.825
1357.86	0.8243
1367.91	0.8287
1377.96	0.827
1388.01	0.8027
1398.06	0.799
1408.12	0.799
1418.17	0.7802
1428.22	0.7324
1438.27	0.5424
1448.33	0.136
1458.38	0.656
1468.43	0.7288
1478.48	0.5169
1488.54	0.3784
1498.59	0.585
1508.64	0.824
1518.69	0.829
1528.75	0.827
1538.8	0.828
1548.85	0.829
1558.9	0.827
1568.95	0.8108
1579.01	0.738
1589.06	0.7321
1599.11	0.6424
1609.16	0.8188
1619.22	0.824
1629.27	0.824
1639.32	0.827
1649.37	0.83
1659.43	0.83
1669.48	0.829
1679.53	0.83
1689.58	0.829
1699.64	0.828
1709.69	0.827
1719.74	0.8264
1729.79	0.8283
1739.84	0.829
1749.9	0.829
1759.95	0.83
1770	0.8278
1780.05	0.828
1790.11	0.824
1800.16	0.82
1810.21	0.819
1820.26	0.819
1830.32	0.817
1840.37	0.828
1850.42	0.8289
1860.47	0.8199
1870.53	0.81
1880.58	0.8235
1890.63	0.8267
1900.68	0.825
1910.73	0.825
1920.79	0.832
1930.84	0.8278
1940.89	0.8079
1950.94	0.798
1961	0.814
1971.05	0.815
1981.1	0.778
1991.15	0.8248
2001.21	0.839
2011.26	0.8401
2021.31	0.84
2031.36	0.84
2041.42	0.84
2051.47	0.84
2061.52	0.84
2071.57	0.84
2081.62	0.84
2091.68	0.84
2101.73	0.84
2111.78	0.84
2121.83	0.838
2131.89	0.8351
2141.94	0.832
2151.99	0.83
2162.04	0.83
2172.1	0.829
2182.15	0.8191
2192.2	0.818
2202.25	0.8051
2212.31	0.798
2222.36	0.7595
2232.41	0.5528
2242.46	0.6016
2252.51	0.824
2262.57	0.8251
2272.62	0.825
2282.67	0.824
2292.72	0.824
2302.78	0.824
2312.83	0.824
2322.88	0.823
2332.93	0.825
2342.99	0.825
2353.04	0.825
2363.09	0.825
2373.14	0.825
2383.2	0.824
2393.25	0.825
2403.3	0.822
2413.35	0.82
2423.4	0.818
2433.46	0.817
2443.51	0.817
2453.56	0.818
2463.61	0.817
2473.67	0.817
2483.72	0.817
2493.77	0.8101
2503.82	0.808
2513.88	0.809
2523.93	0.81
2533.98	0.81
2544.03	0.81
2554.09	0.81
2564.14	0.81
2574.19	0.812
2584.24	0.809
2594.29	0.803
2604.35	0.8019
2614.4	0.802
2624.45	0.802
2634.5	0.799
2644.56	0.799
2654.61	0.799
2664.66	0.799
2674.71	0.798
2684.77	0.798
2694.82	0.799
2704.87	0.796
2714.92	0.795
2724.98	0.79
2735.03	0.788
2745.08	0.7861
2755.13	0.785
2765.18	0.784
2775.24	0.78
2785.29	0.779
2795.34	0.7751
2805.39	0.774
2815.45	0.77
2825.5	0.765
2835.55	0.7601
2845.6	0.758
2855.66	0.748
2865.71	0.7056
2875.76	0.631
2885.81	0.7087
2895.87	0.733
2905.92	0.724
2915.97	0.6914
2926.02	0.6266
2936.07	0.5209
2946.13	0.6331
2956.18	0.7
2966.23	0.6841
2976.28	0.684
2986.34	0.7238
2996.39	0.7082
3006.44	0.6602
3016.49	0.5781
3026.55	0.66
3036.6	0.6908
3046.65	0.695
3056.7	0.6752
3066.75	0.635
3076.81	0.701
3086.86	0.701
3096.91	0.7297
3106.96	0.7429
3117.02	0.749
3127.07	0.749
3137.12	0.748
3147.17	0.748
3157.23	0.748
3167.28	0.748
3177.33	0.74
3187.38	0.738
3197.44	0.738
3207.49	0.735
3217.54	0.733
3227.59	0.731
3237.64	0.7329
3247.7	0.731
3257.75	0.73
3267.8	0.728
3277.85	0.723
3287.91	0.72
3297.96	0.718
3308.01	0.715
3318.06	0.708
3328.12	0.705
3338.17	0.7011
3348.22	0.697
3358.27	0.691
3368.33	0.689
3378.38	0.687
3388.43	0.687
3398.48	0.685
3408.53	0.685
3418.59	0.685
3428.64	0.685
3438.69	0.684
3448.74	0.684
3458.8	0.686
3468.85	0.689
3478.9	0.691
3488.95	0.692
3499.01	0.695
3509.06	0.699
3519.11	0.7
3529.16	0.701
3539.22	0.703
3549.27	0.709
3559.32	0.7129
3569.37	0.715
3579.42	0.715
3589.48	0.7179
3599.53	0.718
3609.58	0.718
3619.63	0.718
3629.69	0.718
3639.74	0.718
3649.79	0.719
3659.84	0.718
3669.9	0.716
3679.95	0.718
3690	0.718
3700.05	0.718
3710.11	0.716
3720.16	0.715
3730.21	0.718
3740.26	0.718
3750.31	0.715
3760.37	0.714
3770.42	0.714
3780.47	0.715
3790.52	0.716
