Infrared Spectrum: 2-Ethyl-3-Methoxypyrazine
Formula: C 7 H 10 N 2 O
CAS: 25680-58-4
State: gas
Origin: EPA-IR VAPOR PHASE LIBRARY
1/CM	ABSORBANCE
549.8	0.00604
559.445	0.00585
569.09	0.00484
578.734	0.00482
588.379	0.00854
598.024	0.01537
607.669	0.01561
617.313	0.00808
626.958	0.00337
636.603	0.00169
646.248	0.00138
655.893	0.0006608
665.537	0.0005867
675.182	0.0009707
684.827	0.0007781
694.472	0.000557
704.116	0.000711
713.761	0.0007779
723.406	0.00162
733.051	0.00354
742.695	0.00488
752.34	0.00397
761.985	0.00191
771.63	0.00161
781.275	0.00178
790.919	0.00198
800.564	0.00292
810.209	0.0036
819.854	0.00896
829.498	0.02305
839.143	0.04538
848.788	0.02859
858.433	0.01578
868.078	0.00813
877.722	0.0058
887.367	0.0027
897.012	0.00227
906.657	0.00281
916.301	0.00301
925.946	0.00279
935.591	0.00356
945.236	0.00421
954.88	0.00734
964.525	0.01222
974.17	0.01565
983.815	0.01508
993.46	0.01969
1003.1	0.04011
1012.75	0.06282
1022.39	0.06446
1032.04	0.04979
1041.68	0.04734
1051.33	0.03627
1060.97	0.02254
1070.62	0.01654
1080.26	0.01219
1089.91	0.00999
1099.55	0.00976
1109.2	0.01168
1118.84	0.01615
1128.49	0.02686
1138.13	0.05653
1147.78	0.10281
1157.42	0.15115
1167.07	0.15862
1176.71	0.12591
1186.36	0.07762
1196	0.04185
1205.64	0.0221
1215.29	0.01301
1224.93	0.01056
1234.58	0.01141
1244.22	0.01315
1253.87	0.01706
1263.51	0.02297
1273.16	0.03028
1282.8	0.04244
1292.45	0.06648
1302.09	0.09072
1311.74	0.09363
1321.38	0.09031
1331.03	0.1044
1340.67	0.10785
1350.32	0.08425
1359.96	0.06431
1369.61	0.08132
1379.25	0.1548
1388.9	0.25818
1398.54	0.25291
1408.18	0.12932
1417.83	0.04413
1427.47	0.03586
1437.12	0.06022
1446.76	0.10519
1456.41	0.13448
1466.05	0.10817
1475.7	0.05305
1485.34	0.02463
1494.99	0.01501
1504.63	0.01306
1514.28	0.01691
1523.92	0.03167
1533.57	0.0641
1543.21	0.08504
1552.86	0.06395
1562.5	0.02398
1572.15	0.01336
1581.79	0.00976
1591.44	0.00694
1601.08	0.00534
1610.73	0.00478
1620.37	0.00417
1630.01	0.00391
1639.66	0.00411
1649.3	0.00446
1658.95	0.00463
1668.59	0.00465
1678.24	0.00447
1687.88	0.00351
1697.53	0.00231
1707.17	0.0018
1716.82	0.00168
1726.46	0.00178
1736.11	0.00198
1745.75	0.00238
1755.4	0.00276
1765.04	0.0035
1774.69	0.00445
1784.33	0.00452
1793.98	0.00313
1803.62	0.00196
1813.27	0.00163
1822.91	0.00157
1832.55	0.00139
1842.2	0.00138
1851.84	0.00155
1861.49	0.00198
1871.13	0.00316
1880.78	0.00496
1890.42	0.00557
1900.07	0.00451
1909.71	0.00312
1919.36	0.0023
1929	0.00194
1938.65	0.00164
1948.29	0.0016
1957.94	0.00146
1967.58	0.00127
1977.23	0.0012306
1986.87	0.00171
1996.52	0.00221
2006.16	0.00313
2015.81	0.00413
2025.45	0.00443
2035.1	0.00384
2044.74	0.00294
2054.38	0.0024
2064.03	0.00211
2073.67	0.00181
2083.32	0.00157
2092.96	0.0015
2102.61	0.0015
2112.25	0.00178
2121.9	0.00235
2131.54	0.0029
2141.19	0.00289
2150.83	0.00242
2160.48	0.0022
2170.12	0.00246
2179.77	0.00248
2189.41	0.00266
2199.06	0.00258
2208.7	0.00229
2218.35	0.00179
2227.99	0.00155
2237.64	0.00143
2247.28	0.00162
2256.92	0.00162
2266.57	0.00166
2276.21	0.00164
2285.86	0.00157
2295.5	0.00154
2305.15	0.00169
2314.79	0.00211
2324.44	0.00236
2334.08	0.00253
2343.73	0.00242
2353.37	0.00224
2363.02	0.00192
2372.66	0.00161
2382.31	0.00141
2391.95	0.00159
2401.6	0.00178
2411.24	0.00182
2420.89	0.00199
2430.53	0.0021
2440.18	0.00218
2449.82	0.00235
2459.47	0.00277
2469.11	0.00298
2478.75	0.00293
2488.4	0.00255
2498.04	0.0023
2507.69	0.00185
2517.33	0.00166
2526.98	0.00141
2536.62	0.00129
2546.27	0.00127
2555.91	0.00144
2565.56	0.00151
2575.2	0.00153
2584.85	0.00151
2594.49	0.00159
2604.14	0.00163
2613.78	0.00158
2623.43	0.00172
2633.07	0.0017
2642.72	0.00179
2652.36	0.00153
2662.01	0.00148
2671.65	0.00155
2681.29	0.00173
2690.94	0.00217
2700.58	0.00228
2710.23	0.00212
2719.87	0.00251
2729.52	0.00251
2739.16	0.00266
2748.81	0.00269
2758.45	0.00269
2768.1	0.00281
2777.74	0.00275
2787.39	0.00304
2797.03	0.00311
2806.68	0.00359
2816.32	0.00463
2825.97	0.00655
2835.61	0.00921
2845.26	0.01211
2854.9	0.01523
2864.55	0.02172
2874.19	0.03151
2883.84	0.03866
2893.48	0.03713
2903.12	0.03327
2912.77	0.03126
2922.41	0.03352
2932.06	0.0421
2941.7	0.06607
2951.35	0.09246
2960.99	0.08928
2970.64	0.08084
2980.28	0.08339
2989.93	0.07586
2999.57	0.04588
3009.22	0.03349
3018.86	0.02958
3028.51	0.02498
3038.15	0.02111
3047.8	0.03415
3057.44	0.05988
3067.09	0.05977
3076.73	0.03032
3086.38	0.01118
3096.02	0.00764
3105.67	0.0065
3115.31	0.00602
3124.95	0.00546
3134.6	0.00504
3144.24	0.0051
3153.89	0.00427
3163.53	0.00332
3173.18	0.00226
3182.82	0.00202
3192.47	0.00175
3202.11	0.00138
3211.76	0.0010556
3221.4	0.0007349
3231.05	0.0007194
3240.69	0.0007672
3250.34	0.0006287
3259.98	0.0004236
3269.63	0.0002856
3279.27	0.000371
3288.92	0.0004211
3298.56	0.0004908
3308.21	0.0005338
3317.85	0.0004244
3327.49	0.0004768
3337.14	0.00033788
3346.78	0.0003506
3356.43	0.00026152
3366.07	0.000207
3375.72	0.0001564
3385.36	0.0004436
3395.01	0.0003599
3404.65	0.00023
3414.3	0.0004455
3423.94	0.00023801
3433.59	0.0004306
3443.23	0.0004326
3452.88	0.0003548
3462.52	0.0003947
3472.17	0.00031972
3481.81	0.0004624
3491.46	0.0004727
3501.1	0.0004396
3510.75	0.000107
3520.39	0.00028595
3530.04	0.0003458
3539.68	0.0002065
3549.32	0.0001912
3558.97	0.0004766
3568.61	0.0001908
3578.26	0.0003762
3587.9	0.000356
3597.55	0.000282
3607.19	0.0001572
3616.84	0.000239414
3626.48	0.0002187
3636.13	0.00029225
3645.77	0.0004526
3655.42	0.0004024
3665.06	3.6e-05
3674.71	0.0001736
3684.35	0.00023682
3694	0.0003968
3703.64	0.00031661
3713.29	0.0003734
3722.93	0.0003519
3732.58	0.0003865
3742.22	0.0004652
3751.86	0.0003516
3761.51	0.0003567
3771.15	0.00033512
3780.8	0.0001847
3790.44	0.00023009
3800.09	0.0004942
3809.73	0.0005802
3819.38	0.0004164
3829.02	0.00027351
3838.67	0.0005298
3848.31	0.0004237
3857.96	0.0007147
3867.6	0.0004494
3877.25	0.000443
3886.89	0.0008434
3896.54	0.0005383
3906.18	0.0007975
3915.83	0.0010557
3925.47	0.00138
3935.12	0.00149
3944.76	0.0009206
3954.41	0.0009223
3964.05	0.00135
3973.69	0.0009691
3983.34	0.0008481
3992.98	0.0010718
