Infrared Spectrum: 3-(Trifluoromethyl)benzyl mercaptan
Formula: C 8 H 7 F 3 S
CAS: 25697-55-6
State: gas
Origin: EPA-IR VAPOR PHASE LIBRARY
1/CM	ABSORBANCE
549.8	0.0028758
559.445	0.0013458
569.09	0.0008076
578.734	0.0008175
588.379	0.0008954
598.024	0.0005274
607.669	0.0007532
617.313	0.0010658
626.958	0.0018858
636.603	0.0022158
646.248	0.0047258
655.893	0.0230258
665.537	0.0180658
675.182	0.0055358
684.827	0.0110358
694.472	0.0302458
704.116	0.0396458
713.761	0.0224158
723.406	0.0089258
733.051	0.0056058
742.695	0.0063858
752.34	0.0066458
761.985	0.0045058
771.63	0.0047758
781.275	0.0094258
790.919	0.0190158
800.564	0.0219058
810.209	0.0105358
819.854	0.0038058
829.498	0.0021658
839.143	0.0014758
848.788	0.0018258
858.433	0.0031958
868.078	0.0066958
877.722	0.0111658
887.367	0.0119958
897.012	0.0126958
906.657	0.0109458
916.301	0.0086558
925.946	0.0050058
935.591	0.0030858
945.236	0.0029858
954.88	0.0029058
964.525	0.0034658
974.17	0.0045858
983.815	0.0057958
993.46	0.0052758
1003.1	0.0052258
1012.75	0.0040158
1022.39	0.0034358
1032.04	0.0032958
1041.68	0.0047658
1051.33	0.0090358
1060.97	0.0242158
1070.62	0.0593458
1080.26	0.0757858
1089.91	0.0499658
1099.55	0.0300058
1109.2	0.0198458
1118.84	0.0309258
1128.49	0.0781858
1138.13	0.196266
1147.78	0.297746
1157.42	0.188826
1167.07	0.170506
1176.71	0.234676
1186.36	0.161346
1196	0.0788158
1205.64	0.0360658
1215.29	0.0183958
1224.93	0.0165858
1234.58	0.0255458
1244.22	0.0470058
1253.87	0.0376358
1263.51	0.0196058
1273.16	0.0171858
1282.8	0.0177658
1292.45	0.0242358
1302.09	0.0417658
1311.74	0.0821558
1321.38	0.222586
1331.03	0.351346
1340.67	0.128836
1350.32	0.0280858
1359.96	0.0113258
1369.61	0.0059958
1379.25	0.0041158
1388.9	0.0037758
1398.54	0.0049058
1408.18	0.0076858
1417.83	0.0092158
1427.47	0.0105058
1437.12	0.0185658
1446.76	0.0280658
1456.41	0.0176858
1466.05	0.0069158
1475.7	0.0048858
1485.34	0.0062658
1494.99	0.0066958
1504.63	0.0034558
1514.28	0.0015958
1523.92	0.0011158
1533.57	0.0010858
1543.21	0.0011758
1552.86	0.0011058
1562.5	0.0011458
1572.15	0.0016058
1581.79	0.0028758
1591.44	0.0050058
1601.08	0.0049058
1610.73	0.0036158
1620.37	0.0031558
1630.01	0.0023958
1639.66	0.0019158
1649.3	0.0016458
1658.95	0.0016558
1668.59	0.0020258
1678.24	0.0022158
1687.88	0.0016858
1697.53	0.0016358
1707.17	0.0023258
1716.82	0.0023558
1726.46	0.0013858
1736.11	0.0010458
1745.75	0.0010958
1755.4	0.0013158
1765.04	0.0015058
1774.69	0.0015758
1784.33	0.0018058
1793.98	0.0018758
1803.62	0.0017358
1813.27	0.0015558
1822.91	0.0014358
1832.55	0.0013058
1842.2	0.0009705
1851.84	0.0007362
1861.49	0.0007944
1871.13	0.0012158
1880.78	0.0022458
1890.42	0.0028258
1900.07	0.0014758
1909.71	0.0008812
1919.36	0.0008757
1929	0.0009943
1938.65	0.0015258
1948.29	0.0018958
1957.94	0.0012558
1967.58	0.0005949
1977.23	0.0004503
1986.87	0.0003636
1996.52	0.0003806
2006.16	0.0003441
2015.81	0.000412
2025.45	0.000477
2035.1	0.0004466
2044.74	0.0005192
2054.38	0.0006027
2064.03	0.0006347
2073.67	0.000665
2083.32	0.0006862
2092.96	0.0003461
2102.61	0.0001857
2112.25	0.0001698
2121.9	0.00012868
2131.54	0.0002331
2141.19	0.0002779
2150.83	0.0003036
2160.48	0.0003211
2170.12	0.0002887
2179.77	0.000459
2189.41	0.00055
2199.06	0.0007652
2208.7	0.0008787
2218.35	0.0009506
2227.99	0.0008108
2237.64	0.0007956
2247.28	0.0008128
2256.92	0.0009969
2266.57	0.0011258
2276.21	0.0011958
2285.86	0.0009957
2295.5	0.0008369
2305.15	0.0008373
2314.79	0.0008023
2324.44	0.0008496
2334.08	0.0009401
2343.73	0.0009871
2353.37	0.0009681
2363.02	0.0007439
2372.66	0.0005745
2382.31	0.0005138
2391.95	0.0005158
2401.6	0.0004494
2411.24	0.0003995
2420.89	0.0003594
2430.53	0.0001967
2440.18	0.00011331
2449.82	0.0001636
2459.47	0.0002807
2469.11	0.0004758
2478.75	0.0005006
2488.4	0.0005025
2498.04	0.0004745
2507.69	0.0004483
2517.33	0.0003143
2526.98	0.000186
2536.62	0.00014453
2546.27	0.0001993
2555.91	0.0002679
2565.56	0.0003777
2575.2	0.000495
2584.85	0.0010066
2594.49	0.0012158
2604.14	0.000848
2613.78	0.0006118
2623.43	0.0005785
2633.07	0.0005496
2642.72	0.0005351
2652.36	0.0005727
2662.01	0.0005347
2671.65	0.0003053
2681.29	0.0003515
2690.94	0.0002948
2700.58	0.0003509
2710.23	0.000262
2719.87	0.0001913
2729.52	0.0002004
2739.16	7.435e-05
2748.81	0.00012477
2758.45	0.0002149
2768.1	0.0002986
2777.74	0.0003011
2787.39	0.0002693
2797.03	0.0002278
2806.68	0.0002957
2816.32	0.0004633
2825.97	0.0005503
2835.61	0.000623
2845.26	0.0008403
2854.9	0.0011558
2864.55	0.0011758
2874.19	0.0011458
2883.84	0.0009894
2893.48	0.0009965
2903.12	0.0014558
2912.77	0.0022958
2922.41	0.0035258
2932.06	0.0055158
2941.7	0.0077558
2951.35	0.0069858
2960.99	0.0051858
2970.64	0.0053358
2980.28	0.0051958
2989.93	0.0029458
2999.57	0.0017358
3009.22	0.0020258
3018.86	0.0030658
3028.51	0.0038558
3038.15	0.0048058
3047.8	0.0065158
3057.44	0.0071258
3067.09	0.0076558
3076.73	0.0075958
3086.38	0.0062158
3096.02	0.0038858
3105.67	0.0023658
3115.31	0.0018858
3124.95	0.0013258
3134.6	0.0005452
3144.24	0.0004451
3153.89	0.0003275
3163.53	0.0002734
3173.18	0.0003193
3182.82	0.0001921
3192.47	0.0003446
3202.11	0.0003906
3211.76	0.0003026
3221.4	0.0003503
3231.05	0.0002908
3240.69	0.000254
3250.34	0.00013463
3259.98	0.0001718
3269.63	0.0001813
3279.27	0.0002244
3288.92	9.215e-05
3298.56	0.0002448
3308.21	0.0001836
3317.85	0.00013362
3327.49	0.0003111
3337.14	7.951e-05
3346.78	0.00013135
3356.43	0.00012956
3366.07	0.0002846
3375.72	0.0003359
3385.36	0.0001905
3395.01	0.0002529
3404.65	0.0003034
3414.3	0.0003223
3423.94	0.0003326
3433.59	0.000308
3443.23	0.0002857
3452.88	0.0001925
3462.52	0.00011807
3472.17	0.0001899
3481.81	0.0003052
3491.46	0
3501.1	0.0001593
3510.75	0.0002545
3520.39	0.0003283
3530.04	0.0001587
3539.68	0.0002562
3549.32	6.893e-05
3558.97	0.0004071
3568.61	0.0002833
3578.26	0.0003771
3587.9	0.0003724
3597.55	0.0002317
3607.19	0.0002747
3616.84	0.000177
3626.48	0.0001792
3636.13	0.0003034
3645.77	0.0002317
3655.42	0.0003027
3665.06	0.0002501
3674.71	0.0004693
3684.35	0.000367
3694	0.0004395
3703.64	0.0003067
3713.29	0.0004125
3722.93	0.0003711
3732.58	0.0003758
3742.22	0.0003525
3751.86	0.0005127
3761.51	0.0003462
3771.15	0.0004309
3780.8	0.0003526
3790.44	0.0002152
3800.09	0.0004878
3809.73	0.0004531
3819.38	0.0002177
3829.02	0.0003704
3838.67	0.0004505
3848.31	0.00012892
3857.96	0.000415
3867.6	0.0004028
3877.25	0.00010894
3886.89	0.0002985
3896.54	0.0003429
3906.18	0.0003579
3915.83	0.0003774
3925.47	0.0004488
3935.12	0.000458
3944.76	0.0003264
3954.41	0.0002869
3964.05	0.0002927
3973.69	0.0003857
3983.34	0.000217
3992.98	0.0003121
