Infrared Spectrum: 2,4,6-Trimethylbenzonitrile
Formula: C 10 H 11 N
CAS: 2571-52-0
State: gas
Origin: EPA-IR VAPOR PHASE LIBRARY
1/CM	ABSORBANCE
551.7	0.00103
563.274	0.00294
574.848	0.0084
586.421	0.00684
597.995	0.00223
609.569	0.00122
621.143	0.00116
632.717	0.00125
644.291	0.00135
655.864	0.0006161
667.438	0.0005598
679.012	0.0007279
690.586	0.000775
702.16	0.0008924
713.734	0.00301
725.307	0.00489
736.881	0.00227
748.455	0.0009843
760.029	0.00164
771.603	0.00148
783.177	0.00104
794.75	0.00141
806.324	0.00277
817.898	0.00419
829.472	0.00739
841.046	0.02089
852.619	0.03695
864.193	0.01432
875.767	0.00282
887.341	0.0015
898.915	0.00143
910.489	0.00149
922.062	0.00236
933.636	0.00399
945.21	0.00366
956.784	0.0027
968.358	0.00232
979.932	0.00239
991.505	0.003
1003.08	0.00383
1014.65	0.0044
1026.23	0.00492
1037.8	0.00573
1049.37	0.0053
1060.95	0.00413
1072.52	0.00314
1084.1	0.00222
1095.67	0.00228
1107.24	0.00158
1118.82	0.00174
1130.39	0.00175
1141.97	0.00177
1153.54	0.00158
1165.11	0.00153
1176.69	0.00141
1188.26	0.00159
1199.83	0.00188
1211.41	0.00207
1222.98	0.0021
1234.56	0.00232
1246.13	0.00292
1257.7	0.0041
1269.28	0.00531
1280.85	0.00554
1292.42	0.00659
1304	0.00677
1315.57	0.00465
1327.15	0.00432
1338.72	0.0051
1350.29	0.00619
1361.87	0.0071
1373.44	0.00941
1385.02	0.01491
1396.59	0.01272
1408.16	0.00896
1419.74	0.01302
1431.31	0.01944
1442.88	0.02212
1454.46	0.02229
1466.03	0.02385
1477.61	0.02499
1489.18	0.02151
1500.75	0.0184
1512.33	0.0178
1523.9	0.01898
1535.48	0.02015
1547.05	0.02085
1558.62	0.02098
1570.2	0.02295
1581.77	0.02516
1593.34	0.0319
1604.92	0.05771
1616.49	0.04605
1628.07	0.01148
1639.64	0.00365
1651.21	0.00222
1662.79	0.00175
1674.36	0.00167
1685.93	0.00189
1697.51	0.00237
1709.08	0.00301
1720.66	0.00465
1732.23	0.00423
1743.8	0.0023
1755.38	0.0025
1766.95	0.00202
1778.53	0.00111
1790.1	0.0008834
1801.67	0.0007926
1813.25	0.0007658
1824.82	0.0007715
1836.39	0.0006765
1847.97	0.0006538
1859.54	0.0007589
1871.12	0.0008928
1882.69	0.00115
1894.26	0.00133
1905.84	0.00121
1917.41	0.00112
1928.99	0.0009895
1940.56	0.0009191
1952.13	0.00102
1963.71	0.000924
1975.28	0.0005998
1986.85	0.0004833
1998.43	0.0004929
2010	0.0005411
2021.58	0.0004377
2033.15	0.000473
2044.72	0.000445
2056.3	0.0004398
2067.87	0.0005939
2079.44	0.0006132
2091.02	0.0005579
2102.59	0.0005411
2114.17	0.0005214
2125.74	0.0005551
2137.31	0.0007139
2148.89	0.0007948
2160.46	0.00102
2172.04	0.00137
2183.61	0.00153
2195.18	0.00231
2206.76	0.00908
2218.33	0.02729
2229.9	0.0231
2241.48	0.00374
2253.05	0.00149
2264.63	0.00144
2276.2	0.00128
2287.77	0.0007981
2299.35	0.0007587
2310.92	0.0009642
2322.5	0.00132
2334.07	0.00151
2345.64	0.00138
2357.22	0.00103
2368.79	0.00104
2380.36	0.00108
2391.94	0.00127
2403.51	0.00143
2415.09	0.00156
2426.66	0.00148
2438.23	0.00125
2449.81	0.00117
2461.38	0.0011
2472.96	0.00103
2484.53	0.000935
2496.1	0.0009211
2507.68	0.0009497
2519.25	0.0009784
2530.82	0.0008986
2542.4	0.0008488
2553.97	0.000761
2565.55	0.0007145
2577.12	0.0007446
2588.69	0.0006105
2600.27	0.0006209
2611.84	0.0006447
2623.41	0.0009208
2634.99	0.0012
2646.56	0.00125
2658.14	0.00103
2669.71	0.00123
2681.28	0.00133
2692.86	0.00136
2704.43	0.00123
2716.01	0.00132
2727.58	0.00193
2739.15	0.00297
2750.73	0.0036
2762.3	0.00284
2773.87	0.00205
2785.45	0.00188
2797.02	0.0023
2808.6	0.00306
2820.17	0.00376
2831.74	0.00503
2843.32	0.00758
2854.89	0.01309
2866.47	0.02136
2878.04	0.02412
2889.61	0.02145
2901.19	0.023
2912.76	0.03044
2924.33	0.04963
2935.91	0.05996
2947.48	0.04297
2959.06	0.02876
2970.63	0.02478
2982.2	0.02593
2993.78	0.02964
3005.35	0.03095
3016.92	0.03286
3028.5	0.03507
3040.07	0.03446
3051.65	0.02798
3063.22	0.01676
3074.79	0.01008
3086.37	0.00735
3097.94	0.00546
3109.52	0.00407
3121.09	0.00278
3132.66	0.00213
3144.24	0.00188
3155.81	0.00141
3167.38	0.0011
3178.96	0.0009001
3190.53	0.0008109
3202.11	0.0007132
3213.68	0.0005707
3225.25	0.0006379
3236.83	0.000576
3248.4	0.0006152
3259.98	0.0005788
3271.55	0.0006058
3283.12	0.000582
3294.7	0.0004582
3306.27	0.0004778
3317.84	0.0005162
3329.42	0.0005131
3340.99	0.0007805
3352.57	0.0009721
3364.14	0.0008732
3375.71	0.0004006
3387.29	0.0003326
3398.86	0.0004693
3410.43	0.0006849
3422.01	0.0008344
3433.58	0.0008544
3445.16	0.0005243
3456.73	0.0004219
3468.3	0.0004438
3479.88	0.0002529
3491.45	0.0004239
3503.03	0.0004058
3514.6	0.0003519
3526.17	0.0003793
3537.75	0.0003464
3549.32	0.0003565
3560.89	0.0003151
3572.47	0.0003104
3584.04	0.0003053
3595.62	0.0002221
3607.19	0.0003814
3618.76	0.0002909
3630.34	0.0004099
3641.91	0.0003199
3653.49	0.0004326
3665.06	0.000438
3676.63	0.0004494
3688.21	0.0003651
3699.78	0.0004191
3711.35	0.0003726
3722.93	0.0002601
3734.5	0.0002155
3746.08	0.0004641
3757.65	0.0002658
3769.22	0.000248
3780.8	0.0002668
3792.37	0.0003598
3803.94	0.0004163
3815.52	0.0004303
3827.09	0.0004837
3838.67	0.0005536
3850.24	0.0004527
3861.81	0.0004462
3873.39	0.0004683
3884.96	0.0006454
3896.54	0.0004547
3908.11	0.0005713
3919.68	0.0007446
3931.26	0.0006393
3942.83	0.000821
3954.4	0.000803
3965.98	0.00109
3977.55	0.00107
3989.13	0.0008039
4000.7	0.0006826
