Infrared Spectrum: P-TOLUALDEHYDE 2,4-DINITRO-PHENYLHYDRAZONE
Formula: C14 H12 N4 O4
CAS: 2571-00-8
State: SOLID (MINERAL OIL MULL)
Class: COBLENTZ
Instrument: PERKIN-ELMER
Sampling: TRANSMISSION
Resolution: 4
Origin: STANDARD OIL OF OHIO
MICROMETERS	TRANSMITTANCE
2.014	0.686
2.04789	0.695
2.08178	0.703
2.11567	0.715
2.14955	0.731
2.18344	0.743
2.21733	0.756
2.25122	0.76
2.28511	0.739
2.319	0.731
2.35288	0.741
2.38677	0.755
2.42066	0.77
2.45455	0.782
2.48844	0.794
2.52233	0.823
2.55621	0.832
2.5901	0.839
2.62399	0.849
2.65788	0.866
2.69177	0.878
2.72566	0.886
2.75954	0.893
2.79343	0.898
2.82732	0.904
2.86121	0.91
2.8951	0.912
2.92899	0.912
2.96287	0.909
2.99676	0.741
3.03065	0.607
3.06454	0.856
3.09843	0.875
3.13232	0.868
3.1662	0.813
3.20009	0.678
3.23398	0.761
3.26787	0.726
3.30176	0.493
3.33565	0.113
3.36953	0.023
3.40342	0.01
3.43731	0.015
3.4712	0.018
3.50509	0.332
3.53898	0.589
3.57286	0.741
3.60675	0.828
3.64064	0.842
3.67453	0.844
3.70842	0.857
3.74231	0.859
3.77619	0.868
3.81008	0.878
3.84397	0.904
3.87786	0.928
3.91175	0.94
3.94564	0.953
3.97952	0.969
4.01341	0.988
4.0473	0.986
4.08119	0.979
4.11508	0.981
4.14897	0.986
4.18285	0.988
4.21674	0.988
4.25063	0.994
4.28452	1.001
4.31841	1.013
4.3523	1.022
4.38618	1.027
4.42007	1.02
4.45396	1.023
4.48785	1.03
4.52174	1.03
4.55563	1.03
4.58951	1.03
4.6234	1.029
4.65729	1.029
4.69118	1.029
4.72507	1.029
4.75896	1.029
4.79285	1.029
4.82673	1.027
4.86062	1.027
4.89451	1.029
4.9284	1.029
4.96229	1.03
4.99618	1.03
5.03006	1.03
5.06395	1.03
5.09784	1.03
5.13173	1.03
5.16562	1.03
5.19951	1.029
5.23339	1.029
5.26728	1.029
5.30117	1.029
5.33506	1.029
5.36895	1.029
5.40284	1.03
5.43672	1.03
5.47061	1.03
5.5045	1.03
5.53839	1.03
5.57228	1.03
5.60617	1.03
5.64005	1.03
5.67394	1.03
5.70783	1.03
5.74172	1.03
5.77561	1.03
5.8095	1.027
5.84338	1.001
5.87727	0.94
5.91116	0.922
5.94505	0.964
5.97894	0.988
6.01283	0.962
6.04671	0.924
6.0806	0.76
6.11449	0.446
6.14838	0.023
6.18227	0.025
6.21616	0.14
6.25004	0.116
6.28393	0.068
6.31782	0.289
6.35171	0.589
6.3856	0.741
6.41949	0.816
6.45337	0.821
6.48726	0.734
6.52115	0.667
6.55504	0.424
6.58893	0.058
6.62282	0.037
6.6567	0.101
6.69059	0.243
6.72448	0.378
6.75837	0.386
6.79226	0.159
6.82615	0.119
6.86003	0.135
6.89392	0.176
6.92781	0.25
6.9617	0.292
6.99559	0.344
7.02948	0.174
7.06336	0.208
7.09725	0.515
7.13114	0.743
7.16503	0.78
7.19892	0.688
7.23281	0.301
7.26669	0.335
7.30058	0.422
7.33447	0.501
7.36836	0.422
7.40225	0.203
7.43614	0.037
7.47003	0.005
7.50391	0
7.5378	0.034
7.57169	0.188
7.60558	0.066
7.63947	0.02
7.67336	0.164
7.70724	0.239
7.74113	0.27
7.77502	0.289
7.80891	0.32
7.8428	0.224
7.87669	0.113
7.91057	0.106
7.94446	0.159
7.97835	0.244
8.01224	0.462
8.04613	0.702
8.08002	0.753
8.1139	0.758
8.14779	0.662
8.18168	0.414
8.21557	0.332
8.24946	0.513
8.28335	0.621
8.31723	0.688
8.35112	0.729
8.38501	0.784
8.4189	0.832
8.45279	0.828
8.48668	0.784
8.52056	0.823
8.55445	0.794
8.58834	0.736
8.62223	0.791
8.65612	0.785
8.69001	0.457
8.72389	0.14
8.75778	0.102
8.79167	0.077
8.82556	0.125
8.85945	0.183
8.89334	0.27
8.92722	0.373
8.96111	0.458
8.995	0.523
9.02889	0.577
9.06278	0.566
9.09667	0.559
9.13055	0.527
9.16444	0.388
9.19833	0.253
9.23222	0.215
9.26611	0.354
9.3	0.558
9.33388	0.702
9.36777	0.791
9.40166	0.827
9.43555	0.731
9.46944	0.602
9.50333	0.703
9.53721	0.78
9.5711	0.804
9.60499	0.835
9.63888	0.859
9.67277	0.883
9.70666	0.904
9.74054	0.933
9.77443	0.952
9.80832	0.95
9.84221	0.958
9.8761	0.972
9.90999	0.981
9.94387	0.982
9.97776	0.97
10.0117	0.962
10.0455	0.955
10.0794	0.957
10.1133	0.957
10.1472	0.962
10.1811	0.969
10.215	0.962
10.2489	0.946
10.2828	0.907
10.3166	0.859
10.3505	0.861
10.3844	0.837
10.4183	0.729
10.4522	0.734
10.4861	0.784
10.52	0.811
10.5539	0.738
10.5878	0.789
10.6216	0.881
10.6555	0.902
10.6894	0.91
10.7233	0.904
10.7572	0.82
10.7911	0.708
10.825	0.729
10.8589	0.823
10.8927	0.857
10.9266	0.77
10.9605	0.616
10.9944	0.628
11.0283	0.806
11.0622	0.905
11.0961	0.938
11.13	0.955
11.1639	0.964
11.1977	0.972
11.2316	0.986
11.2655	1
11.2994	1.006
11.3333	1.023
11.3672	1.025
11.4011	1.025
11.435	1.025
11.4689	1.025
11.5027	1.027
11.5366	1.03
11.5705	1.03
11.6044	1.029
11.6383	1.025
11.6722	1.005
11.7061	0.933
11.74	0.744
11.7738	0.501
11.8077	0.422
11.8416	0.674
11.8755	0.799
11.9094	0.898
11.9433	0.924
11.9772	0.715
12.0111	0.688
12.045	0.878
12.0788	0.967
12.1127	0.991
12.1466	1.003
12.1805	0.976
12.2144	0.892
12.2483	0.825
12.2822	0.851
12.3161	0.967
12.3499	1.011
12.3838	1.025
12.4177	1.025
12.4516	1.027
12.4855	1.027
12.5194	1.022
12.5533	0.969
12.5872	0.823
12.6211	0.729
12.6549	0.753
12.6888	0.773
12.7227	0.719
12.7566	0.695
12.7905	0.695
12.8244	0.76
12.8583	0.842
12.8922	0.883
12.9261	0.904
12.9599	0.919
12.9938	0.946
13.0277	0.955
13.0616	0.904
13.0955	0.799
13.1294	0.775
13.1633	0.803
13.1972	0.823
13.231	0.832
13.2649	0.839
13.2988	0.852
13.3327	0.864
13.3666	0.864
13.4005	0.797
13.4344	0.607
13.4683	0.344
13.5022	0.256
13.536	0.501
13.5699	0.75
13.6038	0.804
13.6377	0.854
13.6716	0.881
13.7055	0.883
13.7394	0.876
13.7733	0.863
13.8071	0.833
13.841	0.777
13.8749	0.686
13.9088	0.58
13.9427	0.455
13.9766	0.453
14.0105	0.602
14.0444	0.767
14.0783	0.83
14.1121	0.9
14.146	0.943
14.1799	0.965
14.2138	0.977
14.2477	0.976
14.2816	0.969
14.3155	0.934
14.3494	0.803
14.3832	0.587
14.4171	0.484
14.451	0.481
14.4849	0.583
14.5188	0.686
14.5527	0.722
14.5866	0.741
14.6205	0.785
14.6544	0.844
14.6882	0.888
14.7221	0.912
14.756	0.916
14.7899	0.905
14.8238	0.9
14.8577	0.886
14.8916	0.892
14.9255	0.897
14.9594	0.9
14.9932	0.909
15.0271	0.919
15.061	0.924
15.0949	0.921
15.1288	0.916
15.1627	0.914
15.1966	0.909
15.2305	0.902
15.2643	0.89
15.2982	0.863
15.3321	0.806
15.366	0.744
15.3999	0.679
