Infrared Spectrum: SEMICARBAZIDE, 1-(9H-PURIN-6-YL)-3-THIO
Formula: C6 H7 N7 S
CAS: 25732-31-4
State: SOLID (0.9 mg / 650 mg KBr DISC)
Class: COBLENTZ III
Instrument: PERKIN-ELMER 221 (GRATING)
Instrument parameters: FILTER AT 980 CM^-^1. GRATING 4000-1428 CM^-^1, NaCl PRISM 1428-650 CM^-^1
Sampling: TRANSMISSION
Resolution: 2
Origin: SOUTHERN RESEARCH INSTITUTE
1/CM	TRANSMITTANCE
601.36	0.5063
610.401	0.4948
619.443	0.4625
628.484	0.1881
637.526	0.4263
646.567	0.6506
655.609	0.5421
664.65	0.3645
673.691	0.4209
682.733	0.766
691.774	0.6726
700.816	0.5821
709.857	0.4839
718.899	0.4559
727.94	0.4733
736.981	0.552
746.023	0.6087
755.064	0.5903
764.106	0.3996
773.147	0.3309
782.188	0.5774
791.23	0.4798
800.271	0.6486
809.313	0.6019
818.354	0.5428
827.396	0.4837
836.437	0.4104
845.478	0.3326
854.52	0.4602
863.561	0.453
872.603	0.4365
881.644	0.3858
890.686	0.2586
899.727	0.2352
908.768	0.6203
917.81	0.678
926.851	0.2236
935.893	0.1703
944.934	0.6181
953.976	0.7465
963.017	0.7666
972.058	0.7826
981.1	0.7995
990.141	0.8184
999.183	0.8334
1008.22	0.84
1017.27	0.8342
1026.31	0.8168
1035.35	0.7943
1044.39	0.7629
1053.43	0.7067
1062.47	0.5351
1071.51	0.5717
1080.56	0.7204
1089.6	0.7245
1098.64	0.707
1107.68	0.6478
1116.72	0.3705
1125.76	0.2914
1134.8	0.545
1143.85	0.6912
1152.89	0.5778
1161.93	0.4168
1170.97	0.6517
1180.01	0.6361
1189.05	0.5498
1198.09	0.6526
1207.14	0.6658
1216.18	0.626
1225.22	0.5225
1234.26	0.4011
1243.3	0.191
1252.34	0.3528
1261.38	0.6593
1270.43	0.6037
1279.47	0.4787
1288.51	0.3279
1297.55	0.185
1306.59	0.1068
1315.63	0.2115
1324.67	0.121
1333.72	0.3009
1342.76	0.5768
1351.8	0.5659
1360.84	0.4828
1369.88	0.5248
1378.92	0.5177
1387.96	0.3977
1397.01	0.2726
1406.05	0.2762
1415.09	0.4941
1424.13	0.4701
1433.17	0.3935
1442.21	0.262
1451.25	0.3334
1460.3	0.4595
1469.34	0.5407
1478.38	0.5153
1487.42	0.5015
1496.46	0.4978
1505.5	0.4809
1514.54	0.4415
1523.59	0.3979
1532.63	0.3941
1541.67	0.4002
1550.71	0.3557
1559.75	0.3228
1568.79	0.2742
1577.83	0.1628
1586.88	0.0867
1595.92	0.0214
1604.96	0.0194
1614	0.0238
1623.04	0.043
1632.08	0.0683
1641.12	0.1117
1650.17	0.1437
1659.21	0.2786
1668.25	0.4025
1677.29	0.5264
1686.33	0.5837
1695.37	0.6549
1704.41	0.6598
1713.46	0.7064
1722.5	0.7512
1731.54	0.7776
1740.58	0.7994
1749.62	0.8146
1758.66	0.8262
1767.7	0.8363
1776.75	0.8451
1785.79	0.8511
1794.83	0.8525
1803.87	0.8562
1812.91	0.8637
1821.95	0.8684
1830.99	0.8729
1840.04	0.8758
1849.08	0.8759
1858.12	0.876
1867.16	0.876
1876.2	0.8725
1885.24	0.8585
1894.28	0.8451
1903.33	0.867
1912.37	0.8643
1921.41	0.8656
1930.45	0.8694
1939.49	0.8703
1948.53	0.8674
1957.57	0.8631
1966.62	0.8596
1975.66	0.8571
1984.7	0.8542
1993.74	0.8506
2002.78	0.8481
2011.82	0.846
2020.86	0.8435
2029.91	0.8395
2038.95	0.8316
2047.99	0.8219
2057.03	0.8181
2066.07	0.8166
2075.11	0.8162
2084.15	0.8156
2093.2	0.8129
2102.24	0.8073
2111.28	0.8007
2120.32	0.796
2129.36	0.7918
2138.4	0.7858
2147.44	0.7807
2156.48	0.7753
2165.53	0.7698
2174.57	0.7627
2183.61	0.7551
2192.65	0.7462
2201.69	0.7371
2210.73	0.7271
2219.77	0.7161
2228.82	0.7091
2237.86	0.6979
2246.9	0.6806
2255.94	0.6719
2264.98	0.6644
2274.02	0.66
2283.06	0.6548
2292.11	0.6455
2301.15	0.6333
2310.19	0.6139
2319.23	0.5862
2328.27	0.5573
2337.31	0.5462
2346.35	0.5273
2355.4	0.5203
2364.44	0.5184
2373.48	0.5117
2382.52	0.5134
2391.56	0.5129
2400.6	0.5078
2409.64	0.4997
2418.69	0.4908
2427.73	0.4814
2436.77	0.4707
2445.81	0.4582
2454.85	0.445
2463.89	0.4305
2472.93	0.4152
2481.98	0.3983
2491.02	0.385
2500.06	0.3757
2509.1	0.3661
2518.14	0.3489
2527.18	0.3337
2536.22	0.3213
2545.27	0.2985
2554.31	0.2813
2563.35	0.2834
2572.39	0.2932
2581.43	0.2977
2590.47	0.286
2599.51	0.2696
2608.56	0.2601
2617.6	0.2544
2626.64	0.2482
2635.68	0.2371
2644.72	0.2213
2653.76	0.2073
2662.8	0.1967
2671.85	0.1845
2680.89	0.186
2689.93	0.1903
2698.97	0.1872
2708.01	0.1847
2717.05	0.1873
2726.09	0.1887
2735.14	0.1764
2744.18	0.1619
2753.22	0.1465
2762.26	0.1367
2771.3	0.1318
2780.34	0.1226
2789.38	0.1175
2798.43	0.1205
2807.47	0.1237
2816.51	0.1279
2825.55	0.141
2834.59	0.1635
2843.63	0.1709
2852.67	0.1666
2861.72	0.1754
2870.76	0.2
2879.8	0.2045
2888.84	0.1876
2897.88	0.1589
2906.92	0.1437
2915.96	0.1428
2925.01	0.1465
2934.05	0.1409
2943.09	0.1314
2952.13	0.1233
2961.17	0.1217
2970.21	0.1243
2979.25	0.1309
2988.3	0.1323
2997.34	0.1319
3006.38	0.135
3015.42	0.1496
3024.46	0.1632
3033.5	0.1573
3042.54	0.1459
3051.59	0.1423
3060.63	0.1465
3069.67	0.1566
3078.71	0.1593
3087.75	0.1632
3096.79	0.168
3105.83	0.1648
3114.88	0.1736
3123.92	0.2051
3132.96	0.2282
3142	0.2306
3151.04	0.2302
3160.08	0.2197
3169.12	0.1976
3178.17	0.1719
3187.21	0.16
3196.25	0.1694
3205.29	0.1926
3214.33	0.2282
3223.37	0.2436
3232.41	0.2509
3241.46	0.2589
3250.5	0.2666
3259.54	0.2768
3268.58	0.2807
3277.62	0.2831
3286.66	0.309
3295.7	0.3387
3304.75	0.3771
3313.79	0.3979
3322.83	0.5143
3331.87	0.5571
3340.91	0.5699
3349.95	0.5903
3358.99	0.6397
3368.04	0.6523
3377.08	0.6616
3386.12	0.6695
3395.16	0.677
3404.2	0.6824
3413.24	0.6864
3422.28	0.6932
3431.33	0.7064
3440.37	0.7193
3449.41	0.7301
3458.45	0.7405
3467.49	0.7498
3476.53	0.7577
3485.57	0.7656
3494.62	0.7738
3503.66	0.7835
3512.7	0.7945
3521.74	0.8061
3530.78	0.8215
3539.82	0.835
3548.86	0.8449
3557.91	0.8478
3566.95	0.8481
3575.99	0.8747
3585.03	0.8851
3594.07	0.8965
3603.11	0.9067
3612.15	0.9244
3621.2	0.9319
3630.24	0.936
3639.28	0.9384
3648.32	0.9405
3657.36	0.9421
3666.4	0.9423
3675.44	0.9444
3684.49	0.947
3693.53	0.9469
3702.57	0.9461
3711.61	0.9454
3720.65	0.9445
3729.69	0.9431
3738.73	0.9419
3747.78	0.9412
3756.82	0.9404
3765.86	0.9468
3774.9	0.9449
3783.94	0.9412
3792.98	0.9376
3802.02	0.9339
3811.07	0.9303
3820.11	0.928
3829.15	0.9262
3838.19	0.9256
3847.23	0.925
3856.27	0.9242
3865.31	0.9232
3874.36	0.9199
3883.4	0.9143
3892.44	0.911
3901.48	0.9096
3910.52	0.9084
3919.56	0.908
3928.6	0.9078
3937.65	0.9079
3946.69	0.9077
3955.73	0.9073
3964.77	0.9055
3973.81	0.9038
3982.85	0.9018
3991.89	0.8997
4000.94	0.899
4009.98	0.8984
