Infrared Spectrum: 5-Chloro-2-nitrodiphenylamine
Formula: C 12 H 9 Cl N 2 O 2
CAS: 25781-92-4
State: gas
Instrument: HP-GC/MS/IRD
Origin: NIST Mass Spectrometry Data Center
1/CM	ABSORBANCE
550	0.0074205
562	0.0049179
574	0.0035793
586	0.0048888
598	0.0064602
610	0.0045978
622	0.0035211
634	0.0036375
646	0.0045978
658	0.0048306
670	0.006402
682	0.011349
694	0.0219123
706	0.0272085
718	0.0150738
730	0.0105924
742	0.0220287
754	0.0371898
766	0.0149574
778	0.0050634
790	0.0020661
802	0.0086427
814	0.0099231
826	0.0098358
838	0.0285762
850	0.0252588
862	0.0182166
874	0.0070422
886	0.0049761
898	0.0048015
910	0.010767
922	0.033756
934	0.0597423
946	0.0196134
958	0.0037539
970	0.0008148
982	5.82e-05
994	0.0003201
1006	0.0023571
1018	0.0056745
1030	0.0077988
1042	0.0050925
1054	0.0112326
1066	0.029973
1078	0.0146664
1090	0.0060819
1102	0.011349
1114	0.0060819
1126	0.0047142
1138	0.0051798
1150	0.0111162
1162	0.0080607
1174	0.0120765
1186	0.0150738
1198	0.0242694
1210	0.039285
1222	0.0351528
1234	0.0444648
1246	0.0957972
1258	0.172941
1270	0.110434
1282	0.0582291
1294	0.057909
1306	0.0548535
1318	0.0508668
1330	0.0999294
1342	0.0575889
1354	0.027354
1366	0.0183039
1378	0.0213012
1390	0.0259572
1402	0.0437664
1414	0.0584619
1426	0.0457452
1438	0.0365496
1450	0.0495864
1462	0.0598878
1474	0.0824694
1486	0.175648
1498	0.291
1510	0.121929
1522	0.0576762
1534	0.0513906
1546	0.0593931
1558	0.078279
1570	0.164648
1582	0.178558
1594	0.253315
1606	0.186298
1618	0.144685
1630	0.05529
1642	0.0229599
1654	0.0129204
1666	0.0095739
1678	0.0103596
1690	0.0142881
1702	0.0169362
1714	0.0136479
1726	0.0174309
1738	0.0124548
1750	0.0067221
1762	0.0043068
1774	0.0037539
1786	0.0037539
1798	0.0027936
1810	0.0019788
1822	0.0013968
1834	0.0012804
1846	0.0015423
1858	0.0016878
1870	0.0020661
1882	0.0025317
1894	0.0027354
1906	0.0015423
1918	0.0013386
1930	0.0017751
1942	0.0021825
1954	0.0019206
1966	0.0008439
1978	0.000291
1990	0.0002619
2002	0.0002328
2014	0.0001164
2026	0
2038	5.82e-05
2050	5.82e-05
2062	0.0001164
2074	0.000291
2086	0.0002619
2098	0.0001746
2110	0.0001455
2122	0.0002037
2134	0.0002619
2146	0.0002328
2158	0.000291
2170	0.0004947
2182	0.0003783
2194	0.0001746
2206	2.91e-05
2218	5.82e-05
2230	0
2242	5.82e-05
2254	0.0001746
2266	0.0003201
2278	0.0003492
2290	0.0004656
2302	0.0009603
2314	0.0010476
2326	0.0010476
2338	0.0012222
2350	0.0013677
2362	0.0013095
2374	0.0010185
2386	0.0011058
2398	0.0013386
2410	0.0011349
2422	0.0009603
2434	0.0009894
2446	0.0010767
2458	0.0010185
2470	0.0010185
2482	0.0011349
2494	0.0009894
2506	0.0008439
2518	0.000873
2530	0.0011349
2542	0.0015714
2554	0.0016587
2566	0.001455
2578	0.001164
2590	0.0010767
2602	0.0010476
2614	0.0010767
2626	0.0011058
2638	0.0010767
2650	0.0009603
2662	0.0009603
2674	0.0010476
2686	0.0009021
2698	0.0008439
2710	0.0010185
2722	0.0012222
2734	0.0013095
2746	0.0011931
2758	0.0010185
2770	0.0010185
2782	0.0013095
2794	0.0016005
2806	0.0017751
2818	0.0020952
2830	0.002328
2842	0.0025899
2854	0.0033465
2866	0.0059655
2878	0.0052671
2890	0.0037539
2902	0.0039867
2914	0.0040449
2926	0.0059655
2938	0.0125421
2950	0.0176055
2962	0.0061692
2974	0.0036957
2986	0.0022698
2998	0.0018333
3010	0.0025608
3022	0.0043359
3034	0.0085263
3046	0.0132405
3058	0.0107379
3070	0.0137934
3082	0.0148992
3094	0.0099231
3106	0.0066639
3118	0.0036375
3130	0.0016878
3142	0.0012804
3154	0.0013095
3166	0.0012804
3178	0.0011931
3190	0.0010185
3202	0.0008148
3214	0.0007857
3226	0.0006984
3238	0.0008148
3250	0.0008439
3262	0.0010185
3274	0.0015714
3286	0.0025608
3298	0.0039285
3310	0.0049179
3322	0.0062565
3334	0.0094575
3346	0.0167616
3358	0.0315735
3370	0.0394887
3382	0.0296529
3394	0.0195552
3406	0.0121929
3418	0.0062856
3430	0.0037248
3442	0.0021534
3454	0.0013677
3466	0.0008439
3478	0.000582
3490	0.0004074
3502	0.0001746
3514	0.0001164
3526	5.82e-05
3538	2.91e-05
3550	0.0001164
3562	0.0002037
3574	0.0001455
3586	2.91e-05
3598	0
3610	5.82e-05
3622	5.82e-05
3634	5.82e-05
3646	0.0001164
3658	0.0001455
3670	0.0001746
3682	0.0001746
3694	0.0002037
3706	0.0002037
3718	0.0001746
3730	5.82e-05
3742	5.82e-05
3754	2.91e-05
3766	2.91e-05
3778	0
3790	5.82e-05
3802	5.82e-05
3814	8.73e-05
3826	8.73e-05
3838	8.73e-05
