Infrared Spectrum: 2-Chloro-5-nitrobenzoyl chloride
Formula: C 7 H 3 Cl 2 N O 3
CAS: 25784-91-2
State: gas
Origin: EPA-IR VAPOR PHASE LIBRARY
1/CM	ABSORBANCE
549.8	0.029337
559.445	0.022597
569.09	0.018447
578.734	0.023567
588.379	0.023507
598.024	0.017647
607.669	0.015027
617.313	0.015097
626.958	0.021117
636.603	0.044347
646.248	0.073497
655.893	0.087667
665.537	0.060787
675.182	0.038507
684.827	0.040277
694.472	0.026307
704.116	0.020707
713.761	0.027637
723.406	0.054797
733.051	0.110287
742.695	0.227157
752.34	0.236327
761.985	0.074367
771.63	0.023557
781.275	0.014107
790.919	0.012717
800.564	0.017117
810.209	0.029627
819.854	0.066017
829.498	0.185267
839.143	0.379857
848.788	0.256127
858.433	0.074217
868.078	0.034717
877.722	0.023857
887.367	0.021007
897.012	0.030047
906.657	0.060467
916.301	0.100667
925.946	0.149147
935.591	0.179597
945.236	0.151697
954.88	0.116387
964.525	0.075097
974.17	0.039167
983.815	0.020237
993.46	0.012577
1003.1	0.010217
1012.75	0.010537
1022.39	0.012177
1032.04	0.018887
1041.68	0.038317
1051.33	0.091277
1060.97	0.173497
1070.62	0.169957
1080.26	0.065817
1089.91	0.030917
1099.55	0.034647
1109.2	0.045617
1118.84	0.028997
1128.49	0.018367
1138.13	0.018377
1147.78	0.018297
1157.42	0.026047
1167.07	0.043007
1176.71	0.083797
1186.36	0.155777
1196	0.142757
1205.64	0.063077
1215.29	0.030767
1224.93	0.022687
1234.58	0.024707
1244.22	0.065377
1253.87	0.117057
1263.51	0.049527
1273.16	0.054857
1282.8	0.080957
1292.45	0.063337
1302.09	0.036177
1311.74	0.035797
1321.38	0.052407
1331.03	0.120137
1340.67	0.349457
1350.32	0.461077
1359.96	0.198057
1369.61	0.079477
1379.25	0.052807
1388.9	0.041827
1398.54	0.037907
1408.18	0.037567
1417.83	0.040207
1427.47	0.034067
1437.12	0.038747
1446.76	0.062027
1456.41	0.104077
1466.05	0.096627
1475.7	0.046567
1485.34	0.033227
1494.99	0.041867
1504.63	0.049027
1514.28	0.046457
1523.92	0.074157
1533.57	0.178997
1543.21	0.336357
1552.86	0.276447
1562.5	0.127117
1572.15	0.125727
1581.79	0.141607
1591.44	0.134147
1601.08	0.165357
1610.73	0.158457
1620.37	0.062597
1630.01	0.025417
1639.66	0.020247
1649.3	0.019907
1658.95	0.017927
1668.59	0.016557
1678.24	0.015037
1687.88	0.012097
1697.53	0.010677
1707.17	0.010347
1716.82	0.011617
1726.46	0.016137
1736.11	0.026337
1745.75	0.045027
1755.4	0.075067
1765.04	0.121347
1774.69	0.173447
1784.33	0.220617
1793.98	0.312647
1803.62	0.356547
1813.27	0.207007
1822.91	0.109647
1832.55	0.053757
1842.2	0.026647
1851.84	0.016977
1861.49	0.013667
1871.13	0.011907
1880.78	0.010877
1890.42	0.010147
1900.07	0.009737
1909.71	0.010377
1919.36	0.010247
1929	0.008777
1938.65	0.005087
1948.29	0.002717
1957.94	0.002027
1967.58	0.001777
1977.23	0.001567
1986.87	0.001507
1996.52	0.0014157
2006.16	0.001487
2015.81	0.001457
2025.45	0.001497
2035.1	0.001507
2044.74	0.0013211
2054.38	0.0011693
2064.03	0.0009579
2073.67	0.0010995
2083.32	0.0011463
2092.96	0.0012717
2102.61	0.001567
2112.25	0.001827
2121.9	0.001737
2131.54	0.001577
2141.19	0.001477
2150.83	0.0012824
2160.48	0.0011958
2170.12	0.0009029
2179.77	0.0008709
2189.41	0.0009838
2199.06	0.000934
2208.7	0.0009917
2218.35	0.0009028
2227.99	0.0009035
2237.64	0.0010556
2247.28	0.0012486
2256.92	0.001687
2266.57	0.002197
2276.21	0.002017
2285.86	0.001657
2295.5	0.0013886
2305.15	0.0012033
2314.79	0.0010792
2324.44	0.0011301
2334.08	0.0009893
2343.73	0.0012679
2353.37	0.001467
2363.02	0.001607
2372.66	0.001487
2382.31	0.001767
2391.95	0.0013949
2401.6	0.0011097
2411.24	0.0009061
2420.89	0.0011705
2430.53	0.0011514
2440.18	0.001527
2449.82	0.001867
2459.47	0.001687
2469.11	0.0014017
2478.75	0.0013785
2488.4	0.0012443
2498.04	0.0013248
2507.69	0.0013428
2517.33	0.001497
2526.98	0.001827
2536.62	0.002067
2546.27	0.001897
2555.91	0.002027
2565.56	0.002437
2575.2	0.002527
2584.85	0.002247
2594.49	0.001967
2604.14	0.001547
2613.78	0.0012824
2623.43	0.001165
2633.07	0.0013462
2642.72	0.001747
2652.36	0.002117
2662.01	0.002497
2671.65	0.003407
2681.29	0.004587
2690.94	0.004367
2700.58	0.003417
2710.23	0.002727
2719.87	0.002057
2729.52	0.001797
2739.16	0.001577
2748.81	0.001497
2758.45	0.0013529
2768.1	0.001447
2777.74	0.0013583
2787.39	0.001577
2797.03	0.001707
2806.68	0.001587
2816.32	0.001687
2825.97	0.001907
2835.61	0.002297
2845.26	0.003127
2854.9	0.004057
2864.55	0.005437
2874.19	0.007027
2883.84	0.007917
2893.48	0.006867
2903.12	0.004877
2912.77	0.003987
2922.41	0.003937
2932.06	0.003507
2941.7	0.003577
2951.35	0.003227
2960.99	0.002737
2970.64	0.001867
2980.28	0.001487
2989.93	0.0011322
2999.57	0.0013709
3009.22	0.0013597
3018.86	0.0013996
3028.51	0.001637
3038.15	0.0014126
3047.8	0.001517
3057.44	0.001777
3067.09	0.003347
3076.73	0.009077
3086.38	0.020477
3096.02	0.021277
3105.67	0.012627
3115.31	0.006987
3124.95	0.003327
3134.6	0.001707
3144.24	0.0012935
3153.89	0.0006673
3163.53	0.0007537
3173.18	0.000846
3182.82	0.0009406
3192.47	0.0008109
3202.11	0.001078
3211.76	0.0011475
3221.4	0.0008089
3231.05	0.000582
3240.69	0.000271
3250.34	0.00046447
3259.98	0.000243
3269.63	0.000147
3279.27	0.000301
3288.92	0.000232
3298.56	9.7e-05
3308.21	7.1e-05
3317.85	0.000117
3327.49	0.000227
3337.14	0.000221
3346.78	0.000117
3356.43	0.00011
3366.07	0.000211
3375.72	0.000174
3385.36	0.000314
3395.01	0.000291
3404.65	0.0005388
3414.3	0.0003653
3423.94	0.00043006
3433.59	0.0005519
3443.23	0.00045674
3452.88	0.0005208
3462.52	0.0005545
3472.17	0.0007999
3481.81	0.0007497
3491.46	0.0013638
3501.1	0.0012579
3510.75	0.0013205
3520.39	0.001907
3530.04	0.002487
3539.68	0.003347
3549.32	0.004377
3558.97	0.005257
3568.61	0.005067
3578.26	0.004287
3587.9	0.003767
3597.55	0.003027
3607.19	0.002157
3616.84	0.001797
3626.48	0.0014102
3636.13	0.001217
3645.77	0.0008183
3655.42	0.0009949
3665.06	0.0007235
3674.71	0.0008443
3684.35	0.0006618
3694	0.0005742
3703.64	0.0006754
3713.29	0.00049389
3722.93	0.00044331
3732.58	0.0005789
3742.22	0.0005749
3751.86	0.0005687
3761.51	0.0005555
3771.15	0.00047173
3780.8	0.00046336
3790.44	0.0005896
3800.09	0.0005883
3809.73	0.000569
3819.38	0.0003261
3829.02	0.0007399
3838.67	0.00047628
3848.31	0.0006355
3857.96	0.0006106
3867.6	0.000294
3877.25	0.0003633
3886.89	0.0005229
3896.54	0.000233
3906.18	0.000233
3915.83	0.00044544
3925.47	0.0005866
3935.12	0.000582
3944.76	0.00047394
3954.41	0.00050027
3964.05	0.000279
3973.69	0.0003342
3983.34	0.0005562
3992.98	0.0005513
