Infrared Spectrum: Guanidine, (2-benzothiazolyl)-
Formula: C8 H8 N4 S
CAS: 2582-07-2
State: SOLID (SPLIT MULL), FLUOROLUBE FOR 3800-1330 CM^-^1, NUJOL FOR 1330-400 CM^-^1
Melting point: 154 C
Class: COBLENTZ III
Instrument: BECKMAN IR-9 (GRATING)
Instrument parameters: ORDER CHANGES: 670, 1200, 2000 CM^-^1
Sampling: TRANSMISSION
Resolution: 2
Origin: DOW CHEMICAL COMPANY
1/CM	TRANSMITTANCE
402	0.5206
411	0.5242
420	0.5463
429	0.5269
438	0.517
447	0.5681
456	0.5866
465	0.6263
474	0.6659
483	0.7106
492	0.7345
501	0.7365
510	0.7377
519	0.7293
528	0.7239
537	0.7203
546	0.7266
555	0.7302
564	0.7252
573	0.7037
582	0.7291
591	0.7475
600	0.7642
609	0.789
618	0.782
627	0.7764
636	0.8113
645	0.8102
654	0.6625
663	0.65
672	0.807
681	0.8389
690	0.8448
699	0.8467
708	0.7512
717	0.7656
726	0.4022
735	0.6747
744	0.6833
753	0.2903
762	0.4144
771	0.8054
780	0.837
789	0.8627
798	0.8733
807	0.7808
816	0.8813
825	0.9176
834	0.9266
843	0.9253
852	0.8484
861	0.8904
870	0.9196
879	0.93
888	0.922
897	0.9132
906	0.9056
915	0.8271
924	0.5828
933	0.6874
942	0.8409
951	0.843
960	0.7506
969	0.6724
978	0.758
987	0.8912
996	0.9267
1005	0.9194
1014	0.8868
1023	0.8297
1032	0.8978
1041	0.8879
1050	0.868
1059	0.8501
1068	0.7584
1077	0.8075
1086	0.8089
1095	0.7991
1104	0.7867
1113	0.7838
1122	0.7708
1131	0.6994
1140	0.8013
1149	0.7965
1158	0.7324
1167	0.7927
1176	0.8047
1185	0.7948
1194	0.7616
1203	0.7099
1212	0.643
1221	0.607
1230	0.5351
1239	0.4003
1248	0.2505
1257	0.2203
1266	0.385
1275	0.5388
1284	0.634
1293	0.6299
1302	0.6476
1311	0.6663
1320	0.7859
1329	0.8266
1338	0.8091
1347	0.7873
1356	0.4922
1365	0.5063
1374	0.5017
1383	0.487
1392	0.4703
1401	0.4482
1410	0.414
1419	0.3727
1428	0.3001
1437	0.1795
1446	0.1107
1455	0.1717
1464	0.1485
1473	0.1319
1482	0.2009
1491	0.2024
1500	0.1477
1509	0.0792
1518	0.1006
1527	0.079
1536	0.0809
1545	0.1556
1554	0.3079
1563	0.4157
1572	0.4422
1581	0.3867
1590	0.2547
1599	0.2707
1608	0.1526
1617	0.1167
1626	0.1271
1635	0.1493
1644	0.1725
1653	0.2245
1662	0.3463
1671	0.4843
1680	0.5522
1689	0.554
1698	0.5324
1707	0.7244
1716	0.8085
1725	0.8288
1734	0.8472
1743	0.8501
1752	0.8481
1761	0.8415
1770	0.8308
1779	0.8127
1788	0.7986
1797	0.7978
1806	0.7933
1815	0.7853
1824	0.7728
1833	0.7703
1842	0.7702
1851	0.766
1860	0.7593
1869	0.7545
1878	0.7531
1887	0.7507
1896	0.7466
1905	0.7404
1914	0.7426
1923	0.7416
1932	0.7341
1941	0.7263
1950	0.723
1959	0.7238
1968	0.7242
1977	0.7193
1986	0.7128
1995	0.7054
2004	0.7006
2013	0.7003
2022	0.6959
2031	0.6908
2040	0.6854
2049	0.6793
2058	0.6734
2067	0.669
2076	0.6646
2085	0.6589
2094	0.6537
2103	0.6485
2112	0.6432
2121	0.6377
2130	0.6322
2139	0.6268
2148	0.6209
2157	0.6149
2166	0.609
2175	0.603
2184	0.5974
2193	0.5919
2202	0.5864
2211	0.5809
2220	0.576
2229	0.571
2238	0.5662
2247	0.5612
2256	0.5566
2265	0.5521
2274	0.5476
2283	0.5431
2292	0.5388
2301	0.5348
2310	0.531
2319	0.5278
2328	0.5263
2337	0.5247
2346	0.5235
2355	0.5232
2364	0.5229
2373	0.5226
2382	0.5216
2391	0.5162
2400	0.5091
2409	0.5058
2418	0.5037
2427	0.5017
2436	0.5001
2445	0.4984
2454	0.4965
2463	0.4946
2472	0.4931
2481	0.4915
2490	0.4899
2499	0.4884
2508	0.487
2517	0.4856
2526	0.4846
2535	0.4831
2544	0.48
2553	0.475
2562	0.4704
2571	0.4657
2580	0.4616
2589	0.4575
2598	0.4535
2607	0.4495
2616	0.4458
2625	0.4417
2634	0.437
2643	0.4323
2652	0.4276
2661	0.4232
2670	0.4189
2679	0.4146
2688	0.4103
2697	0.4059
2706	0.402
2715	0.3981
2724	0.3943
2733	0.3904
2742	0.3866
2751	0.3827
2760	0.3788
2769	0.3749
2778	0.3711
2787	0.3671
2796	0.3633
2805	0.3593
2814	0.3554
2823	0.3514
2832	0.3479
2841	0.3448
2850	0.3419
2859	0.3388
2868	0.336
2877	0.3333
2886	0.331
2895	0.3299
2904	0.329
2913	0.3282
2922	0.3276
2931	0.3279
2940	0.3283
2949	0.3286
2958	0.3288
2967	0.3258
2976	0.3226
2985	0.3189
2994	0.3137
3003	0.3088
3012	0.3038
3021	0.2976
3030	0.2916
3039	0.2856
3048	0.2786
3057	0.2693
3066	0.261
3075	0.258
3084	0.2564
3093	0.2532
3102	0.248
3111	0.2411
3120	0.2328
3129	0.2245
3138	0.2165
3147	0.2119
3156	0.2075
3165	0.2034
3174	0.2007
3183	0.1986
3192	0.198
3201	0.2025
3210	0.21
3219	0.2179
3228	0.2257
3237	0.233
3246	0.2387
3255	0.2412
3264	0.2419
3273	0.2402
3282	0.2362
3291	0.231
3300	0.2246
3309	0.2175
3318	0.2089
3327	0.203
3336	0.2002
3345	0.2011
3354	0.2099
3363	0.2161
3372	0.2199
3381	0.2216
3390	0.2219
3399	0.2212
3408	0.2193
3417	0.2136
3426	0.206
3435	0.2134
3444	0.247
3453	0.2888
3462	0.3256
3471	0.3553
3480	0.3898
3489	0.4058
3498	0.4115
3507	0.4144
3516	0.4164
3525	0.4172
3534	0.4153
3543	0.4096
3552	0.4047
3561	0.3998
3570	0.3951
3579	0.3902
3588	0.3865
3597	0.3831
3606	0.3798
3615	0.377
3624	0.3741
3633	0.3714
3642	0.3689
3651	0.3664
3660	0.3639
3669	0.3609
3678	0.3578
3687	0.3547
3696	0.3516
3705	0.3485
3714	0.3458
3723	0.3432
3732	0.3406
3741	0.338
3750	0.336
3759	0.334
3768	0.332
3777	0.3302
3786	0.3289
3795	0.3272
