Infrared Spectrum: 4,4'-Bis(hexyloxy)azoxybenzene
Formula: C 24 H 34 N 2 O 3
CAS: 2587-42-0
State: gas
Origin: EPA-IR VAPOR PHASE LIBRARY
1/CM	ABSORBANCE
549.8	0.0015514
559.445	0.0015852
569.09	0.0017595
578.734	0.0020045
588.379	0.001102
598.024	0.00124826
607.669	0.00103
617.313	0.00087
626.958	0.001051
636.603	0.00127075
646.248	0.0014278
655.893	0.0013623
665.537	0.00107
675.182	0.0011467
684.827	0.0011354
694.472	0.00106
704.116	0.0011971
713.761	0.00129818
723.406	0.0013222
733.051	0.00129567
742.695	0.0013151
752.34	0.0011709
761.985	0.00122078
771.63	0.0013267
781.275	0.00126817
790.919	0.0015208
800.564	0.00162
810.209	0.0017972
819.854	0.0021813
829.498	0.00382
839.143	0.0047
848.788	0.00285
858.433	0.001945
868.078	0.0016504
877.722	0.0015297
887.367	0.0014697
897.012	0.001516
906.657	0.0020071
916.301	0.00289
925.946	0.00224
935.591	0.00227
945.236	0.0019635
954.88	0.0015008
964.525	0.0014142
974.17	0.0014832
983.815	0.0017634
993.46	0.00223
1003.1	0.00354
1012.75	0.00501
1022.39	0.00526
1032.04	0.00455
1041.68	0.00385
1051.33	0.00376
1060.97	0.0027
1070.62	0.00226
1080.26	0.0017818
1089.91	0.0017754
1099.55	0.0018553
1109.2	0.00242
1118.84	0.0018354
1128.49	0.002111
1138.13	0.00252
1147.78	0.00457
1157.42	0.01593
1167.07	0.00507
1176.71	0.00251
1186.36	0.00251
1196	0.00407
1205.64	0.0063
1215.29	0.00727
1224.93	0.01158
1234.58	0.01776
1244.22	0.02356
1253.87	0.01527
1263.51	0.00804
1273.16	0.00672
1282.8	0.00695
1292.45	0.0069
1302.09	0.00493
1311.74	0.00428
1321.38	0.00373
1331.03	0.00313
1340.67	0.00261
1350.32	0.0021734
1359.96	0.0021903
1369.61	0.0020927
1379.25	0.00266
1388.9	0.00326
1398.54	0.0025
1408.18	0.00246
1417.83	0.00234
1427.47	0.0019853
1437.12	0.00276
1446.76	0.00349
1456.41	0.00614
1466.05	0.00893
1475.7	0.00994
1485.34	0.00728
1494.99	0.01813
1504.63	0.0147
1514.28	0.00417
1523.92	0.00232
1533.57	0.0018981
1543.21	0.0019707
1552.86	0.0020607
1562.5	0.00272
1572.15	0.00322
1581.79	0.0048
1591.44	0.01007
1601.08	0.01056
1610.73	0.00549
1620.37	0.0026
1630.01	0.0018887
1639.66	0.0016583
1649.3	0.0016252
1658.95	0.0014848
1668.59	0.0015361
1678.24	0.0014626
1687.88	0.0013612
1697.53	0.0014771
1707.17	0.00122687
1716.82	0.0016292
1726.46	0.00121603
1736.11	0.0013166
1745.75	0.00129692
1755.4	0.00126367
1765.04	0.001087
1774.69	0.0011172
1784.33	0.0011307
1793.98	0.001042
1803.62	0.000998
1813.27	0.00091
1822.91	0.000941
1832.55	0.000953
1842.2	0.000998
1851.84	0.000888
1861.49	0.000945
1871.13	0.001011
1880.78	0.000993
1890.42	0.001
1900.07	0.000979
1909.71	0.000916
1919.36	0.000946
1929	0.000872
1938.65	0.000854
1948.29	0.000874
1957.94	0.000901
1967.58	0.000906
1977.23	0.000925
1986.87	0.000918
1996.52	0.000908
2006.16	0.000949
2015.81	0.001028
2025.45	0.000991
2035.1	0.000944
2044.74	0.000957
2054.38	0.00094
2064.03	0.000894
2073.67	0.000866
2083.32	0.000856
2092.96	0.00081
2102.61	0.000795
2112.25	0.000818
2121.9	0.000781
2131.54	0.00074
2141.19	0.000733
2150.83	0.000763
2160.48	0.000778
2170.12	0.000772
2179.77	0.000746
2189.41	0.000724
2199.06	0.000729
2208.7	0.000683
2218.35	0.000805
2227.99	0.000797
2237.64	0.000756
2247.28	0.000765
2256.92	0.000815
2266.57	0.000824
2276.21	0.000842
2285.86	0.000804
2295.5	0.00086
2305.15	0.00089
2314.79	0.00092
2324.44	0.000967
2334.08	0.000872
2343.73	0.000898
2353.37	0.00088
2363.02	0.000961
2372.66	0.000964
2382.31	0.000904
2391.95	0.000887
2401.6	0.000903
2411.24	0.000902
2420.89	0.000815
2430.53	0.000889
2440.18	0.000826
2449.82	0.000907
2459.47	0.000898
2469.11	0.000793
2478.75	0.000881
2488.4	0.000898
2498.04	0.00088
2507.69	0.000917
2517.33	0.000937
2526.98	0.000943
2536.62	0.000958
2546.27	0.000939
2555.91	0.000947
2565.56	0.000953
2575.2	0.00086
2584.85	0.000866
2594.49	0.000877
2604.14	0.000817
2613.78	0.000832
2623.43	0.000813
2633.07	0.000821
2642.72	0.000829
2652.36	0.000815
2662.01	0.000845
2671.65	0.00086
2681.29	0.000932
2690.94	0.000954
2700.58	0.000928
2710.23	0.000903
2719.87	0.000952
2729.52	0.000968
2739.16	0.001058
2748.81	0.001109
2758.45	0.001067
2768.1	0.001007
2777.74	0.001003
2787.39	0.001049
2797.03	0.001035
2806.68	0.0011266
2816.32	0.0011684
2825.97	0.0013689
2835.61	0.0016958
2845.26	0.0021736
2854.9	0.00325
2864.55	0.00471
2874.19	0.00531
2883.84	0.00527
2893.48	0.00485
2903.12	0.00498
2912.77	0.00637
2922.41	0.00818
2932.06	0.01065
2941.7	0.01127
2951.35	0.00969
2960.99	0.00897
2970.64	0.0084
2980.28	0.00463
2989.93	0.00263
2999.57	0.0019192
3009.22	0.0014534
3018.86	0.00130159
3028.51	0.0012018
3038.15	0.00130232
3047.8	0.0013755
3057.44	0.00126771
3067.09	0.0013797
3076.73	0.0015694
3086.38	0.0017714
3096.02	0.0014353
3105.67	0.001092
3115.31	0.001078
3124.95	0.001107
3134.6	0.001044
3144.24	0.001016
3153.89	0.001074
3163.53	0.00101
3173.18	0.000977
3182.82	0.000945
3192.47	0.001025
3202.11	0.001034
3211.76	0.000962
3221.4	0.000934
3231.05	0.000957
3240.69	0.0009
3250.34	0.000839
3259.98	0.000899
3269.63	0.000881
3279.27	0.000876
3288.92	0.000761
3298.56	0.000704
3308.21	0.000652
3317.85	0.000588
3327.49	0.000591
3337.14	0.000606
3346.78	0.000626
3356.43	0.000525
3366.07	0.000652
3375.72	0.000625
3385.36	0.000517
3395.01	0.000508
3404.65	0.000405
3414.3	0.000552
3423.94	0.000521
3433.59	0.000402
3443.23	0.000484
3452.88	0.000319
3462.52	0.000362
3472.17	0.000353
3481.81	0.000357
3491.46	0.000394
3501.1	0.00046
3510.75	0.00033
3520.39	0.000418
3530.04	0.000304
3539.68	0.000255
3549.32	0.00021
3558.97	0.000315
3568.61	0.000448
3578.26	0.000242
3587.9	0.00057
3597.55	0.000309
3607.19	0.000369
3616.84	0.000367
3626.48	0.000451
3636.13	0.00013
3645.77	0.000357
3655.42	0.000349
3665.06	0.000234
3674.71	0.000456
3684.35	0.00019
3694	0.00017
3703.64	0.00018
3713.29	0.000318
3722.93	0.00029
3732.58	0.000341
3742.22	0.000439
3751.86	0.00021
3761.51	0.00015
3771.15	0.000296
3780.8	0.00011
3790.44	0.00011
3800.09	0.000266
3809.73	0.00013
3819.38	0.000327
3829.02	0.00014
3838.67	0.000277
3848.31	9e-05
3857.96	0.000214
3867.6	0.000217
3877.25	0.0002
3886.89	0.000264
3896.54	0.00018
3906.18	0.00013
3915.83	0.00015
3925.47	0.00012
3935.12	0.00014
3944.76	0.000225
3954.41	0.0001
3964.05	8e-05
3973.69	0.00013
3983.34	0.00011
3992.98	9e-05
