Infrared Spectrum: 1,3,5-Tribenzoylbenzene
Formula: C 27 H 18 O 3
CAS: 25871-69-6
State: gas
Origin: EPA-IR VAPOR PHASE LIBRARY
1/CM	ABSORBANCE
549.8	0.0003126
559.445	0.0004124
569.09	0.00012942
578.734	0.0004352
588.379	0.0003086
598.024	0.000535
607.669	0.000506
617.313	0.000389
626.958	0.0006734
636.603	0.0017397
646.248	0.0037397
655.893	0.0020097
665.537	0.0010091
675.182	0.0009315
684.827	0.0014297
694.472	0.0034497
704.116	0.0022497
713.761	0.0030397
723.406	0.0026797
733.051	0.0011597
742.695	0.0006925
752.34	0.0006106
761.985	0.0011097
771.63	0.0007411
781.275	0.0008371
790.919	0.0010901
800.564	0.0011397
810.209	0.0005977
819.854	0.0002573
829.498	0.0003077
839.143	0.0004346
848.788	0.0004106
858.433	0.00019615
868.078	0.000438
877.722	0.0003452
887.367	0.0003274
897.012	0.0006629
906.657	0.0005027
916.301	0.0005531
925.946	0.0007153
935.591	0.000469
945.236	0.0003802
954.88	0.0003226
964.525	0.0005173
974.17	0.0006245
983.815	0.0010572
993.46	0.0020597
1003.1	0.0028197
1012.75	0.0027697
1022.39	0.000821
1032.04	0.0006252
1041.68	0.0004009
1051.33	0.000395
1060.97	0.0003237
1070.62	0.000256
1080.26	0.0008835
1089.91	0.0004261
1099.55	0.0008493
1109.2	0.0009711
1118.84	0.0012297
1128.49	0.0017097
1138.13	0.0013697
1147.78	0.0006565
1157.42	0.0007959
1167.07	0.0008373
1176.71	0.0022897
1186.36	0.0017197
1196	0.0008587
1205.64	0.0012597
1215.29	0.0018797
1224.93	0.0042497
1234.58	0.0071597
1244.22	0.0084597
1253.87	0.0092797
1263.51	0.0059397
1273.16	0.0038297
1282.8	0.0016097
1292.45	0.0011997
1302.09	0.0013597
1311.74	0.0016597
1321.38	0.0012397
1331.03	0.0009741
1340.67	0.0006779
1350.32	0.0004767
1359.96	0.0004314
1369.61	0.0003712
1379.25	0.000414
1388.9	0.0003878
1398.54	0.0003195
1408.18	0.0004396
1417.83	0.0006491
1427.47	0.0008398
1437.12	0.0008817
1446.76	0.0015597
1456.41	0.0008673
1466.05	0.0005117
1475.7	0.0003985
1485.34	0.0003734
1494.99	0.000366
1504.63	0.0002966
1514.28	0.0002965
1523.92	0.0003233
1533.57	0.0003073
1543.21	0.0004281
1552.86	0.0004256
1562.5	0.0004863
1572.15	0.0007817
1581.79	0.0011097
1591.44	0.0013797
1601.08	0.0014597
1610.73	0.0006763
1620.37	0.0005556
1630.01	0.0005173
1639.66	0.0007922
1649.3	0.0009575
1658.95	0.0014397
1668.59	0.0026097
1678.24	0.0066697
1687.88	0.0085797
1697.53	0.0038497
1707.17	0.0018997
1716.82	0.0010975
1726.46	0.0007247
1736.11	0.0004978
1745.75	0.0004156
1755.4	0.0003387
1765.04	0.0003101
1774.69	0.0003208
1784.33	0.0002677
1793.98	0.0003142
1803.62	0.0003967
1813.27	0.0004128
1822.91	0.0003008
1832.55	0.0003185
1842.2	0.0002636
1851.84	0.0003064
1861.49	0.0003037
1871.13	0.0002914
1880.78	0.0002892
1890.42	0.0003398
1900.07	0.0003589
1909.71	0.0003472
1919.36	0.0002823
1929	0.0002446
1938.65	0.0002484
1948.29	0.0003133
1957.94	0.0003625
1967.58	0.0003074
1977.23	0.0002489
1986.87	0.0002339
1996.52	0.0002184
2006.16	0.0002384
2015.81	0.0002221
2025.45	0.00018443
2035.1	0.0002634
2044.74	0.00019551
2054.38	0.0002202
2064.03	0.0002419
2073.67	0.00019208
2083.32	0.0002194
2092.96	0.0002592
2102.61	0.00018167
2112.25	0.000202
2121.9	0.00018709
2131.54	0.000224
2141.19	0.0002088
2150.83	0.0002042
2160.48	0.0002409
2170.12	0.0002079
2179.77	0.0002323
2189.41	0.0002098
2199.06	0.00016594
2208.7	0.0002309
2218.35	0.00018689
2227.99	0.00016742
2237.64	0.0002482
2247.28	0.00016955
2256.92	0.00018892
2266.57	0.0002323
2276.21	0.0002379
2285.86	0.0002543
2295.5	0.0002924
2305.15	0.0002146
2314.79	0.0002631
2324.44	0.0002609
2334.08	0.0002593
2343.73	0.00026
2353.37	0.0002471
2363.02	0.0002039
2372.66	0.0002498
2382.31	0.0002612
2391.95	0.00019014
2401.6	0.0002183
2411.24	0.0002083
2420.89	0.0003042
2430.53	0.0002127
2440.18	0.0002365
2449.82	0.0002648
2459.47	0.0001516
2469.11	0.0002273
2478.75	0.00018785
2488.4	0.00016362
2498.04	0.0002105
2507.69	0.0002012
2517.33	0.0002226
2526.98	0.00012968
2536.62	0.00017889
2546.27	0.0002448
2555.91	0.0002677
2565.56	0.000214
2575.2	0.0002691
2584.85	0.00026
2594.49	0.0002624
2604.14	0.0002736
2613.78	0.0002096
2623.43	0.0003152
2633.07	0.00017323
2642.72	0.00016048
2652.36	0.0002806
2662.01	0.00013166
2671.65	0.0002708
2681.29	0.0002688
2690.94	0.00016268
2700.58	0.0002328
2710.23	0.00014858
2719.87	0.0001452
2729.52	0.00018262
2739.16	0.0002712
2748.81	0.00017643
2758.45	0.0002266
2768.1	0.0002358
2777.74	0.0002209
2787.39	0.0002306
2797.03	0.00017745
2806.68	0.0002332
2816.32	0.0002359
2825.97	0.0002226
2835.61	0.0002399
2845.26	0.00014363
2854.9	0.0002782
2864.55	0.0002355
2874.19	0.000351
2883.84	0.0002082
2893.48	0.000215
2903.12	0.0002055
2912.77	0.0002734
2922.41	0.00019678
2932.06	0.00019031
2941.7	0.0001617
2951.35	0.0002411
2960.99	0.0002634
2970.64	0.0002008
2980.28	0.0002181
2989.93	0.0002227
2999.57	0.0003216
3009.22	0.0003335
3018.86	0.0003919
3028.51	0.0005454
3038.15	0.0007841
3047.8	0.0006293
3057.44	0.0009283
3067.09	0.0014697
3076.73	0.0016197
3086.38	0.0013797
3096.02	0.0009299
3105.67	0.0005565
3115.31	0.0003285
3124.95	0.0002941
3134.6	0.0002924
3144.24	0.00019408
3153.89	7.08e-05
3163.53	0.0001516
3173.18	0.0001245
3182.82	0.00016572
3192.47	0.000299
3202.11	0.0002032
3211.76	0.0002205
3221.4	0.00015429
3231.05	0.00018104
3240.69	0.00015205
3250.34	0.00011778
3259.98	0.00016883
3269.63	0.0002378
3279.27	0.0002807
3288.92	0.0002246
3298.56	0.0002737
3308.21	0.0002603
3317.85	0.00018249
3327.49	0.0002936
3337.14	0.0002685
3346.78	0.0003856
3356.43	0.0003695
3366.07	0.0002576
3375.72	0.00018425
3385.36	0.0003033
3395.01	0.0002094
3404.65	0.0002475
3414.3	0.0002075
3423.94	0.0002761
3433.59	0.0002166
3443.23	0.00018715
3452.88	0.0003434
3462.52	0.00019791
3472.17	0.0002874
3481.81	0.000243
3491.46	0.00012431
3501.1	0.0002892
3510.75	0.00019719
3520.39	0.00015914
3530.04	0.0002091
3539.68	0.0002408
3549.32	0.00013234
3558.97	0.00014266
3568.61	0.00016587
3578.26	0.000103965
3587.9	0.0001914
3597.55	0.00015412
3607.19	0.0002674
3616.84	0.00014426
3626.48	0.000106667
3636.13	0.0003246
3645.77	0.0003864
3655.42	0.0001996
3665.06	0.0002282
3674.71	7.9e-05
3684.35	0.0002039
3694	0.0002775
3703.64	0.00017178
3713.29	0.000107207
3722.93	0.0001968
3732.58	0.0002329
3742.22	0.00011232
3751.86	0.00011918
3761.51	0.0001584
3771.15	0.00019018
3780.8	0.0001518
3790.44	0.0002399
3800.09	0.00015797
3809.73	0
3819.38	0.00018598
3829.02	0.0002065
3838.67	0.0002973
3848.31	0.0002412
3857.96	0.00019644
3867.6	0.0002199
3877.25	0.00012271
3886.89	0.00016565
3896.54	9.252e-05
3906.18	0.0002897
3915.83	0.0002091
3925.47	0.0002841
3935.12	0.0002377
3944.76	0.0002043
3954.41	0.0003103
3964.05	0.0002736
3973.69	0.00019346
3983.34	0.0002958
3992.98	0.0002113
