Infrared Spectrum: 1-Phenyl-2-hexanone
Formula: C 12 H 16 O
CAS: 25870-62-6
State: gas
Origin: EPA-IR VAPOR PHASE LIBRARY
1/CM	ABSORBANCE
549.8	0.0044568
559.445	0.0048068
569.09	0.0045068
578.734	0.0040168
588.379	0.0040868
598.024	0.0040068
607.669	0.0035068
617.313	0.0039368
626.958	0.0037268
636.603	0.0032968
646.248	0.0037368
655.893	0.0039868
665.537	0.0050168
675.182	0.0078768
684.827	0.0147868
694.472	0.0309768
704.116	0.0305368
713.761	0.0222468
723.406	0.0190868
733.051	0.0160868
742.695	0.0125568
752.34	0.0080168
761.985	0.0053468
771.63	0.0039368
781.275	0.0030768
790.919	0.0021368
800.564	0.0020768
810.209	0.0019768
819.854	0.0016468
829.498	0.0016668
839.143	0.0015668
848.788	0.0015768
858.433	0.0015468
868.078	0.0015968
877.722	0.0020068
887.367	0.0023368
897.012	0.0025368
906.657	0.0025268
916.301	0.0024868
925.946	0.0022368
935.591	0.0019568
945.236	0.0022068
954.88	0.0022368
964.525	0.0022668
974.17	0.0019268
983.815	0.0023968
993.46	0.0027268
1003.1	0.0034568
1012.75	0.0035968
1022.39	0.0068468
1032.04	0.0131168
1041.68	0.0160668
1051.33	0.0177768
1060.97	0.0156268
1070.62	0.0130268
1080.26	0.0126868
1089.91	0.0114168
1099.55	0.0094568
1109.2	0.0102268
1118.84	0.0129468
1128.49	0.0134468
1138.13	0.0107168
1147.78	0.0094868
1157.42	0.0081868
1167.07	0.0079868
1176.71	0.0106368
1186.36	0.0126768
1196	0.0114868
1205.64	0.0098068
1215.29	0.0098468
1224.93	0.0104668
1234.58	0.0105668
1244.22	0.0101668
1253.87	0.0094568
1263.51	0.0094668
1273.16	0.0094468
1282.8	0.0103268
1292.45	0.0107468
1302.09	0.0113568
1311.74	0.0121968
1321.38	0.0131168
1331.03	0.0142768
1340.67	0.0149168
1350.32	0.0154068
1359.96	0.0140268
1369.61	0.0105468
1379.25	0.0086868
1388.9	0.0080868
1398.54	0.0072768
1408.18	0.0084968
1417.83	0.0103768
1427.47	0.0119068
1437.12	0.0124268
1446.76	0.0134968
1456.41	0.0143968
1466.05	0.0118268
1475.7	0.0088868
1485.34	0.0101768
1494.99	0.0180568
1504.63	0.0107968
1514.28	0.0035668
1523.92	0.0025768
1533.57	0.0023068
1543.21	0.0022368
1552.86	0.0021168
1562.5	0.0022768
1572.15	0.0028768
1581.79	0.0042668
1591.44	0.0065068
1601.08	0.0085468
1610.73	0.0065868
1620.37	0.0033368
1630.01	0.0025168
1639.66	0.0023668
1649.3	0.0027368
1658.95	0.0032768
1668.59	0.0041568
1678.24	0.0057868
1687.88	0.0084968
1697.53	0.0144668
1707.17	0.0305368
1716.82	0.0621068
1726.46	0.0811368
1736.11	0.0537668
1745.75	0.0246868
1755.4	0.0114068
1765.04	0.0064568
1774.69	0.0045468
1784.33	0.0038868
1793.98	0.0038268
1803.62	0.0031468
1813.27	0.0022968
1822.91	0.0018468
1832.55	0.0015268
1842.2	0.0014968
1851.84	0.0015768
1861.49	0.0019668
1871.13	0.0021168
1880.78	0.0018468
1890.42	0.0015168
1900.07	0.0012368
1909.71	0.0011168
1919.36	0.0012968
1929	0.0017068
1938.65	0.0022068
1948.29	0.0023168
1957.94	0.0018568
1967.58	0.0010422
1977.23	0.0008131
1986.87	0.0007549
1996.52	0.0006487
2006.16	0.0006663
2015.81	0.000675
2025.45	0.0006775
2035.1	0.0006925
2044.74	0.0006036
2054.38	0.0006552
2064.03	0.0006697
2073.67	0.0006429
2083.32	0.0006459
2092.96	0.0005403
2102.61	0.0006587
2112.25	0.0006648
2121.9	0.0006195
2131.54	0.0006852
2141.19	0.0005784
2150.83	0.000681
2160.48	0.0005367
2170.12	0.0006104
2179.77	0.0006134
2189.41	0.0006513
2199.06	0.0006512
2208.7	0.0005853
2218.35	0.0006532
2227.99	0.0005949
2237.64	0.0006484
2247.28	0.0006286
2256.92	0.000552
2266.57	0.0006204
2276.21	0.0005889
2285.86	0.0006442
2295.5	0.0006466
2305.15	0.0006662
2314.79	0.0008364
2324.44	0.0006064
2334.08	0.0008264
2343.73	0.0006993
2353.37	0.0007073
2363.02	0.0007165
2372.66	0.0006067
2382.31	0.0006073
2391.95	0.0006243
2401.6	0.0004824
2411.24	0.0005132
2420.89	0.0006376
2430.53	0.0005203
2440.18	0.0005524
2449.82	0.000541
2459.47	0.0004569
2469.11	0.0004114
2478.75	0.00041
2488.4	0.0004377
2498.04	0.0006341
2507.69	0.0004421
2517.33	0.000614
2526.98	0.0005375
2536.62	0.0004637
2546.27	0.0005351
2555.91	0.0006138
2565.56	0.0005712
2575.2	0.0006818
2584.85	0.000748
2594.49	0.0007915
2604.14	0.0008783
2613.78	0.000798
2623.43	0.0007759
2633.07	0.000975
2642.72	0.0009059
2652.36	0.0009437
2662.01	0.0008769
2671.65	0.0009457
2681.29	0.0009215
2690.94	0.0009595
2700.58	0.0010768
2710.23	0.0009452
2719.87	0.0009005
2729.52	0.0011168
2739.16	0.0012968
2748.81	0.0015768
2758.45	0.0015468
2768.1	0.0016868
2777.74	0.0019268
2787.39	0.0021668
2797.03	0.0026868
2806.68	0.0032668
2816.32	0.0038668
2825.97	0.0046668
2835.61	0.0060668
2845.26	0.0080868
2854.9	0.0116268
2864.55	0.0180468
2874.19	0.0246168
2883.84	0.0293868
2893.48	0.0286668
2903.12	0.0286468
2912.77	0.0332368
2922.41	0.0412068
2932.06	0.0494168
2941.7	0.0551068
2951.35	0.0536568
2960.99	0.0591168
2970.64	0.0598168
2980.28	0.0354868
2989.93	0.0183768
2999.57	0.0120268
3009.22	0.0107768
3018.86	0.0129568
3028.51	0.0200768
3038.15	0.0216468
3047.8	0.0140468
3057.44	0.0129868
3067.09	0.0203468
3076.73	0.0207868
3086.38	0.0140768
3096.02	0.0101968
3105.67	0.0064568
3115.31	0.0042268
3124.95	0.0024168
3134.6	0.0016468
3144.24	0.0011468
3153.89	0.0013068
3163.53	0.0013068
3173.18	0.0008568
3182.82	0.0009753
3192.47	0.0008416
3202.11	0.0005894
3211.76	0.000707
3221.4	0.0005855
3231.05	0.0005602
3240.69	0.0003845
3250.34	0.0004746
3259.98	0.0003313
3269.63	0.0006429
3279.27	0.0004244
3288.92	0.0002912
3298.56	0.00013382
3308.21	0.0004097
3317.85	0.0002534
3327.49	0.0002063
3337.14	0.0004992
3346.78	0.0004977
3356.43	0.0004288
3366.07	0.0004835
3375.72	0.0007478
3385.36	0.0005775
3395.01	0.0006565
3404.65	0.0009664
3414.3	0.0011368
3423.94	0.0016568
3433.59	0.0018368
3443.23	0.0015968
3452.88	0.0008811
3462.52	0.0007567
3472.17	0.0005172
3481.81	0.0002454
3491.46	0.0003587
3501.1	0.0002485
3510.75	0.0002285
3520.39	0.0004024
3530.04	0.0005547
3539.68	0.0003071
3549.32	0.0003207
3558.97	0.0005291
3568.61	0.000355
3578.26	0.0002817
3587.9	0.0002538
3597.55	0.0003793
3607.19	0.0002856
3616.84	0.0003321
3626.48	0.000279
3636.13	0.0005166
3645.77	0.0005602
3655.42	0.0005673
3665.06	0.0002342
3674.71	0.0003402
3684.35	0.0004325
3694	0.0005204
3703.64	0.0003359
3713.29	0.0003899
3722.93	0.0005548
3732.58	0.0004057
3742.22	0.0004242
3751.86	0.0002373
3761.51	0.0005049
3771.15	0.0004993
3780.8	0.0001886
3790.44	0.0005487
3800.09	0.0004914
3809.73	0.0003932
3819.38	0.0003222
3829.02	0.0003503
3838.67	0.0006107
3848.31	0.000415
3857.96	0.0005072
3867.6	0.0003679
3877.25	0.0004914
3886.89	0.0005438
3896.54	0.0005368
3906.18	0.0002902
3915.83	0.0002922
3925.47	0.0004161
3935.12	0.0005727
3944.76	0.0002477
3954.41	0.0005463
3964.05	0.0001867
3973.69	0.0004029
3983.34	0.0006352
3992.98	0.0007518
