Infrared Spectrum: 4-Amino-2,6-dichloropyridine
Formula: C 5 H 4 Cl 2 N 2
CAS: 2587-02-2
State: gas
Origin: EPA-IR VAPOR PHASE LIBRARY
1/CM	ABSORBANCE
549.8	0.00411
559.445	0.00319
569.09	0.0035
578.734	0.00363
588.379	0.00323
598.024	0.00443
607.669	0.00591
617.313	0.00483
626.958	0.0053
636.603	0.00527
646.248	0.0054
655.893	0.00687
665.537	0.00807
675.182	0.00946
684.827	0.00982
694.472	0.00944
704.116	0.01029
713.761	0.01088
723.406	0.00689
733.051	0.00543
742.695	0.0051
752.34	0.00519
761.985	0.00609
771.63	0.00809
781.275	0.00913
790.919	0.00833
800.564	0.0155
810.209	0.03375
819.854	0.04038
829.498	0.02492
839.143	0.02389
848.788	0.01951
858.433	0.01014
868.078	0.00638
877.722	0.00454
887.367	0.00419
897.012	0.00431
906.657	0.00391
916.301	0.00485
925.946	0.00674
935.591	0.00869
945.236	0.01532
954.88	0.018
964.525	0.00949
974.17	0.00426
983.815	0.00317
993.46	0.00257
1003.1	0.00239
1012.75	0.00108834
1022.39	0.0015
1032.04	0.000378
1041.68	0
1051.33	0.00296
1060.97	0.0019475
1070.62	0.00349
1080.26	0.00857
1089.91	0.02027
1099.55	0.0247
1109.2	0.01069
1118.84	0.00547
1128.49	0.00521
1138.13	0.0043
1147.78	0.01288
1157.42	0.02919
1167.07	0.02516
1176.71	0.00877
1186.36	0.00476
1196	0.00632
1205.64	0.00594
1215.29	0.00597
1224.93	0.00503
1234.58	0.00678
1244.22	0.00532
1253.87	0.00886
1263.51	0.01553
1273.16	0.01202
1282.8	0.00465
1292.45	0.00349
1302.09	0.00343
1311.74	0.0028
1321.38	0.00351
1331.03	0.00406
1340.67	0.00325
1350.32	0.00269
1359.96	0.00316
1369.61	0.00452
1379.25	0.01119
1388.9	0.03184
1398.54	0.04842
1408.18	0.03393
1417.83	0.01715
1427.47	0.01497
1437.12	0.01171
1446.76	0.00673
1456.41	0.00405
1466.05	0.00278
1475.7	0.00281
1485.34	0.00301
1494.99	0.00355
1504.63	0.00483
1514.28	0.008
1523.92	0.00964
1533.57	0.01068
1543.21	0.02127
1552.86	0.04769
1562.5	0.06497
1572.15	0.05834
1581.79	0.089
1591.44	0.08153
1601.08	0.03077
1610.73	0.01893
1620.37	0.04022
1630.01	0.05179
1639.66	0.03484
1649.3	0.01603
1658.95	0.01008
1668.59	0.00702
1678.24	0.00492
1687.88	0.0038
1697.53	0.00338
1707.17	0.00278
1716.82	0.00248
1726.46	0.00235
1736.11	0.00216
1745.75	0.00222
1755.4	0.00227
1765.04	0.00257
1774.69	0.00245
1784.33	0.00229
1793.98	0.00216
1803.62	0.0019144
1813.27	0.0017381
1822.91	0.0017732
1832.55	0.0016406
1842.2	0.0015065
1851.84	0.0016236
1861.49	0.0016691
1871.13	0.0015732
1880.78	0.0015194
1890.42	0.0016991
1900.07	0.0015126
1909.71	0.0013508
1919.36	0.0016505
1929	0.0018722
1938.65	0.0014483
1948.29	0.001587
1957.94	0.0014355
1967.58	0.0014692
1977.23	0.0015516
1986.87	0.0017127
1996.52	0.001303
2006.16	0.0015283
2015.81	0.0014068
2025.45	0.0013573
2035.1	0.001551
2044.74	0.0014024
2054.38	0.0016615
2064.03	0.0015958
2073.67	0.001257
2083.32	0.0014514
2092.96	0.001692
2102.61	0.0015471
2112.25	0.00156
2121.9	0.0015929
2131.54	0.001274
2141.19	0.0013952
2150.83	0.0012876
2160.48	0.0013559
2170.12	0.0013269
2179.77	0.0012114
2189.41	0.001058
2199.06	0.00118171
2208.7	0.0011971
2218.35	0.0014439
2227.99	0.0013946
2237.64	0.0015602
2247.28	0.0015997
2256.92	0.0015187
2266.57	0.0014897
2276.21	0.0014753
2285.86	0.000901
2295.5	0.000976
2305.15	0.00117149
2314.79	0.000982
2324.44	0.00110131
2334.08	0.00115253
2343.73	0.0014091
2353.37	0.0016031
2363.02	0.0016437
2372.66	0.0012324
2382.31	0.001319
2391.95	0.00113452
2401.6	0.0013126
2411.24	0.0012003
2420.89	0.0011033
2430.53	0.000962
2440.18	0.000728
2449.82	0.0009971
2459.47	0.000919
2469.11	0.000705
2478.75	0.000978
2488.4	0.00108227
2498.04	0.00109348
2507.69	0.000712
2517.33	0.0012662
2526.98	0.0014223
2536.62	0.0014552
2546.27	0.0010084
2555.91	0.00087
2565.56	0.0012153
2575.2	0.0011432
2584.85	0.0011941
2594.49	0.0010094
2604.14	0.0010133
2613.78	0.000946
2623.43	0.000786
2633.07	0.000719
2642.72	0.0012214
2652.36	0.0013163
2662.01	0.0013312
2671.65	0.0013319
2681.29	0.0018699
2690.94	0.0019472
2700.58	0.0015948
2710.23	0.0015931
2719.87	0.00112434
2729.52	0.0010019
2739.16	0.000987
2748.81	0.00113176
2758.45	0.000745
2768.1	0.000802
2777.74	0.000682
2787.39	0.00049
2797.03	0.00089
2806.68	0.000583
2816.32	0.000648
2825.97	0.000906
2835.61	0.0013051
2845.26	0.000578
2854.9	0.000749
2864.55	0.000533
2874.19	0.000148
2883.84	0.000457
2893.48	0.000329
2903.12	0.0009933
2912.77	0.000922
2922.41	0.000625
2932.06	0.000734
2941.7	0.000894
2951.35	0.000769
2960.99	0.000434
2970.64	0.000263
2980.28	0.0013244
2989.93	0.000563
2999.57	0.000644
3009.22	0.00042
3018.86	9e-05
3028.51	0.00064
3038.15	0.00089
3047.8	0.0010581
3057.44	0.0015657
3067.09	0.0015505
3076.73	0.0017417
3086.38	0.0014172
3096.02	0.000756
3105.67	0.0009983
3115.31	0.000645
3124.95	0.0011951
3134.6	0.0010127
3144.24	0.000667
3153.89	0.000768
3163.53	0.0012988
3173.18	0.000936
3182.82	0.0013803
3192.47	0.0011958
3202.11	0.00111562
3211.76	0.00111123
3221.4	0.0010304
3231.05	0.000919
3240.69	0.0012865
3250.34	0.0013035
3259.98	0.0010268
3269.63	0.0011986
3279.27	0.000883
3288.92	0.000913
3298.56	0.0010326
3308.21	0.000234
3317.85	0.0013677
3327.49	0.000174
3337.14	0.000401
3346.78	0.0009964
3356.43	0.00059
3366.07	0.0014672
3375.72	0.000836
3385.36	0.0013192
3395.01	0.0018217
3404.65	0.00264
3414.3	0.00581
3423.94	0.00789
3433.59	0.00839
3443.23	0.00697
3452.88	0.0066
3462.52	0.00409
3472.17	0.00246
3481.81	0.0014844
3491.46	0.0012279
3501.1	0.00332
3510.75	0.00446
3520.39	0.00399
3530.04	0.00306
3539.68	0.0034
3549.32	0.00369
3558.97	0.00327
3568.61	0.0014042
3578.26	0.0012074
3587.9	0.000891
3597.55	0.00113082
3607.19	0.000853
3616.84	0.000403
3626.48	0.001429
3636.13	0.0010181
3645.77	0.000981
3655.42	0.000906
3665.06	0.000702
3674.71	0.000604
3684.35	0.000389
3694	0.000216
3703.64	0.000612
3713.29	0.0014727
3722.93	0.000935
3732.58	0.000594
3742.22	0.0006
3751.86	0.0010285
3761.51	0.000721
3771.15	0.000778
3780.8	0.000997
3790.44	0.00115171
3800.09	0.001009
3809.73	0.000601
3819.38	0.0011123
3829.02	0.000721
3838.67	0.0010367
3848.31	0.00108781
3857.96	0.000704
3867.6	0.000702
3877.25	0.0010725
3886.89	0.0013371
3896.54	0.0012161
3906.18	0.0010085
3915.83	8e-05
3925.47	0.00118047
3935.12	0.00043
3944.76	0.000806
3954.41	0.000318
3964.05	0.000971
3973.69	0.000632
3983.34	0.000436
3992.98	0.0019062
