Infrared Spectrum: p-HYDROXYVALEROPHENONE
Formula: C11 H14 O2
CAS: 2589-71-1
State: SOLID (MINERAL OIL MULL)
Melting point: 61-62.5 C
Class: COBLENTZ
Instrument: Not specified, most likely a prism, grating, or hybrid spectrometer.
Sampling: TRANSMISSION
Resolution: 4
Origin: WYANDOTTE CHEMICALS CORP., WYANDOTTE, MICHIGAN, USA
MICROMETERS	TRANSMITTANCE
2.025	0.342
2.06209	0.351
2.09917	0.355
2.13626	0.359
2.17334	0.373
2.21043	0.361
2.24752	0.35
2.2846	0.353
2.32169	0.355
2.35877	0.367
2.39586	0.37
2.43294	0.384
2.47003	0.406
2.50712	0.406
2.5442	0.42
2.58129	0.435
2.61837	0.441
2.65546	0.468
2.69255	0.471
2.72963	0.482
2.76672	0.491
2.8038	0.499
2.84089	0.5
2.87797	0.482
2.91506	0.423
2.95215	0.334
2.98923	0.22
3.02632	0.105
3.0634	0.037
3.10049	0.027
3.13758	0.026
3.17466	0.034
3.21175	0.048
3.24883	0.075
3.28592	0.08
3.323	0.072
3.36009	0.02
3.39718	0.024
3.43426	0.024
3.47135	0.024
3.50843	0.026
3.54552	0.12
3.58261	0.21
3.61969	0.313
3.65678	0.305
3.69386	0.305
3.73095	0.316
3.76803	0.324
3.80512	0.364
3.84221	0.344
3.87929	0.339
3.91638	0.386
3.95346	0.403
3.99055	0.44
4.02764	0.463
4.06472	0.421
4.10181	0.417
4.13889	0.423
4.17598	0.448
4.21306	0.511
4.25015	0.517
4.28724	0.513
4.32432	0.541
4.36141	0.57
4.39849	0.609
4.43558	0.6
4.47267	0.612
4.50975	0.64
4.54684	0.651
4.58392	0.652
4.62101	0.658
4.65809	0.668
4.69518	0.688
4.73227	0.688
4.76935	0.675
4.80644	0.7
4.84352	0.716
4.88061	0.73
4.9177	0.727
4.95478	0.727
4.99187	0.737
5.02895	0.717
5.06604	0.73
5.10312	0.753
5.14021	0.776
5.1773	0.792
5.21438	0.756
5.25147	0.772
5.28855	0.782
5.32564	0.773
5.36273	0.817
5.39981	0.863
5.4369	0.857
5.47398	0.885
5.51107	0.888
5.54815	0.872
5.58524	0.863
5.62233	0.858
5.65941	0.886
5.6965	0.933
5.73358	0.931
5.77067	0.975
5.80776	0.931
5.84484	0.964
5.88193	0.925
5.91901	0.8
5.9561	0.565
5.99318	0.302
6.03027	0.082
6.06736	0.021
6.10444	0.077
6.14153	0.091
6.17861	0.029
6.2157	0.017
6.25279	0.015
6.28987	0.023
6.32696	0.051
6.36404	0.069
6.40113	0.136
6.43822	0.164
6.4753	0.234
6.51239	0.286
6.54947	0.274
6.58656	0.15
6.62364	0.277
6.66073	0.297
6.69782	0.26
6.7349	0.153
6.77199	0.04
6.80907	0.018
6.84616	0.02
6.88325	0.012
6.92033	0.017
6.95742	0.058
6.9945	0.164
7.03159	0.217
7.06867	0.099
7.10576	0.158
7.14285	0.206
7.17993	0.182
7.21702	0.035
7.2541	0.017
7.29119	0.017
7.32828	0.062
7.36536	0.058
7.40245	0.018
7.43953	0.032
7.47662	0.103
7.5137	0.235
7.55079	0.308
7.58788	0.337
7.62496	0.32
7.66205	0.21
7.69913	0.212
7.73622	0.071
7.77331	0.021
7.81039	0.018
7.84748	0.018
7.88456	0.041
7.92165	0.054
7.95873	0.096
7.99582	0.106
8.03291	0.052
8.06999	0.04
8.10708	0.058
8.14416	0.072
8.18125	0.044
8.21834	0.015
8.25542	0.018
8.29251	0.029
8.32959	0.066
8.36668	0.167
8.40376	0.291
8.44085	0.355
8.47794	0.294
8.51502	0.06
8.55211	0.017
8.58919	0.02
8.62628	0.038
8.66337	0.077
8.70045	0.106
8.73754	0.142
8.77462	0.182
8.81171	0.203
8.84879	0.224
8.88588	0.235
8.92297	0.133
8.96005	0.108
8.99714	0.175
9.03422	0.274
9.07131	0.328
9.1084	0.333
9.14548	0.359
9.18257	0.389
9.21965	0.41
9.25674	0.431
9.29382	0.449
9.33091	0.451
9.368	0.449
9.40508	0.437
9.44217	0.479
9.47925	0.516
9.51634	0.536
9.55343	0.551
9.59051	0.548
9.6276	0.503
9.66468	0.389
9.70177	0.26
9.73885	0.353
9.77594	0.462
9.81303	0.519
9.85011	0.548
9.8872	0.561
9.92428	0.582
9.96137	0.592
9.99846	0.613
10.0355	0.621
10.0726	0.601
10.1097	0.485
10.1468	0.187
10.1839	0.026
10.221	0.066
10.2581	0.168
10.2951	0.201
10.3322	0.248
10.3693	0.348
10.4064	0.415
10.4435	0.449
10.4806	0.466
10.5177	0.421
10.5547	0.432
10.5918	0.513
10.6289	0.545
10.666	0.565
10.7031	0.576
10.7402	0.586
10.7773	0.59
10.8143	0.586
10.8514	0.606
10.8885	0.621
10.9256	0.638
10.9627	0.657
10.9998	0.66
11.0369	0.567
11.0739	0.488
11.111	0.576
11.1481	0.627
11.1852	0.665
11.2223	0.679
11.2594	0.694
11.2965	0.697
11.3335	0.705
11.3706	0.71
11.4077	0.717
11.4448	0.713
11.4819	0.702
11.519	0.677
11.5561	0.663
11.5931	0.654
11.6302	0.624
11.6673	0.572
11.7044	0.472
11.7415	0.306
11.7786	0.114
11.8157	0.027
11.8527	0.017
11.8898	0.024
11.9269	0.069
11.964	0.161
12.0011	0.263
12.0382	0.308
12.0753	0.328
12.1123	0.364
12.1494	0.393
12.1865	0.348
12.2236	0.401
12.2607	0.477
12.2978	0.528
12.3349	0.559
12.3719	0.567
12.409	0.559
12.4461	0.534
12.4832	0.462
12.5203	0.296
12.5574	0.145
12.5945	0.213
12.6316	0.379
12.6686	0.475
12.7057	0.534
12.7428	0.556
12.7799	0.556
12.817	0.52
12.8541	0.488
12.8912	0.421
12.9282	0.351
12.9653	0.334
13.0024	0.415
13.0395	0.494
13.0766	0.547
13.1137	0.576
13.1508	0.587
13.1878	0.589
13.2249	0.578
13.262	0.555
13.2991	0.545
13.3362	0.528
13.3733	0.508
13.4104	0.488
13.4474	0.454
13.4845	0.417
13.5216	0.37
13.5587	0.314
13.5958	0.243
13.6329	0.145
13.67	0.083
13.707	0.08
13.7441	0.086
13.7812	0.082
13.8183	0.069
13.8554	0.051
13.8925	0.06
13.9296	0.066
13.9666	0.088
14.0037	0.097
14.0408	0.105
14.0779	0.105
14.115	0.113
14.1521	0.131
14.1892	0.15
14.2262	0.167
14.2633	0.189
14.3004	0.21
14.3375	0.24
14.3746	0.26
14.4117	0.282
14.4488	0.3
14.4858	0.317
14.5229	0.334
14.56	0.353
14.5971	0.368
14.6342	0.387
14.6713	0.4
14.7084	0.413
14.7454	0.42
14.7825	0.426
14.8196	0.437
14.8567	0.448
14.8938	0.451
14.9309	0.458
14.968	0.457
15.005	0.451
15.0421	0.437
15.0792	0.42
15.1163	0.42
15.1534	0.434
15.1905	0.463
15.2276	0.479
15.2646	0.499
15.3017	0.503
15.3388	0.5
15.3759	0.505
15.413	0.502
15.4501	0.511
15.4872	0.508
15.5242	0.511
15.5613	0.517
15.5984	0.519
15.6355	0.51
15.6726	0.497
15.7097	0.479
15.7468	0.434
15.7838	0.413
15.8209	0.406
15.858	0.407
15.8951	0.429
15.9322	0.435
15.9693	0.448
