Infrared Spectrum: 4-Hydroxyoctanophenone
Formula: C 14 H 20 O 2
CAS: 2589-73-3
State: gas
Origin: EPA-IR VAPOR PHASE LIBRARY
1/CM	ABSORBANCE
549.8	0.009101
559.445	0.013201
569.09	0.014281
578.734	0.015061
588.379	0.012331
598.024	0.010761
607.669	0.010751
617.313	0.007081
626.958	0.005271
636.603	0.005991
646.248	0.005531
655.893	0.004371
665.537	0.003751
675.182	0.002991
684.827	0.002631
694.472	0.003781
704.116	0.004301
713.761	0.004301
723.406	0.003971
733.051	0.005591
742.695	0.004401
752.34	0.005271
761.985	0.006151
771.63	0.006501
781.275	0.007581
790.919	0.010401
800.564	0.014711
810.209	0.016861
819.854	0.019921
829.498	0.031061
839.143	0.031901
848.788	0.017211
858.433	0.009651
868.078	0.006371
877.722	0.005521
887.367	0.004591
897.012	0.004631
906.657	0.004381
916.301	0.004511
925.946	0.005311
935.591	0.006101
945.236	0.007561
954.88	0.009701
964.525	0.013361
974.17	0.017321
983.815	0.019491
993.46	0.017041
1003.1	0.013521
1012.75	0.010681
1022.39	0.008861
1032.04	0.008861
1041.68	0.008381
1051.33	0.007411
1060.97	0.006461
1070.62	0.006321
1080.26	0.007171
1089.91	0.009801
1099.55	0.016601
1109.2	0.016491
1118.84	0.014671
1128.49	0.017651
1138.13	0.023771
1147.78	0.043311
1157.42	0.096171
1167.07	0.177901
1176.71	0.113971
1186.36	0.114461
1196	0.053421
1205.64	0.036971
1215.29	0.044091
1224.93	0.052731
1234.58	0.049521
1244.22	0.048351
1253.87	0.074491
1263.51	0.104541
1273.16	0.052601
1282.8	0.030501
1292.45	0.026261
1302.09	0.026341
1311.74	0.030571
1321.38	0.038661
1331.03	0.034521
1340.67	0.027791
1350.32	0.029391
1359.96	0.025741
1369.61	0.017831
1379.25	0.012041
1388.9	0.009551
1398.54	0.008891
1408.18	0.012921
1417.83	0.021461
1427.47	0.027921
1437.12	0.021881
1446.76	0.019481
1456.41	0.020171
1466.05	0.018111
1475.7	0.012771
1485.34	0.009681
1494.99	0.013681
1504.63	0.029511
1514.28	0.026631
1523.92	0.009641
1533.57	0.006721
1543.21	0.006251
1552.86	0.007361
1562.5	0.010391
1572.15	0.018521
1581.79	0.043031
1591.44	0.076201
1601.08	0.101681
1610.73	0.088691
1620.37	0.032361
1630.01	0.013691
1639.66	0.009301
1649.3	0.009411
1658.95	0.010291
1668.59	0.014171
1678.24	0.030131
1687.88	0.080191
1697.53	0.107621
1707.17	0.052581
1716.82	0.016361
1726.46	0.007921
1736.11	0.005461
1745.75	0.004071
1755.4	0.003651
1765.04	0.003581
1774.69	0.002841
1784.33	0.002231
1793.98	0.001921
1803.62	0.001791
1813.27	0.001731
1822.91	0.001721
1832.55	0.001691
1842.2	0.001571
1851.84	0.001821
1861.49	0.001911
1871.13	0.002111
1880.78	0.002191
1890.42	0.002381
1900.07	0.002491
1909.71	0.002131
1919.36	0.001721
1929	0.002081
1938.65	0.001731
1948.29	0.001491
1957.94	0.0013903
1967.58	0.001461
1977.23	0.0014238
1986.87	0.001591
1996.52	0.001891
2006.16	0.001791
2015.81	0.0014275
2025.45	0.001751
2035.1	0.001501
2044.74	0.0010641
2054.38	0.0012343
2064.03	0.001551
2073.67	0.0014089
2083.32	0.001881
2092.96	0.001701
2102.61	0.001521
2112.25	0.0011573
2121.9	0.0009428
2131.54	0.0009476
2141.19	0.0010061
2150.83	0.0010707
2160.48	0.0008705
2170.12	0.0008712
2179.77	0.0008438
2189.41	0.0011563
2199.06	0.0010838
2208.7	0.000842
2218.35	0.0010498
2227.99	0.0010416
2237.64	0.0011667
2247.28	0.0011355
2256.92	0.0008265
2266.57	0.0012652
2276.21	0.0013167
2285.86	0.0012883
2295.5	0.0011366
2305.15	0.0013921
2314.79	0.0013992
2324.44	0.001471
2334.08	0.001501
2343.73	0.001491
2353.37	0.001511
2363.02	0.001541
2372.66	0.001691
2382.31	0.0013938
2391.95	0.001541
2401.6	0.001821
2411.24	0.002211
2420.89	0.002531
2430.53	0.002981
2440.18	0.002991
2449.82	0.002511
2459.47	0.001781
2469.11	0.001691
2478.75	0.001511
2488.4	0.0013041
2498.04	0.001491
2507.69	0.001551
2517.33	0.001641
2526.98	0.001681
2536.62	0.001441
2546.27	0.001491
2555.91	0.001376
2565.56	0.001691
2575.2	0.001821
2584.85	0.001841
2594.49	0.001761
2604.14	0.001921
2613.78	0.001721
2623.43	0.001681
2633.07	0.001991
2642.72	0.002191
2652.36	0.002261
2662.01	0.002191
2671.65	0.002121
2681.29	0.002571
2690.94	0.002601
2700.58	0.001951
2710.23	0.002121
2719.87	0.002061
2729.52	0.002111
2739.16	0.002881
2748.81	0.002901
2758.45	0.002711
2768.1	0.003401
2777.74	0.003621
2787.39	0.004191
2797.03	0.004321
2806.68	0.005451
2816.32	0.006561
2825.97	0.008311
2835.61	0.011061
2845.26	0.016741
2854.9	0.032561
2864.55	0.049061
2874.19	0.045931
2883.84	0.041031
2893.48	0.038211
2903.12	0.045851
2912.77	0.062191
2922.41	0.091411
2932.06	0.123361
2941.7	0.110711
2951.35	0.081121
2960.99	0.076351
2970.64	0.069681
2980.28	0.035041
2989.93	0.019141
2999.57	0.013371
3009.22	0.011211
3018.86	0.010391
3028.51	0.011801
3038.15	0.014401
3047.8	0.009201
3057.44	0.007581
3067.09	0.009451
3076.73	0.009081
3086.38	0.005631
3096.02	0.004851
3105.67	0.004841
3115.31	0.003021
3124.95	0.002231
3134.6	0.002191
3144.24	0.002031
3153.89	0.002061
3163.53	0.001891
3173.18	0.001681
3182.82	0.0012035
3192.47	0.0012281
3202.11	0.001801
3211.76	0.0006966
3221.4	0.00044631
3231.05	0.0011291
3240.69	0.0007474
3250.34	0.0011902
3259.98	0.001001
3269.63	0.0009882
3279.27	0.0005412
3288.92	0.0005573
3298.56	0.0009873
3308.21	0.0008713
3317.85	0.0013848
3327.49	0.0014088
3337.14	0.001114
3346.78	0.001721
3356.43	0.002181
3366.07	0.002481
3375.72	0.002821
3385.36	0.001871
3395.01	0.0011967
3404.65	0.0013785
3414.3	0.0007628
3423.94	0.0011807
3433.59	0.0006887
3443.23	0.0009288
3452.88	0.0008344
3462.52	0.0012132
3472.17	0.0011096
3481.81	0.0008581
3491.46	0.0006208
3501.1	0.0009331
3510.75	0.00021
3520.39	0.000899
3530.04	0.0005353
3539.68	0.0010031
3549.32	0.0007757
3558.97	0.000205
3568.61	0.0007302
3578.26	0.0004097
3587.9	0.001481
3597.55	0.001621
3607.19	0.002001
3616.84	0.003471
3626.48	0.007871
3636.13	0.027971
3645.77	0.078731
3655.42	0.031971
3665.06	0.005821
3674.71	0.002871
3684.35	0.0013485
3694	0.001661
3703.64	0.0009858
3713.29	0.0009296
3722.93	0.0006448
3732.58	0.0013104
3742.22	0.00046133
3751.86	0.0006213
3761.51	0.000954
3771.15	0.00052449
3780.8	0.0009118
3790.44	0.000815
3800.09	0.00121
3809.73	0.0007402
3819.38	0.0008148
3829.02	0.000224
3838.67	0.0006176
3848.31	0.0013712
3857.96	0.0009473
3867.6	0.001187
3877.25	0.001511
3886.89	0.0013507
3896.54	0.0012038
3906.18	0.000765
3915.83	0.00052291
3925.47	0.001451
3935.12	0.001521
3944.76	0.001201
3954.41	0.0013238
3964.05	0.0012404
3973.69	0.0005508
3983.34	0.0013356
3992.98	0.0008457
