Infrared Spectrum: Biphenylene
Formula: C 12 H 8
CAS: 259-79-0
State: gas
Instrument: HP-GC/MS/IRD
Origin: NIST Mass Spectrometry Data Center
1/CM	ABSORBANCE
550	8.84e-05
562	3.9e-05
574	0
586	3.38e-05
598	0.000143
610	0.0006708
622	0.0004316
634	7.8e-05
646	0.0003302
658	9.1e-05
670	7.02e-05
682	0.0001846
694	0.0007124
706	0.0027794
718	0.0121394
730	0.026
742	0.0121602
754	0.003055
766	0.0007124
778	0.000221
790	8.06e-05
802	0.0001664
814	0.0003042
826	0.0003536
838	0.0006656
850	0.0002678
862	0.0001378
874	0.000169
886	0.000221
898	0.0006188
910	0.00143
922	0.0007982
934	0.0003588
946	0.0024622
958	0.0062972
970	0.0015418
982	0.0002106
994	0.0001404
1006	0.00026
1018	0.0001976
1030	0.0002964
1042	0.0003198
1054	0.0001716
1066	0.0001404
1078	0.0001508
1090	0.0003224
1102	0.0006474
1114	0.0010296
1126	0.0015704
1138	0.0033826
1150	0.0043238
1162	0.0003718
1174	1.04e-05
1186	5.2e-06
1198	4.68e-05
1210	7.8e-06
1222	8.84e-05
1234	0.0005226
1246	0.0024882
1258	0.0034762
1270	0.0008944
1282	0.00039
1294	0.000117
1306	0.0001014
1318	0.0005122
1330	0.0005304
1342	6.5e-05
1354	3.64e-05
1366	6.24e-05
1378	8.06e-05
1390	0.0001924
1402	0.001261
1414	0.0037232
1426	0.0059982
1438	0.0026286
1450	0.001365
1462	0.0007514
1474	0.0005746
1486	0.0001222
1498	7.02e-05
1510	3.12e-05
1522	1.04e-05
1534	3.12e-05
1546	2.86e-05
1558	8.06e-05
1570	0.0001846
1582	0.0004654
1594	0.000507
1606	0.0004966
1618	0.000455
1630	0.0002704
1642	0.0003562
1654	0.0003926
1666	0.0001612
1678	0.000117
1690	0.0001794
1702	0.0001742
1714	0.0001196
1726	0.0002444
1738	0.000403
1750	0.0002392
1762	0.0004628
1774	0.0006474
1786	0.0005824
1798	0.0003692
1810	0.0002938
1822	0.000793
1834	0.00065
1846	0.0002028
1858	0.000351
1870	0.000715
1882	0.000572
1894	0.000234
1906	0.0003302
1918	0.0009308
1930	0.000676
1942	0.0001404
1954	7.28e-05
1966	5.72e-05
1978	3.64e-05
1990	2.86e-05
2002	4.68e-05
2014	2.6e-05
2026	2.6e-05
2038	5.98e-05
2050	6.76e-05
2062	7.8e-05
2074	7.54e-05
2086	5.98e-05
2098	7.28e-05
2110	0.0001066
2122	0.0001378
2134	0.0001274
2146	9.1e-05
2158	7.02e-05
2170	5.2e-05
2182	7.28e-05
2194	4.94e-05
2206	4.16e-05
2218	8.32e-05
2230	6.76e-05
2242	8.32e-05
2254	8.32e-05
2266	8.06e-05
2278	5.72e-05
2290	7.02e-05
2302	0.0001222
2314	0.0001872
2326	9.88e-05
2338	5.2e-05
2350	8.58e-05
2362	7.8e-05
2374	6.5e-05
2386	3.9e-05
2398	9.1e-05
2410	0.000156
2422	0.0001716
2434	0.000104
2446	6.76e-05
2458	6.5e-05
2470	7.8e-05
2482	4.94e-05
2494	8.32e-05
2506	0.0001248
2518	0.000104
2530	0.0001378
2542	0.000117
2554	0.0001378
2566	0.0001768
2578	0.0001924
2590	0.000143
2602	0.0001196
2614	8.84e-05
2626	4.94e-05
2638	0.000117
2650	8.06e-05
2662	8.06e-05
2674	6.76e-05
2686	0.0001118
2698	0.0001378
2710	0.0001508
2722	0.00013
2734	9.88e-05
2746	4.68e-05
2758	3.12e-05
2770	8.32e-05
2782	7.28e-05
2794	5.72e-05
2806	6.76e-05
2818	7.02e-05
2830	6.24e-05
2842	8.06e-05
2854	0.000156
2866	0.000195
2878	0.0002782
2890	0.0002158
2902	0.0001456
2914	0.0001248
2926	0.0001248
2938	9.88e-05
2950	0.0001716
2962	0.0002938
2974	0.0004186
2986	0.0004706
2998	0.0006682
3010	0.0013858
3022	0.0023868
3034	0.0023764
3046	0.0021112
3058	0.0053378
3070	0.0129428
3082	0.0102544
3094	0.0025272
3106	0.0006942
3118	0.0003354
3130	0.0002132
3142	0.0001664
3154	0.0001742
3166	0.000221
3178	0.0002106
3190	0.00013
3202	9.1e-05
3214	0.0001248
3226	0.0001274
3238	0.0001144
3250	0.0001196
3262	6.76e-05
3274	7.28e-05
3286	0.0001196
3298	8.32e-05
3310	8.58e-05
3322	5.46e-05
3334	0
3346	6.76e-05
3358	0.0001144
3370	6.5e-05
3382	6.5e-05
3394	4.68e-05
3406	7.28e-05
3418	5.72e-05
3430	5.2e-05
3442	6.76e-05
3454	6.24e-05
3466	5.46e-05
3478	9.62e-05
3490	0.0001638
3502	0.0001326
3514	1.04e-05
3526	7.02e-05
3538	7.02e-05
3550	9.1e-05
3562	0.0001092
3574	6.5e-05
3586	0.0001066
3598	0.000117
3610	0.0001118
3622	8.06e-05
3634	9.36e-05
3646	0.0001092
3658	8.84e-05
3670	0.0002236
3682	0.0001534
3694	0.0001222
3706	5.98e-05
3718	4.94e-05
3730	9.1e-05
3742	8.06e-05
3754	0.00013
3766	0.0001274
3778	0.0001222
3790	0.0001716
3802	9.62e-05
3814	4.16e-05
3826	0.0001352
3838	9.88e-05
