Infrared Spectrum: o-BUTYL, o-(2,4,5-TRICHLOROPHENYL)PHOSPHOR AMIDOTHIOATE
Formula: C10 H13 Cl3 N O2 P S
CAS: 2591-68-6
State: SOLUTION (10% CCl4 FOR 3800-1330, 10% CS2 FOR 1330-450 CM^-^1)
Class: COBLENTZ
Instrument: Not specified, most likely a prism, grating, or hybrid spectrometer.
Sampling: TRANSMISSION
Path length: 0.0119 CM, 0.0115 CM
Resolution: 4
Origin: DOW CHEMICAL COMPANY
1/CM	TRANSMITTANCE
453.232	0.755
462.358	0.764
471.483	0.771
480.609	0.791
489.734	0.819
498.86	0.858
507.985	0.874
517.111	0.876
526.236	0.865
535.362	0.824
544.487	0.83
553.613	0.8301
562.738	0.738
571.864	0.81
580.989	0.909
590.115	0.923
599.24	0.93
608.366	0.911
617.491	0.833
626.617	0.699
635.742	0.6879
644.868	0.5589
653.993	0.738
663.119	0.789
672.244	0.753
681.37	0.2511
690.495	0.4142
699.621	0.7959
708.746	0.725
717.872	0.329
726.997	0.5321
736.123	0.5291
745.248	0.704
754.374	0.8
763.499	0.858
772.625	0.847
781.75	0.7751
790.876	0.642
800.001	0.495
809.127	0.591
818.252	0.515
827.378	0.1763
836.503	0.061
845.629	0.109
854.754	0.226
863.88	0.35
873.005	0.4421
882.131	0.099
891.256	0.3869
900.382	0.454
909.507	0.527
918.633	0.4691
927.758	0.2991
936.884	0.176
946.009	0.079
955.135	0.012
964.26	0.0859
973.386	0.0951
982.511	0.099
991.637	0.138
1000.76	0.203
1009.89	0.237
1019.01	0.1731
1028.14	0.053
1037.26	0.113
1046.39	0.212
1055.52	0.407
1064.64	0.3059
1073.77	0.483
1082.89	0.03
1092.02	0.4493
1101.14	0.808
1110.27	0.826
1119.39	0.656
1128.52	0.24
1137.64	0.67
1146.77	0.791
1155.9	0.872
1165.02	0.922
1174.15	0.969
1183.27	0.978
1192.4	1
1201.52	1.001
1210.65	0.987
1219.77	0.923
1228.9	0.736
1238.03	0.543
1247.15	0.238
1256.28	0.382
1265.4	0.706
1274.53	0.861
1283.65	0.941
1292.78	0.946
1301.9	0.93
1311.03	0.938
1320.15	0.959
1329.28	0.936
1338.41	0.863
1347.53	0.3891
1356.66	0.3661
1365.78	0.897
1374.91	0.916
1384.03	0.803
1393.16	0.884
1402.28	0.93
1411.41	0.938
1420.54	0.92
1429.66	0.886
1438.79	0.808
1447.91	0.5959
1457.04	0.007
1466.16	0.061
1475.29	0.375
1484.41	0.438
1493.54	0.568
1502.67	0.676
1511.79	0.667
1520.92	0.594
1530.04	0.415
1539.17	0.152
1548.29	0.2511
1557.42	0.327
1566.54	0.529
1575.67	0.571
1584.79	0.507
1593.92	0.7341
1603.05	0.861
1612.17	0.941
1621.3	0.982
1630.42	0.998
1639.55	1.015
1648.67	1.028
1657.8	1.015
1666.92	1.003
1676.05	1
1685.18	1.01
1694.3	1.014
1703.43	1.014
1712.55	1.012
1721.68	1.005
1730.8	0.987
1739.93	0.975
1749.05	1
1758.18	1.015
1767.3	1.012
1776.43	1.01
1785.56	1.01
1794.68	1.005
1803.81	0.996
1812.93	1.001
1822.06	1
1831.18	1.007
1840.31	1.007
1849.43	1.008
1858.56	1.007
1867.69	1.012
1876.81	1.014
1885.94	1.015
1895.06	1.021
1904.19	1.021
1913.31	1.021
1922.44	1.021
1931.56	1.023
1940.69	1.019
1949.81	1.021
1958.94	1.017
1968.07	1.017
1977.19	1.019
1986.32	1.019
1995.44	1.017
2004.57	1.014
2013.69	1.01
2022.82	1.007
2031.94	1.008
2041.07	1.01
2050.2	1.015
2059.32	1.014
2068.45	1.014
2077.57	1.017
2086.7	1.014
2095.82	1.014
2104.95	1.019
2114.07	1.0189
2123.2	1.0152
2132.32	1.017
2141.45	1.019
2150.58	1.017
2159.7	1.017
2168.83	1.015
2177.95	1.01
2187.08	1.0102
2196.2	1.0185
2205.33	1.014
2214.45	1.0143
2223.58	1.0172
2232.71	1.0172
2241.83	1.0172
2250.96	1.0102
2260.08	1.012
2269.21	1.003
2278.33	1.0007
2287.46	0.9938
2296.58	0.9867
2305.71	0.987
2314.84	0.992
2323.96	0.9963
2333.09	1
2342.21	1.001
2351.34	1.003
2360.46	1.005
2369.59	1.007
2378.71	1.008
2387.84	1.009
2396.96	1.014
2406.09	1.0117
2415.22	1.008
2424.34	1.01
2433.47	1.012
2442.59	1.012
2451.72	1.015
2460.84	1.0078
2469.97	1.0046
2479.09	0.9976
2488.22	0.998
2497.35	0.996
2506.47	0.996
2515.6	0.998
2524.72	1
2533.85	1.0002
2542.97	1.0054
2552.1	1.007
2561.22	1.0089
2570.35	1.0115
2579.47	1.007
2588.6	1.007
2597.73	1.0055
2606.85	1.012
2615.98	1.015
2625.1	1.015
2634.23	1.015
2643.35	1.017
2652.48	1.0147
2661.6	1.008
2670.73	1.007
2679.86	1.0039
2688.98	0.9966
2698.11	1.0009
2707.23	1.007
2716.36	1.003
2725.48	1.0007
2734.61	0.996
2743.73	0.9946
2752.86	1
2761.98	1.001
2771.11	0.9986
2780.24	0.9973
2789.36	0.9904
2798.49	0.98
2807.61	0.9687
2816.74	0.9653
2825.86	0.9543
2834.99	0.9302
2844.11	0.8817
2853.24	0.8745
2862.37	0.7529
2871.49	0.6015
2880.62	0.6925
2889.74	0.7223
2898.87	0.692
2907.99	0.6878
2917.12	0.6759
2926.24	0.5906
2935.37	0.4533
2944.49	0.5107
2953.62	0.386
2962.75	0.2239
2971.87	0.3152
2981	0.6721
2990.12	0.8564
2999.25	0.9119
3008.37	0.93
3017.5	0.9328
3026.62	0.952
3035.75	0.9526
3044.88	0.9479
3054	0.9334
3063.13	0.9226
3072.25	0.923
3081.38	0.9237
3090.5	0.8621
3099.63	0.889
3108.75	0.9395
3117.88	0.9604
3127.01	0.966
3136.13	0.969
3145.26	0.969
3154.38	0.966
3163.51	0.96
3172.63	0.954
3181.76	0.9465
3190.88	0.935
3200.01	0.9275
3209.13	0.9155
3218.26	0.897
3227.39	0.8805
3236.51	0.8614
3245.64	0.8489
3254.76	0.828
3263.89	0.8039
3273.01	0.7834
3282.14	0.7643
3291.26	0.7419
3300.39	0.7349
3309.52	0.7351
3318.64	0.7401
3327.77	0.7439
3336.89	0.741
3346.02	0.7349
3355.14	0.7233
3364.27	0.6829
3373.39	0.5735
3382.52	0.4386
3391.64	0.4316
3400.77	0.6789
3409.9	0.8162
3419.02	0.8108
3428.15	0.7845
3437.27	0.7403
3446.4	0.7088
3455.52	0.6824
3464.65	0.6372
3473.77	0.5675
3482.9	0.4908
3492.03	0.5132
3501.15	0.7194
3510.28	0.8924
3519.4	0.9365
3528.53	0.9556
3537.65	0.9673
3546.78	0.9743
3555.9	0.9813
3565.03	0.984
3574.15	0.987
3583.28	0.989
3592.41	0.989
3601.53	0.989
3610.66	0.991
3619.78	0.989
3628.91	0.9876
3638.03	0.9856
3647.16	0.985
3656.28	0.984
3665.41	0.98
3674.54	0.98
3683.66	0.982
3692.79	0.984
3701.91	0.987
3711.04	0.9904
3720.16	0.992
3729.29	0.996
3738.41	0.998
3747.54	0.9946
3756.66	0.9895
3765.79	0.9905
3774.92	0.994
