Infrared Spectrum: Phthalic acid, di(4-methylpentyl) ester
Formula: C20 H30 O4
CAS: 259139-51-0
State: SOLUTION (10% CCl4 FOR 2.7-7.5, 10% CS2 FOR 7.5-26 MICRON) VS SOLVENT
Class: COBLENTZ
Instrument: DOW KBr FOREPRISM-GRATING
Instrument parameters: BLAZED AT 3.5, 12.0, 20.0 MICRON AND CHANGED AT 5.0, 7.5, 14.9 MICRON
Sampling: TRANSMISSION
Path length: 0.011 CM, 0.011 CM
Resolution: 2
Origin: DOW CHEMICAL COMPANY
1/CM	TRANSMITTANCE
3798	0.8352
3789	0.8365
3780	0.838
3771	0.839
3762	0.8395
3753	0.8395
3744	0.839
3735	0.8383
3726	0.8377
3717	0.8378
3708	0.8403
3699	0.8432
3690	0.8439
3681	0.8438
3672	0.8432
3663	0.8425
3654	0.8436
3645	0.8447
3636	0.8461
3627	0.8477
3618	0.8493
3609	0.8509
3600	0.8525
3591	0.8542
3582	0.8558
3573	0.8575
3564	0.8594
3555	0.8612
3546	0.8631
3537	0.8647
3528	0.8658
3519	0.8668
3510	0.8678
3501	0.8684
3492	0.8689
3483	0.8692
3474	0.8684
3465	0.8673
3456	0.8625
3447	0.855
3438	0.8499
3429	0.8467
3420	0.8471
3411	0.8518
3402	0.8586
3393	0.865
3384	0.8703
3375	0.8744
3366	0.8775
3357	0.8797
3348	0.8806
3339	0.8813
3330	0.8818
3321	0.8824
3312	0.883
3303	0.8835
3294	0.8842
3285	0.8848
3276	0.8854
3267	0.886
3258	0.8867
3249	0.8867
3240	0.8866
3231	0.8865
3222	0.8846
3213	0.8821
3204	0.8798
3195	0.8773
3186	0.8746
3177	0.8718
3168	0.8694
3159	0.867
3150	0.8659
3141	0.8659
3132	0.8671
3123	0.8683
3114	0.867
3105	0.8631
3096	0.8581
3087	0.8485
3078	0.8086
3069	0.7743
3060	0.7762
3051	0.7926
3042	0.8069
3033	0.8068
3024	0.8
3015	0.7881
3006	0.7508
2997	0.6554
2988	0.4607
2979	0.2574
2970	0.091
2961	0.0342
2952	0.0577
2943	0.1521
2934	0.1115
2925	0.1189
2916	0.1782
2907	0.223
2898	0.2654
2889	0.3337
2880	0.2871
2871	0.2484
2862	0.3271
2853	0.3716
2844	0.5588
2835	0.6781
2826	0.7278
2817	0.7572
2808	0.7803
2799	0.7971
2790	0.8103
2781	0.8197
2772	0.8249
2763	0.827
2754	0.8278
2745	0.8263
2736	0.8231
2727	0.8207
2718	0.8228
2709	0.8283
2700	0.8334
2691	0.8357
2682	0.8382
2673	0.8405
2664	0.8418
2655	0.8427
2646	0.8434
2637	0.8436
2628	0.8439
2619	0.8434
2610	0.8425
2601	0.8418
2592	0.8418
2583	0.8418
2574	0.8421
2565	0.8432
2556	0.8442
2547	0.8453
2538	0.8464
2529	0.8482
2520	0.8501
2511	0.8518
2502	0.853
2493	0.854
2484	0.8548
2475	0.8554
2466	0.8555
2457	0.8548
2448	0.8541
2439	0.8528
2430	0.8514
2421	0.8499
2412	0.8485
2403	0.847
2394	0.8458
2385	0.8449
2376	0.844
2367	0.8432
2358	0.8425
2349	0.8425
2340	0.8428
2331	0.843
2322	0.8437
2313	0.8447
2304	0.8456
2295	0.8465
2286	0.8468
2277	0.847
2268	0.8477
2259	0.8484
2250	0.8491
2241	0.8501
2232	0.851
2223	0.8515
2214	0.8521
2205	0.8531
2196	0.8544
2187	0.858
2178	0.8677
2169	0.866
2160	0.8617
2151	0.8602
2142	0.8586
2133	0.857
2124	0.8558
2115	0.8548
2106	0.8539
2097	0.8537
2088	0.8535
2079	0.8533
2070	0.8533
2061	0.8533
2052	0.8536
2043	0.854
2034	0.8545
2025	0.8548
2016	0.8553
2007	0.8555
1998	0.8556
1989	0.854
1980	0.855
1971	0.85
1962	0.8461
1953	0.8499
1944	0.8431
1935	0.833
1926	0.8446
1917	0.8481
1908	0.8494
1899	0.8499
1890	0.8501
1881	0.8489
1872	0.844
1863	0.84
1854	0.8407
1845	0.8404
1836	0.8224
1827	0.8199
1818	0.8203
1809	0.8192
1800	0.8158
1791	0.8061
1782	0.7856
1773	0.7501
1764	0.6901
1755	0.586
1746	0.287
1737	0.0138
1728	0.001
1719	0
1710	0.2737
1701	0.5316
1692	0.604
1683	0.6669
1674	0.7361
1665	0.7728
1656	0.7917
1647	0.8048
1638	0.8101
1629	0.8118
1620	0.8132
1611	0.8056
1602	0.5999
1593	0.7526
1584	0.6546
1575	0.7042
1566	0.7925
1557	0.8095
1548	0.8139
1539	0.8134
1530	0.8108
1521	0.8065
1512	0.7935
1503	0.7737
1494	0.7045
1485	0.643
1476	0.5206
1467	0.266
1458	0.3489
1449	0.4322
1440	0.6645
1431	0.7245
1422	0.7611
1413	0.7587
1404	0.7254
1395	0.5367
1386	0.3945
1377	0.5199
1368	0.557
1359	0.6307
1350	0.6431
1341	0.6226
1332	0.6178
1323	0.4642
1314	0.3418
1305	0.1972
1296	0.0649
1287	0.0009
1278	0
1269	0
1260	0.0059
1251	0.0755
1242	0.2048
1233	0.4958
1224	0.5962
1215	0.6751
1206	0.735
1197	0.7598
1188	0.7744
1179	0.7801
1170	0.7061
1161	0.5314
1152	0.4812
1143	0.2807
1134	0.074
1125	0.04
1116	0.0439
1107	0.3892
1098	0.6507
1089	0.6691
1080	0.2955
1071	0.0586
1062	0.3172
1053	0.6016
1044	0.6239
1035	0.419
1026	0.7311
1017	0.7685
1008	0.7635
999	0.7544
990	0.6731
981	0.6269
972	0.5109
963	0.5246
954	0.5693
945	0.6578
936	0.7564
927	0.7791
918	0.7901
909	0.8086
900	0.8233
891	0.8115
882	0.8189
873	0.825
864	0.8345
855	0.8514
846	0.86
837	0.8438
828	0.8436
819	0.8411
810	0.8381
801	0.7982
792	0.709
783	0.6781
774	0.6717
765	0.6633
756	0.566
747	0.3414
738	0.1956
729	0.6239
720	0.7368
711	0.7467
702	0.4851
693	0.6962
684	0.8662
675	0.8956
666	0.9099
657	0.9107
648	0.7672
639	0.8583
630	0.9075
621	0.914
612	0.9112
603	0.9006
594	0.8927
585	0.8823
576	0.8284
567	0.8183
558	0.8308
549	0.8468
540	0.8528
531	0.8538
522	0.8533
513	0.8511
504	0.8453
495	0.8433
486	0.8432
477	0.855
468	0.8648
459	0.8644
450	0.8637
441	0.8628
432	0.8618
423	0.8602
414	0.8584
405	0.8558
396	0.853
