Infrared Spectrum: o-METHYL-O-(2,4,5-TRICHLOROPHENYL) METHYLPHOSPHOROAMIDOTHIOATE
Formula: C8 H9 Cl3 N O2 P S
CAS: 2591-70-0
State: SOLUTION (10% CCl4 FOR 3800-1333, 10% CS2 FOR 1333-440 CM^-^1)
Class: COBLENTZ
Instrument: Not specified, most likely a prism, grating, or hybrid spectrometer.
Sampling: TRANSMISSION
Path length: 0.0122 CM, 0.0122 CM
Resolution: 4
Origin: DOW CHEMICAL COMPANY
1/CM	TRANSMITTANCE
457.352	0.746
465.882	0.751
474.411	0.75
482.941	0.769
491.471	0.8299
500	0.858
508.53	0.862
517.06	0.8411
525.59	0.803
534.119	0.774
542.649	0.82
551.179	0.7631
559.708	0.776
568.238	0.872
576.768	0.902
585.297	0.9
593.827	0.9
602.357	0.887
610.886	0.8121
619.416	0.772
627.946	0.765
636.475	0.7111
645.005	0.591
653.535	0.727
662.065	0.79
670.594	0.7341
679.124	0.187
687.654	0.3578
696.183	0.7569
704.713	0.709
713.243	0.3199
721.772	0.221
730.302	0.6749
738.832	0.818
747.361	0.851
755.891	0.845
764.421	0.833
772.95	0.822
781.48	0.784
790.01	0.709
798.54	0.496
807.069	0.1101
815.599	0.038
824.129	0.011
832.658	0.02
841.188	0.028
849.718	0.047
858.247	0.038
866.777	0.04
875.307	0.062
883.836	0.0491
892.366	0.6238
900.896	0.795
909.425	0.858
917.955	0.87
926.485	0.853
935.015	0.801
943.544	0.6042
952.074	0.0611
960.604	0.032
969.133	0.2993
977.663	0.7419
986.193	0.832
994.722	0.828
1003.25	0.814
1011.78	0.763
1020.31	0.635
1028.84	0.3873
1037.37	0.0511
1045.9	0.011
1054.43	0.038
1062.96	0.3159
1071.49	0.425
1080.02	0.0869
1088.55	0.1137
1097.08	0.045
1105.61	0.141
1114.14	0.206
1122.67	0.145
1131.2	0.297
1139.73	0.6311
1148.26	0.734
1156.79	0.78
1165.32	0.778
1173.85	0.715
1182.38	0.515
1190.91	0.687
1199.43	0.818
1207.96	0.849
1216.49	0.833
1225.02	0.7269
1233.55	0.582
1242.08	0.37
1250.61	0.124
1259.14	0.2838
1267.67	0.646
1276.2	0.797
1284.73	0.874
1293.26	0.893
1301.79	0.889
1310.32	0.877
1318.85	0.875
1327.38	0.864
1335.91	0.7779
1344.44	0.4582
1352.97	0.051
1361.5	0.622
1370.03	0.5261
1378.56	0.368
1387.09	0.45
1395.62	0.618
1404.15	0.729
1412.68	0.778
1421.21	0.784
1429.74	0.751
1438.27	0.654
1446.8	0.3679
1455.33	0.0321
1463.86	0.015
1472.38	0.29
1480.91	0.351
1489.44	0.404
1497.97	0.515
1506.5	0.637
1515.03	0.643
1523.56	0.627
1532.09	0.564
1540.62	0.4801
1549.15	0.427
1557.68	0.444
1566.21	0.562
1574.74	0.553
1583.27	0.446
1591.8	0.7151
1600.33	0.816
1608.86	0.893
1617.39	0.942
1625.92	0.961
1634.45	0.979
1642.98	0.984
1651.51	0.98
1660.04	0.969
1668.57	0.958
1677.1	0.95
1685.63	0.956
1694.16	0.959
1702.69	0.961
1711.22	0.959
1719.75	0.954
1728.28	0.944
1736.81	0.946
1745.33	0.95
1753.86	0.975
1762.39	0.975
1770.92	0.98
1779.45	0.977
1787.98	0.977
1796.51	0.971
1805.04	0.971
1813.57	0.973
1822.1	0.98
1830.63	0.977
1839.16	0.973
1847.69	0.969
1856.22	0.961
1864.75	0.965
1873.28	0.965
1881.81	0.971
1890.34	0.979
1898.87	0.979
1907.4	0.979
1915.93	0.982
1924.46	0.982
1932.99	0.98
1941.52	0.982
1950.05	0.982
1958.58	0.977
1967.11	0.969
1975.64	0.973
1984.17	0.98
1992.7	0.98
2001.23	0.969
2009.76	0.969
2018.28	0.976
2026.81	0.98
2035.34	0.977
2043.87	0.977
2052.4	0.978
2060.93	0.979
2069.46	0.979
2077.99	0.98
2086.52	0.98
2095.05	0.982
2103.58	0.982
2112.11	0.982
2120.64	0.982
2129.17	0.982
2137.7	0.982
2146.23	0.982
2154.76	0.98
2163.29	0.98
2171.82	0.9795
2180.35	0.975
2188.88	0.975
2197.41	0.979
2205.94	0.979
2214.47	0.979
2223	0.9759
2231.53	0.973
2240.06	0.973
2248.59	0.971
2257.12	0.967
2265.65	0.963
2274.18	0.959
2282.71	0.9589
2291.23	0.9571
2299.76	0.954
2308.29	0.954
2316.82	0.9613
2325.35	0.969
2333.88	0.9713
2342.41	0.975
2350.94	0.971
2359.47	0.9781
2368	0.9685
2376.53	0.9796
2385.06	0.982
2393.59	0.982
2402.12	0.9822
2410.65	0.982
2419.18	0.982
2427.71	0.982
2436.24	0.982
2444.77	0.9794
2453.3	0.979
2461.83	0.977
2470.36	0.9748
2478.89	0.967
2487.42	0.9672
2495.95	0.971
2504.48	0.9772
2513.01	0.979
2521.54	0.979
2530.07	0.979
2538.6	0.979
2547.13	0.9852
2555.66	0.986
2564.18	0.9807
2572.71	0.98
2581.24	0.98
2589.77	0.98
2598.3	0.98
2606.83	0.986
2615.36	0.988
2623.89	0.988
2632.42	0.9893
2640.95	0.99
2649.48	0.99
2658.01	0.988
2666.54	0.9807
2675.07	0.98
2683.6	0.9813
2692.13	0.982
2700.66	0.982
2709.19	0.982
2717.72	0.98
2726.25	0.979
2734.78	0.979
2743.31	0.975
2751.84	0.9737
2760.37	0.9727
2768.9	0.969
2777.43	0.965
2785.96	0.9597
2794.49	0.9557
2803.02	0.9399
2811.55	0.9279
2820.08	0.8747
2828.61	0.8125
2837.13	0.893
2845.66	0.7625
2854.19	0.8983
2862.72	0.931
2871.25	0.9276
2879.78	0.9156
2888.31	0.8698
2896.84	0.795
2905.37	0.8148
2913.9	0.803
2922.43	0.7824
2930.96	0.7673
2939.49	0.6938
2948.02	0.4427
2956.55	0.6293
2965.08	0.7804
2973.61	0.7993
2982.14	0.8066
2990.67	0.805
2999.2	0.8125
3007.73	0.8146
3016.26	0.814
3024.79	0.8459
3033.32	0.898
3041.85	0.9308
3050.38	0.938
3058.91	0.938
3067.44	0.9325
3075.97	0.9325
3084.5	0.9246
3093.03	0.858
3101.56	0.8631
3110.08	0.9481
3118.61	0.9735
3127.14	0.9793
3135.67	0.9825
3144.2	0.9875
3152.73	0.9905
3161.26	0.992
3169.79	0.994
3178.32	0.992
3186.85	0.992
3195.38	0.9905
3203.91	0.99
3212.44	0.9849
3220.97	0.9815
3229.5	0.977
3238.03	0.975
3246.56	0.9599
3255.09	0.9538
3263.62	0.9366
3272.15	0.9224
3280.68	0.9038
3289.21	0.8847
3297.74	0.8613
3306.27	0.8433
3314.8	0.8354
3323.33	0.833
3331.86	0.8346
3340.39	0.8462
3348.92	0.8576
3357.45	0.8706
3365.98	0.8806
3374.51	0.8804
3383.03	0.8746
3391.56	0.8578
3400.09	0.8183
3408.62	0.7697
3417.15	0.776
3425.68	0.7439
3434.21	0.5919
3442.74	0.406
3451.27	0.6287
3459.8	0.8312
3468.33	0.9588
3476.86	0.9886
3485.39	0.9973
3493.92	1
3502.45	1.001
3510.98	1.0007
3519.51	1
3528.04	1
3536.57	1
3545.1	1
3553.63	1.0008
3562.16	1.003
3570.69	1.0013
3579.22	1.001
3587.75	1.0009
3596.28	1.001
3604.81	1
3613.34	1
3621.87	1
3630.4	0.9993
3638.93	0.998
3647.46	1
3655.98	0.9983
3664.51	1
3673.04	1
3681.57	1
3690.1	1
3698.63	0.998
3707.16	0.996
3715.69	0.996
3724.22	0.998
3732.75	0.998
3741.28	0.998
3749.81	1
3758.34	0.9982
3766.87	0.9928
3775.4	0.9962
3783.93	0.9968
3792.46	0.9998
