Infrared Spectrum: o-METHYL,o-(2,4,5-TRICHLOROPHENYL)N-ETHYL PHOSPHORAMIDOTHIOATE
Formula: C9 H11 Cl3 N O2 P S
CAS: 2591-74-4
State: SOLUTION (10% CCl4 FOR 3800-1330, 10% CS2 FOR 1330-450 CM^-^1)
Class: COBLENTZ
Instrument: Not specified, most likely a prism, grating, or hybrid spectrometer.
Sampling: TRANSMISSION
Path length: 0.0108 CM, 0.0120 CM
Resolution: 4
Origin: DOW CHEMICAL COMPANY
1/CM	TRANSMITTANCE
452.2	0.709
461.305	0.709
470.409	0.703
479.514	0.707
488.619	0.735
497.723	0.808
506.828	0.824
515.933	0.817
525.038	0.781
534.142	0.739
543.247	0.792
552.352	0.7161
561.456	0.7649
570.561	0.886
579.666	0.909
588.77	0.911
597.875	0.911
606.98	0.8771
616.085	0.813
625.189	0.803
634.294	0.767
643.399	0.645
652.503	0.7249
661.608	0.799
670.713	0.7141
679.817	0.296
688.922	0.4569
698.027	0.776
707.132	0.6311
716.236	0.276
725.341	0.356
734.446	0.803
743.55	0.845
752.655	0.836
761.76	0.799
770.864	0.691
779.969	0.4251
789.074	0.503
798.179	0.384
807.283	0.097
816.388	0.044
825.493	0.051
834.597	0.039
843.702	0.062
852.807	0.106
861.911	0.097
871.016	0.223
880.121	0.06
889.226	0.5438
898.33	0.812
907.435	0.868
916.54	0.867
925.644	0.833
934.749	0.7551
943.854	0.4761
952.958	0.014
962.063	0.0779
971.168	0.3378
980.273	0.6318
989.377	0.794
998.482	0.817
1007.59	0.787
1016.69	0.705
1025.8	0.4691
1034.9	0.069
1044.01	0.015
1053.11	0.0699
1062.21	0.301
1071.32	0.164
1080.42	0.0211
1089.53	0.406
1098.63	0.4371
1107.74	0.1561
1116.84	0.051
1125.95	0.092
1135.05	0.466
1144.16	0.7139
1153.26	0.792
1162.37	0.797
1171.47	0.732
1180.58	0.549
1189.68	0.7728
1198.79	0.838
1207.89	0.859
1216.99	0.826
1226.1	0.695
1235.2	0.5741
1244.31	0.1862
1253.41	0.179
1262.52	0.539
1271.62	0.539
1280.73	0.6838
1289.83	0.817
1298.94	0.851
1308.04	0.851
1317.15	0.854
1326.25	0.831
1335.36	0.7371
1344.46	0.3332
1353.57	0.3128
1362.67	0.785
1371.77	0.7601
1380.88	0.657
1389.98	0.5511
1399.09	0.37
1408.19	0.478
1417.3	0.6728
1426.4	0.737
1435.51	0.693
1444.61	0.4071
1453.72	0.033
1462.82	0.023
1471.93	0.3649
1481.03	0.413
1490.14	0.503
1499.24	0.624
1508.35	0.684
1517.45	0.671
1526.55	0.634
1535.66	0.546
1544.76	0.453
1553.87	0.443
1562.97	0.5699
1572.08	0.585
1581.18	0.507
1590.29	0.721
1599.39	0.8419
1608.5	0.916
1617.6	0.953
1626.71	0.973
1635.81	0.994
1644.92	1.007
1654.02	0.98
1663.12	0.975
1672.23	0.959
1681.33	0.962
1690.44	0.9729
1699.54	0.969
1708.65	0.955
1717.75	0.936
1726.86	0.929
1735.96	0.93
1745.07	0.955
1754.17	0.976
1763.28	0.984
1772.38	0.976
1781.49	0.976
1790.59	0.975
1799.7	0.971
1808.8	0.975
1817.9	0.975
1827.01	0.976
1836.11	0.973
1845.22	0.964
1854.32	0.964
1863.43	0.968
1872.53	0.969
1881.64	0.976
1890.74	0.978
1899.85	0.976
1908.95	0.975
1918.06	0.987
1927.16	0.984
1936.27	0.982
1945.37	0.989
1954.48	0.982
1963.58	0.973
1972.68	0.976
1981.79	0.985
1990.89	0.987
2000	0.991
2009.1	0.998
2018.21	0.9959
2027.31	1.0002
2036.42	0.998
2045.52	0.996
2054.63	0.9942
2063.73	0.9943
2072.84	0.998
2081.94	0.996
2091.05	0.9977
2100.15	1
2109.26	0.998
2118.36	0.998
2127.46	0.998
2136.57	0.998
2145.67	0.998
2154.78	1
2163.88	0.996
2172.99	0.9856
2182.09	0.991
2191.2	0.9914
2200.3	0.992
2209.41	0.9928
2218.51	0.9916
2227.62	0.9972
2236.72	0.9903
2245.83	0.985
2254.93	0.982
2264.04	0.976
2273.14	0.972
2282.24	0.969
2291.35	0.968
2300.45	0.968
2309.56	0.976
2318.66	0.992
2327.77	0.9972
2336.87	0.9987
2345.98	0.9935
2355.08	1.01
2364.19	0.9994
2373.29	0.991
2382.4	0.991
2391.5	0.991
2400.61	0.987
2409.71	0.987
2418.81	0.991
2427.92	0.989
2437.02	0.991
2446.13	0.989
2455.23	0.985
2464.34	0.984
2473.44	0.98
2482.55	0.9802
2491.65	0.9818
2500.76	0.9821
2509.86	0.9839
2518.97	0.9819
2528.07	0.98
2537.18	0.982
2546.28	0.996
2555.39	0.987
2564.49	0.985
2573.59	0.984
2582.7	0.982
2591.8	0.9836
2600.91	0.985
2610.01	0.9841
2619.12	0.984
2628.22	0.9823
2637.33	0.9836
2646.43	0.984
2655.54	0.984
2664.64	0.9804
2673.75	0.969
2682.85	0.966
2691.96	0.9687
2701.06	0.975
2710.17	0.975
2719.27	0.976
2728.37	0.976
2737.48	0.9773
2746.58	0.976
2755.69	0.9754
2764.79	0.969
2773.9	0.9609
2783	0.9539
2792.11	0.9408
2801.21	0.937
2810.32	0.9365
2819.42	0.932
2828.53	0.9257
2837.63	0.8613
2846.74	0.8006
2855.84	0.895
2864.95	0.8557
2874.05	0.78
2883.15	0.7496
2892.26	0.7427
2901.36	0.7749
2910.47	0.812
2919.57	0.7834
2928.68	0.7378
2937.78	0.6335
2946.89	0.505
2955.99	0.661
2965.1	0.6645
2974.2	0.5128
2983.31	0.5298
2992.41	0.7323
3001.52	0.8231
3010.62	0.8313
3019.72	0.8513
3028.83	0.9036
3037.93	0.937
3047.04	0.9449
3056.14	0.937
3065.25	0.929
3074.35	0.934
3083.46	0.9229
3092.56	0.8363
3101.67	0.9063
3110.77	0.9685
3119.88	0.975
3128.98	0.9819
3138.09	0.985
3147.19	0.9852
3156.3	0.985
3165.4	0.987
3174.5	0.994
3183.61	0.994
3192.71	0.9924
3201.82	0.991
3210.92	0.9854
3220.03	0.9805
3229.13	0.976
3238.24	0.973
3247.34	0.9585
3256.45	0.9492
3265.55	0.9306
3274.66	0.9147
3283.76	0.8924
3292.87	0.8801
3301.97	0.874
3311.08	0.872
3320.18	0.8781
3329.28	0.8891
3338.39	0.8952
3347.49	0.9065
3356.6	0.909
3365.7	0.905
3374.81	0.8847
3383.91	0.8408
3393.02	0.7966
3402.12	0.7923
3411.23	0.7462
3420.33	0.616
3429.44	0.515
3438.54	0.6697
3447.65	0.9274
3456.75	0.9752
3465.86	0.9896
3474.96	0.9952
3484.06	0.996
3493.17	0.996
3502.27	0.996
3511.38	0.996
3520.48	0.996
3529.59	0.996
3538.69	0.996
3547.8	0.998
3556.9	1
3566.01	1.0009
3575.11	0.9942
3584.22	0.9982
3593.32	0.998
3602.43	1.001
3611.53	0.9999
3620.64	1
3629.74	0.998
3638.84	0.998
3647.95	0.998
3657.05	0.991
3666.16	0.9976
3675.26	0.9942
3684.37	0.998
3693.47	0.9841
3702.58	0.9936
3711.68	1
3720.79	1
3729.89	1
