Infrared Spectrum: N-FORMYLPIPERIDINE
Formula: C6 H11 N O
CAS: 2591-86-8
State: LIQUID
Class: COBLENTZ
Instrument: PERKIN-ELMER
Sampling: TRANSMISSION
Path length: CAPILLARY
Resolution: 4
Origin: ABBOTT LABORATORIES - WASHBURN
MICROMETERS	TRANSMITTANCE
2.058	0.889
2.09196	0.892
2.12593	0.89
2.15989	0.89
2.19386	0.894
2.22782	0.894
2.26179	0.89
2.29575	0.8851
2.32972	0.882
2.36368	0.8839
2.39765	0.8869
2.43161	0.8899
2.46558	0.892
2.49954	0.8901
2.53351	0.887
2.56747	0.892
2.60144	0.896
2.6354	0.897
2.66937	0.897
2.70333	0.8922
2.7373	0.8827
2.77126	0.8702
2.80523	0.8603
2.83919	0.8544
2.87316	0.8509
2.90712	0.8673
2.94109	0.863
2.97505	0.87
3.00902	0.858
3.04298	0.8728
3.07695	0.879
3.11091	0.889
3.14488	0.887
3.17884	0.882
3.21281	0.8801
3.24677	0.8771
3.28074	0.872
3.3147	0.8467
3.34867	0.6459
3.38263	0.4614
3.4166	0.5823
3.45056	0.6216
3.48453	0.5517
3.51849	0.7369
3.55246	0.8151
3.58642	0.833
3.62039	0.8475
3.65435	0.8679
3.68832	0.875
3.72228	0.87
3.75625	0.8764
3.79021	0.885
3.82418	0.8935
3.85814	0.887
3.89211	0.8891
3.92607	0.8923
3.96004	0.8934
3.994	0.897
4.02797	0.8875
4.06193	0.8895
4.0959	0.894
4.12986	0.89
4.16383	0.887
4.19779	0.8919
4.23176	0.8989
4.26572	0.897
4.29969	0.8921
4.33365	0.8891
4.36762	0.884
4.40158	0.8869
4.43555	0.8851
4.46951	0.885
4.50348	0.884
4.53744	0.885
4.57141	0.8899
4.60537	0.8891
4.63934	0.889
4.6733	0.89
4.70727	0.887
4.74123	0.884
4.7752	0.882
4.80916	0.8837
4.84313	0.8849
4.87709	0.887
4.91106	0.887
4.94502	0.8823
4.97899	0.88
5.01295	0.884
5.04692	0.885
5.08088	0.8864
5.11485	0.8896
5.14881	0.8859
5.18278	0.88
5.21674	0.885
5.25071	0.889
5.28467	0.887
5.31864	0.8866
5.3526	0.879
5.38657	0.88
5.42053	0.8849
5.4545	0.8841
5.48846	0.8792
5.52243	0.8784
5.55639	0.873
5.59036	0.8731
5.62432	0.8625
5.65829	0.85
5.69225	0.851
5.72622	0.843
5.76018	0.8181
5.79415	0.7737
5.82811	0.6734
5.86208	0.5125
5.89604	0.2628
5.93001	0.16
5.96397	0.1921
5.99794	0.2636
6.0319	0.4338
6.06587	0.5944
6.09983	0.7173
6.1338	0.7719
6.16776	0.8167
6.20173	0.8332
6.23569	0.8327
6.26966	0.831
6.30362	0.8528
6.33759	0.8646
6.37155	0.868
6.40552	0.873
6.43948	0.8745
6.47345	0.8768
6.50741	0.8759
6.54138	0.8808
6.57534	0.8736
6.60931	0.8715
6.64327	0.8617
6.67724	0.8558
6.7112	0.844
6.74517	0.8107
6.77913	0.745
6.8131	0.6706
6.84706	0.5686
6.88103	0.4576
6.91499	0.3554
6.94896	0.3545
6.98292	0.4651
7.01689	0.6365
7.05085	0.6668
7.08482	0.6201
7.11878	0.5495
7.15275	0.531
7.18671	0.6853
7.22068	0.781
7.25464	0.7742
7.28861	0.747
7.32257	0.7814
7.35654	0.7984
7.3905	0.7755
7.42447	0.7939
7.45843	0.838
7.4924	0.8469
7.52636	0.836
7.56033	0.8511
7.59429	0.86
7.62826	0.8582
7.66222	0.853
7.69619	0.845
7.73015	0.8276
7.76412	0.7255
7.79808	0.6204
7.83205	0.6826
7.86601	0.6691
7.89998	0.573
7.93394	0.5214
7.96791	0.5315
8.00187	0.7127
8.03584	0.7917
8.0698	0.8156
8.10377	0.826
8.13773	0.8148
8.1717	0.779
8.20566	0.6515
8.23963	0.5409
8.27359	0.4678
8.30756	0.6197
8.34152	0.735
8.37549	0.8068
8.40945	0.8434
8.44342	0.855
8.47738	0.858
8.51135	0.862
8.54531	0.862
8.57928	0.8529
8.61324	0.8543
8.64721	0.86
8.68117	0.858
8.71514	0.8432
8.7491	0.7961
8.78307	0.686
8.81703	0.7471
8.851	0.7789
8.88496	0.711
8.91893	0.5698
8.95289	0.5322
8.98686	0.6868
9.02082	0.7754
9.05479	0.8219
9.08875	0.8416
9.12272	0.8506
9.15668	0.86
9.19065	0.863
9.22461	0.8688
9.25858	0.87
9.29254	0.867
9.32651	0.863
9.36047	0.8652
9.39444	0.868
9.4284	0.87
9.46237	0.8717
9.49633	0.8696
9.5303	0.868
9.56426	0.8637
9.59823	0.8572
9.63219	0.8403
9.66616	0.7781
9.70012	0.6552
9.73409	0.6853
9.76805	0.7788
9.80202	0.8223
9.83598	0.829
9.86995	0.8221
9.90391	0.8051
9.93788	0.7776
9.97184	0.7192
10.0058	0.6326
10.0398	0.5693
10.0737	0.6593
10.1077	0.7614
10.1417	0.8128
10.1756	0.8442
10.2096	0.8675
10.2436	0.8732
10.2775	0.875
10.3115	0.8771
10.3455	0.8703
10.3794	0.8569
10.4134	0.8151
10.4474	0.8005
10.4813	0.8468
10.5153	0.8698
10.5492	0.8773
10.5832	0.889
10.6172	0.887
10.6511	0.8923
10.6851	0.889
10.7191	0.892
10.753	0.8918
10.787	0.8903
10.821	0.883
10.8549	0.8856
10.8889	0.8746
10.9229	0.8513
10.9568	0.8064
10.9908	0.8107
11.0248	0.8578
11.0587	0.8745
11.0927	0.8853
11.1267	0.889
11.1606	0.892
11.1946	0.9008
11.2285	0.899
11.2625	0.899
11.2965	0.899
11.3304	0.897
11.3644	0.8965
11.3984	0.892
11.4323	0.89
11.4663	0.8864
11.5003	0.885
11.5342	0.8787
11.5682	0.8679
11.6022	0.8482
11.6361	0.7964
11.6701	0.7362
11.7041	0.7115
11.738	0.7573
11.772	0.7995
11.806	0.8506
11.8399	0.8756
11.8739	0.89
11.9078	0.8864
11.9418	0.8892
11.9758	0.89
12.0097	0.894
12.0437	0.8919
12.0777	0.8958
12.1116	0.9018
12.1456	0.8975
12.1796	0.8983
12.2135	0.9014
12.2475	0.896
12.2815	0.8909
12.3154	0.8947
12.3494	0.897
12.3834	0.9012
12.4173	0.908
12.4513	0.9092
12.4853	0.918
12.5192	0.9042
12.5532	0.8739
12.5871	0.8585
12.6211	0.864
12.6551	0.8737
12.689	0.8855
12.723	0.892
12.757	0.889
12.7909	0.8915
12.8249	0.8854
12.8589	0.8872
12.8928	0.89
12.9268	0.8852
12.9608	0.885
12.9947	0.89
13.0287	0.887
13.0627	0.8801
13.0966	0.885
13.1306	0.887
13.1646	0.885
13.1985	0.881
13.2325	0.882
13.2664	0.8836
13.3004	0.8772
13.3344	0.875
13.3683	0.8731
13.4023	0.8787
13.4363	0.8722
13.4702	0.8673
13.5042	0.87
13.5382	0.865
13.5721	0.869
13.6061	0.863
13.6401	0.865
13.674	0.865
13.708	0.862
13.742	0.86
13.7759	0.853
13.8099	0.855
13.8439	0.8472
13.8778	0.853
13.9118	0.848
13.9457	0.8434
13.9797	0.843
14.0137	0.8421
14.0476	0.8402
14.0816	0.8333
14.1156	0.8375
14.1495	0.8273
14.1835	0.8272
14.2175	0.824
14.2514	0.8211
14.2854	0.821
14.3194	0.8144
14.3533	0.8167
14.3873	0.8164
14.4213	0.8104
14.4552	0.804
14.4892	0.7992
14.5232	0.798
14.5571	0.7922
14.5911	0.7897
14.625	0.788
14.659	0.788
14.693	0.7801
14.7269	0.7735
14.7609	0.7708
14.7949	0.7672
14.8288	0.7622
14.8628	0.756
14.8968	0.7551
14.9307	0.752
14.9647	0.7454
14.9987	0.7348
15.0326	0.7176
15.0666	0.7029
15.1006	0.683
15.1345	0.6724
15.1685	0.6492
15.2025	0.6102
15.2364	0.5813
15.2704	0.5608
15.3043	0.5591
15.3383	0.5718
15.3723	0.5997
15.4062	0.6172
15.4402	0.6284
