Infrared Spectrum: 1-Hydroxybenzotriazole
Formula: C 6 H 5 N 3 O
CAS: 2592-95-2
State: gas
Origin: EPA-IR VAPOR PHASE LIBRARY
1/CM	ABSORBANCE
549.8	0.0006604
559.445	0.0011992
569.09	0.001598
578.734	0.002488
588.379	0.003518
598.024	0.004408
607.669	0.004518
617.313	0.006018
626.958	0.005778
636.603	0.003578
646.248	0.002028
655.893	0.001578
665.537	0.0015136
675.182	0.001918
684.827	0.002198
694.472	0.004228
704.116	0.008638
713.761	0.013358
723.406	0.010428
733.051	0.005588
742.695	0.002958
752.34	0.002428
761.985	0.002508
771.63	0.003208
781.275	0.004668
790.919	0.006978
800.564	0.013618
810.209	0.027298
819.854	0.031548
829.498	0.020578
839.143	0.007508
848.788	0.004378
858.433	0.003888
868.078	0.003898
877.722	0.004038
887.367	0.004248
897.012	0.005118
906.657	0.007288
916.301	0.010068
925.946	0.013968
935.591	0.018978
945.236	0.026538
954.88	0.036408
964.525	0.048148
974.17	0.059428
983.815	0.059428
993.46	0.046748
1003.1	0.050578
1012.75	0.083638
1022.39	0.149008
1032.04	0.207398
1041.68	0.193038
1051.33	0.113838
1060.97	0.066008
1070.62	0.051208
1080.26	0.050188
1089.91	0.056308
1099.55	0.075318
1109.2	0.095758
1118.84	0.096948
1128.49	0.076308
1138.13	0.056518
1147.78	0.038288
1157.42	0.025138
1167.07	0.020128
1176.71	0.021858
1186.36	0.033698
1196	0.042688
1205.64	0.035858
1215.29	0.020568
1224.93	0.013068
1234.58	0.010428
1244.22	0.009238
1253.87	0.008838
1263.51	0.008878
1273.16	0.008538
1282.8	0.006638
1292.45	0.004328
1302.09	0.004348
1311.74	0.006708
1321.38	0.010968
1331.03	0.014398
1340.67	0.017878
1350.32	0.027388
1359.96	0.051498
1369.61	0.056288
1379.25	0.037118
1388.9	0.016968
1398.54	0.008938
1408.18	0.005798
1417.83	0.004798
1427.47	0.005308
1437.12	0.007718
1446.76	0.010568
1456.41	0.010608
1466.05	0.009208
1475.7	0.007938
1485.34	0.005848
1494.99	0.004248
1504.63	0.003278
1514.28	0.002928
1523.92	0.002658
1533.57	0.002468
1543.21	0.002348
1552.86	0.002268
1562.5	0.002218
1572.15	0.002168
1581.79	0.002088
1591.44	0.002298
1601.08	0.002508
1610.73	0.002918
1620.37	0.003448
1630.01	0.003538
1639.66	0.003518
1649.3	0.003028
1658.95	0.002238
1668.59	0.001638
1678.24	0.0013267
1687.88	0.0013078
1697.53	0.0013021
1707.17	0.0011893
1716.82	0.0011997
1726.46	0.0012796
1736.11	0.0014866
1745.75	0.001638
1755.4	0.0014338
1765.04	0.0012116
1774.69	0.001049
1784.33	0.000961
1793.98	0.0010775
1803.62	0.0011288
1813.27	0.001253
1822.91	0.0012526
1832.55	0.0011223
1842.2	0.0011226
1851.84	0.0011946
1861.49	0.001125
1871.13	0.0010401
1880.78	0.0010288
1890.42	0.0010785
1900.07	0.0010343
1909.71	0.001156
1919.36	0.0011454
1929	0.0011412
1938.65	0.0011052
1948.29	0.0012001
1957.94	0.0013638
1967.58	0.0014534
1977.23	0.0013588
1986.87	0.0013711
1996.52	0.0015027
2006.16	0.001668
2015.81	0.001758
2025.45	0.001938
2035.1	0.002028
2044.74	0.002248
2054.38	0.002508
2064.03	0.002828
2073.67	0.002818
2083.32	0.002708
2092.96	0.002268
2102.61	0.002088
2112.25	0.001858
2121.9	0.001668
2131.54	0.0015067
2141.19	0.0013793
2150.83	0.0014092
2160.48	0.0014479
2170.12	0.001529
2179.77	0.001379
2189.41	0.0012281
2199.06	0.0010283
2208.7	0.0009493
2218.35	0.0009467
2227.99	0.0009191
2237.64	0.000785
2247.28	0.0007832
2256.92	0.0006866
2266.57	0.0007022
2276.21	0.0007418
2285.86	0.0008061
2295.5	0.0009258
2305.15	0.0009742
2314.79	0.0008125
2324.44	0.0008592
2334.08	0.0007077
2343.73	0.0007193
2353.37	0.0007108
2363.02	0.0007209
2372.66	0.0006922
2382.31	0.0007328
2391.95	0.0008093
2401.6	0.0006746
2411.24	0.00057308
2420.89	0.000555068
2430.53	0.0006533
2440.18	0.00059959
2449.82	0.000432
2459.47	0.00056373
2469.11	0.0004502
2478.75	0.0005344
2488.4	0.0004775
2498.04	0.000382
2507.69	0.000439
2517.33	0.000445
2526.98	0.000441
2536.62	0.00060195
2546.27	0.00062236
2555.91	0.0006578
2565.56	0.0008083
2575.2	0.0009346
2584.85	0.0011793
2594.49	0.001546
2604.14	0.001545
2613.78	0.001668
2623.43	0.0013226
2633.07	0.0012916
2642.72	0.0015051
2652.36	0.001588
2662.01	0.001708
2671.65	0.001608
2681.29	0.001532
2690.94	0.0015
2700.58	0.0015281
2710.23	0.001828
2719.87	0.002108
2729.52	0.002288
2739.16	0.002278
2748.81	0.002188
2758.45	0.002268
2768.1	0.002478
2777.74	0.003068
2787.39	0.003998
2797.03	0.005278
2806.68	0.007528
2816.32	0.011288
2825.97	0.019758
2835.61	0.028988
2845.26	0.029178
2854.9	0.022848
2864.55	0.025038
2874.19	0.033188
2883.84	0.037888
2893.48	0.032398
2903.12	0.028518
2912.77	0.030068
2922.41	0.038668
2932.06	0.047358
2941.7	0.046218
2951.35	0.036938
2960.99	0.029058
2970.64	0.023438
2980.28	0.019168
2989.93	0.020928
2999.57	0.026198
3009.22	0.023048
3018.86	0.013218
3028.51	0.007798
3038.15	0.005978
3047.8	0.005298
3057.44	0.005018
3067.09	0.004858
3076.73	0.004968
3086.38	0.005928
3096.02	0.006248
3105.67	0.005348
3115.31	0.003638
3124.95	0.002158
3134.6	0.001405
3144.24	0.0012546
3153.89	0.0008542
3163.53	0.0008406
3173.18	0.00061794
3182.82	0.00058596
3192.47	0.0005236
3202.11	0.0004709
3211.76	0.00057699
3221.4	0.0004773
3231.05	0.00055906
3240.69	0.000443
3250.34	0.000428
3259.98	0.0004499
3269.63	0.000339
3279.27	0.000383
3288.92	0.000447
3298.56	0.000249
3308.21	0.0004871
3317.85	0.000279
3327.49	0.000224
3337.14	0.000148
3346.78	0.000217
3356.43	0.000337
3366.07	0.000398
3375.72	5e-05
3385.36	0.00039
3395.01	0.000385
3404.65	0.000428
3414.3	0.000247
3423.94	0.000418
3433.59	0.00034
3443.23	0.000265
3452.88	0.00037
3462.52	0.000218
3472.17	0.00025
3481.81	8.8e-05
3491.46	0.000227
3501.1	0.000267
3510.75	0.000275
3520.39	0.00054304
3530.04	0.000434
3539.68	0.000226
3549.32	0.0004936
3558.97	0.000429
3568.61	0.000152
3578.26	0.000445
3587.9	0.000244
3597.55	0.000287
3607.19	0.000235
3616.84	0.000307
3626.48	0.000439
3636.13	0.000237
3645.77	0.000374
3655.42	0.00036
3665.06	0.0005027
3674.71	0.00033
3684.35	0.0006935
3694	0.000557635
3703.64	0.0004945
3713.29	0.000397
3722.93	0.000267
3732.58	0.000434
3742.22	0.0004695
3751.86	0.000324
3761.51	0.00056973
3771.15	0.00035
3780.8	0.0004883
3790.44	0.0005372
3800.09	0.0005892
3809.73	0.00061553
3819.38	0.000403
3829.02	0.00063327
3838.67	0.000557072
3848.31	0.0004946
3857.96	0.0007958
3867.6	0.00060577
3877.25	0.0006757
3886.89	0.0007182
3896.54	0.000877
3906.18	0.0010022
3915.83	0.0012785
3925.47	0.0011537
3935.12	0.0008198
3944.76	0.0006666
3954.41	0.0007088
3964.05	0.0007632
3973.69	0.0008048
3983.34	0.0006813
3992.98	0.00060966
