Infrared Spectrum: Terrazole
Formula: C 5 H 5 Cl 3 N 2 O S
CAS: 2593-15-9
State: gas
Instrument: HP-GC/MS/IRD
Origin: NIST Mass Spectrometry Data Center
1/CM	ABSORBANCE
550	0.0002353
562	0.0001612
574	0.0001703
586	0.0001391
598	0.0001963
610	0.0002418
622	0.0002834
634	4.29e-05
646	3.51e-05
658	0.0001235
670	0.0002613
682	0.0008385
694	0.0018967
706	0.0015795
718	0.0005525
730	0.0005681
742	0.0016406
754	0.0017667
766	0.0010452
778	0.0011908
790	0.0025506
802	0.0040235
814	0.0025675
826	0.0035542
838	0.002418
850	0.0014404
862	0.002652
874	0.0022217
886	0.0007878
898	0.000364
910	0.0003705
922	0.0002704
934	0.0003172
946	0.0002483
958	0.0003588
970	0.0003562
982	0.0005746
994	0.001144
1006	0.002249
1018	0.001924
1030	0.001222
1042	0.0007423
1054	0.000585
1066	0.0004134
1078	0.0004212
1090	0.0006032
1102	0.0005057
1114	0.0002795
1126	0.0002431
1138	0.0001755
1150	0.0001066
1162	0.0001456
1174	9.75e-05
1186	0.0001872
1198	0.0005564
1210	0.0016471
1222	0.0031473
1234	0.0031915
1246	0.0047372
1258	0.0024791
1270	0.0006448
1282	0.0005434
1294	0.0011765
1306	0.0032721
1318	0.0041015
1330	0.0010543
1342	0.0004563
1354	0.0011271
1366	0.0013845
1378	0.0007176
1390	0.0016536
1402	0.0012441
1414	0.0006201
1426	0.0008437
1438	0.0019058
1450	0.0037349
1462	0.0034047
1474	0.002457
1486	0.0014443
1498	0.0012532
1510	0.0033059
1522	0.0115505
1534	0.0083902
1546	0.0015964
1558	0.0007124
1570	0.0005681
1582	0.0004394
1594	0.0003653
1606	0.0003497
1618	0.0002834
1630	0.0002327
1642	0.0001768
1654	0.0001131
1666	0.0001391
1678	8.71e-05
1690	7.41e-05
1702	4.16e-05
1714	7.41e-05
1726	0.0001014
1738	7.15e-05
1750	0.0001053
1762	6.63e-05
1774	5.85e-05
1786	4.81e-05
1798	5.07e-05
1810	7.02e-05
1822	6.11e-05
1834	8.58e-05
1846	6.63e-05
1858	9.49e-05
1870	0.0001001
1882	8.84e-05
1894	6.63e-05
1906	5.46e-05
1918	8.84e-05
1930	6.37e-05
1942	6.37e-05
1954	8.97e-05
1966	8.71e-05
1978	7.67e-05
1990	5.85e-05
2002	7.54e-05
2014	8.97e-05
2026	7.02e-05
2038	9.75e-05
2050	0.000117
2062	8.06e-05
2074	8.84e-05
2086	5.33e-05
2098	8.84e-05
2110	6.24e-05
2122	9.62e-05
2134	6.5e-05
2146	6.37e-05
2158	6.76e-05
2170	8.06e-05
2182	7.54e-05
2194	0.0001092
2206	8.19e-05
2218	9.62e-05
2230	8.71e-05
2242	0.0001183
2254	8.06e-05
2266	0.0001144
2278	0.00013
2290	8.71e-05
2302	5.46e-05
2314	3.51e-05
2326	7.67e-05
2338	3.64e-05
2350	5.46e-05
2362	4.42e-05
2374	7.41e-05
2386	8.45e-05
2398	8.84e-05
2410	7.02e-05
2422	7.41e-05
2434	0.0001014
2446	9.49e-05
2458	7.54e-05
2470	0.0001339
2482	0.0001001
2494	4.81e-05
2506	9.75e-05
2518	0.0001157
2530	8.45e-05
2542	7.93e-05
2554	0.0001378
2566	0.0001235
2578	9.62e-05
2590	0.000104
2602	0.0001391
2614	9.23e-05
2626	5.85e-05
2638	0.0001196
2650	0.0001378
2662	0.0001391
2674	0.0001118
2686	0.0001248
2698	0.0001612
2710	0.0001404
2722	0.0001612
2734	0.0001573
2746	0.0002145
2758	0.0002145
2770	0.0002405
2782	0.0001924
2794	0.0001703
2806	0.0001599
2818	0.0001755
2830	0.0001976
2842	0.0001807
2854	0.0002379
2866	0.0001963
2878	0.0002912
2890	0.0003068
2902	0.000299
2914	0.0003198
2926	0.0003796
2938	0.0005044
2950	0.0006773
2962	0.0006266
2974	0.0007033
2986	0.0008931
2998	0.0009698
3010	0.0007618
3022	0.0004381
3034	0.0002613
3046	0.0001677
3058	0.0001274
3070	0.0001456
3082	0.0001196
3094	0.00013
3106	0.0001274
3118	0.0001482
3130	8.06e-05
3142	0.0001534
3154	0.0001677
3166	7.41e-05
3178	0.000143
3190	9.36e-05
3202	0.0001105
3214	0.0001222
3226	0.0001352
3238	9.36e-05
3250	0.0001391
3262	6.76e-05
3274	5.72e-05
3286	7.15e-05
3298	0.0001768
3310	9.62e-05
3322	0.0001404
3334	0.0001105
3346	0.000104
3358	0.0001378
3370	0.0001859
3382	0.000169
3394	0.0001313
3406	0.0001534
3418	4.16e-05
3430	0.0001313
3442	7.8e-05
3454	8.19e-05
3466	0.0001495
3478	0.0001703
3490	7.28e-05
3502	0.0001183
3514	0.0001053
3526	0.0001066
3538	0.0001443
3550	6.89e-05
3562	8.32e-05
3574	9.23e-05
3586	9.49e-05
3598	8.19e-05
3610	0.0001313
3622	0.0001677
3634	9.75e-05
3646	9.75e-05
3658	0.0001105
3670	8.32e-05
3682	0.0001703
3694	0.0001339
3706	0.0001261
3718	0.0001911
3730	0.0001846
3742	0.0001417
3754	0.0001547
3766	0.0001534
3778	0.0001326
3790	0.0001664
3802	0.0001534
3814	0.0001742
3826	0.0001157
3838	5.98e-05
