Infrared Spectrum: Pyridine, 2-(cyclohexylamino)-5-nitro-
Formula: C11 H15 N3 O2
CAS: 25948-14-5
State: SOLID (SPLIT MULL), FLUOROLUBE FOR 3800-1330 CM^-^1, NUJOL FOR 1330-470 CM^-^1
Class: COBLENTZ III
Instrument: DOW KBr FOREPRISM-GRATING
Instrument parameters: BLAZED AT 3.5, 12.0, 20.0 MICRON AND CHANGED AT 5.0, 7.5, 14.9 MICRON
Sampling: TRANSMISSION
Resolution: 2
Origin: DOW CHEMICAL COMPANY
1/CM	TRANSMITTANCE
469	0.8601
478	0.8615
487	0.8616
496	0.8494
505	0.85
514	0.8771
523	0.8658
532	0.7996
541	0.8603
550	0.8757
559	0.8768
568	0.87
577	0.8082
586	0.8291
595	0.8271
604	0.881
613	0.8886
622	0.8853
631	0.8737
640	0.857
649	0.8596
658	0.8469
667	0.7893
676	0.6734
685	0.7278
694	0.8551
703	0.8545
712	0.8491
721	0.8173
730	0.7957
739	0.8267
748	0.8856
757	0.8895
766	0.7667
775	0.8585
784	0.8979
793	0.902
802	0.899
811	0.8998
820	0.8805
829	0.7333
838	0.6687
847	0.8659
856	0.8986
865	0.8672
874	0.9036
883	0.8865
892	0.7614
901	0.8683
910	0.9018
919	0.8956
928	0.8939
937	0.8846
946	0.8721
955	0.8767
964	0.8803
973	0.8498
982	0.8504
991	0.877
1000	0.8537
1009	0.8445
1018	0.8788
1027	0.874
1036	0.8759
1045	0.8607
1054	0.8606
1063	0.8468
1072	0.7459
1081	0.6524
1090	0.5417
1099	0.6824
1108	0.6057
1117	0.2228
1126	0.5183
1135	0.8375
1144	0.6839
1153	0.8241
1162	0.7179
1171	0.8333
1180	0.8258
1189	0.814
1198	0.8002
1207	0.7674
1216	0.6971
1225	0.5699
1234	0.5686
1243	0.5082
1252	0.2032
1261	0.2475
1270	0.1445
1279	0.0963
1288	0.0647
1297	0.1568
1306	0.5004
1315	0.3099
1324	0.0666
1333	0.1066
1342	0.1118
1351	0.3335
1360	0.5379
1369	0.6879
1378	0.7674
1387	0.7827
1396	0.7293
1405	0.6085
1414	0.6125
1423	0.5831
1432	0.7119
1441	0.6662
1450	0.4752
1459	0.6641
1468	0.6578
1477	0.4937
1486	0.5489
1495	0.4751
1504	0.5215
1513	0.6555
1522	0.5954
1531	0.4758
1540	0.3477
1549	0.3822
1558	0.6344
1567	0.6336
1576	0.4964
1585	0.3592
1594	0.4059
1603	0.1204
1612	0.0686
1621	0.1693
1630	0.5651
1639	0.8259
1648	0.8742
1657	0.8869
1666	0.8843
1675	0.8896
1684	0.8883
1693	0.883
1702	0.886
1711	0.8729
1720	0.8662
1729	0.8636
1738	0.8626
1747	0.8641
1756	0.862
1765	0.8588
1774	0.8544
1783	0.8496
1792	0.8444
1801	0.8385
1810	0.8432
1819	0.8428
1828	0.8392
1837	0.8403
1846	0.8388
1855	0.8381
1864	0.8317
1873	0.8298
1882	0.8296
1891	0.8296
1900	0.8302
1909	0.8308
1918	0.8305
1927	0.8297
1936	0.8265
1945	0.8246
1954	0.8265
1963	0.8233
1972	0.8173
1981	0.8161
1990	0.8151
1999	0.814
2008	0.8127
2017	0.8113
2026	0.8098
2035	0.8056
2044	0.8019
2053	0.7982
2062	0.7945
2071	0.7908
2080	0.7871
2089	0.7834
2098	0.7798
2107	0.7761
2116	0.7725
2125	0.7683
2134	0.7636
2143	0.7588
2152	0.7542
2161	0.7496
2170	0.745
2179	0.7405
2188	0.7359
2197	0.7313
2206	0.7267
2215	0.7222
2224	0.7185
2233	0.714
2242	0.7087
2251	0.7033
2260	0.6979
2269	0.6926
2278	0.6874
2287	0.6832
2296	0.6796
2305	0.677
2314	0.6743
2323	0.672
2332	0.6711
2341	0.6706
2350	0.6703
2359	0.67
2368	0.67
2377	0.67
2386	0.6697
2395	0.6691
2404	0.6666
2413	0.6636
2422	0.6606
2431	0.656
2440	0.6521
2449	0.6564
2458	0.6574
2467	0.6582
2476	0.6577
2485	0.6564
2494	0.6552
2503	0.655
2512	0.6547
2521	0.6538
2530	0.6531
2539	0.6506
2548	0.6482
2557	0.6445
2566	0.6419
2575	0.6404
2584	0.6374
2593	0.634
2602	0.6305
2611	0.6271
2620	0.6271
2629	0.6272
2638	0.628
2647	0.6254
2656	0.6201
2665	0.6163
2674	0.6152
2683	0.6137
2692	0.6116
2701	0.6094
2710	0.6071
2719	0.6026
2728	0.5979
2737	0.5931
2746	0.589
2755	0.5844
2764	0.5786
2773	0.5727
2782	0.5667
2791	0.56
2800	0.5533
2809	0.5463
2818	0.538
2827	0.5252
2836	0.501
2845	0.4685
2854	0.3536
2863	0.3999
2872	0.5039
2881	0.5017
2890	0.482
2899	0.4474
2908	0.4054
2917	0.359
2926	0.2426
2935	0.2591
2944	0.3866
2953	0.5088
2962	0.549
2971	0.556
2980	0.5562
2989	0.5485
2998	0.5446
3007	0.546
3016	0.5481
3025	0.5478
3034	0.5412
3043	0.5319
3052	0.522
3061	0.5142
3070	0.5073
3079	0.5012
3088	0.4981
3097	0.5023
3106	0.5203
3115	0.5256
3124	0.5254
3133	0.5219
3142	0.5136
3151	0.5048
3160	0.4994
3169	0.4969
3178	0.4828
3187	0.4704
3196	0.4601
3205	0.4407
3214	0.4243
3223	0.4115
3232	0.4154
3241	0.4406
3250	0.4814
3259	0.4907
3268	0.4887
3277	0.4783
3286	0.4597
3295	0.4339
3304	0.3826
3313	0.2937
3322	0.2049
3331	0.1921
3340	0.2438
3349	0.3423
3358	0.4513
3367	0.5555
3376	0.5689
3385	0.5804
3394	0.5824
3403	0.5803
3412	0.5779
3421	0.5756
3430	0.5736
3439	0.5714
3448	0.5686
3457	0.5657
3466	0.5628
3475	0.5601
3484	0.5581
3493	0.556
3502	0.554
3511	0.5521
3520	0.551
3529	0.5498
3538	0.5487
3547	0.5475
3556	0.5464
3565	0.5452
3574	0.5439
3583	0.5422
3592	0.5406
3601	0.539
3610	0.5374
3619	0.5357
3628	0.5341
3637	0.5325
3646	0.5307
3655	0.5288
3664	0.527
3673	0.5251
3682	0.5232
3691	0.5214
3700	0.5197
3709	0.5186
3718	0.5175
3727	0.5163
3736	0.5153
3745	0.5141
3754	0.513
3763	0.5115
3772	0.5101
3781	0.5086
3790	0.5072
3799	0.5056
