Infrared Spectrum: Cinnamic acid, p-(p-methoxybenzylidene)amino-
Formula: C17 H15 N O3
CAS: 25959-50-6
State: SOLID (SPLIT MULL), FLUOROLUBE FOR 3800-1330 CM^-^1, NUJOL FOR 1330-450 CM^-^1
Class: COBLENTZ III
Instrument: DOW KBr FOREPRISM-GRATING
Instrument parameters: BLAZED AT 3.5, 12.0, 20.0 MICRON AND CHANGED AT 5.0, 7.5, 14.9 MICRON
Sampling: TRANSMISSION
Resolution: 2
Origin: DOW CHEMICAL COMPANY
1/CM	TRANSMITTANCE
453	0.8182
462	0.8275
471	0.8316
480	0.829
489	0.8234
498	0.7771
507	0.8282
516	0.8106
525	0.8143
534	0.7715
543	0.465
552	0.4573
561	0.7961
570	0.8501
579	0.858
588	0.8566
597	0.8224
606	0.6775
615	0.8615
624	0.8778
633	0.8642
642	0.8571
651	0.8831
660	0.8824
669	0.8791
678	0.8668
687	0.7272
696	0.7597
705	0.8684
714	0.8186
723	0.8048
732	0.8398
741	0.8533
750	0.8577
759	0.8318
768	0.8237
777	0.8545
786	0.8493
795	0.8362
804	0.8025
813	0.7061
822	0.6751
831	0.38
840	0.2026
849	0.6129
858	0.7628
867	0.7494
876	0.74
885	0.6781
894	0.7265
903	0.7099
912	0.6553
921	0.5887
930	0.5682
939	0.5932
948	0.6615
957	0.6918
966	0.6437
975	0.6081
984	0.57
993	0.5623
1002	0.7022
1011	0.6407
1020	0.3676
1029	0.5753
1038	0.6921
1047	0.7225
1056	0.6987
1065	0.7115
1074	0.7185
1083	0.7235
1092	0.7139
1101	0.6526
1110	0.5779
1119	0.6841
1128	0.6833
1137	0.6453
1146	0.5622
1155	0.3152
1164	0.3428
1173	0.6846
1182	0.6186
1191	0.5289
1200	0.5562
1209	0.4472
1218	0.2335
1227	0.5549
1236	0.6169
1245	0.5208
1254	0.3395
1263	0.2029
1272	0.4614
1281	0.4004
1290	0.5186
1299	0.4253
1308	0.2275
1317	0.3509
1326	0.2993
1335	0.6075
1344	0.656
1353	0.6972
1362	0.6907
1371	0.6778
1380	0.683
1389	0.6585
1398	0.6174
1407	0.5238
1416	0.5571
1425	0.395
1434	0.6741
1443	0.6292
1452	0.6568
1461	0.6002
1470	0.6306
1479	0.6815
1488	0.6362
1497	0.5896
1506	0.4439
1515	0.3387
1524	0.7251
1533	0.7018
1542	0.6486
1551	0.5819
1560	0.4673
1569	0.2974
1578	0.3732
1587	0.3594
1596	0.6617
1605	0.5328
1614	0.397
1623	0.2884
1632	0.5592
1641	0.7246
1650	0.6993
1659	0.6394
1668	0.5277
1677	0.3645
1686	0.2715
1695	0.3622
1704	0.805
1713	0.8716
1722	0.8725
1731	0.8641
1740	0.8485
1749	0.8313
1758	0.8155
1767	0.8012
1776	0.789
1785	0.7821
1794	0.7775
1803	0.7731
1812	0.7683
1821	0.7634
1830	0.7586
1839	0.7536
1848	0.7483
1857	0.7428
1866	0.7419
1875	0.7397
1884	0.7347
1893	0.7305
1902	0.7257
1911	0.723
1920	0.7264
1929	0.7254
1938	0.7211
1947	0.7217
1956	0.7241
1965	0.7247
1974	0.7204
1983	0.7148
1992	0.7106
2001	0.725
2010	0.7141
2019	0.7076
2028	0.7068
2037	0.7068
2046	0.7065
2055	0.7058
2064	0.7021
2073	0.6969
2082	0.6908
2091	0.6855
2100	0.6801
2109	0.6751
2118	0.6705
2127	0.666
2136	0.6619
2145	0.6583
2154	0.6545
2163	0.6505
2172	0.6469
2181	0.6438
2190	0.6433
2199	0.6431
2208	0.64
2217	0.6354
2226	0.6283
2235	0.6209
2244	0.6136
2253	0.6062
2262	0.5988
2271	0.5924
2280	0.5875
2289	0.5851
2298	0.5828
2307	0.5803
2316	0.578
2325	0.5762
2334	0.5745
2343	0.5727
2352	0.5705
2361	0.5676
2370	0.5647
2379	0.5614
2388	0.5577
2397	0.554
2406	0.5501
2415	0.5455
2424	0.5408
2433	0.5356
2442	0.5304
2451	0.525
2460	0.5197
2469	0.5144
2478	0.5092
2487	0.504
2496	0.5009
2505	0.4986
2514	0.4992
2523	0.5005
2532	0.5003
2541	0.4984
2550	0.4929
2559	0.4857
2568	0.479
2577	0.4725
2586	0.4686
2595	0.4762
2604	0.4834
2613	0.4916
2622	0.4974
2631	0.497
2640	0.4943
2649	0.4912
2658	0.4875
2667	0.4835
2676	0.4794
2685	0.4753
2694	0.471
2703	0.4678
2712	0.4717
2721	0.4796
2730	0.4818
2739	0.4812
2748	0.4792
2757	0.4754
2766	0.4697
2775	0.4631
2784	0.4565
2793	0.4498
2802	0.4426
2811	0.4355
2820	0.4287
2829	0.4245
2838	0.4191
2847	0.4112
2856	0.4135
2865	0.4166
2874	0.4193
2883	0.419
2892	0.4174
2901	0.4147
2910	0.4112
2919	0.4087
2928	0.4099
2937	0.4137
2946	0.4162
2955	0.4154
2964	0.4139
2973	0.4098
2982	0.4087
2991	0.4155
3000	0.4246
3009	0.4295
3018	0.4342
3027	0.4409
3036	0.4475
3045	0.4514
3054	0.451
3063	0.4512
3072	0.4547
3081	0.4616
3090	0.4719
3099	0.4828
3108	0.4901
3117	0.4966
3126	0.5012
3135	0.5058
3144	0.51
3153	0.5136
3162	0.5171
3171	0.5202
3180	0.5233
3189	0.5262
3198	0.5286
3207	0.5309
3216	0.5333
3225	0.5349
3234	0.5365
3243	0.5381
3252	0.5397
3261	0.5402
3270	0.5407
3279	0.541
3288	0.5409
3297	0.5405
3306	0.5399
3315	0.5393
3324	0.538
3333	0.5362
3342	0.5344
3351	0.5327
3360	0.5308
3369	0.5287
3378	0.5267
3387	0.5246
3396	0.5226
3405	0.5205
3414	0.5185
3423	0.5167
3432	0.5149
3441	0.513
3450	0.5112
3459	0.5094
3468	0.5076
3477	0.5057
3486	0.5042
3495	0.5027
3504	0.5014
3513	0.4999
3522	0.4985
3531	0.4971
3540	0.496
3549	0.4949
3558	0.4939
3567	0.4923
3576	0.4898
3585	0.4886
3594	0.4853
3603	0.4823
3612	0.4797
3621	0.4779
3630	0.476
3639	0.4743
3648	0.4725
3657	0.471
3666	0.4696
3675	0.4681
3684	0.4666
3693	0.4654
3702	0.4646
3711	0.4637
3720	0.4628
3729	0.4619
3738	0.461
3747	0.4602
3756	0.4593
3765	0.4583
3774	0.4574
3783	0.4562
3792	0.4552
3801	0.454
