Infrared Spectrum: Mercury, ethyl(1,4,5,6,7,7-hexachloro-5-norbornene-2,3,-dicarboximido)
Formula: C11 H7 Cl6 N O2 Hg
CAS: 2597-93-5
State: SOLID (SPLIT MULL), FLUOROLUBE FOR 3800-1330 CM^-^1, NUJOL FOR 1330-460 CM^-^1
Melting point: 191 C
Class: COBLENTZ III
Instrument: DOW KBr FOREPRISM-GRATING
Instrument parameters: BLAZED AT 3.5, 12.0, 20.0 MICRON AND CHANGED AT 5.0, 7.5, 14.9 MICRON
Sampling: TRANSMISSION
Resolution: 2
Origin: DOW CHEMICAL COMPANY
1/CM	TRANSMITTANCE
459	0.7748
468	0.775
477	0.7784
486	0.7875
495	0.7913
504	0.7908
513	0.7835
522	0.7302
531	0.6558
540	0.7678
549	0.7884
558	0.7993
567	0.8034
576	0.8081
585	0.8131
594	0.8179
603	0.822
612	0.8249
621	0.828
630	0.8293
639	0.8164
648	0.7477
657	0.6659
666	0.8208
675	0.8485
684	0.7442
693	0.4303
702	0.8131
711	0.8442
720	0.8169
729	0.8345
738	0.8487
747	0.8504
756	0.8212
765	0.7009
774	0.7917
783	0.8657
792	0.8681
801	0.8638
810	0.8479
819	0.7896
828	0.4376
837	0.8586
846	0.8654
855	0.8698
864	0.8705
873	0.8689
882	0.865
891	0.8596
900	0.8503
909	0.7082
918	0.8386
927	0.8445
936	0.8086
945	0.8584
954	0.8595
963	0.8514
972	0.8369
981	0.8401
990	0.7584
999	0.8397
1008	0.8546
1017	0.8437
1026	0.8114
1035	0.8048
1044	0.8317
1053	0.8277
1062	0.7912
1071	0.4843
1080	0.7748
1089	0.7519
1098	0.544
1107	0.81
1116	0.8415
1125	0.8436
1134	0.842
1143	0.8397
1152	0.8131
1161	0.6849
1170	0.7232
1179	0.8077
1188	0.7724
1197	0.6282
1206	0.6788
1215	0.7707
1224	0.575
1233	0.2252
1242	0.5697
1251	0.7639
1260	0.6951
1269	0.6939
1278	0.512
1287	0.6096
1296	0.6627
1305	0.727
1314	0.701
1323	0.486
1332	0.2109
1341	0.2662
1350	0.5119
1359	0.7191
1368	0.7961
1377	0.8078
1386	0.819
1395	0.8216
1404	0.8209
1413	0.8232
1422	0.8185
1431	0.8136
1440	0.8289
1449	0.797
1458	0.7853
1467	0.8392
1476	0.8449
1485	0.8475
1494	0.8477
1503	0.8448
1512	0.84
1521	0.8374
1530	0.8383
1539	0.8404
1548	0.835
1557	0.8239
1566	0.8129
1575	0.8083
1584	0.7835
1593	0.6516
1602	0.7997
1611	0.7995
1620	0.7693
1629	0.7127
1638	0.6181
1647	0.4726
1656	0.2183
1665	0.0867
1674	0.0517
1683	0.4538
1692	0.7782
1701	0.8523
1710	0.8661
1719	0.8604
1728	0.8583
1737	0.8465
1746	0.7099
1755	0.8637
1764	0.8731
1773	0.877
1782	0.8766
1791	0.8767
1800	0.8774
1809	0.8782
1818	0.8791
1827	0.8805
1836	0.8811
1845	0.8795
1854	0.8769
1863	0.8739
1872	0.8714
1881	0.8723
1890	0.8775
1899	0.878
1908	0.8768
1917	0.8744
1926	0.8729
1935	0.8754
1944	0.8759
1953	0.8774
1962	0.8714
1971	0.8677
1980	0.867
1989	0.8671
1998	0.8723
2007	0.919
2016	0.9172
2025	0.9147
2034	0.913
2043	0.9122
2052	0.9114
2061	0.9108
2070	0.903
2079	0.9076
2088	0.9054
2097	0.9037
2106	0.902
2115	0.9004
2124	0.8991
2133	0.8976
2142	0.8962
2151	0.8947
2160	0.8933
2169	0.8917
2178	0.8903
2187	0.8883
2196	0.8864
2205	0.8844
2214	0.8824
2223	0.8799
2232	0.8757
2241	0.8716
2250	0.868
2259	0.8647
2268	0.8616
2277	0.859
2286	0.857
2295	0.8549
2304	0.8535
2313	0.8558
2322	0.8615
2331	0.8617
2340	0.8601
2349	0.8584
2358	0.8567
2367	0.855
2376	0.8534
2385	0.8519
2394	0.8505
2403	0.8492
2412	0.8482
2421	0.8472
2430	0.8462
2439	0.8452
2448	0.8442
2457	0.8432
2466	0.8423
2475	0.8413
2484	0.8404
2493	0.8395
2502	0.8386
2511	0.8377
2520	0.8362
2529	0.8346
2538	0.833
2547	0.8316
2556	0.8316
2565	0.8333
2574	0.8355
2583	0.8367
2592	0.8366
2601	0.8358
2610	0.8342
2619	0.8322
2628	0.8304
2637	0.8286
2646	0.8264
2655	0.8242
2664	0.8214
2673	0.8185
2682	0.8156
2691	0.8128
2700	0.8101
2709	0.8077
2718	0.8055
2727	0.8037
2736	0.8036
2745	0.8025
2754	0.8016
2763	0.8004
2772	0.7988
2781	0.7965
2790	0.7934
2799	0.7896
2808	0.785
2817	0.7799
2826	0.7739
2835	0.767
2844	0.758
2853	0.7438
2862	0.7005
2871	0.7186
2880	0.7579
2889	0.7493
2898	0.7374
2907	0.7195
2916	0.6708
2925	0.6918
2934	0.7147
2943	0.6991
2952	0.6651
2961	0.6668
2970	0.7031
2979	0.6951
2988	0.7579
2997	0.763
3006	0.7645
3015	0.7641
3024	0.7636
3033	0.7625
3042	0.7613
3051	0.76
3060	0.7582
3069	0.7564
3078	0.755
3087	0.7537
3096	0.7525
3105	0.7509
3114	0.7493
3123	0.7478
3132	0.7464
3141	0.745
3150	0.7435
3159	0.7419
3168	0.7403
3177	0.7384
3186	0.7362
3195	0.7339
3204	0.7316
3213	0.7291
3222	0.7265
3231	0.7236
3240	0.7209
3249	0.7208
3258	0.7213
3267	0.7211
3276	0.72
3285	0.7181
3294	0.7157
3303	0.713
3312	0.7101
3321	0.7069
3330	0.7058
3339	0.7053
3348	0.7047
3357	0.7033
3366	0.7012
3375	0.6955
3384	0.681
3393	0.6907
3402	0.699
3411	0.7007
3420	0.701
3429	0.7011
3438	0.7013
3447	0.7006
3456	0.6991
3465	0.6978
3474	0.697
3483	0.6962
3492	0.6953
3501	0.6942
3510	0.6931
3519	0.6919
3528	0.6909
3537	0.6899
3546	0.6889
3555	0.688
3564	0.687
3573	0.686
3582	0.685
3591	0.6836
3600	0.6824
3609	0.681
3618	0.6798
3627	0.6784
3636	0.6772
3645	0.6761
3654	0.6751
3663	0.6742
3672	0.6732
3681	0.6722
3690	0.6709
3699	0.6694
3708	0.6679
3717	0.6663
3726	0.6648
3735	0.6632
3744	0.6616
3753	0.6601
3762	0.6588
3771	0.6582
3780	0.6582
3789	0.6581
3798	0.6573
