Infrared Spectrum: 8-Acetoxyquinoline
Formula: C 11 H 9 N O 2
CAS: 2598-29-0
State: gas
Origin: EPA-IR VAPOR PHASE LIBRARY
1/CM	ABSORBANCE
549.8	0.007109
559.445	0.010739
569.09	0.008869
578.734	0.004929
588.379	0.006229
598.024	0.005709
607.669	0.002699
617.313	0.002989
626.958	0.002539
636.603	0.001789
646.248	0.001929
655.893	0.002469
665.537	0.002699
675.182	0.001519
684.827	0.001027
694.472	0.001389
704.116	0.001779
713.761	0.003369
723.406	0.007359
733.051	0.009029
742.695	0.012589
752.34	0.024109
761.985	0.014099
771.63	0.020629
781.275	0.050609
790.919	0.047749
800.564	0.017079
810.209	0.013509
819.854	0.018019
829.498	0.010269
839.143	0.009309
848.788	0.019509
858.433	0.022909
868.078	0.009679
877.722	0.004979
887.367	0.006359
897.012	0.009489
906.657	0.020479
916.301	0.020329
925.946	0.007409
935.591	0.003529
945.236	0.002439
954.88	0.003849
964.525	0.003629
974.17	0.005359
983.815	0.007609
993.46	0.013229
1003.1	0.019379
1012.75	0.017039
1022.39	0.015809
1032.04	0.011279
1041.68	0.013389
1051.33	0.029759
1060.97	0.027169
1070.62	0.026469
1080.26	0.065189
1089.91	0.079649
1099.55	0.036779
1109.2	0.016259
1118.84	0.012889
1128.49	0.014159
1138.13	0.014659
1147.78	0.015649
1157.42	0.035989
1167.07	0.072949
1176.71	0.102249
1186.36	0.233769
1196	0.374379
1205.64	0.244339
1215.29	0.082739
1224.93	0.042599
1234.58	0.039169
1244.22	0.042909
1253.87	0.022819
1263.51	0.009949
1273.16	0.008349
1282.8	0.007669
1292.45	0.007879
1302.09	0.014129
1311.74	0.019959
1321.38	0.012049
1331.03	0.006119
1340.67	0.008179
1350.32	0.019869
1359.96	0.048779
1369.61	0.070109
1379.25	0.048689
1388.9	0.027169
1398.54	0.015829
1408.18	0.010049
1417.83	0.010549
1427.47	0.012509
1437.12	0.012259
1446.76	0.011529
1456.41	0.015869
1466.05	0.031259
1475.7	0.031039
1485.34	0.026379
1494.99	0.042329
1504.63	0.033649
1514.28	0.010119
1523.92	0.005989
1533.57	0.005189
1543.21	0.004849
1552.86	0.006039
1562.5	0.010339
1572.15	0.013939
1581.79	0.012209
1591.44	0.014559
1601.08	0.014649
1610.73	0.009369
1620.37	0.008869
1630.01	0.008649
1639.66	0.005539
1649.3	0.003919
1658.95	0.003869
1668.59	0.003789
1678.24	0.003489
1687.88	0.003859
1697.53	0.004899
1707.17	0.006209
1716.82	0.007099
1726.46	0.008339
1736.11	0.009489
1745.75	0.013279
1755.4	0.017609
1765.04	0.022989
1774.69	0.045749
1784.33	0.110159
1793.98	0.147919
1803.62	0.071979
1813.27	0.023839
1822.91	0.011969
1832.55	0.007909
1842.2	0.005739
1851.84	0.005799
1861.49	0.005819
1871.13	0.005229
1880.78	0.004379
1890.42	0.003439
1900.07	0.003419
1909.71	0.005059
1919.36	0.005319
1929	0.004069
1938.65	0.003649
1948.29	0.003159
1957.94	0.002199
1967.58	0.001729
1977.23	0.001629
1986.87	0.001579
1996.52	0.001809
2006.16	0.001769
2015.81	0.002029
2025.45	0.002049
2035.1	0.002289
2044.74	0.002559
2054.38	0.002539
2064.03	0.001979
2073.67	0.001459
2083.32	0.001349
2092.96	0.001749
2102.61	0.002029
2112.25	0.001889
2121.9	0.001819
2131.54	0.001759
2141.19	0.001629
2150.83	0.001399
2160.48	0.001509
2170.12	0.001489
2179.77	0.0012011
2189.41	0.0010244
2199.06	0.0008966
2208.7	0.0008647
2218.35	0.0009662
2227.99	0.0010279
2237.64	0.0008911
2247.28	0.0009929
2256.92	0.0010525
2266.57	0.0011213
2276.21	0.0010201
2285.86	0.0009978
2295.5	0.0011253
2305.15	0.0009068
2314.79	0.0011291
2324.44	0.001429
2334.08	0.001419
2343.73	0.0011692
2353.37	0.0009041
2363.02	0.0010583
2372.66	0.0012741
2382.31	0.0012742
2391.95	0.0011195
2401.6	0.0011932
2411.24	0.0010597
2420.89	0.0009984
2430.53	0.001061
2440.18	0.0010863
2449.82	0.0009865
2459.47	0.0010647
2469.11	0.0011306
2478.75	0.0011226
2488.4	0.0009693
2498.04	0.0008834
2507.69	0.0007998
2517.33	0.0007538
2526.98	0.0008266
2536.62	0.0007078
2546.27	0.0008641
2555.91	0.0009668
2565.56	0.0009216
2575.2	0.000997
2584.85	0.000921
2594.49	0.0008965
2604.14	0.0008621
2613.78	0.0008262
2623.43	0.0009268
2633.07	0.0007761
2642.72	0.0006379
2652.36	0.0006948
2662.01	0.0007249
2671.65	0.0007484
2681.29	0.0006633
2690.94	0.000643
2700.58	0.0007857
2710.23	0.0006622
2719.87	0.0006454
2729.52	0.0005128
2739.16	0.0006192
2748.81	0.0006097
2758.45	0.0006868
2768.1	0.0006365
2777.74	0.0008484
2787.39	0.0007788
2797.03	0.0007062
2806.68	0.0006608
2816.32	0.0007411
2825.97	0.0006368
2835.61	0.0008184
2845.26	0.0013041
2854.9	0.001459
2864.55	0.001369
2874.19	0.0010281
2883.84	0.0009906
2893.48	0.0011308
2903.12	0.0011412
2912.77	0.0011144
2922.41	0.001699
2932.06	0.002399
2941.7	0.003919
2951.35	0.005339
2960.99	0.003829
2970.64	0.002969
2980.28	0.002819
2989.93	0.003469
2999.57	0.004659
3009.22	0.007719
3018.86	0.011649
3028.51	0.013989
3038.15	0.017159
3047.8	0.023009
3057.44	0.028189
3067.09	0.026729
3076.73	0.021009
3086.38	0.013179
3096.02	0.009069
3105.67	0.005659
3115.31	0.002779
3124.95	0.0012711
3134.6	0.001359
3144.24	0.0010144
3153.89	0.0010751
3163.53	0.0010909
3173.18	0.0008271
3182.82	0.0010556
3192.47	0.0011958
3202.11	0.0011009
3211.76	0.000559
3221.4	0.0006783
3231.05	0.0006191
3240.69	0.0007278
3250.34	0.0006125
3259.98	0.0004461
3269.63	0.0005131
3279.27	0
3288.92	0.000234
3298.56	0.00043714
3308.21	0.0002589
3317.85	0.00039825
3327.49	0.0005325
3337.14	0.0005371
3346.78	0.0002925
3356.43	0.000345356
3366.07	0.00016
3375.72	0.0004406
3385.36	0.0001
3395.01	0.0006181
3404.65	0.0007351
3414.3	0.000223
3423.94	0.00036705
3433.59	0.0005132
3443.23	0.0005584
3452.88	0.0004644
3462.52	0.0008181
3472.17	0.0005923
3481.81	0.00035873
3491.46	0.0007516
3501.1	0.000501
3510.75	0.0009823
3520.39	0.0009439
3530.04	0.0010669
3539.68	0.0012427
3549.32	0.0013171
3558.97	0.001909
3568.61	0.001829
3578.26	0.001569
3587.9	0.0011978
3597.55	0.000916
3607.19	0.0007914
3616.84	0.0008258
3626.48	0.000744
3636.13	0.0005009
3645.77	0.0006977
3655.42	0.0004083
3665.06	0.000609
3674.71	0.000648
3684.35	0.0004796
3694	0.0002593
3703.64	0.000191
3713.29	0.0005015
3722.93	0.00042207
3732.58	0.000198
3742.22	0.000543
3751.86	0.00041323
3761.51	0.0004593
3771.15	0.00041439
3780.8	0.0005737
3790.44	0.0005142
3800.09	0.000131
3809.73	0.0007219
3819.38	0.00038734
3829.02	0.000613
3838.67	0.0003143
3848.31	0.00053
3857.96	0.0005195
3867.6	0.0006419
3877.25	0.0008534
3886.89	0.0008775
3896.54	0.0005818
3906.18	0.0008582
3915.83	0.0006352
3925.47	0.0006105
3935.12	0.0007322
3944.76	0.0008521
3954.41	0.0006455
3964.05	0.0009853
3973.69	0.0004835
3983.34	0.0009899
3992.98	0.0006905
