Infrared Spectrum: 4-MORPHOLINESULFONAMIDE
Formula: C4 H10 N2 O3 S
CAS: 25999-04-6
State: SOLID (1 mg / 500 mg KBr DISC)
Class: COBLENTZ III
Instrument: PERKIN-ELMER 621
Sampling: TRANSMISSION
Resolution: 4
Origin: SOUTHERN RESEARCH INSTITUTE
1/CM	TRANSMITTANCE
284.771	0.221
295.334	0.3548
305.898	0.419
316.461	0.467
327.025	0.486
337.588	0.526
348.152	0.56
358.715	0.576
369.279	0.559
379.842	0.528
390.405	0.526
400.969	0.623
411.532	0.631
422.096	0.607
432.659	0.597
443.223	0.619
453.786	0.612
464.349	0.603
474.913	0.593
485.476	0.56
496.04	0.557
506.603	0.535
517.167	0.49
527.73	0.398
538.294	0.227
548.857	0.246
559.42	0.4889
569.984	0.607
580.547	0.628
591.111	0.643
601.674	0.661
612.238	0.6481
622.801	0.601
633.365	0.465
643.928	0.631
654.491	0.65
665.055	0.652
675.618	0.662
686.182	0.679
696.745	0.69
707.309	0.685
717.872	0.5771
728.435	0.194
738.999	0.5699
749.562	0.671
760.126	0.717
770.689	0.744
781.253	0.758
791.816	0.772
802.38	0.774
812.943	0.77
823.506	0.757
834.07	0.719
844.633	0.551
855.197	0.652
865.76	0.66
876.324	0.582
886.887	0.501
897.45	0.385
908.014	0.308
918.577	0.43
929.141	0.2511
939.704	0.156
950.268	0.32
960.831	0.557
971.395	0.673
981.958	0.765
992.521	0.826
1003.08	0.842
1013.65	0.816
1024.21	0.6711
1034.78	0.78
1045.34	0.753
1055.9	0.662
1066.47	0.3839
1077.03	0.2581
1087.59	0.624
1098.16	0.4821
1108.72	0.108
1119.28	0.3811
1129.85	0.502
1140.41	0.3221
1150.97	0.166
1161.54	0.167
1172.1	0.293
1182.66	0.4891
1193.23	0.627
1203.79	0.7
1214.35	0.708
1224.92	0.77
1235.48	0.784
1246.04	0.79
1256.61	0.6651
1267.17	0.2451
1277.73	0.748
1288.3	0.7238
1298.86	0.4271
1309.42	0.667
1319.99	0.538
1330.55	0.324
1341.11	0.3799
1351.68	0.08
1362.24	0.291
1372.81	0.418
1383.37	0.564
1393.93	0.5779
1404.5	0.635
1415.06	0.7
1425.62	0.737
1436.19	0.757
1446.75	0.7149
1457.31	0.538
1467.88	0.607
1478.44	0.707
1489	0.758
1499.57	0.79
1510.13	0.797
1520.69	0.8
1531.26	0.795
1541.82	0.778
1552.38	0.7299
1562.95	0.603
1573.51	0.674
1584.07	0.748
1594.64	0.769
1605.2	0.763
1615.76	0.759
1626.33	0.759
1636.89	0.786
1647.45	0.803
1658.02	0.811
1668.58	0.839
1679.15	0.864
1689.71	0.872
1700.27	0.876
1710.84	0.887
1721.4	0.895
1731.96	0.901
1742.53	0.902
1753.09	0.906
1763.65	0.91
1774.22	0.906
1784.78	0.904
1795.34	0.905
1805.91	0.916
1816.47	0.925
1827.03	0.926
1837.6	0.926
1848.16	0.925
1858.72	0.929
1869.29	0.923
1879.85	0.93
1890.41	0.934
1900.98	0.938
1911.54	0.94
1922.1	0.931
1932.67	0.931
1943.23	0.919
1953.79	0.904
1964.36	0.913
1974.92	0.93
1985.48	0.931
1996.05	0.927
2006.61	0.926
2017.18	0.925
2027.74	0.919
2038.3	0.916
2048.87	0.912
2059.43	0.9159
2069.99	0.918
2080.56	0.925
2091.12	0.9329
2101.68	0.934
2112.25	0.939
2122.81	0.939
2133.37	0.937
2143.94	0.9352
2154.5	0.934
2165.06	0.9331
2175.63	0.93
2186.19	0.929
2196.75	0.929
2207.32	0.929
2217.88	0.9287
2228.44	0.931
2239.01	0.931
2249.57	0.935
2260.13	0.937
2270.7	0.938
2281.26	0.937
2291.82	0.937
2302.39	0.935
2312.95	0.9388
2323.51	0.942
2334.08	0.942
2344.64	0.943
2355.21	0.944
2365.77	0.944
2376.33	0.944
2386.9	0.944
2397.46	0.944
2408.02	0.944
2418.59	0.944
2429.15	0.944
2439.71	0.943
2450.28	0.9406
2460.84	0.9356
2471.4	0.931
2481.97	0.927
2492.53	0.925
2503.09	0.9337
2513.66	0.939
2524.22	0.942
2534.78	0.9434
2545.35	0.938
2555.91	0.937
2566.47	0.9344
2577.04	0.9318
2587.6	0.9254
2598.16	0.9164
2608.73	0.906
2619.29	0.8924
2629.85	0.8782
2640.42	0.8459
2650.98	0.839
2661.54	0.8517
2672.11	0.8687
2682.67	0.874
2693.24	0.8736
2703.8	0.8941
2714.36	0.898
2724.93	0.9005
2735.49	0.9005
2746.05	0.9
2756.62	0.9015
2767.18	0.9005
2777.74	0.902
2788.31	0.902
2798.87	0.902
2809.43	0.892
2820	0.8736
2830.56	0.8557
2841.12	0.8158
2851.69	0.7638
2862.25	0.6336
2872.81	0.5623
2883.38	0.745
2893.94	0.7371
2904.5	0.692
2915.07	0.6774
2925.63	0.6696
2936.19	0.7023
2946.76	0.7161
2957.32	0.7677
2967.88	0.7515
2978.45	0.6886
2989.01	0.6206
2999.57	0.6794
3010.14	0.7053
3020.7	0.679
3031.27	0.6487
3041.83	0.6091
3052.39	0.5579
3062.96	0.4989
3073.52	0.4085
3084.08	0.3633
3094.65	0.3952
3105.21	0.4626
3115.77	0.493
3126.34	0.492
3136.9	0.482
3147.46	0.4595
3158.03	0.4218
3168.59	0.364
3179.15	0.3109
3189.72	0.3059
3200.28	0.3374
3210.84	0.3758
3221.41	0.3984
3231.97	0.4144
3242.53	0.4222
3253.1	0.4168
3263.66	0.4035
3274.22	0.3752
3284.79	0.3308
3295.35	0.2816
3305.91	0.246
3316.48	0.2575
3327.04	0.2917
3337.61	0.3345
3348.17	0.3598
3358.73	0.3933
3369.3	0.4172
3379.86	0.444
3390.42	0.4671
3400.99	0.488
3411.55	0.5001
3422.11	0.5151
3432.68	0.528
3443.24	0.5431
3453.8	0.5591
3464.37	0.572
3474.93	0.5851
3485.49	0.591
3496.06	0.608
3506.62	0.618
3517.18	0.64
3527.75	0.657
3538.31	0.675
3548.87	0.691
3559.44	0.711
3570	0.725
3580.56	0.7399
3591.13	0.7569
3601.69	0.7719
3612.25	0.7899
3622.82	0.8009
3633.38	0.8139
3643.94	0.8247
3654.51	0.829
3665.07	0.8281
3675.64	0.8318
3686.2	0.8389
3696.76	0.847
3707.33	0.847
3717.89	0.849
3728.45	0.851
3739.02	0.849
3749.58	0.8532
3760.14	0.854
3770.71	0.851
3781.27	0.853
3791.83	0.853
3802.4	0.851
3812.96	0.851
3823.52	0.85
3834.09	0.85
3844.65	0.853
3855.21	0.854
3865.78	0.8508
3876.34	0.854
3886.9	0.853
3897.47	0.8518
3908.03	0.851
3918.59	0.851
3929.16	0.8532
3939.72	0.856
3950.28	0.8543
3960.85	0.851
3971.41	0.85
3981.97	0.849
3992.54	0.847
