Infrared Spectrum: Acridine
Formula: C 13 H 9 N
CAS: 260-94-6
State: gas
Instrument: HP-GC/MS/IRD
Origin: NIST Mass Spectrometry Data Center
1/CM	ABSORBANCE
550	0.0004128
562	2.64e-05
574	6.24e-05
586	0.0007752
598	0.0033024
610	0.0013392
622	0.0006576
634	0.0003528
646	0.000648
658	0.0006696
670	0.000324
682	0.0001416
694	0.0002856
706	0.0009264
718	0.0061296
730	0.0212856
742	0.0136968
754	0.0023784
766	0.00084
778	0.0018312
790	0.001728
802	0.0007992
814	0.0010656
826	0.0004032
838	0.0017496
850	0.0044184
862	0.0020664
874	0.0005496
886	0.001092
898	0.0034368
910	0.0028512
922	0.0010416
934	0.0002616
946	0.0007128
958	0.001044
970	0.000408
982	0.0005064
994	0.001872
1006	0.0005424
1018	8.4e-05
1030	2.4e-05
1042	0.0001512
1054	0.0001848
1066	0.0004224
1078	0.0002856
1090	0.0001368
1102	0.0008328
1114	0.0013224
1126	0.0011976
1138	0.001968
1150	0.0014208
1162	0.0004704
1174	0.0003528
1186	4.56e-05
1198	0.00012
1210	0.000204
1222	0.0001728
1234	0.0002232
1246	0.0001536
1258	9.12e-05
1270	0.0001824
1282	0.0002088
1294	0.000144
1306	0.0001416
1318	0.0002184
1330	0.0002328
1342	0.0002808
1354	0.0002904
1366	0.0006672
1378	0.0008592
1390	0.0011688
1402	0.0010656
1414	0.000432
1426	0.00024
1438	0.0003336
1450	0.0005472
1462	0.0009672
1474	0.000816
1486	0.0008136
1498	0.0020928
1510	0.0082032
1522	0.005172
1534	0.0010152
1546	0.0012288
1558	0.0019584
1570	0.0017112
1582	0.0012816
1594	0.0007056
1606	0.0014352
1618	0.0048696
1630	0.002808
1642	0.000768
1654	0.0004104
1666	0.0003048
1678	0.0005808
1690	0.0007032
1702	0.0007056
1714	0.0009336
1726	0.0004248
1738	0.000372
1750	0.000456
1762	0.000408
1774	0.0001536
1786	0.0002808
1798	0.0007704
1810	0.0009912
1822	0.0011376
1834	0.0004008
1846	0.0002688
1858	0.0004392
1870	0.000192
1882	0.0001416
1894	0.0003408
1906	0.000732
1918	0.0005016
1930	0.0005784
1942	0.0010656
1954	0.0006264
1966	0.0001128
1978	7.92e-05
1990	5.52e-05
2002	7.2e-05
2014	0.0001032
2026	0.0001104
2038	8.64e-05
2050	8.4e-05
2062	4.08e-05
2074	2.64e-05
2086	2.88e-05
2098	6e-05
2110	7.44e-05
2122	6e-05
2134	4.8e-05
2146	4.32e-05
2158	4.32e-05
2170	4.56e-05
2182	3.84e-05
2194	8.88e-05
2206	6e-05
2218	8.16e-05
2230	6.24e-05
2242	7.44e-05
2254	0.0001008
2266	0.0001728
2278	0.0002352
2290	0.0001512
2302	0.0001176
2314	0.0001056
2326	0.0001056
2338	6.48e-05
2350	2.88e-05
2362	7.44e-05
2374	0.0001008
2386	0.000108
2398	8.4e-05
2410	7.44e-05
2422	6.72e-05
2434	7.92e-05
2446	6.24e-05
2458	6.48e-05
2470	4.32e-05
2482	3.84e-05
2494	3.36e-05
2506	6e-05
2518	7.44e-05
2530	9.6e-05
2542	8.4e-05
2554	6.24e-05
2566	6.48e-05
2578	8.4e-05
2590	7.68e-05
2602	4.8e-05
2614	5.76e-05
2626	2.16e-05
2638	5.28e-05
2650	3.84e-05
2662	3.6e-05
2674	4.32e-05
2686	5.52e-05
2698	4.8e-05
2710	1.92e-05
2722	3.6e-05
2734	1.92e-05
2746	3.36e-05
2758	3.36e-05
2770	5.28e-05
2782	5.04e-05
2794	4.8e-06
2806	3.6e-05
2818	2.88e-05
2830	6e-05
2842	0.0001272
2854	0.0001392
2866	8.88e-05
2878	9.6e-05
2890	0.0001392
2902	0.000228
2914	0.0002136
2926	0.0001992
2938	0.0001968
2950	0.0001848
2962	0.000216
2974	0.0003624
2986	0.0006408
2998	0.0011472
3010	0.0016368
3022	0.002892
3034	0.00498
3046	0.0064464
3058	0.008472
3070	0.0082128
3082	0.0078864
3094	0.004728
3106	0.0012288
3118	0.0005064
3130	0.0003384
3142	0.0002616
3154	0.0002184
3166	0.0001944
3178	0.0001944
3190	0.0001584
3202	0.0001368
3214	9.12e-05
3226	3.84e-05
3238	7.2e-05
3250	8.88e-05
3262	0.0001032
3274	3.36e-05
3286	5.76e-05
3298	3.84e-05
3310	5.28e-05
3322	9.12e-05
3334	7.92e-05
3346	5.28e-05
3358	7.2e-05
3370	5.52e-05
3382	5.28e-05
3394	4.8e-05
3406	4.8e-05
3418	5.04e-05
3430	8.88e-05
3442	7.68e-05
3454	6.48e-05
3466	8.16e-05
3478	5.76e-05
3490	6e-05
3502	3.12e-05
3514	6.48e-05
3526	7.2e-06
3538	0.0001056
3550	4.56e-05
3562	3.84e-05
3574	7.44e-05
3586	0
3598	7.68e-05
3610	3.84e-05
3622	0.0001056
3634	8.4e-05
3646	8.16e-05
3658	0.0001056
3670	5.76e-05
3682	0.0001104
3694	0.0001176
3706	0.0001272
3718	0.0001248
3730	9.12e-05
3742	6.24e-05
3754	6.48e-05
3766	6e-05
3778	9.36e-05
3790	8.88e-05
3802	9.6e-05
3814	0.00012
3826	0.0001416
3838	5.04e-05
