Infrared Spectrum: 9H-PURINE-6(1H)-THIONE, 1-METHYL-9-Beta-D-RIBOFURANOSYL-
Formula: C11 H14 N4 O4 S
CAS: 26001-41-2
State: SOLID (1 mg / 650 mg KBr DISC)
Class: COBLENTZ III
Instrument: PERKIN-ELMER 521 (GRATING)
Instrument parameters: FILTERS AT 3150, 2500, 2000, 1150, 700, 410. GRATING CHANGES: 2000, 630 CM^-^1
Sampling: TRANSMISSION
Resolution: 2
Origin: SOUTHERN RESEARCH INSTITUTE
1/CM	TRANSMITTANCE
248.072	0.308
258.311	0.3796
268.55	0.4684
278.789	0.5064
289.028	0.6017
299.267	0.6397
309.505	0.6282
319.744	0.6638
329.983	0.6774
340.222	0.6898
350.461	0.6971
360.7	0.7347
370.939	0.7257
381.178	0.7077
391.417	0.73
401.656	0.7549
411.894	0.7714
422.133	0.769
432.372	0.694
442.611	0.7802
452.85	0.8053
463.089	0.809
473.328	0.809
483.567	0.806
493.806	0.801
504.045	0.7969
514.283	0.7879
524.522	0.7769
534.761	0.7616
545	0.664
555.239	0.7251
565.478	0.6736
575.717	0.6308
585.956	0.646
596.195	0.6855
606.434	0.6918
616.673	0.5618
626.911	0.7327
637.15	0.7523
647.389	0.3526
657.628	0.7538
667.867	0.5878
678.106	0.7231
688.345	0.7193
698.584	0.779
708.823	0.8319
719.062	0.8229
729.3	0.6358
739.539	0.846
749.778	0.89
760.017	0.8869
770.256	0.8436
780.495	0.7196
790.734	0.9254
800.973	0.9295
811.212	0.9169
821.451	0.9029
831.689	0.8891
841.928	0.8005
852.167	0.7573
862.406	0.6164
872.645	0.7971
882.884	0.4976
893.123	0.6048
903.362	0.8028
913.601	0.871
923.84	0.8333
934.079	0.6821
944.317	0.694
954.556	0.8764
964.795	0.8436
975.034	0.7027
985.273	0.79
995.512	0.8085
1005.75	0.5992
1015.99	0.7199
1026.23	0.6698
1036.47	0.4785
1046.71	0.343
1056.95	0.2857
1067.18	0.3504
1077.42	0.3289
1087.66	0.6428
1097.9	0.5918
1108.14	0.3179
1118.38	0.4923
1128.62	0.3513
1138.86	0.5409
1149.1	0.388
1159.33	0.7476
1169.57	0.7811
1179.81	0.6953
1190.05	0.4609
1200.29	0.7205
1210.53	0.6981
1220.77	0.5249
1231.01	0.5132
1241.25	0.6506
1251.48	0.475
1261.72	0.4023
1271.96	0.7496
1282.2	0.616
1292.44	0.5973
1302.68	0.7279
1312.92	0.6258
1323.16	0.7426
1333.4	0.6442
1343.63	0.7404
1353.87	0.7285
1364.11	0.7188
1374.35	0.7423
1384.59	0.6136
1394.83	0.4758
1405.07	0.4291
1415.31	0.3086
1425.55	0.668
1435.78	0.7596
1446.02	0.7
1456.26	0.768
1466.5	0.7568
1476.74	0.7611
1486.98	0.5198
1497.22	0.3076
1507.46	0.6342
1517.7	0.7547
1527.93	0.792
1538.17	0.5079
1548.41	0.666
1558.65	0.6997
1568.89	0.6065
1579.13	0.4999
1589.37	0.2485
1599.61	0.104
1609.85	0.6419
1620.09	0.7401
1630.32	0.7947
1640.56	0.8418
1650.8	0.8826
1661.04	0.9169
1671.28	0.9325
1681.52	0.944
1691.76	0.95
1702	0.9498
1712.24	0.948
1722.47	0.948
1732.71	0.95
1742.95	0.958
1753.19	0.954
1763.43	0.9391
1773.67	0.893
1783.91	0.9293
1794.15	0.963
1804.39	0.967
1814.62	0.972
1824.86	0.972
1835.1	0.969
1845.34	0.967
1855.58	0.9644
1865.82	0.9594
1876.06	0.9303
1886.3	0.9336
1896.54	0.9555
1906.77	0.963
1917.01	0.963
1927.25	0.9586
1937.49	0.9563
1947.73	0.954
1957.97	0.957
1968.21	0.959
1978.45	0.959
1988.69	0.955
1998.92	0.9498
2009.16	0.945
2019.4	0.9427
2029.64	0.941
2039.88	0.941
2050.12	0.941
2060.36	0.94
2070.6	0.939
2080.84	0.938
2091.07	0.936
2101.31	0.9358
2111.55	0.935
2121.79	0.934
2132.03	0.934
2142.27	0.934
2152.51	0.934
2162.75	0.934
2172.99	0.9337
2183.22	0.931
2193.46	0.93
2203.7	0.931
2213.94	0.9298
2224.18	0.9248
2234.42	0.921
2244.66	0.922
2254.9	0.922
2265.14	0.922
2275.37	0.924
2285.61	0.922
2295.85	0.9208
2306.09	0.917
2316.33	0.914
2326.57	0.91
2336.81	0.908
2347.05	0.906
2357.29	0.906
2367.52	0.907
2377.76	0.906
2388	0.9028
2398.24	0.9
2408.48	0.897
2418.72	0.897
2428.96	0.893
2439.2	0.892
2449.44	0.891
2459.68	0.89
2469.91	0.888
2480.15	0.8878
2490.39	0.884
2500.63	0.8838
2510.87	0.883
2521.11	0.8807
2531.35	0.8772
2541.59	0.8778
2551.83	0.876
2562.06	0.8757
2572.3	0.872
2582.54	0.867
2592.78	0.863
2603.02	0.863
2613.26	0.863
2623.5	0.8598
2633.74	0.857
2643.98	0.855
2654.21	0.855
2664.45	0.855
2674.69	0.8538
2684.93	0.8488
2695.17	0.8448
2705.41	0.8398
2715.65	0.831
2725.89	0.829
2736.13	0.834
2746.36	0.838
2756.6	0.8297
2766.84	0.821
2777.08	0.817
2787.32	0.8158
2797.56	0.812
2807.8	0.8068
2818.04	0.802
2828.28	0.796
2838.51	0.7828
2848.75	0.7678
2858.99	0.7257
2869.23	0.7548
2879.47	0.7554
2889.71	0.6887
2899.95	0.711
2910.19	0.6608
2920.43	0.6494
2930.66	0.6502
2940.9	0.5577
2951.14	0.7248
2961.38	0.753
2971.62	0.731
2981.86	0.753
2992.1	0.747
3002.34	0.7417
3012.58	0.7327
3022.81	0.6984
3033.05	0.644
3043.29	0.682
3053.53	0.6557
3063.77	0.6455
3074.01	0.6068
3084.25	0.5493
3094.49	0.3277
3104.73	0.6287
3114.96	0.7183
3125.2	0.7067
3135.44	0.691
3145.68	0.6828
3155.92	0.6695
3166.16	0.6524
3176.4	0.6337
3186.64	0.6105
3196.88	0.5957
3207.12	0.5795
3217.35	0.5552
3227.59	0.5298
3237.83	0.5081
3248.07	0.4834
3258.31	0.4606
3268.55	0.4335
3278.79	0.4048
3289.03	0.3872
3299.27	0.3585
3309.5	0.3341
3319.74	0.3074
3329.98	0.2925
3340.22	0.285
3350.46	0.2923
3360.7	0.3082
3370.94	0.3263
3381.18	0.3352
3391.42	0.3462
3401.65	0.3522
3411.89	0.361
3422.13	0.366
3432.37	0.371
3442.61	0.378
3452.85	0.379
3463.09	0.378
3473.33	0.374
3483.57	0.3617
3493.8	0.3444
3504.04	0.3064
3514.28	0.2978
3524.52	0.3474
3534.76	0.4294
3545	0.4964
3555.24	0.5632
3565.48	0.6174
3575.72	0.6651
3585.95	0.7058
3596.19	0.7386
3606.43	0.7615
3616.67	0.7883
3626.91	0.8123
3637.15	0.8263
3647.39	0.8363
3657.63	0.8442
3667.87	0.845
3678.1	0.8438
3688.34	0.845
3698.58	0.852
3708.82	0.854
3719.06	0.854
3729.3	0.854
3739.54	0.8528
3749.78	0.8517
3760.02	0.849
3770.25	0.849
3780.49	0.847
3790.73	0.849
3800.97	0.8442
3811.21	0.841
3821.45	0.839
3831.69	0.836
3841.93	0.834
3852.17	0.831
3862.4	0.829
3872.64	0.8288
3882.88	0.826
3893.12	0.825
3903.36	0.821
3913.6	0.82
3923.84	0.815
3934.08	0.8148
3944.32	0.812
3954.55	0.8098
3964.79	0.8073
3975.03	0.805
3985.27	0.8018
3995.51	0.8018
