Infrared Spectrum: Sumithrin
Formula: C 23 H 26 O 3
CAS: 26002-80-2
State: gas
Instrument: HP-GC/MS/IRD
Origin: NIST Mass Spectrometry Data Center
1/CM	ABSORBANCE
550	0.0008722
562	0.0004802
574	0.0004557
586	0.0004998
598	0.0002695
610	0.0001421
622	0.0001372
634	0.0001176
646	0.0002205
658	0.0006517
670	0.0010682
682	0.0035378
694	0.0074382
706	0.0026166
718	0.0016268
730	0.0022246
742	0.0035868
754	0.0049343
766	0.0055272
778	0.0055615
790	0.0046844
802	0.0033418
814	0.003185
826	0.0034447
838	0.0033418
850	0.0045962
862	0.0038171
874	0.0034643
886	0.0030282
898	0.0031801
910	0.0033712
922	0.0037779
934	0.0042189
946	0.0042336
958	0.0036701
970	0.0034202
982	0.0037485
994	0.0037044
1006	0.0035917
1018	0.0054684
1030	0.0054537
1042	0.0043316
1054	0.0057575
1066	0.0066003
1078	0.0055762
1090	0.0048804
1102	0.006419
1114	0.0122941
1126	0.0144844
1138	0.0284837
1150	0.049
1162	0.0316589
1174	0.016562
1186	0.0149989
1198	0.016611
1210	0.0238042
1222	0.0269402
1234	0.0272832
1246	0.0367745
1258	0.0403221
1270	0.0236278
1282	0.0155379
1294	0.0100009
1306	0.007595
1318	0.0077567
1330	0.0064631
1342	0.0071491
1354	0.0073745
1366	0.0068453
1378	0.0080703
1390	0.0068747
1402	0.005439
1414	0.0071785
1426	0.0084672
1438	0.0104713
1450	0.0139846
1462	0.010437
1474	0.0109907
1486	0.0268128
1498	0.0131075
1510	0.0036505
1522	0.0022736
1534	0.0019012
1546	0.0022491
1558	0.00392
1570	0.0091826
1582	0.018865
1594	0.0150479
1606	0.0076979
1618	0.0036897
1630	0.0016954
1642	0.0012789
1654	0.001225
1666	0.0012005
1678	0.0012299
1690	0.0016415
1702	0.0024647
1714	0.0038759
1726	0.0094472
1738	0.0266413
1750	0.0164297
1762	0.0051401
1774	0.0028322
1786	0.0016219
1798	0.0010388
1810	0.0007399
1822	0.0006811
1834	0.0006566
1846	0.0006713
1858	0.0007007
1870	0.0005635
1882	0.0003871
1894	0.0003332
1906	0.000392
1918	0.0006272
1930	0.0008085
1942	0.0005635
1954	0.0004214
1966	0.0003626
1978	0.0003822
1990	0.0004018
2002	0.0003479
2014	0.000343
2026	0.0004067
2038	0.0004851
2050	0.0004557
2062	0.0003822
2074	0.0002989
2086	0.0002548
2098	0.0002058
2110	0.0001372
2122	6.86e-05
2134	4.9e-05
2146	5.39e-05
2158	5.88e-05
2170	7.35e-05
2182	5.88e-05
2194	2.94e-05
2206	2.94e-05
2218	3.92e-05
2230	4.9e-06
2242	0
2254	1.47e-05
2266	9.8e-06
2278	5.39e-05
2290	9.31e-05
2302	0.0001372
2314	0.000196
2326	0.0001617
2338	0.0001078
2350	0.0001176
2362	0.0001372
2374	0.0001813
2386	0.0002548
2398	0.0002989
2410	0.0003185
2422	0.0003136
2434	0.0002793
2446	0.0002303
2458	0.000196
2470	0.0001274
2482	0.0001323
2494	0.0001519
2506	0.0001274
2518	7.84e-05
2530	9.31e-05
2542	0.0001127
2554	0.0001176
2566	5.88e-05
2578	7.84e-05
2590	8.33e-05
2602	8.33e-05
2614	8.33e-05
2626	6.86e-05
2638	3.92e-05
2650	6.37e-05
2662	3.92e-05
2674	6.86e-05
2686	5.39e-05
2698	0.0001029
2710	0.0001862
2722	0.0002499
2734	0.0004655
2746	0.0006615
2758	0.0004655
2770	0.0003381
2782	0.0003626
2794	0.0003626
2806	0.0004753
2818	0.0007399
2830	0.0009996
2842	0.0014504
2854	0.002597
2866	0.004802
2878	0.0065268
2890	0.0068992
2902	0.0068061
2914	0.0084231
2926	0.0114415
2938	0.0110201
2950	0.0116865
2962	0.0105497
2974	0.0084427
2986	0.0069041
2998	0.0046109
3010	0.0034006
3022	0.0035378
3034	0.0046991
3046	0.0055125
3058	0.0045913
3070	0.0049833
3082	0.0052528
3094	0.0030674
3106	0.0018816
3118	0.0009702
3130	0.0006027
3142	0.0004214
3154	0.0003528
3166	0.0002842
3178	0.0002352
3190	0.0001764
3202	0.000147
3214	9.8e-05
3226	0.000196
3238	8.33e-05
3250	0.0001029
3262	4.41e-05
3274	7.35e-05
3286	0.0001176
3298	0.0001127
3310	0.0001617
3322	0.0001029
3334	0.0001715
3346	0.0001862
3358	0.0001274
3370	0.000147
3382	0.0002009
3394	0.0002156
3406	0.0002401
3418	0.0002107
3430	0.0002205
3442	0.0003087
3454	0.0003577
3466	0.0004312
3478	0.0003969
3490	0.0003087
3502	0.000343
3514	0.0003528
3526	0.0002597
3538	0.0003038
3550	0.000245
3562	0.0003136
3574	0.0002695
3586	0.0002695
3598	0.0003332
3610	0.0002401
3622	0.0002156
3634	0.0003038
3646	0.0003724
3658	0.0003283
3670	0.0003528
3682	0.000245
3694	0.000343
3706	0.0002989
3718	0.0003038
3730	0.0002107
3742	0.0002891
3754	0.000294
3766	0.0002842
3778	0.0002401
3790	0.0003136
3802	0.0003136
3814	0.0003381
3826	0.000294
3838	0.0003283
