Infrared Spectrum: 2,3-Dichloropropanenitrile
Formula: C 3 H 3 Cl 2 N
CAS: 2601-89-0
State: gas
Origin: EPA-IR VAPOR PHASE LIBRARY
1/CM	ABSORBANCE
501.5	0.0003802
513.074	0.0005236
524.648	0.0008301
536.222	0.0009944
547.796	0.0009178
559.37	0.0004997
570.944	0.000365
582.518	0.0008253
594.092	0.0011733
605.666	0.0012033
617.24	0.0007655
628.814	0.0010285
640.388	0.0016133
651.962	0.0021333
663.536	0.0032033
675.11	0.0046033
686.684	0.0053633
698.258	0.0052633
709.832	0.0051933
721.406	0.0148733
732.98	0.0284033
744.554	0.0264533
756.128	0.0098333
767.702	0.0103433
779.276	0.0119033
790.85	0.0084833
802.423	0.0023533
813.997	0.0014233
825.571	0.0024633
837.145	0.0034733
848.719	0.0028933
860.293	0.0014033
871.867	0.0009855
883.441	0.0010733
895.015	0.0013533
906.589	0.0020833
918.163	0.0033933
929.737	0.0039333
941.311	0.0042533
952.885	0.0052533
964.459	0.0061933
976.033	0.0067233
987.607	0.0059533
999.181	0.0040333
1010.76	0.0018833
1022.33	0.0015333
1033.9	0.0016633
1045.48	0.0014933
1057.05	0.0011433
1068.63	0.0008549
1080.2	0.0004797
1091.77	0.0003201
1103.35	0.0003028
1114.92	0.0002803
1126.49	0.0003748
1138.07	0.0006889
1149.64	0.0018033
1161.22	0.0030433
1172.79	0.0025633
1184.36	0.0019733
1195.94	0.0029333
1207.51	0.0040133
1219.09	0.0031333
1230.66	0.0020133
1242.23	0.0031233
1253.81	0.0045733
1265.38	0.0038333
1276.96	0.0040133
1288.53	0.0030233
1300.1	0.0020833
1311.68	0.0038533
1323.25	0.0048533
1334.83	0.0031233
1346.4	0.0009521
1357.97	0.0004913
1369.55	0.0004083
1381.12	0.0003956
1392.7	0.000357
1404.27	0.000512
1415.84	0.0010533
1427.42	0.0024033
1438.99	0.0037733
1450.57	0.0034333
1462.14	0.0016733
1473.71	0.0006047
1485.29	0.0003647
1496.86	0.0003195
1508.44	0.0002861
1520.01	0.0003194
1531.58	0.000333
1543.16	0.0002609
1554.73	0.0002552
1566.31	0.0002784
1577.88	0.0003968
1589.45	0.0006575
1601.03	0.0007695
1612.6	0.0007253
1624.18	0.0004383
1635.75	0.0001965
1647.32	0.00012214
1658.9	5.7675e-05
1670.47	2.88e-05
1682.05	2e-06
1693.62	3.31e-05
1705.19	3.48e-05
1716.77	1.2e-06
1728.34	9.3e-06
1739.92	2.27e-05
1751.49	7.234e-05
1763.06	8.326e-05
1774.64	6.908e-05
1786.21	8.502e-05
1797.79	0.00014532
1809.36	0.00013077
1820.93	0.0001809
1832.51	0.0001546
1844.08	0.000175
1855.66	0.00012263
1867.23	8.298e-05
1878.8	9.071e-05
1890.38	0.00011084
1901.95	0.00010587
1913.53	0.000105
1925.1	0.0001249
1936.67	0.00013859
1948.25	0.00013543
1959.82	0.00014537
1971.4	0.000172
1982.97	0.0001789
1994.54	0.0001749
2006.12	0.000182
2017.69	0.0001903
2029.27	0.0001755
2040.84	0.0001884
2052.41	0.0002113
2063.99	0.0002271
2075.56	0.0002316
2087.14	0.0002597
2098.71	0.0002874
2110.28	0.0002666
2121.86	0.0002113
2133.43	0.0001773
2145.01	0.0002122
2156.58	0.000219
2168.15	0.0002339
2179.73	0.0002282
2191.3	0.0002545
2202.88	0.0002927
2214.45	0.0003398
2226.02	0.0005956
2237.6	0.0011633
2249.17	0.0017433
2260.74	0.0015433
2272.32	0.0006724
2283.89	0.0003284
2295.47	0.000262
2307.04	0.0002391
2318.61	0.0002557
2330.19	0.0002754
2341.76	0.0003407
2353.34	0.0004025
2364.91	0.0004193
2376.48	0.0004176
2388.06	0.0004885
2399.63	0.0005868
2411.21	0.0005235
2422.78	0.0004716
2434.35	0.000421
2445.93	0.0003625
2457.5	0.0004386
2469.08	0.00051
2480.65	0.0005756
2492.22	0.0005426
2503.8	0.0004096
2515.37	0.0003521
2526.95	0.0003394
2538.52	0.0003472
2550.09	0.0003459
2561.67	0.0002991
2573.24	0.0003072
2584.82	0.0002624
2596.39	0.0002646
2607.96	0.0002868
2619.54	0.0002613
2631.11	0.0002788
2642.69	0.0003327
2654.26	0.0003192
2665.83	0.0002402
2677.41	0.0002962
2688.98	0.0003067
2700.56	0.0003762
2712.13	0.00039
2723.7	0.0004884
2735.28	0.0004358
2746.85	0.0004003
2758.43	0.0003166
2770	0.0003168
2781.57	0.0003155
2793.15	0.0003737
2804.72	0.000306
2816.3	0.0003564
2827.87	0.0003652
2839.44	0.0004997
2851.02	0.0005912
2862.59	0.0006823
2874.17	0.000684
2885.74	0.0005809
2897.31	0.0004582
2908.89	0.0003656
2920.46	0.0004046
2932.04	0.0005049
2943.61	0.0012133
2955.18	0.0023633
2966.76	0.0040233
2978.33	0.0045033
2989.91	0.0028333
3001.48	0.0012533
3013.05	0.0007096
3024.63	0.0005173
3036.2	0.0003992
3047.78	0.0003854
3059.35	0.000342
3070.92	0.0003362
3082.5	0.00028
3094.07	0.0002603
3105.65	0.0002825
3117.22	0.0002785
3128.79	0.000244
3140.37	0.0002951
3151.94	0.0001999
3163.52	0.0002258
3175.09	0.0002668
3186.66	0.0001968
3198.24	0.000226
3209.81	0.0002879
3221.39	0.0002399
3232.96	0.0002401
3244.53	0.0002172
3256.11	0.0002232
3267.68	0.0002612
3279.26	0.0002515
3290.83	0.0001886
3302.4	0.0001981
3313.98	0.0002298
3325.55	0.000242
3337.13	0.0002062
3348.7	0.0001588
3360.27	0.0001711
3371.85	0.0002099
3383.42	0.0001676
3395	0.00012938
3406.57	0.00013906
3418.14	0.00012647
3429.72	0.0001678
3441.29	0.0001536
3452.86	0.0001879
3464.44	0.0001629
3476.01	0.00014474
3487.59	0.0001734
3499.16	0.0002088
3510.73	0.0001549
3522.31	0.0001593
3533.88	0.0001536
3545.46	0.0002278
3557.03	0.0001889
3568.6	0.0001974
3580.18	0.0001605
3591.75	0.000139
3603.33	0.0001849
3614.9	0.0001636
3626.47	0.0001726
3638.05	0.000176
3649.62	0.0002374
3661.2	0.00014678
3672.77	0.0001568
3684.34	0.0001812
3695.92	0.00012899
3707.49	0.0002511
3719.07	0.0002073
3730.64	0.0002272
3742.21	0.0002391
3753.79	0.0003061
3765.36	0.0002706
3776.94	0.0002093
3788.51	0.0002282
3800.08	0.0001956
3811.66	0.0002415
3823.23	0.0002467
3834.81	0.0001734
3846.38	0.0001702
3857.95	0.0001789
3869.53	0.0001676
3881.1	0.000181
3892.68	0.0002406
3904.25	0.0001903
3915.82	0.0002226
3927.4	0.0001865
3938.97	0.0002076
3950.55	0.0002616
3962.12	0.0002207
3973.69	0.0002723
3985.27	0.00012575
3996.84	0.0002309
