Infrared Spectrum: CARBANILIC ACID, METHYL ESTER
Formula: C8 H9 N O2
CAS: 2603-10-3
State: SOLID (2 mg / 100 mg KBr)
Melting point: 47-47.5 C
Class: COBLENTZ
Instrument: Not specified, most likely a grating spectrometer.
Sampling: TRANSMISSION
Resolution: 4
Origin: CITRUS EXPERIMENT STATION, UNIVERSITY OF FLORIDA (G. EDWARDS)
MICROMETERS	TRANSMITTANCE
2.013	0.478
2.04618	0.486
2.07935	0.494
2.11253	0.498
2.1457	0.505
2.17888	0.51
2.21206	0.521
2.24523	0.528
2.27841	0.53
2.31158	0.536
2.34476	0.537
2.37794	0.541
2.41111	0.548
2.44429	0.554
2.47746	0.561
2.51064	0.569
2.54382	0.573
2.57699	0.582
2.61017	0.581
2.64334	0.594
2.67652	0.6
2.7097	0.608
2.74287	0.629
2.77605	0.63
2.80922	0.633
2.8424	0.636
2.87558	0.638
2.90875	0.626
2.94193	0.582
2.9751	0.446
3.00828	0.249
3.04146	0.281
3.07463	0.464
3.10781	0.522
3.14098	0.573
3.17416	0.528
3.20734	0.58
3.24051	0.538
3.27369	0.57
3.30686	0.561
3.34004	0.608
3.37322	0.55
3.40639	0.621
3.43957	0.652
3.47274	0.642
3.50592	0.654
3.5391	0.68
3.57227	0.666
3.60545	0.696
3.63863	0.71
3.6718	0.712
3.70498	0.71
3.73815	0.717
3.77133	0.72
3.80451	0.724
3.83768	0.73
3.87086	0.73
3.90403	0.738
3.93721	0.741
3.97039	0.741
4.00356	0.74
4.03674	0.741
4.06991	0.753
4.10309	0.754
4.13627	0.757
4.16944	0.757
4.20262	0.761
4.23579	0.766
4.26897	0.769
4.30215	0.782
4.33532	0.781
4.3685	0.781
4.40167	0.78
4.43485	0.789
4.46803	0.792
4.5012	0.788
4.53438	0.78
4.56755	0.788
4.60073	0.794
4.63391	0.794
4.66708	0.797
4.70026	0.801
4.73343	0.8
4.76661	0.801
4.79979	0.809
4.83296	0.809
4.86614	0.81
4.89931	0.812
4.93249	0.812
4.96567	0.814
4.99884	0.814
5.03202	0.813
5.06519	0.808
5.09837	0.8
5.13155	0.781
5.16472	0.809
5.1979	0.818
5.23107	0.816
5.26425	0.813
5.29743	0.798
5.3306	0.794
5.36378	0.792
5.39695	0.809
5.43013	0.809
5.46331	0.789
5.49648	0.78
5.52966	0.742
5.56283	0.748
5.59601	0.754
5.62919	0.734
5.66236	0.697
5.69554	0.605
5.72871	0.468
5.76189	0.354
5.79507	0.23
5.82824	0.097
5.86142	0.137
5.89459	0.258
5.92777	0.47
5.96095	0.549
5.99412	0.598
6.0273	0.654
6.06047	0.673
6.09365	0.653
6.12683	0.606
6.16	0.42
6.19318	0.25
6.22635	0.141
6.25953	0.262
6.29271	0.592
6.32588	0.628
6.35906	0.53
6.39223	0.38
6.42541	0.089
6.45859	0.172
6.49176	0.313
6.52494	0.433
6.55811	0.526
6.59129	0.505
6.62447	0.349
6.65764	0.45
6.69082	0.496
6.72399	0.62
6.75717	0.66
6.79035	0.621
6.82352	0.442
6.8567	0.221
6.88987	0.142
6.92305	0.372
6.95623	0.537
6.9894	0.612
7.02258	0.669
7.05576	0.692
7.08893	0.697
7.12211	0.7
7.15528	0.696
7.18846	0.701
7.22164	0.712
7.25481	0.714
7.28799	0.716
7.32116	0.722
7.35434	0.713
7.38752	0.713
7.42069	0.696
7.45387	0.638
7.48704	0.482
7.52022	0.294
7.5534	0.246
7.58657	0.224
7.61975	0.493
7.65292	0.569
7.6861	0.616
7.71928	0.692
7.75245	0.736
7.78563	0.733
7.8188	0.724
7.85198	0.677
7.88516	0.614
7.91833	0.452
7.95151	0.344
7.98468	0.185
8.01786	0.104
8.05104	0.074
8.08421	0.076
8.11739	0.156
8.15056	0.264
8.18374	0.365
8.21692	0.457
8.25009	0.546
8.28327	0.606
8.31644	0.642
8.34962	0.568
8.3828	0.441
8.41597	0.613
8.44915	0.59
8.48232	0.604
8.5155	0.716
8.54868	0.74
8.58185	0.742
8.61503	0.721
8.6482	0.712
8.68138	0.776
8.71456	0.798
8.74773	0.808
8.78091	0.814
8.81408	0.822
8.84726	0.83
8.88044	0.834
8.91361	0.834
8.94679	0.825
8.97996	0.817
9.01314	0.785
9.04632	0.79
9.07949	0.789
9.11267	0.772
9.14584	0.721
9.17902	0.578
9.2122	0.393
9.24537	0.493
9.27855	0.624
9.31172	0.536
9.3449	0.2
9.37808	0.256
9.41125	0.442
9.44443	0.622
9.4776	0.693
9.51078	0.746
9.54396	0.778
9.57713	0.797
9.61031	0.806
9.64348	0.789
9.67666	0.661
9.70984	0.653
9.74301	0.748
9.77619	0.788
9.80936	0.809
9.84254	0.825
9.87572	0.84
9.90889	0.846
9.94207	0.848
9.97524	0.846
10.0084	0.829
10.0416	0.812
10.0748	0.849
10.1079	0.856
10.1411	0.854
10.1743	0.841
10.2075	0.861
10.2407	0.865
10.2738	0.872
10.307	0.876
10.3402	0.87
10.3734	0.862
10.4065	0.856
10.4397	0.848
10.4729	0.841
10.5061	0.841
10.5392	0.854
10.5724	0.864
10.6056	0.872
10.6388	0.876
10.6719	0.882
10.7051	0.888
10.7383	0.889
10.7715	0.889
10.8046	0.892
10.8378	0.893
10.871	0.893
10.9042	0.893
10.9373	0.894
10.9705	0.893
11.0037	0.888
11.0369	0.877
11.0701	0.848
11.1032	0.785
11.1364	0.75
11.1696	0.812
11.2028	0.862
11.2359	0.874
11.2691	0.892
11.3023	0.909
11.3355	0.909
11.3686	0.905
11.4018	0.913
11.435	0.913
11.4682	0.909
11.5013	0.905
11.5345	0.9
11.5677	0.9
11.6009	0.898
11.634	0.889
11.6672	0.884
11.7004	0.874
11.7336	0.846
11.7668	0.796
11.7999	0.717
11.8331	0.628
11.8663	0.658
11.8995	0.757
11.9326	0.801
11.9658	0.824
11.999	0.845
12.0322	0.85
12.0653	0.852
12.0985	0.832
12.1317	0.829
12.1649	0.857
12.198	0.876
12.2312	0.878
12.2644	0.885
12.2976	0.892
12.3307	0.893
12.3639	0.896
12.3971	0.9
12.4303	0.901
12.4634	0.9
12.4966	0.9
12.5298	0.894
12.563	0.89
12.5962	0.892
12.6293	0.888
12.6625	0.881
12.6957	0.877
12.7289	0.874
12.762	0.87
12.7952	0.858
12.8284	0.85
12.8616	0.82
12.8947	0.785
12.9279	0.733
12.9611	0.641
12.9943	0.514
13.0274	0.449
13.0606	0.521
13.0938	0.474
13.127	0.365
13.1601	0.337
13.1933	0.404
13.2265	0.4
13.2597	0.329
13.2928	0.274
13.326	0.361
13.3592	0.486
13.3924	0.601
13.4256	0.669
13.4587	0.702
13.4919	0.72
13.5251	0.724
13.5583	0.722
13.5914	0.706
13.6246	0.689
13.6578	0.633
13.691	0.566
13.7241	0.562
13.7573	0.584
13.7905	0.618
13.8237	0.654
13.8568	0.664
13.89	0.67
13.9232	0.672
13.9564	0.67
13.9895	0.665
14.0227	0.652
14.0559	0.645
14.0891	0.634
14.1222	0.628
14.1554	0.613
14.1886	0.6
14.2218	0.585
14.255	0.573
14.2881	0.557
14.3213	0.542
14.3545	0.516
14.3877	0.493
14.4208	0.457
14.454	0.418
14.4872	0.409
14.5204	0.426
14.5535	0.486
14.5867	0.586
14.6199	0.673
14.6531	0.716
14.6862	0.733
14.7194	0.748
14.7526	0.752
14.7858	0.758
14.8189	0.764
14.8521	0.764
14.8853	0.765
14.9185	0.765
14.9516	0.772
14.9848	0.777
15.018	0.777
