Infrared Spectrum: 2,3,5,6-Tetramethylbenzoic acid
Formula: C 11 H 14 O 2
CAS: 2604-45-7
State: gas
Origin: EPA-IR VAPOR PHASE LIBRARY
1/CM	ABSORBANCE
549.8	0.002884
559.445	0.003354
569.09	0.005784
578.735	0.008554
588.38	0.012774
598.025	0.016874
607.67	0.011434
617.315	0.004404
626.96	0.002744
636.605	0.003254
646.251	0.009564
655.896	0.014084
665.541	0.006054
675.186	0.006204
684.831	0.007604
694.476	0.003604
704.121	0.001844
713.766	0.0013705
723.411	0.001464
733.056	0.002564
742.701	0.005164
752.346	0.004904
761.991	0.002354
771.636	0.001474
781.281	0.001664
790.926	0.001794
800.571	0.001494
810.216	0.001307
819.861	0.0009799
829.507	0.0011025
839.152	0.001764
848.797	0.002564
858.442	0.003284
868.087	0.004394
877.732	0.003154
887.377	0.001764
897.022	0.0012444
906.667	0.0010981
916.312	0.0011391
925.957	0.0009972
935.602	0.0011053
945.247	0.0011776
954.892	0.0012816
964.537	0.001724
974.182	0.002244
983.827	0.003304
993.472	0.005134
1003.12	0.008654
1012.76	0.011784
1022.41	0.011454
1032.05	0.009124
1041.7	0.006974
1051.34	0.005884
1060.99	0.005244
1070.63	0.005414
1080.28	0.006044
1089.92	0.006554
1099.57	0.007934
1109.21	0.013344
1118.86	0.030434
1128.5	0.056894
1138.15	0.053904
1147.79	0.023964
1157.44	0.010444
1167.08	0.008044
1176.73	0.006594
1186.37	0.005074
1196.02	0.004724
1205.66	0.006664
1215.31	0.009954
1224.95	0.007644
1234.6	0.004404
1244.24	0.004124
1253.89	0.004744
1263.53	0.005234
1273.18	0.004264
1282.82	0.003594
1292.47	0.005254
1302.11	0.009774
1311.76	0.014454
1321.4	0.013264
1331.05	0.008554
1340.69	0.005574
1350.34	0.004864
1359.98	0.005154
1369.63	0.006494
1379.27	0.008674
1388.92	0.007744
1398.56	0.006404
1408.21	0.005354
1417.85	0.003794
1427.5	0.003464
1437.14	0.004814
1446.79	0.006994
1456.43	0.009294
1466.08	0.011854
1475.73	0.011344
1485.37	0.006764
1495.02	0.003874
1504.66	0.003134
1514.31	0.002744
1523.95	0.002534
1533.6	0.002394
1543.24	0.002394
1552.89	0.002214
1562.53	0.002274
1572.18	0.002104
1581.82	0.001954
1591.47	0.001984
1601.11	0.002114
1610.76	0.001824
1620.4	0.0012433
1630.05	0.0010354
1639.69	0.0010234
1649.34	0.0011152
1658.98	0.0011132
1668.63	0.0013226
1678.27	0.001724
1687.92	0.001914
1697.56	0.002804
1707.21	0.004674
1716.85	0.006514
1726.5	0.007234
1736.14	0.009364
1745.79	0.022074
1755.43	0.061254
1765.08	0.083744
1774.72	0.037584
1784.37	0.013094
1794.01	0.010384
1803.66	0.008104
1813.3	0.004284
1822.95	0.002244
1832.59	0.001764
1842.24	0.001654
1851.88	0.0013566
1861.53	0.0008931
1871.17	0.0008486
1880.82	0.000834
1890.46	0.0007389
1900.11	0.0006729
1909.75	0.0005768
1919.4	0.0005506
1929.04	0.00045534
1938.69	0.0003416
1948.33	0.000298
1957.98	0.000392775
1967.62	0.00040891
1977.27	0.00040314
1986.91	0.0004916
1996.56	0.0005363
2006.2	0.00044602
2015.85	0.000391951
2025.49	0.000354
2035.14	0.00042037
2044.78	0.000332
2054.43	0.000282
2064.07	0.000267
2073.72	0.0003082
2083.36	0.0002896
2093.01	0.0003053
2102.65	0.000254
2112.3	0.0003133
2121.94	0.0003122
2131.59	0.00043645
2141.23	0.00043551
2150.88	0.0002859
2160.52	0.0003403
2170.17	0.000272
2179.81	0.000281
2189.46	0.000246
2199.1	0.000274
2208.75	0.0002965
2218.39	0.000283
2228.04	0.000281
2237.68	0.00040117
2247.33	0.00038983
2256.97	0.00040438
2266.62	0.0003478
2276.26	0.000245
2285.91	0.0003402
2295.55	0.000197
2305.2	0.000201
2314.84	0.000272
2324.49	0.000265
2334.13	0.0003106
2343.78	0.0003115
2353.42	0.0002992
2363.07	0.00039524
2372.72	0.0003727
2382.36	0.0003017
2392.01	0.0003463
2401.65	0.00038072
2411.3	0.00040199
2420.94	0.00040834
2430.59	0.0004468
2440.23	0.00039429
2449.88	0.00040445
2459.52	0.0003494
2469.17	0.0003378
2478.81	0.0003556
2488.46	0.0003356
2498.1	0.000241
2507.75	0.000232
2517.39	0.000224
2527.04	0.000238
2536.68	0.000251
2546.33	0.000261
2555.97	0.000174
2565.62	0.000176
2575.26	0.000202
2584.91	0.000151
2594.55	0.000231
2604.2	0.000278
2613.84	0.000195
2623.49	0.000202
2633.13	0.000214
2642.78	0.00026
2652.42	0.000179
2662.07	0.000143
2671.71	0.000231
2681.36	0.0002929
2691	0.000201
2700.65	0.0003701
2710.29	0.0003248
2719.94	0.00042363
2729.58	0.000584
2739.23	0.0009176
2748.87	0.0010983
2758.52	0.0008024
2768.16	0.0008927
2777.81	0.000974
2787.45	0.0009391
2797.1	0.0008343
2806.74	0.0009783
2816.39	0.0011227
2826.03	0.001414
2835.68	0.001904
2845.32	0.002684
2854.97	0.003954
2864.61	0.006394
2874.26	0.009524
2883.9	0.010284
2893.55	0.009234
2903.19	0.009064
2912.84	0.010514
2922.48	0.014634
2932.13	0.019984
2941.77	0.020394
2951.42	0.017024
2961.06	0.013414
2970.71	0.011484
2980.35	0.010814
2990	0.008864
2999.64	0.008434
3009.29	0.010354
3018.93	0.009024
3028.58	0.005504
3038.22	0.004274
3047.87	0.004134
3057.51	0.003864
3067.16	0.003544
3076.8	0.002824
3086.45	0.002354
3096.09	0.001704
3105.74	0.0012284
3115.38	0.0008518
3125.03	0.0008289
3134.67	0.0005375
3144.32	0.0005188
3153.96	0.000459
3163.61	0.00046192
3173.25	0.00041426
3182.9	0.00042085
3192.54	0.000204
3202.19	0.000272
3211.83	0.000227
3221.48	0.000121
3231.12	0.0002892
3240.77	0.0003108
3250.41	0.00013
3260.06	0.0003516
3269.7	0.00039476
3279.35	0.00014
3289	6.4e-05
3298.64	0.000253
3308.29	0.0003208
3317.93	0.000143
3327.58	0.000194
3337.22	0.000218
3346.87	0.000133
3356.51	0.000273
3366.16	0.00031
3375.8	0.0003572
3385.45	0.0003105
3395.09	0.000279
3404.74	4.8e-05
3414.38	0.0003455
3424.03	0.000143
3433.67	0.000283
3443.32	0.000239
3452.96	0.000201
3462.61	0.0003668
3472.25	0.000259
3481.9	0.00039464
3491.54	0.0006474
3501.19	0.0007833
3510.83	0.0009776
3520.48	0.0007351
3530.12	0.0010833
3539.77	0.002734
3549.41	0.017244
3559.06	0.024354
3568.7	0.007464
3578.35	0.0011933
3587.99	0.0006808
3597.64	0.0007575
3607.28	0.0010796
3616.93	0.0009447
3626.57	0.000616
3636.22	0.000241
3645.86	0.000266
3655.51	0.0003489
3665.15	0.0002885
3674.8	0.000203
3684.44	0.0003691
3694.09	0.000217
3703.73	0.000137
3713.38	0.000145
3723.02	0.000248
3732.67	0.000281
3742.31	0.000157
3751.96	0.0003043
3761.6	0.000134
3771.25	0.000173
3780.89	0.000222
3790.54	0.000184
3800.18	0.000276
3809.83	0.0003075
3819.47	0.0002882
3829.12	0.000226
3838.76	0.0002891
3848.41	0.000273
3858.05	0.000314
3867.7	0.00043791
3877.34	0.00027
3886.99	0.000259
3896.63	0.0003138
3906.28	0.00041358
3915.92	0.00040361
3925.57	0.000274
3935.21	0.000185
3944.86	0.0002955
3954.5	0.00027
3964.15	0.000254
3973.79	0.000216
3983.44	0.000281
3993.08	0.000107
