Infrared Spectrum: COUMARIN, 4,6-DIMETHYL-7-(METHYLAMINO)-
Formula: C12 H13 N O2
CAS: 26078-24-0
State: SOLID (SPLIT MULL)
Melting point: 195 C
Class: COBLENTZ III
Instrument: BECKMAN IR-9 (GRATING)
Instrument parameters: ORDER CHANGES: 670, 1200, 2000 CM^-^1
Sampling: TRANSMISSION
Resolution: 2
Origin: DOW CHEMICAL COMPANY
1/CM	TRANSMITTANCE
399	0.6021
408	0.576
417	0.5932
426	0.6591
435	0.7351
444	0.7632
453	0.7736
462	0.7896
471	0.7711
480	0.7921
489	0.7244
498	0.809
507	0.8044
516	0.7946
525	0.7841
534	0.7108
543	0.8232
552	0.7568
561	0.7995
570	0.8301
579	0.8237
588	0.785
597	0.8461
606	0.8533
615	0.856
624	0.8561
633	0.847
642	0.8118
651	0.8518
660	0.8532
669	0.8499
678	0.8471
687	0.8534
696	0.8318
705	0.7762
714	0.8018
723	0.768
732	0.781
741	0.7642
750	0.8126
759	0.8207
768	0.8228
777	0.828
786	0.8217
795	0.8224
804	0.8218
813	0.7487
822	0.6503
831	0.6515
840	0.7821
849	0.8028
858	0.8026
867	0.7857
876	0.6636
885	0.7725
894	0.7708
903	0.7571
912	0.7261
921	0.5156
930	0.7451
939	0.7607
948	0.7595
957	0.753
966	0.7346
975	0.7221
984	0.711
993	0.6911
1002	0.6601
1011	0.5788
1020	0.6288
1029	0.5385
1038	0.5125
1047	0.7519
1056	0.7622
1065	0.7487
1074	0.7164
1083	0.5031
1092	0.7158
1101	0.7258
1110	0.7238
1119	0.699
1128	0.6305
1137	0.7181
1146	0.7267
1155	0.6991
1164	0.669
1173	0.4664
1182	0.7091
1191	0.7093
1200	0.6915
1209	0.6401
1218	0.532
1227	0.7339
1236	0.7178
1245	0.7203
1254	0.6767
1263	0.581
1272	0.6872
1281	0.648
1290	0.458
1299	0.6769
1308	0.678
1317	0.6676
1326	0.5942
1335	0.5221
1344	0.4508
1353	0.4975
1362	0.4421
1371	0.5184
1380	0.2973
1389	0.3103
1398	0.5606
1407	0.5764
1416	0.4626
1425	0.2584
1434	0.5212
1443	0.5948
1452	0.6187
1461	0.6337
1470	0.596
1479	0.5988
1488	0.5838
1497	0.5802
1506	0.5608
1515	0.5305
1524	0.4614
1533	0.3543
1542	0.2403
1551	0.0911
1560	0.2141
1569	0.5183
1578	0.6572
1587	0.6277
1596	0.481
1605	0.326
1614	0.1718
1623	0.16
1632	0.348
1641	0.5616
1650	0.6235
1659	0.6415
1668	0.6232
1677	0.5925
1686	0.4292
1695	0.2017
1704	0.2234
1713	0.1616
1722	0.5229
1731	0.6806
1740	0.7005
1749	0.7168
1758	0.7165
1767	0.815
1776	0.8337
1785	0.8316
1794	0.8275
1803	0.8235
1812	0.821
1821	0.8115
1830	0.8019
1839	0.7915
1848	0.7858
1857	0.789
1866	0.7853
1875	0.7818
1884	0.7799
1893	0.7769
1902	0.7733
1911	0.7697
1920	0.7656
1929	0.7612
1938	0.7571
1947	0.7525
1956	0.7475
1965	0.7425
1974	0.7375
1983	0.7334
1992	0.7258
2001	0.7249
2010	0.7371
2019	0.7346
2028	0.7322
2037	0.7287
2046	0.7246
2055	0.7193
2064	0.7147
2073	0.7103
2082	0.7098
2091	0.7089
2100	0.7067
2109	0.704
2118	0.7012
2127	0.6986
2136	0.6958
2145	0.693
2154	0.6901
2163	0.6871
2172	0.6838
2181	0.6804
2190	0.6771
2199	0.6737
2208	0.6704
2217	0.6671
2226	0.6637
2235	0.6601
2244	0.6567
2253	0.6532
2262	0.6499
2271	0.6465
2280	0.6431
2289	0.6395
2298	0.6358
2307	0.6322
2316	0.6321
2325	0.6326
2334	0.6328
2343	0.6322
2352	0.6309
2361	0.6299
2370	0.6291
2379	0.6282
2388	0.6272
2397	0.626
2406	0.6246
2415	0.6227
2424	0.6207
2433	0.6231
2442	0.6251
2451	0.6248
2460	0.6237
2469	0.6221
2478	0.6201
2487	0.618
2496	0.616
2505	0.6138
2514	0.6117
2523	0.6094
2532	0.6073
2541	0.605
2550	0.6029
2559	0.6006
2568	0.5985
2577	0.5962
2586	0.5941
2595	0.592
2604	0.59
2613	0.5875
2622	0.5848
2631	0.5821
2640	0.5804
2649	0.5803
2658	0.5807
2667	0.5807
2676	0.5798
2685	0.5778
2694	0.5745
2703	0.5722
2712	0.5702
2721	0.5678
2730	0.5643
2739	0.5609
2748	0.5573
2757	0.5537
2766	0.5505
2775	0.5483
2784	0.5446
2793	0.5391
2802	0.5341
2811	0.532
2820	0.5249
2829	0.5151
2838	0.5029
2847	0.4986
2856	0.4975
2865	0.4954
2874	0.4885
2883	0.4866
2892	0.4841
2901	0.4781
2910	0.4678
2919	0.4593
2928	0.4628
2937	0.4755
2946	0.4904
2955	0.4985
2964	0.4982
2973	0.4942
2982	0.4868
2991	0.4928
3000	0.5017
3009	0.5144
3018	0.5149
3027	0.512
3036	0.5075
3045	0.516
3054	0.5157
3063	0.5144
3072	0.5133
3081	0.5112
3090	0.5093
3099	0.5077
3108	0.5062
3117	0.5047
3126	0.5031
3135	0.5009
3144	0.4979
3153	0.4947
3162	0.4918
3171	0.4888
3180	0.4859
3189	0.4829
3198	0.4799
3207	0.4768
3216	0.4737
3225	0.4705
3234	0.4674
3243	0.4641
3252	0.4604
3261	0.4565
3270	0.452
3279	0.4466
3288	0.441
3297	0.4336
3306	0.4248
3315	0.4152
3324	0.405
3333	0.3912
3342	0.376
3351	0.3559
3360	0.3314
3369	0.2949
3378	0.2015
3387	0.1059
3396	0.1981
3405	0.5371
3414	0.5812
3423	0.5764
3432	0.5649
3441	0.5514
3450	0.5407
3459	0.5304
3468	0.521
3477	0.514
3486	0.508
3495	0.5042
3504	0.5007
3513	0.4975
3522	0.4949
3531	0.4923
3540	0.4902
3549	0.4879
3558	0.4855
3567	0.483
3576	0.4805
3585	0.4781
3594	0.4757
3603	0.4732
3612	0.4712
3621	0.4696
3630	0.4678
3639	0.466
3648	0.4644
3657	0.4627
3666	0.461
3675	0.4595
3684	0.4579
3693	0.4565
3702	0.4552
3711	0.4538
3720	0.4525
3729	0.451
3738	0.4491
3747	0.447
3756	0.445
3765	0.4431
3774	0.4412
3783	0.4399
3792	0.4388
