Infrared Spectrum: 7-(Ethylamino)-4,6-dimethylcoumarin
Formula: C13 H15 N O2
CAS: 26078-25-1
State: SOLID (SPLIT MULL)
Melting point: 163 C
Class: COBLENTZ III
Instrument: BECKMAN IR-9 (GRATING)
Instrument parameters: ORDER CHANGES: 670, 1200, 2000 CM^-^1
Sampling: TRANSMISSION
Resolution: 2
Origin: DOW CHEMICAL COMPANY
1/CM	TRANSMITTANCE
412	0.6359
421	0.6661
430	0.7453
439	0.7937
448	0.7678
457	0.7946
466	0.7901
475	0.7542
484	0.7535
493	0.7007
502	0.6217
511	0.6621
520	0.7321
529	0.629
538	0.7986
547	0.7461
556	0.8359
565	0.8574
574	0.8716
583	0.8011
592	0.8414
601	0.867
610	0.8766
619	0.8768
628	0.8692
637	0.7461
646	0.8762
655	0.8765
664	0.8691
673	0.8674
682	0.8686
691	0.8537
700	0.7171
709	0.7661
718	0.7033
727	0.7048
736	0.726
745	0.7487
754	0.7838
763	0.7858
772	0.7836
781	0.7828
790	0.7708
799	0.7001
808	0.1789
817	0.6638
826	0.5839
835	0.3342
844	0.6871
853	0.7114
862	0.6811
871	0.658
880	0.6993
889	0.6836
898	0.6783
907	0.6608
916	0.5289
925	0.5319
934	0.6692
943	0.6791
952	0.6705
961	0.6604
970	0.6496
979	0.643
988	0.6377
997	0.6177
1006	0.5622
1015	0.6299
1024	0.6146
1033	0.4566
1042	0.5434
1051	0.4458
1060	0.6271
1069	0.4879
1078	0.6075
1087	0.6918
1096	0.6801
1105	0.6628
1114	0.6232
1123	0.5328
1132	0.5424
1141	0.5901
1150	0.5669
1159	0.5377
1168	0.3602
1177	0.6032
1186	0.6309
1195	0.6112
1204	0.5777
1213	0.4757
1222	0.5727
1231	0.6014
1240	0.5826
1249	0.5448
1258	0.4679
1267	0.4287
1276	0.1856
1285	0.5459
1294	0.5601
1303	0.521
1312	0.4997
1321	0.4756
1330	0.4743
1339	0.4014
1348	0.439
1357	0.5049
1366	0.4391
1375	0.3566
1384	0.4558
1393	0.3416
1402	0.1581
1411	0.511
1420	0.4766
1429	0.3346
1438	0.434
1447	0.5391
1456	0.5169
1465	0.5876
1474	0.4896
1483	0.5658
1492	0.574
1501	0.5541
1510	0.5158
1519	0.4669
1528	0.3686
1537	0.3423
1546	0.2105
1555	0.1051
1564	0.3641
1573	0.5914
1582	0.5635
1591	0.4679
1600	0.2953
1609	0.2013
1618	0.0889
1627	0.3396
1636	0.5289
1645	0.6179
1654	0.6073
1663	0.5614
1672	0.4553
1681	0.2769
1690	0.1505
1699	0.1723
1708	0.1571
1717	0.3882
1726	0.6198
1735	0.6768
1744	0.7349
1753	0.7389
1762	0.7778
1771	0.8156
1780	0.8395
1789	0.8371
1798	0.8311
1807	0.8249
1816	0.8178
1825	0.8086
1834	0.7972
1843	0.7871
1852	0.7815
1861	0.7786
1870	0.7748
1879	0.7705
1888	0.7664
1897	0.7621
1906	0.7571
1915	0.7526
1924	0.7467
1933	0.7418
1942	0.7358
1951	0.7301
1960	0.7241
1969	0.7185
1978	0.7137
1987	0.7067
1996	0.6944
2005	0.7041
2014	0.7034
2023	0.6991
2032	0.6948
2041	0.6897
2050	0.6854
2059	0.6821
2068	0.6795
2077	0.6767
2086	0.6741
2095	0.6718
2104	0.6696
2113	0.6671
2122	0.6645
2131	0.6614
2140	0.6584
2149	0.6553
2158	0.6517
2167	0.648
2176	0.6439
2185	0.639
2194	0.6341
2203	0.6296
2212	0.6256
2221	0.6215
2230	0.617
2239	0.6124
2248	0.6075
2257	0.6023
2266	0.5973
2275	0.5931
2284	0.5889
2293	0.5862
2302	0.5848
2311	0.5841
2320	0.5842
2329	0.5834
2338	0.5828
2347	0.5829
2356	0.5834
2365	0.5826
2374	0.5796
2383	0.5775
2392	0.5757
2401	0.5737
2410	0.5717
2419	0.57
2428	0.5683
2437	0.5666
2446	0.5652
2455	0.5636
2464	0.5624
2473	0.5612
2482	0.5589
2491	0.5565
2500	0.5539
2509	0.5512
2518	0.5485
2527	0.5458
2536	0.5434
2545	0.541
2554	0.5389
2563	0.5366
2572	0.5345
2581	0.5324
2590	0.5304
2599	0.5285
2608	0.5268
2617	0.5251
2626	0.5236
2635	0.5234
2644	0.5234
2653	0.5233
2662	0.5191
2671	0.5144
2680	0.5109
2689	0.5075
2698	0.5043
2707	0.5026
2716	0.5007
2725	0.4984
2734	0.4962
2743	0.4938
2752	0.4916
2761	0.4895
2770	0.4874
2779	0.4853
2788	0.4823
2797	0.476
2806	0.4702
2815	0.4624
2824	0.45
2833	0.4314
2842	0.3972
2851	0.4018
2860	0.4473
2869	0.4438
2878	0.423
2887	0.4064
2896	0.4409
2905	0.438
2914	0.4465
2923	0.4442
2932	0.439
2941	0.4302
2950	0.425
2959	0.4164
2968	0.3718
2977	0.456
2986	0.4673
2995	0.4692
3004	0.4682
3013	0.465
3022	0.462
3031	0.4587
3040	0.4578
3049	0.4572
3058	0.4564
3067	0.455
3076	0.451
3085	0.4479
3094	0.4452
3103	0.4435
3112	0.4414
3121	0.4393
3130	0.4373
3139	0.4353
3148	0.4334
3157	0.431
3166	0.4282
3175	0.426
3184	0.4254
3193	0.4212
3202	0.417
3211	0.4127
3220	0.4082
3229	0.404
3238	0.3999
3247	0.3956
3256	0.3914
3265	0.3857
3274	0.3798
3283	0.3708
3292	0.3598
3301	0.348
3310	0.3386
3319	0.3275
3328	0.3094
3337	0.2847
3346	0.2371
3355	0.1517
3364	0.1641
3373	0.4768
3382	0.4867
3391	0.4851
3400	0.4742
3409	0.4642
3418	0.4544
3427	0.4431
3436	0.4335
3445	0.4289
3454	0.426
3463	0.4222
3472	0.4187
3481	0.4153
3490	0.4114
3499	0.4068
3508	0.4073
3517	0.4087
3526	0.4095
3535	0.4097
3544	0.4091
3553	0.4078
3562	0.4074
3571	0.4058
3580	0.4043
3589	0.4028
3598	0.4014
3607	0.3999
3616	0.3984
3625	0.3968
3634	0.3954
3643	0.394
3652	0.3928
3661	0.3914
3670	0.3899
3679	0.3884
3688	0.3868
3697	0.3855
3706	0.3842
3715	0.3827
3724	0.3807
3733	0.3786
3742	0.3766
3751	0.3746
3760	0.3725
3769	0.3698
3778	0.3672
3787	0.3653
3796	0.3632
