Infrared Spectrum: ANDROSTEN-17-(Beta)-OL-3-ONE, 17(Alpha)-METHYL-DELTA^4-
Formula: C20 H30 O2
CAS: 2607-14-9
State: SOLUTION 1% (CS2 FOR 2-5.5 AND 7.2-15.3 microns, AND C2Cl4 FOR 5.5-7.2 microns)
Melting point: 161-166 C
Class: COBLENTZ III
Instrument: PERKIN-ELMER 21 (GRATING)
Instrument parameters: FILTER AT ABOUT 10 MICRONS
Sampling: TRANSMISSION
Path length: 0.1 CM
Resolution: 2
1/CM	TRANSMITTANCE
4000	0.7868
3991	0.7871
3982	0.7875
3973	0.788
3964	0.7884
3955	0.7894
3946	0.7906
3937	0.7919
3928	0.7933
3919	0.7948
3910	0.7961
3901	0.7975
3892	0.7982
3883	0.7989
3874	0.7996
3865	0.7999
3856	0.7998
3847	0.7997
3838	0.7996
3829	0.7996
3820	0.7996
3811	0.7998
3802	0.8001
3793	0.8004
3784	0.8006
3775	0.801
3766	0.8017
3757	0.8024
3748	0.8032
3739	0.804
3730	0.8048
3721	0.8058
3712	0.8065
3703	0.8071
3694	0.8078
3685	0.8085
3676	0.8093
3667	0.81
3658	0.8108
3649	0.8115
3640	0.8122
3631	0.8128
3622	0.8134
3613	0.814
3604	0.8146
3595	0.8144
3586	0.8136
3577	0.8125
3568	0.8108
3559	0.8019
3550	0.7671
3541	0.7289
3532	0.6903
3523	0.6728
3514	0.6842
3505	0.7042
3496	0.7242
3487	0.7444
3478	0.7646
3469	0.7808
3460	0.7838
3451	0.7843
3442	0.7846
3433	0.7839
3424	0.7825
3415	0.7811
3406	0.7803
3397	0.7795
3388	0.7788
3379	0.7788
3370	0.7811
3361	0.7842
3352	0.7875
3343	0.7912
3334	0.795
3325	0.799
3316	0.8031
3307	0.8064
3298	0.8075
3289	0.8084
3280	0.808
3271	0.808
3262	0.809
3253	0.8105
3244	0.8137
3235	0.8167
3226	0.8188
3217	0.8208
3208	0.8227
3199	0.8237
3190	0.8246
3181	0.8256
3172	0.8262
3163	0.8264
3154	0.8265
3145	0.8267
3136	0.8267
3127	0.8266
3118	0.8259
3109	0.8251
3100	0.8236
3091	0.8217
3082	0.8198
3073	0.8178
3064	0.8156
3055	0.8135
3046	0.8111
3037	0.8086
3028	0.8047
3019	0.7895
3010	0.7598
3001	0.7386
2992	0.7178
2983	0.7065
2974	0.6933
2965	0.6137
2956	0.5092
2947	0.4041
2938	0.2983
2929	0.1783
2920	0.1191
2911	0.1028
2902	0.098
2893	0.0954
2884	0.095
2875	0.1071
2866	0.1481
2857	0.1901
2848	0.2459
2839	0.2471
2830	0.2503
2821	0.2579
2812	0.3178
2803	0.386
2794	0.4549
2785	0.6262
2776	0.6538
2767	0.6758
2758	0.6951
2749	0.715
2740	0.7294
2731	0.7399
2722	0.7496
2713	0.7572
2704	0.7646
2695	0.7692
2686	0.7738
2677	0.7772
2668	0.7798
2659	0.7822
2650	0.7844
2641	0.7864
2632	0.7884
2623	0.7903
2614	0.7919
2605	0.7937
2596	0.7954
2587	0.7969
2578	0.7989
2569	0.8015
2560	0.804
2551	0.8067
2542	0.8093
2533	0.8118
2524	0.8151
2515	0.8182
2506	0.8213
2497	0.8245
2488	0.8274
2479	0.8302
2470	0.8331
2461	0.8359
2452	0.8381
2443	0.8403
2434	0.8425
2425	0.8458
2416	0.8492
2407	0.8523
2398	0.8552
2389	0.8567
2380	0.8581
2371	0.8595
2362	0.8597
2353	0.8593
2344	0.8589
2335	0.8584
2326	0.8578
2317	0.8573
2308	0.8568
2299	0.8568
2290	0.8568
2281	0.8568
2272	0.8585
2263	0.8604
2254	0.865
2245	0.8703
2236	0.8741
2227	0.8778
2218	0.8809
2209	0.8839
2200	0.8868
2191	0.8889
2182	0.8906
2173	0.8912
2164	0.8918
2155	0.892
2146	0.8918
2137	0.8918
2128	0.8923
2119	0.8932
2110	0.896
2101	0.9004
2092	0.9061
2083	0.9124
2074	0.9184
2065	0.9237
2056	0.9271
2047	0.9294
2038	0.9304
2029	0.9301
2020	0.9285
2011	0.927
2002	0.9259
1993	0.9262
1984	0.9308
1975	0.9367
1966	0.939
1957	0.9406
1948	0.9407
1939	0.9412
1930	0.9421
1921	0.9427
1912	0.9425
1903	0.9421
1894	0.9417
1885	0.9408
1876	0.94
1867	0.9396
1858	0.9406
1849	0.942
1840	0.9432
1831	0.9435
1822	0.9986
1813	0.9978
1804	0.9936
1795	0.9911
1786	0.9905
1777	0.9884
1768	0.9832
1759	0.9766
1750	0.9684
1741	0.9575
1732	0.9458
1723	0.9078
1714	0.9012
1705	0.8289
1696	0.6626
1687	0.3957
1678	0.139
1669	0.3744
1660	0.6162
1651	0.7355
1642	0.8243
1633	0.8435
1624	0.7683
1615	0.685
1606	0.8549
1597	0.9152
1588	0.936
1579	0.9434
1570	0.9471
1561	0.951
1552	0.9549
1543	0.9575
1534	0.9574
1525	0.9577
1516	0.9628
1507	0.9643
1498	0.9627
1489	0.9517
1480	0.8989
1471	0.7838
1462	0.7764
1453	0.6056
1444	0.7439
1435	0.7232
1426	0.8153
1417	0.8198
1408	0.8852
1399	0.8998
1390	0.6958
1381	0.6207
1372	0.3842
1363	0.4054
1354	0.5009
1345	0.478
1336	0.4978
1327	0.3762
1318	0.5233
1309	0.6671
1300	0.6941
1291	0.6495
1282	0.6104
1273	0.4924
1264	0.433
1255	0.6403
1246	0.6301
1237	0.4172
1228	0.3224
1219	0.4762
1210	0.5653
1201	0.589
1192	0.5694
1183	0.4808
1174	0.5714
1165	0.5943
1156	0.6492
1147	0.5529
1138	0.5917
1129	0.5004
1120	0.6347
1111	0.6899
1102	0.6761
1093	0.6052
1084	0.3902
1075	0.4742
1066	0.541
1057	0.6504
1048	0.5822
1039	0.7321
1030	0.7643
1021	0.8011
1012	0.7938
1003	0.8038
994	0.7831
985	0.8039
976	0.7933
967	0.6612
958	0.726
949	0.5279
940	0.4899
931	0.4859
922	0.5845
913	0.6865
904	0.8378
895	0.8607
886	0.8634
877	0.8512
868	0.6944
859	0.6453
850	0.6947
841	0.7958
832	0.8061
823	0.8764
814	0.8917
805	0.896
796	0.8885
787	0.8702
778	0.7969
769	0.8539
760	0.8889
751	0.8815
742	0.8623
733	0.8818
724	0.888
715	0.8967
706	0.8928
697	0.8945
688	0.9188
679	0.8291
670	0.8825
661	0.9318
652	0.922
