Infrared Spectrum: Thiocyanic acid, 1,1-dimethyl-3-oxobutyl ester
Formula: C7 H11 N O S
CAS: 26094-11-1
State: LIQUID (NEAT)
Class: COBLENTZ III
Instrument: PERKIN-ELMER 21 (GRATING)
Instrument parameters: NaCl PRISM
Sampling: TRANSMISSION
Path length: CAPILLARY
Resolution: 2
Origin: SMITH, KLINE & FRENCH LABS.
1/CM	TRANSMITTANCE
626	0.6542
635	0.6477
644	0.6993
653	0.7236
662	0.7509
671	0.765
680	0.784
689	0.8066
698	0.8246
707	0.8354
716	0.8462
725	0.8508
734	0.8628
743	0.8672
752	0.8685
761	0.8696
770	0.8717
779	0.8703
788	0.8795
797	0.8765
806	0.8601
815	0.8527
824	0.8554
833	0.8623
842	0.8644
851	0.8522
860	0.8549
869	0.8609
878	0.8753
887	0.8686
896	0.871
905	0.8711
914	0.8654
923	0.8653
932	0.8336
941	0.8206
950	0.8159
959	0.8092
968	0.8139
977	0.8031
986	0.7675
995	0.7299
1004	0.7973
1013	0.8184
1022	0.8356
1031	0.8426
1040	0.8546
1049	0.8571
1058	0.8627
1067	0.8526
1076	0.8683
1085	0.8647
1094	0.8603
1103	0.8498
1112	0.8093
1121	0.7355
1130	0.6111
1139	0.4817
1148	0.5132
1157	0.6536
1166	0.6696
1175	0.6908
1184	0.6066
1193	0.601
1202	0.6465
1211	0.6148
1220	0.6017
1229	0.6718
1238	0.7481
1247	0.7548
1256	0.7231
1265	0.7063
1274	0.768
1283	0.8038
1292	0.801
1301	0.7775
1310	0.7533
1319	0.7389
1328	0.7311
1337	0.6743
1346	0.5577
1355	0.4218
1364	0.3162
1373	0.5338
1382	0.5905
1391	0.6958
1400	0.7012
1409	0.6989
1418	0.6805
1427	0.6808
1436	0.6698
1445	0.6823
1454	0.7015
1463	0.7117
1472	0.7389
1481	0.7812
1490	0.7968
1499	0.7972
1508	0.7941
1517	0.7829
1526	0.7657
1535	0.764
1544	0.7818
1553	0.8016
1562	0.8099
1571	0.8131
1580	0.8025
1589	0.8034
1598	0.7764
1607	0.7474
1616	0.7052
1625	0.7193
1634	0.7795
1643	0.7992
1652	0.7945
1661	0.7725
1670	0.7424
1679	0.6889
1688	0.6567
1697	0.5223
1706	0.369
1715	0.2997
1724	0.3413
1733	0.6971
1742	0.7928
1751	0.8334
1760	0.8629
1769	0.8879
1778	0.897
1787	0.9001
1796	0.9118
1805	0.9151
1814	0.918
1823	0.9195
1832	0.9201
1841	0.9197
1850	0.9192
1859	0.9189
1868	0.9191
1877	0.9184
1886	0.917
1895	0.9107
1904	0.9012
1913	0.8914
1922	0.8743
1931	0.8512
1940	0.8254
1949	0.7919
1958	0.7359
1967	0.6939
1976	0.6592
1985	0.6508
1994	0.6617
2003	0.6542
2012	0.5896
2021	0.5165
2030	0.4441
2039	0.3318
2048	0.2591
2057	0.2049
2066	0.1695
2075	0.1578
2084	0.1522
2093	0.1556
2102	0.1658
2111	0.182
2120	0.2529
2129	0.2908
2138	0.3293
2147	0.3584
2156	0.4138
2165	0.4932
2174	0.5702
2183	0.6386
2192	0.6856
2201	0.7516
2210	0.8181
2219	0.8269
2228	0.875
2237	0.902
2246	0.9094
2255	0.914
2264	0.9196
2273	0.9233
2282	0.9278
2291	0.9309
2300	0.9373
2309	0.9372
2318	0.9332
2327	0.9298
2336	0.9268
2345	0.926
2354	0.9252
2363	0.9262
2372	0.9276
2381	0.9282
2390	0.9278
2399	0.9272
2408	0.9262
2417	0.9242
2426	0.9237
2435	0.9238
2444	0.9251
2453	0.9271
2462	0.9293
2471	0.929
2480	0.9271
2489	0.9241
2498	0.9205
2507	0.9185
2516	0.9176
2525	0.9182
2534	0.9194
2543	0.9204
2552	0.9209
2561	0.9211
2570	0.92
2579	0.9189
2588	0.9177
2597	0.9159
2606	0.9106
2615	0.906
2624	0.9031
2633	0.9007
2642	0.8983
2651	0.8961
2660	0.8939
2669	0.892
2678	0.8909
2687	0.8896
2696	0.8888
2705	0.8886
2714	0.8884
2723	0.8881
2732	0.8876
2741	0.8865
2750	0.8815
2759	0.8766
2768	0.8723
2777	0.8667
2786	0.8582
2795	0.8486
2804	0.8386
2813	0.8279
2822	0.8158
2831	0.8014
2840	0.7826
2849	0.7715
2858	0.761
2867	0.7515
2876	0.7424
2885	0.7337
2894	0.7259
2903	0.72
2912	0.7164
2921	0.7129
2930	0.7103
2939	0.7075
2948	0.7045
2957	0.7031
2966	0.7427
2975	0.7989
2984	0.8291
2993	0.8421
3002	0.8484
3011	0.8534
3020	0.8552
3029	0.8563
3038	0.8574
3047	0.8582
3056	0.8588
3065	0.8594
3074	0.8593
3083	0.859
3092	0.8588
3101	0.8585
3110	0.8585
3119	0.8589
3128	0.8593
3137	0.8598
3146	0.8601
3155	0.8605
3164	0.8608
3173	0.8635
3182	0.8662
3191	0.8682
3200	0.8703
3209	0.8741
3218	0.8806
3227	0.8841
3236	0.8859
3245	0.8861
3254	0.8863
3263	0.8862
3272	0.886
3281	0.8859
3290	0.8858
3299	0.8857
3308	0.8856
3317	0.887
3326	0.89
3335	0.8928
3344	0.8956
3353	0.8982
3362	0.9006
3371	0.9026
3380	0.9033
3389	0.9035
3398	0.9038
3407	0.9041
3416	0.9049
3425	0.9065
3434	0.9104
3443	0.914
3452	0.9167
3461	0.9179
3470	0.9186
3479	0.9193
3488	0.92
3497	0.9206
3506	0.9212
3515	0.9216
3524	0.9219
3533	0.9221
3542	0.9227
3551	0.9235
3560	0.9243
3569	0.9271
3578	0.929
3587	0.9291
3596	0.9299
3605	0.9319
3614	0.9358
3623	0.9376
3632	0.9387
3641	0.9394
3650	0.9401
3659	0.9407
3668	0.9412
3677	0.9418
3686	0.9425
3695	0.943
3704	0.9436
3713	0.9445
3722	0.9453
3731	0.9462
3740	0.9465
3749	0.9464
3758	0.9463
3767	0.9453
3776	0.9443
3785	0.9434
3794	0.9427
3803	0.9422
3812	0.9417
3821	0.9425
3830	0.9444
3839	0.9473
3848	0.9497
3857	0.9513
3866	0.9519
3875	0.9524
3884	0.9529
3893	0.953
3902	0.9528
3911	0.9526
3920	0.9521
3929	0.9508
3938	0.9496
3947	0.9483
3956	0.9468
3965	0.9451
3974	0.9435
3983	0.9425
3992	0.9414
