Infrared Spectrum: 2,6-DIMETHYL 2,6-OCTADIENE (TRANS)
Formula: C10 H18
CAS: 2609-23-6
Class: COBLENTZ
Instrument: Not specified, most likely a prism, grating, or hybrid spectrometer.
Sampling: TRANSMISSION
Resolution: 4
Origin: INTERNATIONAL FLAVORS & FRAGRANCES, INC.
MICROMETERS	TRANSMITTANCE
2.009	0.918
2.04158	0.918
2.07416	0.918
2.10674	0.918
2.13933	0.918
2.17191	0.916
2.20449	0.915
2.23707	0.887
2.26965	0.862
2.30223	0.853
2.33481	0.859
2.3674	0.882
2.39998	0.896
2.43256	0.895
2.46514	0.895
2.49772	0.901
2.5303	0.902
2.56288	0.906
2.59547	0.91
2.62805	0.915
2.66063	0.917
2.69321	0.92
2.72579	0.923
2.75837	0.924
2.79095	0.92
2.82354	0.906
2.85612	0.899
2.8887	0.898
2.92128	0.896
2.95386	0.898
2.98644	0.902
3.01902	0.904
3.05161	0.907
3.08419	0.906
3.11677	0.898
3.14935	0.878
3.18193	0.85
3.21451	0.735
3.24709	0.568
3.27967	0.448
3.31226	0.176
3.34484	0.078
3.37742	0.093
3.41	0.047
3.44258	0.097
3.47516	0.137
3.50774	0.498
3.54033	0.742
3.57291	0.816
3.60549	0.833
3.63807	0.793
3.67065	0.858
3.70323	0.893
3.73581	0.906
3.7684	0.91
3.80098	0.914
3.83356	0.916
3.86614	0.918
3.89872	0.92
3.9313	0.922
3.96388	0.923
3.99647	0.924
4.02905	0.925
4.06163	0.925
4.09421	0.925
4.12679	0.925
4.15937	0.924
4.19195	0.924
4.22454	0.924
4.25712	0.928
4.2897	0.935
4.32228	0.945
4.35486	0.949
4.38744	0.944
4.42002	0.95
4.45261	0.95
4.48519	0.95
4.51777	0.949
4.55035	0.947
4.58293	0.946
4.61551	0.946
4.64809	0.947
4.68068	0.95
4.71326	0.95
4.74584	0.952
4.77842	0.953
4.811	0.951
4.84358	0.951
4.87616	0.951
4.90875	0.951
4.94133	0.952
4.97391	0.947
5.00649	0.942
5.03907	0.945
5.07165	0.943
5.10423	0.945
5.13682	0.947
5.1694	0.947
5.20198	0.95
5.23456	0.947
5.26714	0.945
5.29972	0.944
5.3323	0.938
5.36489	0.93
5.39747	0.925
5.43005	0.926
5.46263	0.93
5.49521	0.933
5.52779	0.936
5.56037	0.937
5.59295	0.938
5.62554	0.938
5.65812	0.937
5.6907	0.932
5.72328	0.93
5.75586	0.925
5.78844	0.924
5.82102	0.923
5.85361	0.92
5.88619	0.908
5.91877	0.857
5.95135	0.769
5.98393	0.801
6.01651	0.837
6.04909	0.87
6.08168	0.878
6.11426	0.885
6.14684	0.886
6.17942	0.891
6.212	0.889
6.24458	0.885
6.27716	0.885
6.30975	0.882
6.34233	0.877
6.37491	0.867
6.40749	0.863
6.44007	0.852
6.47265	0.848
6.50523	0.84
6.53782	0.83
6.5704	0.823
6.60298	0.816
6.63556	0.803
6.66814	0.782
6.70072	0.748
6.7333	0.681
6.76589	0.615
6.79847	0.429
6.83105	0.314
6.86363	0.2
6.89621	0.18
6.92879	0.202
6.96137	0.314
6.99396	0.44
7.02654	0.603
7.05912	0.648
7.0917	0.681
7.12428	0.685
7.15686	0.638
7.18944	0.48
7.22203	0.274
7.25461	0.223
7.28719	0.566
7.31977	0.661
7.35235	0.698
7.38493	0.72
7.41751	0.726
7.4501	0.747
7.48268	0.783
7.51526	0.787
7.54784	0.798
7.58042	0.816
7.613	0.825
7.64558	0.821
7.67817	0.84
7.71075	0.856
7.74333	0.86
7.77591	0.86
7.80849	0.848
7.84107	0.835
7.87365	0.842
7.90623	0.84
7.93882	0.837
7.9714	0.843
8.00398	0.85
8.03656	0.851
8.06914	0.847
8.10172	0.844
8.1343	0.843
8.16689	0.84
8.19947	0.84
8.23205	0.831
8.26463	0.783
8.29721	0.772
8.32979	0.807
8.36237	0.821
8.39496	0.816
8.42754	0.841
8.46012	0.858
8.4927	0.867
8.52528	0.869
8.55786	0.865
8.59044	0.856
8.62303	0.84
8.65561	0.812
8.68819	0.792
8.72077	0.821
8.75335	0.845
8.78593	0.862
8.81851	0.864
8.8511	0.862
8.88368	0.848
8.91626	0.801
8.94884	0.709
8.98142	0.589
9.014	0.548
9.04658	0.623
9.07917	0.68
9.11175	0.691
9.14433	0.695
9.17691	0.713
9.20949	0.758
9.24207	0.785
9.27465	0.791
9.30724	0.754
9.33982	0.782
9.3724	0.806
9.40498	0.826
9.43756	0.83
9.47014	0.828
9.50272	0.814
9.53531	0.803
9.56789	0.799
9.60047	0.799
9.63305	0.799
9.66563	0.799
9.69821	0.799
9.73079	0.798
9.76338	0.79
9.79596	0.775
9.82854	0.78
9.86112	0.798
9.8937	0.803
9.92628	0.805
9.95886	0.803
9.99145	0.798
10.024	0.786
10.0566	0.767
10.0892	0.747
10.1218	0.719
10.1544	0.692
10.1869	0.711
10.2195	0.749
10.2521	0.767
10.2847	0.769
10.3173	0.762
10.3498	0.745
10.3824	0.736
10.415	0.749
10.4476	0.769
10.4802	0.789
10.5127	0.809
10.5453	0.829
10.5779	0.847
10.6105	0.855
10.6431	0.862
10.6757	0.866
10.7082	0.87
10.7408	0.867
10.7734	0.856
10.806	0.849
10.8386	0.847
10.8711	0.844
10.9037	0.844
10.9363	0.844
10.9689	0.847
11.0015	0.85
11.0341	0.857
11.0666	0.867
11.0992	0.872
11.1318	0.876
11.1644	0.877
11.197	0.879
11.2295	0.874
11.2621	0.87
11.2947	0.863
11.3273	0.857
11.3599	0.856
11.3924	0.855
11.425	0.858
11.4576	0.858
11.4902	0.859
11.5228	0.858
11.5554	0.853
11.5879	0.845
11.6205	0.829
11.6531	0.809
11.6857	0.787
11.7183	0.765
11.7508	0.75
11.7834	0.736
11.816	0.714
11.8486	0.69
11.8812	0.641
11.9137	0.602
11.9463	0.577
11.9789	0.57
12.0115	0.567
12.0441	0.548
12.0767	0.516
12.1092	0.497
12.1418	0.497
12.1744	0.517
12.207	0.549
12.2396	0.578
12.2721	0.599
12.3047	0.623
12.3373	0.639
12.3699	0.669
12.4025	0.687
12.4351	0.704
12.4676	0.714
12.5002	0.72
12.5328	0.721
12.5654	0.725
12.598	0.723
12.6305	0.717
12.6631	0.712
12.6957	0.707
12.7283	0.713
12.7609	0.721
12.7934	0.727
12.826	0.724
12.8586	0.711
12.8912	0.697
12.9238	0.697
12.9564	0.714
12.9889	0.746
13.0215	0.779
13.0541	0.797
13.0867	0.815
13.1193	0.823
13.1518	0.829
13.1844	0.834
13.217	0.838
13.2496	0.843
13.2822	0.843
13.3147	0.843
13.3473	0.837
13.3799	0.83
13.4125	0.822
13.4451	0.812
13.4777	0.801
13.5102	0.793
13.5428	0.797
13.5754	0.811
13.608	0.829
13.6406	0.841
13.6731	0.851
13.7057	0.857
13.7383	0.862
13.7709	0.869
13.8035	0.87
13.8361	0.871
13.8686	0.872
13.9012	0.872
13.9338	0.871
13.9664	0.87
13.999	0.87
14.0315	0.867
14.0641	0.866
14.0967	0.863
14.1293	0.86
14.1619	0.858
14.1944	0.856
14.227	0.852
14.2596	0.851
14.2922	0.848
14.3248	0.845
14.3574	0.844
14.3899	0.843
14.4225	0.84
14.4551	0.836
14.4877	0.83
14.5203	0.829
14.5528	0.826
14.5854	0.822
14.618	0.818
14.6506	0.813
14.6832	0.809
14.7157	0.807
14.7483	0.804
14.7809	0.801
14.8135	0.798
14.8461	0.793
14.8787	0.789
14.9112	0.787
14.9438	0.785
14.9764	0.785
15.009	0.796
