Infrared Spectrum: 1,3-Dinitrobenzoxazine
Formula: C 12 H 7 N 3 O 5
CAS: 26103-32-2
State: gas
Origin: EPA-IR VAPOR PHASE LIBRARY
1/CM	ABSORBANCE
549.8	0.001588
559.445	0.002358
569.09	0.001798
578.734	0.002568
588.379	0.002378
598.024	0.002188
607.669	0.001708
617.313	0.001348
626.958	0.001228
636.603	0.0008766
646.248	0.0007513
655.893	0.0008798
665.537	0.0011454
675.182	0.001548
684.827	0.001378
694.472	0.001788
704.116	0.001818
713.761	0.001928
723.406	0.003778
733.051	0.006748
742.695	0.014738
752.34	0.006248
761.985	0.003528
771.63	0.003338
781.275	0.0011008
790.919	0.000861
800.564	0.0010906
810.209	0.008948
819.854	0.005738
829.498	0.0011622
839.143	0.0011297
848.788	0.0010865
858.433	0.0009492
868.078	0.0009668
877.722	0.001878
887.367	0.003778
897.012	0.003398
906.657	0.001978
916.301	0.0011769
925.946	0.001918
935.591	0.002878
945.236	0.001528
954.88	0.0007361
964.525	0.0007729
974.17	0.000645
983.815	0.0004845
993.46	0.0006863
1003.1	0.000545
1012.75	0.0011706
1022.39	0.0009708
1032.04	0.001308
1041.68	0.0011153
1051.33	0.001328
1060.97	0.002128
1070.62	0.004148
1080.26	0.003818
1089.91	0.002328
1099.55	0.001428
1109.2	0.002158
1118.84	0.001328
1128.49	0.001598
1138.13	0.0008262
1147.78	0.001828
1157.42	0.002768
1167.07	0.003528
1176.71	0.002028
1186.36	0.002148
1196	0.002328
1205.64	0.001998
1215.29	0.003208
1224.93	0.006878
1234.58	0.007388
1244.22	0.007438
1253.87	0.009988
1263.51	0.014348
1273.16	0.038668
1282.8	0.037268
1292.45	0.017258
1302.09	0.011638
1311.74	0.013958
1321.38	0.024388
1331.03	0.030628
1340.67	0.059298
1350.32	0.029068
1359.96	0.010698
1369.61	0.007208
1379.25	0.005578
1388.9	0.007568
1398.54	0.013928
1408.18	0.011178
1417.83	0.005048
1427.47	0.004118
1437.12	0.005528
1446.76	0.007108
1456.41	0.007328
1466.05	0.009238
1475.7	0.008748
1485.34	0.019398
1494.99	0.050778
1504.63	0.059638
1514.28	0.038708
1523.92	0.021628
1533.57	0.015888
1543.21	0.025058
1552.86	0.029298
1562.5	0.018488
1572.15	0.013158
1581.79	0.022548
1591.44	0.021798
1601.08	0.012158
1610.73	0.010148
1620.37	0.005198
1630.01	0.004918
1639.66	0.004658
1649.3	0.002608
1658.95	0.001748
1668.59	0.001618
1678.24	0.001388
1687.88	0.001268
1697.53	0.0011055
1707.17	0.0009894
1716.82	0.0009911
1726.46	0.0007937
1736.11	0.0007061
1745.75	0.000693
1755.4	0.0009851
1765.04	0.001268
1774.69	0.0011938
1784.33	0.0011187
1793.98	0.0010578
1803.62	0.0010228
1813.27	0.000753
1822.91	0.0006202
1832.55	0.000696
1842.2	0.0009143
1851.84	0.0007185
1861.49	0.0006665
1871.13	0.000827
1880.78	0.0009252
1890.42	0.0006901
1900.07	0.0006003
1909.71	0.0007212
1919.36	0.0009108
1929	0.0007811
1938.65	0.0006063
1948.29	0.0005566
1957.94	0.0005525
1967.58	0.0005356
1977.23	0.000593
1986.87	0.0004946
1996.52	0.0005067
2006.16	0.0005608
2015.81	0.0004983
2025.45	0.0005844
2035.1	0.0005237
2044.74	0.0007129
2054.38	0.0006187
2064.03	0.0006212
2073.67	0.0006171
2083.32	0.0007142
2092.96	0.0005526
2102.61	0.0006294
2112.25	0.0006254
2121.9	0.0006492
2131.54	0.0004804
2141.19	0.0004472
2150.83	0.0005231
2160.48	0.0004946
2170.12	0.000462
2179.77	0.0005305
2189.41	0.0005144
2199.06	0.0005779
2208.7	0.000662
2218.35	0.0005436
2227.99	0.000461
2237.64	0.0005326
2247.28	0.0005655
2256.92	0.0005956
2266.57	0.0007034
2276.21	0.0006569
2285.86	0.0005553
2295.5	0.0006591
2305.15	0.0006071
2314.79	0.000519
2324.44	0.0005876
2334.08	0.0005581
2343.73	0.0008086
2353.37	0.0006338
2363.02	0.0006053
2372.66	0.0006993
2382.31	0.0006641
2391.95	0.0005801
2401.6	0.0006874
2411.24	0.0006092
2420.89	0.0007016
2430.53	0.0006357
2440.18	0.000622
2449.82	0.0008043
2459.47	0.0005971
2469.11	0.000756
2478.75	0.0008213
2488.4	0.000834
2498.04	0.0006336
2507.69	0.0005978
2517.33	0.0005085
2526.98	0.0007258
2536.62	0.0005435
2546.27	0.0005631
2555.91	0.0005824
2565.56	0.000665
2575.2	0.0007164
2584.85	0.000684
2594.49	0.0007707
2604.14	0.0008441
2613.78	0.0008649
2623.43	0.0009645
2633.07	0.0010227
2642.72	0.0009861
2652.36	0.0008268
2662.01	0.0007814
2671.65	0.0008337
2681.29	0.0007065
2690.94	0.0007447
2700.58	0.0006595
2710.23	0.0005288
2719.87	0.0005255
2729.52	0.0006696
2739.16	0.0006521
2748.81	0.0007989
2758.45	0.0006596
2768.1	0.0006668
2777.74	0.0008046
2787.39	0.000833
2797.03	0.0008915
2806.68	0.0007331
2816.32	0.00063
2825.97	0.0006581
2835.61	0.0007602
2845.26	0.0007629
2854.9	0.0007085
2864.55	0.0009449
2874.19	0.0009398
2883.84	0.0008066
2893.48	0.0006751
2903.12	0.0007307
2912.77	0.0005596
2922.41	0.0007885
2932.06	0.0007367
2941.7	0.0006864
2951.35	0.0005413
2960.99	0.0007161
2970.64	0.0006081
2980.28	0.0005872
2989.93	0.0005896
2999.57	0.000499
3009.22	0.0006347
3018.86	0.000632
3028.51	0.0004985
3038.15	0.0006135
3047.8	0.0011852
3057.44	0.0012036
3067.09	0.001538
3076.73	0.002108
3086.38	0.001948
3096.02	0.001688
3105.67	0.002298
3115.31	0.003028
3124.95	0.001398
3134.6	0.0006886
3144.24	0.0004592
3153.89	0.0004459
3163.53	0.000486
3173.18	0.00024566
3182.82	0.0004423
3192.47	0.0006496
3202.11	0.0004095
3211.76	0.0005165
3221.4	0.0006608
3231.05	0.0005414
3240.69	0.0004659
3250.34	0.0003604
3259.98	0.0002049
3269.63	0.00025138
3279.27	0.0004067
3288.92	0.0003885
3298.56	0.0004239
3308.21	0.0003818
3317.85	0.00023903
3327.49	0.000518
3337.14	0.0008286
3346.78	0.0010918
3356.43	0.002138
3366.07	0.004418
3375.72	0.007478
3385.36	0.006618
3395.01	0.003668
3404.65	0.001988
3414.3	0.001169
3423.94	0.0007774
3433.59	0.0006256
3443.23	0.0004466
3452.88	0.0003373
3462.52	0.00030714
3472.17	0.0003976
3481.81	0.0003769
3491.46	0.0004306
3501.1	0.000543
3510.75	0.0004468
3520.39	0.00029005
3530.04	0.0003454
3539.68	0.00025338
3549.32	0.000116
3558.97	0.00023016
3568.61	0.00031411
3578.26	0.0001326
3587.9	0.000342
3597.55	0.0001272
3607.19	0.0003231
3616.84	0.0003276
3626.48	0.00025859
3636.13	0.0003947
3645.77	0.0003681
3655.42	0.00029059
3665.06	0.0004423
3674.71	0.0001441
3684.35	0.00031689
3694	0.00029487
3703.64	6.3e-05
3713.29	0.00022812
3722.93	8.5e-05
3732.58	0.000173
3742.22	4.3e-05
3751.86	0.0003497
3761.51	0.00026794
3771.15	0.0004461
3780.8	0.000271
3790.44	0.00021439
3800.09	0.00026933
3809.73	7.9e-05
3819.38	0.0001407
3829.02	0.00031186
3838.67	0.000225641
3848.31	0.0004174
3857.96	9.1e-05
3867.6	0.000169
3877.25	0.00028317
3886.89	0.0003985
3896.54	0.00031405
3906.18	0.0001942
3915.83	0.0003931
3925.47	1.4e-05
3935.12	0.000146
3944.76	0.0004991
3954.41	0.0005133
3964.05	0.000127
3973.69	0.0003518
3983.34	0.00023485
3992.98	0.0003229
