Infrared Spectrum: 3,5-Di(trifluoromethyl)benzhydrazide
Formula: C 9 H 6 F 6 N 2 O
CAS: 26107-82-4
State: gas
Origin: EPA-IR VAPOR PHASE LIBRARY
1/CM	ABSORBANCE
549.8	0.001564
559.445	0.001964
569.09	0.001644
578.734	0.001424
588.379	0.001484
598.024	0.001684
607.669	0.001594
617.313	0.001544
626.958	0.001484
636.603	0.0012347
646.248	0.0009524
655.893	0.001334
665.537	0.001674
675.182	0.006874
684.827	0.019404
694.472	0.007314
704.116	0.016834
713.761	0.005404
723.406	0.001694
733.051	0.0011715
742.695	0.001304
752.34	0.002014
761.985	0.002874
771.63	0.003434
781.275	0.003094
790.919	0.002254
800.564	0.001884
810.209	0.002304
819.854	0.002074
829.498	0.003084
839.143	0.006694
848.788	0.008064
858.433	0.004544
868.078	0.004054
877.722	0.005104
887.367	0.006744
897.012	0.009694
906.657	0.013824
916.301	0.006864
925.946	0.003874
935.591	0.003764
945.236	0.004404
954.88	0.005594
964.525	0.003684
974.17	0.002264
983.815	0.001794
993.46	0.001274
1003.1	0.001644
1012.75	0.001264
1022.39	0.001434
1032.04	0.001394
1041.68	0.001714
1051.33	0.0011972
1060.97	0.001534
1070.62	0.002254
1080.26	0.003694
1089.91	0.006234
1099.55	0.006824
1109.2	0.010144
1118.84	0.008604
1128.49	0.009014
1138.13	0.019674
1147.78	0.069974
1157.42	0.144354
1167.07	0.065034
1176.71	0.058494
1186.36	0.079444
1196	0.048224
1205.64	0.019024
1215.29	0.013664
1224.93	0.010964
1234.58	0.009784
1244.22	0.012824
1253.87	0.024814
1263.51	0.053524
1273.16	0.125854
1282.8	0.183484
1292.45	0.037504
1302.09	0.011394
1311.74	0.007294
1321.38	0.006154
1331.03	0.004664
1340.67	0.004714
1350.32	0.007104
1359.96	0.015914
1369.61	0.028304
1379.25	0.020004
1388.9	0.005254
1398.54	0.003114
1408.18	0.003184
1417.83	0.003944
1427.47	0.006784
1437.12	0.012664
1446.76	0.014564
1456.41	0.010234
1466.05	0.008204
1475.7	0.009144
1485.34	0.010084
1494.99	0.007704
1504.63	0.005184
1514.28	0.003874
1523.92	0.003014
1533.57	0.002544
1543.21	0.002124
1552.86	0.001844
1562.5	0.001514
1572.15	0.001534
1581.79	0.001694
1591.44	0.001974
1601.08	0.003024
1610.73	0.004554
1620.37	0.007084
1630.01	0.008254
1639.66	0.008304
1649.3	0.004894
1658.95	0.004154
1668.59	0.004474
1678.24	0.006364
1687.88	0.009724
1697.53	0.016634
1707.17	0.034594
1716.82	0.018864
1726.46	0.009484
1736.11	0.007104
1745.75	0.003554
1755.4	0.001994
1765.04	0.001454
1774.69	0.001244
1784.33	0.0011863
1793.98	0.0011473
1803.62	0.0011369
1813.27	0.001334
1822.91	0.001584
1832.55	0.001364
1842.2	0.0009919
1851.84	0.00095
1861.49	0.0009922
1871.13	0.0007749
1880.78	0.0006603
1890.42	0.000576
1900.07	0.0005284
1909.71	0.0004827
1919.36	0.000508
1929	0.0003949
1938.65	0.0004627
1948.29	0.0004627
1957.94	0.0004904
1967.58	0.0004351
1977.23	0.0004199
1986.87	0.0004552
1996.52	0.0004599
2006.16	0.0004324
2015.81	0.00035537
2025.45	0.000365
2035.1	0.000404
2044.74	0.0004805
2054.38	0.0004743
2064.03	0.00031626
2073.67	0.00033826
2083.32	0.00025792
2092.96	0.0003885
2102.61	0.00034957
2112.25	0.00033401
2121.9	0.00032821
2131.54	0.0003647
2141.19	0.00030763
2150.83	0.00032274
2160.48	0.0002008
2170.12	0.00030137
2179.77	0.00027545
2189.41	0.00036313
2199.06	0.0004462
2208.7	0.0004553
2218.35	0.0004798
2227.99	0.0005265
2237.64	0.0004345
2247.28	0.0005438
2256.92	0.0005396
2266.57	0.0005265
2276.21	0.0005642
2285.86	0.0006981
2295.5	0.0007626
2305.15	0.0006177
2314.79	0.0005146
2324.44	0.0005078
2334.08	0.0005187
2343.73	0.0004797
2353.37	0.0004231
2363.02	0.0005954
2372.66	0.0004825
2382.31	0.0005283
2391.95	0.0003985
2401.6	0.000369
2411.24	0.00031553
2420.89	0.000451
2430.53	0.0005493
2440.18	0.0004529
2449.82	0.00034534
2459.47	0.00034948
2469.11	0.0003857
2478.75	0.0002395
2488.4	0.00030439
2498.04	0.00031025
2507.69	0.0003273
2517.33	0.000393
2526.98	0.0004646
2536.62	0.00028673
2546.27	0.000442
2555.91	0.0005169
2565.56	0.0004137
2575.2	0.00030462
2584.85	0.0003815
2594.49	0.00030659
2604.14	0.0004069
2613.78	0.00032722
2623.43	0.0003758
2633.07	0.0004156
2642.72	0.00035216
2652.36	0.0003835
2662.01	0.0004381
2671.65	0.0003899
2681.29	0.0003553
2690.94	0.0003835
2700.58	0.000365
2710.23	0.0002045
2719.87	0.000386
2729.52	0.00035719
2739.16	0.000191
2748.81	0.00031677
2758.45	0.0003659
2768.1	0.00033622
2777.74	0.00035359
2787.39	0.00031426
2797.03	0.00036383
2806.68	0.0004293
2816.32	0.000264347
2825.97	0.00027745
2835.61	0.0004002
2845.26	0.00030674
2854.9	0.0005284
2864.55	0.0004571
2874.19	0.00027312
2883.84	0.0005112
2893.48	0.0006085
2903.12	0.0003999
2912.77	0.0003757
2922.41	0.00032288
2932.06	0.0003924
2941.7	0.0004168
2951.35	0.0004208
2960.99	0.0004552
2970.64	0.0004371
2980.28	0.0003961
2989.93	0.0003691
2999.57	0.00028604
3009.22	0.0003989
3018.86	0.00033409
3028.51	0.0005234
3038.15	0.0004076
3047.8	0.0005555
3057.44	0.0003941
3067.09	0.0005939
3076.73	0.0006269
3086.38	0.0010792
3096.02	0.0010199
3105.67	0.0005679
3115.31	0.0004125
3124.95	0.000406
3134.6	0.0004247
3144.24	0.0003913
3153.89	0.00029314
3163.53	0.0004045
3173.18	0.0003979
3182.82	0.0004702
3192.47	0.0005522
3202.11	0.0005353
3211.76	0.0003702
3221.4	0.0005988
3231.05	0.0004881
3240.69	0.0004043
3250.34	0.0003823
3259.98	0.0004095
3269.63	0.000267742
3279.27	0.000491
3288.92	0.00028624
3298.56	0.00027548
3308.21	0.0005244
3317.85	0.0005302
3327.49	0.0005713
3337.14	0.0004658
3346.78	0.0007325
3356.43	0.0007179
3366.07	0.0006384
3375.72	0.0007819
3385.36	0.0006081
3395.01	0.0007931
3404.65	0.0009136
3414.3	0.0007106
3423.94	0.0010603
3433.59	0.001524
3443.23	0.002044
3452.88	0.002524
3462.52	0.004184
3472.17	0.005384
3481.81	0.003184
3491.46	0.001914
3501.1	0.001274
3510.75	0.000731
3520.39	0.000549
3530.04	0.00035072
3539.68	0.0005247
3549.32	0.00027519
3558.97	0.0004019
3568.61	0.00031399
3578.26	0.0005473
3587.9	0.00032374
3597.55	0.0004266
3607.19	0.00035298
3616.84	0.00028874
3626.48	0.00026053
3636.13	0.00014
3645.77	0.0003685
3655.42	0.0003705
3665.06	0.000269107
3674.71	0.0001818
3684.35	0.0002901
3694	0.000143
3703.64	0.00035408
3713.29	0.0005167
3722.93	0.00014
3732.58	0.00025992
3742.22	0.00025939
3751.86	0.0002124
3761.51	0.00034952
3771.15	0.00028797
3780.8	0.0002213
3790.44	0.0004238
3800.09	0.0004273
3809.73	0.0002259
3819.38	0.00035341
3829.02	0.0001921
3838.67	0.00029082
3848.31	0.000128
3857.96	0.0003046
3867.6	0.00031486
3877.25	0.0005768
3886.89	0.00032095
3896.54	0.0003948
3906.18	0.00031546
3915.83	0.0001896
3925.47	0.0001974
3935.12	0.00029168
3944.76	0.0001922
3954.41	0.000201
3964.05	0.00031784
3973.69	0.0002372
3983.34	0.00028805
3992.98	0.0005015
