Infrared Spectrum: 2,4,6-Trimethylheptane
Formula: C 10 H 22
CAS: 2613-61-8
State: gas
Instrument: HP-GC/MS/IRD
Origin: NIST Mass Spectrometry Data Center
1/CM	ABSORBANCE
550	0.000207
562	4.95e-05
574	8.55e-05
586	7.65e-05
598	0
610	0.000189
622	0.0001935
634	6.3e-05
646	0.000126
658	0.0002025
670	0.0001215
682	0.0001755
694	0.000171
706	0.0001395
718	0.0001935
730	0.0001395
742	0.0001845
754	0.0002295
766	0.0002385
778	0.00027
790	0.0003825
802	0.000414
814	0.0004185
826	0.0004005
838	0.0003825
850	0.000405
862	0.000405
874	0.000342
886	0.0003375
898	0.000324
910	0.000387
922	0.000513
934	0.0004185
946	0.0004365
958	0.0005625
970	0.000972
982	0.0010125
994	0.000513
1006	0.0003555
1018	0.0003555
1030	0.0002925
1042	0.0002745
1054	0.0002475
1066	0.0002745
1078	0.000315
1090	0.000279
1102	0.000324
1114	0.000315
1126	0.000468
1138	0.0007155
1150	0.0012915
1162	0.0020385
1174	0.001386
1186	0.0005715
1198	0.000324
1210	0.000297
1222	0.0003555
1234	0.000369
1246	0.000378
1258	0.000459
1270	0.000477
1282	0.0004995
1294	0.0005355
1306	0.0006165
1318	0.0009
1330	0.0011655
1342	0.001422
1354	0.0022005
1366	0.0036765
1378	0.004644
1390	0.004176
1402	0.001845
1414	0.001008
1426	0.0010125
1438	0.001602
1450	0.0030645
1462	0.0049455
1474	0.004662
1486	0.002214
1498	0.0009855
1510	0.0006075
1522	0.0004005
1534	0.000306
1546	0.0002745
1558	0.000225
1570	0.000225
1582	0.0002025
1594	0.0002025
1606	0.000225
1618	0.000207
1630	0.000234
1642	0.0002025
1654	0.000189
1666	0.0001845
1678	0.000189
1690	0.0002025
1702	0.0001845
1714	0.000153
1726	0.0001215
1738	0.0001305
1750	0.0001035
1762	9e-05
1774	9.45e-05
1786	8.1e-05
1798	0.000117
1810	0.000108
1822	8.1e-05
1834	7.2e-05
1846	6.3e-05
1858	8.55e-05
1870	7.65e-05
1882	8.1e-05
1894	6.3e-05
1906	5.85e-05
1918	5.4e-05
1930	4.5e-05
1942	4.5e-05
1954	3.6e-05
1966	4.05e-05
1978	4.5e-05
1990	3.15e-05
2002	1.35e-05
2014	2.7e-05
2026	3.15e-05
2038	4.05e-05
2050	1.35e-05
2062	1.8e-05
2074	9e-06
2086	9e-06
2098	2.25e-05
2110	1.8e-05
2122	4.5e-05
2134	1.8e-05
2146	3.6e-05
2158	5.4e-05
2170	4.95e-05
2182	7.2e-05
2194	3.6e-05
2206	6.75e-05
2218	3.15e-05
2230	2.25e-05
2242	4.05e-05
2254	3.15e-05
2266	2.7e-05
2278	4.5e-05
2290	4.5e-05
2302	5.4e-05
2314	0
2326	2.25e-05
2338	3.6e-05
2350	6.75e-05
2362	4.95e-05
2374	9e-05
2386	8.1e-05
2398	7.65e-05
2410	0.0001125
2422	0.000108
2434	0.0001215
2446	9e-05
2458	9.9e-05
2470	9.45e-05
2482	0.000117
2494	0.0001215
2506	0.000126
2518	0.000153
2530	0.0001575
2542	0.000189
2554	0.0001935
2566	0.0002565
2578	0.0003015
2590	0.0003375
2602	0.000378
2614	0.000387
2626	0.0003735
2638	0.000387
2650	0.000396
2662	0.00036
2674	0.0004005
2686	0.000432
2698	0.000477
2710	0.000594
2722	0.0007875
2734	0.0009135
2746	0.000819
2758	0.0007965
2770	0.0008685
2782	0.000981
2794	0.001188
2806	0.0014535
2818	0.001926
2830	0.002862
2842	0.004959
2854	0.006705
2866	0.0091755
2878	0.014463
2890	0.0152955
2902	0.0192735
2914	0.0244935
2926	0.0230265
2938	0.0221085
2950	0.0274365
2962	0.045
2974	0.029655
2986	0.008631
2998	0.003879
3010	0.0023085
3022	0.001548
3034	0.0011925
3046	0.0010305
3058	0.000909
3070	0.0008955
3082	0.000864
3094	0.000828
3106	0.0007065
3118	0.000675
3130	0.000648
3142	0.0006345
3154	0.0006075
3166	0.0006255
3178	0.0006255
3190	0.000558
3202	0.0004905
3214	0.000369
3226	0.000261
3238	0.000216
3250	0.0001845
3262	0.0001845
3274	0.000162
3286	0.0001755
3298	0.0001575
3310	0.000135
3322	0.000171
3334	0.000144
3346	0.0001665
3358	0.00018
3370	0.000126
3382	0.000135
3394	0.0001305
3406	7.2e-05
3418	7.2e-05
3430	0.0001125
3442	4.05e-05
3454	7.65e-05
3466	1.35e-05
3478	3.15e-05
3490	4.95e-05
3502	5.4e-05
3514	4.5e-06
3526	3.6e-05
3538	4.95e-05
3550	1.8e-05
3562	9e-06
3574	4.5e-05
3586	3.15e-05
3598	1.35e-05
3610	6.3e-05
3622	3.15e-05
3634	3.6e-05
3646	2.7e-05
3658	2.7e-05
3670	4.95e-05
3682	3.6e-05
3694	4.95e-05
3706	7.2e-05
3718	7.65e-05
3730	4.05e-05
3742	6.3e-05
3754	8.55e-05
3766	4.5e-05
3778	4.95e-05
3790	0.0001035
3802	9.45e-05
3814	0.0001215
3826	9.9e-05
3838	7.2e-05
