Infrared Spectrum: cis,cis,cis-1,2,3-Trimethylcyclopentane
Formula: C 8 H 16
CAS: 2613-69-6
State: gas
Instrument: HP-GC/MS/IRD
Origin: NIST Mass Spectrometry Data Center
1/CM	ABSORBANCE
550	0.0001605
562	3.21e-05
574	0.0001284
586	0.000321
598	0.000321
610	0.0005029
622	0.0003424
634	0.0001498
646	0.000107
658	4.28e-05
670	0.0001819
682	0.0001605
694	0.0001819
706	0.0001498
718	0.0001391
730	9.63e-05
742	0.000107
754	0.0001391
766	0.0001712
778	0.0001284
790	0.0002033
802	0.0001712
814	0.0001605
826	0.0002247
838	0.0001284
850	0.0001926
862	0.0002354
874	0.0002461
886	0.0002782
898	0.0003424
910	0.0004173
922	0.000321
934	0.0002675
946	0.0004708
958	0.0008881
970	0.0010165
982	0.0010486
994	0.0012947
1006	0.0015729
1018	0.0019153
1030	0.0024824
1042	0.0024182
1054	0.0017013
1066	0.0012198
1078	0.0014445
1090	0.0012947
1102	0.0006313
1114	0.0002889
1126	0.0002461
1138	0.0003317
1150	0.0005992
1162	0.0007383
1174	0.0006527
1186	0.0003531
1198	0.0002033
1210	0.0001284
1222	0.0001498
1234	0.0001926
1246	0.000321
1258	0.0004815
1270	0.0005457
1282	0.0005029
1294	0.0005564
1306	0.0006741
1318	0.0008239
1330	0.001605
1342	0.0026643
1354	0.002889
1366	0.0045261
1378	0.0083032
1390	0.0085493
1402	0.0036487
1414	0.0016692
1426	0.00214
1438	0.0047508
1450	0.0088703
1462	0.0112671
1474	0.0094267
1486	0.0048685
1498	0.0019795
1510	0.0009951
1522	0.000642
1534	0.0004708
1546	0.0003959
1558	0.0003531
1570	0.000321
1582	0.0002782
1594	0.0002996
1606	0.0002782
1618	0.0002996
1630	0.0002675
1642	0.0002889
1654	0.0002889
1666	0.0002568
1678	0.000214
1690	0.0002033
1702	0.0001498
1714	0.0001391
1726	0.000107
1738	0.000107
1750	9.63e-05
1762	9.63e-05
1774	6.42e-05
1786	4.28e-05
1798	5.35e-05
1810	5.35e-05
1822	5.35e-05
1834	6.42e-05
1846	6.42e-05
1858	5.35e-05
1870	5.35e-05
1882	7.49e-05
1894	2.14e-05
1906	0
1918	3.21e-05
1930	4.28e-05
1942	3.21e-05
1954	3.21e-05
1966	2.14e-05
1978	1.07e-05
1990	0
2002	2.14e-05
2014	5.35e-05
2026	2.14e-05
2038	5.35e-05
2050	4.28e-05
2062	8.56e-05
2074	5.35e-05
2086	2.14e-05
2098	2.14e-05
2110	2.14e-05
2122	1.07e-05
2134	3.21e-05
2146	7.49e-05
2158	7.49e-05
2170	2.14e-05
2182	7.49e-05
2194	5.35e-05
2206	3.21e-05
2218	3.21e-05
2230	8.56e-05
2242	0.0001284
2254	0.0001177
2266	0.0001391
2278	0.0001391
2290	0.000107
2302	0.000107
2314	0.0001284
2326	0.0001605
2338	0.0001605
2350	0.0001819
2362	0.0001926
2374	0.0002461
2386	0.0002568
2398	0.0002033
2410	0.000214
2422	0.0001712
2434	0.0001819
2446	0.0001605
2458	0.0001819
2470	0.0002033
2482	0.0002461
2494	0.0002782
2506	0.0002247
2518	0.0002033
2530	0.0002675
2542	0.0003531
2554	0.000428
2566	0.0004708
2578	0.0005778
2590	0.0005885
2602	0.0006634
2614	0.0007169
2626	0.0007169
2638	0.0008667
2650	0.0009095
2662	0.0010272
2674	0.0011556
2686	0.0012198
2698	0.0011021
2710	0.0011663
2722	0.0015515
2734	0.0018297
2746	0.0018725
2758	0.0017869
2770	0.0017227
2782	0.0017762
2794	0.0019902
2806	0.0024289
2818	0.0030816
2830	0.0039376
2842	0.0055319
2854	0.010272
2866	0.0267821
2878	0.0472298
2890	0.052751
2902	0.0526547
2914	0.0499904
2926	0.0527296
2938	0.0699352
2950	0.0989429
2962	0.107
2974	0.0786236
2986	0.0341009
2998	0.010807
3010	0.0048792
3022	0.0032528
3034	0.0026536
3046	0.0022898
3058	0.0019474
3070	0.0017013
3082	0.0014659
3094	0.0013482
3106	0.0013482
3118	0.0013054
3130	0.0012626
3142	0.0011877
3154	0.0012947
3166	0.0013161
3178	0.0013054
3190	0.0011449
3202	0.0009309
3214	0.0007169
3226	0.000535
3238	0.000428
3250	0.0004494
3262	0.0003638
3274	0.0004066
3286	0.000321
3298	0.000321
3310	0.0003103
3322	0.0002889
3334	0.0002889
3346	0.0002461
3358	0.0001712
3370	0.0001926
3382	0.0001391
3394	0.0001605
3406	0.0002247
3418	0.0001498
3430	0.000107
3442	0.0001605
3454	0.0002033
3466	0.0002461
3478	0.0001391
3490	0.0001284
3502	0.0001177
3514	0.0001498
3526	0.0001177
3538	1.07e-05
3550	0.0001284
3562	7.49e-05
3574	8.56e-05
3586	0.0001177
3598	8.56e-05
3610	9.63e-05
3622	8.56e-05
3634	0.0001177
3646	0.000107
3658	0.0001284
3670	7.49e-05
3682	0.0001284
3694	8.56e-05
3706	9.63e-05
3718	0.0002461
3730	0.0001605
3742	0.0002354
3754	0.0001712
3766	0.0001391
3778	0.0001605
3790	0.0001819
3802	0.0001819
3814	0.0002461
3826	0.0001819
3838	0.0001712
