Infrared Spectrum: 2-METHOXY-4-(O-METHOXYPHENYLAZO)ANILINE
Formula: C14 H15 N3 O2
CAS: 2615-05-6
State: SOLID (MINERAL OIL MULL)
Melting point: 115-116 C
Class: COBLENTZ
Instrument: Not specified, most likely a prism, grating, or hybrid spectrometer.
Sampling: TRANSMISSION
Resolution: 4
Origin: WYANDOTTE CHEMICALS CORP., WYANDOTTE, MICHIGAN, USA
MICROMETERS	TRANSMITTANCE
2.02	0.315
2.06098	0.322
2.10195	0.329
2.14293	0.334
2.18391	0.337
2.22488	0.344
2.26586	0.353
2.30684	0.356
2.34781	0.361
2.38879	0.365
2.42977	0.375
2.47074	0.382
2.51172	0.385
2.5527	0.394
2.59367	0.409
2.63465	0.418
2.67563	0.435
2.7166	0.441
2.75758	0.443
2.79856	0.443
2.83953	0.443
2.88051	0.406
2.92149	0.363
2.96246	0.401
3.00344	0.361
3.04442	0.244
3.08539	0.295
3.12637	0.29
3.16735	0.303
3.20832	0.344
3.2493	0.348
3.29028	0.331
3.33125	0.259
3.37223	0.114
3.41321	0.063
3.45418	0.08
3.49516	0.093
3.53614	0.189
3.57711	0.409
3.61809	0.484
3.65907	0.481
3.70004	0.494
3.74102	0.491
3.782	0.506
3.82297	0.515
3.86395	0.525
3.90493	0.542
3.9459	0.552
3.98688	0.566
4.02786	0.576
4.06883	0.578
4.10981	0.581
4.15079	0.587
4.19176	0.588
4.23274	0.587
4.27372	0.571
4.31469	0.592
4.35567	0.612
4.39665	0.634
4.43762	0.646
4.4786	0.638
4.51958	0.641
4.56055	0.655
4.60153	0.66
4.64251	0.667
4.68348	0.667
4.72446	0.674
4.76544	0.682
4.80641	0.686
4.84739	0.691
4.88837	0.696
4.92934	0.696
4.97032	0.697
5.0113	0.703
5.05227	0.723
5.09325	0.728
5.13423	0.732
5.1752	0.742
5.21618	0.738
5.25716	0.744
5.29813	0.752
5.33911	0.767
5.38009	0.766
5.42106	0.759
5.46204	0.788
5.50302	0.803
5.54399	0.817
5.58497	0.813
5.62595	0.825
5.66692	0.825
5.7079	0.827
5.74888	0.827
5.78985	0.843
5.83083	0.866
5.87181	0.849
5.91278	0.877
5.95376	0.901
5.99474	0.926
6.03571	0.919
6.07669	0.764
6.11767	0.245
6.15864	0.124
6.19962	0.286
6.2406	0.16
6.28157	0.284
6.32255	0.506
6.36353	0.588
6.4045	0.67
6.44548	0.686
6.48646	0.737
6.52743	0.624
6.56841	0.213
6.60939	0.191
6.65036	0.349
6.69134	0.235
6.73232	0.244
6.77329	0.186
6.81427	0.136
6.85525	0.209
6.89622	0.39
6.9372	0.392
6.97818	0.448
7.01915	0.66
7.06013	0.767
7.10111	0.718
7.14208	0.373
7.18306	0.218
7.22404	0.303
7.26501	0.259
7.30599	0.389
7.34697	0.571
7.38794	0.636
7.42892	0.704
7.4699	0.766
7.51087	0.713
7.55185	0.401
7.59283	0.312
7.6338	0.18
7.67478	0.218
7.71576	0.368
7.75673	0.506
7.79771	0.339
7.83869	0.174
7.87966	0.409
7.92064	0.556
7.96162	0.457
8.00259	0.182
8.04357	0.075
8.08455	0.047
8.12552	0.11
8.1665	0.199
8.20748	0.3
8.24845	0.358
8.28943	0.308
8.33041	0.257
8.37138	0.327
8.41236	0.363
8.45334	0.419
8.49431	0.44
8.53529	0.534
8.57627	0.556
8.61724	0.489
8.65822	0.447
8.6992	0.39
8.74017	0.486
8.78115	0.414
8.82213	0.302
8.8631	0.255
8.90408	0.31
8.94506	0.392
8.98603	0.368
9.02701	0.216
9.06799	0.284
9.10896	0.378
9.14994	0.433
9.19092	0.45
9.23189	0.46
9.27287	0.467
9.31385	0.486
9.35482	0.517
9.3958	0.535
9.43678	0.563
9.47775	0.575
9.51873	0.578
9.55971	0.493
9.60068	0.457
9.64166	0.407
9.68264	0.291
9.72361	0.208
9.76459	0.271
9.80557	0.414
9.84654	0.515
9.88752	0.561
9.9285	0.598
9.96947	0.622
10.0104	0.645
10.0514	0.665
10.0924	0.677
10.1334	0.68
10.1744	0.686
10.2153	0.667
10.2563	0.65
10.2973	0.653
10.3383	0.675
10.3792	0.694
10.4202	0.709
10.4612	0.715
10.5022	0.725
10.5431	0.718
10.5841	0.703
10.6251	0.668
10.6661	0.651
10.7071	0.639
10.748	0.691
10.789	0.708
10.83	0.72
10.871	0.737
10.9119	0.738
10.9529	0.759
10.9939	0.766
11.0349	0.767
11.0758	0.767
11.1168	0.769
11.1578	0.773
11.1988	0.776
11.2397	0.773
11.2807	0.766
11.3217	0.752
11.3627	0.728
11.4037	0.658
11.4446	0.556
11.4856	0.527
11.5266	0.564
11.5676	0.535
11.6085	0.419
11.6495	0.479
11.6905	0.636
11.7315	0.692
11.7724	0.73
11.8134	0.733
11.8544	0.721
11.8954	0.75
11.9364	0.766
11.9773	0.781
12.0183	0.786
12.0593	0.786
12.1003	0.781
12.1412	0.754
12.1822	0.651
12.2232	0.571
12.2642	0.595
12.3051	0.505
12.3461	0.457
12.3871	0.609
12.4281	0.725
12.469	0.776
12.51	0.808
12.551	0.815
12.592	0.796
12.633	0.725
12.6739	0.54
12.7149	0.571
12.7559	0.687
12.7969	0.75
12.8378	0.784
12.8788	0.807
12.9198	0.81
12.9608	0.812
13.0017	0.81
13.0427	0.815
13.0837	0.796
13.1247	0.769
13.1657	0.711
13.2066	0.6
13.2476	0.407
13.2886	0.238
13.3296	0.186
13.3705	0.151
13.4115	0.199
13.4525	0.397
13.4935	0.462
13.5344	0.496
13.5754	0.554
13.6164	0.633
13.6574	0.677
13.6983	0.697
13.7393	0.723
13.7803	0.744
13.8213	0.75
13.8623	0.754
13.9032	0.764
13.9442	0.791
13.9852	0.813
14.0262	0.825
14.0671	0.834
14.1081	0.848
14.1491	0.853
14.1901	0.856
14.231	0.858
14.272	0.86
14.313	0.861
14.354	0.861
14.395	0.861
14.4359	0.848
14.4769	0.848
14.5179	0.846
14.5589	0.839
14.5998	0.836
14.6408	0.829
14.6818	0.827
14.7228	0.822
14.7637	0.815
14.8047	0.802
14.8457	0.795
14.8867	0.786
14.9276	0.778
14.9686	0.754
15.0096	0.713
15.0506	0.653
15.0916	0.617
15.1325	0.612
15.1735	0.645
15.2145	0.677
15.2555	0.686
15.2964	0.682
15.3374	0.677
15.3784	0.672
15.4194	0.662
15.4603	0.655
15.5013	0.641
15.5423	0.634
15.5833	0.622
15.6243	0.612
15.6652	0.605
15.7062	0.593
15.7472	0.583
15.7882	0.569
15.8291	0.554
15.8701	0.54
15.9111	0.508
15.9521	0.491
15.993	0.47
