Infrared Spectrum: DI-ACETODIPHENYLMONOSULFIDE
Formula: C16 H14 O2 S
CAS: 2615-09-0
State: SOLID (1.0% IN KBr PELLET)
Class: COBLENTZ
Instrument: Not specified, most likely a prism, grating, or hybrid spectrometer.
Sampling: TRANSMISSION
Path length: 0.0355 CM
Resolution: 4
Origin: ANDERSON PHYSICAL LABORATORY
1/CM	TRANSMITTANCE
666.145	0.994
674.593	0.992
683.041	0.989
691.489	0.98
699.937	0.976
708.385	0.964
716.833	0.95
725.281	0.983
733.729	0.979
742.178	0.962
750.626	0.931
759.074	0.847
767.522	0.931
775.97	0.949
784.418	0.868
792.866	0.7362
801.314	0.655
809.762	0.578
818.21	0.44
826.658	0.302
835.106	0.656
843.554	0.799
852.002	0.821
860.45	0.8148
868.898	0.991
877.346	0.998
885.795	0.998
894.243	0.998
902.691	0.992
911.139	0.976
919.587	0.967
928.035	0.955
936.483	0.9171
944.931	0.86
953.379	0.7461
961.827	0.676
970.275	0.8359
978.723	0.91
987.171	0.904
995.619	0.863
1004.07	0.806
1012.52	0.6681
1020.96	0.6439
1029.41	0.67
1037.86	0.73
1046.31	0.734
1054.76	0.722
1063.2	0.698
1071.65	0.671
1080.1	0.668
1088.55	0.61
1097	0.524
1105.44	0.6489
1113.89	0.658
1122.34	0.763
1130.79	0.827
1139.24	0.871
1147.68	0.877
1156.13	0.857
1164.58	0.844
1173.03	0.821
1181.48	0.7372
1189.92	0.631
1198.37	0.857
1206.82	0.832
1215.27	0.8
1223.72	0.757
1232.16	0.691
1240.61	0.605
1249.06	0.494
1257.51	0.416
1265.96	0.2241
1274.41	0.3609
1282.85	0.595
1291.3	0.6199
1299.75	0.857
1308.2	0.82
1316.65	0.86
1325.09	0.904
1333.54	0.878
1341.99	0.817
1350.44	0.6921
1358.89	0.4764
1367.33	0.4399
1375.78	0.6409
1384.23	0.778
1392.68	0.6681
1401.13	0.535
1409.57	0.527
1418.02	0.821
1426.47	0.779
1434.92	0.731
1443.37	0.8389
1451.81	0.913
1460.26	0.923
1468.71	0.92
1477.16	0.904
1485.61	0.869
1494.05	0.839
1502.5	0.895
1510.95	0.877
1519.4	0.857
1527.85	0.835
1536.3	0.809
1544.74	0.767
1553.19	0.724
1561.64	0.677
1570.09	0.659
1578.54	0.626
1586.98	0.442
1595.43	0.355
1603.88	0.6916
1612.33	0.844
1620.78	0.832
1629.22	0.785
1637.67	0.748
1646.12	0.673
1654.57	0.601
1663.02	0.557
1671.46	0.425
1679.91	0.184
1688.36	0.2469
1696.81	0.4819
1705.26	0.8169
1713.7	0.887
1722.15	0.959
1730.6	0.962
1739.05	0.967
1747.5	0.97
1755.94	0.97
1764.39	0.97
1772.84	0.965
1781.29	0.965
1789.74	0.965
1798.18	0.959
1806.63	0.955
1815.08	0.953
1823.53	0.95
1831.98	0.953
1840.43	0.956
1848.87	0.956
1857.32	0.944
1865.77	0.931
1874.22	0.928
1882.67	0.926
1891.11	0.92
1899.56	0.919
1908.01	0.902
1916.46	0.901
1924.91	0.902
1933.35	0.886
1941.8	0.892
1950.25	0.904
1958.7	0.904
1967.15	0.896
1975.59	0.895
1984.04	0.901
1992.49	0.895
2000.94	0.896
2009.39	0.8955
2017.83	0.8922
2026.28	0.889
2034.73	0.889
2043.18	0.889
2051.63	0.889
2060.07	0.8858
2068.52	0.8801
2076.97	0.8774
2085.42	0.8753
2093.87	0.875
2102.31	0.874
2110.76	0.872
2119.21	0.872
2127.66	0.871
2136.11	0.8702
2144.56	0.869
2153	0.8661
2161.45	0.86
2169.9	0.857
2178.35	0.856
2186.8	0.854
2195.24	0.8526
2203.69	0.85
2212.14	0.848
2220.59	0.848
2229.04	0.8465
2237.48	0.843
2245.93	0.842
2254.38	0.8409
2262.83	0.8374
2271.28	0.8339
2279.72	0.8304
2288.17	0.8299
2296.62	0.829
2305.07	0.829
2313.52	0.829
2321.96	0.8257
2330.41	0.8199
2338.86	0.8127
2347.31	0.812
2355.76	0.811
2364.2	0.811
2372.65	0.812
2381.1	0.812
2389.55	0.811
2398	0.8085
2406.45	0.8053
2414.89	0.803
2423.34	0.802
2431.79	0.8025
2440.24	0.803
2448.69	0.802
2457.13	0.7997
2465.58	0.7949
2474.03	0.7902
2482.48	0.788
2490.93	0.788
2499.37	0.79
2507.82	0.788
2516.27	0.7815
2524.72	0.775
2533.17	0.775
2541.61	0.7721
2550.06	0.769
2558.51	0.7682
2566.96	0.767
2575.41	0.766
2583.85	0.764
2592.3	0.764
2600.75	0.764
2609.2	0.763
2617.65	0.761
2626.09	0.76
2634.54	0.7578
2642.99	0.754
2651.44	0.752
2659.89	0.75
2668.33	0.749
2676.78	0.746
2685.23	0.746
2693.68	0.745
2702.13	0.745
2710.58	0.745
2719.02	0.745
2727.47	0.743
2735.92	0.7319
2744.37	0.7309
2752.82	0.73
2761.26	0.73
2769.71	0.7271
2778.16	0.7267
2786.61	0.724
2795.06	0.722
2803.5	0.719
2811.95	0.7176
2820.4	0.7128
2828.85	0.71
2837.3	0.709
2845.74	0.707
2854.19	0.7065
2862.64	0.706
2871.09	0.701
2879.54	0.6977
2887.98	0.6954
2896.43	0.687
2904.88	0.6799
2913.33	0.679
2921.78	0.679
2930.22	0.6774
2938.67	0.677
2947.12	0.6777
2955.57	0.6812
2964.02	0.6829
2972.47	0.685
2980.91	0.685
2989.36	0.685
2997.81	0.686
3006.26	0.686
3014.71	0.685
3023.15	0.6809
3031.6	0.6771
3040.05	0.673
3048.5	0.671
3056.95	0.67
3065.39	0.671
3073.84	0.6708
3082.29	0.67
3090.74	0.67
3099.19	0.671
3107.63	0.671
3116.08	0.671
3124.53	0.671
3132.98	0.673
3141.43	0.671
3149.87	0.6688
3158.32	0.6653
3166.77	0.6616
3175.22	0.6519
3183.67	0.6478
3192.11	0.6416
3200.56	0.6349
3209.01	0.632
3217.46	0.6297
3225.91	0.6262
3234.35	0.6186
3242.8	0.617
3251.25	0.6146
3259.7	0.613
3268.15	0.608
3276.6	0.6045
3285.04	0.5995
3293.49	0.595
3301.94	0.5885
3310.39	0.5784
3318.84	0.5716
3327.28	0.5649
3335.73	0.5566
3344.18	0.5474
3352.63	0.5442
3361.08	0.542
3369.52	0.538
3377.97	0.5312
3386.42	0.5273
3394.87	0.526
3403.32	0.5252
3411.76	0.523
3420.21	0.521
3428.66	0.5197
3437.11	0.5188
3445.56	0.5223
3454	0.524
3462.45	0.5274
3470.9	0.5295
3479.35	0.5327
3487.8	0.536
3496.24	0.5455
3504.69	0.549
3513.14	0.5508
3521.59	0.551
3530.04	0.5533
3538.48	0.556
3546.93	0.5586
3555.38	0.5691
3563.83	0.5726
3572.28	0.5793
3580.73	0.5945
3589.17	0.598
3597.62	0.5997
3606.07	0.6032
3614.52	0.604
3622.97	0.6071
3631.41	0.61
3639.86	0.6156
3648.31	0.617
3656.76	0.619
3665.21	0.619
3673.65	0.617
3682.1	0.616
3690.55	0.616
3699	0.616
3707.45	0.6145
3715.89	0.614
3724.34	0.6137
3732.79	0.613
3741.24	0.611
3749.69	0.6129
3758.13	0.611
3766.58	0.61
3775.03	0.61
3783.48	0.605
3791.93	0.604
3800.37	0.6028
3808.82	0.602
3817.27	0.6007
3825.72	0.5973
3834.17	0.5931
3842.62	0.59
3851.06	0.589
3859.51	0.589
3867.96	0.589
3876.41	0.589
3884.86	0.589
3893.3	0.5894
3901.75	0.5941
3910.2	0.598
3918.65	0.598
3927.1	0.596
3935.54	0.595
3943.99	0.593
3952.44	0.5912
3960.89	0.5879
3969.34	0.587
3977.78	0.586
