Infrared Spectrum: 3-Pyrrolidinopropionitrile
Formula: C 7 H 12 N 2
CAS: 26165-45-7
State: gas
Origin: EPA-IR VAPOR PHASE LIBRARY
1/CM	ABSORBANCE
549.8	9.6e-05
559.445	0
569.09	0.000585
578.735	0.0008395
588.38	0.0009094
598.025	0.0013973
607.67	0.00077001
617.315	0.0006637
626.96	0.0008631
636.605	0.000498
646.251	0.000357
655.896	0.000188
665.541	0.000597
675.186	0.000347
684.831	0.000462
694.476	0.000733295
704.121	0.0009253
713.766	0.0008468
723.411	0.0009548
733.056	0.00075313
742.701	0.00074936
752.346	0.0010026
761.991	0.0010888
771.636	0.0013496
781.281	0.0014255
790.926	0.0014737
800.571	0.0014945
810.216	0.0016649
819.861	0.001794
829.507	0.002364
839.152	0.003014
848.797	0.003784
858.442	0.004074
868.087	0.004094
877.732	0.003954
887.377	0.003474
897.022	0.004024
906.667	0.004724
916.312	0.004764
925.957	0.004464
935.602	0.003744
945.247	0.003384
954.892	0.003124
964.537	0.002784
974.182	0.002314
983.827	0.002194
993.472	0.002444
1003.12	0.003114
1012.76	0.003814
1022.41	0.004724
1032.05	0.005404
1041.7	0.005554
1051.34	0.004864
1060.99	0.003884
1070.63	0.003944
1080.28	0.004094
1089.92	0.004434
1099.57	0.005524
1109.21	0.007924
1118.86	0.012634
1128.5	0.018454
1138.15	0.021574
1147.79	0.020874
1157.44	0.018354
1167.08	0.015424
1176.73	0.013364
1186.37	0.012034
1196.02	0.010874
1205.66	0.010384
1215.31	0.010354
1224.95	0.010664
1234.6	0.011064
1244.24	0.010854
1253.89	0.010064
1263.53	0.009014
1273.18	0.008284
1282.82	0.007484
1292.47	0.006944
1302.11	0.006384
1311.76	0.006544
1321.4	0.008804
1331.05	0.013484
1340.69	0.018224
1350.34	0.020504
1359.98	0.016654
1369.63	0.011134
1379.27	0.010814
1388.92	0.009314
1398.56	0.006144
1408.21	0.004814
1417.85	0.005514
1427.5	0.007224
1437.14	0.007614
1446.79	0.007614
1456.43	0.008694
1466.08	0.008134
1475.73	0.006014
1485.37	0.004284
1495.02	0.003214
1504.66	0.002264
1514.31	0.001688
1523.95	0.0012607
1533.6	0.001157
1543.24	0.0009756
1552.89	0.00078749
1562.53	0.00079496
1572.18	0.00079427
1581.82	0.00074801
1591.47	0.00072798
1601.11	0.0007076
1610.76	0.00076226
1620.4	0.0006447
1630.05	0.0007139
1639.69	0.0006741
1649.34	0.0006732
1658.98	0.0006631
1668.63	0.000581
1678.27	0.000547
1687.92	0.000593
1697.56	0.000609
1707.21	0.0006594
1716.85	0.000671
1726.5	0.000563
1736.14	0.000574
1745.79	0.000592
1755.43	0.00056
1765.08	0.000547
1774.72	0.00058
1784.37	0.000551
1794.01	0.000574
1803.66	0.000574
1813.3	0.000569
1822.95	0.000552
1832.59	0.000572
1842.24	0.00057
1851.88	0.000634
1861.53	0.000578
1871.17	0.0006599
1880.82	0.000618
1890.46	0.0006413
1900.11	0.0006546
1909.75	0.0006396
1919.4	0.0006805
1929.04	0.0006675
1938.69	0.0006971
1948.33	0.0007111
1957.98	0.00076215
1967.62	0.00072468
1977.27	0.00079348
1986.91	0.00077912
1996.56	0.0008447
2006.2	0.00080005
2015.85	0.000835
2025.49	0.00078953
2035.14	0.00079328
2044.78	0.00077524
2054.43	0.00075498
2064.07	0.00082415
2073.72	0.00077797
2083.36	0.0007536
2093.01	0.000739598
2102.65	0.00077358
2112.3	0.0008132
2121.94	0.00072911
2131.59	0.000738855
2141.23	0.00076697
2150.88	0.0007542
2160.52	0.00082565
2170.17	0.0007986
2179.81	0.0008905
2189.46	0.0009383
2199.1	0.0009542
2208.75	0.0010043
2218.39	0.001038
2228.04	0.0011967
2237.68	0.001894
2247.33	0.002994
2256.97	0.002914
2266.62	0.001754
2276.26	0.0011907
2285.91	0.001071
2295.55	0.0011446
2305.2	0.0011271
2314.84	0.0010547
2324.49	0.0010035
2334.13	0.0011052
2343.78	0.0010375
2353.42	0.0010573
2363.07	0.0009822
2372.72	0.0009751
2382.36	0.0010464
2392.01	0.0010133
2401.65	0.0009636
2411.3	0.00101
2420.94	0.0009532
2430.59	0.0008674
2440.23	0.0009662
2449.88	0.0008814
2459.52	0.0008977
2469.17	0.0008955
2478.81	0.0009735
2488.46	0.0009194
2498.1	0.0010154
2507.75	0.0009507
2517.39	0.0011005
2527.04	0.0010754
2536.68	0.0011558
2546.33	0.0012742
2555.97	0.0013746
2565.62	0.0015949
2575.26	0.0016112
2584.91	0.001804
2594.55	0.001994
2604.2	0.002174
2613.84	0.002434
2623.49	0.002774
2633.13	0.003164
2642.78	0.003334
2652.42	0.003654
2662.07	0.003894
2671.71	0.004164
2681.36	0.004574
2691	0.005064
2700.65	0.005864
2710.29	0.006354
2719.94	0.006924
2729.58	0.008254
2739.23	0.010254
2748.87	0.012224
2758.52	0.014664
2768.16	0.018914
2777.81	0.028104
2787.45	0.041644
2797.1	0.053074
2806.74	0.055704
2816.39	0.049964
2826.03	0.039344
2835.68	0.028314
2845.32	0.020704
2854.97	0.016814
2864.61	0.016274
2874.26	0.020264
2883.9	0.025894
2893.55	0.027944
2903.19	0.028404
2912.84	0.031974
2922.48	0.035754
2932.13	0.040454
2941.77	0.047234
2951.42	0.053964
2961.06	0.062114
2970.71	0.066654
2980.35	0.057344
2990	0.033824
2999.64	0.016834
3009.29	0.009434
3018.93	0.006504
3028.58	0.004894
3038.22	0.003474
3047.87	0.002824
3057.51	0.002104
3067.16	0.001744
3076.8	0.0016243
3086.45	0.0012284
3096.09	0.0010127
3105.74	0.0008547
3115.38	0.00082857
3125.03	0.00078244
3134.67	0.00075652
3144.32	0.0007134
3153.96	0.000711
3163.61	0.0006935
3173.25	0.00073067
3182.9	0.000748
3192.54	0.00079388
3202.19	0.0006622
3211.83	0.000694
3221.48	0.0008458
3231.12	0.000471
3240.77	0.000531
3250.41	0.000637
3260.06	0.000413
3269.7	0.000469
3279.35	0.000448
3289	0.000336
3298.64	0.000281
3308.29	0.000494
3317.93	0.000462
3327.58	0.000508
3337.22	0.000374
3346.87	0.000406
3356.51	0.000215
3366.16	0.000284
3375.8	0.000394
3385.45	0.000266
3395.09	0.000168
3404.74	0.000273
3414.38	0.000253
3424.03	0.000485
3433.67	0.000333
3443.32	0.000257
3452.96	0.00037
3462.61	0.0003
3472.25	0.000309
3481.9	0.000457
3491.54	0.000517
3501.19	0.000514
3510.83	0.000321
3520.48	0.00036
3530.12	0.000358
3539.77	0.000233
3549.41	0.000578
3559.06	0.000395
3568.7	0.000362
3578.35	0.000439
3587.99	0.000483
3597.64	0.000539
3607.28	0.000467
3616.93	0.000297
3626.57	0.000443
3636.22	0.000499
3645.86	0.000567
3655.51	0.000479
3665.15	0.000427
3674.8	0.000481
3684.44	0.000626
3694.09	0.000528
3703.73	0.0006437
3713.38	0.000479
3723.02	0.000578
3732.67	0.00037
3742.31	0.000529
3751.96	0.000621
3761.6	0.000585
3771.25	0.0005
3780.89	0.000491
3790.54	0.00051
3800.18	0.00075626
3809.83	0.0006492
3819.47	0.00073013
3829.12	0.0006898
3838.76	0.0007206
3848.41	0.0006558
3858.05	0.00076674
3867.7	0.000602
3877.34	0.000546
3886.99	0.0007005
3896.63	0.000532
3906.28	0.00063
3915.92	0.0006408
3925.57	0.00075478
3935.21	0.00080892
3944.86	0.000603
3954.5	0.0007086
3964.15	0.00082809
3973.79	0.000615
3983.44	0.000731
3993.08	0.00077828
