Infrared Spectrum: 3-Acetylthianaphthene
Formula: C 10 H 8 O S
CAS: 26168-40-1
State: gas
Origin: EPA-IR VAPOR PHASE LIBRARY
1/CM	ABSORBANCE
549.8	0.022428
559.445	0.008538
569.09	0.009688
578.734	0.013738
588.379	0.007988
598.024	0.006698
607.669	0.014218
617.313	0.043028
626.958	0.039718
636.603	0.008538
646.248	0.003138
655.893	0.002418
665.537	0.002788
675.182	0.003078
684.827	0.002988
694.472	0.004148
704.116	0.010798
713.761	0.018448
723.406	0.040668
733.051	0.090518
742.695	0.060128
752.34	0.071618
761.985	0.060638
771.63	0.030858
781.275	0.027998
790.919	0.019738
800.564	0.010038
810.209	0.006188
819.854	0.006518
829.498	0.009818
839.143	0.021098
848.788	0.044218
858.433	0.049168
868.078	0.020748
877.722	0.004808
887.367	0.004408
897.012	0.007078
906.657	0.025088
916.301	0.046538
925.946	0.025898
935.591	0.008748
945.236	0.007298
954.88	0.006158
964.525	0.005588
974.17	0.005968
983.815	0.007078
993.46	0.010628
1003.1	0.018638
1012.75	0.023818
1022.39	0.025618
1032.04	0.016198
1041.68	0.010148
1051.33	0.012828
1060.97	0.024668
1070.62	0.022018
1080.26	0.009368
1089.91	0.006598
1099.55	0.004488
1109.2	0.005488
1118.84	0.009448
1128.49	0.016858
1138.13	0.016978
1147.78	0.022938
1157.42	0.022568
1167.07	0.014868
1176.71	0.018228
1186.36	0.036728
1196	0.125708
1205.64	0.200458
1215.29	0.112438
1224.93	0.040458
1234.58	0.020718
1244.22	0.014558
1253.87	0.016798
1263.51	0.017228
1273.16	0.009978
1282.8	0.005378
1292.45	0.004718
1302.09	0.006668
1311.74	0.008718
1321.38	0.010898
1331.03	0.016138
1340.67	0.025478
1350.32	0.033908
1359.96	0.062018
1369.61	0.102888
1379.25	0.073028
1388.9	0.028538
1398.54	0.019278
1408.18	0.030898
1417.83	0.067168
1427.47	0.073008
1437.12	0.040778
1446.76	0.040528
1456.41	0.073198
1466.05	0.055368
1475.7	0.027108
1485.34	0.066358
1494.99	0.116968
1504.63	0.076878
1514.28	0.024568
1523.92	0.013768
1533.57	0.012048
1543.21	0.013578
1552.86	0.017838
1562.5	0.022328
1572.15	0.019498
1581.79	0.014408
1591.44	0.011438
1601.08	0.008568
1610.73	0.007598
1620.37	0.007258
1630.01	0.007668
1639.66	0.011818
1649.3	0.018648
1658.95	0.020878
1668.59	0.033518
1678.24	0.101348
1687.88	0.249998
1697.53	0.240048
1707.17	0.075828
1716.82	0.026438
1726.46	0.019568
1736.11	0.021138
1745.75	0.016148
1755.4	0.009608
1765.04	0.005698
1774.69	0.004678
1784.33	0.005478
1793.98	0.006858
1803.62	0.005898
1813.27	0.004508
1822.91	0.005708
1832.55	0.005708
1842.2	0.003228
1851.84	0.002088
1861.49	0.002628
1871.13	0.002688
1880.78	0.003348
1890.42	0.002848
1900.07	0.002618
1909.71	0.004098
1919.36	0.004458
1929	0.003038
1938.65	0.002768
1948.29	0.003518
1957.94	0.002918
1967.58	0.001548
1977.23	0.0011431
1986.87	0.001438
1996.52	0.001408
2006.16	0.001348
2015.81	0.0011153
2025.45	0.0010388
2035.1	0.0008883
2044.74	0.0010058
2054.38	0.0007616
2064.03	0.0007093
2073.67	0.0007659
2083.32	0.000773
2092.96	0.0007125
2102.61	0.0008175
2112.25	0.0010347
2121.9	0.001146
2131.54	0.0008457
2141.19	0.000638
2150.83	0.0008146
2160.48	0.0007615
2170.12	0.0007654
2179.77	0.0007416
2189.41	0.0007458
2199.06	0.0009895
2208.7	0.001228
2218.35	0.0009515
2227.99	0.0007828
2237.64	0.0008176
2247.28	0.0009492
2256.92	0.0009846
2266.57	0.001228
2276.21	0.001488
2285.86	0.001838
2295.5	0.001618
2305.15	0.001548
2314.79	0.001508
2324.44	0.001508
2334.08	0.001478
2343.73	0.001378
2353.37	0.001308
2363.02	0.0010427
2372.66	0.0011114
2382.31	0.0009933
2391.95	0.0007817
2401.6	0.0009822
2411.24	0.0010799
2420.89	0.0007604
2430.53	0.0010102
2440.18	0.0010231
2449.82	0.0008671
2459.47	0.0008679
2469.11	0.0010299
2478.75	0.0010974
2488.4	0.0010925
2498.04	0.0009592
2507.69	0.0009225
2517.33	0.0007828
2526.98	0.0007534
2536.62	0.0009188
2546.27	0.001174
2555.91	0.001278
2565.56	0.0011499
2575.2	0.0009991
2584.85	0.0009191
2594.49	0.001178
2604.14	0.001368
2613.78	0.001448
2623.43	0.0011566
2633.07	0.0010019
2642.72	0.0009263
2652.36	0.0008539
2662.01	0.0007133
2671.65	0.0005547
2681.29	0.0006409
2690.94	0.0005683
2700.58	0.0007085
2710.23	0.0005054
2719.87	0.0006449
2729.52	0.0005826
2739.16	0.00059
2748.81	0.0008118
2758.45	0.000985
2768.1	0.0007038
2777.74	0.0007476
2787.39	0.0007843
2797.03	0.0007526
2806.68	0.0008893
2816.32	0.0011694
2825.97	0.001508
2835.61	0.002258
2845.26	0.002658
2854.9	0.002188
2864.55	0.002488
2874.19	0.002248
2883.84	0.002298
2893.48	0.002408
2903.12	0.002878
2912.77	0.003198
2922.41	0.004798
2932.06	0.006908
2941.7	0.006348
2951.35	0.004368
2960.99	0.004808
2970.64	0.006858
2980.28	0.007158
2989.93	0.007338
2999.57	0.008938
3009.22	0.012788
3018.86	0.012288
3028.51	0.010918
3038.15	0.011728
3047.8	0.012518
3057.44	0.024028
3067.09	0.045438
3076.73	0.041488
3086.38	0.017248
3096.02	0.011918
3105.67	0.011888
3115.31	0.009098
3124.95	0.004618
3134.6	0.002368
3144.24	0.001488
3153.89	0.0011816
3163.53	0.0009258
3173.18	0.001258
3182.82	0.001248
3192.47	0.0009313
3202.11	0.0007672
3211.76	0.0005669
3221.4	0.00025719
3231.05	0.0004049
3240.69	0.0005402
3250.34	0.0005936
3259.98	0.0004435
3269.63	0.0007152
3279.27	0.0007329
3288.92	0.00027768
3298.56	0.0005614
3308.21	0.0006502
3317.85	0.00026923
3327.49	0.0007521
3337.14	0.0009819
3346.78	0.001888
3356.43	0.003548
3366.07	0.004348
3375.72	0.003018
3385.36	0.001378
3395.01	0.0009551
3404.65	0.0011055
3414.3	0.0005096
3423.94	0.0005523
3433.59	0.0004516
3443.23	0.0004434
3452.88	0.0002813
3462.52	6.6e-05
3472.17	0.0003419
3481.81	6.5e-05
3491.46	0.0006213
3501.1	0.0003249
3510.75	0.0004206
3520.39	0.0005237
3530.04	0.0003694
3539.68	0.00022448
3549.32	0.0003268
3558.97	0.00022339
3568.61	0.0004411
3578.26	0.0001423
3587.9	0.0005246
3597.55	0.0006011
3607.19	0.0003152
3616.84	0.0006207
3626.48	0.0001615
3636.13	0.0003546
3645.77	0.00028056
3655.42	0.0004141
3665.06	0.0004522
3674.71	5.8e-05
3684.35	0.0004358
3694	0.0004523
3703.64	0.0001484
3713.29	0.0001669
3722.93	0.0003898
3732.58	0.0003247
3742.22	0.0006324
3751.86	0.0005128
3761.51	0.0004473
3771.15	0.0005713
3780.8	0.0005741
3790.44	0.0009747
3800.09	0.0007097
3809.73	0.0008634
3819.38	0.0006089
3829.02	0.0005262
3838.67	0.0006382
3848.31	0.0004362
3857.96	0.0004878
3867.6	0.0004274
3877.25	0.0003178
3886.89	0.0004271
3896.54	0.0003703
3906.18	0.0004228
3915.83	0.0005287
3925.47	0.0005659
3935.12	0.0008447
3944.76	0.0005761
3954.41	0.0006572
3964.05	0.0007133
3973.69	0.0009865
3983.34	0.0005983
3992.98	0.0003738
