Infrared Spectrum: S-(+)-2-Methoxyphenylacetic acid
Formula: C 9 H 10 O 3
CAS: 26164-26-1
State: gas
Origin: EPA-IR VAPOR PHASE LIBRARY
1/CM	ABSORBANCE
549.8	0.004988
559.445	0.005078
569.09	0.003728
578.734	0.004108
588.379	0.004358
598.024	0.005018
607.669	0.007998
617.313	0.010368
626.958	0.008628
636.603	0.006998
646.248	0.006978
655.893	0.006838
665.537	0.005188
675.182	0.004758
684.827	0.006468
694.472	0.009438
704.116	0.009548
713.761	0.006948
723.406	0.005928
733.051	0.004528
742.695	0.004108
752.34	0.005288
761.985	0.003868
771.63	0.002608
781.275	0.001538
790.919	0.001958
800.564	0.0013263
810.209	0.001598
819.854	0.0010292
829.498	0.0011687
839.143	0.001193
848.788	0.001608
858.433	0.001828
868.078	0.001708
877.722	0.001488
887.367	0.001908
897.012	0.001788
906.657	0.001928
916.301	0.002048
925.946	0.002788
935.591	0.002328
945.236	0.002238
954.88	0.001608
964.525	0.002428
974.17	0.003228
983.815	0.004808
993.46	0.004988
1003.1	0.002428
1012.75	0.003038
1022.39	0.002578
1032.04	0.003608
1041.68	0.002568
1051.33	0.002598
1060.97	0.004928
1070.62	0.006948
1080.26	0.011188
1089.91	0.018898
1099.55	0.029358
1109.2	0.030858
1118.84	0.025678
1128.49	0.017678
1138.13	0.014558
1147.78	0.014668
1157.42	0.012488
1167.07	0.009408
1176.71	0.008098
1186.36	0.007948
1196	0.009108
1205.64	0.008648
1215.29	0.006288
1224.93	0.005038
1234.58	0.004378
1244.22	0.005578
1253.87	0.005228
1263.51	0.005188
1273.16	0.005598
1282.8	0.005838
1292.45	0.005958
1302.09	0.006838
1311.74	0.008048
1321.38	0.009738
1331.03	0.011878
1340.67	0.013528
1350.32	0.013918
1359.96	0.012488
1369.61	0.009958
1379.25	0.006918
1388.9	0.004408
1398.54	0.002968
1408.18	0.002348
1417.83	0.001988
1427.47	0.001858
1437.12	0.002468
1446.76	0.003658
1456.41	0.003908
1466.05	0.003148
1475.7	0.002428
1485.34	0.002498
1494.99	0.003108
1504.63	0.002248
1514.28	0.0012755
1523.92	0.0010309
1533.57	0.0011365
1543.21	0.0010935
1552.86	0.0009942
1562.5	0.0010524
1572.15	0.001076
1581.79	0.0011505
1591.44	0.001428
1601.08	0.001548
1610.73	0.0011132
1620.37	0.0011593
1630.01	0.0010119
1639.66	0.0009894
1649.3	0.0009993
1658.95	0.0008531
1668.59	0.0010472
1678.24	0.0009839
1687.88	0.0010608
1697.53	0.0012825
1707.17	0.001588
1716.82	0.001868
1726.46	0.002758
1736.11	0.004058
1745.75	0.005788
1755.4	0.009228
1765.04	0.015128
1774.69	0.019888
1784.33	0.023118
1793.98	0.024938
1803.62	0.021298
1813.27	0.014808
1822.91	0.008608
1832.55	0.005098
1842.2	0.003488
1851.84	0.002408
1861.49	0.002028
1871.13	0.001628
1880.78	0.001378
1890.42	0.001195
1900.07	0.0009817
1909.71	0.0010196
1919.36	0.000982
1929	0.0008561
1938.65	0.0011427
1948.29	0.0011595
1957.94	0.0009615
1967.58	0.0008214
1977.23	0.0008677
1986.87	0.0005613
1996.52	0.0007419
2006.16	0.0006553
2015.81	0.000752
2025.45	0.0006483
2035.1	0.00069
2044.74	0.0007896
2054.38	0.0008106
2064.03	0.0009242
2073.67	0.0009683
2083.32	0.0007418
2092.96	0.000904
2102.61	0.0008456
2112.25	0.0007508
2121.9	0.0007294
2131.54	0.0005126
2141.19	0.00077
2150.83	0.0007498
2160.48	0.0005439
2170.12	0.0007376
2179.77	0.0006026
2189.41	0.0006896
2199.06	0.000693
2208.7	0.0008159
2218.35	0.0005172
2227.99	0.0005698
2237.64	0.000516
2247.28	0.0007187
2256.92	0.0006417
2266.57	0.0005466
2276.21	0.00071
2285.86	0.0007068
2295.5	0.0007754
2305.15	0.0006976
2314.79	0.0008603
2324.44	0.0008907
2334.08	0.0007148
2343.73	0.0006795
2353.37	0.0006766
2363.02	0.000942
2372.66	0.000903
2382.31	0.0007769
2391.95	0.0006129
2401.6	0.0005895
2411.24	0.0007607
2420.89	0.0005861
2430.53	0.0006029
2440.18	0.0006283
2449.82	0.0002636
2459.47	0.0006377
2469.11	0.0007332
2478.75	0.0007038
2488.4	0.0007318
2498.04	0.0007601
2507.69	0.0005463
2517.33	0.00062
2526.98	0.000517
2536.62	0.00040014
2546.27	0.0004717
2555.91	0.00041383
2565.56	0.0006125
2575.2	0.0005221
2584.85	0.00039615
2594.49	0.00038832
2604.14	0.0005692
2613.78	0.000349237
2623.43	0.0005603
2633.07	0.0006082
2642.72	0.0005556
2652.36	0.0006934
2662.01	0.0005895
2671.65	0.0005466
2681.29	0.0006644
2690.94	0.0005994
2700.58	0.0005204
2710.23	0.0006026
2719.87	0.000541
2729.52	0.0006018
2739.16	0.0005611
2748.81	0.0005336
2758.45	0.0006243
2768.1	0.0007125
2777.74	0.0005719
2787.39	0.0009174
2797.03	0.0010364
2806.68	0.0012371
2816.32	0.001548
2825.97	0.003508
2835.61	0.005048
2845.26	0.004308
2854.9	0.002688
2864.55	0.002228
2874.19	0.002648
2883.84	0.003638
2893.48	0.003998
2903.12	0.004128
2912.77	0.004058
2922.41	0.004718
2932.06	0.005468
2941.7	0.005878
2951.35	0.005598
2960.99	0.003968
2970.64	0.002908
2980.28	0.002698
2989.93	0.003068
2999.57	0.004048
3009.22	0.003768
3018.86	0.002768
3028.51	0.003598
3038.15	0.004458
3047.8	0.004048
3057.44	0.003678
3067.09	0.005268
3076.73	0.005448
3086.38	0.003878
3096.02	0.003068
3105.67	0.002018
3115.31	0.001488
3124.95	0.0011463
3134.6	0.0006412
3144.24	0.0006948
3153.89	0.0005856
3163.53	0.0007439
3173.18	0.0006839
3182.82	0.0006516
3192.47	0.0009132
3202.11	0.0006189
3211.76	0.0005701
3221.4	0.0006086
3231.05	0.0006187
3240.69	0.0005397
3250.34	0.0004558
3259.98	0.0004848
3269.63	0.00041404
3279.27	0.0007337
3288.92	0.00036482
3298.56	0.0008619
3308.21	0.0005439
3317.85	0.0005532
3327.49	0.0009356
3337.14	0.0005786
3346.78	0.00036298
3356.43	0.0006722
3366.07	0.0009021
3375.72	0.0005297
3385.36	0.0008043
3395.01	0.0006602
3404.65	0.0008487
3414.3	0.0006316
3423.94	0.0007173
3433.59	0.00095
3443.23	0.001588
3452.88	0.001708
3462.52	0.002518
3472.17	0.003288
3481.81	0.004098
3491.46	0.004368
3501.1	0.003638
3510.75	0.002848
3520.39	0.002198
3530.04	0.001818
3539.68	0.001488
3549.32	0.001828
3558.97	0.005308
3568.61	0.010758
3578.26	0.008878
3587.9	0.002848
3597.55	0.0008704
3607.19	0.0011853
3616.84	0.0006972
3626.48	0.0011023
3636.13	0.0011737
3645.77	0.0009343
3655.42	0.0007561
3665.06	0.0008132
3674.71	0.0006897
3684.35	0.0007825
3694	0.0006968
3703.64	0.0005594
3713.29	0.0006465
3722.93	0.0004699
3732.58	0.0003092
3742.22	0.0005693
3751.86	0.0007946
3761.51	0.0005627
3771.15	0.00039597
3780.8	0.0006643
3790.44	0.0005106
3800.09	0.0008356
3809.73	0.0005773
3819.38	0.00039519
3829.02	0.0008856
3838.67	0.0008437
3848.31	0.000898
3857.96	0.0004998
3867.6	0.0005226
3877.25	0.0003964
3886.89	0.0006749
3896.54	0.000352647
3906.18	0.0006354
3915.83	0.0008424
3925.47	0.0005589
3935.12	0.0008878
3944.76	0.000664
3954.41	0.0007551
3964.05	0.0008388
3973.69	0.0004376
3983.34	0.00034401
3992.98	0.0003354
