Infrared Spectrum: (S)-(+)-2-Pentanol
Formula: C 5 H 12 O
CAS: 26184-62-3
State: gas
Origin: EPA-IR VAPOR PHASE LIBRARY
1/CM	ABSORBANCE
549.8	0.001609
559.445	0.0013814
569.09	0.0005727
578.734	0.001509
588.379	0.0012873
598.024	0.000192
607.669	0.0013962
617.313	0.001519
626.958	0.0014264
636.603	0.0012051
646.248	0.0007799
655.893	0.0012295
665.537	0.001869
675.182	0.001619
684.827	0.001579
694.472	0.0008474
704.116	0.001499
713.761	0.0012011
723.406	0.001629
733.051	0.001699
742.695	0.002129
752.34	0.001589
761.985	0.0013715
771.63	0.0014178
781.275	0.0012384
790.919	0.0014236
800.564	0.002109
810.209	0.002879
819.854	0.003969
829.498	0.004429
839.143	0.004899
848.788	0.004449
858.433	0.003649
868.078	0.003349
877.722	0.004789
887.367	0.005939
897.012	0.006809
906.657	0.006829
916.301	0.006319
925.946	0.007689
935.591	0.009269
945.236	0.009069
954.88	0.008299
964.525	0.007019
974.17	0.006439
983.815	0.007289
993.46	0.009339
1003.1	0.011739
1012.75	0.013459
1022.39	0.013229
1032.04	0.012709
1041.68	0.010919
1051.33	0.011409
1060.97	0.012849
1070.62	0.014769
1080.26	0.015069
1089.91	0.014879
1099.55	0.016739
1109.2	0.016309
1118.84	0.018309
1128.49	0.019329
1138.13	0.021159
1147.78	0.017999
1157.42	0.012659
1167.07	0.008569
1176.71	0.006439
1186.36	0.007509
1196	0.006479
1205.64	0.009389
1215.29	0.007699
1224.93	0.011059
1234.58	0.012039
1244.22	0.012689
1253.87	0.012159
1263.51	0.010649
1273.16	0.009159
1282.8	0.007059
1292.45	0.006309
1302.09	0.006099
1311.74	0.005799
1321.38	0.006439
1331.03	0.007249
1340.67	0.008499
1350.32	0.010509
1359.96	0.013809
1369.61	0.018009
1379.25	0.020129
1388.9	0.019019
1398.54	0.014279
1408.18	0.009929
1417.83	0.007259
1427.47	0.006939
1437.12	0.007939
1446.76	0.009909
1456.41	0.011179
1466.05	0.010269
1475.7	0.008389
1485.34	0.005999
1494.99	0.004059
1504.63	0.002699
1514.28	0.002229
1523.92	0.001999
1533.57	0.0013693
1543.21	0.001312
1552.86	0.0012031
1562.5	0.0011867
1572.15	0.0012022
1581.79	0.0010099
1591.44	0.0012808
1601.08	0.0010577
1610.73	0.001131
1620.37	0.0008638
1630.01	0.000855
1639.66	0.0012239
1649.3	0.0008265
1658.95	0.0009455
1668.59	0.0010045
1678.24	0.0010091
1687.88	0.0009542
1697.53	0.0008287
1707.17	0.000913
1716.82	0.0009001
1726.46	0.0009589
1736.11	0.0008728
1745.75	0.0008085
1755.4	0.000746
1765.04	0.0007979
1774.69	0.0006516
1784.33	0.0008291
1793.98	0.0007172
1803.62	0.0007678
1813.27	0.0009363
1822.91	0.0008399
1832.55	0.0008488
1842.2	0.000675
1851.84	0.0008019
1861.49	0.0008876
1871.13	0.0007545
1880.78	0.0007437
1890.42	0.0006446
1900.07	0.00050262
1909.71	0.0006465
1919.36	0.0004457
1929	0.0006855
1938.65	0.0006702
1948.29	0.0007051
1957.94	0.000843
1967.58	0.0004352
1977.23	0.0009307
1986.87	0.0006775
1996.52	0.0006361
2006.16	0.0008193
2015.81	0.0007794
2025.45	0.0006016
2035.1	0.0006683
2044.74	0.0008502
2054.38	0.0007859
2064.03	0.0008037
2073.67	0.0007007
2083.32	0.0004443
2092.96	0.0007702
2102.61	0.0008627
2112.25	0.0007487
2121.9	0.0006677
2131.54	0.0008015
2141.19	0.0007532
2150.83	0.0009409
2160.48	0.0008567
2170.12	0.0008582
2179.77	0.0008781
2189.41	0.0007388
2199.06	0.0009467
2208.7	0.0008948
2218.35	0.0008376
2227.99	0.0008439
2237.64	0.0010888
2247.28	0.0007801
2256.92	0.0008711
2266.57	0.0010607
2276.21	0.0010047
2285.86	0.0008274
2295.5	0.0010035
2305.15	0.0009026
2314.79	0.0009942
2324.44	0.0009054
2334.08	0.0008403
2343.73	0.0008369
2353.37	0.0010516
2363.02	0.0006464
2372.66	0.0013065
2382.31	0.0012332
2391.95	0.0011256
2401.6	0.0009581
2411.24	0.0013226
2420.89	0.0008686
2430.53	0.0009998
2440.18	0.001316
2449.82	0.0008819
2459.47	0.0007014
2469.11	0.0010109
2478.75	0.0010022
2488.4	0.0006411
2498.04	0.0009845
2507.69	0.0008622
2517.33	0.0010878
2526.98	0.0007625
2536.62	0.0009986
2546.27	0.0010894
2555.91	0.0010254
2565.56	0.0010778
2575.2	0.001362
2584.85	0.001539
2594.49	0.0011459
2604.14	0.001549
2613.78	0.001539
2623.43	0.0013042
2633.07	0.002279
2642.72	0.002189
2652.36	0.002119
2662.01	0.002099
2671.65	0.002499
2681.29	0.002079
2690.94	0.002199
2700.58	0.002199
2710.23	0.002099
2719.87	0.002609
2729.52	0.002749
2739.16	0.002869
2748.81	0.003149
2758.45	0.003039
2768.1	0.002789
2777.74	0.003309
2787.39	0.003519
2797.03	0.004119
2806.68	0.004539
2816.32	0.005589
2825.97	0.007429
2835.61	0.009729
2845.26	0.013599
2854.9	0.019189
2864.55	0.025819
2874.19	0.036299
2883.84	0.040699
2893.48	0.042269
2903.12	0.043589
2912.77	0.048969
2922.41	0.057289
2932.06	0.064079
2941.7	0.064459
2951.35	0.067589
2960.99	0.076879
2970.64	0.081499
2980.28	0.068339
2989.93	0.041839
2999.57	0.020519
3009.22	0.010079
3018.86	0.006249
3028.51	0.005219
3038.15	0.004269
3047.8	0.004419
3057.44	0.003729
3067.09	0.002759
3076.73	0.002799
3086.38	0.002699
3096.02	0.002399
3105.67	0.002799
3115.31	0.001979
3124.95	0.002289
3134.6	0.0013464
3144.24	0.002029
3153.89	0.002179
3163.53	0.001709
3173.18	0.0014577
3182.82	0.001589
3192.47	0.001619
3202.11	0.001719
3211.76	0.0011854
3221.4	0.0014097
3231.05	0.0011039
3240.69	0.0011281
3250.34	0.0004576
3259.98	0.0009014
3269.63	0.0012331
3279.27	0.0009972
3288.92	0.0009768
3298.56	0.00054916
3308.21	0.0007783
3317.85	0.0009875
3327.49	0.0010749
3337.14	0.001475
3346.78	0.00048915
3356.43	0.00054498
3366.07	0.0009441
3375.72	0.0011011
3385.36	0.0012899
3395.01	0.0011408
3404.65	0.001489
3414.3	0.0014266
3423.94	0.0009642
3433.59	0.001629
3443.23	0.0012042
3452.88	0.0010202
3462.52	0.0011539
3472.17	0.0007586
3481.81	0.00051081
3491.46	0.0013343
3501.1	0.0005016
3510.75	0.0009318
3520.39	0.0008279
3530.04	0.0008962
3539.68	0.0007378
3549.32	0.0009622
3558.97	0.0010821
3568.61	0.00047608
3578.26	0.0008547
3587.9	0.002059
3597.55	0.0013709
3607.19	0.000945
3616.84	0.001929
3626.48	0.002619
3636.13	0.005239
3645.77	0.006929
3655.42	0.007319
3665.06	0.006439
3674.71	0.004219
3684.35	0.002259
3694	0.002179
3703.64	0.0009484
3713.29	0.0010589
3722.93	0.0011293
3732.58	0.0008549
3742.22	0.0012918
3751.86	0.0006918
3761.51	0.0010881
3771.15	0.0008802
3780.8	0.0010624
3790.44	0.00051281
3800.09	0.000804
3809.73	0.0014321
3819.38	0.0013898
3829.02	0.0012208
3838.67	0.0012473
3848.31	0.0009453
3857.96	0.001839
3867.6	0.0010436
3877.25	0.0013163
3886.89	0.000479525
3896.54	0.001509
3906.18	0.000846
3915.83	0.000961
3925.47	0.0010082
3935.12	0.0009172
3944.76	0.0009407
3954.41	0.00053232
3964.05	0.00047713
3973.69	0.0009202
3983.34	0.0011248
3992.98	0.0006139
