Infrared Spectrum: Dibenzenesulfonamide
Formula: C12 H11 N O4 S2
CAS: 2618-96-4
State: SOLID (SPLIT MULL), FLUOROLUBE FOR 3800-1330 CM^-^1, NUJOL FOR 1330-400 CM^-^1
Class: COBLENTZ III
Instrument: DOW KBr FOREPRISM-GRATING
Instrument parameters: BLAZED AT 3.5, 12.0, 20.0 MICRON AND CHANGED AT 5.0, 7.5, 14.9 MICRON
Sampling: TRANSMISSION
Resolution: 2
Origin: DOW CHEMICAL COMPANY
1/CM	TRANSMITTANCE
395	0.7346
404	0.7415
413	0.751
422	0.7657
431	0.7808
440	0.792
449	0.7894
458	0.7787
467	0.776
476	0.8198
485	0.8505
494	0.848
503	0.842
512	0.8312
521	0.8072
530	0.7498
539	0.2583
548	0.2147
557	0.5465
566	0.559
575	0.1368
584	0.3236
593	0.6747
602	0.5005
611	0.6425
620	0.6827
629	0.8541
638	0.8763
647	0.8753
656	0.8636
665	0.8378
674	0.765
683	0.2949
692	0.834
701	0.85
710	0.792
719	0.6307
728	0.1633
737	0.8464
746	0.8401
755	0.3758
764	0.7101
773	0.8838
782	0.8838
791	0.8781
800	0.8714
809	0.8594
818	0.8259
827	0.6889
836	0.6531
845	0.645
854	0.6726
863	0.4197
872	0.1619
881	0.327
890	0.6586
899	0.7842
908	0.8331
917	0.8617
926	0.8637
935	0.8558
944	0.8779
953	0.8799
962	0.8774
971	0.8651
980	0.8768
989	0.8513
998	0.8223
1007	0.8596
1016	0.8251
1025	0.8617
1034	0.8629
1043	0.857
1052	0.8484
1061	0.7914
1070	0.7414
1079	0.5177
1088	0.5672
1097	0.7556
1106	0.7963
1115	0.7764
1124	0.7414
1133	0.6785
1142	0.4772
1151	0.1812
1160	0.0912
1169	0.1402
1178	0.5229
1187	0.7351
1196	0.836
1205	0.8617
1214	0.8695
1223	0.8674
1232	0.8618
1241	0.8549
1250	0.847
1259	0.8371
1268	0.8224
1277	0.7912
1286	0.6939
1295	0.7375
1304	0.6219
1313	0.7525
1322	0.7385
1331	0.5279
1340	0.6316
1349	0.484
1358	0.1507
1367	0.1504
1376	0.6427
1385	0.512
1394	0.4697
1403	0.7495
1412	0.8309
1421	0.8482
1430	0.8495
1439	0.8034
1448	0.1396
1457	0.8682
1466	0.8057
1475	0.7734
1484	0.8837
1493	0.8971
1502	0.8976
1511	0.8982
1520	0.8982
1529	0.8978
1538	0.8972
1547	0.8967
1556	0.8964
1565	0.8939
1574	0.8675
1583	0.8669
1592	0.8896
1601	0.8946
1610	0.8975
1619	0.8987
1628	0.8981
1637	0.8962
1646	0.8946
1655	0.8923
1664	0.8896
1673	0.885
1682	0.8783
1691	0.8818
1700	0.8968
1709	0.9001
1718	0.9012
1727	0.9005
1736	0.8977
1745	0.8914
1754	0.8853
1763	0.8847
1772	0.8842
1781	0.8821
1790	0.875
1799	0.8671
1808	0.8701
1817	0.878
1826	0.8801
1835	0.879
1844	0.8787
1853	0.8785
1862	0.8774
1871	0.8755
1880	0.8723
1889	0.8624
1898	0.8566
1907	0.8628
1916	0.8691
1925	0.8662
1934	0.8664
1943	0.8675
1952	0.8652
1961	0.8596
1970	0.8513
1979	0.8566
1988	0.8457
1997	0.8478
2006	0.8441
2015	0.8425
2024	0.841
2033	0.8392
2042	0.8382
2051	0.8366
2060	0.835
2069	0.8329
2078	0.8303
2087	0.828
2096	0.8259
2105	0.8238
2114	0.8219
2123	0.8199
2132	0.8175
2141	0.815
2150	0.8126
2159	0.8101
2168	0.8083
2177	0.8075
2186	0.8081
2195	0.808
2204	0.807
2213	0.8053
2222	0.8024
2231	0.7982
2240	0.7931
2249	0.7877
2258	0.7851
2267	0.786
2276	0.788
2285	0.7897
2294	0.7913
2303	0.7926
2312	0.7935
2321	0.7934
2330	0.7933
2339	0.7925
2348	0.7914
2357	0.7902
2366	0.789
2375	0.7878
2384	0.7867
2393	0.7856
2402	0.7852
2411	0.7849
2420	0.7846
2429	0.7842
2438	0.7835
2447	0.7828
2456	0.7818
2465	0.7806
2474	0.7804
2483	0.7803
2492	0.7795
2501	0.778
2510	0.7767
2519	0.7752
2528	0.7739
2537	0.7724
2546	0.7711
2555	0.7696
2564	0.7683
2573	0.7664
2582	0.7642
2591	0.7591
2600	0.7491
2609	0.7417
2618	0.7425
2627	0.7539
2636	0.7635
2645	0.7591
2654	0.7542
2663	0.7449
2672	0.7303
2681	0.7065
2690	0.692
2699	0.7118
2708	0.7439
2717	0.7519
2726	0.7522
2735	0.7514
2744	0.7486
2753	0.7437
2762	0.7313
2771	0.7127
2780	0.6928
2789	0.71
2798	0.7455
2807	0.7465
2816	0.7453
2825	0.7436
2834	0.7426
2843	0.7421
2852	0.7412
2861	0.7401
2870	0.7388
2879	0.7375
2888	0.7364
2897	0.7348
2906	0.733
2915	0.7294
2924	0.7251
2933	0.7199
2942	0.7142
2951	0.7077
2960	0.7007
2969	0.6918
2978	0.6811
2987	0.6681
2996	0.6527
3005	0.6364
3014	0.6201
3023	0.6033
3032	0.5853
3041	0.5628
3050	0.5281
3059	0.482
3068	0.4436
3077	0.42
3086	0.4277
3095	0.4049
3104	0.3833
3113	0.3636
3122	0.3492
3131	0.3465
3140	0.3582
3149	0.3821
3158	0.411
3167	0.438
3176	0.4636
3185	0.4882
3194	0.522
3203	0.5543
3212	0.5811
3221	0.6043
3230	0.6251
3239	0.6471
3248	0.664
3257	0.6797
3266	0.6948
3275	0.7055
3284	0.7146
3293	0.7185
3302	0.7201
3311	0.7208
3320	0.7234
3329	0.7209
3338	0.7202
3347	0.7192
3356	0.7176
3365	0.716
3374	0.7151
3383	0.7141
3392	0.7129
3401	0.7112
3410	0.7095
3419	0.7081
3428	0.7068
3437	0.7055
3446	0.7042
3455	0.703
3464	0.7019
3473	0.7007
3482	0.6994
3491	0.698
3500	0.6967
3509	0.6953
3518	0.694
3527	0.6928
3536	0.6917
3545	0.6906
3554	0.6895
3563	0.6882
3572	0.6869
3581	0.6864
3590	0.6876
3599	0.6865
3608	0.6849
3617	0.6855
3626	0.6872
3635	0.6873
3644	0.687
3653	0.6852
3662	0.6835
3671	0.6818
3680	0.6803
3689	0.6797
3698	0.6792
3707	0.6781
3716	0.6768
3725	0.6754
3734	0.6742
3743	0.6728
3752	0.6716
3761	0.6703
3770	0.6691
3779	0.6682
3788	0.6675
3797	0.6666
