Infrared Spectrum: p-TOLUENESULFONAMIDE, N-(2-CYANOETHYL)-
Formula: C10 H12 N2 O2 S
CAS: 2619-22-9
State: SOLID (1 mg / 650 mg KBr DISC)
Class: COBLENTZ III
Instrument: PERKIN-ELMER 521 (GRATING)
Instrument parameters: FILTERS AT 3150, 2500, 2000, 1150, 700, 410 CM ^-^1, GRATING CHANGES AT 2000, 630 CM ^-^1
Sampling: TRANSMISSION
Resolution: 4
Origin: SOUTHERN RES. INSTITUTE
1/CM	TRANSMITTANCE
278.714	0.581
287.836	0.589
296.959	0.66
306.081	0.678
315.204	0.63
324.326	0.685
333.449	0.748
342.571	0.778
351.694	0.793
360.816	0.793
369.939	0.74
379.061	0.609
388.184	0.763
397.306	0.846
406.429	0.85
415.551	0.857
424.674	0.859
433.796	0.858
442.919	0.854
452.041	0.853
461.164	0.849
470.286	0.811
479.409	0.81
488.531	0.793
497.654	0.759
506.776	0.813
515.899	0.814
525.021	0.791
534.144	0.706
543.266	0.386
552.389	0.17
561.511	0.593
570.634	0.76
579.756	0.761
588.879	0.56
598.001	0.475
607.124	0.597
616.246	0.777
625.369	0.785
634.491	0.794
643.614	0.801
652.736	0.705
661.859	0.619
670.981	0.574
680.104	0.578
689.226	0.559
698.349	0.465
707.471	0.319
716.594	0.278
725.716	0.334
734.839	0.5
743.961	0.65
753.084	0.721
762.206	0.771
771.329	0.809
780.451	0.822
789.574	0.815
798.696	0.771
807.819	0.763
816.941	0.421
826.064	0.543
835.186	0.716
844.309	0.73
853.431	0.817
862.554	0.874
871.676	0.869
880.799	0.853
889.921	0.818
899.044	0.754
908.166	0.63
917.289	0.305
926.411	0.575
935.534	0.747
944.656	0.826
953.779	0.861
962.901	0.867
972.024	0.859
981.146	0.85
990.269	0.847
999.391	0.828
1008.51	0.757
1017.64	0.672
1026.76	0.799
1035.88	0.741
1045	0.652
1054.13	0.555
1063.25	0.32
1072.37	0.376
1081.49	0.468
1090.62	0.339
1099.74	0.502
1108.86	0.646
1117.98	0.656
1127.11	0.665
1136.23	0.582
1145.35	0.285
1154.47	0.04
1163.6	0.151
1172.72	0.431
1181.84	0.612
1190.96	0.651
1200.09	0.723
1209.21	0.529
1218.33	0.692
1227.45	0.79
1236.58	0.817
1245.7	0.819
1254.82	0.773
1263.94	0.73
1273.07	0.784
1282.19	0.611
1291.31	0.319
1300.43	0.453
1309.56	0.207
1318.68	0.3
1327.8	0.504
1336.92	0.602
1346.05	0.606
1355.17	0.756
1364.29	0.716
1373.41	0.599
1382.54	0.728
1391.66	0.718
1400.78	0.643
1409.9	0.592
1419.03	0.498
1428.15	0.538
1437.27	0.53
1446.39	0.492
1455.52	0.566
1464.64	0.577
1473.76	0.514
1482.88	0.734
1492.01	0.715
1501.13	0.705
1510.25	0.797
1519.37	0.814
1528.5	0.828
1537.62	0.831
1546.74	0.831
1555.86	0.833
1564.99	0.832
1574.11	0.824
1583.23	0.753
1592.35	0.468
1601.48	0.775
1610.6	0.828
1619.72	0.828
1628.84	0.842
1637.97	0.847
1647.09	0.843
1656.21	0.815
1665.33	0.853
1674.46	0.871
1683.58	0.876
1692.7	0.88
1701.82	0.886
1710.95	0.893
1720.07	0.895
1729.19	0.896
1738.31	0.896
1747.44	0.9
1756.56	0.903
1765.68	0.899
1774.8	0.904
1783.93	0.913
1793.05	0.914
1802.17	0.903
1811.29	0.883
1820.42	0.912
1829.54	0.918
1838.66	0.918
1847.78	0.918
1856.91	0.917
1866.03	0.916
1875.15	0.916
1884.27	0.916
1893.4	0.916
1902.52	0.914
1911.64	0.904
1920.76	0.878
1929.89	0.872
1939.01	0.917
1948.13	0.916
1957.25	0.916
1966.38	0.917
1975.5	0.918
1984.62	0.918
1993.74	0.916
2002.87	0.915
2011.99	0.914
2021.11	0.913
2030.23	0.913
2039.36	0.913
2048.48	0.913
2057.6	0.913
2066.72	0.913
2075.85	0.913
2084.97	0.913
2094.09	0.912
2103.21	0.91
2112.34	0.909
2121.46	0.909
2130.58	0.909
2139.7	0.909
2148.83	0.908
2157.95	0.906
2167.07	0.906
2176.19	0.906
2185.32	0.906
2194.44	0.905
2203.56	0.901
2212.68	0.898
2221.81	0.896
2230.93	0.886
2240.05	0.838
2249.17	0.739
2258.3	0.862
2267.42	0.894
2276.54	0.897
2285.66	0.897
2294.79	0.896
2303.91	0.894
2313.03	0.896
2322.15	0.897
2331.28	0.896
2340.4	0.894
2349.52	0.893
2358.64	0.893
2367.77	0.893
2376.89	0.892
2386.01	0.89
2395.13	0.889
2404.26	0.887
2413.38	0.887
2422.5	0.888
2431.62	0.889
2440.75	0.889
2449.87	0.887
2458.99	0.881
2468.11	0.88
2477.24	0.884
2486.36	0.882
2495.48	0.882
2504.6	0.881
2513.73	0.881
2522.85	0.881
2531.97	0.881
2541.09	0.881
2550.22	0.881
2559.34	0.879
2568.46	0.875
2577.58	0.868
2586.71	0.871
2595.83	0.873
2604.95	0.872
2614.07	0.87
2623.2	0.868
2632.32	0.865
2641.44	0.863
2650.56	0.864
2659.69	0.863
2668.81	0.859
2677.93	0.862
2687.05	0.865
2696.18	0.866
2705.3	0.865
2714.42	0.862
2723.54	0.857
2732.67	0.853
2741.79	0.85
2750.91	0.85
2760.03	0.849
2769.16	0.841
2778.28	0.837
2787.4	0.835
2796.52	0.832
2805.65	0.831
2814.77	0.828
2823.89	0.816
2833.01	0.806
2842.14	0.796
2851.26	0.78
2860.38	0.778
2869.5	0.778
2878.63	0.777
2887.75	0.774
2896.87	0.765
2905.99	0.76
2915.12	0.755
2924.24	0.727
2933.36	0.741
2942.48	0.75
2951.61	0.709
2960.73	0.731
2969.85	0.776
2978.97	0.783
2988.1	0.786
2997.22	0.786
3006.34	0.783
3015.46	0.8
3024.59	0.799
3033.71	0.799
3042.83	0.799
3051.95	0.797
3061.08	0.79
3070.2	0.792
3079.32	0.791
3088.44	0.792
3097.57	0.792
3106.69	0.79
3115.81	0.785
3124.93	0.779
3134.06	0.775
3143.18	0.764
3152.3	0.765
3161.42	0.741
3170.55	0.721
3179.67	0.698
3188.79	0.669
3197.91	0.634
3207.04	0.576
3216.16	0.536
3225.28	0.471
3234.4	0.439
3243.53	0.406
3252.65	0.333
3261.77	0.262
3270.89	0.314
3280.02	0.379
3289.14	0.412
3298.26	0.502
3307.38	0.586
3316.51	0.638
3325.63	0.688
3334.75	0.727
3343.87	0.755
3353	0.761
3362.12	0.77
3371.24	0.774
3380.36	0.775
3389.49	0.776
3398.61	0.777
3407.73	0.777
3416.85	0.778
3425.98	0.779
3435.1	0.781
3444.22	0.781
3453.34	0.783
3462.47	0.785
3471.59	0.785
3480.71	0.786
3489.83	0.79
3498.96	0.796
3508.08	0.801
3517.2	0.805
3526.32	0.81
3535.45	0.812
3544.57	0.814
3553.69	0.816
3562.81	0.82
3571.94	0.825
3581.06	0.828
3590.18	0.831
3599.3	0.835
3608.43	0.839
3617.55	0.843
3626.67	0.847
3635.79	0.848
3644.92	0.849
3654.04	0.85
3663.16	0.848
3672.28	0.848
3681.41	0.851
3690.53	0.853
3699.65	0.854
3708.77	0.853
3717.9	0.853
3727.02	0.852
3736.14	0.851
3745.26	0.852
3754.39	0.853
3763.51	0.854
3772.63	0.854
3781.75	0.853
3790.88	0.853
3800	0.851
