Infrared Spectrum: OLEIC ACID, HYDRAZIDE
Formula: C18 H36 N2 O
CAS: 2619-87-6
State: SOLID (MELT)
Melting point: 38 C
Class: COBLENTZ
Instrument: Not specified, most likely a prism, grating, or hybrid spectrometer.
Sampling: TRANSMISSION
Resolution: 4
Origin: TENNESSEE EASTMAN COMPANY, RESEARCH LABORATORIES
MICROMETERS	TRANSMITTANCE
2.041	0.902
2.08181	0.911
2.12263	0.914
2.16344	0.914
2.20426	0.918
2.24507	0.916
2.28589	0.885
2.3267	0.88
2.36752	0.877
2.40833	0.877
2.44915	0.883
2.48996	0.901
2.53078	0.907
2.57159	0.909
2.61241	0.909
2.65322	0.914
2.69403	0.912
2.73485	0.909
2.77566	0.887
2.81648	0.866
2.85729	0.836
2.89811	0.793
2.93892	0.716
2.97974	0.484
3.02055	0.109
3.06137	0.167
3.10218	0.286
3.143	0.319
3.18381	0.542
3.22463	0.667
3.26544	0.609
3.30625	0.462
3.34707	0.363
3.38788	0.03
3.4287	0.09
3.46951	0.092
3.51033	0.346
3.55114	0.686
3.59196	0.774
3.63277	0.808
3.67359	0.825
3.7144	0.839
3.75522	0.841
3.79603	0.843
3.83684	0.854
3.87766	0.873
3.91847	0.895
3.95929	0.909
4.0001	0.918
4.04092	0.924
4.08173	0.931
4.12255	0.935
4.16336	0.938
4.20418	0.94
4.24499	0.938
4.28581	0.926
4.32662	0.923
4.36744	0.935
4.40825	0.941
4.44906	0.941
4.48988	0.943
4.53069	0.945
4.57151	0.947
4.61232	0.948
4.65314	0.948
4.69395	0.948
4.73477	0.948
4.77558	0.945
4.8164	0.945
4.85721	0.945
4.89803	0.943
4.93884	0.943
4.97966	0.945
5.02047	0.953
5.06128	0.95
5.1021	0.95
5.14291	0.948
5.18373	0.948
5.22454	0.948
5.26536	0.952
5.30617	0.952
5.34699	0.95
5.3878	0.948
5.42862	0.947
5.46943	0.943
5.51025	0.943
5.55106	0.935
5.59188	0.923
5.63269	0.906
5.6735	0.885
5.71432	0.793
5.75513	0.747
5.79595	0.79
5.83676	0.752
5.87758	0.703
5.91839	0.602
5.95921	0.441
6.00002	0.331
6.04084	0.237
6.08165	0.095
6.12247	0.017
6.16328	0.044
6.20409	0.126
6.24491	0.076
6.28572	0.269
6.32654	0.457
6.36735	0.547
6.40817	0.486
6.44898	0.372
6.4898	0.153
6.53061	0.283
6.57143	0.431
6.61224	0.452
6.65306	0.43
6.69387	0.407
6.73469	0.421
6.7755	0.204
6.81631	0.208
6.85713	0.366
6.89794	0.452
6.93876	0.47
6.97957	0.511
7.02039	0.51
7.0612	0.491
7.10202	0.564
7.14283	0.576
7.18365	0.525
7.22446	0.412
7.26528	0.474
7.30609	0.551
7.34691	0.569
7.38772	0.6
7.42853	0.59
7.46935	0.561
7.51016	0.564
7.55098	0.558
7.59179	0.566
7.63261	0.578
7.67342	0.587
7.71424	0.597
7.75505	0.605
7.79587	0.604
7.83668	0.578
7.8775	0.581
7.91831	0.61
7.95913	0.602
7.99994	0.619
8.04075	0.643
8.08157	0.658
8.12238	0.67
8.1632	0.674
8.20401	0.648
8.24483	0.643
8.28564	0.653
8.32646	0.653
8.36727	0.631
8.40809	0.58
8.4489	0.593
8.48972	0.614
8.53053	0.607
8.57134	0.561
8.61216	0.568
8.65297	0.651
8.69379	0.694
8.7346	0.723
8.77542	0.732
8.81623	0.735
8.85705	0.735
8.89786	0.73
8.93868	0.723
8.97949	0.723
9.02031	0.732
9.06112	0.733
9.10194	0.713
9.14275	0.679
9.18356	0.686
9.22438	0.706
9.26519	0.716
9.30601	0.72
9.34682	0.72
9.38764	0.704
9.42845	0.689
9.46927	0.67
9.51008	0.639
9.5509	0.6
9.59171	0.588
9.63253	0.602
9.67334	0.587
9.71416	0.573
9.75497	0.547
9.79578	0.489
9.8366	0.447
9.87741	0.457
9.91823	0.506
9.95904	0.537
9.99986	0.546
10.0407	0.546
10.0815	0.544
10.1223	0.542
10.1631	0.549
10.2039	0.58
10.2447	0.612
10.2856	0.627
10.3264	0.631
10.3672	0.636
10.408	0.658
10.4488	0.653
10.4896	0.634
10.5304	0.633
10.5713	0.651
10.6121	0.668
10.6529	0.679
10.6937	0.684
10.7345	0.682
10.7753	0.66
10.8162	0.675
10.857	0.72
10.8978	0.745
10.9386	0.754
10.9794	0.764
11.0202	0.771
11.061	0.773
11.1019	0.774
11.1427	0.778
11.1835	0.781
11.2243	0.786
11.2651	0.793
11.3059	0.802
11.3467	0.805
11.3876	0.81
11.4284	0.815
11.4692	0.819
11.51	0.819
11.5508	0.82
11.5916	0.82
11.6324	0.82
11.6733	0.82
11.7141	0.824
11.7549	0.825
11.7957	0.827
11.8365	0.827
11.8773	0.827
11.9181	0.827
11.959	0.829
11.9998	0.829
12.0406	0.825
12.0814	0.825
12.1222	0.819
12.163	0.819
12.2038	0.817
12.2447	0.819
12.2855	0.817
12.3263	0.817
12.3671	0.815
12.4079	0.813
12.4487	0.812
12.4896	0.807
12.5304	0.802
12.5712	0.795
12.612	0.79
12.6528	0.781
12.6936	0.771
12.7344	0.761
12.7753	0.745
12.8161	0.728
12.8569	0.706
12.8977	0.691
12.9385	0.687
12.9793	0.687
13.0201	0.689
13.061	0.691
13.1018	0.692
13.1426	0.692
13.1834	0.694
13.2242	0.684
13.265	0.675
13.3058	0.667
13.3467	0.653
13.3875	0.638
13.4283	0.616
13.4691	0.592
13.5099	0.568
13.5507	0.537
13.5915	0.513
13.6324	0.474
13.6732	0.453
13.714	0.421
13.7548	0.39
13.7956	0.37
13.8364	0.373
13.8773	0.416
13.9181	0.445
13.9589	0.455
13.9997	0.457
14.0405	0.453
14.0813	0.447
14.1221	0.44
14.163	0.431
14.2038	0.419
14.2446	0.409
14.2854	0.401
14.3262	0.394
14.367	0.385
14.4078	0.383
14.4487	0.383
14.4895	0.383
14.5303	0.39
14.5711	0.399
14.6119	0.409
14.6527	0.419
14.6935	0.424
14.7344	0.431
14.7752	0.44
14.816	0.445
14.8568	0.45
14.8976	0.459
14.9384	0.464
14.9792	0.465
15.0201	0.465
15.0609	0.467
15.1017	0.467
15.1425	0.472
15.1833	0.476
15.2241	0.481
15.2649	0.488
15.3058	0.498
15.3466	0.5
15.3874	0.503
15.4282	0.511
15.469	0.515
15.5098	0.517
15.5507	0.517
15.5915	0.52
15.6323	0.522
15.6731	0.525
15.7139	0.529
15.7547	0.529
15.7955	0.53
15.8364	0.53
15.8772	0.532
15.918	0.532
15.9588	0.532
