Infrared Spectrum: ADENOSINE, N,N-DIMETHYL-
Formula: C12 H17 N5 O4
CAS: 2620-62-4
State: SOLID (1 mg / 650 mg KBr DISC)
Class: COBLENTZ III
Instrument: PERKIN-ELMER 521 (GRATING)
Instrument parameters: FILTER CHANGE AT 3130, 2475, 2000, 1150, 700, 410 CM^-^1, GRATING CHANGES AT 2000, 620 CM^-^1
Sampling: TRANSMISSION
Resolution: 4
Origin: SOUTHERN RESEARCH INST.
1/CM	TRANSMITTANCE
255.977	0.299
265.015	0.325
274.053	0.4
283.091	0.451
292.129	0.497
301.166	0.54
310.204	0.577
319.242	0.601
328.28	0.618
337.318	0.635
346.356	0.648
355.394	0.64
364.432	0.65
373.47	0.702
382.507	0.724
391.545	0.72
400.583	0.738
409.621	0.752
418.659	0.756
427.697	0.753
436.735	0.753
445.773	0.758
454.811	0.776
463.848	0.782
472.886	0.786
481.924	0.786
490.962	0.789
500	0.788
509.038	0.785
518.076	0.78
527.114	0.76
536.152	0.722
545.189	0.759
554.227	0.746
563.265	0.761
572.303	0.756
581.341	0.752
590.379	0.742
599.417	0.724
608.455	0.696
617.493	0.659
626.531	0.619
635.568	0.568
644.606	0.637
653.644	0.615
662.682	0.732
671.72	0.762
680.758	0.735
689.796	0.697
698.834	0.609
707.872	0.664
716.909	0.758
725.947	0.783
734.985	0.777
744.023	0.731
753.061	0.753
762.099	0.715
771.137	0.791
780.175	0.815
789.213	0.811
798.25	0.63
807.288	0.781
816.326	0.823
825.364	0.809
834.402	0.795
843.44	0.753
852.478	0.719
861.516	0.665
870.554	0.67
879.591	0.707
888.629	0.735
897.667	0.678
906.705	0.687
915.743	0.731
924.781	0.677
933.819	0.785
942.857	0.798
951.895	0.786
960.932	0.769
969.97	0.776
979.008	0.782
988.046	0.702
997.084	0.732
1006.12	0.78
1015.16	0.763
1024.2	0.716
1033.24	0.578
1042.27	0.472
1051.31	0.604
1060.35	0.611
1069.39	0.626
1078.43	0.571
1087.46	0.331
1096.5	0.487
1105.54	0.636
1114.58	0.523
1123.61	0.494
1132.65	0.543
1141.69	0.684
1150.73	0.774
1159.77	0.79
1168.8	0.781
1177.84	0.733
1186.88	0.672
1195.92	0.734
1204.96	0.611
1213.99	0.626
1223.03	0.643
1232.07	0.669
1241.11	0.677
1250.14	0.692
1259.18	0.713
1268.22	0.682
1277.26	0.586
1286.3	0.708
1295.33	0.685
1304.37	0.556
1313.41	0.662
1322.45	0.71
1331.49	0.637
1340.52	0.608
1349.56	0.474
1358.6	0.593
1367.64	0.665
1376.68	0.605
1385.71	0.636
1394.75	0.648
1403.79	0.545
1412.83	0.595
1421.86	0.592
1430.9	0.514
1439.94	0.636
1448.98	0.69
1458.02	0.713
1467.05	0.718
1476.09	0.678
1485.13	0.593
1494.17	0.72
1503.21	0.764
1512.24	0.786
1521.28	0.746
1530.32	0.655
1539.36	0.642
1548.4	0.69
1557.43	0.663
1566.47	0.545
1575.51	0.543
1584.55	0.555
1593.58	0.247
1602.62	0.141
1611.66	0.152
1620.7	0.377
1629.74	0.544
1638.77	0.668
1647.81	0.707
1656.85	0.746
1665.89	0.776
1674.93	0.8
1683.96	0.818
1693	0.827
1702.04	0.83
1711.08	0.835
1720.12	0.839
1729.15	0.847
1738.19	0.851
1747.23	0.856
1756.27	0.857
1765.3	0.858
1774.34	0.86
1783.38	0.866
1792.42	0.867
1801.46	0.867
1810.49	0.868
1819.53	0.867
1828.57	0.866
1837.61	0.865
1846.65	0.866
1855.68	0.867
1864.72	0.867
1873.76	0.867
1882.8	0.867
1891.84	0.865
1900.87	0.863
1909.91	0.862
1918.95	0.86
1927.99	0.862
1937.02	0.863
1946.06	0.864
1955.1	0.862
1964.14	0.863
1973.18	0.865
1982.21	0.868
1991.25	0.868
2000.29	0.865
2009.33	0.864
2018.37	0.865
2027.4	0.865
2036.44	0.864
2045.48	0.863
2054.52	0.863
2063.56	0.863
2072.59	0.863
2081.63	0.863
2090.67	0.863
2099.71	0.862
2108.74	0.862
2117.78	0.862
2126.82	0.861
2135.86	0.86
2144.9	0.86
2153.93	0.859
2162.97	0.859
2172.01	0.859
2181.05	0.858
2190.09	0.857
2199.12	0.857
2208.16	0.856
2217.2	0.854
2226.24	0.853
2235.27	0.851
2244.31	0.851
2253.35	0.851
2262.39	0.85
2271.43	0.848
2280.46	0.848
2289.5	0.846
2298.54	0.844
2307.58	0.842
2316.62	0.842
2325.65	0.841
2334.69	0.837
2343.73	0.834
2352.77	0.832
2361.81	0.829
2370.84	0.829
2379.88	0.829
2388.92	0.828
2397.96	0.825
2406.99	0.82
2416.03	0.818
2425.07	0.809
2434.11	0.806
2443.15	0.803
2452.18	0.801
2461.22	0.797
2470.26	0.794
2479.3	0.791
2488.34	0.787
2497.37	0.783
2506.41	0.779
2515.45	0.776
2524.49	0.774
2533.53	0.772
2542.56	0.771
2551.6	0.769
2560.64	0.765
2569.68	0.761
2578.71	0.758
2587.75	0.749
2596.79	0.743
2605.83	0.739
2614.87	0.735
2623.9	0.726
2632.94	0.72
2641.98	0.711
2651.02	0.708
2660.06	0.711
2669.09	0.719
2678.13	0.724
2687.17	0.727
2696.21	0.73
2705.25	0.723
2714.28	0.717
2723.32	0.713
2732.36	0.71
2741.4	0.708
2750.43	0.705
2759.47	0.703
2768.51	0.694
2777.55	0.683
2786.59	0.671
2795.62	0.659
2804.66	0.644
2813.7	0.637
2822.74	0.65
2831.78	0.652
2840.81	0.648
2849.85	0.639
2858.89	0.635
2867.93	0.632
2876.97	0.629
2886	0.616
2895.04	0.606
2904.08	0.601
2913.12	0.584
2922.15	0.561
2931.19	0.584
2940.23	0.598
2949.27	0.611
2958.31	0.633
2967.34	0.648
2976.38	0.652
2985.42	0.654
2994.46	0.656
3003.5	0.652
3012.53	0.647
3021.57	0.638
3030.61	0.626
3039.65	0.615
3048.69	0.611
3057.72	0.603
3066.76	0.587
3075.8	0.587
3084.84	0.593
3093.87	0.596
3102.91	0.589
3111.95	0.583
3120.99	0.592
3130.03	0.599
3139.06	0.6
3148.1	0.6
3157.14	0.599
3166.18	0.596
3175.22	0.594
3184.25	0.59
3193.29	0.587
3202.33	0.581
3211.37	0.577
3220.41	0.57
3229.44	0.557
3238.48	0.543
3247.52	0.531
3256.56	0.519
3265.59	0.512
3274.63	0.508
3283.67	0.505
3292.71	0.504
3301.75	0.507
3310.78	0.511
3319.82	0.516
3328.86	0.52
3337.9	0.518
3346.94	0.514
3355.97	0.506
3365.01	0.497
3374.05	0.491
3383.09	0.487
3392.12	0.484
3401.16	0.49
3410.2	0.514
3419.24	0.551
3428.28	0.579
3437.31	0.6
3446.35	0.613
3455.39	0.636
3464.43	0.653
3473.47	0.669
3482.5	0.682
3491.54	0.694
3500.58	0.707
3509.62	0.718
3518.66	0.728
3527.69	0.74
3536.73	0.751
3545.77	0.761
3554.81	0.769
3563.84	0.779
3572.88	0.788
3581.92	0.794
3590.96	0.806
3600	0.815
3609.03	0.821
3618.07	0.828
3627.11	0.837
3636.15	0.847
3645.19	0.842
3654.22	0.842
3663.26	0.851
3672.3	0.842
3681.34	0.844
3690.38	0.851
3699.41	0.852
3708.45	0.853
3717.49	0.855
3726.53	0.853
3735.56	0.849
3744.6	0.845
3753.64	0.849
3762.68	0.856
3771.72	0.859
3780.75	0.856
3789.79	0.853
3798.83	0.851
