Infrared Spectrum: Piperonylamine
Formula: C 8 H 9 N O 2
CAS: 2620-50-0
State: gas
Origin: EPA-IR VAPOR PHASE LIBRARY
1/CM	ABSORBANCE
549.8	0.00533
559.445	0.00535
569.09	0.00638
578.734	0.00712
588.379	0.0092
598.024	0.01126
607.669	0.01192
617.313	0.01238
626.958	0.01337
636.603	0.01409
646.248	0.01305
655.893	0.01166
665.537	0.01129
675.182	0.01193
684.827	0.01339
694.472	0.01588
704.116	0.02032
713.761	0.02624
723.406	0.03281
733.051	0.03776
742.695	0.0383
752.34	0.03458
761.985	0.03508
771.63	0.04373
781.275	0.0544
790.919	0.06653
800.564	0.07987
810.209	0.074
819.854	0.05035
829.498	0.03519
839.143	0.02972
848.788	0.02817
858.433	0.02881
868.078	0.02422
877.722	0.01785
887.367	0.01446
897.012	0.01628
906.657	0.0249
916.301	0.03451
925.946	0.04211
935.591	0.05112
945.236	0.05663
954.88	0.04673
964.525	0.02608
974.17	0.01575
983.815	0.01283
993.46	0.01281
1003.1	0.01578
1012.75	0.02284
1022.39	0.0394
1032.04	0.06903
1041.68	0.10619
1051.33	0.11887
1060.97	0.08738
1070.62	0.04915
1080.26	0.03333
1089.91	0.03231
1099.55	0.03162
1109.2	0.02845
1118.84	0.02593
1128.49	0.02042
1138.13	0.01408
1147.78	0.01032
1157.42	0.00856
1167.07	0.01075
1176.71	0.02279
1186.36	0.04622
1196	0.04987
1205.64	0.04122
1215.29	0.05621
1224.93	0.10452
1234.58	0.19714
1244.22	0.25511
1253.87	0.18664
1263.51	0.08385
1273.16	0.0371
1282.8	0.02432
1292.45	0.01866
1302.09	0.01662
1311.74	0.01738
1321.38	0.02018
1331.03	0.02418
1340.67	0.02979
1350.32	0.0345
1359.96	0.03329
1369.61	0.02954
1379.25	0.02871
1388.9	0.02639
1398.54	0.02053
1408.18	0.01819
1417.83	0.02549
1427.47	0.05181
1437.12	0.10214
1446.76	0.10798
1456.41	0.06551
1466.05	0.06219
1475.7	0.09881
1485.34	0.19723
1494.99	0.19274
1504.63	0.10066
1514.28	0.05397
1523.92	0.02067
1533.57	0.01299
1543.21	0.00987
1552.86	0.00878
1562.5	0.00851
1572.15	0.00891
1581.79	0.01016
1591.44	0.01287
1601.08	0.0167
1610.73	0.02034
1620.37	0.02052
1630.01	0.01621
1639.66	0.01117
1649.3	0.00794
1658.95	0.00603
1668.59	0.00472
1678.24	0.00399
1687.88	0.00384
1697.53	0.00427
1707.17	0.00476
1716.82	0.00506
1726.46	0.00457
1736.11	0.00405
1745.75	0.00382
1755.4	0.00387
1765.04	0.0039
1774.69	0.00356
1784.33	0.00304
1793.98	0.0028
1803.62	0.00298
1813.27	0.00381
1822.91	0.00519
1832.55	0.00607
1842.2	0.00583
1851.84	0.00523
1861.49	0.00495
1871.13	0.00485
1880.78	0.00443
1890.42	0.00367
1900.07	0.00267
1909.71	0.00191
1919.36	0.00161
1929	0.00147
1938.65	0.0014
1948.29	0.00138
1957.94	0.00144
1967.58	0.00151
1977.23	0.00172
1986.87	0.00203
1996.52	0.0023
2006.16	0.00242
2015.81	0.00235
2025.45	0.00234
2035.1	0.00255
2044.74	0.00267
2054.38	0.00248
2064.03	0.00212
2073.67	0.00185
2083.32	0.00168
2092.96	0.00153
2102.61	0.00122
2112.25	0.00103
2121.9	0.00101
2131.54	0.00103
2141.19	0.00101
2150.83	0.0009901
2160.48	0.00103
2170.12	0.00102
2179.77	0.00116
2189.41	0.00113
2199.06	0.00111
2208.7	0.0011
2218.35	0.0011
2227.99	0.00107
2237.64	0.00108
2247.28	0.00117
2256.92	0.00114
2266.57	0.00119
2276.21	0.00123
2285.86	0.00138
2295.5	0.00157
2305.15	0.00153
2314.79	0.0014
2324.44	0.00123
2334.08	0.00106
2343.73	0.00105
2353.37	0.00104
2363.02	0.00112
2372.66	0.00108
2382.31	0.0009288
2391.95	0.0006323
2401.6	0.0006008
2411.24	0.0006049
2420.89	0.000657
2430.53	0.0007124
2440.18	0.0007016
2449.82	0.0007105
2459.47	0.000646
2469.11	0.0006494
2478.75	0.000749
2488.4	0.0008052
2498.04	0.0009146
2507.69	0.00118
2517.33	0.0014
2526.98	0.00169
2536.62	0.00179
2546.27	0.00176
2555.91	0.00178
2565.56	0.00188
2575.2	0.00209
2584.85	0.00227
2594.49	0.00235
2604.14	0.00225
2613.78	0.0019
2623.43	0.00171
2633.07	0.00166
2642.72	0.00177
2652.36	0.00189
2662.01	0.00215
2671.65	0.00267
2681.29	0.0029
2690.94	0.00307
2700.58	0.00306
2710.23	0.00309
2719.87	0.00341
2729.52	0.00405
2739.16	0.0049
2748.81	0.00612
2758.45	0.00886
2768.1	0.01544
2777.74	0.01638
2787.39	0.01009
2797.03	0.00825
2806.68	0.00958
2816.32	0.01196
2825.97	0.01593
2835.61	0.02148
2845.26	0.02897
2854.9	0.04002
2864.55	0.05436
2874.19	0.06462
2883.84	0.06324
2893.48	0.05728
2903.12	0.05597
2912.77	0.05491
2922.41	0.05206
2932.06	0.04915
2941.7	0.04588
2951.35	0.03933
2960.99	0.02912
2970.64	0.02074
2980.28	0.01584
2989.93	0.01386
2999.57	0.01397
3009.22	0.01701
3018.86	0.02102
3028.51	0.02147
3038.15	0.01941
3047.8	0.01538
3057.44	0.01177
3067.09	0.01076
3076.73	0.00968
3086.38	0.00725
3096.02	0.00501
3105.67	0.00388
3115.31	0.00297
3124.95	0.00192
3134.6	0.00124
3144.24	0.0007607
3153.89	0.0005662
3163.53	0.0005362
3173.18	0.0005038
3182.82	0.0005144
3192.47	0.0005402
3202.11	0.0005681
3211.76	0.0005926
3221.4	0.0005227
3231.05	0.0004693
3240.69	0.0005194
3250.34	0.0005474
3259.98	0.0004301
3269.63	0.0003893
3279.27	0.0003701
3288.92	0.0003784
3298.56	0.0003582
3308.21	0.0004214
3317.85	0.0004772
3327.49	0.0005852
3337.14	0.00144
3346.78	0.00176
3356.43	0.00147
3366.07	0.0009311
3375.72	0.0006995
3385.36	0.0005431
3395.01	0.0006453
3404.65	0.0005922
3414.3	0.0009469
3423.94	0.000724
3433.59	0.0006169
3443.23	0.0005301
3452.88	0.0002731
3462.52	0.0002218
3472.17	0.0003612
3481.81	0.0004267
3491.46	0.0003312
3501.1	0.0004085
3510.75	0.0002913
3520.39	0.0002978
3530.04	0.0003658
3539.68	0.0004513
3549.32	0.0003416
3558.97	0.0004283
3568.61	0.000237
3578.26	0.0002833
3587.9	0.0003407
3597.55	0.000416
3607.19	0.0004565
3616.84	0.0003314
3626.48	0.000329
3636.13	0.0002966
3645.77	0.0003081
3655.42	0.0003274
3665.06	0.0003816
3674.71	0.0003234
3684.35	0.0002936
3694	0.0002107
3703.64	0.0003642
3713.29	0.0002626
3722.93	0.0001974
3732.58	0.0002933
3742.22	0.0002354
3751.86	0.0002801
3761.51	0.0003923
3771.15	0.000421
3780.8	0.0004452
3790.44	0.0004755
3800.09	0.0005486
3809.73	0.0005596
3819.38	0.0006022
3829.02	0.0004913
3838.67	0.0007064
3848.31	0.0005673
3857.96	0.0003647
3867.6	0.0004568
3877.25	0.0005814
3886.89	0.0005672
3896.54	0.0006769
3906.18	0.0005606
3915.83	0.0008476
3925.47	0.0008279
3935.12	0.0009473
3944.76	0.0008733
3954.41	0.0009285
3964.05	0.0009959
3973.69	0.00104
3983.34	0.0007893
3992.98	0.0008007
