Infrared Spectrum: 3,4-Methylenedioxynitrobenzene
Formula: C 7 H 5 N O 4
CAS: 2620-44-2
State: gas
Origin: EPA-IR VAPOR PHASE LIBRARY
1/CM	ABSORBANCE
549.8	0.0013222
559.445	0.0007289
569.09	0.002025
578.734	0.004655
588.379	0.003615
598.024	0.0012738
607.669	0.0009673
617.313	0.00052171
626.958	0.0008373
636.603	0.0009945
646.248	0.00105
655.893	0.0010769
665.537	0.0012461
675.182	0.004005
684.827	0.004945
694.472	0.002635
704.116	0.002185
713.761	0.004365
723.406	0.007195
733.051	0.009655
742.695	0.011725
752.34	0.006105
761.985	0.002225
771.63	0.0013875
781.275	0.001485
790.919	0.003415
800.564	0.010805
810.209	0.017545
819.854	0.022115
829.498	0.013195
839.143	0.004995
848.788	0.003065
858.433	0.005005
868.078	0.009035
877.722	0.011015
887.367	0.005885
897.012	0.003305
906.657	0.005745
916.301	0.012005
925.946	0.014865
935.591	0.014035
945.236	0.013805
954.88	0.009255
964.525	0.004005
974.17	0.002455
983.815	0.002225
993.46	0.002425
1003.1	0.003515
1012.75	0.006285
1022.39	0.012945
1032.04	0.028085
1041.68	0.042675
1051.33	0.036465
1060.97	0.021205
1070.62	0.012795
1080.26	0.006715
1089.91	0.004935
1099.55	0.006525
1109.2	0.011795
1118.84	0.011725
1128.49	0.006135
1138.13	0.003125
1147.78	0.002345
1157.42	0.002925
1167.07	0.003425
1176.71	0.002555
1186.36	0.001855
1196	0.002215
1205.64	0.003395
1215.29	0.009625
1224.93	0.028095
1234.58	0.051815
1244.22	0.054235
1253.87	0.079965
1263.51	0.073785
1273.16	0.022045
1282.8	0.008385
1292.45	0.007305
1302.09	0.006315
1311.74	0.007955
1321.38	0.016375
1331.03	0.030085
1340.67	0.054815
1350.32	0.084575
1359.96	0.064845
1369.61	0.034855
1379.25	0.016765
1388.9	0.008505
1398.54	0.009965
1408.18	0.010925
1417.83	0.009595
1427.47	0.014535
1437.12	0.019975
1446.76	0.016365
1456.41	0.019615
1466.05	0.036465
1475.7	0.075415
1485.34	0.090155
1494.99	0.046295
1504.63	0.028145
1514.28	0.029015
1523.92	0.031335
1533.57	0.051195
1543.21	0.060335
1552.86	0.052175
1562.5	0.035135
1572.15	0.021245
1581.79	0.011305
1591.44	0.008475
1601.08	0.008265
1610.73	0.007855
1620.37	0.005405
1630.01	0.003805
1639.66	0.003425
1649.3	0.002545
1658.95	0.001645
1668.59	0.001495
1678.24	0.001455
1687.88	0.001735
1697.53	0.001715
1707.17	0.0014032
1716.82	0.0011937
1726.46	0.0013742
1736.11	0.002055
1745.75	0.002605
1755.4	0.002235
1765.04	0.001565
1774.69	0.0011925
1784.33	0.0009832
1793.98	0.0008029
1803.62	0.0007415
1813.27	0.0008464
1822.91	0.0010977
1832.55	0.0013221
1842.2	0.001825
1851.84	0.002315
1861.49	0.002555
1871.13	0.002245
1880.78	0.001685
1890.42	0.0012469
1900.07	0.0008099
1909.71	0.0006746
1919.36	0.0006324
1929	0.0007471
1938.65	0.0007316
1948.29	0.0007495
1957.94	0.0008794
1967.58	0.0010671
1977.23	0.0014145
1986.87	0.001505
1996.52	0.0010042
2006.16	0.0008554
2015.81	0.0006988
2025.45	0.0006751
2035.1	0.000749
2044.74	0.0009902
2054.38	0.0010484
2064.03	0.0010766
2073.67	0.001193
2083.32	0.0011403
2092.96	0.0009283
2102.61	0.0008454
2112.25	0.0007714
2121.9	0.000593
2131.54	0.0005345
2141.19	0.00050491
2150.83	0.00052011
2160.48	0.0005421
2170.12	0.0005331
2179.77	0.0005368
2189.41	0.000526
2199.06	0.0005361
2208.7	0.0005961
2218.35	0.0006258
2227.99	0.0006498
2237.64	0.0006702
2247.28	0.0006439
2256.92	0.0006912
2266.57	0.0008888
2276.21	0.0010172
2285.86	0.0009724
2295.5	0.0008869
2305.15	0.00097
2314.79	0.0009905
2324.44	0.0009843
2334.08	0.0008611
2343.73	0.0008144
2353.37	0.0006984
2363.02	0.0007452
2372.66	0.0006741
2382.31	0.0006126
2391.95	0.0006556
2401.6	0.0007345
2411.24	0.0007734
2420.89	0.0007089
2430.53	0.0007573
2440.18	0.0006456
2449.82	0.0006407
2459.47	0.0006437
2469.11	0.0006006
2478.75	0.0007063
2488.4	0.0007486
2498.04	0.0007332
2507.69	0.0007983
2517.33	0.0009235
2526.98	0.0010348
2536.62	0.0010129
2546.27	0.0008215
2555.91	0.0007251
2565.56	0.0006902
2575.2	0.0008653
2584.85	0.0009216
2594.49	0.0010865
2604.14	0.001183
2613.78	0.001505
2623.43	0.001685
2633.07	0.001535
2642.72	0.0011957
2652.36	0.0010182
2662.01	0.0009887
2671.65	0.0010912
2681.29	0.0010734
2690.94	0.0011145
2700.58	0.0012069
2710.23	0.0012177
2719.87	0.001289
2729.52	0.001455
2739.16	0.001605
2748.81	0.001475
2758.45	0.001615
2768.1	0.002345
2777.74	0.003465
2787.39	0.003075
2797.03	0.001925
2806.68	0.001635
2816.32	0.001755
2825.97	0.002115
2835.61	0.002655
2845.26	0.003205
2854.9	0.004105
2864.55	0.005905
2874.19	0.007685
2883.84	0.008665
2893.48	0.009915
2903.12	0.010635
2912.77	0.011025
2922.41	0.011225
2932.06	0.009845
2941.7	0.008445
2951.35	0.007655
2960.99	0.007275
2970.64	0.006025
2980.28	0.004695
2989.93	0.004225
2999.57	0.003775
3009.22	0.003545
3018.86	0.004495
3028.51	0.003955
3038.15	0.002505
3047.8	0.001845
3057.44	0.001445
3067.09	0.0013456
3076.73	0.0012832
3086.38	0.002075
3096.02	0.003045
3105.67	0.002835
3115.31	0.002255
3124.95	0.0012961
3134.6	0.0008077
3144.24	0.0003599
3153.89	0.0003421
3163.53	0.0004748
3173.18	0.000162
3182.82	0.0003578
3192.47	0.0005389
3202.11	0.0005711
3211.76	0.0005849
3221.4	0.000213
3231.05	0.000252
3240.69	0.0005431
3250.34	0.00046004
3259.98	0.00043939
3269.63	0.0003922
3279.27	0.000203
3288.92	0.0003528
3298.56	0.0003601
3308.21	0.000211
3317.85	0.000252
3327.49	0.000299
3337.14	0.000312
3346.78	0.000226
3356.43	0.000322
3366.07	0.000226
3375.72	8.8e-05
3385.36	0.000323
3395.01	0.000316
3404.65	0.000255
3414.3	0.000112
3423.94	0.000206
3433.59	0.000264
3443.23	0.000181
3452.88	0.000146
3462.52	0.000155
3472.17	0.000274
3481.81	0.0003658
3491.46	0.000311
3501.1	0.000314
3510.75	0.000233
3520.39	0.0003333
3530.04	0.000252
3539.68	0.000254
3549.32	0.000212
3558.97	4e-05
3568.61	0.000202
3578.26	0.000287
3587.9	0.00028
3597.55	0.000281
3607.19	0.000304
3616.84	0.000273
3626.48	0.000126
3636.13	0.000286
3645.77	0.000279
3655.42	0.000176
3665.06	0.000234
3674.71	0.0003878
3684.35	0.000303
3694	0.0004014
3703.64	0.000303
3713.29	0.0003547
3722.93	0.000184
3732.58	0.000246
3742.22	0.000272
3751.86	0.000185
3761.51	0.000244
3771.15	0.000215
3780.8	0.000313
3790.44	0.000324
3800.09	0.000247
3809.73	0.000282
3819.38	0.0003398
3829.02	0.000275
3838.67	0.000428543
3848.31	0.00044996
3857.96	0.000271
3867.6	0.000355
3877.25	7.9e-05
3886.89	0.000218
3896.54	0.00044589
3906.18	0.00046778
3915.83	0.00052197
3925.47	0.000405
3935.12	0.000544
3944.76	0.000336
3954.41	0.000425661
3964.05	0.00045588
3973.69	0.000426119
3983.34	0.000259
3992.98	0.00025
