Infrared Spectrum: 4-Tridecanol
Formula: C 13 H 28 O
CAS: 26215-92-9
State: gas
Instrument: HP-GC/MS/IRD
Origin: NIST Mass Spectrometry Data Center
1/CM	ABSORBANCE
550	0.0027531
562	0.0004623
574	0.0003243
586	0.0002829
598	0.0002553
610	0.0001449
622	0.0001104
634	0.0001794
646	3.45e-05
658	0.0001035
670	0.0001173
682	0.0001863
694	0.000276
706	0.0005037
718	0.0008556
730	0.0008418
742	0.000828
754	0.0007521
766	0.0006348
778	0.0004761
790	0.0004554
802	0.0004899
814	0.0006417
826	0.0007659
838	0.0010626
850	0.0012006
862	0.0010143
874	0.0010143
886	0.0011385
898	0.0012834
910	0.0012144
922	0.0011454
934	0.0012144
946	0.0014007
958	0.0016698
970	0.0021045
982	0.0028842
994	0.0040227
1006	0.0046851
1018	0.0039744
1030	0.0029739
1042	0.0026565
1054	0.0029187
1066	0.0031464
1078	0.0030843
1090	0.0030084
1102	0.0031395
1114	0.0034017
1126	0.0036363
1138	0.0030843
1150	0.0021597
1162	0.0018837
1174	0.0018768
1186	0.0020562
1198	0.0023184
1210	0.0025461
1222	0.0026358
1234	0.0026772
1246	0.0027738
1258	0.0028083
1270	0.0027876
1282	0.0025599
1294	0.0024288
1306	0.0023391
1318	0.0022632
1330	0.0024426
1342	0.002967
1354	0.003588
1366	0.0040227
1378	0.0043194
1390	0.0038433
1402	0.0026979
1414	0.0020631
1426	0.0020838
1438	0.0030705
1450	0.0048921
1462	0.0062376
1474	0.0041952
1486	0.0019941
1498	0.0010833
1510	0.0006486
1522	0.000414
1534	0.0004554
1546	0.0003726
1558	6.9e-06
1570	0.0003726
1582	0.0004761
1594	0.0004623
1606	0.0004278
1618	0.0002898
1630	0.0003657
1642	0.0003243
1654	1.38e-05
1666	0.0003243
1678	0.0003174
1690	0.0003381
1702	0.0001173
1714	0.0002346
1726	0.0003933
1738	0.0002139
1750	0.0002139
1762	0.000276
1774	0.0002139
1786	0.0002967
1798	0.0002898
1810	0.0003312
1822	0.0003243
1834	0.0003105
1846	0.0002346
1858	0.0003381
1870	0.0002553
1882	0.0002898
1894	0.000276
1906	0.000276
1918	0.0002484
1930	0.0002484
1942	0.0002484
1954	0.0002622
1966	0.0002346
1978	0.0002553
1990	0.0002484
2002	0.0002415
2014	0.0002553
2026	0.000276
2038	0.000276
2050	0.0002484
2062	0.0002346
2074	0.0002139
2086	0.0002208
2098	0.000207
2110	0.000207
2122	0.0002001
2134	0.0001932
2146	0.0001794
2158	0.0001932
2170	0.0001932
2182	0.0001932
2194	0.0001863
2206	0.0001794
2218	0.0001794
2230	0.0001449
2242	0.0001656
2254	0.0001449
2266	0.0001449
2278	0.0001656
2290	0.0001587
2302	0.0001725
2314	0.0001725
2326	0.0001725
2338	0.0001725
2350	0.0001794
2362	0.0001932
2374	0.0001794
2386	0.0001449
2398	0.0001311
2410	0.0001242
2422	0.0001104
2434	8.97e-05
2446	7.59e-05
2458	5.52e-05
2470	5.52e-05
2482	2.76e-05
2494	7.59e-05
2506	7.59e-05
2518	0.0001035
2530	0.0001587
2542	0.0001794
2554	0.0002139
2566	0.0002415
2578	0.000276
2590	0.0003381
2602	0.0003864
2614	0.0004071
2626	0.0004761
2638	0.0005589
2650	0.0006279
2662	0.0007038
2674	0.0007935
2686	0.0008487
2698	0.0008073
2710	0.0008349
2722	0.0008694
2734	0.0009798
2746	0.0011247
2758	0.0011661
2770	0.0012903
2782	0.0015387
2794	0.0019458
2806	0.0024357
2818	0.0032913
2830	0.0047955
2842	0.0083766
2854	0.0177399
2866	0.0259026
2878	0.0230046
2890	0.0201273
2902	0.0225354
2914	0.0348795
2926	0.0588846
2938	0.0660813
2950	0.0410619
2962	0.0326922
2974	0.0260406
2986	0.0109572
2998	0.0058167
3010	0.0037536
3022	0.0026979
3034	0.0020769
3046	0.0016146
3058	0.0012834
3070	0.0010695
3082	0.0009039
3094	0.0007866
3106	0.00069
3118	0.0005796
3130	0.0005244
3142	0.0005106
3154	0.0004278
3166	0.0003726
3178	0.0004002
3190	0.0003312
3202	0.0002898
3214	0.000207
3226	0.0001587
3238	0.0001518
3250	0.0001242
3262	0.0001242
3274	0.0001173
3286	8.28e-05
3298	0.0001035
3310	8.97e-05
3322	8.97e-05
3334	8.97e-05
3346	0.0001104
3358	0.0001104
3370	0.0001311
3382	0.0001173
3394	0.0001311
3406	0.0001449
3418	0.000138
3430	0.0001725
3442	0.0001725
3454	0.0001311
3466	0.0001242
3478	9.66e-05
3490	8.97e-05
3502	8.28e-05
3514	0.0001104
3526	8.28e-05
3538	6.9e-05
3550	6.21e-05
3562	0.0001035
3574	8.28e-05
3586	2.76e-05
3598	0.0001311
3610	0.0001518
3622	0.0004209
3634	0.0008418
3646	0.0014076
3658	0.0018147
3670	0.0007176
3682	0.0004071
3694	0.0002208
3706	0.0001725
3718	0.0001794
3730	4.83e-05
3742	0
3754	0
3766	0.0001449
3778	0.0002139
3790	0.0002208
3802	6.21e-05
3814	0.0001104
3826	0.0001587
3838	0
