Infrared Spectrum: P-NITRO CARBANILIC ACID, ETHYL ESTER
Formula: C9 H10 N2 O4
CAS: 2621-73-0
State: SOLID (1.5 mg / 100 mg KBr)
Melting point: 129 C
Class: COBLENTZ
Instrument: Not specified, most likely a grating spectrometer.
Sampling: TRANSMISSION
Resolution: 4
Origin: CITRUS EXPERIMENT STATION, UNIVERSITY OF FLORIDA (G. EDWARDS)
MICROMETERS	TRANSMITTANCE
2.06	0.549
2.09321	0.553
2.12641	0.557
2.15962	0.557
2.19282	0.56
2.22603	0.567
2.25923	0.568
2.29244	0.571
2.32564	0.573
2.35885	0.576
2.39205	0.58
2.42526	0.587
2.45846	0.589
2.49167	0.592
2.52487	0.596
2.55808	0.596
2.59128	0.596
2.62449	0.595
2.65769	0.593
2.6909	0.592
2.7241	0.591
2.75731	0.589
2.79051	0.589
2.82372	0.589
2.85692	0.588
2.89013	0.572
2.92333	0.254
2.95654	0.412
2.98974	0.523
3.02295	0.577
3.05616	0.592
3.08936	0.595
3.12257	0.596
3.15577	0.591
3.18898	0.588
3.22218	0.588
3.25539	0.597
3.28859	0.595
3.3218	0.529
3.355	0.553
3.38821	0.56
3.42141	0.591
3.45462	0.596
3.48782	0.621
3.52103	0.636
3.55423	0.639
3.58744	0.643
3.62064	0.649
3.65385	0.649
3.68705	0.649
3.72026	0.655
3.75346	0.657
3.78667	0.657
3.81987	0.659
3.85308	0.664
3.88628	0.668
3.91949	0.668
3.95269	0.668
3.9859	0.668
4.01911	0.665
4.05231	0.665
4.08552	0.669
4.11872	0.683
4.15193	0.684
4.18513	0.687
4.21834	0.688
4.25154	0.688
4.28475	0.688
4.31795	0.688
4.35116	0.688
4.38436	0.685
4.41757	0.685
4.45077	0.687
4.48398	0.695
4.51718	0.701
4.55039	0.703
4.58359	0.705
4.6168	0.707
4.65	0.709
4.68321	0.709
4.71641	0.709
4.74962	0.709
4.78282	0.709
4.81603	0.709
4.84923	0.708
4.88244	0.708
4.91564	0.708
4.94885	0.708
4.98206	0.708
5.01526	0.708
5.04847	0.708
5.08167	0.707
5.11488	0.707
5.14808	0.708
5.18129	0.713
5.21449	0.712
5.2477	0.712
5.2809	0.713
5.31411	0.712
5.34731	0.711
5.38052	0.705
5.41372	0.693
5.44693	0.681
5.48013	0.679
5.51334	0.673
5.54654	0.671
5.57975	0.657
5.61295	0.647
5.64616	0.545
5.67936	0.292
5.71257	0.327
5.74577	0.462
5.77898	0.579
5.81218	0.645
5.84539	0.673
5.8786	0.676
5.9118	0.676
5.94501	0.676
5.97821	0.671
6.01142	0.645
6.04462	0.639
6.07783	0.611
6.11103	0.573
6.14424	0.422
6.17744	0.292
6.21065	0.242
6.24385	0.287
6.27706	0.521
6.31026	0.498
6.34347	0.431
6.37667	0.219
6.40988	0.165
6.44308	0.326
6.47629	0.376
6.50949	0.323
6.5427	0.222
6.5759	0.238
6.60911	0.26
6.64231	0.303
6.67552	0.432
6.70872	0.46
6.74193	0.513
6.77513	0.577
6.80834	0.575
6.84155	0.583
6.87475	0.616
6.90796	0.629
6.94116	0.645
6.97437	0.617
7.00757	0.513
7.04078	0.482
7.07398	0.58
7.10719	0.589
7.14039	0.573
7.1736	0.521
7.2068	0.527
7.24001	0.537
7.27321	0.524
7.30642	0.45
7.33962	0.35
7.37283	0.211
7.40603	0.134
7.43924	0.079
7.47244	0.093
7.50565	0.095
7.53885	0.103
7.57206	0.217
7.60526	0.182
7.63847	0.221
7.67167	0.391
7.70488	0.48
7.73808	0.529
7.77129	0.544
7.8045	0.54
7.8377	0.5
7.87091	0.476
7.90411	0.544
7.93732	0.547
7.97052	0.496
8.00373	0.444
8.03693	0.392
8.07014	0.31
8.10334	0.221
8.13655	0.117
8.16975	0.069
8.20296	0.062
8.23616	0.067
8.26937	0.086
8.30257	0.179
8.33578	0.259
8.36898	0.312
8.40219	0.326
8.43539	0.33
8.4686	0.35
8.5018	0.418
8.53501	0.479
8.56821	0.503
8.60142	0.524
8.63462	0.541
8.66783	0.571
8.70103	0.587
8.73424	0.587
8.76745	0.583
8.80065	0.556
8.83386	0.516
8.86706	0.496
8.90027	0.535
8.93347	0.462
8.96668	0.308
8.99988	0.286
9.03309	0.383
9.06629	0.475
9.0995	0.527
9.1327	0.559
9.16591	0.573
9.19911	0.575
9.23232	0.569
9.26552	0.556
9.29873	0.535
9.33193	0.482
9.36514	0.406
9.39834	0.311
9.43155	0.239
9.46475	0.255
9.49796	0.319
9.53116	0.4
9.56437	0.474
9.59757	0.519
9.63078	0.541
9.66398	0.563
9.69719	0.584
9.7304	0.592
9.7636	0.595
9.79681	0.591
9.83001	0.589
9.86322	0.591
9.89642	0.6
9.92963	0.619
9.96283	0.627
9.99604	0.636
10.0292	0.641
10.0624	0.647
10.0957	0.653
10.1289	0.657
10.1621	0.66
10.1953	0.661
10.2285	0.665
10.2617	0.668
10.2949	0.668
10.3281	0.668
10.3613	0.669
10.3945	0.671
10.4277	0.673
10.4609	0.685
10.4941	0.688
10.5273	0.688
10.5605	0.689
10.5937	0.689
10.6269	0.689
10.6601	0.691
10.6933	0.691
10.7266	0.692
10.7598	0.692
10.793	0.693
10.8262	0.693
10.8594	0.692
10.8926	0.692
10.9258	0.692
10.959	0.692
10.9922	0.695
11.0254	0.697
11.0586	0.703
11.0918	0.707
11.125	0.709
11.1582	0.711
11.1914	0.711
11.2246	0.711
11.2578	0.711
11.291	0.711
11.3242	0.711
11.3574	0.709
11.3907	0.709
11.4239	0.701
11.4571	0.684
11.4903	0.651
11.5235	0.561
11.5567	0.474
11.5899	0.45
11.6231	0.434
11.6563	0.331
11.6895	0.27
11.7227	0.315
11.7559	0.419
11.7891	0.527
11.8223	0.589
11.8555	0.62
11.8887	0.64
11.9219	0.643
11.9551	0.645
11.9883	0.645
12.0216	0.643
12.0548	0.637
12.088	0.637
12.1212	0.64
12.1544	0.64
12.1876	0.637
12.2208	0.639
12.254	0.648
12.2872	0.661
12.3204	0.679
12.3536	0.685
12.3868	0.687
12.42	0.687
12.4532	0.688
12.4864	0.689
12.5196	0.689
12.5528	0.689
12.586	0.689
12.6192	0.688
12.6525	0.688
12.6857	0.689
12.7189	0.688
12.7521	0.684
12.7853	0.681
12.8185	0.68
12.8517	0.672
12.8849	0.653
12.9181	0.625
12.9513	0.548
12.9845	0.435
13.0177	0.387
13.0509	0.403
13.0841	0.436
13.1173	0.515
13.1505	0.591
13.1837	0.619
13.2169	0.621
13.2501	0.573
13.2833	0.47
13.3166	0.426
13.3498	0.39
13.383	0.442
13.4162	0.545
13.4494	0.595
13.4826	0.611
13.5158	0.629
13.549	0.633
13.5822	0.636
13.6154	0.636
13.6486	0.635
13.6818	0.635
13.715	0.635
13.7482	0.635
13.7814	0.635
13.8146	0.635
13.8478	0.635
13.881	0.635
13.9142	0.633
13.9475	0.632
13.9807	0.632
14.0139	0.629
14.0471	0.628
14.0803	0.628
14.1135	0.624
14.1467	0.62
14.1799	0.617
14.2131	0.609
14.2463	0.6
14.2795	0.596
14.3127	0.581
14.3459	0.561
14.3791	0.543
14.4123	0.512
14.4455	0.479
14.4787	0.471
14.5119	0.472
14.5451	0.491
14.5784	0.517
14.6116	0.539
14.6448	0.551
14.678	0.553
14.7112	0.553
14.7444	0.553
14.7776	0.552
14.8108	0.549
14.844	0.548
14.8772	0.541
14.9104	0.52
14.9436	0.488
14.9768	0.488
15.01	0.488
