Infrared Spectrum: O-NITRO CARBANILIC ACID, ETHYL ESTER
Formula: C9 H10 N2 O4
CAS: 2621-84-3
State: SOLID (1.5 mg / 100 mg KBr)
Melting point: 56-57 C
Class: COBLENTZ
Instrument: Not specified, most likely a grating spectrometer.
Sampling: TRANSMISSION
Resolution: 4
Origin: CITRUS EXPERIMENT STATION, UNIVERSITY OF FLORIDA (G. EDWARDS)
MICROMETERS	TRANSMITTANCE
2.033	0.636
2.06618	0.642
2.09935	0.64
2.13253	0.651
2.16571	0.65
2.19888	0.658
2.23206	0.663
2.26524	0.664
2.29842	0.67
2.33159	0.672
2.36477	0.678
2.39795	0.683
2.43112	0.688
2.4643	0.688
2.49748	0.695
2.53065	0.702
2.56383	0.712
2.59701	0.711
2.63018	0.72
2.66336	0.716
2.69654	0.718
2.72971	0.719
2.76289	0.72
2.79607	0.72
2.82925	0.719
2.86242	0.711
2.8956	0.692
2.92878	0.562
2.96195	0.58
2.99513	0.704
3.02831	0.728
3.06148	0.748
3.09466	0.751
3.12784	0.755
3.16101	0.751
3.19419	0.744
3.22737	0.761
3.26054	0.759
3.29372	0.75
3.3269	0.718
3.36008	0.74
3.39325	0.748
3.42643	0.77
3.45961	0.769
3.49278	0.789
3.52596	0.801
3.55914	0.793
3.59231	0.795
3.62549	0.807
3.65867	0.81
3.69184	0.811
3.72502	0.814
3.7582	0.817
3.79138	0.821
3.82455	0.814
3.85773	0.826
3.89091	0.829
3.92408	0.83
3.95726	0.827
3.99044	0.829
4.02361	0.83
4.05679	0.83
4.08997	0.826
4.12314	0.837
4.15632	0.841
4.1895	0.849
4.22267	0.854
4.25585	0.851
4.28903	0.851
4.32221	0.861
4.35538	0.858
4.38856	0.858
4.42174	0.858
4.45491	0.859
4.48809	0.862
4.52127	0.861
4.55444	0.861
4.58762	0.865
4.6208	0.867
4.65397	0.869
4.68715	0.87
4.72033	0.871
4.75351	0.874
4.78668	0.874
4.81986	0.881
4.85304	0.89
4.88621	0.885
4.91939	0.882
4.95257	0.882
4.98574	0.878
5.01892	0.877
5.0521	0.881
5.08527	0.879
5.11845	0.893
5.15163	0.883
5.1848	0.89
5.21798	0.891
5.25116	0.893
5.28434	0.89
5.31751	0.879
5.35069	0.878
5.38387	0.874
5.41704	0.866
5.45022	0.871
5.4834	0.87
5.51657	0.854
5.54975	0.851
5.58293	0.817
5.6161	0.798
5.64928	0.74
5.68246	0.598
5.71563	0.409
5.74881	0.305
5.78199	0.435
5.81517	0.57
5.84834	0.74
5.88152	0.774
5.9147	0.823
5.94787	0.829
5.98105	0.829
6.01423	0.822
6.0474	0.823
6.08058	0.801
6.11376	0.774
6.14693	0.6
6.18011	0.551
6.21329	0.755
6.24647	0.662
6.27964	0.385
6.31282	0.671
6.346	0.777
6.37917	0.718
6.41235	0.667
6.44553	0.666
6.4787	0.611
6.51188	0.514
6.54506	0.389
6.57823	0.389
6.61141	0.459
6.64459	0.652
6.67776	0.727
6.71094	0.743
6.74412	0.742
6.7773	0.73
6.81047	0.644
6.84365	0.583
6.87683	0.606
6.91	0.578
6.94318	0.626
6.97636	0.718
7.00953	0.777
7.04271	0.821
7.07589	0.825
7.10906	0.817
7.14224	0.801
7.17542	0.758
7.2086	0.774
7.24177	0.809
7.27495	0.77
7.30813	0.799
7.3413	0.75
7.37448	0.61
7.40766	0.333
7.44083	0.395
7.47401	0.587
7.50719	0.714
7.54036	0.683
7.57354	0.702
7.60672	0.699
7.63989	0.692
7.67307	0.65
7.70625	0.598
7.73943	0.497
7.7726	0.409
7.80578	0.431
7.83896	0.492
7.87213	0.532
7.90531	0.568
7.93849	0.543
7.97166	0.451
8.00484	0.391
8.03802	0.436
8.07119	0.556
8.10437	0.67
8.13755	0.663
8.17072	0.611
8.2039	0.543
8.23708	0.52
8.27026	0.55
8.30343	0.584
8.33661	0.646
8.36979	0.706
8.40296	0.762
8.43614	0.79
8.46932	0.785
8.50249	0.753
8.53567	0.742
8.56885	0.746
8.60202	0.698
8.6352	0.703
8.66838	0.722
8.70156	0.662
8.73473	0.656
8.76791	0.761
8.80109	0.819
8.83426	0.837
8.86744	0.835
8.90062	0.825
8.93379	0.821
8.96697	0.826
9.00015	0.841
9.03332	0.831
9.0665	0.798
9.09968	0.714
9.13285	0.688
9.16603	0.672
9.19921	0.67
9.23239	0.72
9.26556	0.728
9.29874	0.738
9.33192	0.751
9.36509	0.723
9.39827	0.63
9.43145	0.572
9.46462	0.627
9.4978	0.706
9.53098	0.757
9.56415	0.73
9.59733	0.765
9.63051	0.823
9.66369	0.851
9.69686	0.866
9.73004	0.879
9.76322	0.885
9.79639	0.882
9.82957	0.885
9.86275	0.874
9.89592	0.879
9.9291	0.894
9.96228	0.901
9.99545	0.907
10.0286	0.903
10.0618	0.901
10.095	0.887
10.1282	0.902
10.1613	0.913
10.1945	0.914
10.2277	0.917
10.2609	0.914
10.294	0.918
10.3272	0.914
10.3604	0.913
10.3936	0.883
10.4268	0.911
10.4599	0.917
10.4931	0.922
10.5263	0.927
10.5595	0.923
10.5926	0.931
10.6258	0.934
10.659	0.934
10.6922	0.93
10.7253	0.927
10.7585	0.935
10.7917	0.93
10.8249	0.933
10.8581	0.937
10.8912	0.937
10.9244	0.935
10.9576	0.935
10.9908	0.931
11.0239	0.93
11.0571	0.925
11.0903	0.929
11.1235	0.922
11.1566	0.933
11.1898	0.934
11.223	0.938
11.2562	0.937
11.2894	0.945
11.3225	0.934
11.3557	0.922
11.3889	0.883
11.4221	0.895
11.4552	0.906
11.4884	0.887
11.5216	0.809
11.5548	0.664
11.5879	0.691
11.6211	0.847
11.6543	0.902
11.6875	0.919
11.7207	0.925
11.7538	0.926
11.787	0.931
11.8202	0.931
11.8534	0.923
11.8865	0.922
11.9197	0.934
11.9529	0.934
11.9861	0.921
12.0192	0.91
12.0524	0.862
12.0856	0.81
12.1188	0.794
12.152	0.835
12.1851	0.878
12.2183	0.905
12.2515	0.909
12.2847	0.907
12.3178	0.911
12.351	0.915
12.3842	0.933
12.4174	0.934
12.4505	0.934
12.4837	0.931
12.5169	0.93
12.5501	0.926
12.5833	0.915
12.6164	0.874
12.6496	0.802
12.6828	0.722
12.716	0.751
12.7491	0.833
12.7823	0.879
12.8155	0.905
12.8487	0.915
12.8818	0.911
12.915	0.882
12.9482	0.842
12.9814	0.801
13.0146	0.754
13.0477	0.71
13.0809	0.727
13.1141	0.786
13.1473	0.846
13.1804	0.89
13.2136	0.905
13.2468	0.907
13.28	0.886
13.3131	0.858
13.3463	0.825
13.3795	0.789
13.4127	0.712
13.4459	0.588
13.479	0.518
13.5122	0.571
13.5454	0.682
13.5786	0.766
13.6117	0.806
13.6449	0.823
13.6781	0.827
13.7113	0.826
13.7444	0.818
13.7776	0.814
13.8108	0.834
13.844	0.857
13.8772	0.865
13.9103	0.885
13.9435	0.899
13.9767	0.909
14.0099	0.907
14.043	0.914
14.0762	0.914
14.1094	0.913
14.1426	0.911
14.1757	0.913
14.2089	0.913
14.2421	0.913
14.2753	0.895
14.3084	0.885
14.3416	0.878
14.3748	0.854
14.408	0.838
14.4412	0.841
14.4743	0.846
14.5075	0.854
14.5407	0.862
14.5739	0.87
14.607	0.869
14.6402	0.859
14.6734	0.854
14.7066	0.853
14.7397	0.833
14.7729	0.817
14.8061	0.805
14.8393	0.799
14.8725	0.797
14.9056	0.791
14.9388	0.789
14.972	0.794
15.0052	0.795
