Infrared Spectrum: 4-Tridecanone
Formula: C 13 H 26 O
CAS: 26215-90-7
State: gas
Instrument: HP-GC/MS/IRD
Origin: NIST Mass Spectrometry Data Center
1/CM	ABSORBANCE
550	0.0001269
562	0.0001974
574	0.0002068
586	1.88e-05
598	6.58e-05
610	0.0001504
622	0.0001504
634	0.0001645
646	0.0001645
658	3.76e-05
670	0.0001081
682	0.0002021
694	0.0002773
706	0.0005123
718	0.0008507
730	0.0008319
742	0.0007285
754	0.0007426
766	0.0006862
778	0.0006204
790	0.0004418
802	0.0004418
814	0.0004277
826	0.0003196
838	0.0003901
850	0.0004136
862	0.0004418
874	0.0005452
886	0.0006721
898	0.000611
910	0.0004277
922	0.0003619
934	0.0003008
946	0.0003337
958	0.0003995
970	0.000564
982	0.000752
994	0.0011515
1006	0.0016262
1018	0.0019975
1030	0.0019364
1042	0.0017672
1054	0.0017907
1066	0.0018189
1078	0.001598
1090	0.0013442
1102	0.0014664
1114	0.0021996
1126	0.0031866
1138	0.0031302
1150	0.002773
1162	0.0024252
1174	0.0021902
1186	0.0020116
1198	0.0017249
1210	0.0014805
1222	0.0014335
1234	0.0014852
1246	0.0015463
1258	0.0017719
1270	0.002162
1282	0.0023077
1294	0.002444
1306	0.00235
1318	0.0022419
1330	0.0025897
1342	0.0037694
1354	0.005217
1366	0.0048974
1378	0.0033746
1390	0.0025051
1402	0.0021761
1414	0.0026273
1426	0.0028106
1438	0.0032101
1450	0.0044415
1462	0.0053157
1474	0.0035673
1486	0.0017061
1498	0.0009635
1510	0.0006486
1522	0.0004653
1534	0.0003431
1546	0.000282
1558	0.0002491
1570	0.0002256
1582	0.0002115
1594	0.0002256
1606	0.0002209
1618	0.0002444
1630	0.0002726
1642	0.0003666
1654	0.0004653
1666	0.0007238
1678	0.0012173
1690	0.0022654
1702	0.0049538
1714	0.010857
1726	0.0155476
1738	0.0085869
1750	0.0031349
1762	0.0013442
1774	0.0007097
1786	0.0004089
1798	0.000282
1810	0.0002162
1822	0.0001692
1834	0.0001081
1846	9.87e-05
1858	7.99e-05
1870	7.05e-05
1882	7.05e-05
1894	6.58e-05
1906	4.7e-05
1918	5.17e-05
1930	3.29e-05
1942	1.88e-05
1954	4.7e-06
1966	2.35e-05
1978	3.76e-05
1990	2.82e-05
2002	3.76e-05
2014	4.23e-05
2026	7.99e-05
2038	8.46e-05
2050	7.05e-05
2062	7.05e-05
2074	6.11e-05
2086	5.17e-05
2098	3.76e-05
2110	5.64e-05
2122	5.64e-05
2134	6.11e-05
2146	6.11e-05
2158	4.7e-05
2170	2.82e-05
2182	5.64e-05
2194	6.58e-05
2206	6.58e-05
2218	5.17e-05
2230	7.52e-05
2242	6.11e-05
2254	5.17e-05
2266	3.76e-05
2278	5.64e-05
2290	6.58e-05
2302	4.7e-05
2314	6.11e-05
2326	8.46e-05
2338	7.52e-05
2350	5.64e-05
2362	6.58e-05
2374	6.58e-05
2386	5.64e-05
2398	5.64e-05
2410	4.7e-05
2422	5.17e-05
2434	5.17e-05
2446	3.29e-05
2458	2.35e-05
2470	2.35e-05
2482	6.11e-05
2494	7.05e-05
2506	8.46e-05
2518	0.0001081
2530	0.0001034
2542	0.0001081
2554	0.0001034
2566	0.0001222
2578	0.0001598
2590	0.0001692
2602	0.0002021
2614	0.0002115
2626	0.0002632
2638	0.0003243
2650	0.0003431
2662	0.0004183
2674	0.0004747
2686	0.0005076
2698	0.0004982
2710	0.0004747
2722	0.0004841
2734	0.0006016
2746	0.0007332
2758	0.0007614
2770	0.0008648
2782	0.0010669
2794	0.0013818
2806	0.0018095
2818	0.0024158
2830	0.0033041
2842	0.0053956
2854	0.0115902
2866	0.0177002
2878	0.0164077
2890	0.0158061
2902	0.0177519
2914	0.0251309
2926	0.0404576
2938	0.0456605
2950	0.0329235
2962	0.0274245
2974	0.0226587
2986	0.01128
2998	0.0057669
3010	0.0034686
3022	0.0022701
3034	0.0016403
3046	0.0012267
3058	0.0009588
3070	0.0007708
3082	0.0006956
3094	0.0005828
3106	0.0004841
3118	0.0004183
3130	0.0004042
3142	0.0003713
3154	0.0003525
3166	0.0003008
3178	0.000282
3190	0.0002538
3202	0.0001739
3214	0.0001645
3226	0.000141
3238	7.05e-05
3250	7.99e-05
3262	7.52e-05
3274	1.41e-05
3286	5.64e-05
3298	1.88e-05
3310	7.99e-05
3322	9.4e-06
3334	7.52e-05
3346	4.23e-05
3358	7.05e-05
3370	4.7e-05
3382	8.46e-05
3394	0.0001128
3406	0.0001692
3418	0.0002209
3430	0.0003243
3442	0.0002491
3454	0.0001269
3466	8.46e-05
3478	2.82e-05
3490	9.4e-06
3502	0
3514	9.4e-06
3526	1.41e-05
3538	2.35e-05
3550	3.29e-05
3562	0
3574	5.64e-05
3586	2.82e-05
3598	5.64e-05
3610	8.46e-05
3622	6.58e-05
3634	8.46e-05
3646	6.58e-05
3658	7.99e-05
3670	8.46e-05
3682	0.0001034
3694	5.64e-05
3706	7.05e-05
3718	2.35e-05
3730	6.58e-05
3742	8.93e-05
3754	7.99e-05
3766	7.52e-05
3778	6.58e-05
3790	8.46e-05
3802	9.87e-05
3814	7.05e-05
3826	9.4e-05
3838	9.87e-05
