Infrared Spectrum: p-Methoxybenzylidene p-butylaniline
Formula: C 18 H 21 N O
CAS: 26227-73-6
State: gas
Origin: EPA-IR VAPOR PHASE LIBRARY
1/CM	ABSORBANCE
551.7	0.02726
563.274	0.01915
574.848	0.01117
586.421	0.0113
597.995	0.01385
609.569	0.0103
621.143	0.00466
632.717	0.00419
644.291	0.00325
655.864	0.00217
667.438	0.00175
679.012	0.00214
690.586	0.00253
702.16	0.00376
713.734	0.007
725.307	0.0061
736.881	0.00544
748.455	0.00612
760.029	0.0069
771.603	0.00803
783.177	0.01093
794.75	0.01625
806.324	0.02534
817.898	0.03993
829.472	0.06423
841.046	0.0603
852.619	0.02962
864.193	0.02008
875.767	0.02775
887.341	0.03991
898.915	0.01811
910.489	0.00867
922.062	0.00704
933.636	0.00727
945.21	0.00716
956.784	0.00874
968.358	0.0122
979.932	0.01102
991.505	0.01015
1003.08	0.01424
1014.65	0.03199
1026.23	0.0392
1037.8	0.06341
1049.37	0.03782
1060.95	0.01824
1072.52	0.01307
1084.1	0.01213
1095.67	0.01639
1107.24	0.02351
1118.82	0.01723
1130.39	0.01443
1141.97	0.02003
1153.54	0.06076
1165.11	0.27231
1176.69	0.06841
1188.26	0.06383
1199.83	0.05642
1211.41	0.04354
1222.98	0.06256
1234.56	0.12255
1246.13	0.26041
1257.7	0.20829
1269.28	0.07809
1280.85	0.0621
1292.42	0.07838
1304	0.09336
1315.57	0.04052
1327.15	0.02328
1338.72	0.0209
1350.29	0.01881
1361.87	0.01822
1373.44	0.01629
1385.02	0.01529
1396.59	0.01308
1408.16	0.01935
1419.74	0.03977
1431.31	0.02164
1442.88	0.0334
1454.46	0.03723
1466.03	0.04944
1477.61	0.04289
1489.18	0.0474
1500.75	0.11486
1512.33	0.27215
1523.9	0.07401
1535.48	0.02925
1547.05	0.02234
1558.62	0.02784
1570.2	0.06191
1581.77	0.09266
1593.34	0.14721
1604.92	0.20136
1616.49	0.0978
1628.07	0.12642
1639.64	0.09452
1651.21	0.03777
1662.79	0.02223
1674.36	0.01502
1685.93	0.01064
1697.51	0.00778
1709.08	0.00631
1720.66	0.0056
1732.23	0.0052
1743.8	0.00529
1755.38	0.00644
1766.95	0.00767
1778.53	0.00514
1790.1	0.00386
1801.67	0.00355
1813.25	0.00317
1824.82	0.00302
1836.39	0.00329
1847.97	0.00369
1859.54	0.00389
1871.12	0.00481
1882.69	0.00649
1894.26	0.00626
1905.84	0.00469
1917.41	0.00412
1928.99	0.0047
1940.56	0.00431
1952.13	0.00317
1963.71	0.003
1975.28	0.00307
1986.85	0.00344
1998.43	0.0041
2010	0.00494
2021.58	0.00526
2033.15	0.00515
2044.72	0.00585
2056.3	0.00637
2067.87	0.00599
2079.44	0.00515
2091.02	0.00365
2102.59	0.00252
2114.17	0.00194
2125.74	0.00173
2137.31	0.0015
2148.89	0.00123
2160.46	0.0011
2172.04	0.00118
2183.61	0.00112
2195.18	0.00111
2206.76	0.00113
2218.33	0.00115
2229.9	0.00124
2241.48	0.0013
2253.05	0.00158
2264.63	0.00209
2276.2	0.00233
2287.77	0.00233
2299.35	0.00202
2310.92	0.00173
2322.5	0.0018
2334.07	0.00196
2345.64	0.002
2357.22	0.00193
2368.79	0.00185
2380.36	0.00206
2391.94	0.00212
2403.51	0.00221
2415.09	0.00241
2426.66	0.00217
2438.23	0.00217
2449.81	0.00243
2461.38	0.00268
2472.96	0.00277
2484.53	0.00299
2496.1	0.0031
2507.68	0.00324
2519.25	0.00349
2530.82	0.00387
2542.4	0.00511
2553.97	0.00555
2565.55	0.00401
2577.12	0.00344
2588.69	0.00326
2600.27	0.00302
2611.84	0.00282
2623.41	0.00258
2634.99	0.00258
2646.56	0.00263
2658.14	0.00253
2669.71	0.00245
2681.28	0.00258
2692.86	0.0027
2704.43	0.00282
2716.01	0.0032
2727.58	0.00366
2739.15	0.00431
2750.73	0.0048
2762.3	0.00516
2773.87	0.00566
2785.45	0.00645
2797.02	0.00796
2808.6	0.01046
2820.17	0.01475
2831.74	0.02357
2843.32	0.04918
2854.89	0.06222
2866.47	0.07432
2878.04	0.06809
2889.61	0.05667
2901.19	0.05324
2912.76	0.07363
2924.33	0.10976
2935.91	0.13955
2947.48	0.12171
2959.06	0.10441
2970.63	0.10535
2982.2	0.0548
2993.78	0.04181
3005.35	0.05219
3016.92	0.0498
3028.5	0.0566
3040.07	0.03532
3051.65	0.02449
3063.22	0.02309
3074.79	0.03123
3086.37	0.02321
3097.94	0.01557
3109.52	0.01144
3121.09	0.00785
3132.66	0.00494
3144.24	0.00393
3155.81	0.00339
3167.38	0.00265
3178.96	0.00251
3190.53	0.00251
3202.11	0.00257
3213.68	0.00233
3225.25	0.0023
3236.83	0.00252
3248.4	0.00267
3259.98	0.00226
3271.55	0.0014
3283.12	0.0009289
3294.7	0.0006898
3306.27	0.000622
3317.84	0.0004754
3329.42	0.0005444
3340.99	0.0004767
3352.57	0.0003536
3364.14	0.0004057
3375.71	0.0003541
3387.29	0.0003504
3398.86	0.0002164
3410.43	0.0002636
3422.01	0.000153
3433.58	0.0001883
3445.16	0.000233
3456.73	0.0002385
3468.3	0.0003072
3479.88	0.000242
3491.45	0.0001888
3503.03	0.0001943
3514.6	0.0002689
3526.17	0.0002486
3537.75	0.000297
3549.32	0.0002898
3560.89	0.0002854
3572.47	0.0001987
3584.04	0.000164
3595.62	0.0003313
3607.19	0.0003227
3618.76	0.0003281
3630.34	0.0003671
3641.91	0.0004613
3653.49	0.0005228
3665.06	0.0006077
3676.63	0.0006292
3688.21	0.000557
3699.78	0.0005495
3711.35	0.0005666
3722.93	0.0005341
3734.5	0.0005837
3746.08	0.0005088
3757.65	0.000431
3769.22	0.0003708
3780.8	0.0004675
3792.37	0.0005574
3803.94	0.000613
3815.52	0.0005508
3827.09	0.0007291
3838.67	0.0005715
3850.24	0.0005404
3861.81	0.0006448
3873.39	0.0007965
3884.96	0.0007928
3896.54	0.0006184
3908.11	0.0005955
3919.68	0.0005723
3931.26	0.0005016
3942.83	0.0007178
3954.4	0.000676
3965.98	0.0006748
3977.55	0.000816
3989.13	0.0009156
4000.7	0.0009038
