Infrared Spectrum: 4-sec-Butyl-2-(.alpha.-methylbenzyl)phenol
Formula: C 18 H 22 O
CAS: 2622-83-5
State: gas
Origin: EPA-IR VAPOR PHASE LIBRARY
1/CM	ABSORBANCE
549.8	0.00489
559.445	0.00497
569.09	0.00452
578.734	0.00501
588.379	0.00597
598.024	0.00383
607.669	0.00276
617.313	0.00299
626.958	0.00312
636.603	0.00347
646.248	0.00408
655.893	0.00407
665.537	0.00429
675.182	0.0061
684.827	0.01074
694.472	0.02596
704.116	0.02223
713.761	0.00971
723.406	0.00723
733.051	0.0077
742.695	0.00807
752.34	0.00917
761.985	0.0097
771.63	0.00696
781.275	0.01016
790.919	0.01349
800.564	0.01264
810.209	0.01282
819.854	0.012
829.498	0.00799
839.143	0.00331
848.788	0.00208
858.433	0.00161
868.078	0.00195
877.722	0.00301
887.367	0.00642
897.012	0.00615
906.657	0.00415
916.301	0.00245
925.946	0.00165
935.591	0.00144
945.236	0.00161
954.88	0.00199
964.525	0.00199
974.17	0.00213
983.815	0.00314
993.46	0.00366
1003.1	0.00441
1012.75	0.00546
1022.39	0.00746
1032.04	0.00896
1041.68	0.00578
1051.33	0.00653
1060.97	0.00719
1070.62	0.00657
1080.26	0.00734
1089.91	0.00904
1099.55	0.0115
1109.2	0.01484
1118.84	0.01447
1128.49	0.00861
1138.13	0.00734
1147.78	0.00971
1157.42	0.01537
1167.07	0.02078
1176.71	0.03225
1186.36	0.03677
1196	0.02744
1205.64	0.01799
1215.29	0.0179
1224.93	0.01658
1234.58	0.01603
1244.22	0.02186
1253.87	0.02784
1263.51	0.02315
1273.16	0.01648
1282.8	0.01209
1292.45	0.01109
1302.09	0.01077
1311.74	0.01497
1321.38	0.01687
1331.03	0.01093
1340.67	0.00853
1350.32	0.00636
1359.96	0.00504
1369.61	0.00715
1379.25	0.01308
1388.9	0.00778
1398.54	0.00448
1408.18	0.0049
1417.83	0.0082
1427.47	0.01149
1437.12	0.00909
1446.76	0.01374
1456.41	0.02049
1466.05	0.01836
1475.7	0.01692
1485.34	0.0318
1494.99	0.06039
1504.63	0.04252
1514.28	0.014
1523.92	0.00667
1533.57	0.00459
1543.21	0.00344
1552.86	0.00269
1562.5	0.00254
1572.15	0.00323
1581.79	0.00495
1591.44	0.00785
1601.08	0.01056
1610.73	0.00771
1620.37	0.00357
1630.01	0.00202
1639.66	0.00171
1649.3	0.00158
1658.95	0.00135
1668.59	0.00129
1678.24	0.00112
1687.88	0.0008961
1697.53	0.0009087
1707.17	0.0008418
1716.82	0.0008805
1726.46	0.00113
1736.11	0.00126
1745.75	0.00136
1755.4	0.00129
1765.04	0.00134
1774.69	0.00141
1784.33	0.00149
1793.98	0.00198
1803.62	0.00174
1813.27	0.00135
1822.91	0.00132
1832.55	0.0009212
1842.2	0.00108
1851.84	0.00144
1861.49	0.0017
1871.13	0.00211
1880.78	0.00221
1890.42	0.0013
1900.07	0.0007367
1909.71	0.0006806
1919.36	0.0007326
1929	0.00122
1938.65	0.00172
1948.29	0.00162
1957.94	0.00121
1967.58	0.0005382
1977.23	0.0006283
1986.87	0.0005381
1996.52	0.0005714
2006.16	0.0005272
2015.81	0.0004383
2025.45	0.0005121
2035.1	0.0004179
2044.74	0.0004097
2054.38	0.0004515
2064.03	0.0003984
2073.67	0.0003858
2083.32	0.0003098
2092.96	0.0003756
2102.61	0.0002752
2112.25	0.0002015
2121.9	0.0002199
2131.54	0.0003068
2141.19	0.0003113
2150.83	0.0002328
2160.48	0.0002825
2170.12	0.0002403
2179.77	0.0002512
2189.41	0.0003183
2199.06	0.0002533
2208.7	0.0001956
2218.35	0.0004005
2227.99	0.0003618
2237.64	0.000275
2247.28	0.0004717
2256.92	0.0003378
2266.57	0.0003754
2276.21	0.0005692
2285.86	0.0005878
2295.5	0.0006514
2305.15	0.0006505
2314.79	0.0006868
2324.44	0.0006798
2334.08	0.0008985
2343.73	0.0009384
2353.37	0.0007823
2363.02	0.00101
2372.66	0.0007099
2382.31	0.0008302
2391.95	0.0008326
2401.6	0.0008037
2411.24	0.0007775
2420.89	0.0008589
2430.53	0.0007043
2440.18	0.0007735
2449.82	0.0008472
2459.47	0.0007909
2469.11	0.000718
2478.75	0.0007688
2488.4	0.0008307
2498.04	0.0008205
2507.69	0.0008856
2517.33	0.0008347
2526.98	0.0007923
2536.62	0.0007363
2546.27	0.0007335
2555.91	0.0007118
2565.56	0.0007874
2575.2	0.0009273
2584.85	0.0009844
2594.49	0.0009063
2604.14	0.0009036
2613.78	0.0009161
2623.43	0.0008489
2633.07	0.0009289
2642.72	0.0009649
2652.36	0.0007936
2662.01	0.0009232
2671.65	0.000986
2681.29	0.0009893
2690.94	0.0008749
2700.58	0.0008384
2710.23	0.001
2719.87	0.00118
2729.52	0.00125
2739.16	0.00168
2748.81	0.00156
2758.45	0.00124
2768.1	0.00143
2777.74	0.00158
2787.39	0.0017
2797.03	0.0019
2806.68	0.00215
2816.32	0.00253
2825.97	0.00317
2835.61	0.00399
2845.26	0.00508
2854.9	0.00813
2864.55	0.01621
2874.19	0.02453
2883.84	0.03535
2893.48	0.02731
2903.12	0.02147
2912.77	0.02665
2922.41	0.03736
2932.06	0.04254
2941.7	0.04241
2951.35	0.03313
2960.99	0.05793
2970.64	0.09016
2980.28	0.05967
2989.93	0.02006
2999.57	0.01284
3009.22	0.01285
3018.86	0.01671
3028.51	0.02224
3038.15	0.01967
3047.8	0.0158
3057.44	0.01747
3067.09	0.02361
3076.73	0.01785
3086.38	0.01264
3096.02	0.00868
3105.67	0.00601
3115.31	0.00416
3124.95	0.0027
3134.6	0.00187
3144.24	0.00162
3153.89	0.00152
3163.53	0.00163
3173.18	0.00142
3182.82	0.00144
3192.47	0.00134
3202.11	0.00133
3211.76	0.0009785
3221.4	0.0008388
3231.05	0.0006758
3240.69	0.0008471
3250.34	0.0006775
3259.98	0.0006819
3269.63	0.0006901
3279.27	0.0007632
3288.92	0.0004036
3298.56	0.0002666
3308.21	0.0004447
3317.85	0.0004204
3327.49	0.0005336
3337.14	0.000529
3346.78	0.000465
3356.43	0.0003474
3366.07	0.0005564
3375.72	0.0007052
3385.36	0.0007793
3395.01	0.0006753
3404.65	0.000503
3414.3	0.0006477
3423.94	0.0006585
3433.59	0.000664
3443.23	0.0006386
3452.88	0.0006741
3462.52	0.000638
3472.17	0.0004109
3481.81	0.0008074
3491.46	0.000554
3501.1	0.0008889
3510.75	0.00104
3520.39	0.00121
3530.04	0.0014
3539.68	0.00236
3549.32	0.0038
3558.97	0.00705
3568.61	0.01429
3578.26	0.01954
3587.9	0.01894
3597.55	0.0148
3607.19	0.00834
3616.84	0.00588
3626.48	0.00566
3636.13	0.00763
3645.77	0.01949
3655.42	0.01769
3665.06	0.00369
3674.71	0.00178
3684.35	0.00127
3694	0.0008405
3703.64	0.0007897
3713.29	0.000762
3722.93	0.0008344
3732.58	0.0008233
3742.22	0.0008253
3751.86	0.0007109
3761.51	0.0003618
3771.15	0.0005115
3780.8	0.0006596
3790.44	0.0007555
3800.09	0.0006246
3809.73	0.0007746
3819.38	0.000756
3829.02	0.0007813
3838.67	0.000697
3848.31	0.0007138
3857.96	0.0006124
3867.6	0.0005884
3877.25	0.0008774
3886.89	0.00103
3896.54	0.0007455
3906.18	0.000915
3915.83	0.0006153
3925.47	0.0006924
3935.12	0.0008417
3944.76	0.0008883
3954.41	0.0007221
3964.05	0.0006793
3973.69	0.0006905
3983.34	0.0004251
3992.98	0.000728
