Infrared Spectrum: Benzoic acid, p-(2-chloroacetamido)-, ethyl ester
Formula: C11 H12 Cl N O3
CAS: 26226-72-2
State: SOLID (NUJOL MULL)
Class: COBLENTZ III
Instrument: PERKIN-ELMER 21 (GRATING)
Instrument parameters: FILTER AT ABOUT 10 MICRONS
Resolution: 2
Origin: ABBOTT LABORATORIES
1/CM	TRANSMITTANCE
657	0.6491
666	0.6609
675	0.6631
684	0.6144
693	0.4369
702	0.6249
711	0.5718
720	0.4572
729	0.4153
738	0.402
747	0.4944
756	0.525
765	0.2498
774	0.5069
783	0.6492
792	0.7325
801	0.7496
810	0.7443
819	0.7344
828	0.7152
837	0.6699
846	0.5524
855	0.3285
864	0.601
873	0.7218
882	0.7279
891	0.7447
900	0.7364
909	0.7184
918	0.6924
927	0.6804
936	0.6977
945	0.6721
954	0.6242
963	0.5775
972	0.581
981	0.6607
990	0.6419
999	0.6048
1008	0.5391
1017	0.3867
1026	0.5618
1035	0.6629
1044	0.6536
1053	0.6359
1062	0.6215
1071	0.5704
1080	0.5373
1089	0.4591
1098	0.3463
1107	0.2497
1116	0.3756
1125	0.2687
1134	0.5695
1143	0.5707
1152	0.4806
1161	0.4027
1170	0.2491
1179	0.516
1188	0.5475
1197	0.5397
1206	0.5305
1215	0.5018
1224	0.4314
1233	0.3303
1242	0.1929
1251	0.2245
1260	0.2338
1269	0.1267
1278	0.1158
1287	0.1838
1296	0.2893
1305	0.3754
1314	0.5404
1323	0.5569
1332	0.4573
1341	0.3719
1350	0.3818
1359	0.2602
1368	0.2681
1377	0.2577
1386	0.3727
1395	0.4426
1404	0.3494
1413	0.3625
1422	0.5329
1431	0.4971
1440	0.326
1449	0.1804
1458	0.1239
1467	0.1381
1476	0.412
1485	0.4815
1494	0.4851
1503	0.4414
1512	0.3877
1521	0.4097
1530	0.3808
1539	0.2348
1548	0.1432
1557	0.3138
1566	0.5063
1575	0.6081
1584	0.5911
1593	0.448
1602	0.2482
1611	0.2049
1620	0.4195
1629	0.4661
1638	0.4731
1647	0.4466
1656	0.3714
1665	0.2969
1674	0.2232
1683	0.2115
1692	0.2649
1701	0.2361
1710	0.1932
1719	0.2618
1728	0.4325
1737	0.6262
1746	0.6987
1755	0.7527
1764	0.7871
1773	0.815
1782	0.8325
1791	0.8354
1800	0.8361
1809	0.8373
1818	0.8454
1827	0.8567
1836	0.8629
1845	0.8654
1854	0.8655
1863	0.8619
1872	0.8562
1881	0.8507
1890	0.8443
1899	0.8366
1908	0.8295
1917	0.8229
1926	0.8161
1935	0.8174
1944	0.8213
1953	0.8237
1962	0.8194
1971	0.813
1980	0.8077
1989	0.8037
1998	0.8034
2007	0.8028
2016	0.8
2025	0.7954
2034	0.7908
2043	0.787
2052	0.7834
2061	0.7803
2070	0.7772
2079	0.7743
2088	0.7716
2097	0.7689
2106	0.7662
2115	0.7637
2124	0.7613
2133	0.7588
2142	0.7563
2151	0.7543
2160	0.7525
2169	0.7507
2178	0.7489
2187	0.7472
2196	0.7454
2205	0.7437
2214	0.7418
2223	0.7399
2232	0.738
2241	0.736
2250	0.7334
2259	0.7301
2268	0.724
2277	0.7175
2286	0.7086
2295	0.7025
2304	0.6982
2313	0.6961
2322	0.6946
2331	0.6926
2340	0.6898
2349	0.6858
2358	0.6808
2367	0.6768
2376	0.6754
2385	0.6752
2394	0.6751
2403	0.6752
2412	0.6755
2421	0.6762
2430	0.676
2439	0.6756
2448	0.674
2457	0.6705
2466	0.6667
2475	0.6629
2484	0.6586
2493	0.6546
2502	0.6512
2511	0.648
2520	0.6447
2529	0.6414
2538	0.6379
2547	0.6344
2556	0.6309
2565	0.6272
2574	0.6234
2583	0.6198
2592	0.6161
2601	0.6125
2610	0.609
2619	0.6054
2628	0.6014
2637	0.5973
2646	0.5932
2655	0.5892
2664	0.5852
2673	0.5818
2682	0.5787
2691	0.5757
2700	0.5729
2709	0.5701
2718	0.5673
2727	0.5648
2736	0.5632
2745	0.5616
2754	0.5613
2763	0.561
2772	0.5602
2781	0.5572
2790	0.5461
2799	0.5289
2808	0.5145
2817	0.5007
2826	0.485
2835	0.4637
2844	0.4297
2853	0.3054
2862	0.109
2871	0.0318
2880	0.0265
2889	0.0227
2898	0.0207
2907	0.0193
2916	0.0184
2925	0.0176
2934	0.0172
2943	0.0171
2952	0.018
2961	0.0198
2970	0.024
2979	0.0402
2988	0.072
2997	0.118
3006	0.1637
3015	0.2092
3024	0.2544
3033	0.2993
3042	0.338
3051	0.3508
3060	0.3553
3069	0.3574
3078	0.3591
3087	0.3603
3096	0.3616
3105	0.363
3114	0.3644
3123	0.366
3132	0.3677
3141	0.3693
3150	0.3716
3159	0.3751
3168	0.3785
3177	0.3777
3186	0.3749
3195	0.3696
3204	0.3613
3213	0.3531
3222	0.3484
3231	0.347
3240	0.3465
3249	0.3461
3258	0.3417
3267	0.3334
3276	0.3222
3285	0.3161
3294	0.3131
3303	0.3117
3312	0.3125
3321	0.3367
3330	0.3682
3339	0.3997
3348	0.4309
3357	0.462
3366	0.4968
3375	0.5141
3384	0.5238
3393	0.5291
3402	0.531
3411	0.5305
3420	0.5302
3429	0.5291
3438	0.528
3447	0.5267
3456	0.5248
3465	0.523
3474	0.521
3483	0.5188
3492	0.5162
3501	0.5138
3510	0.5112
3519	0.5089
3528	0.5078
3537	0.5069
3546	0.5067
3555	0.5065
3564	0.5066
3573	0.5067
3582	0.5068
3591	0.5067
3600	0.5066
3609	0.5064
3618	0.5059
3627	0.5052
3636	0.5041
3645	0.5029
3654	0.5014
3663	0.4998
3672	0.4974
3681	0.4948
3690	0.4905
3699	0.4868
3708	0.484
3717	0.4827
3726	0.4817
3735	0.4809
3744	0.4802
3753	0.4799
3762	0.4796
3771	0.4792
3780	0.4789
3789	0.4785
3798	0.4779
3807	0.4775
3816	0.4769
3825	0.4754
3834	0.4739
3843	0.4716
3852	0.4691
3861	0.4667
3870	0.4644
3879	0.463
3888	0.462
3897	0.4613
3906	0.4611
3915	0.4612
3924	0.4614
3933	0.4617
3942	0.4622
3951	0.4627
3960	0.4634
3969	0.464
3978	0.4646
3987	0.4651
3996	0.4656
