Infrared Spectrum: CYCLOHEXYL AMINE HYDROBROMIDE
Formula: C6 H13 N  * H Br
CAS: 26227-54-3
State: SOLID (MINERAL OIL MULL)
Melting point: 198-199 C
Class: COBLENTZ
Instrument: Not specified, most likely a grating spectrometer.
Sampling: TRANSMISSION
Resolution: 4
Origin: STANDARD OIL OF OHIO
1/CM	TRANSMITTANCE
620.048	0.814
628.502	0.823
636.956	0.831
645.41	0.838
653.864	0.843
662.319	0.852
670.773	0.862
679.227	0.867
687.681	0.87
696.135	0.865
704.589	0.853
713.043	0.818
721.497	0.801
729.951	0.829
738.405	0.846
746.86	0.857
755.314	0.862
763.768	0.862
772.222	0.858
780.676	0.853
789.13	0.862
797.584	0.858
806.038	0.855
814.492	0.85
822.947	0.845
831.401	0.843
839.855	0.835
848.309	0.801
856.763	0.852
865.217	0.846
873.671	0.821
882.125	0.823
890.579	0.722
899.034	0.831
907.488	0.826
915.942	0.812
924.396	0.722
932.85	0.812
941.304	0.804
949.758	0.719
958.212	0.76
966.666	0.807
975.12	0.809
983.575	0.809
992.029	0.802
1000.48	0.767
1008.94	0.656
1017.39	0.454
1025.85	0.743
1034.3	0.743
1042.75	0.812
1051.21	0.811
1059.66	0.797
1068.12	0.671
1076.57	0.784
1085.02	0.804
1093.48	0.802
1101.93	0.799
1110.39	0.768
1118.84	0.654
1127.29	0.787
1135.75	0.794
1144.2	0.782
1152.66	0.773
1161.11	0.763
1169.56	0.732
1178.02	0.743
1186.47	0.78
1194.93	0.785
1203.38	0.789
1211.84	0.784
1220.29	0.767
1228.74	0.743
1237.2	0.797
1245.65	0.797
1254.11	0.778
1262.56	0.77
1271.01	0.765
1279.47	0.756
1287.92	0.775
1296.38	0.773
1304.83	0.772
1313.28	0.768
1321.74	0.765
1330.19	0.722
1338.65	0.675
1347.1	0.658
1355.56	0.629
1364.01	0.557
1372.46	0.51
1380.92	0.54
1389.37	0.622
1397.83	0.731
1406.28	0.724
1414.73	0.709
1423.19	0.69
1431.64	0.612
1440.1	0.416
1448.55	0.324
1457	0.285
1465.46	0.382
1473.91	0.671
1482.37	0.579
1490.82	0.301
1499.28	0.545
1507.73	0.811
1516.18	0.814
1524.64	0.811
1533.09	0.809
1541.55	0.807
1550	0.819
1558.45	0.821
1566.91	0.814
1575.36	0.809
1583.82	0.784
1592.27	0.588
1600.72	0.625
1609.18	0.627
1617.63	0.829
1626.09	0.828
1634.54	0.828
1642.99	0.828
1651.45	0.835
1659.9	0.85
1668.36	0.863
1676.81	0.867
1685.27	0.867
1693.72	0.867
1702.17	0.865
1710.63	0.867
1719.08	0.869
1727.54	0.875
1735.99	0.879
1744.44	0.88
1752.9	0.88
1761.35	0.88
1769.81	0.877
1778.26	0.872
1786.71	0.862
1795.17	0.857
1803.62	0.853
1812.08	0.857
1820.53	0.863
1828.99	0.853
1837.44	0.826
1845.89	0.86
1854.35	0.877
1862.8	0.877
1871.26	0.874
1879.71	0.867
1888.16	0.862
1896.62	0.857
1905.07	0.855
1913.53	0.85
1921.98	0.843
1930.43	0.821
1938.89	0.78
1947.34	0.724
1955.8	0.778
1964.25	0.78
1972.71	0.756
1981.16	0.69
1989.61	0.641
1998.07	0.596
2006.52	0.489
2014.98	0.391
2023.43	0.585
2031.88	0.726
2040.34	0.79
2048.79	0.801
2057.25	0.816
2065.7	0.85
2074.15	0.853
2082.61	0.857
2091.06	0.862
2099.52	0.863
2107.97	0.862
2116.42	0.853
2124.88	0.848
2133.33	0.845
2141.79	0.852
2150.24	0.857
2158.7	0.858
2167.15	0.858
2175.6	0.857
2184.06	0.855
2192.51	0.853
2200.97	0.853
2209.42	0.85
2217.87	0.85
2226.33	0.846
2234.78	0.84
2243.24	0.829
2251.69	0.836
2260.14	0.84
2268.6	0.838
2277.05	0.833
2285.51	0.831
2293.96	0.836
2302.42	0.838
2310.87	0.838
2319.32	0.833
2327.78	0.816
2336.23	0.807
2344.69	0.797
2353.14	0.787
2361.59	0.77
2370.05	0.765
2378.5	0.768
2386.96	0.765
2395.41	0.797
2403.86	0.802
2412.32	0.802
2420.77	0.797
2429.23	0.804
2437.68	0.802
2446.13	0.799
2454.59	0.785
2463.04	0.763
2471.5	0.719
2479.95	0.675
2488.41	0.661
2496.86	0.59
2505.31	0.438
2513.77	0.479
2522.22	0.671
2530.68	0.683
2539.13	0.704
2547.58	0.709
2556.04	0.613
2564.49	0.479
2572.95	0.624
2581.4	0.68
2589.85	0.653
2598.31	0.542
2606.76	0.408
2615.22	0.406
2623.67	0.547
2632.13	0.646
2640.58	0.647
2649.03	0.637
2657.49	0.579
2665.94	0.437
2674.4	0.445
2682.85	0.603
2691.3	0.629
2699.76	0.615
2708.21	0.571
2716.67	0.489
2725.12	0.377
2733.57	0.472
2742.03	0.562
2750.48	0.535
2758.94	0.482
2767.39	0.437
2775.85	0.352
2784.3	0.394
2792.75	0.418
2801.21	0.389
2809.66	0.331
2818.12	0.253
2826.57	0.178
2835.02	0.105
2843.48	0.074
2851.93	0.01
2860.39	0.003
2868.84	0.005
2877.29	0.005
2885.75	0.003
2894.2	0
2902.66	0
2911.11	0
2919.56	0
2928.02	0
2936.47	0
2944.93	0
2953.38	0
2961.84	0.001
2970.29	0.001
2978.74	0.011
2987.2	0.022
2995.65	0.03
3004.11	0.037
3012.56	0.052
3021.01	0.064
3029.47	0.073
3037.92	0.083
3046.38	0.113
3054.83	0.132
3063.28	0.163
3071.74	0.214
3080.19	0.258
3088.65	0.26
3097.1	0.248
3105.56	0.319
3114.01	0.438
3122.46	0.484
3130.92	0.525
3139.37	0.561
3147.83	0.6
3156.28	0.637
3164.73	0.675
3173.19	0.693
3181.64	0.687
3190.1	0.661
3198.55	0.595
3207	0.656
3215.46	0.785
3223.91	0.816
3232.37	0.831
3240.82	0.841
3249.28	0.846
3257.73	0.848
3266.18	0.85
3274.64	0.85
3283.09	0.852
3291.55	0.85
3300	0.85
3308.45	0.848
3316.91	0.848
3325.36	0.848
3333.82	0.845
3342.27	0.845
3350.72	0.845
3359.18	0.841
3367.63	0.841
3376.09	0.841
3384.54	0.841
3392.99	0.841
3401.45	0.841
3409.9	0.841
3418.36	0.841
3426.81	0.841
3435.27	0.841
3443.72	0.84
3452.17	0.84
3460.63	0.84
3469.08	0.838
3477.54	0.838
3485.99	0.84
3494.44	0.84
3502.9	0.84
3511.35	0.84
3519.81	0.84
3528.26	0.84
3536.71	0.838
3545.17	0.838
3553.62	0.836
3562.08	0.836
3570.53	0.836
3578.99	0.835
3587.44	0.835
3595.89	0.835
3604.35	0.835
3612.8	0.835
3621.26	0.835
3629.71	0.833
3638.16	0.833
3646.62	0.831
3655.07	0.831
3663.53	0.829
3671.98	0.828
3680.43	0.828
3688.89	0.828
3697.34	0.826
3705.8	0.824
3714.25	0.823
3722.71	0.821
3731.16	0.821
3739.61	0.819
3748.07	0.819
3756.52	0.816
3764.98	0.812
3773.43	0.811
3781.88	0.809
3790.34	0.809
3798.79	0.809
3807.25	0.807
3815.7	0.806
3824.15	0.806
3832.61	0.806
3841.06	0.806
3849.52	0.807
3857.97	0.806
3866.42	0.804
3874.88	0.804
3883.33	0.802
3891.79	0.802
3900.24	0.804
3908.7	0.804
3917.15	0.804
3925.6	0.802
3934.06	0.802
3942.51	0.802
3950.97	0.802
3959.42	0.802
