Infrared Spectrum: p-ACETOXYACETANILIDE
Formula: C10 H11 N O3
CAS: 2623-33-8
State: SOLID (MINERAL OIL MULL)
Melting point: 153-155 C
Class: COBLENTZ
Instrument: Not specified, most likely a prism, grating, or hybrid spectrometer.
Sampling: TRANSMISSION
Resolution: 4
Origin: WYANDOTTE CHEMICALS CORP., WYANDOTTE, MICHIGAN, USA
MICROMETERS	TRANSMITTANCE
2.034	0.57
2.07484	0.573
2.11567	0.58
2.15651	0.582
2.19734	0.571
2.23818	0.57
2.27901	0.573
2.31985	0.58
2.36068	0.59
2.40152	0.589
2.44235	0.597
2.48319	0.601
2.52402	0.604
2.56486	0.614
2.60569	0.604
2.64653	0.618
2.68736	0.611
2.7282	0.595
2.76903	0.594
2.80987	0.582
2.8507	0.571
2.89154	0.556
2.93237	0.563
2.97321	0.488
3.01404	0.296
3.05488	0.5
3.09571	0.549
3.13655	0.547
3.17738	0.585
3.21822	0.577
3.25905	0.558
3.29989	0.551
3.34072	0.34
3.38156	0.056
3.42239	0.051
3.46323	0.176
3.50406	0.15
3.5449	0.51
3.58573	0.703
3.62657	0.744
3.6674	0.758
3.70824	0.758
3.74907	0.768
3.78991	0.77
3.83074	0.779
3.87158	0.794
3.91241	0.799
3.95325	0.804
3.99408	0.813
4.03492	0.813
4.07575	0.815
4.11659	0.811
4.15742	0.821
4.19826	0.821
4.23909	0.821
4.27993	0.803
4.32076	0.821
4.3616	0.847
4.40244	0.875
4.44327	0.869
4.48411	0.852
4.52494	0.869
4.56578	0.876
4.60661	0.883
4.64745	0.888
4.68828	0.89
4.72912	0.878
4.76995	0.898
4.81079	0.904
4.85162	0.917
4.89246	0.924
4.93329	0.914
4.97413	0.919
5.01496	0.924
5.0558	0.933
5.09663	0.926
5.13747	0.928
5.1783	0.934
5.21914	0.934
5.25997	0.895
5.30081	0.941
5.34164	0.945
5.38248	0.941
5.42331	0.955
5.46415	0.91
5.50498	0.898
5.54582	0.91
5.58665	0.88
5.62749	0.799
5.66832	0.619
5.70916	0.227
5.74999	0.136
5.79083	0.52
5.83166	0.659
5.8725	0.376
5.91333	0.08
5.95417	0.344
5.995	0.587
6.03584	0.643
6.07667	0.662
6.11751	0.679
6.15834	0.589
6.19918	0.332
6.24001	0.736
6.28085	0.816
6.32168	0.686
6.36252	0.517
6.40335	0.316
6.44419	0.183
6.48502	0.176
6.52586	0.349
6.56669	0.505
6.60753	0.184
6.64836	0.212
6.6892	0.309
6.73004	0.313
6.77087	0.299
6.81171	0.234
6.85254	0.285
6.89338	0.363
6.93421	0.455
6.97505	0.546
7.01588	0.607
7.05672	0.57
7.09755	0.316
7.13839	0.484
7.17922	0.539
7.22006	0.45
7.26089	0.304
7.30173	0.253
7.34256	0.236
7.3834	0.422
7.42423	0.595
7.46507	0.703
7.5059	0.784
7.54674	0.734
7.58757	0.4
7.62841	0.243
7.66924	0.457
7.71008	0.599
7.75091	0.729
7.79175	0.773
7.83258	0.76
7.87342	0.705
7.91425	0.59
7.95509	0.344
7.99592	0.239
8.03676	0.123
8.07759	0.054
8.11843	0.049
8.15926	0.138
8.2001	0.316
8.24093	0.464
8.28177	0.458
8.3226	0.256
8.36344	0.066
8.40427	0.061
8.44511	0.154
8.48594	0.241
8.52678	0.32
8.56761	0.363
8.60845	0.405
8.64928	0.453
8.69012	0.479
8.73095	0.501
8.77179	0.534
8.81262	0.553
8.85346	0.568
8.89429	0.585
8.93513	0.585
8.97596	0.563
9.0168	0.477
9.05764	0.582
9.09847	0.616
9.13931	0.633
9.18014	0.638
9.22098	0.642
9.26181	0.65
9.30265	0.647
9.34348	0.647
9.38432	0.638
9.42515	0.614
9.46599	0.561
9.50682	0.489
9.54766	0.496
9.58849	0.547
9.62933	0.575
9.67016	0.599
9.711	0.589
9.75183	0.484
9.79267	0.376
9.8335	0.369
9.87434	0.402
9.91517	0.503
9.95601	0.558
9.99684	0.597
10.0377	0.626
10.0785	0.647
10.1193	0.659
10.1602	0.679
10.201	0.681
10.2419	0.698
10.2827	0.698
10.3235	0.703
10.3644	0.691
10.4052	0.707
10.446	0.698
10.4869	0.59
10.5277	0.522
10.5685	0.648
10.6094	0.702
10.6502	0.729
10.691	0.732
10.7319	0.738
10.7727	0.722
10.8135	0.676
10.8544	0.445
10.8952	0.238
10.936	0.404
10.9769	0.561
11.0177	0.642
11.0586	0.678
11.0994	0.698
11.1402	0.715
11.1811	0.734
11.2219	0.741
11.2627	0.748
11.3036	0.756
11.3444	0.761
11.3852	0.753
11.4261	0.738
11.4669	0.729
11.5077	0.7
11.5486	0.626
11.5894	0.477
11.6302	0.337
11.6711	0.323
11.7119	0.417
11.7528	0.428
11.7936	0.44
11.8344	0.505
11.8753	0.611
11.9161	0.643
11.9569	0.623
11.9978	0.7
12.0386	0.72
12.0794	0.691
12.1203	0.763
12.1611	0.809
12.2019	0.82
12.2428	0.83
12.2836	0.833
12.3244	0.842
12.3653	0.844
12.4061	0.844
12.4469	0.837
12.4878	0.813
12.5286	0.729
12.5695	0.554
12.6103	0.486
12.6511	0.595
12.692	0.703
12.7328	0.765
12.7736	0.785
12.8145	0.799
12.8553	0.806
12.8961	0.809
12.937	0.813
12.9778	0.816
13.0186	0.813
13.0595	0.815
13.1003	0.815
13.1411	0.816
13.182	0.815
13.2228	0.808
13.2636	0.806
13.3045	0.801
13.3453	0.803
13.3862	0.797
13.427	0.789
13.4678	0.779
13.5087	0.768
13.5495	0.758
13.5903	0.75
13.6312	0.732
13.672	0.715
13.7128	0.696
13.7537	0.655
13.7945	0.621
13.8353	0.65
13.8762	0.731
13.917	0.775
13.9578	0.789
13.9987	0.785
14.0395	0.777
14.0804	0.76
14.1212	0.736
14.162	0.705
14.2029	0.674
14.2437	0.625
14.2845	0.578
14.3254	0.522
14.3662	0.469
14.407	0.434
14.4479	0.416
14.4887	0.417
14.5295	0.445
14.5704	0.484
14.6112	0.529
14.652	0.575
14.6929	0.614
14.7337	0.645
14.7745	0.669
14.8154	0.678
14.8562	0.66
14.8971	0.647
14.9379	0.65
14.9787	0.667
15.0196	0.676
15.0604	0.678
15.1012	0.707
15.1421	0.739
15.1829	0.758
15.2237	0.761
15.2646	0.761
15.3054	0.753
15.3462	0.751
15.3871	0.746
15.4279	0.741
15.4687	0.736
15.5096	0.727
15.5504	0.722
15.5912	0.717
15.6321	0.714
15.6729	0.705
15.7138	0.693
15.7546	0.66
15.7954	0.648
15.8363	0.642
15.8771	0.638
15.9179	0.642
15.9588	0.642
15.9996	0.636
