Infrared Spectrum: Secbumeton
Formula: C 10 H 19 N 5 O
CAS: 26259-45-0
State: gas
Instrument: HP-GC/MS/IRD
Origin: NIST Mass Spectrometry Data Center
1/CM	ABSORBANCE
550	0.000168
562	5.64e-05
574	0.000282
586	0.0001308
598	9e-05
610	0.000168
622	6.6e-05
634	9.12e-05
646	4.8e-05
658	8.16e-05
670	7.08e-05
682	6.48e-05
694	3.84e-05
706	9.48e-05
718	5.64e-05
730	0.0001044
742	0.0001068
754	5.4e-05
766	6.96e-05
778	7.44e-05
790	0.0001524
802	0.0001476
814	0.0005028
826	0.000474
838	0.0001716
850	0.0002076
862	0.0001824
874	0.0002304
886	0.0002316
898	0.000258
910	0.0002532
922	0.0002892
934	0.0003144
946	0.0003108
958	0.000348
970	0.000414
982	0.0003936
994	0.0003516
1006	0.0004308
1018	0.0004836
1030	0.0003636
1042	0.0003156
1054	0.0004392
1066	0.0003732
1078	0.0005952
1090	0.0006396
1102	0.0008436
1114	0.0006024
1126	0.0005592
1138	0.0005916
1150	0.0007896
1162	0.0012144
1174	0.0013728
1186	0.0007884
1198	0.0005064
1210	0.0002784
1222	1.68e-05
1234	0.00012
1246	0.0001656
1258	0.0002232
1270	0.000312
1282	0.0004752
1294	0.0006912
1306	0.000756
1318	0.0009372
1330	0.0013956
1342	0.002202
1354	0.0033132
1366	0.0038712
1378	0.0033588
1390	0.003534
1402	0.0019068
1414	0.0014928
1426	0.001392
1438	0.0012876
1450	0.002262
1462	0.0046656
1474	0.0054732
1486	0.0044952
1498	0.0058632
1510	0.0054132
1522	0.0029808
1534	0.00216
1546	0.0029004
1558	0.0048564
1570	0.008592
1582	0.012
1594	0.0088896
1606	0.0036276
1618	0.0016452
1630	0.0009756
1642	0.0006504
1654	0.000504
1666	0.0003672
1678	0.0003204
1690	0.0002652
1702	0.00021
1714	0.0001728
1726	0.0001752
1738	0.0001272
1750	0.0001104
1762	0.0001176
1774	7.92e-05
1786	9e-05
1798	9.84e-05
1810	9.48e-05
1822	0.0001008
1834	7.44e-05
1846	7.56e-05
1858	6.36e-05
1870	9.12e-05
1882	8.28e-05
1894	8.76e-05
1906	7.44e-05
1918	6.96e-05
1930	6e-05
1942	9.36e-05
1954	9.84e-05
1966	7.68e-05
1978	4.44e-05
1990	7.2e-05
2002	4.56e-05
2014	7.92e-05
2026	6.72e-05
2038	5.88e-05
2050	6.96e-05
2062	7.32e-05
2074	6.24e-05
2086	9.72e-05
2098	8.4e-05
2110	2.16e-05
2122	7.2e-05
2134	6.48e-05
2146	7.2e-05
2158	3.12e-05
2170	7.32e-05
2182	3.24e-05
2194	2.76e-05
2206	7.32e-05
2218	3.24e-05
2230	4.2e-05
2242	6.72e-05
2254	6.12e-05
2266	3.36e-05
2278	6e-06
2290	8.88e-05
2302	6.6e-05
2314	6.84e-05
2326	0.0001032
2338	7.68e-05
2350	3.72e-05
2362	9.12e-05
2374	0.0001068
2386	8.16e-05
2398	4.44e-05
2410	3.6e-05
2422	5.28e-05
2434	5.16e-05
2446	4.56e-05
2458	7.08e-05
2470	8.28e-05
2482	7.56e-05
2494	7.68e-05
2506	5.76e-05
2518	0.000114
2530	8.64e-05
2542	0.0001188
2554	9.12e-05
2566	9.48e-05
2578	9.6e-05
2590	6.12e-05
2602	0.0001212
2614	0.0001176
2626	9.72e-05
2638	9.6e-05
2650	7.08e-05
2662	7.44e-05
2674	8.04e-05
2686	0.0001224
2698	9e-05
2710	0.0001056
2722	0.0001044
2734	0.000144
2746	0.0001248
2758	0.0001224
2770	9.24e-05
2782	0.0001536
2794	0.0001956
2806	9.96e-05
2818	0.0001584
2830	0.0001656
2842	0.0002196
2854	0.0002904
2866	0.0004416
2878	0.000636
2890	0.000798
2902	0.0007068
2914	0.0007968
2926	0.000948
2938	0.0011784
2950	0.0011976
2962	0.0013164
2974	0.0018528
2986	0.001326
2998	0.0006984
3010	0.0003612
3022	0.0002832
3034	0.0001992
3046	0.000192
3058	0.0001488
3070	0.000114
3082	0.0001392
3094	0.0001092
3106	0.0001584
3118	0.0001704
3130	0.0001332
3142	0.000204
3154	0.0001524
3166	0.000204
3178	9.36e-05
3190	0.00012
3202	0.0001728
3214	0.0001236
3226	6.96e-05
3238	4.32e-05
3250	0.0001776
3262	0.0001272
3274	7.56e-05
3286	9.12e-05
3298	9.48e-05
3310	4.8e-05
3322	8.04e-05
3334	8.52e-05
3346	0.0001056
3358	0.0001092
3370	6.96e-05
3382	8.4e-05
3394	8.4e-05
3406	5.16e-05
3418	0.000174
3430	0.0001368
3442	0.0004536
3454	0.0005688
3466	0.0004116
3478	0.000192
3490	9.36e-05
3502	0.0001512
3514	7.08e-05
3526	0.0001308
3538	0.0001584
3550	7.2e-06
3562	0.0001788
3574	1.08e-05
3586	9e-05
3598	9.96e-05
3610	7.92e-05
3622	5.16e-05
3634	3.24e-05
3646	7.2e-06
3658	8.4e-06
3670	9.36e-05
3682	4.32e-05
3694	6.12e-05
3706	7.56e-05
3718	3.72e-05
3730	0.0001536
3742	0.0001728
3754	6.72e-05
3766	9.48e-05
3778	0.0001524
3790	9.84e-05
3802	8.04e-05
3814	0.0001056
3826	0.0001908
3838	0.0001668
