Infrared Spectrum: 3-(Diethylamino)propyl isothiocyanate
Formula: C 8 H 16 N 2 S
CAS: 2626-52-0
State: gas
Origin: EPA-IR VAPOR PHASE LIBRARY
1/CM	ABSORBANCE
549.8	0.00402
559.445	0.00376
569.09	0.00341
578.735	0.00292
588.38	0.00259
598.025	0.0019482
607.67	0.001657
617.315	0.0016849
626.96	0.0014846
636.605	0.001499
646.251	0.0017792
655.896	0.0016849
665.541	0.0017328
675.186	0.0014995
684.831	0.0014359
694.476	0.0018742
704.121	0.00217
713.766	0.00234
723.411	0.00286
733.056	0.00309
742.701	0.00244
752.346	0.00204
761.991	0.00203
771.636	0.00208
781.281	0.00229
790.926	0.0025
800.571	0.00261
810.216	0.00248
819.861	0.0017867
829.507	0.0015854
839.152	0.0011807
848.797	0.0011632
858.442	0.0014606
868.087	0.0012636
877.732	0.0009324
887.377	0.00100066
897.022	0.000899
906.667	0.00106575
916.312	0.0012964
925.957	0.0012793
935.602	0.0011576
945.247	0.0012971
954.892	0.0014192
964.537	0.0017489
974.182	0.0019104
983.827	0.00219
993.472	0.00257
1003.12	0.00274
1012.76	0.00291
1022.41	0.00358
1032.05	0.00442
1041.7	0.00542
1051.34	0.00729
1060.99	0.01064
1070.63	0.01366
1080.28	0.01333
1089.92	0.01118
1099.57	0.00844
1109.21	0.0066
1118.86	0.0057
1128.5	0.00493
1138.15	0.00431
1147.79	0.00445
1157.44	0.00598
1167.08	0.0072
1176.73	0.00661
1186.37	0.00662
1196.02	0.00952
1205.66	0.01022
1215.31	0.00681
1224.95	0.00536
1234.6	0.0048
1244.24	0.00504
1253.89	0.00518
1263.53	0.00452
1273.18	0.0045
1282.82	0.00567
1292.47	0.0079
1302.11	0.01015
1311.76	0.01085
1321.4	0.01107
1331.05	0.0156
1340.69	0.02156
1350.34	0.02044
1359.98	0.01677
1369.63	0.0155
1379.27	0.01562
1388.92	0.0124
1398.56	0.0071
1408.21	0.00421
1417.85	0.00359
1427.5	0.00409
1437.14	0.006
1446.79	0.01017
1456.43	0.01514
1466.08	0.01285
1475.73	0.00768
1485.37	0.00419
1495.02	0.00251
1504.66	0.0018404
1514.31	0.0013983
1523.95	0.0012279
1533.6	0.0011122
1543.24	0.00104615
1552.89	0.0009267
1562.53	0.000864
1572.18	0.00081
1581.82	0.000729
1591.47	0.000733
1601.11	0.000712
1610.76	0.000764
1620.4	0.000628
1630.05	0.000696
1639.69	0.000724
1649.34	0.000761
1658.98	0.000703
1668.63	0.00065
1678.27	0.000644
1687.92	0.000575
1697.56	0.000672
1707.21	0.000607
1716.85	0.000611
1726.5	0.000588
1736.14	0.00058
1745.79	0.000592
1755.43	0.000614
1765.08	0.000618
1774.72	0.000704
1784.37	0.000712
1794.01	0.000716
1803.66	0.000736
1813.3	0.000792
1822.95	0.000833
1832.59	0.0009285
1842.24	0.0009913
1851.88	0.0010328
1861.53	0.0011843
1871.17	0.0013974
1880.82	0.0016629
1890.46	0.0019525
1900.11	0.00235
1909.75	0.00291
1919.4	0.00357
1929.04	0.00438
1938.69	0.00548
1948.33	0.00679
1957.98	0.00852
1967.62	0.01083
1977.27	0.01403
1986.91	0.01861
1996.56	0.02498
2006.2	0.03366
2015.85	0.04551
2025.49	0.06165
2035.14	0.08243
2044.78	0.10456
2054.43	0.12097
2064.07	0.12424
2073.72	0.113
2083.36	0.09258
2093.01	0.0724
2102.65	0.05725
2112.3	0.046
2121.94	0.03744
2131.59	0.03101
2141.23	0.02646
2150.88	0.02336
2160.52	0.02155
2170.17	0.02038
2179.81	0.01967
2189.46	0.01897
2199.1	0.01759
2208.75	0.01503
2218.39	0.01168
2228.04	0.0088
2237.68	0.00664
2247.33	0.00524
2256.97	0.00426
2266.62	0.00352
2276.26	0.00298
2285.91	0.0025
2295.55	0.00209
2305.2	0.0018124
2314.84	0.0016351
2324.49	0.0014288
2334.13	0.0013213
2343.78	0.0012563
2353.42	0.0011324
2363.07	0.0011599
2372.72	0.00105421
2382.36	0.0009565
2392.01	0.0009729
2401.65	0.0009666
2411.3	0.000902
2420.94	0.000891
2430.59	0.0009222
2440.23	0.000817
2449.88	0.000875
2459.52	0.000821
2469.17	0.000898
2478.81	0.000863
2488.46	0.0009429
2498.1	0.00103092
2507.75	0.0011424
2517.39	0.00101719
2527.04	0.001193
2536.68	0.0012778
2546.33	0.0012854
2555.97	0.0013369
2565.62	0.0014789
2575.26	0.0015301
2584.91	0.0016739
2594.55	0.001645
2604.2	0.0016837
2613.84	0.0016178
2623.49	0.0017561
2633.13	0.0019677
2642.78	0.00204
2652.42	0.00215
2662.07	0.00247
2671.71	0.00285
2681.36	0.00336
2691	0.00364
2700.65	0.00421
2710.29	0.00483
2719.94	0.0054
2729.58	0.00591
2739.23	0.00636
2748.87	0.00691
2758.52	0.00744
2768.16	0.00827
2777.81	0.00945
2787.45	0.01191
2797.1	0.01627
2806.74	0.02196
2816.39	0.02434
2826.03	0.02193
2835.68	0.01714
2845.32	0.01325
2854.97	0.01118
2864.61	0.01128
2874.26	0.01406
2883.9	0.01736
2893.55	0.01658
2903.19	0.01559
2912.84	0.01662
2922.48	0.02048
2932.13	0.02768
2941.77	0.03387
2951.42	0.03536
2961.06	0.03776
2970.71	0.04464
2980.35	0.04083
2990	0.02143
2999.64	0.00988
3009.29	0.00564
3018.93	0.00391
3028.58	0.00328
3038.22	0.00257
3047.87	0.00216
3057.51	0.0018827
3067.16	0.0017728
3076.8	0.0016164
3086.45	0.0015162
3096.09	0.0013422
3105.74	0.0012557
3115.38	0.0012007
3125.03	0.00107916
3134.67	0.0009507
3144.32	0.000821
3153.96	0.000745
3163.61	0.000669
3173.25	0.000659
3182.9	0.000651
3192.54	0.000519
3202.19	0.000572
3211.83	0.000459
3221.48	0.00026
3231.12	0.000413
3240.77	0.000291
3250.41	0.000142
3260.06	0.000367
3269.7	0.000165
3279.35	0.00029
3289	0.000177
3298.64	0.00028
3308.29	0.000201
3317.93	0.000227
3327.58	0.000296
3337.22	0.000259
3346.87	0.000196
3356.51	0.000148
3366.16	0.000229
3375.8	0.000268
3385.45	0.000168
3395.09	0.000341
3404.74	0.00026
3414.38	0.000218
3424.03	0.000124
3433.67	0.000241
3443.32	0.000221
3452.96	0.00016
3462.61	0.000353
3472.25	0.000148
3481.9	9.5e-05
3491.54	0.000116
3501.19	0.000128
3510.83	0.000175
3520.48	0.000302
3530.12	0.000165
3539.77	0.00033
3549.41	0.000153
3559.06	0.000101
3568.7	0.000252
3578.35	0.000241
3587.99	0.000161
3597.64	0.000125
3607.28	0.000161
3616.93	0.000433
3626.57	0.000191
3636.22	0.000222
3645.86	0.000348
3655.51	0.000428
3665.15	0.000337
3674.8	0.000538
3684.44	0.000155
3694.09	0.000307
3703.73	0.00035
3713.38	0.000364
3723.02	0.000274
3732.67	0.000286
3742.31	0.000337
3751.96	0.000593
3761.6	0.000345
3771.25	0.000323
3780.89	0.000355
3790.54	0.000385
3800.18	0.000588
3809.83	0.000368
3819.47	0.00044
3829.12	0.000499
3838.76	0.000443
3848.41	0.000604
3858.05	0.000421
3867.7	0.000582
3877.34	0.000673
3886.99	0.000622
3896.63	0.000645
3906.28	0.00077
3915.92	0.00064
3925.57	0.000662
3935.21	0.000765
3944.86	0.000835
3954.5	0.000899
3964.15	0.000686
3973.79	0.0009921
3983.44	0.0009
3993.08	0.00102379
