Infrared Spectrum: 3-Phenylpropyl isothiocyanate
Formula: C 10 H 11 N S
CAS: 2627-27-2
State: gas
Origin: EPA-IR VAPOR PHASE LIBRARY
1/CM	ABSORBANCE
549.8	0.008515
559.445	0.007705
569.09	0.006735
578.734	0.005905
588.379	0.005505
598.024	0.005355
607.669	0.003755
617.313	0.003235
626.958	0.002815
636.603	0.002975
646.248	0.003295
655.893	0.004255
665.537	0.005905
675.182	0.008925
684.827	0.015475
694.472	0.029315
704.116	0.028635
713.761	0.017775
723.406	0.014325
733.051	0.019785
742.695	0.024205
752.34	0.016345
761.985	0.010655
771.63	0.008075
781.275	0.005225
790.919	0.003365
800.564	0.003225
810.209	0.003615
819.854	0.004355
829.498	0.003275
839.143	0.002275
848.788	0.002605
858.433	0.002515
868.078	0.001995
877.722	0.001955
887.367	0.002125
897.012	0.002885
906.657	0.004115
916.301	0.002855
925.946	0.002535
935.591	0.002785
945.236	0.003165
954.88	0.004515
964.525	0.004925
974.17	0.004015
983.815	0.003015
993.46	0.002785
1003.1	0.003035
1012.75	0.004265
1022.39	0.006475
1032.04	0.008085
1041.68	0.005575
1051.33	0.004415
1060.97	0.004005
1070.62	0.004105
1080.26	0.004245
1089.91	0.003935
1099.55	0.003565
1109.2	0.004025
1118.84	0.003635
1128.49	0.002845
1138.13	0.002995
1147.78	0.002805
1157.42	0.002985
1167.07	0.003405
1176.71	0.003845
1186.36	0.003495
1196	0.003755
1205.64	0.003355
1215.29	0.003865
1224.93	0.004265
1234.58	0.004895
1244.22	0.004275
1253.87	0.004235
1263.51	0.004335
1273.16	0.005105
1282.8	0.006085
1292.45	0.007245
1302.09	0.009415
1311.74	0.012295
1321.38	0.016345
1331.03	0.025775
1340.67	0.040025
1350.32	0.043495
1359.96	0.031415
1369.61	0.020575
1379.25	0.010675
1388.9	0.005985
1398.54	0.004195
1408.18	0.003655
1417.83	0.003845
1427.47	0.005425
1437.12	0.010065
1446.76	0.019605
1456.41	0.031665
1466.05	0.024415
1475.7	0.009605
1485.34	0.007995
1494.99	0.015315
1504.63	0.010205
1514.28	0.003145
1523.92	0.002165
1533.57	0.002145
1543.21	0.001845
1552.86	0.001755
1562.5	0.001935
1572.15	0.002505
1581.79	0.003565
1591.44	0.005715
1601.08	0.008005
1610.73	0.005715
1620.37	0.002485
1630.01	0.001735
1639.66	0.0016121
1649.3	0.0016387
1658.95	0.0014514
1668.59	0.0013383
1678.24	0.0012413
1687.88	0.0012745
1697.53	0.0012452
1707.17	0.0013325
1716.82	0.0014737
1726.46	0.0015252
1736.11	0.001795
1745.75	0.001825
1755.4	0.0015546
1765.04	0.0015591
1774.69	0.001845
1784.33	0.002275
1793.98	0.003105
1803.62	0.002765
1813.27	0.002195
1822.91	0.001995
1832.55	0.002015
1842.2	0.002185
1851.84	0.002655
1861.49	0.003425
1871.13	0.004105
1880.78	0.004765
1890.42	0.005105
1900.07	0.005735
1909.71	0.007135
1919.36	0.008985
1929	0.011375
1938.65	0.014365
1948.29	0.017615
1957.94	0.021365
1967.58	0.026015
1977.23	0.033895
1986.87	0.045775
1996.52	0.063015
2006.16	0.086715
2015.81	0.117965
2025.45	0.157765
2035.1	0.204915
2044.74	0.250875
2054.38	0.280055
2064.03	0.284645
2073.67	0.264815
2083.32	0.219995
2092.96	0.163165
2102.61	0.116285
2112.25	0.088035
2121.9	0.072035
2131.54	0.062275
2141.19	0.055425
2150.83	0.050335
2160.48	0.046015
2170.12	0.042775
2179.77	0.041585
2189.41	0.041175
2199.06	0.039205
2208.7	0.034105
2218.35	0.026645
2227.99	0.019565
2237.64	0.014365
2247.28	0.011015
2256.92	0.008845
2266.57	0.007415
2276.21	0.006215
2285.86	0.005225
2295.5	0.004355
2305.15	0.003775
2314.79	0.003425
2324.44	0.002875
2334.08	0.002485
2343.73	0.002265
2353.37	0.001945
2363.02	0.0016232
2372.66	0.0014602
2382.31	0.0013661
2391.95	0.0013164
2401.6	0.0010885
2411.24	0.0011811
2420.89	0.0011156
2430.53	0.0011313
2440.18	0.0011549
2449.82	0.001066
2459.47	0.0011103
2469.11	0.0011574
2478.75	0.0011918
2488.4	0.0012469
2498.04	0.0012547
2507.69	0.0013721
2517.33	0.0013411
2526.98	0.0014734
2536.62	0.0014935
2546.27	0.0015905
2555.91	0.0015894
2565.56	0.001775
2575.2	0.001715
2584.85	0.001845
2594.49	0.001715
2604.14	0.001745
2613.78	0.0015242
2623.43	0.0014814
2633.07	0.0015185
2642.72	0.0015904
2652.36	0.0015463
2662.01	0.001895
2671.65	0.002095
2681.29	0.002235
2690.94	0.002625
2700.58	0.002955
2710.23	0.003355
2719.87	0.003845
2729.52	0.004515
2739.16	0.004915
2748.81	0.004495
2758.45	0.004035
2768.1	0.003525
2777.74	0.003185
2787.39	0.003035
2797.03	0.003015
2806.68	0.002915
2816.32	0.002885
2825.97	0.003225
2835.61	0.003385
2845.26	0.004845
2854.9	0.008065
2864.55	0.012125
2874.19	0.014595
2883.84	0.016195
2893.48	0.014345
2903.12	0.011795
2912.77	0.012865
2922.41	0.019345
2932.06	0.027455
2941.7	0.036235
2951.35	0.048895
2960.99	0.044105
2970.64	0.021575
2980.28	0.008795
2989.93	0.005485
2999.57	0.005615
3009.22	0.007925
3018.86	0.012425
3028.51	0.022045
3038.15	0.022495
3047.8	0.012465
3057.44	0.012395
3067.09	0.020425
3076.73	0.020955
3086.38	0.013445
3096.02	0.009465
3105.67	0.006345
3115.31	0.003995
3124.95	0.001985
3134.6	0.0012068
3144.24	0.0008507
3153.89	0.0008414
3163.53	0.0007737
3173.18	0.00067742
3182.82	0.000428
3192.47	0.00053
3202.11	0.0005467
3211.76	0.0005966
3221.4	0.000377
3231.05	0.000298
3240.69	0.000419
3250.34	0.000361
3259.98	0.000387
3269.63	0.000184
3279.27	0.000334
3288.92	0.000372
3298.56	0.00031
3308.21	0.0001
3317.85	0.000334
3327.49	0.000273
3337.14	0.000298
3346.78	0.000207
3356.43	0.000444
3366.07	0.000257
3375.72	0.000278
3385.36	0.000465
3395.01	0.000369
3404.65	8.4e-05
3414.3	0.000306
3423.94	0.000484
3433.59	0.000403
3443.23	0.000452
3452.88	0.000182
3462.52	0.000257
3472.17	0.000532
3481.81	0.000382
3491.46	0.000488
3501.1	0.000254
3510.75	0.000289
3520.39	0.000336
3530.04	0.000355
3539.68	0.000158
3549.32	0.000331
3558.97	0.00039
3568.61	0.000341
3578.26	0.00017
3587.9	0.000526
3597.55	0.000344
3607.19	0.000309
3616.84	0.000498
3626.48	0.000405
3636.13	0.000436
3645.77	0.0005505
3655.42	0.00070201
3665.06	0.00033
3674.71	0.000508
3684.35	0.000383
3694	0.00044
3703.64	0.0005824
3713.29	0.0006165
3722.93	0.000435
3732.58	0.000493
3742.22	0.000345
3751.86	0.0005686
3761.51	0.000465
3771.15	0.0005692
3780.8	0.0005638
3790.44	0.000548
3800.09	0.0005928
3809.73	0.000486
3819.38	0.0005794
3829.02	0.000531
3838.67	0.000648025
3848.31	0.000606
3857.96	0.0005992
3867.6	0.00072189
3877.25	0.000714
3886.89	0.0005883
3896.54	0.000529
3906.18	0.00072993
3915.83	0.00069317
3925.47	0.00066212
3935.12	0.0008079
3944.76	0.0008133
3954.41	0.0009363
3964.05	0.000971
3973.69	0.0011311
3983.34	0.0010941
3992.98	0.0012762
