Infrared Spectrum: 1,3-DIVINYL-1,1,3,3-TETRAMETHYLDISILOXANE
Formula: C8 H18 O Si2
CAS: 2627-95-4
State: SOLID (BETWEEN SALTS)
Class: COBLENTZ
Instrument: BECKMAN IR-4 (HYBRID PRISM-GRATING)
Sampling: TRANSMISSION
Resolution: 4
Origin: PENINSULAR CHEM RESEARCH, INC., GAINESVILLE, FLORIDA
MICROMETERS	TRANSMITTANCE
2.03	0.92
2.0649	0.922
2.0998	0.921
2.13469	0.922
2.16959	0.921
2.20449	0.917
2.23939	0.923
2.27428	0.921
2.30918	0.923
2.34408	0.928
2.37898	0.922
2.41387	0.922
2.44877	0.921
2.48367	0.92
2.51857	0.932
2.55346	0.935
2.58836	0.932
2.62326	0.918
2.65816	0.918
2.69306	0.93
2.72795	0.932
2.76285	0.935
2.79775	0.936
2.83265	0.932
2.86754	0.931
2.90244	0.935
2.93734	0.937
2.97224	0.931
3.00713	0.931
3.04203	0.93
3.07693	0.92
3.11183	0.921
3.14673	0.916
3.18162	0.91
3.21652	0.896
3.25142	0.841
3.28632	0.791
3.32121	0.807
3.35611	0.699
3.39101	0.604
3.42591	0.817
3.4608	0.845
3.4957	0.895
3.5306	0.908
3.5655	0.912
3.60039	0.928
3.63529	0.93
3.67019	0.928
3.70509	0.927
3.73999	0.927
3.77488	0.931
3.80978	0.933
3.84468	0.933
3.87958	0.932
3.91447	0.931
3.94937	0.931
3.98427	0.928
4.01917	0.933
4.05406	0.93
4.08896	0.927
4.12386	0.932
4.15876	0.927
4.19365	0.931
4.22855	0.932
4.26345	0.928
4.29835	0.931
4.33325	0.926
4.36814	0.931
4.40304	0.922
4.43794	0.93
4.47284	0.932
4.50773	0.927
4.54263	0.922
4.57753	0.923
4.61243	0.927
4.64732	0.931
4.68222	0.931
4.71712	0.922
4.75202	0.926
4.78692	0.918
4.82181	0.922
4.85671	0.922
4.89161	0.92
4.92651	0.92
4.9614	0.922
4.9963	0.917
5.0312	0.921
5.0661	0.917
5.10099	0.918
5.13589	0.907
5.17079	0.9
5.20569	0.878
5.24058	0.898
5.27548	0.917
5.31038	0.913
5.34528	0.931
5.38018	0.917
5.41507	0.932
5.44997	0.928
5.48487	0.925
5.51977	0.925
5.55466	0.911
5.58956	0.925
5.62446	0.916
5.65936	0.918
5.69425	0.918
5.72915	0.913
5.76405	0.92
5.79895	0.9
5.83384	0.915
5.86874	0.918
5.90364	0.91
5.93854	0.917
5.97344	0.92
6.00833	0.912
6.04323	0.907
6.07813	0.905
6.11303	0.907
6.14792	0.902
6.18282	0.896
6.21772	0.887
6.25262	0.796
6.28751	0.845
6.32241	0.861
6.35731	0.881
6.39221	0.885
6.42711	0.898
6.462	0.897
6.4969	0.901
6.5318	0.9
6.5667	0.902
6.60159	0.892
6.63649	0.898
6.67139	0.896
6.70629	0.901
6.74118	0.887
6.77608	0.888
6.81098	0.872
6.84588	0.875
6.88077	0.866
6.91567	0.848
6.95057	0.846
6.98547	0.837
7.02037	0.754
7.05526	0.639
7.09016	0.49
7.12506	0.627
7.15996	0.785
7.19485	0.836
7.22975	0.843
7.26465	0.891
7.29955	0.873
7.33444	0.893
7.36934	0.893
7.40424	0.895
7.43914	0.891
7.47403	0.898
7.50893	0.888
7.54383	0.891
7.57873	0.883
7.61363	0.883
7.64852	0.87
7.68342	0.863
7.71832	0.851
7.75322	0.84
7.78811	0.82
7.82301	0.734
7.85791	0.671
7.89281	0.564
7.9277	0.26
7.9626	0.138
7.9975	0.385
8.0324	0.697
8.0673	0.795
8.10219	0.84
8.13709	0.862
8.17199	0.877
8.20689	0.887
8.24178	0.891
8.27668	0.895
8.31158	0.897
8.34648	0.897
8.38137	0.896
8.41627	0.893
8.45117	0.888
8.48607	0.883
8.52096	0.881
8.55586	0.872
8.59076	0.868
8.62566	0.856
8.66056	0.841
8.69545	0.827
8.73035	0.803
8.76525	0.792
8.80015	0.767
8.83504	0.745
8.86994	0.724
8.90484	0.704
8.93974	0.674
8.97463	0.645
9.00953	0.614
9.04443	0.574
9.07933	0.52
9.11422	0.475
9.14912	0.409
9.18402	0.349
9.21892	0.277
9.25382	0.212
9.28871	0.154
9.32361	0.106
9.35851	0.073
9.39341	0.054
9.4283	0.046
9.4632	0.049
9.4981	0.067
9.533	0.092
9.56789	0.129
9.60279	0.194
9.63769	0.265
9.67259	0.348
9.70749	0.429
9.74238	0.483
9.77728	0.535
9.81218	0.544
9.84708	0.529
9.88197	0.475
9.91687	0.385
9.95177	0.397
9.98667	0.506
10.0216	0.619
10.0565	0.707
10.0914	0.757
10.1263	0.784
10.1612	0.799
10.1961	0.806
10.2309	0.812
10.2658	0.808
10.3007	0.799
10.3356	0.777
10.3705	0.735
10.4054	0.641
10.4403	0.521
10.4752	0.45
10.5101	0.478
10.545	0.6
10.5799	0.697
10.6148	0.762
10.6497	0.799
10.6846	0.821
10.7195	0.835
10.7544	0.847
10.7893	0.852
10.8242	0.857
10.8591	0.86
10.894	0.862
10.9289	0.862
10.9638	0.862
10.9987	0.858
11.0336	0.856
11.0685	0.853
11.1034	0.85
11.1383	0.843
11.1732	0.837
11.2081	0.831
11.243	0.827
11.2779	0.817
11.3128	0.805
11.3477	0.797
11.3826	0.786
11.4175	0.766
11.4524	0.746
11.4873	0.727
11.5222	0.694
11.5571	0.662
11.592	0.629
11.6269	0.576
11.6618	0.519
11.6967	0.478
11.7315	0.411
11.7664	0.327
11.8013	0.252
11.8362	0.173
11.8711	0.112
11.906	0.089
11.9409	0.093
11.9758	0.124
12.0107	0.183
12.0456	0.248
12.0805	0.323
12.1154	0.397
12.1503	0.456
12.1852	0.494
12.2201	0.515
12.255	0.518
12.2899	0.503
12.3248	0.478
12.3597	0.43
12.3946	0.359
12.4295	0.262
12.4644	0.173
12.4993	0.111
12.5342	0.094
12.5691	0.107
12.604	0.102
12.6389	0.083
12.6738	0.059
12.7087	0.043
12.7436	0.051
12.7785	0.084
12.8134	0.146
12.8483	0.227
12.8832	0.318
12.9181	0.413
12.953	0.499
12.9879	0.579
13.0228	0.631
13.0577	0.676
13.0926	0.707
13.1275	0.729
13.1624	0.746
13.1973	0.759
13.2321	0.769
13.267	0.774
13.3019	0.776
13.3368	0.779
13.3717	0.78
13.4066	0.781
13.4415	0.782
13.4764	0.78
13.5113	0.78
13.5462	0.777
13.5811	0.776
13.616	0.776
13.6509	0.776
13.6858	0.772
13.7207	0.769
13.7556	0.764
13.7905	0.757
13.8254	0.75
13.8603	0.742
13.8952	0.729
13.9301	0.706
13.965	0.684
13.9999	0.655
14.0348	0.615
14.0697	0.565
14.1046	0.529
14.1395	0.51
14.1744	0.503
14.2093	0.5
14.2442	0.5
14.2791	0.504
14.314	0.511
14.3489	0.519
14.3838	0.529
14.4187	0.538
14.4536	0.541
14.4885	0.544
14.5234	0.555
14.5583	0.57
14.5932	0.589
14.6281	0.604
14.663	0.624
14.6979	0.644
14.7327	0.656
14.7676	0.669
14.8025	0.674
14.8374	0.679
14.8723	0.684
14.9072	0.682
14.9421	0.677
14.977	0.67
15.0119	0.661
