Infrared Spectrum: 2-Pentenenitrile
Formula: C 5 H 7 N
CAS: 26294-98-4
State: gas
Origin: EPA-IR VAPOR PHASE LIBRARY
1/CM	ABSORBANCE
549.8	0.00095
559.445	0.0005869
569.09	0.0008532
578.734	0.000656
588.379	0.0005546
598.024	0.0004647
607.669	0.0005015
617.313	0.0003137
626.958	0.0006032
636.603	0.000665
646.248	0.0009495
655.893	0.0014992
665.537	0.0015492
675.182	0.0019392
684.827	0.0021992
694.472	0.0033092
704.116	0.0061292
713.761	0.0103392
723.406	0.0149592
733.051	0.0160692
742.695	0.0136092
752.34	0.0104292
761.985	0.0072992
771.63	0.0048892
781.275	0.0033392
790.919	0.0028392
800.564	0.0026092
810.209	0.0026492
819.854	0.0018492
829.498	0.0013992
839.143	0.0017092
848.788	0.0019592
858.433	0.0019792
868.078	0.0018392
877.722	0.0012992
887.367	0.0013192
897.012	0.0012992
906.657	0.0013192
916.301	0.0012992
925.946	0.0012692
935.591	0.0020792
945.236	0.0018892
954.88	0.0017692
964.525	0.0015992
974.17	0.0010591
983.815	0.001019
993.46	0.0013692
1003.1	0.0016792
1012.75	0.0020392
1022.39	0.0019992
1032.04	0.0017492
1041.68	0.0017692
1051.33	0.0016892
1060.97	0.0018292
1070.62	0.0022892
1080.26	0.0027792
1089.91	0.0020992
1099.55	0.0019092
1109.2	0.0018792
1118.84	0.0012892
1128.49	0.001057
1138.13	0.0005733
1147.78	0.0007214
1157.42	0.0006663
1167.07	0.0005463
1176.71	0.0007539
1186.36	0.0003663
1196	0.0003054
1205.64	0.0002065
1215.29	0.0005822
1224.93	0.0005901
1234.58	0.0005767
1244.22	0.0005801
1253.87	0.0003174
1263.51	0
1273.16	0.000495
1282.8	0.0005832
1292.45	0.0009943
1302.09	0.0017192
1311.74	0.0016892
1321.38	0.0016992
1331.03	0.0010339
1340.67	0.0007129
1350.32	0.000792
1359.96	0.0008439
1369.61	0.0010047
1379.25	0.0012192
1388.9	0.0015492
1398.54	0.0018092
1408.18	0.0020892
1417.83	0.0022892
1427.47	0.0029092
1437.12	0.0040392
1446.76	0.0051092
1456.41	0.0060592
1466.05	0.0057092
1475.7	0.0050492
1485.34	0.0039892
1494.99	0.0027492
1504.63	0.0019692
1514.28	0.0013792
1523.92	0.001033
1533.57	0.0008912
1543.21	0.0006749
1552.86	0.0006052
1562.5	0.0006125
1572.15	0.0004738
1581.79	0.0007391
1591.44	0.0009581
1601.08	0.0015792
1610.73	0.0028192
1620.37	0.0034792
1630.01	0.0031692
1639.66	0.0021692
1649.3	0.0010992
1658.95	0.0011492
1668.59	0.0014892
1678.24	0.0017692
1687.88	0.0019792
1697.53	0.0019492
1707.17	0.0015292
1716.82	0.0010218
1726.46	0.0007575
1736.11	0.0006266
1745.75	0.0004778
1755.4	0.0004944
1765.04	0.0005193
1774.69	0.0004166
1784.33	0.0004194
1793.98	0.0003838
1803.62	0.0004056
1813.27	0.0004205
1822.91	0.0003432
1832.55	0.0002758
1842.2	0.0002714
1851.84	0.0002566
1861.49	0.0002808
1871.13	0.0002929
1880.78	0.0003189
1890.42	0.00027
1900.07	0.0003367
1909.71	0.0004193
1919.36	0.0004294
1929	0.0003944
1938.65	0.0003181
1948.29	0.0003113
1957.94	0.000287
1967.58	0.0002705
1977.23	0.000303
1986.87	0.0002896
1996.52	0.0003137
2006.16	0.0003866
2015.81	0.0004104
2025.45	0.0005027
2035.1	0.0003889
2044.74	0.0004227
2054.38	0.0002442
2064.03	0.0002818
2073.67	0.0002842
2083.32	0.0002737
2092.96	0.0002124
2102.61	0.0002531
2112.25	0.0002304
2121.9	0.0002141
2131.54	0.0002969
2141.19	0.0002445
2150.83	0.0002594
2160.48	0.0002474
2170.12	0.0002507
2179.77	0.0003338
2189.41	0.0002781
2199.06	0.0005361
2208.7	0.0014592
2218.35	0.0023492
2227.99	0.0024492
2237.64	0.0020292
2247.28	0.0007513
2256.92	0.0004085
2266.57	0.0003136
2276.21	0.0002472
2285.86	0.0002137
2295.5	0.0002809
2305.15	0.0002462
2314.79	0.0003358
2324.44	0.0003488
2334.08	0.0003321
2343.73	0.0003097
2353.37	0.000299
2363.02	0.00027
2372.66	0.0002781
2382.31	0.0002629
2391.95	0.000312
2401.6	0.0002577
2411.24	0.0003416
2420.89	0.0003248
2430.53	0.000282
2440.18	0.0003387
2449.82	0.0003112
2459.47	0.0003234
2469.11	0.0003331
2478.75	0.0002987
2488.4	0.0002676
2498.04	0.0002511
2507.69	0.0002554
2517.33	0.0002281
2526.98	0.0001879
2536.62	0.000305
2546.27	0.0003163
2555.91	0.0002948
2565.56	0.000327
2575.2	0.0004006
2584.85	0.0002883
2594.49	0.0003318
2604.14	0.0002523
2613.78	0.0002736
2623.43	0.0002977
2633.07	0.0003041
2642.72	0.000276
2652.36	0.0001847
2662.01	0.0002407
2671.65	0.0001848
2681.29	0.0002696
2690.94	0.000282
2700.58	0.0002294
2710.23	0.0002235
2719.87	0.0002297
2729.52	0.0004706
2739.16	0.0005144
2748.81	0.000725
2758.45	0.0008583
2768.1	0.0006525
2777.74	0.0006674
2787.39	0.0008269
2797.03	0.0008614
2806.68	0.0009889
2816.32	0.0012592
2825.97	0.0015192
2835.61	0.0019092
2845.26	0.0024892
2854.9	0.0032192
2864.55	0.0045192
2874.19	0.0066892
2883.84	0.0095292
2893.48	0.0105392
2903.12	0.0109992
2912.77	0.0100792
2922.41	0.0098792
2932.06	0.0116992
2941.7	0.0139192
2951.35	0.0154992
2960.99	0.0177392
2970.64	0.0209492
2980.28	0.0231092
2989.93	0.0214992
2999.57	0.0149692
3009.22	0.0086492
3018.86	0.0065092
3028.51	0.0065092
3038.15	0.0063692
3047.8	0.0060692
3057.44	0.0047592
3067.09	0.0029592
3076.73	0.0018092
3086.38	0.0014892
3096.02	0.0011692
3105.67	0.0012292
3115.31	0.0009792
3124.95	0.0011092
3134.6	0.0010262
3144.24	0.0009821
3153.89	0.0008334
3163.53	0.000835
3173.18	0.0010992
3182.82	0.0009695
3192.47	0.0008272
3202.11	0.0007487
3211.76	0.0007971
3221.4	0.0004532
3231.05	0.0006064
3240.69	0.0006705
3250.34	0.0005647
3259.98	0.000411
3269.63	0.0003709
3279.27	0.0005831
3288.92	0.0003078
3298.56	0.0003822
3308.21	0.0005706
3317.85	0.0005208
3327.49	0.0004759
3337.14	0.0005079
3346.78	0.0004854
3356.43	0.0005663
3366.07	0.0004469
3375.72	0.000496
3385.36	0.0004748
3395.01	0.0004295
3404.65	0.0004833
3414.3	0.0005484
3423.94	0.0006136
3433.59	0.0005067
3443.23	0.0004708
3452.88	0.0006417
3462.52	0.0005263
3472.17	0.0005488
3481.81	0.0005327
3491.46	0.0006033
3501.1	0.0006045
3510.75	0.0006897
3520.39	0.0004686
3530.04	0.0005787
3539.68	0.000505
3549.32	0.0004726
3558.97	0.0006183
3568.61	0.0005556
3578.26	0.0004975
3587.9	0.0004982
3597.55	0.0004798
3607.19	0.0007364
3616.84	0.0005932
3626.48	0.0005028
3636.13	0.0005614
3645.77	0.0004158
3655.42	0.0003997
3665.06	0.0003255
3674.71	0.0004972
3684.35	0.0004834
3694	0.0006659
3703.64	0.0009647
3713.29	0.0004966
3722.93	0.0007253
3732.58	0.0006014
3742.22	0.0007427
3751.86	0.0006991
3761.51	0.0007353
3771.15	0.0005987
3780.8	0.000559
3790.44	0.0006662
3800.09	0.0006574
3809.73	0.0007848
3819.38	0.0008495
3829.02	0.0008542
3838.67	0.0006229
3848.31	0.00079
3857.96	0.0004846
3867.6	0.0005467
3877.25	0.0004307
3886.89	0.000707
3896.54	0.0007228
3906.18	0.0005734
3915.83	0.0008497
3925.47	0.0008272
3935.12	0.0005751
3944.76	0.0006149
3954.41	0.0004539
3964.05	0.000674
3973.69	0.0008022
3983.34	0.0007634
3992.98	0.0005266
