Infrared Spectrum: M-CRESOL, 4,4'-BUTYLIDENE BIS(6-(1-METHYLCYCLOHEXYL))-
Formula: C32 H46 O2
CAS: 26292-67-1
State: SOLID (KBr PELLET)
Class: COBLENTZ
Instrument: Not specified, most likely a prism, grating, or hybrid spectrometer.
Sampling: TRANSMISSION
Resolution: 4
Origin: TENNESSEE EASTMAN COMPANY, RESEARCH LABORATORIES
MICROMETERS	TRANSMITTANCE
2.027	0.948
2.06803	0.943
2.10906	0.934
2.1501	0.931
2.19113	0.929
2.23216	0.929
2.27319	0.91
2.31423	0.903
2.35526	0.903
2.39629	0.903
2.43732	0.905
2.47836	0.905
2.51939	0.905
2.56042	0.905
2.60145	0.907
2.64249	0.907
2.68352	0.907
2.72455	0.846
2.76558	0.647
2.80662	0.481
2.84765	0.285
2.88868	0.208
2.92971	0.216
2.97075	0.277
3.01178	0.359
3.05281	0.457
3.09384	0.555
3.13488	0.643
3.17591	0.722
3.21694	0.784
3.25797	0.807
3.299	0.805
3.34004	0.6
3.38107	0.223
3.4221	0.067
3.46313	0.309
3.50417	0.17
3.5452	0.791
3.58623	0.833
3.62726	0.864
3.6683	0.872
3.70933	0.876
3.75036	0.889
3.79139	0.877
3.83243	0.895
3.87346	0.917
3.91449	0.931
3.95552	0.941
3.99656	0.946
4.03759	0.95
4.07862	0.95
4.11965	0.95
4.16069	0.95
4.20172	0.951
4.24275	0.962
4.28378	0.963
4.32482	0.965
4.36585	0.967
4.40688	0.974
4.44791	0.975
4.48895	0.974
4.52998	0.974
4.57101	0.977
4.61204	0.977
4.65307	0.977
4.69411	0.977
4.73514	0.977
4.77617	0.977
4.8172	0.979
4.85824	0.977
4.89927	0.975
4.9403	0.974
4.98133	0.974
5.02237	0.977
5.0634	0.975
5.10443	0.977
5.14546	0.977
5.1865	0.975
5.22753	0.975
5.26856	0.975
5.30959	0.975
5.35063	0.977
5.39166	0.979
5.43269	0.979
5.47372	0.977
5.51476	0.974
5.55579	0.974
5.59682	0.972
5.63785	0.97
5.67889	0.963
5.71992	0.948
5.76095	0.938
5.80198	0.925
5.84301	0.91
5.88405	0.908
5.92508	0.908
5.96611	0.889
6.00714	0.865
6.04818	0.829
6.08921	0.759
6.13024	0.714
6.17127	0.638
6.21231	0.597
6.25334	0.774
6.29437	0.824
6.3354	0.784
6.37644	0.808
6.41747	0.848
6.4585	0.858
6.49953	0.829
6.54057	0.728
6.5816	0.445
6.62263	0.363
6.66366	0.657
6.7047	0.759
6.74573	0.654
6.78676	0.358
6.82779	0.339
6.86883	0.22
6.90986	0.327
6.95089	0.617
6.99192	0.672
7.03296	0.595
7.07399	0.404
7.11502	0.192
7.15605	0.294
7.19708	0.633
7.23812	0.504
7.27915	0.39
7.32018	0.65
7.36121	0.709
7.40225	0.671
7.44328	0.671
7.48431	0.707
7.52534	0.703
7.56638	0.7
7.60741	0.635
7.64844	0.59
7.68947	0.593
7.73051	0.633
7.77154	0.562
7.81257	0.461
7.8536	0.358
7.89464	0.385
7.93567	0.473
7.9767	0.581
8.01773	0.635
8.05877	0.611
8.0998	0.55
8.14083	0.549
8.18186	0.571
8.2229	0.559
8.26393	0.497
8.30496	0.318
8.34599	0.447
8.38702	0.581
8.42806	0.487
8.46909	0.325
8.51012	0.211
8.55115	0.223
8.59219	0.33
8.63322	0.358
8.67425	0.399
8.71528	0.416
8.75632	0.483
8.79735	0.54
8.83838	0.564
8.87941	0.626
8.92045	0.66
8.96148	0.714
9.00251	0.721
9.04354	0.674
9.08458	0.69
9.12561	0.752
9.16664	0.762
9.20767	0.796
9.24871	0.822
9.28974	0.827
9.33077	0.833
9.3718	0.796
9.41284	0.76
9.45387	0.755
9.4949	0.762
9.53593	0.79
9.57697	0.791
9.618	0.776
9.65903	0.691
9.70006	0.612
9.74109	0.609
9.78213	0.659
9.82316	0.721
9.86419	0.74
9.90522	0.76
9.94626	0.784
9.98729	0.803
10.0283	0.802
10.0694	0.793
10.1104	0.814
10.1514	0.824
10.1925	0.824
10.2335	0.82
10.2745	0.802
10.3155	0.796
10.3566	0.764
10.3976	0.783
10.4386	0.853
10.4797	0.882
10.5207	0.893
10.5617	0.901
10.6028	0.905
10.6438	0.91
10.6848	0.908
10.7259	0.888
10.7669	0.839
10.8079	0.839
10.849	0.846
10.89	0.771
10.931	0.714
10.9721	0.721
11.0131	0.757
11.0541	0.788
11.0952	0.805
11.1362	0.814
11.1772	0.82
11.2183	0.814
11.2593	0.791
11.3003	0.793
11.3414	0.805
11.3824	0.807
11.4234	0.807
11.4645	0.803
11.5055	0.781
11.5465	0.714
11.5876	0.641
11.6286	0.6
11.6696	0.581
11.7107	0.562
11.7517	0.609
11.7927	0.678
11.8337	0.74
11.8748	0.784
11.9158	0.827
11.9568	0.862
11.9979	0.893
12.0389	0.905
12.0799	0.908
12.121	0.912
12.162	0.915
12.203	0.919
12.2441	0.919
12.2851	0.919
12.3261	0.913
12.3672	0.908
12.4082	0.91
12.4492	0.912
12.4903	0.913
12.5313	0.915
12.5723	0.913
12.6134	0.913
12.6544	0.913
12.6954	0.912
12.7365	0.912
12.7775	0.905
12.8185	0.905
12.8596	0.912
12.9006	0.912
12.9416	0.913
12.9827	0.915
13.0237	0.915
13.0647	0.915
13.1058	0.915
13.1468	0.915
13.1878	0.913
13.2289	0.903
13.2699	0.895
13.3109	0.889
13.3519	0.884
13.393	0.876
13.434	0.857
13.475	0.843
13.5161	0.817
13.5571	0.786
13.5981	0.755
13.6392	0.74
13.6802	0.738
13.7212	0.772
13.7623	0.807
13.8033	0.841
13.8443	0.874
13.8854	0.893
13.9264	0.907
13.9674	0.915
14.0085	0.92
14.0495	0.924
14.0905	0.927
14.1316	0.929
14.1726	0.932
14.2136	0.934
14.2547	0.934
14.2957	0.936
14.3367	0.934
14.3778	0.936
14.4188	0.934
14.4598	0.934
14.5009	0.934
14.5419	0.929
14.5829	0.925
14.624	0.919
14.665	0.917
14.706	0.919
14.747	0.917
14.7881	0.919
14.8291	0.922
14.8701	0.924
14.9112	0.924
14.9522	0.915
14.9932	0.903
15.0343	0.889
15.0753	0.891
15.1163	0.893
15.1574	0.891
15.1984	0.886
15.2394	0.874
15.2805	0.87
15.3215	0.867
15.3625	0.862
15.4036	0.855
15.4446	0.851
15.4856	0.846
15.5267	0.841
15.5677	0.836
15.6087	0.831
15.6498	0.826
15.6908	0.822
15.7318	0.81
15.7729	0.805
15.8139	0.8
15.8549	0.79
15.896	0.774
15.937	0.765
15.978	0.759
