Infrared Spectrum: M-CRESOL, 4,4'-METHYLENE BIS(6-(1,1,3,3-TETRAMETHYLBUTYL))-
Formula: C31 H48 O2
CAS: 26292-73-9
State: SOLID (KBr PELLET)
Class: COBLENTZ
Instrument: Not specified, most likely a prism, grating, or hybrid spectrometer.
Sampling: TRANSMISSION
Resolution: 4
Origin: TENNESSEE EASTMAN COMPANY, RESEARCH LABORATORIES
MICROMETERS	TRANSMITTANCE
2.048	0.764
2.0891	0.76
2.13019	0.764
2.17129	0.765
2.21238	0.77
2.25348	0.77
2.29457	0.77
2.33567	0.772
2.37676	0.779
2.41786	0.782
2.45896	0.784
2.50005	0.793
2.54115	0.798
2.58224	0.8
2.62334	0.801
2.66443	0.803
2.70553	0.798
2.74662	0.695
2.78772	0.427
2.82882	0.181
2.86991	0.27
2.91101	0.247
2.9521	0.147
2.9932	0.295
3.03429	0.463
3.07539	0.576
3.11648	0.639
3.15758	0.707
3.19868	0.748
3.23977	0.784
3.28087	0.781
3.32196	0.565
3.36306	0.117
3.40415	0.177
3.44525	0.222
3.48635	0.476
3.52744	0.719
3.56854	0.805
3.60963	0.834
3.65073	0.841
3.69182	0.841
3.73292	0.844
3.77401	0.854
3.81511	0.871
3.85621	0.88
3.8973	0.883
3.9384	0.885
3.97949	0.887
4.02059	0.895
4.06168	0.895
4.10278	0.895
4.14387	0.9
4.18497	0.907
4.22607	0.912
4.26716	0.912
4.30826	0.905
4.34935	0.912
4.39045	0.923
4.43154	0.933
4.47264	0.941
4.51373	0.948
4.55483	0.952
4.59593	0.952
4.63702	0.953
4.67812	0.953
4.71921	0.955
4.76031	0.957
4.8014	0.957
4.8425	0.957
4.88359	0.958
4.92469	0.96
4.96579	0.96
5.00688	0.96
5.04798	0.957
5.08907	0.94
5.13017	0.935
5.17126	0.94
5.21236	0.948
5.25345	0.957
5.29455	0.957
5.33565	0.958
5.37674	0.964
5.41784	0.965
5.45893	0.965
5.50003	0.967
5.54112	0.965
5.58222	0.965
5.62332	0.96
5.66441	0.953
5.70551	0.94
5.7466	0.921
5.7877	0.909
5.82879	0.904
5.86989	0.904
5.91098	0.905
5.95208	0.907
5.99318	0.9
6.03427	0.861
6.07537	0.796
6.11646	0.757
6.15756	0.68
6.19865	0.511
6.23975	0.629
6.28084	0.806
6.32194	0.776
6.36304	0.825
6.40413	0.851
6.44523	0.856
6.48632	0.827
6.52742	0.752
6.56851	0.509
6.60961	0.634
6.6507	0.702
6.6918	0.514
6.7329	0.417
6.77399	0.456
6.81509	0.466
6.85618	0.406
6.89728	0.384
6.93837	0.458
6.97947	0.478
7.02056	0.369
7.06166	0.164
7.10276	0.17
7.14385	0.347
7.18495	0.451
7.22604	0.492
7.26714	0.581
7.30823	0.372
7.34933	0.442
7.39042	0.654
7.43152	0.663
7.47262	0.736
7.51371	0.762
7.55481	0.758
7.5959	0.758
7.637	0.673
7.67809	0.447
7.71919	0.487
7.76028	0.685
7.80138	0.709
7.84248	0.63
7.88357	0.635
7.92467	0.622
7.96576	0.389
8.00686	0.471
8.04795	0.588
8.08905	0.6
8.13015	0.495
8.17124	0.406
8.21234	0.295
8.25343	0.247
8.29453	0.29
8.33562	0.415
8.37672	0.417
8.41781	0.417
8.45891	0.576
8.50001	0.651
8.5411	0.644
8.5822	0.635
8.62329	0.589
8.66439	0.558
8.70548	0.634
8.74658	0.651
8.78767	0.519
8.82877	0.613
8.86987	0.74
8.91096	0.77
8.95206	0.753
8.99315	0.811
9.03425	0.849
9.07534	0.863
9.11644	0.871
9.15753	0.875
9.19863	0.868
9.23973	0.782
9.28082	0.805
9.32192	0.856
9.36301	0.87
9.40411	0.876
9.4452	0.868
9.4863	0.818
9.52739	0.726
9.56849	0.641
9.60959	0.652
9.65068	0.712
9.69178	0.76
9.73287	0.808
9.77397	0.832
9.81506	0.83
9.85616	0.791
9.89725	0.755
9.93835	0.784
9.97945	0.835
10.0205	0.863
10.0616	0.873
10.1027	0.876
10.1438	0.866
10.1849	0.808
10.226	0.811
10.2671	0.851
10.3082	0.871
10.3493	0.88
10.3904	0.852
10.4315	0.794
10.4726	0.789
10.5137	0.825
10.5548	0.835
10.5959	0.83
10.637	0.827
10.6781	0.835
10.7192	0.774
10.7603	0.793
10.8014	0.829
10.8425	0.81
10.8835	0.822
10.9246	0.823
10.9657	0.83
11.0068	0.852
11.0479	0.852
11.089	0.76
11.1301	0.733
11.1712	0.822
11.2123	0.846
11.2534	0.789
11.2945	0.721
11.3356	0.793
11.3767	0.841
11.4178	0.849
11.4589	0.822
11.5	0.793
11.5411	0.7
11.5822	0.555
11.6233	0.499
11.6644	0.473
11.7055	0.569
11.7466	0.699
11.7877	0.748
11.8287	0.782
11.8698	0.788
11.9109	0.805
11.952	0.834
11.9931	0.846
12.0342	0.859
12.0753	0.834
12.1164	0.736
12.1575	0.661
12.1986	0.712
12.2397	0.731
12.2808	0.682
12.3219	0.572
12.363	0.613
12.4041	0.8
12.4452	0.851
12.4863	0.88
12.5274	0.892
12.5685	0.894
12.6096	0.883
12.6507	0.875
12.6918	0.89
12.7328	0.9
12.7739	0.905
12.815	0.911
12.8561	0.909
12.8972	0.909
12.9383	0.907
12.9794	0.905
13.0205	0.904
13.0616	0.904
13.1027	0.905
13.1438	0.899
13.1849	0.882
13.226	0.873
13.2671	0.868
13.3082	0.854
13.3493	0.854
13.3904	0.858
13.4315	0.854
13.4726	0.818
13.5137	0.774
13.5548	0.76
13.5959	0.789
13.637	0.83
13.678	0.854
13.7191	0.868
13.7602	0.873
13.8013	0.875
13.8424	0.875
13.8835	0.875
13.9246	0.875
13.9657	0.875
14.0068	0.875
14.0479	0.873
14.089	0.873
14.1301	0.871
14.1712	0.871
14.2123	0.861
14.2534	0.856
14.2945	0.854
14.3356	0.851
14.3767	0.847
14.4178	0.839
14.4589	0.83
14.5	0.83
14.5411	0.827
14.5822	0.817
14.6232	0.813
14.6643	0.811
14.7054	0.805
14.7465	0.798
14.7876	0.791
14.8287	0.788
14.8698	0.779
14.9109	0.772
14.952	0.76
14.9931	0.748
15.0342	0.736
15.0753	0.729
15.1164	0.729
15.1575	0.729
15.1986	0.726
15.2397	0.723
15.2808	0.719
15.3219	0.716
15.363	0.712
15.4041	0.709
15.4452	0.709
15.4863	0.702
15.5273	0.7
15.5684	0.699
15.6095	0.685
15.6506	0.68
15.6917	0.673
15.7328	0.661
15.7739	0.651
15.815	0.649
15.8561	0.647
15.8972	0.646
15.9383	0.644
15.9794	0.644
