Infrared Spectrum: M-CRESOL, 4,4'-ETHYLIDENE BIS(6-(1-METHYLCYCLOHEXYL))-
Formula: C30 H42 O2
CAS: 26292-65-9
State: SOLID (KBr PELLET)
Class: COBLENTZ
Instrument: Not specified, most likely a prism, grating, or hybrid spectrometer.
Sampling: TRANSMISSION
Resolution: 4
Origin: TENNESSEE EASTMAN COMPANY, RESEARCH LABORATORIES
MICROMETERS	TRANSMITTANCE
2.034	0.955
2.07507	0.958
2.11614	0.96
2.15722	0.962
2.19829	0.967
2.23936	0.969
2.28043	0.96
2.3215	0.944
2.36258	0.944
2.40365	0.95
2.44472	0.951
2.48579	0.951
2.52686	0.951
2.56793	0.951
2.60901	0.951
2.65008	0.951
2.69115	0.951
2.73222	0.867
2.77329	0.595
2.81437	0.333
2.85544	0.165
2.89651	0.099
2.93758	0.134
2.97865	0.197
3.01973	0.296
3.0608	0.402
3.10187	0.499
3.14294	0.604
3.18401	0.719
3.22509	0.779
3.26616	0.82
3.30723	0.82
3.3483	0.566
3.38937	0.08
3.43044	0.053
3.47152	0.201
3.51259	0.179
3.55366	0.779
3.59473	0.839
3.6358	0.908
3.67688	0.91
3.71795	0.915
3.75902	0.924
3.80009	0.891
3.84116	0.92
3.88224	0.941
3.92331	0.953
3.96438	0.96
4.00545	0.962
4.04652	0.96
4.08759	0.956
4.12867	0.953
4.16974	0.953
4.21081	0.962
4.25188	0.97
4.29295	0.972
4.33403	0.972
4.3751	0.977
4.41617	0.989
4.45724	0.989
4.49831	0.989
4.53939	0.989
4.58046	0.991
4.62153	0.989
4.6626	0.987
4.70367	0.986
4.74475	0.986
4.78582	0.982
4.82689	0.982
4.86796	0.981
4.90903	0.977
4.9501	0.977
4.99118	0.977
5.03225	0.979
5.07332	0.977
5.11439	0.977
5.15546	0.977
5.19654	0.977
5.23761	0.979
5.27868	0.981
5.31975	0.979
5.36082	0.982
5.4019	0.986
5.44297	0.986
5.48404	0.986
5.52511	0.979
5.56618	0.962
5.60726	0.958
5.64833	0.958
5.6894	0.95
5.73047	0.929
5.77154	0.907
5.81261	0.874
5.85369	0.833
5.89476	0.841
5.93583	0.853
5.9769	0.857
6.01797	0.826
6.05905	0.784
6.10012	0.69
6.14119	0.635
6.18226	0.509
6.22333	0.495
6.26441	0.707
6.30548	0.759
6.34655	0.695
6.38762	0.75
6.42869	0.807
6.46976	0.817
6.51084	0.762
6.55191	0.652
6.59298	0.253
6.63405	0.28
6.67512	0.571
6.7162	0.681
6.75727	0.526
6.79834	0.244
6.83941	0.223
6.88048	0.087
6.92156	0.192
6.96263	0.462
7.0037	0.53
7.04477	0.399
7.08584	0.187
7.12692	0.06
7.16799	0.237
7.20906	0.518
7.25013	0.335
7.2912	0.251
7.33227	0.473
7.37335	0.592
7.41442	0.545
7.45549	0.567
7.49656	0.593
7.53763	0.528
7.57871	0.562
7.61978	0.519
7.66085	0.435
7.70192	0.528
7.74299	0.6
7.78407	0.438
7.82514	0.259
7.86621	0.175
7.90728	0.218
7.94835	0.318
7.98943	0.309
8.0305	0.416
8.07157	0.378
8.11264	0.337
8.15371	0.352
8.19478	0.387
8.23586	0.373
8.27693	0.27
8.318	0.161
8.35907	0.38
8.40014	0.411
8.44122	0.258
8.48229	0.132
8.52336	0.072
8.56443	0.132
8.6055	0.187
8.64658	0.225
8.68765	0.254
8.72872	0.299
8.76979	0.352
8.81086	0.375
8.85194	0.349
8.89301	0.471
8.93408	0.53
8.97515	0.593
9.01622	0.626
9.05729	0.592
9.09837	0.619
9.13944	0.7
9.18051	0.716
9.22158	0.674
9.26265	0.524
9.30373	0.44
9.3448	0.449
9.38587	0.487
9.42694	0.602
9.46801	0.703
9.50909	0.714
9.55016	0.724
9.59123	0.731
9.6323	0.698
9.67337	0.643
9.71444	0.588
9.75552	0.554
9.79659	0.506
9.83766	0.521
9.87873	0.59
9.9198	0.621
9.96088	0.683
10.0019	0.736
10.043	0.74
10.0841	0.738
10.1252	0.75
10.1662	0.734
10.2073	0.733
10.2484	0.734
10.2895	0.714
10.3305	0.691
10.3716	0.633
10.4127	0.726
10.4537	0.802
10.4948	0.824
10.5359	0.841
10.577	0.851
10.618	0.857
10.6591	0.864
10.7002	0.862
10.7412	0.826
10.7823	0.788
10.8234	0.802
10.8645	0.836
10.9055	0.812
10.9466	0.714
10.9877	0.666
11.0287	0.605
11.0698	0.58
11.1109	0.58
11.152	0.695
11.193	0.733
11.2341	0.683
11.2752	0.624
11.3162	0.624
11.3573	0.688
11.3984	0.693
11.4395	0.702
11.4805	0.712
11.5216	0.659
11.5627	0.538
11.6038	0.404
11.6448	0.411
11.6859	0.419
11.727	0.419
11.768	0.464
11.8091	0.523
11.8502	0.607
11.8913	0.703
11.9323	0.764
11.9734	0.796
12.0145	0.8
12.0555	0.8
12.0966	0.808
12.1377	0.817
12.1788	0.824
12.2198	0.819
12.2609	0.803
12.302	0.802
12.343	0.802
12.3841	0.819
12.4252	0.836
12.4663	0.846
12.5073	0.853
12.5484	0.855
12.5895	0.853
12.6305	0.85
12.6716	0.831
12.7127	0.812
12.7538	0.812
12.7948	0.815
12.8359	0.833
12.877	0.836
12.9181	0.836
12.9591	0.834
13.0002	0.836
13.0413	0.838
13.0823	0.841
13.1234	0.843
13.1645	0.843
13.2056	0.841
13.2466	0.841
13.2877	0.834
13.3288	0.814
13.3698	0.808
13.4109	0.784
13.452	0.752
13.4931	0.709
13.5341	0.666
13.5752	0.617
13.6163	0.6
13.6573	0.629
13.6984	0.707
13.7395	0.76
13.7806	0.795
13.8216	0.808
13.8627	0.82
13.9038	0.827
13.9449	0.831
13.9859	0.836
14.027	0.838
14.0681	0.838
14.1091	0.838
14.1502	0.838
14.1913	0.838
14.2324	0.838
14.2734	0.838
14.3145	0.838
14.3556	0.838
14.3966	0.834
14.4377	0.834
14.4788	0.827
14.5199	0.824
14.5609	0.808
14.602	0.805
14.6431	0.788
14.6841	0.784
14.7252	0.784
14.7663	0.788
14.8074	0.793
14.8484	0.795
14.8895	0.8
14.9306	0.795
14.9716	0.783
15.0127	0.767
15.0538	0.759
15.0949	0.76
15.1359	0.76
15.177	0.759
15.2181	0.759
15.2592	0.757
15.3002	0.755
15.3413	0.752
15.3824	0.75
15.4234	0.75
15.4645	0.746
15.5056	0.738
15.5467	0.736
15.5877	0.736
15.6288	0.731
15.6699	0.724
15.7109	0.719
15.752	0.712
15.7931	0.693
15.8342	0.685
15.8752	0.674
15.9163	0.671
15.9574	0.669
