Infrared Spectrum: P-CRESOL, 2,2'-ETHYLIDENE BIS(6-(1-METHYLCYCLOHEXYL))-
Formula: C30 H42 O2
CAS: 26292-70-6
Class: COBLENTZ
Instrument: Not specified, most likely a prism, grating, or hybrid spectrometer.
Sampling: TRANSMISSION
Path length: SMEAR
Resolution: 4
Origin: TENNESSEE EASTMAN COMPANY, RESEARCH LABORATORIES
MICROMETERS	TRANSMITTANCE
2.062	0.977
2.10317	0.974
2.14433	0.97
2.1855	0.97
2.22667	0.969
2.26783	0.955
2.309	0.911
2.35017	0.907
2.39133	0.907
2.4325	0.909
2.47367	0.912
2.51483	0.912
2.556	0.919
2.59717	0.919
2.63833	0.921
2.6795	0.923
2.72066	0.924
2.76183	0.895
2.803	0.825
2.84416	0.694
2.88533	0.378
2.9265	0.496
2.96766	0.595
3.00883	0.679
3.05	0.737
3.09116	0.779
3.13233	0.822
3.1735	0.844
3.21466	0.856
3.25583	0.87
3.297	0.802
3.33816	0.587
3.37933	0.167
3.4205	0.058
3.46166	0.138
3.50283	0.11
3.544	0.479
3.58516	0.726
3.62633	0.791
3.6675	0.843
3.70866	0.841
3.74983	0.856
3.791	0.843
3.83216	0.841
3.87333	0.877
3.91449	0.889
3.95566	0.911
3.99683	0.918
4.03799	0.923
4.07916	0.921
4.12033	0.921
4.16149	0.923
4.20266	0.926
4.24383	0.928
4.28499	0.93
4.32616	0.931
4.36733	0.935
4.40849	0.948
4.44966	0.952
4.49083	0.953
4.53199	0.955
4.57316	0.959
4.61433	0.964
4.65549	0.969
4.69666	0.969
4.73783	0.969
4.77899	0.969
4.82016	0.969
4.86133	0.969
4.90249	0.97
4.94366	0.965
4.98483	0.957
5.02599	0.97
5.06716	0.969
5.10832	0.965
5.14949	0.967
5.19066	0.965
5.23182	0.967
5.27299	0.967
5.31416	0.967
5.35532	0.965
5.39649	0.962
5.43766	0.962
5.47882	0.964
5.51999	0.964
5.56116	0.953
5.60232	0.943
5.64349	0.933
5.68466	0.892
5.72582	0.846
5.76699	0.825
5.80816	0.848
5.84932	0.839
5.89049	0.853
5.93166	0.89
5.97282	0.909
6.01399	0.919
6.05516	0.921
6.09632	0.919
6.13749	0.918
6.17866	0.895
6.21982	0.798
6.26099	0.822
6.30215	0.843
6.34332	0.88
6.38449	0.895
6.42565	0.895
6.46682	0.889
6.50799	0.86
6.54915	0.812
6.59032	0.679
6.63149	0.58
6.67265	0.646
6.71382	0.59
6.75499	0.363
6.79615	0.121
6.83732	0.127
6.87849	0.11
6.91965	0.105
6.96082	0.295
7.00199	0.395
7.04315	0.404
7.08432	0.307
7.12549	0.255
7.16665	0.546
7.20782	0.607
7.24899	0.428
7.29015	0.324
7.33132	0.476
7.37249	0.551
7.41365	0.428
7.45482	0.517
7.49598	0.477
7.53715	0.412
7.57832	0.51
7.61948	0.532
7.66065	0.5
7.70182	0.513
7.74298	0.581
7.78415	0.568
7.82532	0.534
7.86648	0.517
7.90765	0.469
7.94882	0.423
7.98998	0.372
8.03115	0.266
8.07232	0.283
8.11348	0.196
8.15465	0.117
8.19582	0.25
8.23698	0.245
8.27815	0.274
8.31932	0.279
8.36048	0.353
8.40165	0.389
8.44282	0.278
8.48398	0.218
8.52515	0.235
8.56632	0.322
8.60748	0.399
8.64865	0.443
8.68981	0.431
8.73098	0.445
8.77215	0.424
8.81331	0.354
8.85448	0.36
8.89565	0.385
8.93681	0.298
8.97798	0.228
9.01915	0.267
9.06031	0.325
9.10148	0.366
9.14265	0.424
9.18381	0.433
9.22498	0.361
9.26615	0.315
9.30731	0.373
9.34848	0.457
9.38965	0.549
9.43081	0.658
9.47198	0.675
9.51315	0.65
9.55431	0.626
9.59548	0.595
9.63665	0.552
9.67781	0.59
9.71898	0.67
9.76015	0.687
9.80131	0.715
9.84248	0.733
9.88364	0.738
9.92481	0.726
9.96598	0.716
10.0071	0.716
10.0483	0.72
10.0895	0.726
10.1306	0.73
10.1718	0.72
10.213	0.687
10.2541	0.646
10.2953	0.598
10.3365	0.568
10.3776	0.559
10.4188	0.593
10.46	0.66
10.5011	0.697
10.5423	0.706
10.5835	0.675
10.6246	0.549
10.6658	0.395
10.707	0.426
10.7481	0.518
10.7893	0.593
10.8305	0.655
10.8716	0.689
10.9128	0.67
10.954	0.581
10.9951	0.445
11.0363	0.375
11.0775	0.453
11.1186	0.537
11.1598	0.61
11.201	0.672
11.2421	0.713
11.2833	0.73
11.3245	0.74
11.3656	0.742
11.4068	0.725
11.448	0.682
11.4891	0.619
11.5303	0.523
11.5715	0.378
11.6126	0.312
11.6538	0.331
11.695	0.39
11.7361	0.505
11.7773	0.633
11.8185	0.694
11.8596	0.742
11.9008	0.757
11.942	0.755
11.9831	0.752
12.0243	0.754
12.0655	0.761
12.1066	0.766
12.1478	0.769
12.189	0.762
12.2301	0.721
12.2713	0.687
12.3125	0.653
12.3536	0.645
12.3948	0.656
12.436	0.684
12.4771	0.715
12.5183	0.718
12.5595	0.648
12.6006	0.556
12.6418	0.493
12.683	0.517
12.7241	0.568
12.7653	0.619
12.8065	0.645
12.8476	0.648
12.8888	0.617
12.93	0.6
12.9711	0.556
13.0123	0.546
13.0535	0.578
13.0946	0.621
13.1358	0.651
13.177	0.684
13.2181	0.728
13.2593	0.754
13.3005	0.774
13.3416	0.784
13.3828	0.796
13.424	0.807
13.4651	0.812
13.5063	0.815
13.5475	0.817
13.5886	0.817
13.6298	0.817
13.671	0.817
13.7121	0.817
13.7533	0.817
13.7945	0.82
13.8356	0.822
13.8768	0.825
13.918	0.829
13.9591	0.832
14.0003	0.836
14.0415	0.836
14.0826	0.834
14.1238	0.824
14.165	0.815
14.2061	0.803
14.2473	0.8
14.2885	0.783
14.3296	0.764
14.3708	0.747
14.412	0.737
14.4531	0.732
14.4943	0.74
14.5355	0.755
14.5766	0.774
14.6178	0.784
14.659	0.788
14.7001	0.788
14.7413	0.791
14.7825	0.795
14.8236	0.795
14.8648	0.795
14.906	0.795
14.9471	0.791
14.9883	0.79
15.0295	0.788
15.0706	0.79
15.1118	0.79
15.153	0.783
15.1941	0.781
15.2353	0.779
15.2765	0.774
15.3176	0.762
15.3588	0.754
15.4	0.747
15.4411	0.742
15.4823	0.733
15.5235	0.725
15.5646	0.72
15.6058	0.72
15.647	0.72
15.6881	0.715
15.7293	0.713
15.7705	0.713
15.8116	0.706
15.8528	0.704
15.894	0.699
15.9351	0.694
15.9763	0.692
