Infrared Spectrum: N,N-DICHLORO-CYCLOHEXYLAMINE
Formula: C6 H11 Cl2 N
CAS: 26307-01-7
State: LIQUID
Class: COBLENTZ
Instrument: Not specified, most likely a grating spectrometer.
Sampling: TRANSMISSION
Path length: 0.0034 CM
Resolution: 4
Origin: US INDUSTRIAL CHEMICALS COMPANY, CINCINNATI, OHIO
MICROMETERS	TRANSMITTANCE
0.993	0.966
1.03304	0.966
1.07307	0.967
1.11311	0.967
1.15315	0.967
1.19318	0.966
1.23322	0.966
1.27326	0.967
1.31329	0.969
1.35333	0.97
1.39337	0.967
1.4334	0.969
1.47344	0.969
1.51348	0.97
1.55351	0.97
1.59355	0.959
1.63359	0.953
1.67362	0.958
1.71366	0.966
1.7537	0.969
1.79373	0.969
1.83377	0.969
1.87381	0.969
1.91384	0.975
1.95388	0.975
1.99392	0.977
2.03395	0.974
2.07399	0.971
2.11402	0.974
2.15406	0.979
2.1941	0.977
2.23413	0.971
2.27417	0.939
2.31421	0.924
2.35424	0.912
2.39428	0.93
2.43432	0.931
2.47435	0.939
2.51439	0.942
2.55443	0.95
2.59446	0.963
2.6345	0.955
2.67454	0.959
2.71457	0.962
2.75461	0.967
2.79465	0.949
2.83468	0.936
2.87472	0.957
2.91476	0.965
2.95479	0.954
2.99483	0.963
3.03487	0.971
3.0749	0.97
3.11494	0.966
3.15498	0.969
3.19501	0.954
3.23505	0.961
3.27509	0.939
3.31512	0.9
3.35516	0.81
3.3952	0.302
3.43523	0.004
3.47527	0.123
3.51531	0.088
3.55534	0.497
3.59538	0.789
3.63542	0.907
3.67545	0.935
3.71549	0.906
3.75553	0.863
3.79556	0.825
3.8356	0.922
3.87564	0.918
3.91567	0.942
3.95571	0.965
3.99575	0.951
4.03578	0.957
4.07582	0.95
4.11586	0.966
4.15589	0.951
4.19593	0.953
4.23597	0.955
4.276	0.957
4.31604	0.961
4.35607	0.959
4.39611	0.946
4.43615	0.949
4.47618	0.939
4.51622	0.949
4.55626	0.959
4.59629	0.95
4.63633	0.959
4.67637	0.961
4.7164	0.955
4.75644	0.969
4.79648	0.969
4.83651	0.967
4.87655	0.965
4.91659	0.963
4.95662	0.969
4.99666	0.971
5.0367	0.965
5.07673	0.963
5.11677	0.947
5.15681	0.95
5.19684	0.961
5.23688	0.967
5.27692	0.967
5.31695	0.963
5.35699	0.966
5.39703	0.962
5.43706	0.959
5.4771	0.963
5.51714	0.957
5.55717	0.959
5.59721	0.965
5.63725	0.963
5.67728	0.959
5.71732	0.941
5.75736	0.904
5.79739	0.892
5.83743	0.868
5.87747	0.9
5.9175	0.951
5.95754	0.958
5.99758	0.958
6.03761	0.97
6.07765	0.966
6.11769	0.97
6.15772	0.959
6.19776	0.958
6.2378	0.958
6.27783	0.963
6.31787	0.958
6.35791	0.951
6.39794	0.953
6.43798	0.954
6.47802	0.954
6.51805	0.946
6.55809	0.936
6.59813	0.932
6.63816	0.92
6.6782	0.896
6.71823	0.864
6.75827	0.824
6.79831	0.752
6.83834	0.525
6.87838	0.323
6.91842	0.005
6.95845	0.233
6.99849	0.64
7.03853	0.785
7.07856	0.844
7.1186	0.882
7.15864	0.891
7.19867	0.869
7.23871	0.829
7.27875	0.774
7.31878	0.68
7.35882	0.371
7.39886	0.466
7.43889	0.269
7.47893	0.39
7.51897	0.589
7.559	0.746
7.59904	0.672
7.63908	0.6
7.67911	0.453
7.71915	0.491
7.75919	0.743
7.79922	0.82
7.83926	0.824
7.8793	0.752
7.91933	0.541
7.95937	0.481
7.99941	0.702
8.03944	0.772
8.07948	0.654
8.11952	0.777
8.15955	0.848
8.19959	0.871
8.23963	0.894
8.27966	0.906
8.3197	0.91
8.35974	0.896
8.39977	0.855
8.43981	0.636
8.47985	0.752
8.51988	0.902
8.55992	0.919
8.59996	0.92
8.63999	0.912
8.68003	0.89
8.72007	0.79
8.7601	0.721
8.80014	0.852
8.84018	0.9
8.88021	0.891
8.92025	0.843
8.96028	0.871
9.00032	0.89
9.04036	0.906
9.08039	0.908
9.12043	0.9
9.16047	0.884
9.2005	0.832
9.24054	0.757
9.28058	0.824
9.32061	0.806
9.36065	0.856
9.40069	0.869
9.44072	0.84
9.48076	0.706
9.5208	0.757
9.56083	0.805
9.60087	0.761
9.64091	0.591
9.68094	0.365
9.72098	0.441
9.76102	0.49
9.80105	0.423
9.84109	0.376
9.88113	0.395
9.92116	0.481
9.9612	0.642
10.0012	0.772
10.0413	0.849
10.0813	0.883
10.1213	0.899
10.1614	0.908
10.2014	0.919
10.2415	0.922
10.2815	0.923
10.3215	0.922
10.3616	0.92
10.4016	0.922
10.4416	0.923
10.4817	0.923
10.5217	0.919
10.5617	0.912
10.6018	0.9
10.6418	0.871
10.6819	0.792
10.7219	0.71
10.7619	0.702
10.802	0.706
10.842	0.714
10.882	0.723
10.9221	0.752
10.9621	0.781
11.0022	0.802
11.0422	0.804
11.0822	0.774
11.1223	0.623
11.1623	0.344
11.2023	0.455
11.2424	0.615
11.2824	0.592
11.3224	0.76
11.3625	0.86
11.4025	0.89
11.4426	0.903
11.4826	0.898
11.5226	0.88
11.5627	0.883
11.6027	0.904
11.6427	0.911
11.6828	0.914
11.7228	0.91
11.7628	0.88
11.8029	0.79
11.8429	0.776
11.883	0.715
11.923	0.762
11.963	0.88
12.0031	0.908
12.0431	0.918
12.0831	0.92
12.1232	0.916
12.1632	0.911
12.2033	0.908
12.2433	0.912
12.2833	0.912
12.3234	0.912
12.3634	0.91
12.4034	0.904
12.4435	0.902
12.4835	0.894
12.5235	0.879
12.5636	0.864
12.6036	0.853
12.6437	0.831
12.6837	0.82
12.7237	0.84
12.7638	0.875
12.8038	0.898
12.8438	0.903
12.8839	0.907
12.9239	0.904
12.9639	0.906
13.004	0.906
13.044	0.907
13.0841	0.907
13.1241	0.911
13.1641	0.911
13.2042	0.907
13.2442	0.904
13.2842	0.899
13.3243	0.892
13.3643	0.888
13.4043	0.89
13.4444	0.89
13.4844	0.888
13.5245	0.883
13.5645	0.879
13.6045	0.872
13.6446	0.865
13.6846	0.859
13.7246	0.849
13.7647	0.844
13.8047	0.839
13.8448	0.829
13.8848	0.82
13.9248	0.792
13.9649	0.76
14.0049	0.714
14.0449	0.672
14.085	0.63
14.125	0.591
14.165	0.533
14.2051	0.442
14.2451	0.349
14.2852	0.223
14.3252	0.135
14.3652	0.05
14.4053	0.008
14.4453	0.005
14.4853	0.03
14.5254	0.083
14.5654	0.14
14.6054	0.201
14.6455	0.26
14.6855	0.298
14.7256	0.319
14.7656	0.34
14.8056	0.369
14.8457	0.412
14.8857	0.475
14.9257	0.502
14.9658	0.524
15.0058	0.505
15.0458	0.513
15.0859	0.55
15.1259	0.616
15.166	0.693
15.206	0.721
15.246	0.738
15.2861	0.75
15.3261	0.756
15.3661	0.757
15.4062	0.754
15.4462	0.752
15.4863	0.735
15.5263	0.723
15.5663	0.705
15.6064	0.689
15.6464	0.684
15.6864	0.69
15.7265	0.719
15.7665	0.747
15.8065	0.786
15.8466	0.82
15.8866	0.86
15.9267	0.915
