Infrared Spectrum: Ketone, 1,3-dimethyl-4-nitro-pyrazol-5-yl phenyl,
Formula: C12 H11 N3 O3
CAS: 26308-46-3
State: SOLUTION 7% (CHCl3 FOR 2.5-15 microns)
Class: COBLENTZ
Instrument: PERKIN-ELMER 421 (GRATING)
Instrument parameters: GRATING CHANGE AT 1999 CM^-^
Path length: 0.01 CM
Resolution: 2
Origin: ABBOTT LABORATORIES
1/CM	TRANSMITTANCE
726.08	0.8074
735.088	0.8051
744.096	0.8051
753.104	0.8052
762.112	0.8004
771.12	0.794
780.128	0.7875
789.136	0.781
798.144	0.7862
807.152	0.8683
816.16	0.8719
825.168	0.8656
834.176	0.8569
843.184	0.8468
852.192	0.8211
861.2	0.7327
870.208	0.6287
879.216	0.5873
888.224	0.7194
897.232	0.7733
906.24	0.6309
915.248	0.522
924.256	0.5913
933.265	0.634
942.273	0.8374
951.281	0.8604
960.289	0.8547
969.297	0.8433
978.305	0.8389
987.313	0.8067
996.321	0.8014
1005.33	0.84
1014.34	0.8292
1023.34	0.8323
1032.35	0.8428
1041.36	0.8624
1050.37	0.8643
1059.38	0.8579
1068.38	0.8599
1077.39	0.8569
1086.4	0.8161
1095.41	0.7621
1104.42	0.728
1113.42	0.7266
1122.43	0.7562
1131.44	0.7562
1140.45	0.7531
1149.46	0.6486
1158.47	0.558
1167.47	0.6925
1176.48	0.7073
1185.49	0.6874
1194.5	0.6413
1203.51	0.5953
1212.51	0.5493
1221.52	0.5033
1230.53	0.4573
1239.54	0.4098
1248.55	0.3014
1257.55	0.1825
1266.56	0.1683
1275.57	0.6082
1284.58	0.7234
1293.59	0.7182
1302.59	0.5934
1311.6	0.6643
1320.61	0.7092
1329.62	0.614
1338.63	0.5183
1347.63	0.2978
1356.64	0.0866
1365.65	0.4978
1374.66	0.2219
1383.67	0.5355
1392.67	0.6216
1401.68	0.4526
1410.69	0.4885
1419.7	0.6401
1428.71	0.5823
1437.71	0.4955
1446.72	0.2576
1455.73	0.141
1464.74	0.4017
1473.75	0.4059
1482.75	0.2005
1491.76	0.0806
1500.77	0.128
1509.78	0.4016
1518.79	0.5892
1527.79	0.5983
1536.8	0.5607
1545.81	0.4448
1554.82	0.4328
1563.83	0.6053
1572.83	0.5928
1581.84	0.6201
1590.85	0.4832
1599.86	0.7367
1608.87	0.8084
1617.87	0.8032
1626.88	0.7693
1635.89	0.6923
1644.9	0.5683
1653.91	0.4507
1662.91	0.1586
1671.92	0.1453
1680.93	0.4111
1689.94	0.8033
1698.95	0.8377
1707.95	0.8573
1716.96	0.8703
1725.97	0.8799
1734.98	0.8827
1743.99	0.8808
1752.99	0.8802
1762	0.8794
1771.01	0.8806
1780.02	0.8845
1789.03	0.8862
1798.03	0.881
1807.04	0.8792
1816.05	0.8926
1825.06	0.8942
1834.07	0.8943
1843.07	0.8945
1852.08	0.895
1861.09	0.8948
1870.1	0.8938
1879.11	0.8916
1888.11	0.8872
1897.12	0.8841
1906.13	0.8873
1915.14	0.893
1924.15	0.8966
1933.15	0.8953
1942.16	0.8928
1951.17	0.8889
1960.18	0.8883
1969.19	0.8926
1978.2	0.8905
1987.2	0.8923
1996.21	0.8984
2005.22	0.898
2014.23	0.896
2023.24	0.8974
2032.24	0.8989
2041.25	0.8991
2050.26	0.8984
2059.27	0.8971
2068.28	0.8985
2077.28	0.9025
2086.29	0.9035
2095.3	0.9032
2104.31	0.903
2113.32	0.9021
2122.32	0.9013
2131.33	0.9013
2140.34	0.9014
2149.35	0.9016
2158.36	0.9014
2167.36	0.9009
2176.37	0.9003
2185.38	0.9009
2194.39	0.9016
2203.4	0.902
2212.4	0.9019
2221.41	0.9017
2230.42	0.9004
2239.43	0.8988
2248.44	0.8965
2257.44	0.8931
2266.45	0.8982
2275.46	0.8997
2284.47	0.8997
2293.48	0.8993
2302.48	0.8989
2311.49	0.8988
2320.5	0.8988
2329.51	0.8982
2338.52	0.897
2347.52	0.8947
2356.53	0.8919
2365.54	0.8903
2374.55	0.8899
2383.56	0.889
2392.56	0.8865
2401.57	0.8813
2410.58	0.8785
2419.59	0.8787
2428.6	0.8792
2437.6	0.8807
2446.61	0.8819
2455.62	0.882
2464.63	0.8821
2473.64	0.8814
2482.64	0.88
2491.65	0.8783
2500.66	0.8765
2509.67	0.8765
2518.68	0.8778
2527.68	0.8795
2536.69	0.8815
2545.7	0.8832
2554.71	0.8827
2563.72	0.8817
2572.72	0.8807
2581.73	0.8797
2590.74	0.8792
2599.75	0.8787
2608.76	0.8791
2617.76	0.8811
2626.77	0.8833
2635.78	0.8855
2644.79	0.886
2653.8	0.8866
2662.8	0.8874
2671.81	0.8885
2680.82	0.8902
2689.83	0.8906
2698.84	0.8887
2707.84	0.885
2716.85	0.8808
2725.86	0.8788
2734.87	0.8788
2743.88	0.8782
2752.88	0.8766
2761.89	0.879
2770.9	0.8821
2779.91	0.8815
2788.92	0.8738
2797.93	0.8644
2806.93	0.861
2815.94	0.8606
2824.95	0.853
2833.96	0.8535
2842.97	0.8577
2851.97	0.8634
2860.98	0.8651
2869.99	0.8652
2879	0.8649
2888.01	0.8638
2897.01	0.8602
2906.02	0.8497
2915.03	0.8337
2924.04	0.8127
2933.05	0.8033
2942.05	0.8009
2951.06	0.8116
2960.07	0.8103
2969.08	0.7858
2978.09	0.734
2987.09	0.638
2996.1	0.5841
3005.11	0.6463
3014.12	0.6831
3023.13	0.6897
3032.13	0.7493
3041.14	0.7867
3050.15	0.7978
3059.16	0.8014
3068.17	0.8199
3077.17	0.8291
3086.18	0.8484
3095.19	0.8734
3104.2	0.8891
3113.21	0.8945
3122.21	0.8992
3131.22	0.9011
3140.23	0.902
3149.24	0.9029
3158.25	0.9045
3167.25	0.9068
3176.26	0.908
3185.27	0.9088
3194.28	0.9106
3203.29	0.9126
3212.29	0.9146
3221.3	0.9164
3230.31	0.9185
3239.32	0.9187
3248.33	0.9184
3257.33	0.9171
3266.34	0.9159
3275.35	0.9148
3284.36	0.9138
3293.37	0.9131
3302.37	0.9118
3311.38	0.9093
3320.39	0.9096
3329.4	0.9119
3338.41	0.9135
3347.41	0.9141
3356.42	0.9144
3365.43	0.9163
3374.44	0.9195
3383.45	0.9185
3392.45	0.9175
3401.46	0.9166
3410.47	0.916
3419.48	0.9154
3428.49	0.9148
3437.49	0.9142
3446.5	0.9134
3455.51	0.9125
3464.52	0.9116
3473.53	0.9111
3482.53	0.9106
3491.54	0.9101
3500.55	0.9098
3509.56	0.9095
3518.57	0.9097
3527.57	0.9103
3536.58	0.9109
3545.59	0.911
3554.6	0.9105
3563.61	0.9103
3572.61	0.9103
3581.62	0.9108
3590.63	0.9117
3599.64	0.9126
3608.65	0.9108
3617.66	0.9076
3626.66	0.9035
3635.67	0.9003
3644.68	0.8972
3653.69	0.8959
3662.7	0.8959
3671.7	0.8962
3680.71	0.8973
3689.72	0.8988
3698.73	0.9009
3707.74	0.9031
3716.74	0.9056
3725.75	0.9072
3734.76	0.9079
3743.77	0.9076
3752.78	0.907
3761.78	0.9078
3770.79	0.9079
3779.8	0.9081
3788.81	0.9084
3797.82	0.9087
3806.82	0.9089
3815.83	0.9089
3824.84	0.9087
3833.85	0.9085
3842.86	0.9082
3851.86	0.9075
3860.87	0.9066
3869.88	0.9061
3878.89	0.9068
3887.9	0.9074
3896.9	0.908
3905.91	0.9072
3914.92	0.905
3923.93	0.9043
3932.94	0.9043
3941.94	0.9032
3950.95	0.8997
3959.96	0.8994
3968.97	0.9001
3977.98	0.8998
3986.98	0.9011
3995.99	0.9024
4005	0.9037
