Infrared Spectrum: p-Pentylbenzoic acid
Formula: C 12 H 16 O 2
CAS: 26311-45-5
State: gas
Origin: EPA-IR VAPOR PHASE LIBRARY
1/CM	ABSORBANCE
549.8	0.003357
559.445	0.003837
569.09	0.005007
578.734	0.004207
588.379	0.003777
598.024	0.004067
607.669	0.003877
617.313	0.004267
626.958	0.001467
636.603	0.0011021
646.248	0.0009677
655.893	0.0006963
665.537	0.0008243
675.182	0.0011456
684.827	0.002167
694.472	0.005037
704.116	0.006167
713.761	0.004537
723.406	0.004717
733.051	0.005317
742.695	0.004937
752.34	0.005307
761.985	0.005747
771.63	0.004577
781.275	0.002787
790.919	0.001927
800.564	0.000945
810.209	0.0010149
819.854	0.000696
829.498	0.0009733
839.143	0.001307
848.788	0.002107
858.433	0.001997
868.078	0.001151
877.722	0.0006961
887.367	0.0007489
897.012	0.0007405
906.657	0.0008096
916.301	0.0006455
925.946	0.0006109
935.591	0.0007702
945.236	0.0008295
954.88	0.0006459
964.525	0.0007987
974.17	0.0009407
983.815	0.0008294
993.46	0.000772
1003.1	0.001407
1012.75	0.003337
1022.39	0.004657
1032.04	0.002037
1041.68	0.001807
1051.33	0.003547
1060.97	0.008147
1070.62	0.019157
1080.26	0.025897
1089.91	0.015657
1099.55	0.006517
1109.2	0.003517
1118.84	0.003477
1128.49	0.003137
1138.13	0.003177
1147.78	0.004417
1157.42	0.008457
1167.07	0.023117
1176.71	0.024337
1186.36	0.012067
1196	0.009587
1205.64	0.004187
1215.29	0.002507
1224.93	0.002627
1234.58	0.003007
1244.22	0.003237
1253.87	0.003827
1263.51	0.004837
1273.16	0.004927
1282.8	0.004607
1292.45	0.004597
1302.09	0.005257
1311.74	0.005977
1321.38	0.006887
1331.03	0.006997
1340.67	0.006527
1350.32	0.008407
1359.96	0.011727
1369.61	0.007527
1379.25	0.003357
1388.9	0.002417
1398.54	0.002227
1408.18	0.003257
1417.83	0.003697
1427.47	0.002317
1437.12	0.001777
1446.76	0.002287
1456.41	0.002567
1466.05	0.002567
1475.7	0.001807
1485.34	0.001247
1494.99	0.0011181
1504.63	0.001387
1514.28	0.001297
1523.92	0.0008138
1533.57	0.0007812
1543.21	0.0007431
1552.86	0.0008523
1562.5	0.001247
1572.15	0.001587
1581.79	0.001437
1591.44	0.002047
1601.08	0.004657
1610.73	0.007857
1620.37	0.004647
1630.01	0.001677
1639.66	0.0010431
1649.3	0.0007558
1658.95	0.0008156
1668.59	0.0008922
1678.24	0.0010909
1687.88	0.001427
1697.53	0.001887
1707.17	0.002297
1716.82	0.002987
1726.46	0.003997
1736.11	0.007587
1745.75	0.020817
1755.4	0.062127
1765.04	0.043877
1774.69	0.011987
1784.33	0.005337
1793.98	0.003257
1803.62	0.002487
1813.27	0.002017
1822.91	0.001587
1832.55	0.0009628
1842.2	0.0006107
1851.84	0.0004991
1861.49	0.0005194
1871.13	0.0004689
1880.78	0.0005038
1890.42	0.0005668
1900.07	0.0005567
1909.71	0.0007359
1919.36	0.0007985
1929	0.0008092
1938.65	0.0006993
1948.29	0.000537
1957.94	0.000498
1967.58	0.0004657
1977.23	0.0004233
1986.87	0.0003822
1996.52	0.0003932
2006.16	0.00027012
2015.81	0.00021407
2025.45	0.00030775
2035.1	0.0003592
2044.74	0.0003204
2054.38	0.00026423
2064.03	0.00027103
2073.67	0.00031607
2083.32	0.00030479
2092.96	0.0004118
2102.61	0.0003452
2112.25	0.00026458
2121.9	0.0003808
2131.54	0.0004076
2141.19	0.0004341
2150.83	0.0004058
2160.48	0.0005071
2170.12	0.0003424
2179.77	0.0003292
2189.41	0.0003435
2199.06	0.0003362
2208.7	0.000337
2218.35	0.0003349
2227.99	0.00030408
2237.64	0.0003364
2247.28	0.0003931
2256.92	0.00029538
2266.57	0.00029108
2276.21	0.00030535
2285.86	0.00031364
2295.5	0.0003734
2305.15	0.0004059
2314.79	0.0003707
2324.44	0.0004222
2334.08	0.0004249
2343.73	0.0004614
2353.37	0.0003669
2363.02	0.0004546
2372.66	0.0003819
2382.31	0.0004113
2391.95	0.0004399
2401.6	0.0004208
2411.24	0.0003397
2420.89	0.0004385
2430.53	0.0004718
2440.18	0.0003987
2449.82	0.0003803
2459.47	0.0003437
2469.11	0.0003544
2478.75	0.000324
2488.4	0.00031436
2498.04	0.0003752
2507.69	0.00026141
2517.33	0.0003759
2526.98	0.0003347
2536.62	0.0003633
2546.27	0.0003966
2555.91	0.0004668
2565.56	0.0003743
2575.2	0.0004025
2584.85	0.000386
2594.49	0.0003664
2604.14	0.0003429
2613.78	0.0004102
2623.43	0.0004058
2633.07	0.0005257
2642.72	0.0004787
2652.36	0.0003985
2662.01	0.000441
2671.65	0.0004948
2681.29	0.0004129
2690.94	0.0006149
2700.58	0.0004469
2710.23	0.0004639
2719.87	0.0003829
2729.52	0.0005469
2739.16	0.0006031
2748.81	0.0005109
2758.45	0.0006743
2768.1	0.0005894
2777.74	0.0006306
2787.39	0.000766
2797.03	0.000856
2806.68	0.0009584
2816.32	0.0010963
2825.97	0.001407
2835.61	0.001737
2845.26	0.002657
2854.9	0.004577
2864.55	0.007537
2874.19	0.007787
2883.84	0.006987
2893.48	0.005717
2903.12	0.005917
2912.77	0.008097
2922.41	0.012677
2932.06	0.019307
2941.7	0.020447
2951.35	0.013847
2960.99	0.011887
2970.64	0.012187
2980.28	0.006877
2989.93	0.003597
2999.57	0.002617
3009.22	0.002177
3018.86	0.002047
3028.51	0.002287
3038.15	0.002997
3047.8	0.002517
3057.44	0.001667
3067.09	0.001467
3076.73	0.001497
3086.38	0.001297
3096.02	0.001247
3105.67	0.0011105
3115.31	0.000779
3124.95	0.0005836
3134.6	0.0005575
3144.24	0.0005182
3153.89	0.0004677
3163.53	0.0004162
3173.18	0.0004641
3182.82	0.00029568
3192.47	0.0003336
3202.11	0.00024277
3211.76	0.00022909
3221.4	0.0003671
3231.05	0.0003749
3240.69	0.00027633
3250.34	0.0003007
3259.98	0.0003362
3269.63	0.0003843
3279.27	0.0004014
3288.92	0.0001666
3298.56	0.0003672
3308.21	0.0001894
3317.85	0.00028863
3327.49	0.00031204
3337.14	0.0003359
3346.78	0.0001842
3356.43	0.0001571
3366.07	0.0003756
3375.72	0.00025649
3385.36	0.0004134
3395.01	0.0003573
3404.65	0.0002014
3414.3	0.0003947
3423.94	0.0002155
3433.59	0.00024649
3443.23	0.0004012
3452.88	0.000334
3462.52	0.00023898
3472.17	0.00031626
3481.81	0.0003656
3491.46	0.0005236
3501.1	0.0007973
3510.75	0.0005696
3520.39	0.000496
3530.04	0.00027257
3539.68	0.000377
3549.32	0.0005557
3558.97	0.0008574
3568.61	0.002777
3578.26	0.014047
3587.9	0.017717
3597.55	0.002297
3607.19	0.0009123
3616.84	0.000619
3626.48	0.0005555
3636.13	0.0004065
3645.77	0.00031555
3655.42	0.00023628
3665.06	0.0004616
3674.71	0.00028153
3684.35	0.00030509
3694	0.0003946
3703.64	0.0003751
3713.29	0.00028274
3722.93	0.0005578
3732.58	0.0001991
3742.22	0.0001991
3751.86	0.0002353
3761.51	0.000219463
3771.15	0.00031136
3780.8	0.00027375
3790.44	0.0003505
3800.09	0.00025655
3809.73	0.0001617
3819.38	0.00023023
3829.02	0.00022956
3838.67	8.1e-05
3848.31	0.0001222
3857.96	0.00025246
3867.6	0.0003493
3877.25	0.000163
3886.89	0.00027543
3896.54	0.00021024
3906.18	0.0003564
3915.83	0.000115
3925.47	0.0001907
3935.12	0.0001825
3944.76	0.000138
3954.41	0.0003932
3964.05	0.0001924
3973.69	0.0003776
3983.34	0.0004486
3992.98	0.0001523
