Infrared Spectrum: 3,5-Diiodo-2-hydroxybenzaldehyde
Formula: C 7 H 4 I 2 O 2
CAS: 2631-77-8
State: gas
Origin: EPA-IR VAPOR PHASE LIBRARY
1/CM	ABSORBANCE
501.5	0.0009414
513.074	0.00036126
524.648	0.00033931
536.222	0.0008817
547.796	0.001646
559.37	0.0010434
570.944	0.0009062
582.518	0.0009602
594.092	0.0009726
605.666	0.0010172
617.24	0.001386
628.814	0.002296
640.388	0.004746
651.962	0.006406
663.536	0.011616
675.11	0.003266
686.684	0.005796
698.258	0.012746
709.832	0.007166
721.406	0.007486
732.98	0.007626
744.554	0.006486
756.128	0.001786
767.702	0.0009158
779.276	0.0007279
790.85	0.0006236
802.423	0.0005538
813.997	0.0009341
825.571	0.0005207
837.145	0.000441
848.719	0.0004953
860.293	0.001806
871.867	0.004576
883.441	0.001476
895.015	0.002686
906.589	0.002186
918.163	0.0006504
929.737	0.0004376
941.311	0.00038562
952.885	9.2e-05
964.459	0.000166
976.033	9.8e-05
987.607	0.0002758
999.181	0.0004045
1010.76	0.00031214
1022.33	0.000127
1033.9	0.0002557
1045.48	0.0002154
1057.05	0.000169
1068.63	0.0002131
1080.2	0.000417
1091.77	0.0009959
1103.35	0.001596
1114.92	0.003116
1126.49	0.006756
1138.07	0.018196
1149.64	0.017096
1161.22	0.005076
1172.79	0.003756
1184.36	0.006686
1195.94	0.010736
1207.51	0.013406
1219.09	0.006486
1230.66	0.004466
1242.23	0.004596
1253.81	0.006136
1265.38	0.017886
1276.96	0.028996
1288.53	0.007766
1300.1	0.005216
1311.68	0.006596
1323.25	0.007886
1334.83	0.007796
1346.4	0.007246
1357.97	0.006986
1369.55	0.005516
1381.12	0.005076
1392.7	0.011576
1404.27	0.021926
1415.84	0.021506
1427.42	0.018056
1438.99	0.015926
1450.57	0.008856
1462.14	0.004816
1473.71	0.002806
1485.29	0.001956
1496.86	0.001336
1508.44	0.0011443
1520.01	0.0009691
1531.58	0.0010627
1543.16	0.0012249
1554.73	0.0011634
1566.31	0.001586
1577.88	0.003256
1589.45	0.006086
1601.03	0.003966
1612.6	0.002086
1624.18	0.002536
1635.75	0.003116
1647.32	0.004206
1658.9	0.009456
1670.47	0.047366
1682.05	0.042516
1693.62	0.010366
1705.19	0.008256
1716.77	0.006826
1728.34	0.003046
1739.92	0.002056
1751.49	0.0012787
1763.06	0.001446
1774.64	0.001175
1786.21	0.0007582
1797.79	0.0009288
1809.36	0.000916
1820.93	0.0006671
1832.51	0.0005247
1844.08	0.00038371
1855.66	0.0004247
1867.23	0.0004206
1878.8	0.00038417
1890.38	0.00037534
1901.95	0.00032659
1913.53	0.0002685
1925.1	0.000302334
1936.67	0.000305747
1948.25	0.0002524
1959.82	0.000195
1971.4	0.000184
1982.97	0.0002136
1994.54	0.0002013
2006.12	0.00019
2017.69	0.0002062
2029.27	0.0002162
2040.84	0.00029279
2052.41	0.0002598
2063.99	0.0002195
2075.56	0.0002837
2087.14	0.00031437
2098.71	0.000278
2110.28	0.0002402
2121.86	0.000176
2133.43	0.000187
2145.01	0.000156
2156.58	0.000164
2168.15	0.0002183
2179.73	0.000181
2191.3	0.000185
2202.88	0.000141
2214.45	0.0002195
2226.02	0.000246
2237.6	0.0002424
2249.17	0.0002307
2260.74	0.0001992
2272.32	0.0002409
2283.89	0.0002159
2295.47	0.0002431
2307.04	0.0002529
2318.61	0.0002518
2330.19	0.0002376
2341.76	0.0002779
2353.34	0.0002568
2364.91	0.0002097
2376.48	0.0002662
2388.06	0.0002788
2399.63	0.00036898
2411.21	0.00036264
2422.78	0.00032473
2434.35	0.00028747
2445.93	0.00034096
2457.5	0.00033917
2469.08	0.00038985
2480.65	0.0004293
2492.22	0.0004443
2503.8	0.000414
2515.37	0.00038009
2526.95	0.0004772
2538.52	0.0007151
2550.09	0.0008677
2561.67	0.0007647
2573.24	0.0006131
2584.82	0.0005316
2596.39	0.0005734
2607.96	0.0005488
2619.54	0.0005062
2631.11	0.0005406
2642.69	0.0005937
2654.26	0.0006126
2665.83	0.0007408
2677.41	0.000878
2688.98	0.0009596
2700.56	0.0010427
2712.13	0.001316
2723.7	0.001926
2735.28	0.002316
2746.85	0.001966
2758.43	0.001766
2770	0.001526
2781.57	0.001496
2793.15	0.001746
2804.72	0.001876
2816.3	0.002526
2827.87	0.004516
2839.44	0.010976
2851.02	0.008966
2862.59	0.002806
2874.17	0.001986
2885.74	0.001238
2897.31	0.000973
2908.89	0.0009072
2920.46	0.0009556
2932.04	0.0010493
2943.61	0.0010944
2955.18	0.0011508
2966.76	0.0011134
2978.33	0.0011798
2989.91	0.0012026
3001.48	0.0012691
3013.05	0.0012343
3024.63	0.001306
3036.2	0.001386
3047.78	0.001696
3059.35	0.001926
3070.92	0.002206
3082.5	0.002366
3094.07	0.002556
3105.65	0.002726
3117.22	0.002816
3128.79	0.003146
3140.37	0.003436
3151.94	0.003516
3163.52	0.003806
3175.09	0.003836
3186.66	0.003886
3198.24	0.003686
3209.81	0.003586
3221.39	0.003276
3232.96	0.003256
3244.53	0.003316
3256.11	0.003336
3267.68	0.003366
3279.26	0.003236
3290.83	0.003016
3302.4	0.002806
3313.98	0.002586
3325.55	0.002526
3337.13	0.002986
3348.7	0.002796
3360.27	0.002266
3371.85	0.001996
3383.42	0.001846
3395	0.001716
3406.57	0.001606
3418.14	0.001426
3429.72	0.001366
3441.29	0.001306
3452.86	0.0011987
3464.44	0.0010595
3476.01	0.0010499
3487.59	0.0009579
3499.16	0.0010852
3510.73	0.001906
3522.31	0.001326
3533.88	0.000813
3545.46	0.0006042
3557.03	0.0004793
3568.6	0.0004123
3580.18	0.00036327
3591.75	0.0002771
3603.33	0.00031299
3614.9	0.000181
3626.47	0.0002366
3638.05	0.0002037
3649.62	0.000193
3661.2	0.0002364
3672.77	0.0002053
3684.34	0.000169
3695.92	0.00014
3707.49	0.000139
3719.07	0.000139
3730.64	0.0002232
3742.21	0.0002354
3753.79	0.000175
3765.36	7.3e-05
3776.94	0.000136
3788.51	5.7e-05
3800.08	0.000111
3811.66	0.000163
3823.23	7.3e-05
3834.81	0.000105
3846.38	0.0002238
3857.95	0.000149
3869.53	0.00014
3881.1	0.000128
3892.68	0.000179
3904.25	6.5e-05
3915.82	9.4e-05
3927.4	0.000136
3938.97	0.0002137
3950.55	0.000159
3962.12	0.000104
3973.69	8.9e-05
3985.27	0.000182
3996.84	0.000227
