Infrared Spectrum: PHOSPHORAMIDOUS ACID, DIMETHYL-, DIETHYL ESTER
Formula: C6 H16 N O2 P
CAS: 2632-87-3
Class: COBLENTZ
Instrument: Not specified, most likely a prism, grating, or hybrid spectrometer.
Sampling: TRANSMISSION
Path length: SMEAR
Resolution: 4
Origin: TENNESSEE EASTMAN COMPANY, RESEARCH LABORATORIES
MICROMETERS	TRANSMITTANCE
2.025	0.911
2.0648	0.906
2.1046	0.908
2.1444	0.906
2.1842	0.908
2.224	0.906
2.2638	0.901
2.3036	0.901
2.3434	0.903
2.3832	0.904
2.423	0.904
2.4628	0.904
2.5026	0.904
2.5424	0.906
2.5822	0.909
2.622	0.909
2.6618	0.911
2.7016	0.909
2.7414	0.909
2.7812	0.909
2.821	0.913
2.8608	0.914
2.9006	0.919
2.9404	0.929
2.9802	0.931
3.02	0.933
3.0598	0.933
3.0996	0.933
3.1394	0.929
3.1792	0.921
3.219	0.919
3.2588	0.904
3.2986	0.841
3.3384	0.322
3.3782	0.46
3.418	0.365
3.4578	0.353
3.4976	0.579
3.5374	0.699
3.5772	0.689
3.617	0.844
3.6568	0.863
3.6966	0.884
3.7364	0.923
3.7762	0.933
3.816	0.936
3.8558	0.936
3.8956	0.939
3.9354	0.939
3.9752	0.944
4.015	0.949
4.0548	0.948
4.0946	0.948
4.13439	0.939
4.17419	0.933
4.21399	0.946
4.25379	0.944
4.29359	0.898
4.33339	0.883
4.37319	0.928
4.41299	0.948
4.45279	0.948
4.49259	0.948
4.53239	0.951
4.57219	0.949
4.61199	0.944
4.65179	0.943
4.69159	0.943
4.73139	0.946
4.77119	0.946
4.81099	0.948
4.85079	0.949
4.89059	0.949
4.93039	0.949
4.97019	0.951
5.00999	0.951
5.04979	0.939
5.08959	0.928
5.12939	0.923
5.16919	0.931
5.20899	0.946
5.24879	0.949
5.28859	0.948
5.32839	0.949
5.36819	0.943
5.40799	0.943
5.44779	0.931
5.48759	0.916
5.52739	0.919
5.56719	0.919
5.60699	0.921
5.64679	0.919
5.68659	0.923
5.72639	0.923
5.76619	0.918
5.80599	0.928
5.84579	0.911
5.88559	0.901
5.92539	0.906
5.96519	0.886
6.00499	0.883
6.04479	0.881
6.08459	0.866
6.12439	0.881
6.16419	0.899
6.20399	0.899
6.24379	0.911
6.28359	0.914
6.32339	0.923
6.36319	0.909
6.40299	0.898
6.44279	0.911
6.48259	0.876
6.52239	0.891
6.56219	0.864
6.60199	0.863
6.64179	0.831
6.68159	0.746
6.72139	0.632
6.76119	0.634
6.80099	0.637
6.84079	0.562
6.88059	0.544
6.92039	0.582
6.96019	0.722
6.99999	0.776
7.03979	0.786
7.07959	0.774
7.11939	0.722
7.15919	0.537
7.19899	0.427
7.23879	0.601
7.27859	0.712
7.31839	0.752
7.35819	0.771
7.39799	0.829
7.43779	0.843
7.47759	0.851
7.51739	0.854
7.55719	0.854
7.59699	0.831
7.63679	0.796
7.67659	0.731
7.71639	0.636
7.75619	0.54
7.79599	0.49
7.83579	0.545
7.87559	0.607
7.91539	0.647
7.95519	0.684
7.99499	0.734
8.03479	0.779
8.07459	0.799
8.11439	0.813
8.15419	0.804
8.19399	0.764
8.23379	0.699
8.27359	0.574
8.31338	0.417
8.35318	0.424
8.39298	0.497
8.43278	0.574
8.47258	0.621
8.51238	0.619
8.55218	0.555
8.59198	0.53
8.63178	0.594
8.67158	0.647
8.71138	0.664
8.75118	0.691
8.79098	0.707
8.83078	0.721
8.87058	0.717
8.91038	0.692
8.95018	0.651
8.98998	0.579
9.02978	0.465
9.06958	0.375
9.10938	0.37
9.14918	0.434
9.18898	0.462
9.22878	0.45
9.26858	0.405
9.30838	0.335
9.34818	0.263
9.38798	0.223
9.42778	0.205
9.46758	0.2
9.50738	0.17
9.54718	0.136
9.58698	0.111
9.62678	0.108
9.66658	0.116
9.70638	0.151
9.74618	0.225
9.78598	0.33
9.82578	0.43
9.86558	0.507
9.90538	0.55
9.94518	0.577
9.98498	0.58
10.0248	0.577
10.0646	0.547
10.1044	0.494
10.1442	0.41
10.184	0.317
10.2238	0.228
10.2636	0.181
10.3034	0.176
10.3432	0.24
10.383	0.315
10.4228	0.377
10.4626	0.388
10.5024	0.382
10.5422	0.37
10.582	0.37
10.6218	0.362
10.6616	0.328
10.7014	0.275
10.7412	0.223
10.781	0.193
10.8208	0.175
10.8606	0.17
10.9004	0.168
10.9402	0.17
10.98	0.168
11.0198	0.193
11.0596	0.23
11.0994	0.295
11.1392	0.383
11.179	0.47
11.2188	0.57
11.2586	0.637
11.2984	0.696
11.3382	0.732
11.378	0.762
11.4178	0.782
11.4576	0.801
11.4974	0.819
11.5372	0.831
11.577	0.839
11.6168	0.849
11.6566	0.853
11.6964	0.859
11.7362	0.863
11.776	0.864
11.8158	0.868
11.8556	0.869
11.8954	0.871
11.9352	0.871
11.975	0.871
12.0148	0.871
12.0546	0.869
12.0944	0.863
12.1342	0.849
12.174	0.834
12.2138	0.811
12.2536	0.787
12.2934	0.764
12.3332	0.749
12.373	0.747
12.4128	0.747
12.4526	0.749
12.4924	0.749
12.5322	0.746
12.572	0.727
12.6118	0.697
12.6516	0.677
12.6914	0.641
12.7312	0.597
12.771	0.559
12.8108	0.524
12.8506	0.482
12.8904	0.449
12.9302	0.417
12.97	0.397
13.0098	0.378
13.0496	0.372
13.0894	0.367
13.1292	0.362
13.169	0.358
13.2088	0.355
13.2486	0.348
13.2884	0.338
13.3282	0.332
13.368	0.325
13.4078	0.317
13.4476	0.312
13.4874	0.305
13.5272	0.302
13.567	0.297
13.6068	0.292
13.6466	0.288
13.6864	0.287
13.7262	0.287
13.766	0.287
13.8058	0.287
13.8456	0.29
13.8854	0.302
13.9252	0.313
13.965	0.332
14.0048	0.353
14.0446	0.373
14.0844	0.383
14.1242	0.404
14.164	0.425
14.2038	0.444
14.2436	0.459
14.2834	0.472
14.3232	0.475
14.363	0.479
14.4028	0.479
14.4426	0.465
14.4824	0.439
14.5222	0.412
14.562	0.393
14.6018	0.383
14.6416	0.387
14.6814	0.415
14.7212	0.437
14.761	0.457
14.8008	0.467
14.8406	0.47
14.8804	0.47
14.9202	0.469
14.96	0.47
14.9998	0.504
15.0396	0.562
15.0794	0.575
15.1192	0.587
15.159	0.601
15.1988	0.617
15.2386	0.629
15.2784	0.644
15.3182	0.649
15.358	0.652
15.3978	0.654
15.4376	0.654
15.4774	0.656
15.5172	0.657
15.557	0.657
15.5968	0.659
15.6366	0.659
15.6764	0.659
15.7162	0.659
15.756	0.659
15.7958	0.657
15.8356	0.656
15.8754	0.656
15.9152	0.651
15.955	0.651
