Infrared Spectrum: 3,4-Methylenedioxybromobenzene
Formula: C 7 H 5 Br O 2
CAS: 2635-13-4
State: gas
Origin: EPA-IR VAPOR PHASE LIBRARY
1/CM	ABSORBANCE
549.8	0.002608
559.445	0.007848
569.09	0.026178
578.734	0.027638
588.379	0.006628
598.024	0.001378
607.669	0.0009422
617.313	0.000763
626.958	0.001588
636.603	0.002318
646.248	0.002398
655.893	0.003238
665.537	0.012988
675.182	0.020998
684.827	0.005498
694.472	0.001738
704.116	0.001298
713.761	0.005818
723.406	0.007888
733.051	0.001638
742.695	0.000829
752.34	0.0009259
761.985	0.0011632
771.63	0.003928
781.275	0.015488
790.919	0.041958
800.564	0.071748
810.209	0.043528
819.854	0.015128
829.498	0.013448
839.143	0.022488
848.788	0.036118
858.433	0.026478
868.078	0.041688
877.722	0.062558
887.367	0.017858
897.012	0.006808
906.657	0.008068
916.301	0.014818
925.946	0.028618
935.591	0.051198
945.236	0.066168
954.88	0.048428
964.525	0.017898
974.17	0.008338
983.815	0.007018
993.46	0.007798
1003.1	0.010898
1012.75	0.019078
1022.39	0.039908
1032.04	0.087178
1041.68	0.141048
1051.33	0.132758
1060.97	0.086098
1070.62	0.042038
1080.26	0.022148
1089.91	0.023938
1099.55	0.039228
1109.2	0.040608
1118.84	0.027198
1128.49	0.019428
1138.13	0.019338
1147.78	0.034408
1157.42	0.049928
1167.07	0.026018
1176.71	0.009108
1186.36	0.008868
1196	0.016968
1205.64	0.044968
1215.29	0.116738
1224.93	0.284818
1234.58	0.322518
1244.22	0.119808
1253.87	0.044248
1263.51	0.014658
1273.16	0.008078
1282.8	0.006818
1292.45	0.007288
1302.09	0.006678
1311.74	0.009248
1321.38	0.020528
1331.03	0.039408
1340.67	0.031638
1350.32	0.010788
1359.96	0.006458
1369.61	0.008178
1379.25	0.009398
1388.9	0.014238
1398.54	0.020718
1408.18	0.023928
1417.83	0.047058
1427.47	0.047068
1437.12	0.021668
1446.76	0.021878
1456.41	0.063928
1466.05	0.280178
1475.7	0.499338
1485.34	0.294628
1494.99	0.081738
1504.63	0.052548
1514.28	0.033568
1523.92	0.012628
1533.57	0.009418
1543.21	0.006918
1552.86	0.005088
1562.5	0.003008
1572.15	0.004198
1581.79	0.008288
1591.44	0.012528
1601.08	0.013068
1610.73	0.011798
1620.37	0.008988
1630.01	0.005548
1639.66	0.003128
1649.3	0.002018
1658.95	0.002058
1668.59	0.002758
1678.24	0.003648
1687.88	0.005218
1697.53	0.005538
1707.17	0.004298
1716.82	0.002668
1726.46	0.001598
1736.11	0.002008
1745.75	0.003398
1755.4	0.004968
1765.04	0.003818
1774.69	0.002868
1784.33	0.002298
1793.98	0.002578
1803.62	0.003648
1813.27	0.005378
1822.91	0.007068
1832.55	0.005968
1842.2	0.003488
1851.84	0.002828
1861.49	0.003108
1871.13	0.003618
1880.78	0.004018
1890.42	0.003658
1900.07	0.002698
1909.71	0.002168
1919.36	0.001418
1929	0.0008716
1938.65	0.0008724
1948.29	0.0009876
1957.94	0.001288
1967.58	0.001708
1977.23	0.002098
1986.87	0.001698
1996.52	0.001378
2006.16	0.001548
2015.81	0.002728
2025.45	0.004498
2035.1	0.004808
2044.74	0.003388
2054.38	0.002498
2064.03	0.001938
2073.67	0.001648
2083.32	0.001668
2092.96	0.001698
2102.61	0.001508
2112.25	0.001248
2121.9	0.0011183
2131.54	0.0011368
2141.19	0.0011422
2150.83	0.0010162
2160.48	0.0008626
2170.12	0.0008425
2179.77	0.0009002
2189.41	0.000962
2199.06	0.001097
2208.7	0.0010805
2218.35	0.001169
2227.99	0.001188
2237.64	0.001022
2247.28	0.001338
2256.92	0.001858
2266.57	0.002428
2276.21	0.002908
2285.86	0.002728
2295.5	0.002378
2305.15	0.002268
2314.79	0.002048
2324.44	0.001388
2334.08	0.0010663
2343.73	0.0009709
2353.37	0.0009138
2363.02	0.0009292
2372.66	0.0008768
2382.31	0.0008855
2391.95	0.0007465
2401.6	0.0006903
2411.24	0.0007167
2420.89	0.0004711
2430.53	0.0006438
2440.18	0.0009376
2449.82	0.001278
2459.47	0.001948
2469.11	0.002198
2478.75	0.002188
2488.4	0.001938
2498.04	0.001288
2507.69	0.001154
2517.33	0.001208
2526.98	0.001348
2536.62	0.001638
2546.27	0.002178
2555.91	0.002738
2565.56	0.003048
2575.2	0.002518
2584.85	0.001548
2594.49	0.001198
2604.14	0.0009048
2613.78	0.0010889
2623.43	0.001258
2633.07	0.001788
2642.72	0.001928
2652.36	0.001918
2662.01	0.001888
2671.65	0.001818
2681.29	0.001798
2690.94	0.002058
2700.58	0.002318
2710.23	0.002178
2719.87	0.001988
2729.52	0.002008
2739.16	0.002668
2748.81	0.003548
2758.45	0.005748
2768.1	0.011278
2777.74	0.013538
2787.39	0.007078
2797.03	0.005058
2806.68	0.005618
2816.32	0.006788
2825.97	0.008058
2835.61	0.009768
2845.26	0.012488
2854.9	0.017308
2864.55	0.025538
2874.19	0.034218
2883.84	0.043098
2893.48	0.043338
2903.12	0.039228
2912.77	0.040228
2922.41	0.037228
2932.06	0.033678
2941.7	0.030128
2951.35	0.026588
2960.99	0.022028
2970.64	0.018038
2980.28	0.016298
2989.93	0.013578
2999.57	0.010588
3009.22	0.013318
3018.86	0.018518
3028.51	0.014358
3038.15	0.009128
3047.8	0.006598
3057.44	0.004868
3067.09	0.004198
3076.73	0.005748
3086.38	0.006988
3096.02	0.003998
3105.67	0.002148
3115.31	0.001228
3124.95	0.0007673
3134.6	0.000637
3144.24	0.0004705
3153.89	0.0002962
3163.53	0.00017185
3173.18	0.0003631
3182.82	0.0003372
3192.47	0.0003542
3202.11	0.0003271
3211.76	0.0003969
3221.4	0.0004677
3231.05	0.0004285
3240.69	0.0004935
3250.34	0.0005043
3259.98	0.0003286
3269.63	0.0004116
3279.27	0.0004098
3288.92	0.0003005
3298.56	0.000352
3308.21	0.00022194
3317.85	0.0001576
3327.49	0.0002941
3337.14	0.000186428
3346.78	0.00026179
3356.43	0.0004738
3366.07	0.0003172
3375.72	0.0001542
3385.36	0.0003965
3395.01	0.0002028
3404.65	0.00026586
3414.3	0.00020597
3423.94	0.0001142
3433.59	0.000321
3443.23	0.00025056
3452.88	9.49e-05
3462.52	0.00018909
3472.17	0.00024737
3481.81	0.0003579
3491.46	0.0004063
3501.1	0.0002165
3510.75	0.00026614
3520.39	0.00019319
3530.04	0.000452
3539.68	0.0004346
3549.32	0.00023665
3558.97	0.000154
3568.61	0.00022566
3578.26	0.0004245
3587.9	0.0002821
3597.55	0.000483
3607.19	0.0004376
3616.84	0.000464
3626.48	0.0003537
3636.13	0.0004088
3645.77	0.0005315
3655.42	0.00052
3665.06	0.0003419
3674.71	0.0005769
3684.35	0.0005131
3694	0.0003898
3703.64	0.00021717
3713.29	0.0003867
3722.93	0.0003528
3732.58	0.0004626
3742.22	0.00023736
3751.86	0.0003705
3761.51	0.0004685
3771.15	0.0005969
3780.8	0.0005687
3790.44	0.0003879
3800.09	0.0003872
3809.73	0.0004833
3819.38	0.0004783
3829.02	0.0006371
3838.67	0.0005258
3848.31	0.00026236
3857.96	0.0004714
3867.6	0.0004241
3877.25	0.0004419
3886.89	0.0006459
3896.54	0.0003861
3906.18	0.0005631
3915.83	0.0007107
3925.47	0.0009013
3935.12	0.0011057
3944.76	0.001398
3954.41	0.001308
3964.05	0.001498
3973.69	0.001288
3983.34	0.0009067
3992.98	0.0008224
