Infrared Spectrum: 2-Mercaptopyridine
Formula: C 5 H 5 N S
CAS: 2637-34-5
State: gas
Origin: EPA-IR VAPOR PHASE LIBRARY
1/CM	ABSORBANCE
549.8	0.0002049
559.445	6.021e-05
569.09	0.00013136
578.734	0.0003136
588.379	0.0003211
598.024	0.0006249
607.669	0.0007038
617.313	0.0004205
626.958	0.0006409
636.603	0.0003539
646.248	0.0001995
655.893	0.0003195
665.537	0.0004176
675.182	0.000553
684.827	0.0008363
694.472	0.0011171
704.116	0.0017371
713.761	0.0032571
723.406	0.0050771
733.051	0.0066571
742.695	0.0065271
752.34	0.0074771
761.985	0.0051171
771.63	0.0033071
781.275	0.0015771
790.919	0.0006475
800.564	0.0004862
810.209	0.0004799
819.854	0.0003232
829.498	0.0003935
839.143	0.0004388
848.788	0.0004056
858.433	0.0004334
868.078	0.0007282
877.722	0.0010304
887.367	0.0010671
897.012	0.0011471
906.657	0.0008649
916.301	0.0006979
925.946	0.0007465
935.591	0.0005585
945.236	0.00057
954.88	0.0009712
964.525	0.0017271
974.17	0.0022671
983.815	0.0020171
993.46	0.0011771
1003.1	0.0006523
1012.75	0.0005608
1022.39	0.0005963
1032.04	0.0009717
1041.68	0.0011371
1051.33	0.0013771
1060.97	0.0006258
1070.62	0.0005799
1080.26	0.001037
1089.91	0.0010671
1099.55	0.0011871
1109.2	0.0026171
1118.84	0.0059071
1128.49	0.0085171
1138.13	0.0105371
1147.78	0.0095771
1157.42	0.0071771
1167.07	0.0046071
1176.71	0.0016271
1186.36	0.0006004
1196	0.0003283
1205.64	0.0006023
1215.29	0.0002245
1224.93	0.0003146
1234.58	0.000679
1244.22	0.0005924
1253.87	0.0004188
1263.51	0.0006874
1273.16	0.0011771
1282.8	0.0011771
1292.45	0.0010571
1302.09	0.0005471
1311.74	0.0003022
1321.38	0.0003515
1331.03	0.0003999
1340.67	0.0004943
1350.32	0.0005178
1359.96	0.0004664
1369.61	0.0004492
1379.25	0.0004778
1388.9	0.0006683
1398.54	0.0020671
1408.18	0.0072071
1417.83	0.0095071
1427.47	0.0099271
1437.12	0.0050371
1446.76	0.0062071
1456.41	0.0076871
1466.05	0.0060271
1475.7	0.0026471
1485.34	0.0013071
1494.99	0.0009164
1504.63	0.0007754
1514.28	0.0007391
1523.92	0.0011771
1533.57	0.0028971
1543.21	0.0060271
1552.86	0.0088171
1562.5	0.0118271
1572.15	0.0157971
1581.79	0.0120571
1591.44	0.0070271
1601.08	0.0021071
1610.73	0.0015971
1620.37	0.0015271
1630.01	0.0012471
1639.66	0.0006862
1649.3	0.0004353
1658.95	0.0004757
1668.59	0.0004375
1678.24	0.0003495
1687.88	0.0004364
1697.53	0.0004259
1707.17	0.000534
1716.82	0.0005142
1726.46	0.0005285
1736.11	0.0004624
1745.75	0.0004476
1755.4	0.000388
1765.04	0.0003912
1774.69	0.000318
1784.33	0.0002531
1793.98	0.0002365
1803.62	0.0003619
1813.27	0.00036
1822.91	0.0004567
1832.55	0.0005094
1842.2	0.0005096
1851.84	0.0005397
1861.49	0.0004399
1871.13	0.0003969
1880.78	0.0004007
1890.42	0.0003923
1900.07	0.0004699
1909.71	0.0004545
1919.36	0.0005375
1929	0.0004671
1938.65	0.0004649
1948.29	0.0005076
1957.94	0.0004727
1967.58	0.0004285
1977.23	0.0003492
1986.87	0.0002862
1996.52	0.0003893
2006.16	0.0002778
2015.81	0.0002927
2025.45	0.0003317
2035.1	0.0002463
2044.74	0.0003055
2054.38	0.0002895
2064.03	0.0003019
2073.67	0.0002708
2083.32	0.0002274
2092.96	0.0002648
2102.61	0.0003287
2112.25	0.0002584
2121.9	0.0003264
2131.54	0.0002884
2141.19	0.0002785
2150.83	0.0003043
2160.48	0.0003043
2170.12	0.000215
2179.77	0.0003055
2189.41	0.0003027
2199.06	0.0003058
2208.7	0.0002921
2218.35	0.0003283
2227.99	0.0002874
2237.64	0.0002557
2247.28	0.0002502
2256.92	0.0003135
2266.57	0.0004237
2276.21	0.0004109
2285.86	0.0003464
2295.5	0.0004005
2305.15	0.0003731
2314.79	0.0003407
2324.44	0.0004682
2334.08	0.0003235
2343.73	0.0004086
2353.37	0.0003445
2363.02	0.0003441
2372.66	0.0002827
2382.31	0.0003545
2391.95	0.0003469
2401.6	0.0002901
2411.24	0.0002519
2420.89	0.000326
2430.53	0.0003434
2440.18	0.0004222
2449.82	0.0003325
2459.47	0.000392
2469.11	0.0003285
2478.75	0.000416
2488.4	0.0003607
2498.04	0.0004256
2507.69	0.0003906
2517.33	0.000361
2526.98	0.0003706
2536.62	0.0001987
2546.27	0.0004049
2555.91	0.0003715
2565.56	0.0002282
2575.2	0.0004165
2584.85	0.000423
2594.49	0.000568
2604.14	0.0005285
2613.78	0.0006197
2623.43	0.0003713
2633.07	0.0003361
2642.72	0.0003124
2652.36	0.0002209
2662.01	0.0003139
2671.65	0.0003909
2681.29	0.0003394
2690.94	0.0003453
2700.58	0.0002807
2710.23	0.0003478
2719.87	0.0003368
2729.52	0.0003186
2739.16	0.0004329
2748.81	0.0003224
2758.45	0.0001887
2768.1	0.0002585
2777.74	0.0002841
2787.39	0.0003054
2797.03	0.0003383
2806.68	0.0002553
2816.32	0.0003493
2825.97	0.0004085
2835.61	0.0003761
2845.26	0.0002882
2854.9	0.0003742
2864.55	0.0003076
2874.19	0.0003833
2883.84	0.000393
2893.48	0.0004012
2903.12	0.0005148
2912.77	0.0004666
2922.41	0.0003708
2932.06	0.00010852
2941.7	0.00024
2951.35	0.0002813
2960.99	0.0002919
2970.64	0.0005165
2980.28	0.0007592
2989.93	0.0009411
2999.57	0.0013171
3009.22	0.0011171
3018.86	0.00087
3028.51	0.0008456
3038.15	0.0013871
3047.8	0.0023871
3057.44	0.0028371
3067.09	0.0041371
3076.73	0.0039971
3086.38	0.0031371
3096.02	0.0017171
3105.67	0.0007579
3115.31	0.0007268
3124.95	0.0005128
3134.6	0.0006857
3144.24	0.0005693
3153.89	0.0003967
3163.53	0.0003501
3173.18	0.0003588
3182.82	0.0003277
3192.47	0.0002757
3202.11	0.0004493
3211.76	0.0001697
3221.4	0.000235
3231.05	0.000348
3240.69	0.0001658
3250.34	0.0002257
3259.98	0.0003434
3269.63	0.0001692
3279.27	0.0003374
3288.92	0.0001901
3298.56	0.0002373
3308.21	0.0002132
3317.85	0.0002633
3327.49	0.000398
3337.14	0.0003692
3346.78	0.0002797
3356.43	0.0002097
3366.07	0.0003347
3375.72	0.0003964
3385.36	0.0003929
3395.01	0.0007187
3404.65	0.0007235
3414.3	0.0007266
3423.94	0.0003368
3433.59	0.0003541
3443.23	0.0001873
3452.88	0.0004001
3462.52	0.000243
3472.17	0.0004694
3481.81	0.0004032
3491.46	0.0004623
3501.1	0.00014378
3510.75	0.00012807
3520.39	0.0001578
3530.04	0.0001679
3539.68	0.0002099
3549.32	0.0002917
3558.97	0.0002442
3568.61	4.172e-05
3578.26	0.0002064
3587.9	0.0002257
3597.55	0.000283
3607.19	0.0002199
3616.84	0.0002047
3626.48	0.000139
3636.13	0.0003317
3645.77	5.871e-05
3655.42	0.0002187
3665.06	0.0001655
3674.71	0.0003257
3684.35	7.097e-05
3694	0.0002129
3703.64	0.0002083
3713.29	0.0001742
3722.93	0.0002475
3732.58	0.0001973
3742.22	0.0002295
3751.86	0.0003031
3761.51	0.0003751
3771.15	0.00025
3780.8	0.0002272
3790.44	0.0002108
3800.09	0.0005741
3809.73	0.000316
3819.38	0.0002585
3829.02	0.0003739
3838.67	0.0005217
3848.31	0.0002526
3857.96	0.0002264
3867.6	0.0001976
3877.25	0.000295
3886.89	0.0001816
3896.54	0.0001809
3906.18	0.0003459
3915.83	0.0001697
3925.47	0.0002829
3935.12	0.0003769
3944.76	0.0003575
3954.41	0
3964.05	5.629e-05
3973.69	9.866e-05
3983.34	0.0002846
3992.98	0.0002043
