Infrared Spectrum: 4,4-Azobis-4-cyanovaleric acid
Formula: C 12 H 16 N 4 O 4
CAS: 2638-94-0
State: gas
Instrument: HP-GC/MS/IRD
Origin: NIST Mass Spectrometry Data Center
1/CM	ABSORBANCE
550	0.000897
562	0.0001173
574	1.38e-05
586	0.0005382
598	0.0019941
610	0.0030705
622	0.0016146
634	0.0009039
646	0.0009591
658	0.0009039
670	0.0008556
682	0.000621
694	0.0002829
706	0.0002967
718	0.000345
730	0.0007107
742	0.0013455
754	0.0016629
766	0.0011454
778	0.0009039
790	0.0009798
802	0.0011799
814	0.0017664
826	0.0025047
838	0.0028359
850	0.0023391
862	0.0018906
874	0.0013869
886	0.0007452
898	0.0008073
910	0.0010143
922	0.0008763
934	0.0010695
946	0.0020493
958	0.0018699
970	0.0018906
982	0.0027186
994	0.0033948
1006	0.0051267
1018	0.004761
1030	0.0034293
1042	0.0023184
1054	0.0026565
1066	0.0033603
1078	0.004968
1090	0.0059685
1102	0.0073623
1114	0.0090459
1126	0.0134895
1138	0.0197892
1150	0.0170775
1162	0.0213417
1174	0.0278622
1186	0.0337203
1198	0.036984
1210	0.0258612
1222	0.0192786
1234	0.0204102
1246	0.0256887
1258	0.0384261
1270	0.0407445
1282	0.0234531
1294	0.0178641
1306	0.0109089
1318	0.0086181
1330	0.0080799
1342	0.00759
1354	0.0082938
1366	0.0096393
1378	0.0114471
1390	0.0096807
1402	0.0046989
1414	0.0038847
1426	0.0053337
1438	0.008349
1450	0.0072174
1462	0.0073347
1474	0.0042642
1486	0.0022701
1498	0.0016215
1510	0.0012282
1522	0.0009798
1534	0.0008418
1546	0.0007728
1558	0.0007245
1570	0.0007452
1582	0.0006969
1594	0.0007107
1606	0.0006693
1618	0.0007038
1630	0.0007728
1642	0.000828
1654	0.0008901
1666	0.0010971
1678	0.0019251
1690	0.0032637
1702	0.006279
1714	0.0174156
1726	0.0298218
1738	0.0242466
1750	0.0367218
1762	0.0658122
1774	0.0446844
1786	0.012765
1798	0.0057753
1810	0.0038226
1822	0.0020769
1834	0.0003312
1846	0.0002277
1858	0.0007935
1870	0.0009108
1882	0.0008142
1894	0.0006762
1906	0.0005451
1918	0.0004761
1930	0.000414
1942	0.0003864
1954	0.0004002
1966	0.0004071
1978	0.0004002
1990	0.0004347
2002	0.0003933
2014	0.0004002
2026	0.0004071
2038	0.0003933
2050	0.0003795
2062	0.0003174
2074	0.0003036
2086	0.0003105
2098	0.0002484
2110	0.0002208
2122	0.0002208
2134	0.0002001
2146	0.0001863
2158	0.0001656
2170	0.0001794
2182	0.0001449
2194	0.0001794
2206	0.0001794
2218	0.0001656
2230	0.0001656
2242	0.0001725
2254	0.0001173
2266	0.0001035
2278	0.0001449
2290	0.000138
2302	0.0001173
2314	0.0001035
2326	9.66e-05
2338	8.97e-05
2350	0.0001035
2362	0.0001173
2374	0.0001794
2386	0.0002277
2398	0.0002208
2410	0.000207
2422	0.0001863
2434	0.000207
2446	0.0001794
2458	0.0001932
2470	0.0001587
2482	0.0001035
2494	8.28e-05
2506	2.76e-05
2518	7.59e-05
2530	3.45e-05
2542	4.14e-05
2554	3.45e-05
2566	5.52e-05
2578	0.0001035
2590	0.0001173
2602	0.0001173
2614	8.28e-05
2626	4.83e-05
2638	9.66e-05
2650	9.66e-05
2662	8.28e-05
2674	7.59e-05
2686	5.52e-05
2698	0.0001311
2710	0.0001035
2722	0.0001173
2734	0.0001725
2746	0.0002139
2758	0.0001587
2770	0.0001932
2782	0.0002622
2794	0.0002829
2806	0.0003105
2818	0.000483
2830	0.0007452
2842	0.001242
2854	0.001656
2866	0.0016905
2878	0.0024426
2890	0.0030222
2902	0.0029256
2914	0.0035466
2926	0.0047679
2938	0.0078246
2950	0.0102534
2962	0.0112608
2974	0.0086388
2986	0.0104535
2998	0.0070794
3010	0.0036846
3022	0.0024978
3034	0.0019665
3046	0.0012627
3058	0.0008901
3070	0.0007521
3082	0.0007383
3094	0.0006624
3106	0.0006003
3118	0.000552
3130	0.0004554
3142	0.000414
3154	0.0003726
3166	0.0003864
3178	0.0003588
3190	0.0003381
3202	0.0003174
3214	0.0002691
3226	0.0002415
3238	0.0002484
3250	0.0002484
3262	0.0002139
3274	0.0002139
3286	0.0002139
3298	0.0002139
3310	0.0002553
3322	0.0002553
3334	0.0002484
3346	0.0002415
3358	0.0002829
3370	0.0002829
3382	0.000345
3394	0.0004416
3406	0.0004623
3418	0.0005796
3430	0.000621
3442	0.0005589
3454	0.0004209
3466	0.0004623
3478	0.0005796
3490	0.0007245
3502	0.0009108
3514	0.0009246
3526	0.0008004
3538	0.0006348
3550	0.0004554
3562	0.0003381
3574	0
3586	0.0002553
3598	0.0002622
3610	0.0003381
3622	0.0003864
3634	0.0003726
3646	0.0003519
3658	0.000345
3670	0.0003105
3682	0.0003312
3694	0.0003795
3706	0.0003795
3718	0.0004002
3730	0.0003381
3742	0.0003657
3754	0.0003795
3766	0.0003726
3778	0.000345
3790	0.0004209
3802	0.0003864
3814	0.0004278
3826	0.0003588
3838	0.0004485
