Infrared Spectrum: Diphenylphosphonic azide
Formula: C 12 H 10 N 3 O 3 P
CAS: 26386-88-9
State: gas
Origin: EPA-IR VAPOR PHASE LIBRARY
1/CM	ABSORBANCE
549.8	0.01181
559.445	0.01604
569.09	0.01804
578.735	0.0194
588.38	0.02119
598.025	0.02939
607.67	0.03762
617.315	0.03873
626.96	0.02454
636.605	0.01272
646.251	0.0087
655.896	0.00842
665.541	0.01045
675.186	0.01528
684.831	0.02627
694.476	0.02129
704.121	0.01274
713.766	0.01046
723.411	0.01161
733.056	0.01659
742.701	0.02676
752.346	0.03966
761.991	0.05532
771.636	0.08032
781.281	0.09264
790.926	0.06375
800.571	0.02611
810.216	0.01396
819.861	0.0106
829.507	0.00704
839.152	0.00606
848.797	0.00605
858.442	0.00656
868.087	0.00775
877.732	0.00946
887.377	0.01243
897.022	0.01826
906.667	0.02359
916.312	0.03183
925.957	0.06176
935.602	0.12498
945.247	0.17182
954.892	0.23961
964.537	0.23628
974.182	0.12964
983.827	0.07259
993.472	0.04066
1003.12	0.04211
1012.76	0.04976
1022.41	0.0485
1032.05	0.03244
1041.7	0.01145
1051.34	0.00885
1060.99	0.00955
1070.63	0.01019
1080.28	0.00736
1089.92	0.00588
1099.57	0.00607
1109.21	0.00692
1118.86	0.00804
1128.5	0.00971
1138.15	0.0136
1147.79	0.02534
1157.44	0.07337
1167.08	0.11081
1176.73	0.10488
1186.37	0.25072
1196.02	0.21213
1205.66	0.16217
1215.31	0.13859
1224.95	0.082
1234.6	0.05855
1244.24	0.03941
1253.89	0.04013
1263.53	0.06002
1273.18	0.08974
1282.82	0.06125
1292.47	0.03689
1302.11	0.04276
1311.76	0.06074
1321.4	0.06943
1331.05	0.05888
1340.69	0.03648
1350.34	0.01954
1359.98	0.01178
1369.63	0.00867
1379.27	0.00758
1388.92	0.00714
1398.56	0.00687
1408.21	0.00666
1417.85	0.00636
1427.5	0.00594
1437.14	0.00675
1446.79	0.00848
1456.43	0.01181
1466.08	0.01736
1475.73	0.0328
1485.37	0.10238
1495.02	0.12161
1504.66	0.03426
1514.31	0.01494
1523.95	0.00959
1533.6	0.00768
1543.24	0.0072
1552.89	0.00828
1562.53	0.01145
1572.18	0.02045
1581.82	0.0406
1591.47	0.05928
1601.11	0.03712
1610.76	0.01332
1620.4	0.00667
1630.05	0.00441
1639.69	0.00368
1649.34	0.00343
1658.98	0.00333
1668.63	0.00315
1678.27	0.00326
1687.92	0.00348
1697.56	0.0038
1707.21	0.00427
1716.85	0.00468
1726.5	0.00455
1736.14	0.00386
1745.79	0.00346
1755.43	0.00334
1765.08	0.00399
1774.72	0.0048
1784.37	0.00376
1794.01	0.00287
1803.66	0.0025071
1813.3	0.0021754
1822.95	0.0021337
1832.59	0.0023221
1842.24	0.0027459
1851.88	0.00339
1861.53	0.00385
1871.17	0.00405
1880.82	0.00394
1890.46	0.00372
1900.11	0.00389
1909.75	0.00447
1919.4	0.00523
1929.04	0.00595
1938.69	0.00608
1948.33	0.00568
1957.98	0.00517
1967.62	0.00436
1977.27	0.00398
1986.91	0.00354
1996.56	0.00318
2006.2	0.00285
2015.85	0.00277
2025.49	0.00294
2035.14	0.00315
2044.78	0.00334
2054.43	0.00362
2064.07	0.00378
2073.72	0.00383
2083.36	0.00408
2093.01	0.00489
2102.65	0.00633
2112.3	0.00932
2121.94	0.01556
2131.59	0.0273
2141.23	0.04932
2150.88	0.09429
2160.52	0.18931
2170.17	0.25018
2179.81	0.12687
2189.46	0.04698
2199.1	0.02272
2208.75	0.01183
2218.39	0.00752
2228.04	0.00549
2237.68	0.00448
2247.33	0.00389
2256.97	0.00357
2266.62	0.00334
2276.26	0.00313
2285.91	0.003
2295.55	0.00295
2305.2	0.00292
2314.84	0.00293
2324.49	0.0027135
2334.13	0.0025082
2343.78	0.0025485
2353.42	0.0024928
2363.07	0.002556
2372.72	0.0026775
2382.36	0.00281
2392.01	0.0028
2401.65	0.0026969
2411.3	0.0024675
2420.94	0.00236
2430.59	0.002447
2440.23	0.0024938
2449.88	0.0024829
2459.52	0.0026536
2469.17	0.00288
2478.81	0.00322
2488.46	0.00306
2498.1	0.00292
2507.75	0.00301
2517.39	0.00314
2527.04	0.00331
2536.68	0.00334
2546.33	0.00288
2555.97	0.0023881
2565.62	0.0020721
2575.26	0.0019033
2584.91	0.001657
2594.55	0.001542
2604.2	0.001469
2613.84	0.001595
2623.49	0.00141
2633.13	0.001289
2642.78	0.001185
2652.42	0.001171
2662.07	0.001123
2671.71	0.001023
2681.36	0.000983
2691	0.000986
2700.65	0.000944
2710.29	0.000961
2719.94	0.000933
2729.58	0.000903
2739.23	0.000857
2748.87	0.00071
2758.52	0.000788
2768.16	0.00074
2777.81	0.00079
2787.45	0.00071
2797.1	0.00075
2806.74	0.00065
2816.39	0.0006
2826.03	0.00051
2835.68	0.00062
2845.32	0.00053
2854.97	0.00066
2864.61	0.00073
2874.26	0.000822
2883.9	0.000978
2893.55	0.000875
2903.19	0.001036
2912.84	0.001176
2922.48	0.001048
2932.13	0.001195
2941.77	0.001308
2951.42	0.001531
2961.06	0.001325
2970.71	0.00088
2980.35	0.00064
2990	0.00064
2999.64	0.00072
3009.29	0.001275
3018.93	0.0023314
3028.58	0.00395
3038.22	0.00714
3047.87	0.01142
3057.51	0.01133
3067.16	0.01238
3076.8	0.01861
3086.45	0.01756
3096.09	0.00826
3105.74	0.00592
3115.38	0.003
3125.03	0.001416
3134.67	0.000782
3144.32	0.00044
3153.96	0.00038
3163.61	0.00036
3173.25	0.00041
3182.9	0.00038
3192.54	0.00038
3202.19	0.00038
3211.83	0.0001
3221.48	0.00025
3231.12	0.00031
3240.77	0.00012
3250.41	0.00018
3260.06	0.00023
3269.7	0.00027
3279.35	0.00016
3289	0.00035
3298.64	0.00035
3308.29	0.00043
3317.93	0.00037
3327.58	0.00064
3337.22	0.00075
3346.87	0.00064
3356.51	0.000852
3366.16	0.001104
3375.8	0.00144
3385.45	0.001395
3395.09	0.001506
3404.74	0.00184662
3414.38	0.002453
3424.03	0.0025517
3433.67	0.002367
3443.32	0.0016689
3452.96	0.001102
3462.61	0.000824
3472.25	0.00087
3481.9	0.000783
3491.54	0.00066
3501.19	0.00075
3510.83	0.00052
3520.48	0.00046
3530.12	0.00051
3539.77	0.00046
3549.41	0.00055
3559.06	0.00057
3568.7	0.00046
3578.35	0.00055
3587.99	0.00049
3597.64	0.00062
3607.28	0.00058
3616.93	0.00043
3626.57	0.00047
3636.22	0.00065
3645.86	0.00075
3655.51	0.00069
3665.15	0.00061
3674.8	0.00057
3684.44	0.00058
3694.09	0.00069
3703.73	0.00058
3713.38	0.0005
3723.02	0.00064
3732.67	0.00047
3742.31	0.00049
3751.96	0.00035
3761.6	0.00044
3771.25	0.00059
3780.89	0.00062
3790.54	0.00043
3800.18	0.00043
3809.83	0.0007
3819.47	0.00044
3829.12	0.00043
3838.76	0.00044
3848.41	0.00048
3858.05	0.00044
3867.7	0.00041
3877.34	0.00047
3886.99	0.00048
3896.63	0.00045
3906.28	0.00061
3915.92	0.00022
3925.57	0.00042
3935.21	0.00036
3944.86	0.0006
3954.5	0.00048
3964.15	0.00036
3973.79	0.00061
3983.44	0.0005
3993.08	0.00051
