Infrared Spectrum: N-(2-Chloroethyl)benzamide
Formula: C 9 H 10 Cl N O
CAS: 26385-07-9
State: gas
Origin: EPA-IR VAPOR PHASE LIBRARY
1/CM	ABSORBANCE
549.9	0.000243
559.547	0.000304
569.193	0.000185
578.84	0.000392
588.486	0.000363
598.133	0.000356
607.779	0.000436
617.426	0.000535
627.072	0.000538
636.719	0.000493
646.365	0.000609
656.012	0.0007877
665.658	0.001476
675.305	0.00332
684.951	0.00461
694.598	0.0046
704.245	0.00305
713.891	0.001433
723.538	0.0009415
733.184	0.0007741
742.831	0.00083453
752.477	0.0010001
762.124	0.0013983
771.77	0.0018087
781.417	0.001476
791.063	0.0009649
800.71	0.00080499
810.356	0.00066
820.003	0.000663
829.649	0.000631
839.296	0.000626
848.943	0.000685
858.589	0.0007802
868.236	0.0010017
877.882	0.0011493
887.529	0.0014195
897.175	0.0014056
906.822	0.001116
916.468	0.0011168
926.115	0.0013888
935.761	0.00267
945.408	0.00346
955.054	0.00244
964.701	0.00257
974.347	0.00324
983.994	0.00204
993.64	0.0012561
1003.29	0.0013041
1012.93	0.00198
1022.58	0.00364
1032.23	0.00363
1041.87	0.00262
1051.52	0.0044
1061.17	0.00637
1070.81	0.0066
1080.46	0.00438
1090.11	0.00207
1099.75	0.0015539
1109.4	0.0015091
1119.05	0.0014539
1128.69	0.0014933
1138.34	0.0015186
1147.99	0.0016047
1157.63	0.0014778
1167.28	0.0018032
1176.92	0.00227
1186.57	0.00212
1196.22	0.00194
1205.86	0.00185
1215.51	0.0021
1225.16	0.0022
1234.8	0.00231
1244.45	0.00301
1254.1	0.00342
1263.74	0.00289
1273.39	0.0015768
1283.04	0.0010713
1292.68	0.0010073
1302.33	0.0013276
1311.98	0.0019
1321.62	0.00278
1331.27	0.00381
1340.92	0.00485
1350.56	0.00529
1360.21	0.00435
1369.86	0.00258
1379.5	0.0015144
1389.15	0.001274
1398.79	0.0011857
1408.44	0.001191
1418.09	0.0011488
1427.73	0.0012382
1437.38	0.0014444
1447.03	0.00194
1456.67	0.00192
1466.32	0.0014227
1475.97	0.0014426
1485.61	0.0017382
1495.26	0.002
1504.91	0.0017777
1514.55	0.0013193
1524.2	0.0011805
1533.85	0.0011856
1543.49	0.0012397
1553.14	0.0012331
1562.79	0.0013339
1572.43	0.0015929
1582.08	0.00181
1591.73	0.0016915
1601.37	0.0016846
1611.02	0.0016524
1620.67	0.0016406
1630.31	0.00206
1639.96	0.00392
1649.6	0.00689
1659.25	0.00717
1668.9	0.00432
1678.54	0.00244
1688.19	0.0017397
1697.84	0.0015703
1707.48	0.0013537
1717.13	0.0011398
1726.78	0.0010413
1736.42	0.000969
1746.07	0.0009638
1755.72	0.0009972
1765.36	0.0010379
1775.01	0.0010249
1784.66	0.0009979
1794.3	0.0010031
1803.95	0.0011291
1813.6	0.0010937
1823.24	0.0009747
1832.89	0.0009684
1842.54	0.0009535
1852.18	0.0009286
1861.83	0.0009194
1871.47	0.0009228
1881.12	0.0009476
1890.77	0.0010388
1900.41	0.0010334
1910.06	0.0010649
1919.71	0.0010053
1929.35	0.0009812
1939	0.0010428
1948.65	0.0011193
1958.29	0.0011287
1967.94	0.0010487
1977.59	0.0009623
1987.23	0.00090742
1996.88	0.0009418
2006.53	0.00088274
2016.17	0.00087209
2025.82	0.00090803
2035.47	0.00082875
2045.11	0.00084674
2054.76	0.000812408
2064.41	0.000811243
2074.05	0.00082194
2083.7	0.0007454
2093.35	0.000817226
2102.99	0.0007807
2112.64	0.0007548
2122.28	0.0007726
2131.93	0.000778
2141.58	0.0007759
2151.22	0.0007931
2160.87	0.0007698
2170.52	0.000708
2180.16	0.0007133
2189.81	0.0007349
2199.46	0.0007295
2209.1	0.0007178
2218.75	0.000707
2228.4	0.000685
2238.04	0.000704
2247.69	0.000688
2257.34	0.0007291
2266.98	0.000694
2276.63	0.0007274
2286.28	0.0007122
2295.92	0.000698
2305.57	0.000702
2315.22	0.0007284
2324.86	0.0007197
2334.51	0.000679
2344.16	0.000671
2353.8	0.000623
2363.45	0.000628
2373.09	0.000639
2382.74	0.000676
2392.39	0.000686
2402.03	0.000634
2411.68	0.000647
2421.33	0.00059
2430.97	0.00058
2440.62	0.000606
2450.27	0.000617
2459.91	0.000613
2469.56	0.000563
2479.21	0.000549
2488.85	0.000568
2498.5	0.000585
2508.15	0.000577
2517.79	0.000506
2527.44	0.000591
2537.09	0.000491
2546.73	0.000581
2556.38	0.000496
2566.03	0.000546
2575.67	0.000494
2585.32	0.000503
2594.96	0.000495
2604.61	0.000514
2614.26	0.000499
2623.9	0.000446
2633.55	0.00047
2643.2	0.000466
2652.84	0.000421
2662.49	0.000459
2672.14	0.000415
2681.78	0.000424
2691.43	0.000356
2701.08	0.000328
2710.72	0.000409
2720.37	0.000289
2730.02	0.000307
2739.66	0.000337
2749.31	0.000396
2758.96	0.000288
2768.6	0.000293
2778.25	0.000297
2787.9	0.000267
2797.54	0.000337
2807.19	0.000363
2816.84	0.000289
2826.48	0.000373
2836.13	0.000403
2845.77	0.000347
2855.42	0.000424
2865.07	0.000614
2874.71	0.0009797
2884.36	0.00185
2894.01	0.00234
2903.65	0.00225
2913.3	0.00216
2922.95	0.0014765
2932.59	0.0014527
2942.24	0.00228
2951.89	0.00278
2961.53	0.00282
2971.18	0.00328
2980.83	0.00303
2990.47	0.00182
3000.12	0.000696
3009.77	0.000514
3019.41	0.000486
3029.06	0.000569
3038.71	0.0007262
3048.35	0.0010004
3058	0.0011702
3067.64	0.0017167
3077.29	0.0017685
3086.94	0.0010903
3096.58	0.0007269
3106.23	0.000437
3115.88	0.000234
3125.52	0.000249
3135.17	7.1e-05
3144.82	7.1e-05
3154.46	3.7e-05
3164.11	3.3e-05
3173.76	5.9e-05
3183.4	0.000185
3193.05	0.000179
3202.7	1.1e-05
3212.34	0.000209
3221.99	0.000204
3231.64	0.000182
3241.28	0.000189
3250.93	0.000112
3260.58	0.000185
3270.22	0.000143
3279.87	0.000289
3289.52	0.000237
3299.16	0.000283
3308.81	0.000393
3318.45	0.000359
3328.1	0.000147
3337.75	0.00031
3347.39	0.000251
3357.04	0.000294
3366.69	0.000298
3376.33	0.00028
3385.98	0.000354
3395.63	0.000399
3405.27	0.000385
3414.92	0.000256
3424.57	0.000255
3434.21	0.000414
3443.86	0.000376
3453.51	0.000297
3463.15	0.000537
3472.8	0.000282
3482.45	0.000382
3492.09	0.000474
3501.74	0.000602
3511.39	0.000528
3521.03	0.000418
3530.68	0.000468
3540.33	0.000453
3549.97	0.000512
3559.62	0.000538
3569.26	0.000457
3578.91	0.00043
3588.56	0.000391
3598.2	0.000613
3607.85	0.000489
3617.5	0.000575
3627.14	0.000495
3636.79	0.000574
3646.44	0.000441
3656.08	0.000519
3665.73	0.000508
3675.38	0.000538
3685.02	0.000495
3694.67	0.000502
3704.32	0.000481
3713.96	0.00044
3723.61	0.000446
3733.26	0.000475
3742.9	0.000392
3752.55	0.000484
3762.2	0.00054
3771.84	0.000456
3781.49	0.000425
3791.13	0.000471
3800.78	0.000437
3810.43	0.000507
3820.07	0.000501
3829.72	0.000486
3839.37	0.000419
3849.01	0.000549
3858.66	0.000498
3868.31	0.000465
3877.95	0.000445
3887.6	0.000435
3897.25	0.000494
3906.89	0.000555
3916.54	0.000572
3926.19	0.000562
3935.83	0.000421
3945.48	0.000561
3955.13	0.00055
3964.77	0.000519
3974.42	0.000423
3984.07	0.000456
3993.71	0.00047
