Infrared Spectrum: Hexylamine, 2-ethyl-, hydrochloride
Formula: C8 H20 Cl N
CAS: 26392-49-4
State: SEMI-SOLID (NEAT)
Class: COBLENTZ III
Instrument: PERKIN-ELMER 157
Sampling: TRANSMISSION
Path length: CAPILLARY
Resolution: 2
Origin: BRITISH PETROLEUM CO. LTD., ENGLAND
1/CM	TRANSMITTANCE
668	0.6513
677	0.6721
686	0.688
695	0.691
704	0.6776
713	0.6017
722	0.397
731	0.3287
740	0.5169
749	0.5769
758	0.4459
767	0.353
776	0.3493
785	0.3665
794	0.5026
803	0.4843
812	0.4268
821	0.465
830	0.5168
839	0.5704
848	0.5339
857	0.4068
866	0.3037
875	0.2627
884	0.2442
893	0.2893
902	0.3608
911	0.3448
920	0.2563
929	0.1715
938	0.1638
947	0.1848
956	0.1935
965	0.1758
974	0.184
983	0.3948
992	0.3955
1001	0.3365
1010	0.2643
1019	0.1813
1028	0.1318
1037	0.1784
1046	0.1792
1055	0.1903
1064	0.1684
1073	0.1352
1082	0.1204
1091	0.1209
1100	0.2128
1109	0.4584
1118	0.4977
1127	0.4729
1136	0.3439
1145	0.3391
1154	0.3256
1163	0.1808
1172	0.1148
1181	0.139
1190	0.3313
1199	0.4663
1208	0.455
1217	0.418
1226	0.3737
1235	0.4475
1244	0.421
1253	0.3944
1262	0.3827
1271	0.3023
1280	0.3223
1289	0.2968
1298	0.2628
1307	0.262
1316	0.2625
1325	0.2613
1334	0.2536
1343	0.2402
1352	0.2645
1361	0.2218
1370	0.1609
1379	0.0335
1388	0.0333
1397	0.0604
1406	0.167
1415	0.2153
1424	0.1908
1433	0.1326
1442	0.0242
1451	0.015
1460	0.0151
1469	0.0194
1478	0.0288
1487	0.0285
1496	0.0293
1505	0.0304
1514	0.0309
1523	0.0318
1532	0.0359
1541	0.0642
1550	0.0699
1559	0.0649
1568	0.0481
1577	0.0233
1586	0.0145
1595	0.0142
1604	0.014
1613	0.0163
1622	0.0291
1631	0.0334
1640	0.1359
1649	0.1901
1658	0.3046
1667	0.3208
1676	0.3795
1685	0.4331
1694	0.451
1703	0.4748
1712	0.4793
1721	0.4974
1730	0.5022
1739	0.5386
1748	0.5471
1757	0.5699
1766	0.5711
1775	0.5722
1784	0.5724
1793	0.5713
1802	0.5681
1811	0.5581
1820	0.5491
1829	0.5433
1838	0.54
1847	0.5377
1856	0.5274
1865	0.51
1874	0.4971
1883	0.4615
1892	0.4294
1901	0.3901
1910	0.3628
1919	0.3374
1928	0.3182
1937	0.2895
1946	0.2622
1955	0.2379
1964	0.2169
1973	0.1989
1982	0.1809
1991	0.1665
2000	0.1598
2009	0.16
2018	0.1614
2027	0.1656
2036	0.1803
2045	0.2091
2054	0.2609
2063	0.3271
2072	0.3928
2081	0.4437
2090	0.5165
2099	0.5632
2108	0.5907
2117	0.6085
2126	0.6216
2135	0.6313
2144	0.638
2153	0.6425
2162	0.6433
2171	0.6433
2180	0.6431
2189	0.6434
2198	0.6437
2207	0.6438
2216	0.6434
2225	0.641
2234	0.6348
2243	0.6273
2252	0.6216
2261	0.6179
2270	0.615
2279	0.6133
2288	0.6112
2297	0.6036
2306	0.5846
2315	0.5473
2324	0.5132
2333	0.4887
2342	0.4537
2351	0.4263
2360	0.3991
2369	0.3721
2378	0.358
2387	0.3351
2396	0.3104
2405	0.2874
2414	0.2701
2423	0.2508
2432	0.2379
2441	0.2251
2450	0.2103
2459	0.189
2468	0.1631
2477	0.1425
2486	0.1227
2495	0.0989
2504	0.0803
2513	0.0645
2522	0.0527
2531	0.0418
2540	0.0299
2549	0.0191
2558	0.0121
2567	0.0075
2576	0.0061
2585	0.0049
2594	0.0045
2603	0.0042
2612	0.0041
2621	0.0041
2630	0.0041
2639	0.004
2648	0.004
2657	0.0038
2666	0.0038
2675	0.0037
2684	0.0037
2693	0.0037
2702	0.0036
2711	0.0036
2720	0.0036
2729	0.0037
2738	0.0038
2747	0.0039
2756	0.004
2765	0.0041
2774	0.0041
2783	0.0042
2792	0.0043
2801	0.0044
2810	0.0046
2819	0.0052
2828	0.0057
2837	0.0067
2846	0.0076
2855	0.0093
2864	0.0108
2873	0.0121
2882	0.013
2891	0.0134
2900	0.0139
2909	0.0141
2918	0.0144
2927	0.0145
2936	0.0145
2945	0.0144
2954	0.0144
2963	0.0144
2972	0.0143
2981	0.0143
2990	0.0143
2999	0.0142
3008	0.0142
3017	0.0142
3026	0.0141
3035	0.0141
3044	0.0141
3053	0.0141
3062	0.0141
3071	0.0141
3080	0.014
3089	0.014
3098	0.0135
3107	0.0131
3116	0.0126
3125	0.0121
3134	0.0116
3143	0.0118
3152	0.0121
3161	0.0129
3170	0.0144
3179	0.0163
3188	0.0188
3197	0.0225
3206	0.0271
3215	0.0308
3224	0.0511
3233	0.0872
3242	0.1233
3251	0.159
3260	0.1946
3269	0.23
3278	0.2652
3287	0.3002
3296	0.335
3305	0.3647
3314	0.3731
3323	0.3747
3332	0.3755
3341	0.3756
3350	0.3749
3359	0.3695
3368	0.3581
3377	0.3493
3386	0.3431
3395	0.3321
3404	0.3239
3413	0.316
3422	0.3098
3431	0.3077
3440	0.3074
3449	0.308
3458	0.3063
3467	0.3128
3476	0.317
3485	0.328
3494	0.3381
3503	0.3487
3512	0.3605
3521	0.3724
3530	0.3848
3539	0.4056
3548	0.4189
3557	0.4336
3566	0.4704
3575	0.5007
3584	0.5332
3593	0.5793
3602	0.6251
3611	0.6707
3620	0.7331
3629	0.8031
3638	0.8265
3647	0.8412
3656	0.8534
3665	0.8792
3674	0.8894
3683	0.8931
3692	0.8953
3701	0.8962
3710	0.897
3719	0.8972
3728	0.8972
3737	0.8967
3746	0.8895
3755	0.8849
3764	0.8818
3773	0.8793
3782	0.8764
3791	0.8725
3800	0.8694
3809	0.867
3818	0.8652
3827	0.864
3836	0.8627
3845	0.8618
3854	0.8612
3863	0.8606
3872	0.8599
3881	0.8593
3890	0.8586
3899	0.8573
3908	0.8556
3917	0.8527
3926	0.8478
3935	0.8408
3944	0.8357
3953	0.8306
3962	0.8248
3971	0.8187
3980	0.8127
3989	0.8068
3998	0.8011
