Infrared Spectrum: 1,3-Dithiolane-1,1,3,3-tetraoxide
Formula: C 3 H 6 O 4 S 2
CAS: 26413-19-4
State: gas
Origin: EPA-IR VAPOR PHASE LIBRARY
1/CM	ABSORBANCE
549.8	0.0019627
559.445	0.00165401
569.09	0.002151
578.734	0.00160347
588.379	0.0018973
598.024	0.0023012
607.669	0.0022056
617.313	0.0022511
626.958	0.0018802
636.603	0.001491
646.248	0.0021446
655.893	0.00355
665.537	0.00538
675.182	0.00686
684.827	0.00826
694.472	0.00776
704.116	0.00494
713.761	0.00286
723.406	0.0018864
733.051	0.00135
742.695	0.00166422
752.34	0.0019399
761.985	0.001468
771.63	0.002323
781.275	0.00304
790.919	0.00343
800.564	0.00521
810.209	0.00773
819.854	0.01244
829.498	0.01356
839.143	0.00914
848.788	0.00495
858.433	0.00392
868.078	0.00536
877.722	0.00581
887.367	0.00357
897.012	0.0020986
906.657	0.0019565
916.301	0.0021125
925.946	0.0029
935.591	0.00294
945.236	0.0020109
954.88	0.0020347
964.525	0.00164333
974.17	0.001393
983.815	0.0021422
993.46	0.00159054
1003.1	0.0015297
1012.75	0.000681
1022.39	0.0015123
1032.04	0.001022
1041.68	0.000936
1051.33	0.001255
1060.97	0.0023577
1070.62	0.0017835
1080.26	0.000926
1089.91	0.00493
1099.55	0.01159
1109.2	0.01789
1118.84	0.01275
1128.49	0.00463
1138.13	0.0048
1147.78	0.00488
1157.42	0.01066
1167.07	0.0366
1176.71	0.04875
1186.36	0.02947
1196	0.00783
1205.64	0.00452
1215.29	0.00386
1224.93	0.00398
1234.58	0.00455
1244.22	0.00538
1253.87	0.00932
1263.51	0.01343
1273.16	0.01017
1282.8	0.00502
1292.45	0.00357
1302.09	0.00295
1311.74	0.00349
1321.38	0.00508
1331.03	0.00646
1340.67	0.00841
1350.32	0.01526
1359.96	0.03823
1369.61	0.06732
1379.25	0.06172
1388.9	0.0255
1398.54	0.00665
1408.18	0.00416
1417.83	0.00411
1427.47	0.0034
1437.12	0.0021764
1446.76	0.0018235
1456.41	0.001469
1466.05	0.001767
1475.7	0.0015629
1485.34	0.001296
1494.99	0.0015652
1504.63	0.0015273
1514.28	0.0015801
1523.92	0.001375
1533.57	0.00161213
1543.21	0.001432
1552.86	0.001306
1562.5	0.001315
1572.15	0.0016424
1581.79	0.001452
1591.44	0.00168897
1601.08	0.0017865
1610.73	0.00160736
1620.37	0.0015615
1630.01	0.0015205
1639.66	0.001526
1649.3	0.00161012
1658.95	0.00145
1668.59	0.001496
1678.24	0.001467
1687.88	0.0015213
1697.53	0.001414
1707.17	0.0015364
1716.82	0.0015456
1726.46	0.001656
1736.11	0.00164594
1745.75	0.001424
1755.4	0.001721
1765.04	0.001431
1774.69	0.0015777
1784.33	0.00154
1793.98	0.00161012
1803.62	0.0014
1813.27	0.001438
1822.91	0.001451
1832.55	0.001393
1842.2	0.001409
1851.84	0.001365
1861.49	0.001447
1871.13	0.001406
1880.78	0.001335
1890.42	0.001411
1900.07	0.001446
1909.71	0.001388
1919.36	0.001465
1929	0.001484
1938.65	0.001298
1948.29	0.001405
1957.94	0.001482
1967.58	0.0013
1977.23	0.001452
1986.87	0.00131
1996.52	0.001379
2006.16	0.00118
2015.81	0.001444
2025.45	0.001391
2035.1	0.001408
2044.74	0.001481
2054.38	0.001319
2064.03	0.001452
2073.67	0.001267
2083.32	0.001345
2092.96	0.001391
2102.61	0.001409
2112.25	0.001214
2121.9	0.001077
2131.54	0.001303
2141.19	0.001491
2150.83	0.001373
2160.48	0.001165
2170.12	0.001265
2179.77	0.001267
2189.41	0.001432
2199.06	0.00136
2208.7	0.001356
2218.35	0.001323
2227.99	0.0015449
2237.64	0.001428
2247.28	0.001485
2256.92	0.001422
2266.57	0.001272
2276.21	0.00159267
2285.86	0.0015132
2295.5	0.001363
2305.15	0.00143
2314.79	0.001244
2324.44	0.001304
2334.08	0.0015383
2343.73	0.001507
2353.37	0.001459
2363.02	0.001365
2372.66	0.001339
2382.31	0.001367
2391.95	0.001383
2401.6	0.001338
2411.24	0.00118
2420.89	0.001375
2430.53	0.001229
2440.18	0.001128
2449.82	0.00118
2459.47	0.00127
2469.11	0.0015088
2478.75	0.0015835
2488.4	0.00162254
2498.04	0.001339
2507.69	0.001247
2517.33	0.00159706
2526.98	0.001259
2536.62	0.0015816
2546.27	0.001273
2555.91	0.0015201
2565.56	0.0015525
2575.2	0.001394
2584.85	0.001135
2594.49	0.001257
2604.14	0.00138
2613.78	0.001112
2623.43	0.001386
2633.07	0.000998
2642.72	0.000932
2652.36	0.001023
2662.01	0.00122
2671.65	0.001449
2681.29	0.000782
2690.94	0.001311
2700.58	0.001071
2710.23	0.001462
2719.87	0.001233
2729.52	0.0015739
2739.16	0.0015803
2748.81	0.001071
2758.45	0.00162464
2768.1	0.001236
2777.74	0.001233
2787.39	0.001226
2797.03	0.001165
2806.68	0.0015335
2816.32	0.001364
2825.97	0.001268
2835.61	0.00099
2845.26	0.001367
2854.9	0.001193
2864.55	0.001382
2874.19	0.001014
2883.84	0.001077
2893.48	0.001329
2903.12	0.000967
2912.77	0.000921
2922.41	0.001305
2932.06	0.000856
2941.7	0.001348
2951.35	0.0018311
2960.99	0.0019657
2970.64	0.0025839
2980.28	0.00159575
2989.93	0.0016557
2999.57	0.0015853
3009.22	0.001843
3018.86	0.0017221
3028.51	0.0017555
3038.15	0.0023589
3047.8	0.0024708
3057.44	0.0018586
3067.09	0.001221
3076.73	0.001324
3086.38	0.0015797
3096.02	0.001426
3105.67	0.001288
3115.31	0.0015163
3124.95	0.000657
3134.6	0.00168385
3144.24	0.001223
3153.89	0.00159312
3163.53	0.000972
3173.18	0.001286
3182.82	0.001158
3192.47	0.001303
3202.11	0.001032
3211.76	0.000631
3221.4	0.001325
3231.05	0.0015434
3240.69	0.0015056
3250.34	0.00164883
3259.98	0.000682
3269.63	0.001272
3279.27	0.001367
3288.92	0.001364
3298.56	0.00103
3308.21	0.0019359
3317.85	0.001294
3327.49	0.00147
3337.14	0.001142
3346.78	0.001335
3356.43	0.001417
3366.07	0.0018324
3375.72	0.001402
3385.36	0.000864
3395.01	0.001402
3404.65	0.00111
3414.3	0.001219
3423.94	0.001063
3433.59	0.0015051
3443.23	0.001368
3452.88	0.0013
3462.52	0.001478
3472.17	0.001238
3481.81	0.000947
3491.46	0.001469
3501.1	0.0019749
3510.75	0.0017663
3520.39	0.0017063
3530.04	0.001485
3539.68	0.0017183
3549.32	0.00108
3558.97	0.001388
3568.61	0.001029
3578.26	0.001078
3587.9	0.001441
3597.55	0.001152
3607.19	0.001257
3616.84	0.00136
3626.48	0.0020142
3636.13	0.001392
3645.77	0.001313
3655.42	0.0018131
3665.06	0.0017426
3674.71	0.0018602
3684.35	0.0017193
3694	0.00165069
3703.64	0.001426
3713.29	0.001353
3722.93	0.001354
3732.58	0.00161249
3742.22	0.0015553
3751.86	0.001286
3761.51	0.001266
3771.15	0.001332
3780.8	0.001061
3790.44	0.00119
3800.09	0.001207
3809.73	0.001402
3819.38	0.0016473
3829.02	0.001275
3838.67	0.001262
3848.31	0.000909
3857.96	0.0015551
3867.6	0.001326
3877.25	0.001401
3886.89	0.0019246
3896.54	0.0015667
3906.18	0.001292
3915.83	0.001754
3925.47	0.001081
3935.12	0.0015558
3944.76	0.001442
3954.41	0.001299
3964.05	0.001036
3973.69	0.001156
3983.34	0.001266
3992.98	0.00159667
