Infrared Spectrum: PROPYL RED
Formula: C19 H23 N3 O2
CAS: 2641-01-2
State: SOLID (MINERAL OIL MULL)
Melting point: 174-175 C
Class: COBLENTZ
Instrument: Not specified, most likely a prism, grating, or hybrid spectrometer.
Sampling: TRANSMISSION
Resolution: 4
Origin: WYANDOTTE CHEMICALS CORP., WYANDOTTE, MICHIGAN, USA
MICROMETERS	TRANSMITTANCE
2.025	0.351
2.0621	0.365
2.0992	0.372
2.13631	0.372
2.17341	0.378
2.21051	0.382
2.24761	0.378
2.28471	0.378
2.32181	0.387
2.35892	0.398
2.39602	0.41
2.43312	0.421
2.47022	0.432
2.50732	0.438
2.54442	0.437
2.58153	0.437
2.61863	0.441
2.65573	0.449
2.69283	0.455
2.72993	0.458
2.76704	0.469
2.80414	0.462
2.84124	0.465
2.87834	0.472
2.91544	0.462
2.95254	0.46
2.98965	0.468
3.02675	0.471
3.06385	0.458
3.10095	0.454
3.13805	0.444
3.17515	0.444
3.21226	0.44
3.24936	0.412
3.28646	0.403
3.32356	0.291
3.36066	0.054
3.39777	0.034
3.43487	0.077
3.47197	0.091
3.50907	0.156
3.54617	0.418
3.58327	0.471
3.62038	0.475
3.65748	0.452
3.69458	0.438
3.73168	0.407
3.76878	0.406
3.80588	0.418
3.84299	0.427
3.88009	0.437
3.91719	0.455
3.95429	0.46
3.99139	0.468
4.0285	0.48
4.0656	0.494
4.1027	0.503
4.1398	0.528
4.1769	0.531
4.214	0.533
4.25111	0.527
4.28821	0.533
4.32531	0.553
4.36241	0.59
4.39951	0.601
4.43662	0.592
4.47372	0.603
4.51082	0.609
4.54792	0.634
4.58502	0.64
4.62212	0.657
4.65923	0.672
4.69633	0.685
4.73343	0.694
4.77053	0.71
4.80763	0.73
4.84473	0.731
4.88184	0.727
4.91894	0.731
4.95604	0.753
4.99314	0.759
5.03024	0.765
5.06735	0.762
5.10445	0.764
5.14155	0.775
5.17865	0.796
5.21575	0.803
5.25285	0.818
5.28996	0.832
5.32706	0.821
5.36416	0.837
5.40126	0.871
5.43836	0.869
5.47546	0.91
5.51257	0.928
5.54967	0.928
5.58677	0.937
5.62387	0.936
5.66097	0.903
5.69808	0.77
5.73518	0.508
5.77228	0.289
5.80938	0.258
5.84648	0.271
5.88358	0.32
5.92069	0.35
5.95779	0.4
5.99489	0.516
6.03199	0.578
6.06909	0.641
6.10619	0.669
6.1433	0.592
6.1804	0.224
6.2175	0.062
6.2546	0.19
6.2917	0.392
6.32881	0.503
6.36591	0.545
6.40301	0.479
6.44011	0.446
6.47721	0.618
6.51431	0.409
6.55142	0.285
6.58852	0.435
6.62562	0.539
6.66272	0.347
6.69982	0.235
6.73692	0.291
6.77403	0.15
6.81113	0.175
6.84823	0.26
6.88533	0.431
6.92243	0.581
6.95954	0.751
6.99664	0.821
7.03374	0.702
7.07084	0.725
7.10794	0.722
7.14504	0.48
7.18215	0.133
7.21925	0.083
7.25635	0.125
7.29345	0.134
7.33055	0.083
7.36765	0.168
7.40476	0.286
7.44186	0.231
7.47896	0.266
7.51606	0.339
7.55316	0.35
7.59027	0.249
7.62737	0.279
7.66447	0.21
7.70157	0.275
7.73867	0.441
7.77577	0.334
7.81288	0.094
7.84998	0.13
7.88708	0.198
7.92418	0.317
7.96128	0.345
7.99838	0.243
8.03549	0.252
8.07259	0.373
8.10969	0.477
8.14679	0.589
8.18389	0.66
8.221	0.717
8.2581	0.761
8.2952	0.789
8.3323	0.761
8.3694	0.626
8.4065	0.617
8.44361	0.796
8.48071	0.834
8.51781	0.61
8.55491	0.3
8.59201	0.226
8.62912	0.269
8.66622	0.151
8.70332	0.063
8.74042	0.065
8.77752	0.122
8.81462	0.224
8.85173	0.227
8.88883	0.3
8.92593	0.226
8.96303	0.158
9.00013	0.248
9.03723	0.246
9.07434	0.22
9.11144	0.296
9.14854	0.381
9.18564	0.351
9.22274	0.387
9.25985	0.44
9.29695	0.488
9.33405	0.533
9.37115	0.564
9.40825	0.584
9.44535	0.596
9.48246	0.6
9.51956	0.617
9.55666	0.593
9.59376	0.581
9.63086	0.559
9.66796	0.561
9.70507	0.617
9.74217	0.643
9.77927	0.662
9.81637	0.686
9.85347	0.699
9.89058	0.71
9.92768	0.72
9.96478	0.728
10.0019	0.71
10.039	0.699
10.0761	0.679
10.1132	0.703
10.1503	0.696
10.1874	0.579
10.2245	0.527
10.2616	0.573
10.2987	0.496
10.3358	0.513
10.3729	0.572
10.41	0.598
10.4471	0.62
10.4842	0.654
10.5213	0.685
10.5584	0.683
10.5955	0.691
10.6326	0.691
10.6697	0.739
10.7068	0.755
10.7439	0.761
10.781	0.773
10.8181	0.759
10.8552	0.75
10.8923	0.756
10.9294	0.761
10.9665	0.741
11.0036	0.711
11.0407	0.655
11.0778	0.589
11.1149	0.522
11.152	0.477
11.1891	0.474
11.2262	0.482
11.2633	0.517
11.3004	0.601
11.3375	0.646
11.3746	0.666
11.4117	0.679
11.4488	0.691
11.486	0.716
11.5231	0.745
11.5602	0.776
11.5973	0.8
11.6344	0.815
11.6715	0.82
11.7086	0.829
11.7457	0.838
11.7828	0.831
11.8199	0.826
11.857	0.82
11.8941	0.804
11.9312	0.75
11.9683	0.629
12.0054	0.578
12.0425	0.576
12.0796	0.448
12.1167	0.28
12.1538	0.218
12.1909	0.266
12.228	0.454
12.2651	0.604
12.3022	0.686
12.3393	0.742
12.3764	0.772
12.4135	0.798
12.4506	0.827
12.4877	0.823
12.5248	0.815
12.5619	0.815
12.599	0.792
12.6361	0.761
12.6732	0.741
12.7103	0.756
12.7474	0.815
12.7845	0.838
12.8216	0.844
12.8587	0.837
12.8958	0.821
12.9329	0.747
12.97	0.551
13.0071	0.401
13.0442	0.524
13.0813	0.697
13.1184	0.77
13.1555	0.768
13.1926	0.751
13.2297	0.758
13.2668	0.793
13.3039	0.82
13.341	0.831
13.3781	0.832
13.4152	0.838
13.4523	0.854
13.4894	0.866
13.5265	0.869
13.5637	0.865
13.6008	0.863
13.6379	0.874
13.675	0.879
13.7121	0.834
13.7492	0.761
13.7863	0.708
13.8234	0.75
13.8605	0.809
13.8976	0.831
13.9347	0.854
13.9718	0.88
14.0089	0.91
14.046	0.93
14.0831	0.939
14.1202	0.948
14.1573	0.956
14.1944	0.961
14.2315	0.959
14.2686	0.958
14.3057	0.953
14.3428	0.95
14.3799	0.928
14.417	0.877
14.4541	0.786
14.4912	0.637
14.5283	0.52
14.5654	0.493
14.6025	0.579
14.6396	0.679
14.6767	0.761
14.7138	0.813
14.7509	0.835
14.788	0.858
14.8251	0.869
14.8622	0.879
14.8993	0.885
14.9364	0.882
14.9735	0.875
15.0106	0.84
15.0477	0.793
15.0848	0.782
15.1219	0.813
15.159	0.841
15.1961	0.844
15.2332	0.843
15.2703	0.835
15.3074	0.832
15.3445	0.812
15.3816	0.796
15.4187	0.776
15.4558	0.744
15.4929	0.73
15.53	0.713
15.5671	0.702
15.6042	0.669
15.6413	0.627
15.6785	0.579
15.7156	0.559
15.7527	0.559
15.7898	0.581
15.8269	0.604
15.864	0.613
15.9011	0.609
15.9382	0.612
15.9753	0.609
