Infrared Spectrum: Azinphos-ethyl
Formula: C 12 H 16 N 3 O 3 P S 2
CAS: 2642-71-9
State: gas
Instrument: HP-GC/MS/IRD
Origin: NIST Mass Spectrometry Data Center
1/CM	ABSORBANCE
550	0.006175
562	0.00155
574	0.000495
586	0.00039
598	0.000115
610	0.0006
622	0.001185
634	0.00217
646	0.009585
658	0.02462
670	0.01081
682	0.00526
694	0.003345
706	0.003065
718	0.00286
730	0.00168
742	0.00141
754	0.00309
766	0.00948
778	0.023075
790	0.011415
802	0.012385
814	0.01023
826	0.00618
838	0.00338
850	0.00251
862	0.00212
874	0.00161
886	0.004755
898	0.009905
910	0.004325
922	0.004645
934	0.00937
946	0.018985
958	0.02259
970	0.01632
982	0.0096
994	0.0091
1006	0.019
1018	0.040165
1030	0.05
1042	0.04137
1054	0.02541
1066	0.014335
1078	0.00894
1090	0.007135
1102	0.005775
1114	0.00413
1126	0.00335
1138	0.00349
1150	0.004135
1162	0.003765
1174	0.005465
1186	0.00482
1198	0.00297
1210	0.002665
1222	0.002795
1234	0.00282
1246	0.00416
1258	0.008335
1270	0.00917
1282	0.014895
1294	0.009965
1306	0.005645
1318	0.007335
1330	0.00488
1342	0.00329
1354	0.001585
1366	0.00141
1378	0.002045
1390	0.00408
1402	0.00364
1414	0.00258
1426	0.001845
1438	0.002255
1450	0.00365
1462	0.006665
1474	0.002965
1486	0.002305
1498	0.004175
1510	0.001155
1522	0.0004
1534	0.00017
1546	0.00018
1558	0.000265
1570	0.00049
1582	0.00124
1594	0.00126
1606	0.00172
1618	0.001305
1630	0.00053
1642	0.000485
1654	0.000915
1666	0.00166
1678	0.002525
1690	0.005335
1702	0.021405
1714	0.045035
1726	0.011685
1738	0.00424
1750	0.002295
1762	0.001515
1774	0.00105
1786	0.00077
1798	0.000625
1810	0.000625
1822	0.00071
1834	0.000815
1846	0.000795
1858	0.000505
1870	0.000445
1882	0.000235
1894	0.000145
1906	7.5e-05
1918	0.00011
1930	0.00019
1942	0.000255
1954	0.000285
1966	0.000175
1978	0.000215
1990	3.5e-05
2002	3.5e-05
2014	3.5e-05
2026	7e-05
2038	7.5e-05
2050	0.000105
2062	0.00015
2074	0.000115
2086	9.5e-05
2098	7e-05
2110	6e-05
2122	7.5e-05
2134	8e-05
2146	0.000105
2158	7.5e-05
2170	5.5e-05
2182	5e-05
2194	7e-05
2206	8e-05
2218	4e-05
2230	4e-05
2242	7e-05
2254	0.00015
2266	0.000165
2278	0.00011
2290	0.00015
2302	0.00019
2314	0.000245
2326	0.00026
2338	0.000245
2350	0.00015
2362	9e-05
2374	9e-05
2386	7.5e-05
2398	8e-05
2410	6e-05
2422	8.5e-05
2434	6.5e-05
2446	7.5e-05
2458	0.0001
2470	6e-05
2482	8.5e-05
2494	7e-05
2506	2.5e-05
2518	1.5e-05
2530	0
2542	4e-05
2554	8e-05
2566	5.5e-05
2578	6.5e-05
2590	3e-05
2602	8e-05
2614	2.5e-05
2626	4.5e-05
2638	3.5e-05
2650	5e-05
2662	6e-05
2674	5e-05
2686	9e-05
2698	0.00011
2710	0.000155
2722	0.00014
2734	0.00012
2746	0.000135
2758	0.000165
2770	0.00022
2782	0.00019
2794	0.00017
2806	0.000145
2818	0.00023
2830	0.000325
2842	0.000375
2854	0.000545
2866	0.0009
2878	0.001485
2890	0.001815
2902	0.002365
2914	0.00288
2926	0.003
2938	0.005255
2950	0.004985
2962	0.00429
2974	0.005615
2986	0.00785
2998	0.005955
3010	0.0036
3022	0.002635
3034	0.00174
3046	0.001185
3058	0.00101
3070	0.00148
3082	0.002805
3094	0.00145
3106	0.00045
3118	0.00029
3130	0.000225
3142	0.00016
3154	0.00018
3166	0.000185
3178	0.00013
3190	9.5e-05
3202	8e-05
3214	6.5e-05
3226	0.000115
3238	9e-05
3250	4e-05
3262	7e-05
3274	7.5e-05
3286	6.5e-05
3298	7e-05
3310	9.5e-05
3322	0.00011
3334	8.5e-05
3346	4e-05
3358	8e-05
3370	0.000145
3382	0.000165
3394	0.00026
3406	0.000465
3418	0.00042
3430	0.00025
3442	0.000175
3454	0.00019
3466	0.000125
3478	0.000165
3490	0.00021
3502	0.00017
3514	0.000165
3526	0.00019
3538	0.000165
3550	0.000145
3562	0.000205
3574	0.00018
3586	0.000195
3598	0.000175
3610	0.000175
3622	0.00019
3634	0.00019
3646	0.00018
3658	0.000205
3670	0.000245
3682	0.000205
3694	0.000155
3706	0.00023
3718	0.000215
3730	0.00021
3742	0.000115
3754	0.00016
3766	0.00013
3778	0.000175
3790	0.000205
3802	0.00015
3814	0.00016
3826	0.00018
3838	0.00026
