Infrared Spectrum: p-[(2-Chloroethyl)ethylamino]benzaldehyde
Formula: C 11 H 14 Cl N O
CAS: 2643-07-4
State: gas
Origin: EPA-IR VAPOR PHASE LIBRARY
1/CM	ABSORBANCE
549.8	0.003061
559.445	0.002701
569.09	0.002951
578.734	0.003371
588.379	0.005481
598.024	0.006301
607.669	0.004061
617.313	0.002421
626.958	0.002161
636.603	0.002221
646.248	0.002121
655.893	0.002561
665.537	0.003771
675.182	0.003941
684.827	0.003141
694.472	0.003261
704.116	0.008401
713.761	0.019351
723.406	0.010921
733.051	0.003601
742.695	0.003821
752.34	0.006221
761.985	0.008061
771.63	0.005821
781.275	0.004861
790.919	0.006161
800.564	0.010801
810.209	0.019891
819.854	0.023901
829.498	0.017671
839.143	0.015361
848.788	0.010651
858.433	0.005851
868.078	0.004731
877.722	0.004551
887.367	0.004651
897.012	0.004181
906.657	0.003061
916.301	0.001841
925.946	0.002091
935.591	0.002571
945.236	0.002581
954.88	0.002401
964.525	0.002541
974.17	0.003181
983.815	0.004911
993.46	0.007881
1003.1	0.008111
1012.75	0.006281
1022.39	0.005291
1032.04	0.004721
1041.68	0.004001
1051.33	0.004111
1060.97	0.004261
1070.62	0.006291
1080.26	0.005761
1089.91	0.004911
1099.55	0.006391
1109.2	0.010331
1118.84	0.014511
1128.49	0.014891
1138.13	0.014471
1147.78	0.024771
1157.42	0.067511
1167.07	0.097161
1176.71	0.053311
1186.36	0.021731
1196	0.019101
1205.64	0.022681
1215.29	0.026131
1224.93	0.032811
1234.58	0.027951
1244.22	0.021961
1253.87	0.024971
1263.51	0.028221
1273.16	0.028801
1282.8	0.017421
1292.45	0.013761
1302.09	0.016661
1311.74	0.023121
1321.38	0.019701
1331.03	0.017841
1340.67	0.026011
1350.32	0.038971
1359.96	0.038431
1369.61	0.024331
1379.25	0.026251
1388.9	0.031611
1398.54	0.022671
1408.18	0.012091
1417.83	0.009951
1427.47	0.012111
1437.12	0.010641
1446.76	0.010801
1456.41	0.010941
1466.05	0.009161
1475.7	0.007831
1485.34	0.007451
1494.99	0.009871
1504.63	0.023471
1514.28	0.051171
1523.92	0.036061
1533.57	0.015091
1543.21	0.010531
1552.86	0.012531
1562.5	0.025921
1572.15	0.031741
1581.79	0.040131
1591.44	0.083031
1601.08	0.124031
1610.73	0.092701
1620.37	0.036201
1630.01	0.016911
1639.66	0.010751
1649.3	0.008601
1658.95	0.008891
1668.59	0.010731
1678.24	0.012731
1687.88	0.015811
1697.53	0.030081
1707.17	0.101171
1716.82	0.115961
1726.46	0.026101
1736.11	0.008131
1745.75	0.004751
1755.4	0.003321
1765.04	0.002451
1774.69	0.001931
1784.33	0.001621
1793.98	0.001361
1803.62	0.001401
1813.27	0.001411
1822.91	0.001321
1832.55	0.001311
1842.2	0.001331
1851.84	0.001421
1861.49	0.001561
1871.13	0.001711
1880.78	0.001811
1890.42	0.001811
1900.07	0.001631
1909.71	0.0012306
1919.36	0.001321
1929	0.001202
1938.65	0.001106
1948.29	0.0011139
1957.94	0.001179
1967.58	0.0011559
1977.23	0.001331
1986.87	0.001451
1996.52	0.001561
2006.16	0.001571
2015.81	0.001361
2025.45	0.0010752
2035.1	0.0009608
2044.74	0.0009953
2054.38	0.0010888
2064.03	0.0010459
2073.67	0.0009888
2083.32	0.0008708
2092.96	0.0008383
2102.61	0.0008505
2112.25	0.0008506
2121.9	0.0006936
2131.54	0.0006946
2141.19	0.0006107
2150.83	0.0006581
2160.48	0.0006873
2170.12	0.000586
2179.77	0.0006228
2189.41	0.0006875
2199.06	0.0006518
2208.7	0.0006698
2218.35	0.0007518
2227.99	0.0007753
2237.64	0.0007354
2247.28	0.0006208
2256.92	0.0005232
2266.57	0.0006131
2276.21	0.0006675
2285.86	0.0005548
2295.5	0.0005806
2305.15	0.0006972
2314.79	0.0007227
2324.44	0.0007931
2334.08	0.0008105
2343.73	0.0007099
2353.37	0.0007264
2363.02	0.0006115
2372.66	0.0005988
2382.31	0.0008336
2391.95	0.000837
2401.6	0.0009638
2411.24	0.0008671
2420.89	0.0009504
2430.53	0.0009894
2440.18	0.001047
2449.82	0.0011796
2459.47	0.0010114
2469.11	0.0009953
2478.75	0.0009673
2488.4	0.0011379
2498.04	0.0010007
2507.69	0.0011944
2517.33	0.0012687
2526.98	0.001321
2536.62	0.0012655
2546.27	0.001411
2555.91	0.001651
2565.56	0.001741
2575.2	0.001821
2584.85	0.001931
2594.49	0.002071
2604.14	0.002061
2613.78	0.002011
2623.43	0.001821
2633.07	0.001921
2642.72	0.001821
2652.36	0.001831
2662.01	0.002181
2671.65	0.002921
2681.29	0.004381
2690.94	0.007211
2700.58	0.009071
2710.23	0.011961
2719.87	0.021501
2729.52	0.020771
2739.16	0.010321
2748.81	0.005921
2758.45	0.004711
2768.1	0.004981
2777.74	0.006161
2787.39	0.009641
2797.03	0.014881
2806.68	0.015281
2816.32	0.013131
2825.97	0.010531
2835.61	0.007871
2845.26	0.007061
2854.9	0.007381
2864.55	0.007901
2874.19	0.009471
2883.84	0.011631
2893.48	0.011311
2903.12	0.010221
2912.77	0.009211
2922.41	0.009081
2932.06	0.010871
2941.7	0.014091
2951.35	0.013051
2960.99	0.014491
2970.64	0.019051
2980.28	0.023681
2989.93	0.019171
2999.57	0.010841
3009.22	0.009701
3018.86	0.007341
3028.51	0.006051
3038.15	0.005771
3047.8	0.003911
3057.44	0.002991
3067.09	0.003131
3076.73	0.004101
3086.38	0.004811
3096.02	0.005361
3105.67	0.004431
3115.31	0.002781
3124.95	0.002251
3134.6	0.001651
3144.24	0.0010975
3153.89	0.0007872
3163.53	0.0007591
3173.18	0.0007142
3182.82	0.0006424
3192.47	0.0007206
3202.11	0.0007026
3211.76	0.0005708
3221.4	0.0005943
3231.05	0.000327
3240.69	0.0002878
3250.34	0.0001735
3259.98	0.00034029
3269.63	0.00029718
3279.27	0.00031772
3288.92	0.00031301
3298.56	0.0004327
3308.21	0.00031189
3317.85	0.00034851
3327.49	0.00031864
3337.14	0.00035151
3346.78	0.0005391
3356.43	0.0004656
3366.07	0.0005489
3375.72	0.0006162
3385.36	0.0011117
3395.01	0.001331
3404.65	0.001541
3414.3	0.001331
3423.94	0.0007571
3433.59	0.0006272
3443.23	0.000397
3452.88	0.0002435
3462.52	0.00029352
3472.17	0.0003866
3481.81	0.0002602
3491.46	0.0004851
3501.1	0.0002327
3510.75	0.0002405
3520.39	0.00026814
3530.04	0.0003741
3539.68	0.0003978
3549.32	0.0005398
3558.97	3.8e-05
3568.61	0.00032734
3578.26	0.000153
3587.9	0.00022
3597.55	0.00030701
3607.19	0.00036175
3616.84	0.0003945
3626.48	0.00029049
3636.13	0.0003779
3645.77	0.0004142
3655.42	0.0003268
3665.06	0.00032028
3674.71	0.00031685
3684.35	0.00030097
3694	0.0004084
3703.64	0.00029001
3713.29	0.00031807
3722.93	0.0004021
3732.58	0.0003894
3742.22	0.0004119
3751.86	0.0005053
3761.51	0.000407
3771.15	0.000391
3780.8	0.0002306
3790.44	0.0001869
3800.09	0.0004338
3809.73	0.00031988
3819.38	0.0003932
3829.02	0.0003787
3838.67	0.0004182
3848.31	0.0003724
3857.96	0.00035036
3867.6	0.0004211
3877.25	0.00036188
3886.89	0.00030581
3896.54	0.00035857
3906.18	0.0003762
3915.83	0.0002203
3925.47	0.000271824
3935.12	0.00026252
3944.76	0.00043
3954.41	0.00031513
3964.05	0.00035835
3973.69	0.0006476
3983.34	0.00033726
3992.98	0.0003883
