Infrared Spectrum: Diphenylcresyl phosphate
Formula: C 19 H 17 O 4 P
CAS: 26444-49-5
State: gas
Origin: EPA-IR VAPOR PHASE LIBRARY
1/CM	ABSORBANCE
501.5	0.011553
513.074	0.012703
524.648	0.011423
536.222	0.008583
547.796	0.006143
559.37	0.005673
570.944	0.006743
582.518	0.007593
594.092	0.006743
605.666	0.005173
617.24	0.004103
628.814	0.002473
640.388	0.001903
651.962	0.002153
663.536	0.003493
675.11	0.006563
686.684	0.013253
698.258	0.007673
709.832	0.004333
721.406	0.003803
732.98	0.005703
744.554	0.010183
756.128	0.016423
767.702	0.020843
779.276	0.018823
790.85	0.007813
802.423	0.003433
813.997	0.002883
825.571	0.002803
837.145	0.003813
848.719	0.007873
860.293	0.009513
871.867	0.006973
883.441	0.005653
895.015	0.007093
906.589	0.008673
918.163	0.011983
929.737	0.026573
941.311	0.056913
952.885	0.095073
964.459	0.114653
976.033	0.064803
987.607	0.038073
999.181	0.032263
1010.76	0.050023
1022.33	0.030273
1033.9	0.013563
1045.48	0.006643
1057.05	0.005213
1068.63	0.005103
1080.2	0.004963
1091.77	0.004503
1103.35	0.003813
1114.92	0.004323
1126.49	0.007373
1138.07	0.024633
1149.64	0.053093
1161.22	0.032883
1172.79	0.023993
1184.36	0.042013
1195.94	0.082443
1207.51	0.051453
1219.09	0.046393
1230.66	0.030793
1242.23	0.018333
1253.81	0.017573
1265.38	0.010253
1276.96	0.007613
1288.53	0.007323
1300.1	0.011333
1311.68	0.018753
1323.25	0.024433
1334.83	0.020123
1346.4	0.007903
1357.97	0.003853
1369.55	0.002873
1381.12	0.002673
1392.7	0.002603
1404.27	0.002683
1415.84	0.002923
1427.42	0.004803
1438.99	0.008573
1450.57	0.008413
1462.14	0.008263
1473.71	0.014533
1485.29	0.046363
1496.86	0.042083
1508.44	0.011723
1520.01	0.006523
1531.58	0.005123
1543.16	0.004643
1554.73	0.005283
1566.31	0.008433
1577.88	0.018743
1589.45	0.030403
1601.03	0.020243
1612.6	0.011613
1624.18	0.004653
1635.75	0.002323
1647.32	0.001753
1658.9	0.001553
1670.47	0.001563
1682.05	0.001443
1693.62	0.001483
1705.19	0.001653
1716.77	0.001833
1728.34	0.001743
1739.92	0.001533
1751.49	0.0013933
1763.06	0.001513
1774.64	0.001683
1786.21	0.0012067
1797.79	0.0009995
1809.36	0.0009277
1820.93	0.0010578
1832.51	0.0012049
1844.08	0.001483
1855.66	0.002003
1867.23	0.001783
1878.8	0.0013981
1890.38	0.0012391
1901.95	0.0013969
1913.53	0.001703
1925.1	0.002203
1936.67	0.002163
1948.25	0.001843
1959.82	0.001453
1971.4	0.0012805
1982.97	0.0011802
1994.54	0.0009936
2006.12	0.00081
2017.69	0.0006749
2029.27	0.0006152
2040.84	0.0005612
2052.41	0.00050537
2063.99	0.0004316
2075.56	0.00046332
2087.14	0.00045235
2098.71	0.00047505
2110.28	0.00047735
2121.86	0.00047751
2133.43	0.00040987
2145.01	0.0003879
2156.58	0.0003623
2168.15	0.0003891
2179.73	0.0003565
2191.3	0.00040416
2202.88	0.00042919
2214.45	0.000362
2226.02	0.00043163
2237.6	0.00043578
2249.17	0.00048575
2260.74	0.0004909
2272.32	0.00047614
2283.89	0.00050809
2295.47	0.0005178
2307.04	0.0005459
2318.61	0.0006145
2330.19	0.0006267
2341.76	0.0005363
2353.34	0.00058
2364.91	0.0005601
2376.48	0.0006427
2388.06	0.0007007
2399.63	0.0007483
2411.21	0.0006865
2422.78	0.0006164
2434.35	0.0005719
2445.93	0.0005424
2457.5	0.00044275
2469.08	0.0004306
2480.65	0.00041089
2492.22	0.00040585
2503.8	0.0003784
2515.37	0.0003842
2526.95	0.0003474
2538.52	0.00041164
2550.09	0.00045619
2561.67	0.00047014
2573.24	0.0003564
2584.82	0.0003439
2596.39	0.0003446
2607.96	0.0003453
2619.54	0.0003148
2631.11	0.0003506
2642.69	0.000264
2654.26	0.000243
2665.83	0.000245
2677.41	0.000179
2688.98	0.000222
2700.56	0.000257
2712.13	0.000184
2723.7	0.0003142
2735.28	0.0003558
2746.85	0.0003962
2758.43	0.0003218
2770	0.000263
2781.57	0.000272
2793.15	0.000276
2804.72	0.000254
2816.3	0.000297
2827.87	0.000363
2839.44	0.00044151
2851.02	0.0007321
2862.59	0.0011379
2874.17	0.001613
2885.74	0.001483
2897.31	0.0013536
2908.89	0.001703
2920.46	0.002403
2932.04	0.003413
2943.61	0.002553
2955.18	0.001703
2966.76	0.0013143
2978.33	0.0010931
2989.91	0.0013076
3001.48	0.001593
3013.05	0.001993
3024.63	0.003303
3036.2	0.005263
3047.78	0.007103
3059.35	0.006993
3070.92	0.008143
3082.5	0.009403
3094.07	0.004373
3105.65	0.002803
3117.22	0.0013413
3128.79	0.0006336
3140.37	0.00046303
3151.94	0.0003234
3163.52	0.0003267
3175.09	0.0003482
3186.66	0.000278
3198.24	0.000258
3209.81	0.000167
3221.39	0.000271
3232.96	0.000219
3244.53	0.000162
3256.11	0.000185
3267.68	0.00019
3279.26	0.000145
3290.83	0.000134
3302.4	0.000156
3313.98	0.000152
3325.55	0.000119
3337.13	9.3e-05
3348.7	4e-05
3360.27	8.1e-05
3371.85	5e-05
3383.42	0.000136
3395	0.000123
3406.57	6.8e-05
3418.14	2.1e-05
3429.72	0.000121
3441.29	8e-05
3452.86	0.000154
3464.44	0.000146
3476.01	0.000147
3487.59	0.000132
3499.16	0.000104
3510.73	6.6e-05
3522.31	0.000104
3533.88	0.000136
3545.46	7e-05
3557.03	9.8e-05
3568.6	0.000131
3580.18	0.000112
3591.75	5.3e-05
3603.33	5.3e-05
3614.9	0.000129
3626.47	6.9e-05
3638.05	0.000131
3649.62	8.7e-05
3661.2	0.000109
3672.77	8.7e-05
3684.34	0.000122
3695.92	0.000122
3707.49	0.000109
3719.07	0.000122
3730.64	2.7e-05
3742.21	1.3e-05
3753.79	7.3e-05
3765.36	7.1e-05
3776.94	5.2e-05
3788.51	0.000187
3800.08	0.000102
3811.66	3.5e-05
3823.23	0.000104
3834.81	7e-05
3846.38	9.9e-05
3857.95	3.5e-05
3869.53	6.4e-05
3881.1	7.8e-05
3892.68	9.7e-05
3904.25	0
3915.82	0.000137
3927.4	4.3e-05
3938.97	6.5e-05
3950.55	0.000101
3962.12	6.5e-05
3973.69	5.5e-05
3985.27	0.000148
3996.84	6.9e-05
