Infrared Spectrum: Methylenebis(p-phenylisocyanate)
Formula: C 15 H 10 N 2 O 2
CAS: 26447-40-5
State: gas
Origin: EPA-IR VAPOR PHASE LIBRARY
1/CM	ABSORBANCE
549.8	0.002107
559.445	0.001707
569.09	0.002437
578.734	0.002887
588.379	0.003297
598.024	0.003467
607.669	0.003787
617.313	0.003157
626.958	0.002667
636.603	0.002137
646.248	0.001797
655.893	0.001567
665.537	0.0010668
675.182	0.001207
684.827	0.0010207
694.472	0.0011284
704.116	0.0011769
713.761	0.000968
723.406	0.0011419
733.051	0.0009448
742.695	0.001587
752.34	0.001847
761.985	0.001497
771.63	0.001707
781.275	0.002077
790.919	0.003717
800.564	0.006317
810.209	0.008327
819.854	0.008437
829.498	0.005047
839.143	0.003437
848.788	0.003037
858.433	0.002567
868.078	0.001477
877.722	0.0010609
887.367	0.0008352
897.012	0.0008653
906.657	0.0006986
916.301	0.0009869
925.946	0.0006265
935.591	0.0006319
945.236	0.0004725
954.88	0.0003946
964.525	0.0003649
974.17	0.0003985
983.815	0.0005642
993.46	0.0004662
1003.1	0.000594
1012.75	0.002857
1022.39	0.002967
1032.04	0.0006657
1041.68	0.0005703
1051.33	0.0004521
1060.97	0.000853
1070.62	0.0008473
1080.26	0.0010496
1089.91	0.002457
1099.55	0.005657
1109.2	0.013007
1118.84	0.010137
1128.49	0.004467
1138.13	0.002737
1147.78	0.002987
1157.42	0.003867
1167.07	0.003277
1176.71	0.002637
1186.36	0.002057
1196	0.001897
1205.64	0.001877
1215.29	0.001777
1224.93	0.002007
1234.58	0.001767
1244.22	0.0010757
1253.87	0.0011128
1263.51	0.001257
1273.16	0.001237
1282.8	0.001317
1292.45	0.001327
1302.09	0.001257
1311.74	0.0010291
1321.38	0.0010052
1331.03	0.0009379
1340.67	0.0009034
1350.32	0.000902
1359.96	0.0008651
1369.61	0.0008592
1379.25	0.0007886
1388.9	0.0008119
1398.54	0.0008371
1408.18	0.00108
1417.83	0.001267
1427.47	0.001357
1437.12	0.001957
1446.76	0.002157
1456.41	0.001527
1466.05	0.001507
1475.7	0.001917
1485.34	0.002787
1494.99	0.005357
1504.63	0.010937
1514.28	0.017507
1523.92	0.021447
1533.57	0.018797
1543.21	0.009057
1552.86	0.004397
1562.5	0.003337
1572.15	0.003827
1581.79	0.003457
1591.44	0.003277
1601.08	0.006167
1610.73	0.008427
1620.37	0.004217
1630.01	0.001947
1639.66	0.001407
1649.3	0.0011906
1658.95	0.0009477
1668.59	0.0007179
1678.24	0.0007249
1687.88	0.0006128
1697.53	0.0004265
1707.17	0.0005277
1716.82	0.0005336
1726.46	0.0005581
1736.11	0.0005326
1745.75	0.0005684
1755.4	0.0006973
1765.04	0.0007014
1774.69	0.0008262
1784.33	0.0005644
1793.98	0.000441
1803.62	0.0005185
1813.27	0.000527
1822.91	0.0004825
1832.55	0.0005129
1842.2	0.0006253
1851.84	0.0005709
1861.49	0.0006668
1871.13	0.0008175
1880.78	0.0010036
1890.42	0.0012
1900.07	0.0010104
1909.71	0.0007396
1919.36	0.0006453
1929	0.0005086
1938.65	0.0004523
1948.29	0.0005422
1957.94	0.0005292
1967.58	0.0004665
1977.23	0.0005617
1986.87	0.0004501
1996.52	0.0005022
2006.16	0.0005247
2015.81	0.0005376
2025.45	0.0007049
2035.1	0.0006426
2044.74	0.0008046
2054.38	0.0008872
2064.03	0.0011029
2073.67	0.001427
2083.32	0.001627
2092.96	0.001697
2102.61	0.001797
2112.25	0.002077
2121.9	0.002427
2131.54	0.003137
2141.19	0.004087
2150.83	0.005357
2160.48	0.007177
2170.12	0.009347
2179.77	0.011517
2189.41	0.014357
2199.06	0.018397
2208.7	0.023277
2218.35	0.029067
2227.99	0.037327
2237.64	0.053577
2247.28	0.083867
2256.92	0.129297
2266.57	0.183307
2276.21	0.224077
2285.86	0.172977
2295.5	0.090717
2305.15	0.048197
2314.79	0.030757
2324.44	0.023647
2334.08	0.021157
2343.73	0.021217
2353.37	0.021217
2363.02	0.017847
2372.66	0.012087
2382.31	0.007617
2391.95	0.005007
2401.6	0.003637
2411.24	0.002907
2420.89	0.002527
2430.53	0.002227
2440.18	0.002007
2449.82	0.001617
2459.47	0.001237
2469.11	0.0011204
2478.75	0.0010229
2488.4	0.0008596
2498.04	0.0006482
2507.69	0.0007714
2517.33	0.0006329
2526.98	0.0007666
2536.62	0.0006299
2546.27	0.00067
2555.91	0.0007063
2565.56	0.0006594
2575.2	0.0007186
2584.85	0.0005317
2594.49	0.0006375
2604.14	0.0007177
2613.78	0.0006315
2623.43	0.0006589
2633.07	0.0004766
2642.72	0.0005683
2652.36	0.0005769
2662.01	0.0004044
2671.65	0.0006341
2681.29	0.0006668
2690.94	0.0006538
2700.58	0.0005787
2710.23	0.0005869
2719.87	0.0007824
2729.52	0.000772
2739.16	0.0006253
2748.81	0.0006635
2758.45	0.0005207
2768.1	0.0005047
2777.74	0.0006323
2787.39	0.0006284
2797.03	0.0006331
2806.68	0.0005472
2816.32	0.0006454
2825.97	0.0006421
2835.61	0.0007103
2845.26	0.0008703
2854.9	0.001237
2864.55	0.0010496
2874.19	0.0009891
2883.84	0.001057
2893.48	0.0009642
2903.12	0.001277
2912.77	0.002097
2922.41	0.003177
2932.06	0.002687
2941.7	0.001837
2951.35	0.0011243
2960.99	0.0010733
2970.64	0.0011921
2980.28	0.001487
2989.93	0.001687
2999.57	0.001817
3009.22	0.002077
3018.86	0.002717
3028.51	0.003657
3038.15	0.003197
3047.8	0.002937
3057.44	0.002687
3067.09	0.002907
3076.73	0.002677
3086.38	0.001767
3096.02	0.001417
3105.67	0.001227
3115.31	0.0007869
3124.95	0.0006424
3134.6	0.0004899
3144.24	0.0001671
3153.89	0.0003833
3163.53	0.000363
3173.18	3.8e-05
3182.82	0.0001165
3192.47	0.0003246
3202.11	0.0002446
3211.76	0.00022274
3221.4	0.0003146
3231.05	4.3e-05
3240.69	0.00023093
3250.34	0.00029069
3259.98	0.0003493
3269.63	0.0001945
3279.27	0
3288.92	0.0001639
3298.56	0.0003522
3308.21	0.00022523
3317.85	0.0004868
3327.49	0.0003864
3337.14	0.0006003
3346.78	0.0006149
3356.43	0.0007936
3366.07	0.0008518
3375.72	0.001497
3385.36	0.001497
3395.01	0.001237
3404.65	0.001367
3414.3	0.001277
3423.94	0.0011691
3433.59	0.0010491
3443.23	0.0006617
3452.88	0.0005083
3462.52	0.0004127
3472.17	0.0006119
3481.81	0.0003468
3491.46	0.0003584
3501.1	0.0003322
3510.75	0.000368
3520.39	0.0005327
3530.04	0.0004918
3539.68	0.0003425
3549.32	0.00026297
3558.97	0.0002557
3568.61	0.0004554
3578.26	0.000519
3587.9	0.0006996
3597.55	0.0005083
3607.19	0.0005192
3616.84	0.0004298
3626.48	0.0006144
3636.13	0.0006142
3645.77	0.0006678
3655.42	0.0010835
3665.06	0.0007775
3674.71	0.0010969
3684.35	0.001207
3694	0.001317
3703.64	0.001517
3713.29	0.001317
3722.93	0.0009851
3732.58	0.0008089
3742.22	0.0008252
3751.86	0.0005298
3761.51	0.0007521
3771.15	0.0009535
3780.8	0.0007372
3790.44	0.0005698
3800.09	0.0005348
3809.73	0.000519
3819.38	0.0005254
3829.02	0.0006924
3838.67	0.0006177
3848.31	0.0003169
3857.96	0.0004444
3867.6	0.0005962
3877.25	0.0005081
3886.89	0.0003515
3896.54	0.0003972
3906.18	0.0003762
3915.83	0.0003301
3925.47	0.0003915
3935.12	0.0001536
3944.76	0.00048
3954.41	0.0003299
3964.05	0.0003561
3973.69	0.000212726
3983.34	0.0007196
3992.98	0.00025853
