Infrared Spectrum: L-ARGININE, N^2-BENZOYL-, ETHYLE STER, HYDROCHLORIDE
Formula: C15 H23 Cl N4 O3
CAS: 2645-08-1
State: SOLID (SPLIT MULL), FLUOROLUBE FOR 3800-1330 CM^-^1, NUJOL FOR 1330-450 CM^-^1
Melting point: 129 C
Class: COBLENTZ III
Instrument: DOW KBr FOREPRISM-GRATING
Instrument parameters: BLAZED AT 3.5, 12.0, 20.0 MICRON AND CHANGED AT 5.0, 7.5, 14.9 MICRON
Sampling: TRANSMISSION
Resolution: 2
Origin: DOW CHEMICAL COMPANY
1/CM	TRANSMITTANCE
457	0.6442
466	0.6339
475	0.6112
484	0.5766
493	0.5106
502	0.4822
511	0.467
520	0.4954
529	0.5172
538	0.5388
547	0.6075
556	0.6262
565	0.5891
574	0.6337
583	0.6034
592	0.5459
601	0.4884
610	0.4279
619	0.4064
628	0.477
637	0.5516
646	0.6223
655	0.6339
664	0.5751
673	0.5847
682	0.5683
691	0.4351
700	0.2425
709	0.1392
718	0.3992
727	0.4126
736	0.5067
745	0.5514
754	0.6215
763	0.6275
772	0.6825
781	0.7511
790	0.8114
799	0.7926
808	0.7982
817	0.8373
826	0.855
835	0.8413
844	0.8108
853	0.6815
862	0.7692
871	0.7249
880	0.7834
889	0.6808
898	0.8004
907	0.8036
916	0.7918
925	0.7505
934	0.7628
943	0.6976
952	0.7388
961	0.7389
970	0.7017
979	0.7181
988	0.6946
997	0.6575
1006	0.6751
1015	0.5615
1024	0.3584
1033	0.5815
1042	0.6825
1051	0.6754
1060	0.5819
1069	0.596
1078	0.5907
1087	0.5869
1096	0.5255
1105	0.4491
1114	0.5472
1123	0.6141
1132	0.612
1141	0.583
1150	0.4737
1159	0.2862
1168	0.354
1177	0.4309
1186	0.3871
1195	0.2101
1204	0.1849
1213	0.1056
1222	0.073
1231	0.276
1240	0.4321
1249	0.5286
1258	0.5446
1267	0.5406
1276	0.4972
1285	0.4722
1294	0.4165
1303	0.3937
1312	0.2257
1321	0.4232
1330	0.3962
1339	0.2722
1348	0.3176
1357	0.4245
1366	0.4375
1375	0.3995
1384	0.5012
1393	0.5019
1402	0.5197
1411	0.5184
1420	0.5057
1429	0.4824
1438	0.417
1447	0.4499
1456	0.489
1465	0.4705
1474	0.4493
1483	0.4625
1492	0.4297
1501	0.52
1510	0.4436
1519	0.3673
1528	0.293
1537	0.268
1546	0.3673
1555	0.4733
1564	0.4987
1573	0.4216
1582	0.4834
1591	0.4433
1600	0.3059
1609	0.2617
1618	0.2465
1627	0.2197
1636	0.134
1645	0.1509
1654	0.1939
1663	0.3001
1672	0.3449
1681	0.4315
1690	0.4242
1699	0.7303
1708	0.6796
1717	0.5715
1726	0.4384
1735	0.3482
1744	0.5906
1753	0.7507
1762	0.8659
1771	0.8744
1780	0.87
1789	0.8645
1798	0.8586
1807	0.8523
1816	0.8468
1825	0.8421
1834	0.8389
1843	0.8363
1852	0.8306
1861	0.8233
1870	0.8161
1879	0.81
1888	0.8044
1897	0.7999
1906	0.7957
1915	0.7922
1924	0.7906
1933	0.7894
1942	0.788
1951	0.7841
1960	0.7792
1969	0.7743
1978	0.7696
1987	0.7668
1996	0.7741
2005	0.7707
2014	0.7668
2023	0.7625
2032	0.7585
2041	0.755
2050	0.7507
2059	0.7458
2068	0.7406
2077	0.7348
2086	0.7291
2095	0.723
2104	0.7168
2113	0.7118
2122	0.7074
2131	0.7028
2140	0.6982
2149	0.6935
2158	0.6886
2167	0.6833
2176	0.678
2185	0.6731
2194	0.6683
2203	0.6634
2212	0.6588
2221	0.653
2230	0.6454
2239	0.6383
2248	0.632
2257	0.6273
2266	0.6227
2275	0.6181
2284	0.6135
2293	0.6097
2302	0.6057
2311	0.6019
2320	0.6003
2329	0.6002
2338	0.6006
2347	0.6007
2356	0.6002
2365	0.5985
2374	0.5962
2383	0.5935
2392	0.5915
2401	0.5898
2410	0.5882
2419	0.5868
2428	0.5856
2437	0.5845
2446	0.5832
2455	0.5816
2464	0.58
2473	0.5779
2482	0.5759
2491	0.5739
2500	0.5724
2509	0.5708
2518	0.5691
2527	0.567
2536	0.565
2545	0.5627
2554	0.5604
2563	0.558
2572	0.5547
2581	0.5512
2590	0.5478
2599	0.5442
2608	0.5403
2617	0.5362
2626	0.5317
2635	0.5273
2644	0.5228
2653	0.5183
2662	0.5138
2671	0.5093
2680	0.5048
2689	0.5004
2698	0.4957
2707	0.491
2716	0.4867
2725	0.4827
2734	0.4787
2743	0.4752
2752	0.4718
2761	0.4679
2770	0.464
2779	0.4607
2788	0.4546
2797	0.4474
2806	0.4394
2815	0.4306
2824	0.4217
2833	0.412
2842	0.402
2851	0.3908
2860	0.3886
2869	0.3877
2878	0.3871
2887	0.379
2896	0.3674
2905	0.356
2914	0.3453
2923	0.3362
2932	0.3303
2941	0.3229
2950	0.3094
2959	0.3111
2968	0.3124
2977	0.3049
2986	0.297
2995	0.2917
3004	0.2996
3013	0.3062
3022	0.3029
3031	0.2946
3040	0.2851
3049	0.2723
3058	0.2698
3067	0.2684
3076	0.2614
3085	0.2475
3094	0.2271
3103	0.2214
3112	0.2246
3121	0.2299
3130	0.2376
3139	0.2468
3148	0.255
3157	0.2634
3166	0.2707
3175	0.2715
3184	0.2713
3193	0.271
3202	0.2775
3211	0.2865
3220	0.2934
3229	0.2932
3238	0.2899
3247	0.2901
3256	0.2942
3265	0.2965
3274	0.298
3283	0.2985
3292	0.2981
3301	0.2982
3310	0.3002
3319	0.3035
3328	0.3095
3337	0.3187
3346	0.338
3355	0.3566
3364	0.3745
3373	0.392
3382	0.4078
3391	0.4173
3400	0.4262
3409	0.434
3418	0.442
3427	0.467
3436	0.5073
3445	0.5376
3454	0.5686
3463	0.592
3472	0.6122
3481	0.6165
3490	0.6173
3499	0.6156
3508	0.6144
3517	0.6122
3526	0.6095
3535	0.6064
3544	0.6035
3553	0.6005
3562	0.5977
3571	0.5948
3580	0.5918
3589	0.5887
3598	0.5857
3607	0.5827
3616	0.5797
3625	0.5766
3634	0.5727
3643	0.5687
3652	0.565
3661	0.5617
3670	0.5584
3679	0.5551
3688	0.5519
3697	0.5483
3706	0.5447
3715	0.541
3724	0.5373
3733	0.5334
3742	0.5296
3751	0.526
3760	0.5226
3769	0.5199
3778	0.5172
3787	0.5144
3796	0.5121
