Infrared Spectrum: 4-N,N-Bis(2-chloroethyl)amino-2-tolualdehyde
Formula: C 12 H 15 Cl 2 N O
CAS: 26459-95-0
State: gas
Origin: EPA-IR VAPOR PHASE LIBRARY
1/CM	ABSORBANCE
549.8	0.003096
559.445	0.002466
569.09	0.002586
578.734	0.002476
588.379	0.003086
598.024	0.004066
607.669	0.005026
617.313	0.005846
626.958	0.004156
636.603	0.003386
646.248	0.003346
655.893	0.004486
665.537	0.009056
675.182	0.012006
684.827	0.007956
694.472	0.008956
704.116	0.012336
713.761	0.010456
723.406	0.008026
733.051	0.010726
742.695	0.017616
752.34	0.030796
761.985	0.031086
771.63	0.025106
781.275	0.018466
790.919	0.020126
800.564	0.025866
810.209	0.017116
819.854	0.009356
829.498	0.007826
839.143	0.010406
848.788	0.011266
858.433	0.007116
868.078	0.004236
877.722	0.004156
887.367	0.003766
897.012	0.004296
906.657	0.005856
916.301	0.008616
925.946	0.010626
935.591	0.012076
945.236	0.009626
954.88	0.007486
964.525	0.009066
974.17	0.009826
983.815	0.008126
993.46	0.007966
1003.1	0.008996
1012.75	0.010086
1022.39	0.008456
1032.04	0.007126
1041.68	0.005886
1051.33	0.005576
1060.97	0.006696
1070.62	0.007016
1080.26	0.006686
1089.91	0.010646
1099.55	0.023346
1109.2	0.031226
1118.84	0.053286
1128.49	0.069756
1138.13	0.040666
1147.78	0.029646
1157.42	0.027556
1167.07	0.023136
1176.71	0.018566
1186.36	0.019726
1196	0.039526
1205.64	0.059636
1215.29	0.043716
1224.93	0.041166
1234.58	0.041826
1244.22	0.041026
1253.87	0.043156
1263.51	0.035766
1273.16	0.035606
1282.8	0.034076
1292.45	0.032786
1302.09	0.028706
1311.74	0.024816
1321.38	0.021746
1331.03	0.025786
1340.67	0.040786
1350.32	0.065596
1359.96	0.055316
1369.61	0.034046
1379.25	0.033806
1388.9	0.033486
1398.54	0.025076
1408.18	0.017296
1417.83	0.013996
1427.47	0.016906
1437.12	0.020176
1446.76	0.025346
1456.41	0.026626
1466.05	0.019236
1475.7	0.016606
1485.34	0.015166
1494.99	0.022206
1504.63	0.036766
1514.28	0.026756
1523.92	0.019536
1533.57	0.021866
1543.21	0.033056
1552.86	0.058316
1562.5	0.063006
1572.15	0.039946
1581.79	0.052586
1591.44	0.116456
1601.08	0.200466
1610.73	0.133676
1620.37	0.045456
1630.01	0.020996
1639.66	0.013526
1649.3	0.010606
1658.95	0.010076
1668.59	0.012046
1678.24	0.015976
1687.88	0.031726
1697.53	0.096416
1707.17	0.168696
1716.82	0.099356
1726.46	0.020226
1736.11	0.008896
1745.75	0.005506
1755.4	0.004046
1765.04	0.003286
1774.69	0.003046
1784.33	0.002716
1793.98	0.002456
1803.62	0.002186
1813.27	0.002106
1822.91	0.002006
1832.55	0.002036
1842.2	0.001776
1851.84	0.001606
1861.49	0.001716
1871.13	0.001926
1880.78	0.001796
1890.42	0.001686
1900.07	0.001706
1909.71	0.001596
1919.36	0.001406
1929	0.001426
1938.65	0.001436
1948.29	0.001386
1957.94	0.001336
1967.58	0.001306
1977.23	0.001416
1986.87	0.001376
1996.52	0.001276
2006.16	0.0012417
2015.81	0.0012
2025.45	0.001296
2035.1	0.001366
2044.74	0.001446
2054.38	0.001346
2064.03	0.001256
2073.67	0.0011618
2083.32	0.0011598
2092.96	0.0010781
2102.61	0.0010871
2112.25	0.0009085
2121.9	0.0009289
2131.54	0.0007896
2141.19	0.0008456
2150.83	0.0007429
2160.48	0.0008055
2170.12	0.0009001
2179.77	0.0007914
2189.41	0.0007975
2199.06	0.0008228
2208.7	0.0008947
2218.35	0.0008952
2227.99	0.0007216
2237.64	0.0008379
2247.28	0.0009654
2256.92	0.0010192
2266.57	0.0009432
2276.21	0.0009765
2285.86	0.0010221
2295.5	0.0010635
2305.15	0.0010787
2314.79	0.0011801
2324.44	0.001276
2334.08	0.001246
2343.73	0.0011778
2353.37	0.0010357
2363.02	0.0010176
2372.66	0.001053
2382.31	0.0010474
2391.95	0.0012022
2401.6	0.001131
2411.24	0.0011981
2420.89	0.0012232
2430.53	0.0012327
2440.18	0.001286
2449.82	0.0011796
2459.47	0.001296
2469.11	0.001286
2478.75	0.001416
2488.4	0.001506
2498.04	0.001436
2507.69	0.001516
2517.33	0.001526
2526.98	0.001456
2536.62	0.001406
2546.27	0.001466
2555.91	0.001656
2565.56	0.001806
2575.2	0.002026
2584.85	0.002196
2594.49	0.002416
2604.14	0.002386
2613.78	0.002376
2623.43	0.002226
2633.07	0.002076
2642.72	0.002106
2652.36	0.002296
2662.01	0.002776
2671.65	0.003366
2681.29	0.005276
2690.94	0.008676
2700.58	0.012736
2710.23	0.021416
2719.87	0.032086
2729.52	0.020106
2739.16	0.012266
2748.81	0.014546
2758.45	0.009516
2768.1	0.005636
2777.74	0.005336
2787.39	0.005956
2797.03	0.007046
2806.68	0.009086
2816.32	0.011986
2825.97	0.015256
2835.61	0.018466
2845.26	0.018246
2854.9	0.015856
2864.55	0.014216
2874.19	0.013526
2883.84	0.013746
2893.48	0.013016
2903.12	0.012056
2912.77	0.011556
2922.41	0.012416
2932.06	0.015896
2941.7	0.017506
2951.35	0.015796
2960.99	0.023116
2970.64	0.025256
2980.28	0.019816
2989.93	0.013756
2999.57	0.012276
3009.22	0.016516
3018.86	0.011926
3028.51	0.008656
3038.15	0.006316
3047.8	0.004966
3057.44	0.005116
3067.09	0.005606
3076.73	0.005676
3086.38	0.006226
3096.02	0.005486
3105.67	0.004376
3115.31	0.003866
3124.95	0.002646
3134.6	0.001476
3144.24	0.0011618
3153.89	0.0008793
3163.53	0.0008665
3173.18	0.0006939
3182.82	0.0005948
3192.47	0.0005034
3202.11	0.0005505
3211.76	0.0006123
3221.4	0.0005
3231.05	0.000249051
3240.69	0.0005827
3250.34	0.00023661
3259.98	0.00033368
3269.63	0.00033438
3279.27	0.0003835
3288.92	0.00029724
3298.56	0.0003971
3308.21	0.0003854
3317.85	0.0004052
3327.49	0.0003477
3337.14	0.00032905
3346.78	0.0005106
3356.43	0.0006343
3366.07	0.0005936
3375.72	0.001356
3385.36	0.001876
3395.01	0.002166
3404.65	0.001796
3414.3	0.0008815
3423.94	0.0006213
3433.59	0.0004519
3443.23	0.0003683
3452.88	0.0003816
3462.52	0.00026409
3472.17	9.1e-05
3481.81	0.0002191
3491.46	0.00027675
3501.1	0.0003469
3510.75	6.1e-05
3520.39	0.0001819
3530.04	0.000139
3539.68	0.0003338
3549.32	0.0003648
3558.97	0.00027397
3568.61	0.00027536
3578.26	0.0001586
3587.9	0.000101
3597.55	0.00026258
3607.19	0.0002108
3616.84	0.0001925
3626.48	0.00026883
3636.13	0.0001946
3645.77	0.0002029
3655.42	8.4e-05
3665.06	0.00021
3674.71	0.0002114
3684.35	0.00034085
3694	0.0002107
3703.64	0.0002308
3713.29	9.2e-05
3722.93	0.0001993
3732.58	0.0004639
3742.22	0.0003556
3751.86	0.00027109
3761.51	0.000115
3771.15	0.0002317
3780.8	0.000127
3790.44	0.00024012
3800.09	0.0001968
3809.73	0.0001866
3819.38	0.0001804
3829.02	0.0001919
3838.67	0.0001488
3848.31	0.00028301
3857.96	0.00027177
3867.6	0.0004057
3877.25	0.00027371
3886.89	0.00024273
3896.54	0.0003904
3906.18	0.00023777
3915.83	0.0002328
3925.47	0.00031296
3935.12	0.0002436
3944.76	0.00030144
3954.41	0.0004323
3964.05	0.0004588
3973.69	0.0003815
3983.34	0.0005833
3992.98	0.0004442
