Infrared Spectrum: PIPERIDYL FORMANILIDE
Formula: C12 H16 N2 O
CAS: 2645-36-5
State: SOLID (1.0% IN KBr PELLET)
Class: COBLENTZ
Instrument: Not specified, most likely a prism, grating, or hybrid spectrometer.
Sampling: TRANSMISSION
Path length: 0.0355 CM THICK
Resolution: 4
Origin: ANDERSON PHYSICAL LABORATORY
1/CM	TRANSMITTANCE
666.875	0.39
675.313	0.4369
683.75	0.465
692.188	0.3781
700.625	0.2579
709.063	0.5439
717.5	0.621
725.938	0.597
734.375	0.529
742.813	0.392
751.25	0.167
759.688	0.1089
768.125	0.3859
776.563	0.5529
785	0.637
793.438	0.681
801.875	0.693
810.313	0.685
818.75	0.697
827.188	0.688
835.625	0.657
844.063	0.5531
852.5	0.565
860.938	0.3751
869.375	0.594
877.813	0.386
886.25	0.6189
894.688	0.682
903.125	0.603
911.563	0.444
920	0.673
928.438	0.702
936.875	0.696
945.313	0.681
953.75	0.6121
962.188	0.5819
970.625	0.615
979.063	0.562
987.5	0.455
995.938	0.573
1004.38	0.582
1012.81	0.573
1021.25	0.501
1029.69	0.3141
1038.13	0.305
1046.56	0.7048
1055	0.679
1063.44	0.613
1071.88	0.564
1080.31	0.546
1088.75	0.473
1097.19	0.549
1105.63	0.549
1114.06	0.526
1122.5	0.5
1130.94	0.437
1139.38	0.351
1147.81	0.446
1156.25	0.368
1164.69	0.446
1173.13	0.446
1181.56	0.4051
1190	0.411
1198.44	0.377
1206.88	0.333
1215.31	0.288
1223.75	0.235
1232.19	0.167
1240.63	0.067
1249.06	0.052
1257.5	0.139
1265.94	0.247
1274.38	0.208
1282.81	0.36
1291.25	0.351
1299.69	0.318
1308.13	0.152
1316.56	0.241
1325	0.42
1333.44	0.513
1341.88	0.564
1350.31	0.4491
1358.75	0.357
1367.19	0.4769
1375.63	0.455
1384.06	0.401
1392.5	0.353
1400.94	0.288
1409.38	0.233
1417.81	0.16
1426.25	0.155
1434.69	0.218
1443.13	0.1721
1451.56	0.068
1460	0.052
1468.44	0.2909
1476.88	0.324
1485.31	0.218
1493.75	0.241
1502.19	0.257
1510.63	0.176
1519.06	0.396
1527.5	0.2941
1535.94	0.1481
1544.38	0.101
1552.81	0.13
1561.25	0.2
1569.69	0.285
1578.13	0.296
1586.56	0.247
1595	0.166
1603.44	0.115
1611.88	0.124
1620.31	0.082
1628.75	0.046
1637.19	0.041
1645.63	0.125
1654.06	0.223
1662.5	0.29
1670.94	0.363
1679.38	0.453
1687.81	0.5379
1696.25	0.619
1704.69	0.69
1713.13	0.726
1721.56	0.797
1730	0.826
1738.44	0.848
1746.88	0.863
1755.31	0.898
1763.75	0.913
1772.19	0.914
1780.63	0.917
1789.06	0.907
1797.5	0.899
1805.94	0.913
1814.38	0.931
1822.81	0.931
1831.25	0.928
1839.69	0.931
1848.13	0.934
1856.56	0.925
1865	0.908
1873.44	0.89
1881.88	0.887
1890.31	0.892
1898.75	0.904
1907.19	0.904
1915.63	0.901
1924.06	0.896
1932.5	0.887
1940.94	0.862
1949.38	0.848
1957.81	0.859
1966.25	0.869
1974.69	0.886
1983.13	0.887
1991.56	0.878
2000	0.877
2008.44	0.8748
2016.88	0.8715
2025.31	0.8695
2033.75	0.866
2042.19	0.8615
2050.63	0.8565
2059.06	0.8515
2067.5	0.8449
2075.94	0.8357
2084.38	0.833
2092.81	0.8345
2101.25	0.836
2109.69	0.8357
2118.13	0.8295
2126.56	0.8232
2135	0.821
2143.44	0.8194
2151.88	0.8159
2160.31	0.814
2168.75	0.8109
2177.19	0.8087
2185.63	0.8043
2194.06	0.802
2202.5	0.7999
2210.94	0.797
2219.38	0.7949
2227.81	0.7914
2236.25	0.7869
2244.69	0.7847
2253.13	0.782
2261.56	0.7812
2270	0.7778
2278.44	0.776
2286.88	0.7738
2295.31	0.7703
2303.75	0.7687
2312.19	0.7623
2320.63	0.7582
2329.06	0.7512
2337.5	0.7479
2345.94	0.7463
2354.38	0.745
2362.81	0.745
2371.25	0.744
2379.69	0.744
2388.13	0.7414
2396.56	0.7354
2405	0.7318
2413.44	0.7308
2421.88	0.7343
2430.31	0.735
2438.75	0.733
2447.19	0.7282
2455.63	0.7247
2464.06	0.7173
2472.5	0.7119
2480.94	0.709
2489.38	0.706
2497.81	0.6974
2506.25	0.696
2514.69	0.6964
2523.13	0.697
2531.56	0.6961
2540	0.6927
2548.44	0.69
2556.88	0.69
2565.31	0.688
2573.75	0.6866
2582.19	0.6846
2590.63	0.682
2599.06	0.6791
2607.5	0.6776
2615.94	0.6741
2624.38	0.6679
2632.81	0.6631
2641.25	0.6608
2649.69	0.6591
2658.13	0.6505
2666.56	0.6391
2675	0.634
2683.44	0.634
2691.88	0.6354
2700.31	0.6389
2708.75	0.6422
2717.19	0.643
2725.63	0.6423
2734.06	0.6361
2742.5	0.6293
2750.94	0.623
2759.38	0.6115
2767.81	0.591
2776.25	0.574
2784.69	0.559
2793.13	0.5447
2801.56	0.5309
2810	0.5162
2818.44	0.4949
2826.88	0.4561
2835.31	0.4093
2843.75	0.3516
2852.19	0.328
2860.63	0.3386
2869.06	0.3963
2877.5	0.4104
2885.94	0.42
2894.38	0.4113
2902.81	0.3954
2911.25	0.3626
2919.69	0.329
2928.13	0.2759
2936.56	0.2764
2945	0.324
2953.44	0.3899
2961.88	0.4622
2970.31	0.5177
2978.75	0.552
2987.19	0.5473
2995.63	0.5317
3004.06	0.497
3012.5	0.471
3020.94	0.4628
3029.38	0.461
3037.81	0.4483
3046.25	0.438
3054.69	0.438
3063.13	0.4408
3071.56	0.4491
3080	0.4523
3088.44	0.4591
3096.88	0.4693
3105.31	0.471
3113.75	0.4671
3122.19	0.4513
3130.63	0.4321
3139.06	0.414
3147.5	0.4189
3155.94	0.4286
3164.38	0.4281
3172.81	0.4212
3181.25	0.4057
3189.69	0.3899
3198.13	0.3747
3206.56	0.3577
3215	0.3374
3223.44	0.3142
3231.88	0.2994
3240.31	0.2957
3248.75	0.2869
3257.19	0.274
3265.63	0.2578
3274.06	0.2468
3282.5	0.2372
3290.94	0.235
3299.38	0.2435
3307.81	0.259
3316.25	0.2808
3324.69	0.3173
3333.13	0.3549
3341.56	0.3887
3350	0.4218
3358.44	0.4514
3366.88	0.4764
3375.31	0.4964
3383.75	0.5118
3392.19	0.5257
3400.63	0.5437
3409.06	0.5492
3417.5	0.552
3425.94	0.552
3434.38	0.552
3442.81	0.5552
3451.25	0.5585
3459.69	0.5617
3468.13	0.564
3476.56	0.568
3485	0.57
3493.44	0.5725
3501.88	0.577
3510.31	0.58
3518.75	0.581
3527.19	0.582
3535.63	0.582
3544.06	0.582
3552.5	0.584
3560.94	0.5875
3569.38	0.594
3577.81	0.5973
3586.25	0.602
3594.69	0.6055
3603.13	0.607
3611.56	0.609
3620	0.61
3628.44	0.61
3636.88	0.612
3645.31	0.612
3653.75	0.612
3662.19	0.612
3670.63	0.612
3679.06	0.612
3687.5	0.612
3695.94	0.61
3704.38	0.61
3712.81	0.61
3721.25	0.6094
3729.69	0.607
3738.13	0.606
3746.56	0.606
3755	0.6049
3763.44	0.604
3771.88	0.603
3780.31	0.601
3788.75	0.5988
3797.19	0.5953
3805.63	0.5919
3814.06	0.5887
3822.5	0.5868
3830.94	0.585
3839.38	0.583
3847.81	0.582
3856.25	0.582
3864.69	0.582
3873.13	0.582
3881.56	0.582
3890	0.582
3898.44	0.582
3906.88	0.582
3915.31	0.5812
3923.75	0.58
3932.19	0.58
3940.63	0.579
3949.06	0.5782
3957.5	0.5747
3965.94	0.573
3974.38	0.573
