Infrared Spectrum: Aniline, 2,4,-di-tert-butyl-N-methyl-
Formula: C15 H25 N
CAS: 26461-68-7
State: LIQUID (NEAT)
Class: COBLENTZ III
Instrument: BECKMAN IR-4 (HYBRID PRISM-GRATING)
Instrument parameters: NaCl PRISM
Sampling: TRANSMISSION
Path length: CAPILLARY
Resolution: 2
Origin: MONSANTO (J. FREEMAN)
1/CM	TRANSMITTANCE
625	0.7213
634	0.6495
643	0.6364
652	0.7127
661	0.7816
670	0.8131
679	0.821
688	0.8278
697	0.8366
706	0.8469
715	0.8636
724	0.8823
733	0.8779
742	0.8354
751	0.8541
760	0.887
769	0.8927
778	0.8891
787	0.8741
796	0.8201
805	0.5119
814	0.4237
823	0.6427
832	0.8306
841	0.882
850	0.9118
859	0.9226
868	0.9254
877	0.8951
886	0.659
895	0.8341
904	0.861
913	0.8972
922	0.8731
931	0.8732
940	0.9116
949	0.9198
958	0.9322
967	0.9393
976	0.9433
985	0.9461
994	0.9473
1003	0.9436
1012	0.9079
1021	0.8829
1030	0.9168
1039	0.9287
1048	0.8901
1057	0.8938
1066	0.9142
1075	0.9178
1084	0.9004
1093	0.7841
1102	0.8557
1111	0.8795
1120	0.8412
1129	0.6983
1138	0.8069
1147	0.8929
1156	0.8641
1165	0.7572
1174	0.6503
1183	0.6542
1192	0.7128
1201	0.5821
1210	0.7641
1219	0.7903
1228	0.7196
1237	0.3789
1246	0.3667
1255	0.5895
1264	0.5507
1273	0.4159
1282	0.3333
1291	0.4635
1300	0.5045
1309	0.6075
1318	0.6007
1327	0.8217
1336	0.8766
1345	0.8834
1354	0.8518
1363	0.5332
1372	0.4418
1381	0.784
1390	0.7068
1399	0.4366
1408	0.4209
1417	0.664
1426	0.7489
1435	0.7107
1444	0.6737
1453	0.5836
1462	0.4906
1471	0.4272
1480	0.4109
1489	0.3882
1498	0.4802
1507	0.1395
1516	0.1099
1525	0.3022
1534	0.4547
1543	0.6153
1552	0.7834
1561	0.8416
1570	0.848
1579	0.8464
1588	0.8489
1597	0.8424
1606	0.7843
1615	0.5786
1624	0.4471
1633	0.6212
1642	0.7598
1651	0.849
1660	0.8931
1669	0.9106
1678	0.9238
1687	0.9358
1696	0.9475
1705	0.9567
1714	0.9603
1723	0.9614
1732	0.9613
1741	0.9603
1750	0.9585
1759	0.9545
1768	0.9486
1777	0.9405
1786	0.9359
1795	0.944
1804	0.9491
1813	0.9487
1822	0.9463
1831	0.9423
1840	0.9411
1849	0.9434
1858	0.9375
1867	0.9301
1876	0.9261
1885	0.9278
1894	0.9348
1903	0.942
1912	0.946
1921	0.9484
1930	0.9502
1939	0.9513
1948	0.9519
1957	0.9525
1966	0.9533
1975	0.9538
1984	0.9539
1993	0.9539
2002	0.9538
2011	0.9542
2020	0.9549
2029	0.9544
2038	0.9519
2047	0.9571
2056	0.9588
2065	0.9581
2074	0.9556
2083	0.9525
2092	0.9501
2101	0.9488
2110	0.9483
2119	0.9488
2128	0.9494
2137	0.9517
2146	0.9532
2155	0.9537
2164	0.951
2173	0.9485
2182	0.9476
2191	0.9474
2200	0.9471
2209	0.9474
2218	0.9476
2227	0.9488
2236	0.9506
2245	0.9524
2254	0.9535
2263	0.9538
2272	0.9527
2281	0.9514
2290	0.9497
2299	0.9481
2308	0.9464
2317	0.9448
2326	0.9433
2335	0.9416
2344	0.9408
2353	0.9399
2362	0.9394
2371	0.9395
2380	0.9395
2389	0.9403
2398	0.941
2407	0.9421
2416	0.9434
2425	0.9437
2434	0.9436
2443	0.9443
2452	0.9462
2461	0.9478
2470	0.9487
2479	0.9489
2488	0.9485
2497	0.9481
2506	0.9476
2515	0.9472
2524	0.9461
2533	0.9446
2542	0.9431
2551	0.9414
2560	0.9388
2569	0.9357
2578	0.9309
2587	0.9251
2596	0.9208
2605	0.9224
2614	0.9254
2623	0.9282
2632	0.9306
2641	0.9329
2650	0.9343
2659	0.9349
2668	0.9346
2677	0.9336
2686	0.932
2695	0.9305
2704	0.9286
2713	0.9265
2722	0.9244
2731	0.9216
2740	0.917
2749	0.9127
2758	0.9087
2767	0.906
2776	0.9044
2785	0.9034
2794	0.9027
2803	0.9012
2812	0.8968
2821	0.8622
2830	0.822
2839	0.7819
2848	0.7421
2857	0.7134
2866	0.7318
2875	0.7332
2884	0.653
2893	0.4986
2902	0.3452
2911	0.2959
2920	0.2911
2929	0.285
2938	0.253
2947	0.2422
2956	0.2194
2965	0.0734
2974	0.0675
2983	0.1032
2992	0.1534
3001	0.2033
3010	0.2514
3019	0.3227
3028	0.4293
3037	0.5351
3046	0.6404
3055	0.7367
3064	0.7533
3073	0.7637
3082	0.7695
3091	0.7744
3100	0.7797
3109	0.7876
3118	0.805
3127	0.8265
3136	0.8376
3145	0.8539
3154	0.8646
3163	0.8734
3172	0.8805
3181	0.8877
3190	0.8954
3199	0.9011
3208	0.9053
3217	0.908
3226	0.909
3235	0.9084
3244	0.9071
3253	0.9055
3262	0.9039
3271	0.9034
3280	0.9041
3289	0.9059
3298	0.9078
3307	0.9103
3316	0.9127
3325	0.9138
3334	0.9148
3343	0.9146
3352	0.9131
3361	0.9116
3370	0.9092
3379	0.9052
3388	0.8972
3397	0.8863
3406	0.8666
3415	0.843
3424	0.8196
3433	0.8047
3442	0.8087
3451	0.8247
3460	0.8417
3469	0.8586
3478	0.8744
3487	0.8778
3496	0.8537
3505	0.8177
3514	0.7819
3523	0.7463
3532	0.7108
3541	0.6918
3550	0.6936
3559	0.7242
3568	0.7586
3577	0.7927
3586	0.8267
3595	0.8571
3604	0.8704
3613	0.8811
3622	0.8974
3631	0.9056
3640	0.911
3649	0.9132
3658	0.9143
3667	0.9154
3676	0.9164
3685	0.9175
3694	0.9182
3703	0.9189
3712	0.9195
3721	0.92
3730	0.9203
3739	0.9207
3748	0.921
3757	0.9213
3766	0.9221
3775	0.9214
3784	0.9214
3793	0.9214
3802	0.9212
3811	0.9209
3820	0.9208
3829	0.9205
3838	0.9203
3847	0.9199
3856	0.9196
3865	0.9193
3874	0.919
3883	0.9187
3892	0.9184
3901	0.918
3910	0.9177
3919	0.9173
3928	0.917
3937	0.9167
3946	0.9163
3955	0.9159
3964	0.9155
3973	0.915
3982	0.9146
3991	0.9142
4000	0.9139
