Infrared Spectrum: Methylcyclopentadiene dimer
Formula: C 12 H 16
CAS: 26472-00-4
State: gas
Instrument: HP-GC/MS/IRD
Origin: NIST Mass Spectrometry Data Center
1/CM	ABSORBANCE
550	0.000478
562	0.00044
574	0.00029
586	0.000328
598	0.000514
610	0.000282
622	0.000184
634	0.000276
646	0.00032
658	0.00063
670	0.001744
682	0.001108
694	0.001138
706	0.000752
718	0.000598
730	0.00093
742	0.000638
754	0.000502
766	0.000262
778	0.000356
790	0.001226
802	0.002982
814	0.003754
826	0.002028
838	0.000748
850	0.000358
862	0.000496
874	0.000902
886	0.001656
898	0.001996
910	0.001506
922	0.001148
934	0.000876
946	0.000758
958	0.000666
970	0.000658
982	0.000658
994	0.00071
1006	0.000728
1018	0.000632
1030	0.000424
1042	0.00026
1054	0.000128
1066	6.8e-05
1078	1.8e-05
1090	5.2e-05
1102	0.000138
1114	0.00025
1126	0.000286
1138	0.000348
1150	0.000302
1162	0.000398
1174	0.00058
1186	0.000326
1198	0.000304
1210	0.000312
1222	0.000402
1234	0.000528
1246	0.000874
1258	0.00088
1270	0.000522
1282	0.000374
1294	0.000434
1306	0.000812
1318	0.001266
1330	0.0012
1342	0.000834
1354	0.000908
1366	0.001276
1378	0.001884
1390	0.00149
1402	0.000772
1414	0.000588
1426	0.000944
1438	0.001818
1450	0.0025
1462	0.001696
1474	0.000842
1486	0.000446
1498	0.00032
1510	0.000292
1522	0.000322
1534	0.000368
1546	0.000352
1558	0.00039
1570	0.00049
1582	0.000606
1594	0.00076
1606	0.000942
1618	0.00097
1630	0.000724
1642	0.000408
1654	0.00031
1666	0.000194
1678	0.000124
1690	9.4e-05
1702	7.4e-05
1714	7e-05
1726	0.000106
1738	9.8e-05
1750	0.000118
1762	0.000102
1774	9.6e-05
1786	0.000116
1798	7.8e-05
1810	9.6e-05
1822	7.4e-05
1834	9.4e-05
1846	6e-05
1858	6.2e-05
1870	3e-05
1882	6e-06
1894	2e-05
1906	4.8e-05
1918	4e-05
1930	5.6e-05
1942	3.4e-05
1954	5e-05
1966	6.4e-05
1978	3.6e-05
1990	3e-05
2002	4.8e-05
2014	5.8e-05
2026	1.8e-05
2038	2.2e-05
2050	4e-05
2062	6e-05
2074	2.6e-05
2086	3e-05
2098	3.2e-05
2110	2.2e-05
2122	1.2e-05
2134	5.6e-05
2146	8.4e-05
2158	7.4e-05
2170	8.6e-05
2182	6.4e-05
2194	4.4e-05
2206	5.8e-05
2218	6.4e-05
2230	7e-05
2242	5e-05
2254	3.2e-05
2266	4e-05
2278	6e-06
2290	3e-05
2302	3e-05
2314	2.2e-05
2326	1e-05
2338	6.4e-05
2350	6e-05
2362	3.2e-05
2374	3.6e-05
2386	3.2e-05
2398	2.6e-05
2410	3.6e-05
2422	3.8e-05
2434	4.8e-05
2446	5.8e-05
2458	8.6e-05
2470	6.2e-05
2482	7.4e-05
2494	4.6e-05
2506	3.6e-05
2518	4.4e-05
2530	2.2e-05
2542	3.6e-05
2554	4.2e-05
2566	8.4e-05
2578	6e-05
2590	2.8e-05
2602	1.6e-05
2614	2e-05
2626	6.4e-05
2638	2.2e-05
2650	7.8e-05
2662	4.4e-05
2674	7.8e-05
2686	7.2e-05
2698	0.000112
2710	0.000126
2722	0.000252
2734	0.000382
2746	0.000434
2758	0.000328
2770	0.00023
2782	0.00028
2794	0.000358
2806	0.00055
2818	0.000774
2830	0.001042
2842	0.002062
2854	0.005428
2866	0.007942
2878	0.009022
2890	0.008442
2902	0.007772
2914	0.010342
2926	0.01421
2938	0.015408
2950	0.01409
2962	0.02
2974	0.014508
2986	0.004226
2998	0.00167
3010	0.001256
3022	0.001926
3034	0.003846
3046	0.00404
3058	0.003644
3070	0.00253
3082	0.001892
3094	0.001388
3106	0.00093
3118	0.000626
3130	0.000464
3142	0.000346
3154	0.000198
3166	0.000162
3178	0.000142
3190	0.000124
3202	0.00011
3214	6.8e-05
3226	0.000134
3238	0.000126
3250	9.2e-05
3262	0.000222
3274	0.000146
3286	0.000114
3298	9.6e-05
3310	4.2e-05
3322	0.00012
3334	7.2e-05
3346	6.4e-05
3358	1.6e-05
3370	8.2e-05
3382	5e-05
3394	8.6e-05
3406	0.000122
3418	6e-05
3430	5.2e-05
3442	6.6e-05
3454	9.2e-05
3466	8e-05
3478	9.4e-05
3490	9e-05
3502	4.4e-05
3514	7.4e-05
3526	6.8e-05
3538	9.2e-05
3550	4e-06
3562	3.8e-05
3574	7.4e-05
3586	3.8e-05
3598	2e-06
3610	0.000112
3622	0.000112
3634	0.000154
3646	8.4e-05
3658	6.2e-05
3670	7.6e-05
3682	8.2e-05
3694	0.000162
3706	0.000192
3718	0.00012
3730	9e-05
3742	9.6e-05
3754	7.4e-05
3766	0.00014
3778	0.000104
3790	0.000172
3802	0.000146
3814	0.000128
3826	0.000124
3838	0.000118
