Infrared Spectrum: 4-Tetradecanone
Formula: C 14 H 28 O
CAS: 26496-20-8
State: gas
Instrument: HP-GC/MS/IRD
Origin: NIST Mass Spectrometry Data Center
1/CM	ABSORBANCE
550	0.0018212
562	0.0001856
574	6.38e-05
586	5.8e-06
598	0.0001334
610	0.000174
622	0.0002668
634	0.0001624
646	0.000261
658	0.0001624
670	0.0002552
682	0.0002552
694	0.000377
706	0.0007424
718	0.0010324
730	0.001073
742	0.000986
754	0.000841
766	0.0008294
778	0.0007366
790	0.0006902
802	0.0006496
814	0.0006264
826	0.0005046
838	0.0005742
850	0.000522
862	0.0005626
874	0.0007076
886	0.0007946
898	0.0008178
910	0.000638
922	0.000493
934	0.0004698
946	0.0005162
958	0.0006728
970	0.0008584
982	0.0011658
994	0.00145
1006	0.0017864
1018	0.002204
1030	0.0023374
1042	0.0021982
1054	0.0020706
1066	0.0020938
1078	0.0019778
1090	0.0016994
1102	0.001798
1114	0.0025694
1126	0.0035902
1138	0.0034916
1150	0.0031088
1162	0.002784
1174	0.0024766
1186	0.0022794
1198	0.001972
1210	0.0017748
1222	0.001769
1234	0.0017922
1246	0.0018444
1258	0.0021228
1270	0.0025346
1282	0.0026796
1294	0.002842
1306	0.0027898
1318	0.0026796
1330	0.0030682
1342	0.0043848
1354	0.0059856
1366	0.0055912
1378	0.003828
1390	0.0028536
1402	0.0025056
1414	0.0030044
1426	0.003219
1438	0.0036656
1450	0.0052258
1462	0.0062698
1474	0.0040542
1486	0.0020068
1498	0.0010904
1510	0.000667
1522	0.0004118
1534	0.0004002
1546	0.0003422
1558	1.16e-05
1570	0.00029
1582	0.000377
1594	0.0003886
1606	0.0003886
1618	0.0002784
1630	0.0004002
1642	0.0004234
1654	0.0003248
1666	0.0008178
1678	0.0013456
1690	0.0024882
1702	0.0051968
1714	0.0116638
1726	0.0169766
1738	0.0091582
1750	0.003393
1762	0.0014964
1774	0.0007424
1786	0.000551
1798	0.000377
1810	0.0003306
1822	0.0002726
1834	0.0002552
1846	0.000174
1858	0.0001972
1870	0.0001334
1882	0.0001856
1894	0.0001566
1906	0.0001566
1918	0.0001218
1930	0.0001334
1942	0.0001276
1954	0.0001276
1966	0.0001102
1978	0.0001102
1990	0.0001102
2002	0.000116
2014	0.0001392
2026	0.0001566
2038	0.0001566
2050	0.0001392
2062	0.0001392
2074	0.0001334
2086	0.0001044
2098	0.0001044
2110	0.0001044
2122	0.0001102
2134	0.0001276
2146	0.0001102
2158	0.0001102
2170	0.0001218
2182	8.7e-05
2194	9.28e-05
2206	0.0001102
2218	9.86e-05
2230	8.12e-05
2242	8.7e-05
2254	8.12e-05
2266	7.54e-05
2278	8.7e-05
2290	8.12e-05
2302	6.96e-05
2314	9.86e-05
2326	9.86e-05
2338	0.0001044
2350	6.38e-05
2362	9.28e-05
2374	9.86e-05
2386	6.38e-05
2398	4.06e-05
2410	4.64e-05
2422	5.22e-05
2434	2.9e-05
2446	3.48e-05
2458	5.8e-06
2470	3.48e-05
2482	2.9e-05
2494	4.64e-05
2506	6.38e-05
2518	9.28e-05
2530	0.000145
2542	0.0001392
2554	0.0001624
2566	0.0001624
2578	0.0002088
2590	0.000232
2602	0.0002494
2614	0.00029
2626	0.0003538
2638	0.0003828
2650	0.000435
2662	0.0005452
2674	0.000609
2686	0.0006496
2698	0.000609
2710	0.000609
2722	0.0006496
2734	0.0007714
2746	0.0009164
2758	0.0009802
2770	0.0010672
2782	0.0012992
2794	0.0016936
2806	0.0022272
2818	0.002929
2830	0.0040194
2842	0.0065482
2854	0.0144536
2866	0.0218718
2878	0.0190704
2890	0.0181482
2902	0.0208278
2914	0.030131
2926	0.0498974
2938	0.055593
2950	0.0380944
2962	0.0306588
2974	0.02494
2986	0.0125222
2998	0.0065192
3010	0.0039904
3022	0.0027086
3034	0.0019778
3046	0.0015138
3058	0.0012238
3070	0.001044
3082	0.0009106
3094	0.000812
3106	0.000754
3118	0.0006554
3130	0.0006032
3142	0.0005858
3154	0.0005452
3166	0.0005162
3178	0.0004466
3190	0.000435
3202	0.0003828
3214	0.0003132
3226	0.0002726
3238	0.0002494
3250	0.0002088
3262	0.0002204
3274	0.0001856
3286	0.0002088
3298	0.000203
3310	0.0001856
3322	0.0002262
3334	0.0001856
3346	0.0002146
3358	0.0001914
3370	0.000232
3382	0.0002552
3394	0.0002784
3406	0.0003306
3418	0.0003828
3430	0.0004698
3442	0.0003944
3454	0.0002842
3466	0.0002204
3478	0.0001914
3490	0.0001566
3502	0.0001624
3514	0.0001276
3526	0.000145
3538	0.0001566
3550	0.0001566
3562	0.0001566
3574	0.0001566
3586	0.0001508
3598	0.0001624
3610	0.0001392
3622	0.0001914
3634	0.0001914
3646	8.12e-05
3658	0.000174
3670	5.22e-05
3682	0.0001798
3694	0.0002146
3706	0.0002262
3718	0.0002378
3730	0.0001566
3742	2.32e-05
3754	5.8e-05
3766	0.0001682
3778	0.000232
3790	0.0002494
3802	0.0001102
3814	0.000145
3826	0.0002436
3838	0.0001334
