Infrared Spectrum: 3,3,5,5-Tetramethylcyclohexanol
Formula: C 10 H 20 O
CAS: 2650-40-0
State: gas
Instrument: HP-GC/MS/IRD
Origin: NIST Mass Spectrometry Data Center
1/CM	ABSORBANCE
550	5.7e-05
562	1.52e-05
574	4.56e-05
586	3.04e-05
598	0.0001178
610	0.0001824
622	0.000114
634	0.0001596
646	0.0001368
658	0.0001786
670	0.000171
682	0.0001558
694	0.0001634
706	0.0001482
718	0.0001482
730	0.0001368
742	9.5e-05
754	0.0001102
766	0.0002774
778	0.0004446
790	0.0004028
802	0.000247
814	0.000266
826	0.0004028
838	0.0002584
850	0.000399
862	0.0007562
874	0.000874
886	0.0009994
898	0.0019076
910	0.0017556
922	0.0010906
934	0.0012274
946	0.0015618
958	0.0019228
970	0.001482
982	0.0018772
994	0.0042598
1006	0.0050768
1018	0.0038874
1030	0.0068134
1042	0.013357
1054	0.0121296
1066	0.0037848
1078	0.0015618
1090	0.0011742
1102	0.0009462
1114	0.0010564
1126	0.0012882
1138	0.0019494
1150	0.0025992
1162	0.0023598
1174	0.002394
1186	0.0029412
1198	0.0032338
1210	0.0028918
1222	0.0030438
1234	0.003781
1246	0.004047
1258	0.0029754
1270	0.002166
1282	0.0021242
1294	0.0023636
1306	0.0024434
1318	0.0021318
1330	0.002014
1342	0.0027854
1354	0.004522
1366	0.007163
1378	0.0067716
1390	0.0057646
1402	0.0037278
1414	0.0017404
1426	0.0017062
1438	0.0022876
1450	0.0035492
1462	0.0057304
1474	0.0050768
1486	0.0028842
1498	0.0012464
1510	0.0006384
1522	0.0003952
1534	0.0002964
1546	0.0002736
1558	0.0002242
1570	0.0001596
1582	0.0001444
1594	0.0001368
1606	0.0001482
1618	0.000171
1630	0.0001254
1642	0.0001216
1654	0.0001406
1666	9.12e-05
1678	8.36e-05
1690	7.6e-05
1702	8.74e-05
1714	9.5e-05
1726	4.56e-05
1738	9.12e-05
1750	5.32e-05
1762	3.8e-05
1774	1.9e-05
1786	3.42e-05
1798	1.52e-05
1810	2.66e-05
1822	4.18e-05
1834	3.42e-05
1846	3.42e-05
1858	1.14e-05
1870	2.66e-05
1882	3.8e-06
1894	2.28e-05
1906	1.14e-05
1918	3.42e-05
1930	3.04e-05
1942	3.42e-05
1954	7.6e-06
1966	2.66e-05
1978	1.52e-05
1990	1.52e-05
2002	3.42e-05
2014	3.04e-05
2026	4.18e-05
2038	5.7e-05
2050	6.46e-05
2062	4.94e-05
2074	4.94e-05
2086	4.18e-05
2098	3.42e-05
2110	1.9e-05
2122	3.42e-05
2134	3.42e-05
2146	4.18e-05
2158	3.42e-05
2170	1.14e-05
2182	1.52e-05
2194	1.14e-05
2206	3.8e-05
2218	3.42e-05
2230	3.42e-05
2242	2.28e-05
2254	4.18e-05
2266	2.66e-05
2278	4.94e-05
2290	6.46e-05
2302	5.32e-05
2314	5.7e-05
2326	6.46e-05
2338	8.74e-05
2350	7.6e-05
2362	0.0001026
2374	7.6e-05
2386	8.36e-05
2398	9.88e-05
2410	0.0001026
2422	9.5e-05
2434	0.0001254
2446	0.0001064
2458	0.0001292
2470	0.000152
2482	0.0001292
2494	0.0001254
2506	0.0001444
2518	0.000133
2530	0.0001292
2542	0.0001406
2554	0.0001824
2566	0.0001824
2578	0.0002166
2590	0.0002584
2602	0.0002584
2614	0.0002888
2626	0.0003344
2638	0.000342
2650	0.0004218
2662	0.0004864
2674	0.0004978
2686	0.000532
2698	0.0005814
2710	0.0007068
2722	0.0008132
2734	0.0007904
2746	0.0007904
2758	0.0007942
2770	0.0009766
2782	0.0011058
2794	0.0011932
2806	0.0015124
2818	0.0022572
2830	0.0037696
2842	0.007087
2854	0.0093442
2866	0.011324
2878	0.0148694
2890	0.0181412
2902	0.025023
2914	0.0278654
2926	0.0287888
2938	0.0260452
2950	0.0307344
2962	0.0372172
2974	0.015903
2986	0.008151
2998	0.0073492
3010	0.004332
3022	0.0018696
3034	0.0011476
3046	0.0008436
3058	0.0007182
3070	0.0006612
3082	0.0006802
3094	0.000627
3106	0.0005586
3118	0.0005472
3130	0.0005662
3142	0.0005168
3154	0.000475
3166	0.000494
3178	0.0004978
3190	0.0005434
3202	0.0005206
3214	0.0004522
3226	0.0003572
3238	0.000304
3250	0.0002242
3262	0.000171
3274	0.000152
3286	0.0001216
3298	0.000133
3310	0.0001406
3322	0.000171
3334	0.000152
3346	0.0001216
3358	0.0001482
3370	0.0001444
3382	0.0001558
3394	0.0002014
3406	0.0001748
3418	0.0001634
3430	0.0001748
3442	0.000171
3454	0.000228
3466	0.000171
3478	9.5e-05
3490	6.46e-05
3502	6.08e-05
3514	8.74e-05
3526	6.46e-05
3538	1.9e-05
3550	4.18e-05
3562	6.84e-05
3574	3.42e-05
3586	7.98e-05
3598	0.000114
3610	0.0001672
3622	0.0004218
3634	0.0012008
3646	0.0022306
3658	0.0016378
3670	0.000475
3682	0.0001482
3694	7.98e-05
3706	7.6e-05
3718	0.0001026
3730	0.0001254
3742	0.0001216
3754	0.0001178
3766	0.000133
3778	0.0001444
3790	0.0001368
3802	0.000171
3814	0.0001482
3826	0.0001862
3838	0.0002204
