Infrared Spectrum: 2-Methyl-4-nonanol
Formula: C 10 H 22 O
CAS: 26533-31-3
State: gas
Instrument: HP-GC/MS/IRD
Origin: NIST Mass Spectrometry Data Center
1/CM	ABSORBANCE
550	0.000442
562	0.0004896
574	0.0002992
586	0.0003366
598	0.0001292
610	0.0001122
622	0.000187
634	0.000119
646	0.0001088
658	0.000153
670	5.1e-05
682	1.02e-05
694	7.14e-05
706	0.0001428
718	0.000323
730	0.0004522
742	0.000357
754	0.0002958
766	0.00034
778	0.000255
790	0.0002584
802	0.0003264
814	0.0004726
826	0.0007344
838	0.0008602
850	0.0008432
862	0.0005882
874	0.0005372
886	0.0005032
898	0.0006902
910	0.001054
922	0.00153
934	0.0018054
946	0.0017952
958	0.0015062
970	0.0014688
982	0.0017238
994	0.0022066
1006	0.0027914
1018	0.0033864
1030	0.0036516
1042	0.003366
1054	0.0027064
1066	0.0022134
1078	0.0020434
1090	0.0020706
1102	0.002227
1114	0.0024378
1126	0.0029002
1138	0.0031484
1150	0.0025194
1162	0.0021148
1174	0.0019958
1186	0.0017374
1198	0.001887
1210	0.0020638
1222	0.002091
1234	0.0020026
1246	0.0020536
1258	0.0020944
1270	0.0021012
1282	0.0019924
1294	0.001785
1306	0.0016082
1318	0.0015402
1330	0.0018122
1342	0.0022134
1354	0.0027744
1366	0.0039542
1378	0.0046206
1390	0.003995
1402	0.0023766
1414	0.0015912
1426	0.0015368
1438	0.002125
1450	0.0030838
1462	0.004199
1474	0.0036346
1486	0.0017408
1498	0.0008602
1510	0.0005508
1522	0.0003536
1534	0.0002516
1546	0.0002176
1558	0.0001496
1570	0.0001564
1582	0.0001428
1594	0.0001258
1606	0.0001258
1618	9.18e-05
1630	0.0001122
1642	8.5e-05
1654	7.14e-05
1666	4.76e-05
1678	7.82e-05
1690	7.48e-05
1702	5.1e-05
1714	6.8e-05
1726	6.12e-05
1738	3.06e-05
1750	2.72e-05
1762	2.72e-05
1774	1.7e-05
1786	6.8e-06
1798	2.04e-05
1810	2.38e-05
1822	1.7e-05
1834	2.38e-05
1846	2.38e-05
1858	2.38e-05
1870	3.4e-06
1882	3.06e-05
1894	2.38e-05
1906	0
1918	1.7e-05
1930	1.36e-05
1942	2.04e-05
1954	1.7e-05
1966	1.02e-05
1978	3.74e-05
1990	1.7e-05
2002	2.38e-05
2014	6.8e-06
2026	1.36e-05
2038	4.08e-05
2050	4.08e-05
2062	4.08e-05
2074	5.44e-05
2086	2.72e-05
2098	2.38e-05
2110	1.36e-05
2122	2.38e-05
2134	4.76e-05
2146	4.42e-05
2158	4.08e-05
2170	3.4e-05
2182	4.42e-05
2194	5.44e-05
2206	2.72e-05
2218	1.7e-05
2230	2.04e-05
2242	2.04e-05
2254	1.02e-05
2266	3.74e-05
2278	1.7e-05
2290	4.42e-05
2302	4.08e-05
2314	4.76e-05
2326	5.44e-05
2338	5.1e-05
2350	5.1e-05
2362	6.12e-05
2374	6.46e-05
2386	7.14e-05
2398	7.14e-05
2410	8.5e-05
2422	8.16e-05
2434	8.5e-05
2446	6.46e-05
2458	5.78e-05
2470	7.14e-05
2482	8.16e-05
2494	6.8e-05
2506	7.82e-05
2518	9.18e-05
2530	0.0001088
2542	0.0001054
2554	0.000136
2566	0.0001666
2578	0.0001904
2590	0.0002278
2602	0.0002618
2614	0.0002924
2626	0.0003298
2638	0.0003604
2650	0.000391
2662	0.0004284
2674	0.0004488
2686	0.0004726
2698	0.0005066
2710	0.0005474
2722	0.0006324
2734	0.0007548
2746	0.0007752
2758	0.0007582
2770	0.0008262
2782	0.0009758
2794	0.0011764
2806	0.0014892
2818	0.002023
2830	0.0029138
2842	0.0047634
2854	0.008177
2866	0.012393
2878	0.0153578
2890	0.0147152
2902	0.0158338
2914	0.0218824
2926	0.03043
2938	0.0336464
2950	0.0278392
2962	0.0324122
2974	0.0232492
2986	0.0083368
2998	0.0040596
3010	0.0024242
3022	0.001632
3034	0.0012138
3046	0.0009554
3058	0.000799
3070	0.000697
3082	0.0006358
3094	0.0005678
3106	0.0005304
3118	0.0004216
3130	0.0003706
3142	0.0003808
3154	0.0003502
3166	0.0003502
3178	0.0003264
3190	0.0003026
3202	0.0002584
3214	0.0001462
3226	0.0001224
3238	6.8e-05
3250	7.14e-05
3262	7.48e-05
3274	7.48e-05
3286	3.74e-05
3298	1.36e-05
3310	4.42e-05
3322	3.74e-05
3334	7.14e-05
3346	6.12e-05
3358	4.42e-05
3370	9.52e-05
3382	9.18e-05
3394	9.52e-05
3406	8.84e-05
3418	7.48e-05
3430	6.8e-05
3442	8.16e-05
3454	7.82e-05
3466	5.78e-05
3478	4.08e-05
3490	3.74e-05
3502	3.74e-05
3514	2.04e-05
3526	6.12e-05
3538	5.1e-05
3550	1.7e-05
3562	5.44e-05
3574	2.72e-05
3586	4.76e-05
3598	8.5e-05
3610	0.0001836
3622	0.0003604
3634	0.00068
3646	0.0013192
3658	0.0014314
3670	0.0006562
3682	0.0002652
3694	0.000153
3706	7.48e-05
3718	6.8e-05
3730	9.86e-05
3742	4.76e-05
3754	0.0001122
3766	9.86e-05
3778	0.000119
3790	0.0001054
3802	0.0001122
3814	7.14e-05
3826	0.0001122
3838	7.82e-05
