Infrared Spectrum: 2-Methyl-3-octanol
Formula: C 9 H 20 O
CAS: 26533-34-6
State: gas
Instrument: HP-GC/MS/IRD
Origin: NIST Mass Spectrometry Data Center
1/CM	ABSORBANCE
550	0.000591
562	0.000309
574	0.000261
586	0.00015
598	0.000204
610	0.000132
622	0.000156
634	3.6e-05
646	2.1e-05
658	5.7e-05
670	3.6e-05
682	5.1e-05
694	8.7e-05
706	0.000198
718	0.000312
730	0.000276
742	0.000285
754	0.00024
766	0.000327
778	0.000375
790	0.000249
802	0.000348
814	0.000363
826	0.000417
838	0.000381
850	0.000405
862	0.00039
874	0.000489
886	0.000666
898	0.000921
910	0.001125
922	0.001302
934	0.001935
946	0.002484
958	0.002511
970	0.002532
982	0.002985
994	0.003636
1006	0.004089
1018	0.0042
1030	0.003843
1042	0.003123
1054	0.002586
1066	0.002298
1078	0.002226
1090	0.002286
1102	0.002361
1114	0.002373
1126	0.002259
1138	0.002346
1150	0.002058
1162	0.001917
1174	0.001755
1186	0.001578
1198	0.001602
1210	0.001791
1222	0.00201
1234	0.002235
1246	0.002247
1258	0.002082
1270	0.001923
1282	0.001794
1294	0.001686
1306	0.001626
1318	0.001458
1330	0.001443
1342	0.00171
1354	0.002127
1366	0.003102
1378	0.003987
1390	0.004113
1402	0.002646
1414	0.001515
1426	0.001377
1438	0.001833
1450	0.002907
1462	0.004185
1474	0.003894
1486	0.00201
1498	0.000975
1510	0.000627
1522	0.000453
1534	0.000333
1546	0.00027
1558	0.000234
1570	0.000171
1582	0.000165
1594	0.000153
1606	0.000129
1618	0.000138
1630	0.00012
1642	0.000117
1654	0.00012
1666	9.6e-05
1678	6.6e-05
1690	5.7e-05
1702	6.3e-05
1714	5.4e-05
1726	3.9e-05
1738	2.7e-05
1750	3.3e-05
1762	2.4e-05
1774	3.6e-05
1786	9e-06
1798	1.8e-05
1810	6e-06
1822	6e-06
1834	9e-06
1846	1.2e-05
1858	3e-06
1870	2.7e-05
1882	3.6e-05
1894	2.1e-05
1906	1.2e-05
1918	1.8e-05
1930	3e-05
1942	3.3e-05
1954	4.2e-05
1966	1.8e-05
1978	0
1990	2.1e-05
2002	1.8e-05
2014	2.7e-05
2026	1.8e-05
2038	2.7e-05
2050	3e-05
2062	1.5e-05
2074	3e-06
2086	4.5e-05
2098	9e-06
2110	1.2e-05
2122	3.6e-05
2134	1.5e-05
2146	3.6e-05
2158	1.2e-05
2170	3.9e-05
2182	1.8e-05
2194	3.9e-05
2206	2.4e-05
2218	3e-05
2230	2.4e-05
2242	3.3e-05
2254	4.5e-05
2266	1.8e-05
2278	6.6e-05
2290	6e-05
2302	5.1e-05
2314	3.3e-05
2326	7.8e-05
2338	6.6e-05
2350	5.1e-05
2362	6.3e-05
2374	9.3e-05
2386	7.8e-05
2398	7.5e-05
2410	6.9e-05
2422	8.4e-05
2434	5.7e-05
2446	6.3e-05
2458	6.3e-05
2470	4.5e-05
2482	4.8e-05
2494	5.1e-05
2506	5.4e-05
2518	6e-05
2530	9e-05
2542	0.000105
2554	0.000114
2566	0.000171
2578	0.000195
2590	0.000246
2602	0.000273
2614	0.000324
2626	0.000318
2638	0.000342
2650	0.000348
2662	0.000372
2674	0.000435
2686	0.000438
2698	0.000453
2710	0.000504
2722	0.000591
2734	0.000699
2746	0.000735
2758	0.000747
2770	0.00084
2782	0.000954
2794	0.001143
2806	0.001413
2818	0.001884
2830	0.002676
2842	0.004536
2854	0.008436
2866	0.012756
2878	0.015096
2890	0.01443
2902	0.014274
2914	0.017682
2926	0.024255
2938	0.02904
2950	0.026046
2962	0.028674
2974	0.025608
2986	0.01113
2998	0.004767
3010	0.002625
3022	0.001743
3034	0.001311
3046	0.00099
3058	0.000774
3070	0.00069
3082	0.000594
3094	0.000567
3106	0.000468
3118	0.000414
3130	0.000375
3142	0.000375
3154	0.000351
3166	0.000366
3178	0.000345
3190	0.000306
3202	0.000195
3214	0.000207
3226	0.000129
3238	6.9e-05
3250	9.3e-05
3262	7.8e-05
3274	3.3e-05
3286	5.1e-05
3298	6e-05
3310	3.6e-05
3322	5.7e-05
3334	7.2e-05
3346	5.7e-05
3358	1.8e-05
3370	8.4e-05
3382	7.5e-05
3394	9.3e-05
3406	0.000129
3418	0.000126
3430	0.000141
3442	0.000111
3454	0.00012
3466	0.000105
3478	0.000111
3490	0.000108
3502	8.7e-05
3514	6.6e-05
3526	7.5e-05
3538	7.8e-05
3550	9.9e-05
3562	7.2e-05
3574	7.5e-05
3586	0.000117
3598	0.000156
3610	0.000255
3622	0.000447
3634	0.000654
3646	0.00117
3658	0.00165
3670	0.001164
3682	0.000486
3694	0.000279
3706	0.000186
3718	0.00018
3730	0.000168
3742	0.000159
3754	0.000102
3766	0.000156
3778	0.000108
3790	0.000141
3802	0.000192
3814	0.000189
3826	0.000156
3838	0.000177
