Infrared Spectrum: (2-HYDROXYETHYL)TRIMETHYLAMMONIUM IODIDE, METHACRYLIC ACID ESTER
Formula: C9 H18 I N O2
CAS: 26536-87-8
State: SOLID (NUJOL MULL)
Class: COBLENTZ III
Instrument: PERKIN-ELMER 221 (GRATING)
Instrument parameters: GRATING FOR 4000-1428, FILTERS AT 2490, 980, NaCl PRISM FOR 1428-650 CM^-^1
Sampling: TRANSMISSION
Resolution: 4
Origin: SOUTHERN RESEARCH INSTITUTE
1/CM	TRANSMITTANCE
665.693	0.717
674.23	0.7419
682.766	0.7539
691.303	0.7589
699.839	0.7546
708.376	0.7312
716.913	0.6978
725.449	0.7236
733.986	0.7415
742.522	0.753
751.059	0.7513
759.595	0.7414
768.132	0.719
776.669	0.6925
785.205	0.7758
793.742	0.786
802.278	0.7637
810.815	0.6122
819.352	0.6205
827.888	0.7894
836.425	0.7803
844.961	0.767
853.498	0.7765
862.035	0.775
870.571	0.7686
879.108	0.7586
887.644	0.7383
896.181	0.7199
904.717	0.6744
913.254	0.501
921.791	0.3853
930.327	0.4674
938.864	0.3495
947.4	0.4857
955.937	0.3209
964.474	0.432
973.01	0.6763
981.547	0.7173
990.083	0.7155
998.62	0.7123
1007.16	0.699
1015.69	0.6107
1024.23	0.533
1032.77	0.7447
1041.3	0.7425
1049.84	0.734
1058.38	0.708
1066.91	0.7066
1075.45	0.704
1083.99	0.701
1092.52	0.6949
1101.06	0.6764
1109.6	0.6517
1118.13	0.629
1126.67	0.5666
1135.21	0.4695
1143.74	0.2922
1152.28	0.3205
1160.82	0.1738
1169.35	0.1808
1177.89	0.3237
1186.42	0.4859
1194.96	0.6025
1203.5	0.6598
1212.03	0.6515
1220.57	0.6227
1229.11	0.71
1237.64	0.7148
1246.18	0.715
1254.72	0.7005
1263.25	0.6759
1271.79	0.6394
1280.33	0.5767
1288.86	0.3182
1297.4	0.351
1305.94	0.5135
1314.47	0.323
1323.01	0.554
1331.55	0.635
1340.08	0.63
1348.62	0.571
1357.16	0.4327
1365.69	0.4278
1374.23	0.4158
1382.77	0.5941
1391.3	0.56
1399.84	0.565
1408.38	0.6851
1416.91	0.6019
1425.45	0.5646
1433.99	0.4308
1442.52	0.2588
1451.06	0.209
1459.6	0.2277
1468.13	0.2959
1476.67	0.3373
1485.21	0.5137
1493.74	0.6503
1502.28	0.7623
1510.82	0.7725
1519.35	0.773
1527.89	0.773
1536.42	0.773
1544.96	0.767
1553.5	0.765
1562.03	0.762
1570.57	0.7535
1579.11	0.75
1587.64	0.7415
1596.18	0.7298
1604.72	0.7019
1613.25	0.685
1621.79	0.652
1630.33	0.4456
1638.86	0.5836
1647.4	0.707
1655.94	0.7064
1664.47	0.6785
1673.01	0.6425
1681.55	0.6299
1690.08	0.5966
1698.62	0.5195
1707.16	0.3102
1715.69	0.1635
1724.23	0.142
1732.77	0.3881
1741.3	0.6355
1749.84	0.7516
1758.38	0.779
1766.91	0.7765
1775.45	0.774
1783.99	0.7838
1792.52	0.7977
1801.06	0.802
1809.6	0.806
1818.13	0.8126
1826.67	0.818
1835.21	0.821
1843.74	0.823
1852.28	0.82
1860.82	0.8196
1869.35	0.8159
1877.89	0.81
1886.42	0.812
1894.96	0.8035
1903.5	0.7953
1912.03	0.7758
1920.57	0.7713
1929.11	0.7798
1937.64	0.801
1946.18	0.801
1954.72	0.801
1963.25	0.8
1971.79	0.798
1980.33	0.7951
1988.86	0.7872
1997.4	0.781
2005.94	0.775
2014.47	0.7713
2023.01	0.7739
2031.55	0.778
2040.08	0.7789
2048.62	0.7801
2057.16	0.775
2065.69	0.773
2074.23	0.773
2082.77	0.771
2091.3	0.769
2099.84	0.769
2108.38	0.771
2116.91	0.7653
2125.45	0.762
2133.99	0.76
2142.52	0.7581
2151.06	0.76
2159.6	0.7571
2168.13	0.759
2176.67	0.759
2185.21	0.759
2193.74	0.758
2202.28	0.7543
2210.82	0.752
2219.35	0.751
2227.89	0.752
2236.43	0.7474
2244.96	0.743
2253.5	0.743
2262.03	0.743
2270.57	0.743
2279.11	0.7391
2287.64	0.7351
2296.18	0.731
2304.72	0.7243
2313.25	0.7181
2321.79	0.718
2330.33	0.719
2338.86	0.7171
2347.4	0.715
2355.94	0.715
2364.47	0.7167
2373.01	0.7189
2381.55	0.721
2390.08	0.72
2398.62	0.718
2407.16	0.718
2415.69	0.718
2424.23	0.717
2432.77	0.717
2441.3	0.715
2449.84	0.714
2458.38	0.714
2466.91	0.714
2475.45	0.715
2483.99	0.7285
2492.52	0.709
2501.06	0.7071
2509.6	0.7043
2518.13	0.702
2526.67	0.701
2535.21	0.7
2543.74	0.6971
2552.28	0.6933
2560.82	0.6823
2569.35	0.679
2577.89	0.678
2586.43	0.676
2594.96	0.6741
2603.5	0.6691
2612.03	0.667
2620.57	0.663
2629.11	0.659
2637.64	0.6561
2646.18	0.653
2654.72	0.651
2663.25	0.65
2671.79	0.65
2680.33	0.648
2688.86	0.648
2697.4	0.648
2705.94	0.647
2714.47	0.647
2723.01	0.646
2731.55	0.647
2740.08	0.6497
2748.62	0.65
2757.16	0.648
2765.69	0.6433
2774.23	0.6391
2782.77	0.6353
2791.3	0.6144
2799.84	0.6013
2808.38	0.5745
2816.91	0.5427
2825.45	0.4882
2833.99	0.4003
2842.52	0.2326
2851.06	0.1249
2859.6	0.097
2868.13	0.1075
2876.67	0.1259
2885.21	0.142
2893.74	0.1089
2902.28	0.0811
2910.82	0.0375
2919.35	0.0301
2927.89	0.0336
2936.43	0.0537
2944.96	0.0649
2953.5	0.069
2962.03	0.0739
2970.57	0.0917
2979.11	0.1684
2987.64	0.2626
2996.18	0.282
3004.72	0.2467
3013.25	0.2432
3021.79	0.4554
3030.33	0.492
3038.86	0.4965
3047.4	0.5209
3055.94	0.532
3064.47	0.5399
3073.01	0.5429
3081.55	0.543
3090.08	0.545
3098.62	0.5517
3107.16	0.56
3115.69	0.562
3124.23	0.5679
3132.77	0.57
3141.3	0.5739
3149.84	0.575
3158.38	0.576
3166.91	0.579
3175.45	0.58
3183.99	0.58
3192.52	0.58
3201.06	0.58
3209.6	0.581
3218.13	0.5801
3226.67	0.58
3235.21	0.58
3243.74	0.58
3252.28	0.58
3260.82	0.58
3269.35	0.58
3277.89	0.58
3286.43	0.578
3294.96	0.5777
3303.5	0.575
3312.03	0.575
3320.57	0.5681
3329.11	0.568
3337.64	0.569
3346.18	0.5689
3354.72	0.568
3363.25	0.569
3371.79	0.568
3380.33	0.568
3388.86	0.568
3397.4	0.568
3405.94	0.5653
3414.47	0.5667
3423.01	0.568
3431.55	0.568
3440.08	0.568
3448.62	0.569
3457.16	0.568
3465.69	0.569
3474.23	0.568
3482.77	0.568
3491.3	0.568
3499.84	0.567
3508.38	0.568
3516.91	0.568
3525.45	0.568
3533.99	0.568
3542.52	0.5671
3551.06	0.567
3559.6	0.5641
3568.13	0.562
3576.67	0.562
3585.21	0.56
3593.74	0.56
3602.28	0.558
3610.82	0.5561
3619.35	0.556
3627.89	0.556
3636.43	0.556
3644.96	0.5531
3653.5	0.552
3662.04	0.552
3670.57	0.551
3679.11	0.551
3687.64	0.55
3696.18	0.547
3704.72	0.5461
3713.25	0.543
3721.79	0.5411
3730.33	0.541
3738.86	0.54
3747.4	0.54
3755.94	0.541
3764.47	0.54
3773.01	0.54
3781.55	0.54
3790.08	0.54
3798.62	0.5391
3807.16	0.54
3815.69	0.5391
3824.23	0.535
3832.77	0.535
3841.3	0.535
3849.84	0.5341
3858.38	0.5349
3866.91	0.535
3875.45	0.532
3883.99	0.532
3892.52	0.535
3901.06	0.534
3909.6	0.535
3918.13	0.532
3926.67	0.531
3935.21	0.531
3943.74	0.531
3952.28	0.531
3960.82	0.531
3969.35	0.53
3977.89	0.532
3986.43	0.532
3994.96	0.5301
