Infrared Spectrum: 2-Methyl-3-nonanol
Formula: C 10 H 22 O
CAS: 26533-33-5
State: gas
Instrument: HP-GC/MS/IRD
Origin: NIST Mass Spectrometry Data Center
1/CM	ABSORBANCE
550	0.0008244
562	0.0001368
574	3.6e-06
586	0.0002592
598	0.0002592
610	0.0003132
622	0.0002916
634	0.0001692
646	0.0002268
658	0.0001404
670	0.0001476
682	0.0001908
694	0.000252
706	0.0003816
718	0.0005364
730	0.0005904
742	0.0005328
754	0.0004428
766	0.000486
778	0.000432
790	0.0005364
802	0.0005256
814	0.0004968
826	0.000504
838	0.000594
850	0.0006696
862	0.0008856
874	0.0009576
886	0.0009792
898	0.0010836
910	0.00117
922	0.001152
934	0.0013464
946	0.0018936
958	0.0028188
970	0.0034884
982	0.0037944
994	0.003438
1006	0.003564
1018	0.0039312
1030	0.0042156
1042	0.0039096
1054	0.00315
1066	0.0025416
1078	0.0022572
1090	0.002232
1102	0.0023328
1114	0.0022788
1126	0.002268
1138	0.0023328
1150	0.0021276
1162	0.002052
1174	0.0019512
1186	0.0017784
1198	0.0018396
1210	0.0019872
1222	0.0021888
1234	0.0023652
1246	0.0023616
1258	0.00225
1270	0.002124
1282	0.0019836
1294	0.0018756
1306	0.0018432
1318	0.0016848
1330	0.0016272
1342	0.0019332
1354	0.0024768
1366	0.0034164
1378	0.0042264
1390	0.0043056
1402	0.0027504
1414	0.0016848
1426	0.0015228
1438	0.0020628
1450	0.0033336
1462	0.0047124
1474	0.0042336
1486	0.002124
1498	0.0010512
1510	0.000684
1522	0.0004896
1534	0.0003816
1546	0.0003276
1558	0.0002196
1570	0.000216
1582	0.0002376
1594	0.0002016
1606	0.000198
1618	0.000162
1630	0.000162
1642	0.0001404
1654	0.0001224
1666	0.000144
1678	9.36e-05
1690	0.0001116
1702	9.36e-05
1714	8.64e-05
1726	6.48e-05
1738	3.24e-05
1750	3.96e-05
1762	2.16e-05
1774	1.08e-05
1786	4.68e-05
1798	5.04e-05
1810	3.24e-05
1822	5.04e-05
1834	4.32e-05
1846	6.84e-05
1858	5.76e-05
1870	5.04e-05
1882	3.96e-05
1894	4.32e-05
1906	3.96e-05
1918	2.88e-05
1930	4.32e-05
1942	2.16e-05
1954	2.88e-05
1966	1.44e-05
1978	3.6e-05
1990	2.88e-05
2002	2.52e-05
2014	5.4e-05
2026	3.96e-05
2038	4.68e-05
2050	2.88e-05
2062	4.32e-05
2074	4.32e-05
2086	1.8e-05
2098	2.16e-05
2110	3.24e-05
2122	2.16e-05
2134	3.24e-05
2146	3.6e-05
2158	2.88e-05
2170	3.96e-05
2182	5.04e-05
2194	2.88e-05
2206	2.16e-05
2218	2.88e-05
2230	3.6e-05
2242	4.32e-05
2254	4.68e-05
2266	6.12e-05
2278	7.2e-05
2290	8.28e-05
2302	9.36e-05
2314	7.56e-05
2326	5.04e-05
2338	3.96e-05
2350	7.92e-05
2362	5.04e-05
2374	7.2e-05
2386	0.0001152
2398	0.0001296
2410	0.0001368
2422	0.0001476
2434	0.0001548
2446	0.000126
2458	0.000144
2470	0.0001404
2482	0.0001512
2494	0.0001692
2506	0.0001584
2518	0.0001872
2530	0.0001908
2542	0.0002304
2554	0.0002376
2566	0.0002988
2578	0.0003456
2590	0.0003924
2602	0.0004284
2614	0.0004608
2626	0.0004932
2638	0.0005184
2650	0.0005688
2662	0.0005724
2674	0.0006516
2686	0.0006732
2698	0.000684
2710	0.0007092
2722	0.0007848
2734	0.000882
2746	0.0009468
2758	0.0009432
2770	0.0010332
2782	0.0011916
2794	0.0014112
2806	0.0017568
2818	0.002286
2830	0.00324
2842	0.0054324
2854	0.010512
2866	0.0156744
2878	0.017118
2890	0.0159876
2902	0.0163332
2914	0.0213696
2926	0.0310032
2938	0.036
2950	0.029448
2962	0.0305712
2974	0.026676
2986	0.0115416
2998	0.0051624
3010	0.0029592
3022	0.0020268
3034	0.0015552
3046	0.0012672
3058	0.00108
3070	0.000972
3082	0.0008496
3094	0.0007848
3106	0.000684
3118	0.000612
3130	0.0005616
3142	0.0005364
3154	0.0004968
3166	0.0005076
3178	0.0004356
3190	0.000396
3202	0.0003276
3214	0.0002592
3226	0.0001908
3238	0.0001728
3250	0.0001548
3262	0.0001512
3274	6.48e-05
3286	0.000108
3298	0.0001224
3310	0.0001224
3322	9.36e-05
3334	6.48e-05
3346	0.0001296
3358	0.0001008
3370	8.28e-05
3382	6.12e-05
3394	6.12e-05
3406	0.0001224
3418	0.0001224
3430	9.36e-05
3442	5.4e-05
3454	0.0001044
3466	0.0001188
3478	5.4e-05
3490	4.32e-05
3502	7.2e-05
3514	2.16e-05
3526	3.96e-05
3538	1.8e-05
3550	2.16e-05
3562	4.32e-05
3574	3.96e-05
3586	7.2e-06
3598	3.24e-05
3610	0.0001224
3622	0.0002916
3634	0.0006084
3646	0.0011448
3658	0.0015588
3670	0.0010116
3682	0.0003636
3694	0.0001512
3706	6.84e-05
3718	2.16e-05
3730	3.24e-05
3742	0
3754	4.32e-05
3766	0
3778	2.88e-05
3790	2.52e-05
3802	3.24e-05
3814	9.72e-05
3826	0.0001188
3838	4.68e-05
