Infrared Spectrum: 2-Nonadecanol
Formula: C 19 H 40 O
CAS: 26533-36-8
State: gas
Instrument: HP-GC/MS/IRD
Origin: NIST Mass Spectrometry Data Center
1/CM	ABSORBANCE
550	0.0013284
562	6.48e-05
574	6.48e-05
586	0.0001053
598	8.91e-05
610	0.0001863
622	0.0001377
634	0.0001782
646	6.48e-05
658	0.0001458
670	0.0003159
682	0.0002673
694	0.0005265
706	0.0009234
718	0.0012636
730	0.0011016
742	0.0008181
754	0.0006885
766	0.0006399
778	0.0005832
790	0.0004698
802	0.0005022
814	0.0006075
826	0.0006723
838	0.0007371
850	0.0008262
862	0.0007047
874	0.0007209
886	0.0007857
898	0.000972
910	0.001215
922	0.0014742
934	0.0017334
946	0.0016281
958	0.0013689
970	0.0013527
982	0.0014013
994	0.0015876
1006	0.0017496
1018	0.0018954
1030	0.002106
1042	0.0022194
1054	0.00243
1066	0.0025272
1078	0.0026568
1090	0.0028431
1102	0.002997
1114	0.0028512
1126	0.0027216
1138	0.0023409
1150	0.0018387
1162	0.0014904
1174	0.0013365
1186	0.0013203
1198	0.0014013
1210	0.0015552
1222	0.0017901
1234	0.0021465
1246	0.0023733
1258	0.0020817
1270	0.0018225
1282	0.001701
1294	0.0018225
1306	0.0019197
1318	0.001944
1330	0.0020007
1342	0.0029322
1354	0.0036045
1366	0.003807
1378	0.0040419
1390	0.0033129
1402	0.002187
1414	0.0016686
1426	0.0016686
1438	0.002673
1450	0.0046251
1462	0.0059373
1474	0.0035802
1486	0.001539
1498	0.0008667
1510	0.0009153
1522	0.0005913
1534	0.0003888
1546	0.0004293
1558	0.0002187
1570	0.0001377
1582	0.0001539
1594	0.0001377
1606	0.0001458
1618	7.29e-05
1630	8.1e-05
1642	0.0001053
1654	0.0001134
1666	0.0001377
1678	0.0001944
1690	0.000162
1702	0.0001782
1714	0.0002187
1726	0.0001782
1738	0.0002025
1750	0.0002673
1762	0.0001782
1774	0.0001296
1786	0.0001863
1798	0.0001782
1810	0.0001215
1822	0.0001458
1834	0.0001053
1846	0.0001458
1858	8.1e-05
1870	9.72e-05
1882	7.29e-05
1894	8.1e-05
1906	4.86e-05
1918	8.91e-05
1930	4.86e-05
1942	7.29e-05
1954	3.24e-05
1966	5.67e-05
1978	3.24e-05
1990	8.1e-05
2002	4.86e-05
2014	8.1e-05
2026	9.72e-05
2038	0.0001053
2050	8.91e-05
2062	8.1e-05
2074	7.29e-05
2086	7.29e-05
2098	4.86e-05
2110	4.05e-05
2122	6.48e-05
2134	4.86e-05
2146	4.86e-05
2158	5.67e-05
2170	4.05e-05
2182	6.48e-05
2194	6.48e-05
2206	4.86e-05
2218	4.86e-05
2230	5.67e-05
2242	6.48e-05
2254	5.67e-05
2266	6.48e-05
2278	6.48e-05
2290	6.48e-05
2302	0.0001134
2314	0.0001377
2326	0.0001782
2338	0.0001944
2350	0.0001458
2362	0.0002511
2374	0.0001701
2386	6.48e-05
2398	4.86e-05
2410	4.86e-05
2422	4.05e-05
2434	4.05e-05
2446	3.24e-05
2458	3.24e-05
2470	2.43e-05
2482	4.86e-05
2494	7.29e-05
2506	8.1e-05
2518	0.0001134
2530	0.0001458
2542	0.0001701
2554	0.0001863
2566	0.0002025
2578	0.000243
2590	0.0002997
2602	0.0003564
2614	0.0003969
2626	0.0004941
2638	0.0005751
2650	0.000648
2662	0.0007371
2674	0.0007857
2686	0.0008424
2698	0.0007776
2710	0.000729
2722	0.0007614
2734	0.0008181
2746	0.0009315
2758	0.0009963
2770	0.0011421
2782	0.0013932
2794	0.0018063
2806	0.0023247
2818	0.0032238
2830	0.0046818
2842	0.0082377
2854	0.0205983
2866	0.0295569
2878	0.0195615
2890	0.0168561
2902	0.0218781
2914	0.036288
2926	0.0693846
2938	0.0725517
2950	0.0353808
2962	0.0219753
2974	0.0172854
2986	0.0094608
2998	0.0047304
3010	0.0028674
3022	0.0020007
3034	0.0015309
3046	0.0011826
3058	0.0009882
3070	0.0008181
3082	0.0006642
3094	0.0005913
3106	0.0005265
3118	0.0004779
3130	0.0004131
3142	0.0003726
3154	0.0003564
3166	0.0003645
3178	0.0003159
3190	0.0002592
3202	0.0002592
3214	0.0002268
3226	0.0001539
3238	0.0001296
3250	0.0001215
3262	8.91e-05
3274	8.91e-05
3286	5.67e-05
3298	5.67e-05
3310	6.48e-05
3322	6.48e-05
3334	8.1e-05
3346	9.72e-05
3358	7.29e-05
3370	8.91e-05
3382	7.29e-05
3394	8.1e-05
3406	6.48e-05
3418	8.1e-05
3430	8.1e-05
3442	8.91e-05
3454	0.0001053
3466	5.67e-05
3478	4.86e-05
3490	5.67e-05
3502	0.0001215
3514	2.43e-05
3526	0.0001053
3538	5.67e-05
3550	0.0001134
3562	8.91e-05
3574	2.43e-05
3586	0.0002349
3598	0.0001377
3610	0.0003321
3622	0.0003645
3634	0.0006399
3646	0.0010854
3658	0.0012393
3670	0.0005913
3682	0.0002754
3694	0.0001296
3706	8.91e-05
3718	0.0001539
3730	0.0001458
3742	0.0001539
3754	7.29e-05
3766	3.24e-05
3778	4.86e-05
3790	6.48e-05
3802	2.43e-05
3814	4.86e-05
3826	7.29e-05
3838	6.48e-05
