Infrared Spectrum: 8-Phenyloctanoic acid
Formula: C 14 H 20 O 2
CAS: 26547-51-3
State: gas
Origin: EPA-IR VAPOR PHASE LIBRARY
1/CM	ABSORBANCE
549.8	0.05657
559.445	0.06755
569.09	0.07081
578.734	0.06799
588.379	0.07142
598.024	0.07299
607.669	0.07239
617.313	0.06866
626.958	0.06356
636.603	0.05402
646.248	0.04213
655.893	0.03556
665.537	0.0347
675.182	0.04108
684.827	0.06018
694.472	0.10925
704.116	0.09248
713.761	0.07236
723.406	0.0703
733.051	0.07856
742.695	0.07735
752.34	0.04883
761.985	0.0302
771.63	0.02125
781.275	0.01553
790.919	0.01147
800.564	0.00951
810.209	0.0085
819.854	0.00781
829.498	0.00832
839.143	0.00873
848.788	0.00913
858.433	0.00939
868.078	0.00979
877.722	0.00999
887.367	0.01039
897.012	0.01135
906.657	0.01268
916.301	0.0101
925.946	0.00912
935.591	0.00872
945.236	0.00891
954.88	0.00943
964.525	0.01071
974.17	0.01215
983.815	0.01391
993.46	0.01621
1003.1	0.01875
1012.75	0.02227
1022.39	0.03078
1032.04	0.0416
1041.68	0.04259
1051.33	0.05873
1060.97	0.07728
1070.62	0.09252
1080.26	0.11111
1089.91	0.1237
1099.55	0.14149
1109.2	0.18394
1118.84	0.22657
1128.49	0.20278
1138.13	0.15687
1147.78	0.13205
1157.42	0.11284
1167.07	0.09876
1176.71	0.08645
1186.36	0.07408
1196	0.06328
1205.64	0.05512
1215.29	0.04789
1224.93	0.04177
1234.58	0.03781
1244.22	0.03629
1253.87	0.03654
1263.51	0.03675
1273.16	0.03612
1282.8	0.03549
1292.45	0.03435
1302.09	0.03372
1311.74	0.03313
1321.38	0.03336
1331.03	0.03724
1340.67	0.04595
1350.32	0.05616
1359.96	0.06009
1369.61	0.06296
1379.25	0.06239
1388.9	0.05262
1398.54	0.03662
1408.18	0.02736
1417.83	0.02598
1427.47	0.0307
1437.12	0.03771
1446.76	0.05246
1456.41	0.06271
1466.05	0.04957
1475.7	0.02886
1485.34	0.02683
1494.99	0.04937
1504.63	0.02453
1514.28	0.00915
1523.92	0.00693
1533.57	0.00675
1543.21	0.00597
1552.86	0.0054
1562.5	0.00572
1572.15	0.00735
1581.79	0.01118
1591.44	0.01733
1601.08	0.02627
1610.73	0.01753
1620.37	0.00716
1630.01	0.00505
1639.66	0.00494
1649.3	0.00503
1658.95	0.0051
1668.59	0.00554
1678.24	0.00648
1687.88	0.00832
1697.53	0.01165
1707.17	0.01691
1716.82	0.02638
1726.46	0.04371
1736.11	0.0734
1745.75	0.12042
1755.4	0.18639
1765.04	0.28718
1774.69	0.40563
1784.33	0.34595
1793.98	0.21945
1803.62	0.13231
1813.27	0.06928
1822.91	0.03528
1832.55	0.02007
1842.2	0.01337
1851.84	0.01075
1861.49	0.00978
1871.13	0.00891
1880.78	0.00758
1890.42	0.00567
1900.07	0.00484
1909.71	0.0048
1919.36	0.00547
1929	0.00717
1938.65	0.00813
1948.29	0.0079
1957.94	0.00552
1967.58	0.00315
1977.23	0.00282
1986.87	0.00256
1996.52	0.0024
2006.16	0.00227
2015.81	0.00219
2025.45	0.00233
2035.1	0.00233
2044.74	0.00207
2054.38	0.00192
2064.03	0.00184
2073.67	0.00182
2083.32	0.00182
2092.96	0.00167
2102.61	0.00163
2112.25	0.00177
2121.9	0.00183
2131.54	0.00203
2141.19	0.00203
2150.83	0.00215
2160.48	0.00231
2170.12	0.00256
2179.77	0.00263
2189.41	0.00255
2199.06	0.00258
2208.7	0.00278
2218.35	0.00249
2227.99	0.0025
2237.64	0.00255
2247.28	0.00248
2256.92	0.00241
2266.57	0.00234
2276.21	0.00217
2285.86	0.00237
2295.5	0.00212
2305.15	0.0024
2314.79	0.00285
2324.44	0.00244
2334.08	0.00248
2343.73	0.00248
2353.37	0.00241
2363.02	0.00227
2372.66	0.00215
2382.31	0.00207
2391.95	0.00197
2401.6	0.00203
2411.24	0.00204
2420.89	0.00197
2430.53	0.002
2440.18	0.00202
2449.82	0.00193
2459.47	0.00191
2469.11	0.00184
2478.75	0.00167
2488.4	0.00171
2498.04	0.00186
2507.69	0.00184
2517.33	0.00212
2526.98	0.0021
2536.62	0.00214
2546.27	0.00207
2555.91	0.00199
2565.56	0.00192
2575.2	0.00222
2584.85	0.00228
2594.49	0.00265
2604.14	0.0028
2613.78	0.00319
2623.43	0.00336
2633.07	0.00357
2642.72	0.00362
2652.36	0.00389
2662.01	0.00414
2671.65	0.00441
2681.29	0.00464
2690.94	0.00472
2700.58	0.0045
2710.23	0.00433
2719.87	0.00375
2729.52	0.00385
2739.16	0.00394
2748.81	0.00436
2758.45	0.00484
2768.1	0.00528
2777.74	0.00624
2787.39	0.00778
2797.03	0.00895
2806.68	0.01078
2816.32	0.01341
2825.97	0.01803
2835.61	0.02548
2845.26	0.04365
2854.9	0.09754
2864.55	0.15707
2874.19	0.12373
2883.84	0.0816
2893.48	0.07378
2903.12	0.09725
2912.77	0.15349
2922.41	0.25167
2932.06	0.38269
2941.7	0.38622
2951.35	0.23913
2960.99	0.1277
2970.64	0.07319
2980.28	0.04767
2989.93	0.03409
2999.57	0.0297
3009.22	0.03355
3018.86	0.04767
3028.51	0.081
3038.15	0.07288
3047.8	0.04238
3057.44	0.04522
3067.09	0.07421
3076.73	0.06136
3086.38	0.04222
3096.02	0.0292
3105.67	0.01963
3115.31	0.01199
3124.95	0.00573
3134.6	0.00349
3144.24	0.00275
3153.89	0.00239
3163.53	0.00243
3173.18	0.00175
3182.82	0.00138
3192.47	0.0009815
3202.11	0.0008287
3211.76	0.0006747
3221.4	0.0007543
3231.05	0.0004382
3240.69	0.0004025
3250.34	0.0003475
3259.98	0.0006766
3269.63	0.0004831
3279.27	0.0006134
3288.92	0.0003605
3298.56	0.0002654
3308.21	0.0001516
3317.85	0.0001532
3327.49	0.0004083
3337.14	0.0002523
3346.78	0.0002359
3356.43	0.000141
3366.07	0.0001736
3375.72	0.0003939
3385.36	0.0004666
3395.01	0.0004941
3404.65	0.0005961
3414.3	0.0004743
3423.94	0.0003462
3433.59	0.0005254
3443.23	0.0006153
3452.88	0.0004748
3462.52	0.0007586
3472.17	0.00102
3481.81	0.00141
3491.46	0.00203
3501.1	0.0027
3510.75	0.0037
3520.39	0.00508
3530.04	0.00658
3539.68	0.00952
3549.32	0.01566
3558.97	0.03637
3568.61	0.11188
3578.26	0.15437
3587.9	0.04444
3597.55	0.01588
3607.19	0.00772
3616.84	0.00491
3626.48	0.00363
3636.13	0.00271
3645.77	0.0024
3655.42	0.00184
3665.06	0.00141
3674.71	0.00101
3684.35	0.0009546
3694	0.00101
3703.64	0.00117
3713.29	0.0008016
3722.93	0.000636
3732.58	0.0006688
3742.22	0.0004351
3751.86	0.0003838
3761.51	0.0006244
3771.15	0.0008565
3780.8	0.0005233
3790.44	0.0007183
3800.09	0.0007854
3809.73	0.0007959
3819.38	0.0004628
3829.02	0.0006112
3838.67	0.0005717
3848.31	0.0006138
3857.96	0.0007199
3867.6	0.0007691
3877.25	0.0008979
3886.89	0.0007049
3896.54	0.000755
3906.18	0.0006027
3915.83	0.0008422
3925.47	0.0008959
3935.12	0.00106
3944.76	0.00116
3954.41	0.0009348
3964.05	0.0009029
3973.69	0.000847
3983.34	0.0009672
3992.98	0.00126
