Infrared Spectrum: 1-PHENYL-4,4-DIMETHYL-3-PYRAZOLIDONE
Formula: C11 H14 N2 O
CAS: 2654-58-2
State: SOLID (KBr PRESSING)
Melting point: 176 C
Class: COBLENTZ
Instrument: Not specified, most likely a prism, grating, or hybrid spectrometer.
Sampling: TRANSMISSION
Resolution: 4
Origin: EASTMAN KODAK COMPANY, RESEARCH LABORATORIES, ROCHESTER, N.Y.
MICROMETERS	TRANSMITTANCE
2.021	0.858
2.05614	0.86
2.09128	0.867
2.12642	0.876
2.16156	0.876
2.1967	0.867
2.23184	0.869
2.26698	0.879
2.30212	0.888
2.33726	0.89
2.3724	0.893
2.40753	0.883
2.44267	0.905
2.47781	0.898
2.51295	0.9
2.54809	0.907
2.58323	0.914
2.61837	0.918
2.65351	0.918
2.68865	0.916
2.72379	0.9
2.75893	0.853
2.79407	0.811
2.82921	0.78
2.86435	0.759
2.89949	0.757
2.93463	0.761
2.96977	0.747
3.00491	0.775
3.04005	0.735
3.07519	0.655
3.11033	0.531
3.14546	0.355
3.1806	0.301
3.21574	0.418
3.25088	0.217
3.28602	0.207
3.32116	0.283
3.3563	0.163
3.39144	0.348
3.42658	0.308
3.46172	0.247
3.49686	0.325
3.532	0.404
3.56714	0.486
3.60228	0.555
3.63742	0.604
3.67256	0.696
3.7077	0.752
3.74284	0.81
3.77798	0.841
3.81312	0.874
3.84826	0.897
3.88339	0.919
3.91853	0.928
3.95367	0.935
3.98881	0.947
4.02395	0.952
4.05909	0.954
4.09423	0.958
4.12937	0.968
4.16451	0.97
4.19965	0.97
4.23479	0.97
4.26993	0.972
4.30507	0.98
4.34021	0.986
4.37535	0.991
4.41049	0.993
4.44563	0.993
4.48077	0.993
4.51591	0.989
4.55105	0.987
4.58619	0.994
4.62132	0.998
4.65646	1.003
4.6916	1.005
4.72674	1.008
4.76188	1.01
4.79702	1.008
4.83216	1.005
4.8673	1.001
4.90244	1.003
4.93758	1.005
4.97272	1.006
5.00786	1.003
5.043	1.001
5.07814	0.98
5.11328	0.968
5.14842	0.951
5.18356	0.961
5.2187	0.98
5.25384	0.993
5.28898	0.993
5.32412	0.996
5.35925	0.987
5.39439	0.951
5.42953	0.942
5.46467	0.952
5.49981	0.966
5.53495	0.952
5.57009	0.935
5.60523	0.898
5.64037	0.879
5.67551	0.864
5.71065	0.841
5.74579	0.777
5.78093	0.66
5.81607	0.531
5.85121	0.385
5.88635	0.228
5.92149	0.06
5.95663	0.012
5.99177	0.05
6.02691	0.303
6.06205	0.423
6.09718	0.531
6.13232	0.623
6.16746	0.646
6.2026	0.432
6.23774	0.019
6.27288	0.339
6.30802	0.475
6.34316	0.662
6.3783	0.729
6.41344	0.771
6.44858	0.803
6.48372	0.808
6.51886	0.82
6.554	0.818
6.58914	0.729
6.62428	0.655
6.65942	0.355
6.69456	0.05
6.7297	0.285
6.76484	0.468
6.79998	0.404
6.83511	0.458
6.87025	0.451
6.90539	0.489
6.94053	0.614
6.97567	0.71
7.01081	0.777
7.04595	0.787
7.08109	0.764
7.11623	0.604
7.15137	0.324
7.18651	0.331
7.22165	0.729
7.25679	0.757
7.29193	0.611
7.32707	0.515
7.36221	0.642
7.39735	0.778
7.43249	0.792
7.46763	0.738
7.50277	0.663
7.53791	0.513
7.57304	0.442
7.60818	0.437
7.64332	0.334
7.67846	0.21
7.7136	0.299
7.74874	0.482
7.78388	0.578
7.81902	0.621
7.85416	0.632
7.8893	0.599
7.92444	0.599
7.95958	0.628
7.99472	0.569
8.02986	0.48
8.065	0.432
8.10014	0.346
8.13528	0.214
8.17042	0.177
8.20556	0.433
8.2407	0.609
8.27584	0.7
8.31097	0.736
8.34611	0.752
8.38125	0.771
8.41639	0.756
8.45153	0.679
8.48667	0.78
8.52181	0.803
8.55695	0.726
8.59209	0.712
8.62723	0.733
8.66237	0.766
8.69751	0.839
8.73265	0.831
8.76779	0.766
8.80293	0.602
8.83807	0.512
8.87321	0.63
8.90835	0.756
8.94349	0.82
8.97863	0.853
9.01377	0.867
9.0489	0.886
9.08404	0.904
9.11918	0.925
9.15432	0.937
9.18946	0.945
9.2246	0.951
9.25974	0.94
9.29488	0.937
9.33002	0.949
9.36516	0.954
9.4003	0.963
9.43544	0.966
9.47058	0.97
9.50572	0.968
9.54086	0.961
9.576	0.951
9.61114	0.898
9.64628	0.639
9.68142	0.738
9.71656	0.811
9.7517	0.837
9.78683	0.898
9.82197	0.93
9.85711	0.942
9.89225	0.937
9.92739	0.921
9.96253	0.792
9.99767	0.506
10.0328	0.81
10.068	0.832
10.1031	0.797
10.1382	0.717
10.1734	0.639
10.2085	0.595
10.2436	0.634
10.2788	0.742
10.3139	0.808
10.3491	0.843
10.3842	0.855
10.4193	0.864
10.4545	0.851
10.4896	0.874
10.5248	0.878
10.5599	0.878
10.595	0.86
10.6302	0.893
10.6653	0.911
10.7005	0.933
10.7356	0.928
10.7707	0.932
10.8059	0.921
10.841	0.928
10.8762	0.918
10.9113	0.914
10.9464	0.902
10.9816	0.888
11.0167	0.876
11.0519	0.872
11.087	0.879
11.1221	0.881
11.1573	0.874
11.1924	0.867
11.2276	0.848
11.2627	0.799
11.2978	0.77
11.333	0.724
11.3681	0.736
11.4033	0.761
11.4384	0.761
11.4735	0.742
11.5087	0.691
11.5438	0.668
11.579	0.674
11.6141	0.729
11.6492	0.742
11.6844	0.754
11.7195	0.757
11.7546	0.743
11.7898	0.736
11.8249	0.717
11.8601	0.705
11.8952	0.698
11.9303	0.681
11.9655	0.681
12.0006	0.675
12.0358	0.667
12.0709	0.665
12.106	0.665
12.1412	0.663
12.1763	0.656
12.2115	0.642
12.2466	0.637
12.2817	0.63
12.3169	0.625
12.352	0.625
12.3872	0.623
12.4223	0.621
12.4574	0.604
12.4926	0.573
12.5277	0.534
12.5629	0.503
12.598	0.473
12.6331	0.451
12.6683	0.433
12.7034	0.428
12.7386	0.435
12.7737	0.442
12.8088	0.452
12.844	0.461
12.8791	0.465
12.9143	0.463
12.9494	0.452
12.9845	0.425
13.0197	0.378
13.0548	0.301
13.0899	0.203
13.1251	0.12
13.1602	0.06
13.1954	0.059
13.2305	0.097
13.2656	0.21
13.3008	0.294
13.3359	0.346
13.3711	0.395
13.4062	0.451
13.4413	0.506
13.4765	0.574
13.5116	0.63
13.5468	0.662
13.5819	0.698
13.617	0.731
13.6522	0.743
13.6873	0.761
13.7225	0.773
13.7576	0.777
13.7927	0.78
13.8279	0.79
13.863	0.801
13.8982	0.803
13.9333	0.803
13.9684	0.803
14.0036	0.803
14.0387	0.804
14.0739	0.803
14.109	0.792
14.1441	0.773
14.1793	0.75
14.2144	0.707
14.2496	0.663
14.2847	0.56
14.3198	0.449
14.355	0.318
14.3901	0.216
14.4253	0.16
14.4604	0.17
14.4955	0.282
14.5307	0.43
14.5658	0.538
14.6009	0.606
14.6361	0.655
14.6712	0.686
14.7064	0.702
14.7415	0.703
14.7766	0.7
14.8118	0.686
14.8469	0.665
14.8821	0.637
14.9172	0.621
14.9523	0.583
14.9875	0.501
15.0226	0.419
15.0578	0.386
15.0929	0.374
15.128	0.376
15.1632	0.398
15.1983	0.423
15.2335	0.452
15.2686	0.491
15.3037	0.526
15.3389	0.566
15.374	0.592
15.4092	0.627
15.4443	0.66
15.4794	0.682
15.5146	0.705
15.5497	0.724
15.5849	0.731
15.62	0.738
15.6551	0.745
15.6903	0.747
15.7254	0.752
15.7606	0.761
15.7957	0.764
15.8308	0.766
15.866	0.766
