Infrared Spectrum: N-AMYL ANILINE
Formula: C11 H17 N
CAS: 2655-27-8
State: LIQUID
Class: COBLENTZ
Instrument: Not specified, most likely a grating spectrometer.
Sampling: TRANSMISSION
Path length: 0.0015 CM
Resolution: 4
Origin: STANDARD OIL OF OHIO
MICROMETERS	TRANSMITTANCE
2.039	0.945
2.07261	0.947
2.10623	0.952
2.13984	0.942
2.17345	0.942
2.20707	0.949
2.24068	0.951
2.2743	0.93
2.30791	0.918
2.34152	0.923
2.37514	0.935
2.40875	0.934
2.44236	0.913
2.47598	0.918
2.50959	0.94
2.5432	0.944
2.57682	0.949
2.61043	0.952
2.64405	0.952
2.67766	0.951
2.71127	0.951
2.74489	0.949
2.7785	0.954
2.81211	0.947
2.84573	0.913
2.87934	0.657
2.91296	0.474
2.94657	0.673
2.98018	0.854
3.0138	0.907
3.04741	0.927
3.08102	0.922
3.11464	0.917
3.14825	0.915
3.18186	0.817
3.21548	0.677
3.24909	0.574
3.28271	0.564
3.31632	0.456
3.34993	0.152
3.38355	0.131
3.41716	0.179
3.45077	0.209
3.48439	0.38
3.518	0.663
3.55161	0.778
3.58523	0.856
3.61884	0.871
3.65246	0.876
3.68607	0.891
3.71968	0.9
3.7533	0.908
3.78691	0.913
3.82052	0.907
3.85414	0.891
3.88775	0.9
3.92136	0.929
3.95498	0.94
3.98859	0.949
4.02221	0.951
4.05582	0.951
4.08943	0.952
4.12305	0.949
4.15666	0.944
4.19027	0.951
4.22389	0.951
4.2575	0.945
4.29112	0.945
4.32473	0.947
4.35834	0.951
4.39196	0.957
4.42557	0.959
4.45918	0.962
4.4928	0.962
4.52641	0.962
4.56002	0.959
4.59364	0.952
4.62725	0.952
4.66087	0.952
4.69448	0.954
4.72809	0.952
4.76171	0.956
4.79532	0.952
4.82893	0.952
4.86255	0.951
4.89616	0.947
4.92977	0.945
4.96339	0.949
4.997	0.952
5.03062	0.949
5.06423	0.945
5.09784	0.934
5.13146	0.912
5.16507	0.88
5.19868	0.863
5.2323	0.893
5.26591	0.93
5.29952	0.94
5.33314	0.94
5.36675	0.939
5.40037	0.918
5.43398	0.898
5.46759	0.888
5.50121	0.908
5.53482	0.929
5.56843	0.929
5.60205	0.913
5.63566	0.893
5.66928	0.903
5.70289	0.918
5.7365	0.92
5.77012	0.91
5.80373	0.903
5.83734	0.885
5.87096	0.851
5.90457	0.815
5.93818	0.795
5.9718	0.82
6.00541	0.839
6.03903	0.81
6.07264	0.773
6.10625	0.618
6.13987	0.244
6.17348	0.104
6.20709	0.069
6.24071	0.111
6.27432	0.356
6.30793	0.641
6.34155	0.701
6.37516	0.709
6.40878	0.711
6.44239	0.721
6.476	0.67
6.50962	0.528
6.54323	0.217
6.57684	0.091
6.61046	0.062
6.64407	0.096
6.67768	0.248
6.7113	0.329
6.74491	0.271
6.77853	0.241
6.81214	0.255
6.84575	0.304
6.87937	0.481
6.91298	0.532
6.94659	0.398
6.98021	0.334
7.01382	0.547
7.04744	0.712
7.08105	0.76
7.11466	0.782
7.14828	0.771
7.18189	0.621
7.2155	0.442
7.24912	0.478
7.28273	0.545
7.31634	0.616
7.34996	0.667
7.38357	0.667
7.41719	0.562
7.4508	0.407
7.48441	0.315
7.51803	0.173
7.55164	0.128
7.58525	0.146
7.61887	0.258
7.65248	0.346
7.68609	0.418
7.71971	0.471
7.75332	0.489
7.78694	0.407
7.82055	0.342
7.85416	0.324
7.88778	0.29
7.92139	0.211
7.955	0.236
7.98862	0.32
8.02223	0.513
8.05585	0.574
8.08946	0.65
8.12307	0.675
8.15669	0.702
8.1903	0.726
8.22391	0.746
8.25753	0.748
8.29114	0.738
8.32475	0.743
8.35837	0.743
8.39198	0.689
8.4256	0.488
8.45921	0.3
8.49282	0.38
8.52644	0.548
8.56005	0.533
8.59366	0.489
8.62728	0.41
8.66089	0.353
8.6945	0.442
8.72812	0.496
8.76173	0.577
8.79535	0.614
8.82896	0.643
8.86257	0.668
8.89619	0.692
8.9298	0.704
8.96341	0.711
8.99703	0.717
9.03064	0.721
9.06425	0.722
9.09787	0.668
9.13148	0.597
9.1651	0.56
9.19871	0.596
9.23232	0.646
9.26594	0.657
9.29955	0.633
9.33316	0.66
9.36678	0.722
9.40039	0.751
9.43401	0.775
9.46762	0.797
9.50123	0.8
9.53485	0.797
9.56846	0.787
9.60207	0.771
9.63569	0.721
9.6693	0.68
9.70291	0.68
9.73653	0.726
9.77014	0.783
9.80376	0.809
9.83737	0.812
9.87098	0.802
9.9046	0.802
9.93821	0.792
9.97182	0.756
10.0054	0.628
10.0391	0.528
10.0727	0.557
10.1063	0.714
10.1399	0.773
10.1735	0.793
10.2071	0.805
10.2407	0.812
10.2743	0.809
10.308	0.804
10.3416	0.814
10.3752	0.826
10.4088	0.837
10.4424	0.847
10.476	0.849
10.5096	0.853
10.5433	0.858
10.5769	0.863
10.6105	0.868
10.6441	0.871
10.6777	0.876
10.7113	0.876
10.7449	0.869
10.7786	0.859
10.8122	0.851
10.8458	0.844
10.8794	0.837
10.913	0.836
10.9466	0.837
10.9802	0.851
11.0138	0.851
11.0475	0.847
11.0811	0.844
11.1147	0.844
11.1483	0.849
11.1819	0.853
11.2155	0.854
11.2491	0.858
11.2828	0.854
11.3164	0.837
11.35	0.802
11.3836	0.77
11.4172	0.706
11.4508	0.64
11.4844	0.584
11.5181	0.547
11.5517	0.555
11.5853	0.672
11.6189	0.734
11.6525	0.773
11.6861	0.8
11.7197	0.814
11.7533	0.826
11.787	0.831
11.8206	0.834
11.8542	0.836
11.8878	0.832
11.9214	0.827
11.955	0.82
11.9886	0.817
12.0223	0.817
12.0559	0.819
12.0895	0.815
12.1231	0.812
12.1567	0.802
12.1903	0.793
12.2239	0.785
12.2576	0.777
12.2912	0.773
12.3248	0.78
12.3584	0.785
12.392	0.797
12.4256	0.802
12.4592	0.802
12.4928	0.802
12.5265	0.798
12.5601	0.793
12.5937	0.79
12.6273	0.783
12.6609	0.78
12.6945	0.771
12.7281	0.763
12.7618	0.751
12.7954	0.738
12.829	0.722
12.8626	0.707
12.8962	0.69
12.9298	0.668
12.9634	0.652
12.9971	0.633
13.0307	0.604
13.0643	0.577
13.0979	0.535
13.1315	0.464
13.1651	0.378
13.1987	0.265
13.2323	0.197
13.266	0.108
13.2996	0.082
13.3332	0.065
13.3668	0.06
13.4004	0.064
13.434	0.077
13.4676	0.128
13.5013	0.28
13.5349	0.363
13.5685	0.437
13.6021	0.474
13.6357	0.508
13.6693	0.538
13.7029	0.557
13.7366	0.584
13.7702	0.614
13.8038	0.641
13.8374	0.652
13.871	0.665
13.9046	0.677
13.9382	0.682
13.9718	0.682
14.0055	0.68
14.0391	0.679
14.0727	0.67
14.1063	0.66
14.1399	0.65
14.1735	0.619
14.2071	0.565
14.2408	0.528
14.2744	0.459
14.308	0.39
14.3416	0.236
14.3752	0.197
14.4088	0.153
14.4424	0.121
14.4761	0.108
14.5097	0.162
14.5433	0.25
14.5769	0.322
14.6105	0.451
14.6441	0.516
14.6777	0.542
14.7113	0.569
14.745	0.586
14.7786	0.603
14.8122	0.611
14.8458	0.613
14.8794	0.616
14.913	0.623
14.9466	0.626
14.9803	0.63
15.0139	0.628
15.0475	0.626
15.0811	0.625
15.1147	0.621
15.1483	0.619
15.1819	0.621
15.2156	0.623
15.2492	0.626
15.2828	0.626
15.3164	0.623
15.35	0.619
