Infrared Spectrum: Methoxycarbonylsulfenyl chloride
Formula: C 2 H 3 Cl O 2 S
CAS: 26555-40-8
State: gas
Origin: EPA-IR VAPOR PHASE LIBRARY
1/CM	ABSORBANCE
549.8	0.0205016
559.445	0.0156116
569.09	0.0083316
578.734	0.0019716
588.379	0.000675
598.024	0.0005293
607.669	0.0004855
617.313	0.0008239
626.958	0.0007946
636.603	0.0013816
646.248	0.0030216
655.893	0.0044916
665.537	0.0074916
675.182	0.0051516
684.827	0.0036416
694.472	0.0017016
704.116	0.0013716
713.761	0.0009963
723.406	0.0009526
733.051	0.0009888
742.695	0.0015016
752.34	0.0016016
761.985	0.0018416
771.63	0.0031116
781.275	0.0057516
790.919	0.0097516
800.564	0.0152816
810.209	0.0186316
819.854	0.0167916
829.498	0.0089016
839.143	0.0046116
848.788	0.0025016
858.433	0.0017716
868.078	0.0014316
877.722	0.0011216
887.367	0.0008177
897.012	0.0008296
906.657	0.0010132
916.301	0.000753
925.946	0.0008222
935.591	0.0013216
945.236	0.0021816
954.88	0.0036016
964.525	0.0042316
974.17	0.0044616
983.815	0.0035816
993.46	0.0025816
1003.1	0.0024516
1012.75	0.0024416
1022.39	0.0019516
1032.04	0.0023816
1041.68	0.0029816
1051.33	0.0044416
1060.97	0.0067616
1070.62	0.0107816
1080.26	0.0173316
1089.91	0.0252616
1099.55	0.0321916
1109.2	0.0459116
1118.84	0.0781716
1128.49	0.148552
1138.13	0.252582
1147.78	0.306302
1157.42	0.259222
1167.07	0.152532
1176.71	0.120232
1186.36	0.110042
1196	0.0928816
1205.64	0.0744516
1215.29	0.0531516
1224.93	0.0344716
1234.58	0.0226216
1244.22	0.0166316
1253.87	0.0130216
1263.51	0.0104116
1273.16	0.0080316
1282.8	0.0067916
1292.45	0.0071516
1302.09	0.0072916
1311.74	0.0071716
1321.38	0.0064516
1331.03	0.0060316
1340.67	0.0042916
1350.32	0.0032316
1359.96	0.0029016
1369.61	0.0024916
1379.25	0.0024716
1388.9	0.0025916
1398.54	0.0031916
1408.18	0.0045216
1417.83	0.0071316
1427.47	0.0142916
1437.12	0.0184616
1446.76	0.0161916
1456.41	0.0085216
1466.05	0.0066216
1475.7	0.0056816
1485.34	0.0046316
1494.99	0.0038416
1504.63	0.0031916
1514.28	0.0028616
1523.92	0.0027316
1533.57	0.0025916
1543.21	0.0026716
1552.86	0.0024616
1562.5	0.0023816
1572.15	0.0023616
1581.79	0.0021916
1591.44	0.0021916
1601.08	0.0019916
1610.73	0.0020616
1620.37	0.0024816
1630.01	0.0026516
1639.66	0.0026716
1649.3	0.0022516
1658.95	0.0019716
1668.59	0.0020416
1678.24	0.0028016
1687.88	0.0041716
1697.53	0.0076016
1707.17	0.0180216
1716.82	0.0488016
1726.46	0.0746616
1736.11	0.0810716
1745.75	0.0563416
1755.4	0.0576716
1765.04	0.0894916
1774.69	0.0918416
1784.33	0.0979016
1793.98	0.0496316
1803.62	0.0196416
1813.27	0.0067816
1822.91	0.0035216
1832.55	0.0025816
1842.2	0.0024416
1851.84	0.0026616
1861.49	0.0030616
1871.13	0.0030116
1880.78	0.0026516
1890.42	0.0024816
1900.07	0.0024316
1909.71	0.0025316
1919.36	0.0027416
1929	0.0029016
1938.65	0.0027216
1948.29	0.0025916
1957.94	0.0024016
1967.58	0.0022116
1977.23	0.0019116
1986.87	0.0018016
1996.52	0.0018416
2006.16	0.0020716
2015.81	0.0021116
2025.45	0.0024016
2035.1	0.0029616
2044.74	0.0033016
2054.38	0.0031416
2064.03	0.0033416
2073.67	0.0041916
2083.32	0.0031316
2092.96	0.0022716
2102.61	0.0019316
2112.25	0.0016216
2121.9	0.0014116
2131.54	0.0014616
2141.19	0.0013416
2150.83	0.0012916
2160.48	0.0011416
2170.12	0.0010616
2179.77	0.0010616
2189.41	0.0010516
2199.06	0.0009114
2208.7	0.0008909
2218.35	0.0009422
2227.99	0.0009583
2237.64	0.0011216
2247.28	0.0012716
2256.92	0.0014016
2266.57	0.0017016
2276.21	0.0019616
2285.86	0.0024716
2295.5	0.0033416
2305.15	0.0046416
2314.79	0.0061416
2324.44	0.0072216
2334.08	0.0069016
2343.73	0.0063116
2353.37	0.0069516
2363.02	0.0093916
2372.66	0.0076516
2382.31	0.0035316
2391.95	0.0014316
2401.6	0.0012016
2411.24	0.0010816
2420.89	0.0009709
2430.53	0.0009774
2440.18	0.0009526
2449.82	0.0008003
2459.47	0.0009741
2469.11	0.0009599
2478.75	0.0008832
2488.4	0.0008101
2498.04	0.0010267
2507.69	0.0009039
2517.33	0.0009897
2526.98	0.0008689
2536.62	0.0009146
2546.27	0.0010616
2555.91	0.0010716
2565.56	0.0011216
2575.2	0.0011216
2584.85	0.0012716
2594.49	0.0011816
2604.14	0.0011516
2613.78	0.0011716
2623.43	0.0011716
2633.07	0.0009917
2642.72	0.0009621
2652.36	0.0011016
2662.01	0.0008996
2671.65	0.0007715
2681.29	0.0011016
2690.94	0.0009056
2700.58	0.0011616
2710.23	0.0008988
2719.87	0.0009721
2729.52	0.0010616
2739.16	0.0009075
2748.81	0.0010416
2758.45	0.0009528
2768.1	0.0010107
2777.74	0.0010516
2787.39	0.0010416
2797.03	0.0013016
2806.68	0.0011816
2816.32	0.0014116
2825.97	0.0018616
2835.61	0.0030216
2845.26	0.0041216
2854.9	0.0041216
2864.55	0.0027216
2874.19	0.0024916
2883.84	0.0030016
2893.48	0.0040316
2903.12	0.0048516
2912.77	0.0048716
2922.41	0.0045916
2932.06	0.0045616
2941.7	0.0061616
2951.35	0.0129116
2960.99	0.0245016
2970.64	0.0234416
2980.28	0.0132216
2989.93	0.0063716
2999.57	0.0059716
3009.22	0.0064116
3018.86	0.0064516
3028.51	0.0064316
3038.15	0.0056916
3047.8	0.0049916
3057.44	0.0041416
3067.09	0.0032216
3076.73	0.0026616
3086.38	0.0025116
3096.02	0.0024816
3105.67	0.0023916
3115.31	0.0023716
3124.95	0.0022616
3134.6	0.0018716
3144.24	0.0017716
3153.89	0.0017116
3163.53	0.0015216
3173.18	0.0014616
3182.82	0.0012316
3192.47	0.0012516
3202.11	0.0013316
3211.76	0.0011616
3221.4	0.0013316
3231.05	0.0012216
3240.69	0.0011416
3250.34	0.0012416
3259.98	0.0011016
3269.63	0.0011316
3279.27	0.0011716
3288.92	0.0010816
3298.56	0.0011216
3308.21	0.0011916
3317.85	0.0012116
3327.49	0.0011416
3337.14	0.0012416
3346.78	0.0009851
3356.43	0.0010297
3366.07	0.0011516
3375.72	0.0011816
3385.36	0.0013216
3395.01	0.0009796
3404.65	0.0013016
3414.3	0.0014916
3423.94	0.0016416
3433.59	0.0021816
3443.23	0.0021116
3452.88	0.0018716
3462.52	0.0015316
3472.17	0.0014316
3481.81	0.0015316
3491.46	0.0014516
3501.1	0.0016416
3510.75	0.0019216
3520.39	0.0022316
3530.04	0.0022516
3539.68	0.0022616
3549.32	0.0018716
3558.97	0.0016416
3568.61	0.0014916
3578.26	0.0016316
3587.9	0.0014616
3597.55	0.0014216
3607.19	0.0014716
3616.84	0.0013216
3626.48	0.0013416
3636.13	0.0013916
3645.77	0.0017216
3655.42	0.0010816
3665.06	0.0010816
3674.71	0.0014216
3684.35	0.0013716
3694	0.0014816
3703.64	0.0013216
3713.29	0.0012716
3722.93	0.0013816
3732.58	0.0012016
3742.22	0.0015416
3751.86	0.0015516
3761.51	0.0011616
3771.15	0.0013116
3780.8	0.0010416
3790.44	0.0012316
3800.09	0.0011816
3809.73	0.0012816
3819.38	0.0012916
3829.02	0.0013816
3838.67	0.0014916
3848.31	0.0013416
3857.96	0.0013116
3867.6	0.0012316
3877.25	0.0014016
3886.89	0.0014416
3896.54	0.0014416
3906.18	0.0011316
3915.83	0.0012816
3925.47	0.0015016
3935.12	0.0013316
3944.76	0.0013816
3954.41	0.0013816
3964.05	0.0015416
3973.69	0.0013216
3983.34	0.0014716
3992.98	0.0015716
