Infrared Spectrum: 1-PHENYL-2-ACETYL-3-PYRAZOLIDONE
Formula: C11 H12 N2 O2
CAS: 2655-46-1
State: SOLID (KBr PRESSING)
Boiling point: 125-131 C AT 40 mmHg
Class: COBLENTZ
Instrument: Not specified, most likely a prism, grating, or hybrid spectrometer.
Sampling: TRANSMISSION
Resolution: 4
Origin: EASTMAN KODAK COMPANY, RESEARCH LABORATORIES, ROCHESTER, N.Y.
MICROMETERS	TRANSMITTANCE
2.022	0.854
2.05719	0.859
2.09237	0.859
2.12756	0.859
2.16275	0.862
2.19793	0.862
2.23312	0.862
2.26831	0.862
2.30349	0.862
2.33868	0.864
2.37387	0.866
2.40906	0.868
2.44424	0.868
2.47943	0.868
2.51462	0.871
2.5498	0.871
2.58499	0.875
2.62018	0.875
2.65536	0.876
2.69055	0.88
2.72574	0.88
2.76092	0.875
2.79611	0.866
2.8313	0.859
2.86648	0.842
2.90167	0.835
2.93686	0.833
2.97205	0.835
3.00723	0.835
3.04242	0.836
3.07761	0.84
3.11279	0.842
3.14798	0.845
3.18317	0.848
3.21835	0.848
3.25354	0.838
3.28873	0.822
3.32391	0.815
3.3591	0.814
3.39429	0.81
3.42947	0.802
3.46466	0.814
3.49985	0.833
3.53504	0.847
3.57022	0.854
3.60541	0.862
3.6406	0.869
3.67578	0.875
3.71097	0.88
3.74616	0.88
3.78134	0.88
3.81653	0.88
3.85172	0.88
3.8869	0.88
3.92209	0.88
3.95728	0.88
3.99246	0.88
4.02765	0.876
4.06284	0.873
4.09803	0.871
4.13321	0.869
4.1684	0.873
4.20359	0.88
4.23877	0.881
4.27396	0.885
4.30915	0.89
4.34433	0.885
4.37952	0.881
4.41471	0.876
4.44989	0.871
4.48508	0.871
4.52027	0.871
4.55545	0.873
4.59064	0.873
4.62583	0.873
4.66102	0.871
4.6962	0.871
4.73139	0.869
4.76658	0.869
4.80176	0.869
4.83695	0.868
4.87214	0.868
4.90732	0.868
4.94251	0.868
4.9777	0.866
5.01288	0.864
5.04807	0.859
5.08326	0.852
5.11844	0.85
5.15363	0.85
5.18882	0.85
5.22401	0.85
5.25919	0.85
5.29438	0.843
5.32957	0.84
5.36475	0.831
5.39994	0.822
5.43513	0.826
5.47031	0.812
5.5055	0.814
5.54069	0.803
5.57587	0.772
5.61106	0.517
5.64625	0.401
5.68143	0.338
5.71662	0.217
5.75181	0.387
5.787	0.454
5.82218	0.279
5.85737	0.236
5.89256	0.348
5.92774	0.546
5.96293	0.682
5.99812	0.737
6.0333	0.767
6.06849	0.782
6.10368	0.784
6.13886	0.791
6.17405	0.791
6.20924	0.77
6.24442	0.642
6.27961	0.515
6.3148	0.652
6.34999	0.767
6.38517	0.788
6.42036	0.803
6.45555	0.815
6.49073	0.826
6.52592	0.826
6.56111	0.819
6.59629	0.824
6.63148	0.821
6.66667	0.767
6.70185	0.439
6.73704	0.602
6.77223	0.75
6.80741	0.779
6.8426	0.756
6.87779	0.755
6.91298	0.722
6.94816	0.779
6.98335	0.784
7.01854	0.753
7.05372	0.713
7.08891	0.673
7.1241	0.715
7.15928	0.741
7.19447	0.751
7.22966	0.736
7.26484	0.637
7.30003	0.468
7.33522	0.536
7.3704	0.687
7.40559	0.762
7.44078	0.751
7.47597	0.725
7.51115	0.682
7.54634	0.68
7.58153	0.687
7.61671	0.703
7.6519	0.663
7.68709	0.635
7.72227	0.585
7.75746	0.484
7.79265	0.387
7.82783	0.284
7.86302	0.237
7.89821	0.282
7.93339	0.312
7.96858	0.269
8.00377	0.269
8.03895	0.336
8.07414	0.401
8.10933	0.359
8.14452	0.331
8.1797	0.395
8.21489	0.494
8.25008	0.583
8.28526	0.611
8.32045	0.635
8.35564	0.644
8.39082	0.586
8.42601	0.496
8.4612	0.423
8.49638	0.413
8.53157	0.423
8.56676	0.454
8.60194	0.536
8.63713	0.574
8.67232	0.581
8.70751	0.598
8.74269	0.675
8.77788	0.69
8.81307	0.718
8.84825	0.739
8.88344	0.748
8.91863	0.751
8.95381	0.755
8.989	0.767
9.02419	0.781
9.05937	0.793
9.09456	0.8
9.12975	0.805
9.16493	0.803
9.20012	0.796
9.23531	0.767
9.2705	0.756
9.30568	0.762
9.34087	0.77
9.37606	0.779
9.41124	0.784
9.44643	0.777
9.48162	0.762
9.5168	0.737
9.55199	0.623
9.58718	0.503
9.62236	0.489
9.65755	0.508
9.69274	0.567
9.72792	0.618
9.76311	0.694
9.7983	0.758
9.83349	0.774
9.86867	0.786
9.90386	0.793
9.93905	0.795
9.97423	0.789
10.0094	0.769
10.0446	0.748
10.0798	0.729
10.115	0.703
10.1502	0.696
10.1854	0.706
10.2205	0.723
10.2557	0.746
10.2909	0.756
10.3261	0.762
10.3613	0.774
10.3965	0.791
10.4317	0.8
10.4668	0.805
10.502	0.803
10.5372	0.793
10.5724	0.763
10.6076	0.755
10.6428	0.77
10.678	0.795
10.7132	0.809
10.7483	0.817
10.7835	0.822
10.8187	0.828
10.8539	0.829
10.8891	0.833
10.9243	0.833
10.9595	0.835
10.9947	0.835
11.0298	0.835
11.065	0.833
11.1002	0.824
11.1354	0.817
11.1706	0.812
11.2058	0.807
11.241	0.805
11.2761	0.807
11.3113	0.814
11.3465	0.815
11.3817	0.815
11.4169	0.814
11.4521	0.805
11.4873	0.772
11.5225	0.72
11.5576	0.651
11.5928	0.616
11.628	0.614
11.6632	0.635
11.6984	0.69
11.7336	0.734
11.7688	0.772
11.804	0.796
11.8391	0.805
11.8743	0.805
11.9095	0.805
11.9447	0.805
11.9799	0.805
12.0151	0.805
12.0503	0.805
12.0854	0.805
12.1206	0.805
12.1558	0.805
12.191	0.807
12.2262	0.807
12.2614	0.809
12.2966	0.812
12.3318	0.815
12.3669	0.815
12.4021	0.815
12.4373	0.815
12.4725	0.815
12.5077	0.815
12.5429	0.812
12.5781	0.802
12.6132	0.777
12.6484	0.751
12.6836	0.72
12.7188	0.71
12.754	0.713
12.7892	0.718
12.8244	0.725
12.8596	0.729
12.8947	0.718
12.9299	0.661
12.9651	0.604
13.0003	0.557
13.0355	0.5
13.0707	0.477
13.1059	0.473
13.1411	0.477
13.1762	0.493
13.2114	0.557
13.2466	0.625
13.2818	0.684
13.317	0.727
13.3522	0.76
13.3874	0.774
13.4225	0.786
13.4577	0.798
13.4929	0.807
13.5281	0.81
13.5633	0.815
13.5985	0.819
13.6337	0.822
13.6689	0.822
13.704	0.822
13.7392	0.824
13.7744	0.822
13.8096	0.824
13.8448	0.824
13.88	0.824
13.9152	0.822
13.9503	0.822
13.9855	0.822
14.0207	0.817
14.0559	0.815
14.0911	0.81
14.1263	0.8
14.1615	0.791
14.1967	0.772
14.2318	0.739
14.267	0.706
14.3022	0.661
14.3374	0.619
14.3726	0.593
14.4078	0.562
14.443	0.559
14.4782	0.56
14.5133	0.569
14.5485	0.597
14.5837	0.647
14.6189	0.697
14.6541	0.725
14.6893	0.741
14.7245	0.756
14.7596	0.763
14.7948	0.769
14.83	0.774
14.8652	0.776
14.9004	0.776
14.9356	0.776
14.9708	0.772
15.006	0.769
15.0411	0.765
15.0763	0.763
15.1115	0.76
15.1467	0.758
15.1819	0.76
15.2171	0.763
15.2523	0.763
15.2875	0.763
15.3226	0.765
15.3578	0.767
15.393	0.769
15.4282	0.77
15.4634	0.77
15.4986	0.77
15.5338	0.769
15.5689	0.769
15.6041	0.769
15.6393	0.769
15.6745	0.763
15.7097	0.76
15.7449	0.758
15.7801	0.755
15.8153	0.755
15.8504	0.753
15.8856	0.753
15.9208	0.75
15.956	0.748
15.9912	0.746
