Infrared Spectrum: 1-PHENYL-2-ACETYL-4-METHYL-3-PYRAZOLIDONE
Formula: C12 H14 N2 O2
CAS: 2655-48-3
State: SOLID (KBr PRESSING)
Boiling point: 121-126 C AT 30 mmHg
Class: COBLENTZ
Instrument: Not specified, most likely a prism, grating, or hybrid spectrometer.
Sampling: TRANSMISSION
Resolution: 4
Origin: EASTMAN KODAK COMPANY, RESEARCH LABORATORIES, ROCHESTER, N.Y.
MICROMETERS	TRANSMITTANCE
2.039	0.877
2.07427	0.867
2.10954	0.872
2.1448	0.87
2.18007	0.858
2.21534	0.854
2.25061	0.865
2.28587	0.867
2.32114	0.872
2.35641	0.875
2.39168	0.868
2.42695	0.856
2.46221	0.875
2.49748	0.882
2.53275	0.889
2.56802	0.895
2.60328	0.9
2.63855	0.903
2.67382	0.902
2.70909	0.86
2.74436	0.814
2.77962	0.802
2.81489	0.8
2.85016	0.807
2.88543	0.825
2.92069	0.818
2.95596	0.821
2.99123	0.807
3.0265	0.786
3.06177	0.793
3.09703	0.804
3.1323	0.809
3.16757	0.814
3.20284	0.826
3.2381	0.722
3.27337	0.673
3.30864	0.673
3.34391	0.548
3.37918	0.533
3.41444	0.718
3.44971	0.573
3.48498	0.811
3.52025	0.858
3.55552	0.874
3.59078	0.891
3.62605	0.891
3.66132	0.893
3.69659	0.902
3.73185	0.903
3.76712	0.905
3.80239	0.903
3.83766	0.902
3.87293	0.898
3.90819	0.898
3.94346	0.9
3.97873	0.896
4.014	0.889
4.04926	0.893
4.08453	0.898
4.1198	0.898
4.15507	0.896
4.19034	0.895
4.2256	0.896
4.26087	0.898
4.29614	0.903
4.33141	0.909
4.36667	0.909
4.40194	0.909
4.43721	0.909
4.47248	0.905
4.50775	0.902
4.54301	0.902
4.57828	0.9
4.61355	0.9
4.64882	0.9
4.68408	0.898
4.71935	0.902
4.75462	0.91
4.78989	0.909
4.82516	0.905
4.86042	0.903
4.89569	0.902
4.93096	0.9
4.96623	0.891
5.00149	0.889
5.03676	0.874
5.07203	0.87
5.1073	0.858
5.14257	0.851
5.17783	0.849
5.2131	0.863
5.24837	0.858
5.28364	0.856
5.3189	0.835
5.35417	0.804
5.38944	0.791
5.42471	0.76
5.45998	0.76
5.49524	0.718
5.53051	0.66
5.56578	0.503
5.60105	0.305
5.63631	0.265
5.67158	0.206
5.70685	0.038
5.74212	0.061
5.77739	0.138
5.81265	0.036
5.84792	0.043
5.88319	0.089
5.91846	0.332
5.95373	0.466
5.98899	0.622
6.02426	0.699
6.05953	0.709
6.0948	0.729
6.13006	0.722
6.16533	0.697
6.2006	0.564
6.23587	0.18
6.27114	0.41
6.3064	0.571
6.34167	0.718
6.37694	0.786
6.41221	0.807
6.44747	0.819
6.48274	0.812
6.51801	0.814
6.55328	0.807
6.58855	0.798
6.62381	0.748
6.65908	0.416
6.69435	0.108
6.72962	0.379
6.76488	0.564
6.80015	0.561
6.83542	0.496
6.87069	0.4
6.90596	0.613
6.94122	0.671
6.97649	0.632
7.01176	0.573
7.04703	0.552
7.08229	0.617
7.11756	0.681
7.15283	0.692
7.1881	0.617
7.22337	0.496
7.25863	0.311
7.2939	0.185
7.32917	0.286
7.36444	0.463
7.3997	0.449
7.43497	0.543
7.47024	0.583
7.50551	0.603
7.54078	0.566
7.57604	0.529
7.61131	0.421
7.64658	0.344
7.68185	0.241
7.71711	0.188
7.75238	0.131
7.78765	0.092
7.82292	0.09
7.85819	0.11
7.89345	0.089
7.92872	0.054
7.96399	0.05
7.99926	0.059
8.03452	0.09
8.06979	0.16
8.10506	0.218
8.14033	0.27
8.1756	0.281
8.21086	0.223
8.24613	0.167
8.2814	0.167
8.31667	0.211
8.35194	0.243
8.3872	0.263
8.42247	0.272
8.45774	0.244
8.49301	0.215
8.52827	0.225
8.56354	0.291
8.59881	0.372
8.63408	0.417
8.66935	0.48
8.70461	0.573
8.73988	0.573
8.77515	0.568
8.81042	0.604
8.84568	0.589
8.88095	0.562
8.91622	0.622
8.95149	0.66
8.98676	0.676
9.02202	0.716
9.05729	0.751
9.09256	0.769
9.12783	0.746
9.16309	0.646
9.19836	0.603
9.23363	0.65
9.2689	0.732
9.30417	0.751
9.33943	0.753
9.3747	0.755
9.40997	0.76
9.44524	0.772
9.4805	0.769
9.51577	0.751
9.55104	0.676
9.58631	0.596
9.62158	0.493
9.65684	0.344
9.69211	0.293
9.72738	0.316
9.76265	0.27
9.79791	0.267
9.83318	0.349
9.86845	0.444
9.90372	0.547
9.93899	0.645
9.97425	0.702
10.0095	0.68
10.0448	0.727
10.0801	0.763
10.1153	0.767
10.1506	0.765
10.1859	0.783
10.2211	0.788
10.2564	0.777
10.2917	0.756
10.3269	0.729
10.3622	0.709
10.3975	0.734
10.4327	0.751
10.468	0.751
10.5033	0.701
10.5385	0.608
10.5738	0.55
10.6091	0.58
10.6443	0.664
10.6796	0.692
10.7149	0.678
10.7501	0.662
10.7854	0.622
10.8207	0.503
10.8559	0.477
10.8912	0.594
10.9265	0.69
10.9618	0.723
10.997	0.723
11.0323	0.692
11.0676	0.657
11.1028	0.589
11.1381	0.548
11.1734	0.561
11.2086	0.615
11.2439	0.688
11.2792	0.748
11.3144	0.783
11.3497	0.798
11.385	0.8
11.4202	0.776
11.4555	0.772
11.4908	0.807
11.526	0.832
11.5613	0.846
11.5966	0.853
11.6318	0.863
11.6671	0.861
11.7024	0.861
11.7376	0.86
11.7729	0.861
11.8082	0.861
11.8434	0.861
11.8787	0.856
11.914	0.846
11.9493	0.835
11.9845	0.83
12.0198	0.823
12.0551	0.823
12.0903	0.823
12.1256	0.823
12.1609	0.826
12.1961	0.832
12.2314	0.833
12.2667	0.833
12.3019	0.833
12.3372	0.826
12.3725	0.8
12.4077	0.784
12.443	0.777
12.4783	0.781
12.5135	0.798
12.5488	0.807
12.5841	0.812
12.6193	0.812
12.6546	0.809
12.6899	0.798
12.7251	0.767
12.7604	0.725
12.7957	0.655
12.8309	0.566
12.8662	0.487
12.9015	0.395
12.9367	0.323
12.972	0.283
13.0073	0.258
13.0426	0.243
13.0778	0.251
13.1131	0.291
13.1484	0.37
13.1836	0.458
13.2189	0.578
13.2542	0.646
13.2894	0.699
13.3247	0.73
13.36	0.736
13.3952	0.744
13.4305	0.734
13.4658	0.722
13.501	0.723
13.5363	0.723
13.5716	0.72
13.6068	0.708
13.6421	0.702
13.6774	0.69
13.7126	0.699
13.7479	0.709
13.7832	0.723
13.8184	0.734
13.8537	0.746
13.889	0.751
13.9242	0.75
13.9595	0.734
13.9948	0.715
14.03	0.692
14.0653	0.631
14.1006	0.568
14.1359	0.505
14.1711	0.459
14.2064	0.41
14.2417	0.375
14.2769	0.354
14.3122	0.342
14.3475	0.337
14.3827	0.325
14.418	0.319
14.4533	0.332
14.4885	0.375
14.5238	0.452
14.5591	0.538
14.5943	0.589
14.6296	0.625
14.6649	0.639
14.7001	0.645
14.7354	0.646
14.7707	0.646
14.8059	0.645
14.8412	0.643
14.8765	0.641
14.9117	0.638
14.947	0.622
14.9823	0.545
15.0175	0.486
15.0528	0.473
15.0881	0.55
15.1234	0.583
15.1586	0.604
15.1939	0.604
15.2292	0.599
15.2644	0.592
15.2997	0.592
15.335	0.59
15.3702	0.59
15.4055	0.59
15.4408	0.587
15.476	0.576
15.5113	0.564
15.5466	0.557
15.5818	0.554
15.6171	0.55
15.6524	0.548
15.6876	0.545
15.7229	0.536
15.7582	0.533
15.7934	0.531
15.8287	0.531
15.864	0.534
15.8992	0.534
15.9345	0.538
15.9698	0.541
16.005	0.541
