Infrared Spectrum: DIMETHYLMALONIC ACID, DIPHENYL ESTER
Formula: C17 H16 O4
CAS: 26595-27-7
State: SOLID (KBr PELLET)
Melting point: 100.5-101.5 C
Class: COBLENTZ
Instrument: Not specified, most likely a prism, grating, or hybrid spectrometer.
Sampling: TRANSMISSION
Resolution: 4
Origin: TENNESSEE EASTMAN COMPANY, RESEARCH LABORATORIES
MICROMETERS	TRANSMITTANCE
2.014	0.989
2.05497	0.988
2.09595	0.979
2.13692	0.977
2.17789	0.981
2.21887	0.974
2.25984	0.969
2.30082	0.967
2.34179	0.967
2.38276	0.962
2.42374	0.933
2.46471	0.958
2.50568	0.96
2.54666	0.96
2.58763	0.962
2.62861	0.969
2.66958	0.953
2.71055	0.919
2.75153	0.859
2.7925	0.8
2.83347	0.758
2.87445	0.781
2.91542	0.8
2.95639	0.844
2.99737	0.876
3.03834	0.888
3.07932	0.894
3.12029	0.89
3.16126	0.894
3.20224	0.846
3.24321	0.711
3.28418	0.871
3.32516	0.547
3.36613	0.716
3.40711	0.842
3.44808	0.875
3.48905	0.931
3.53003	0.935
3.571	0.943
3.61197	0.945
3.65295	0.948
3.69392	0.948
3.7349	0.948
3.77587	0.941
3.81684	0.94
3.85782	0.941
3.89879	0.948
3.93976	0.948
3.98074	0.948
4.02171	0.941
4.06268	0.941
4.10366	0.943
4.14463	0.94
4.18561	0.912
4.22658	0.895
4.26755	0.871
4.30853	0.875
4.3495	0.921
4.39047	0.952
4.43145	0.948
4.47242	0.933
4.5134	0.94
4.55437	0.947
4.59534	0.952
4.63632	0.947
4.67729	0.938
4.71826	0.931
4.75924	0.94
4.80021	0.938
4.84118	0.921
4.88216	0.909
4.92313	0.87
4.96411	0.868
5.00508	0.83
5.04605	0.864
5.08703	0.822
5.128	0.917
5.16897	0.9
5.20995	0.873
5.25092	0.822
5.2919	0.88
5.33287	0.882
5.37384	0.818
5.41482	0.753
5.45579	0.735
5.49676	0.702
5.53774	0.717
5.57871	0.533
5.61968	0.058
5.66066	0.017
5.70163	0.034
5.74261	0.35
5.78358	0.4
5.82455	0.663
5.86553	0.711
5.9065	0.762
5.94747	0.8
5.98845	0.813
6.02942	0.818
6.0704	0.8
6.11137	0.8
6.15234	0.801
6.19332	0.762
6.23429	0.558
6.27526	0.254
6.31624	0.694
6.35721	0.823
6.39819	0.82
6.43916	0.815
6.48013	0.8
6.52111	0.779
6.56208	0.711
6.60305	0.475
6.64403	0.259
6.685	0.037
6.72597	0.316
6.76695	0.169
6.80792	0.194
6.8489	0.372
6.88987	0.555
6.93084	0.664
6.97182	0.747
7.01279	0.788
7.05376	0.791
7.09474	0.765
7.13571	0.781
7.17669	0.42
7.21766	0.43
7.25863	0.733
7.29961	0.55
7.34058	0.743
7.38155	0.782
7.42253	0.798
7.4635	0.793
7.50447	0.789
7.54545	0.774
7.58642	0.748
7.6274	0.656
7.66837	0.659
7.70934	0.605
7.75032	0.54
7.79129	0.374
7.83226	0.165
7.87324	0.041
7.91421	0.017
7.95519	0.037
7.99616	0.02
8.03713	0.09
8.07811	0.201
8.11908	0.3
8.16005	0.336
8.20103	0.288
8.242	0.176
8.28297	0.034
8.32395	0.006
8.36492	0.001
8.4059	0.017
8.44687	0.136
8.48784	0.083
8.52882	0.071
8.56979	0.023
8.61076	0.023
8.65174	0.08
8.69271	0.138
8.73369	0.013
8.77466	0.005
8.81563	0.061
8.85661	0.21
8.89758	0.283
8.93855	0.251
8.97953	0.14
9.0205	0.018
9.06148	0.005
9.10245	0.003
9.14342	0.044
9.1844	0.191
9.22537	0.37
9.26634	0.403
9.30732	0.124
9.34829	0.323
9.38926	0.564
9.43024	0.654
9.47121	0.678
9.51219	0.695
9.55316	0.717
9.59413	0.728
9.63511	0.721
9.67608	0.712
9.71705	0.548
9.75803	0.282
9.799	0.312
9.83998	0.415
9.88095	0.529
9.92192	0.507
9.9629	0.475
10.0039	0.567
10.0448	0.594
10.0858	0.702
10.1268	0.782
10.1678	0.8
10.2087	0.793
10.2497	0.705
10.2907	0.721
10.3317	0.784
10.3726	0.794
10.4136	0.68
10.4546	0.461
10.4956	0.458
10.5365	0.682
10.5775	0.772
10.6185	0.789
10.6594	0.774
10.7004	0.688
10.7414	0.42
10.7824	0.273
10.8233	0.454
10.8643	0.475
10.9053	0.76
10.9463	0.823
10.9872	0.849
11.0282	0.849
11.0692	0.83
11.1102	0.808
11.1511	0.76
11.1921	0.673
11.2331	0.464
11.2741	0.389
11.315	0.548
11.356	0.733
11.397	0.81
11.4379	0.839
11.4789	0.842
11.5199	0.852
11.5609	0.878
11.6018	0.888
11.6428	0.841
11.6838	0.818
11.7248	0.83
11.7657	0.847
11.8067	0.842
11.8477	0.81
11.8887	0.769
11.9296	0.62
11.9706	0.519
12.0116	0.535
12.0526	0.558
12.0935	0.533
12.1345	0.429
12.1755	0.268
12.2164	0.282
12.2574	0.384
12.2984	0.511
12.3394	0.517
12.3803	0.533
12.4213	0.69
12.4623	0.755
12.5033	0.791
12.5442	0.81
12.5852	0.823
12.6262	0.83
12.6672	0.832
12.7081	0.827
12.7491	0.811
12.7901	0.784
12.8311	0.7
12.872	0.495
12.913	0.141
12.954	0.095
12.9949	0.357
13.0359	0.598
13.0769	0.659
13.1179	0.671
13.1588	0.618
13.1998	0.463
13.2408	0.251
13.2818	0.071
13.3227	0.046
13.3637	0.112
13.4047	0.126
13.4457	0.225
13.4866	0.435
13.5276	0.582
13.5686	0.663
13.6096	0.705
13.6505	0.748
13.6915	0.777
13.7325	0.786
13.7734	0.789
13.8144	0.789
13.8554	0.789
13.8964	0.788
13.9373	0.776
13.9783	0.752
14.0193	0.707
14.0603	0.635
14.1012	0.519
14.1422	0.36
14.1832	0.252
14.2242	0.321
14.2651	0.41
14.3061	0.487
14.3471	0.468
14.3881	0.37
14.429	0.299
14.47	0.309
14.511	0.3
14.5519	0.254
14.5929	0.266
14.6339	0.369
14.6749	0.533
14.7158	0.644
14.7568	0.694
14.7978	0.724
14.8388	0.743
14.8797	0.75
14.9207	0.752
14.9617	0.738
15.0027	0.726
15.0436	0.726
15.0846	0.729
15.1256	0.728
15.1666	0.716
15.2075	0.702
15.2485	0.69
15.2895	0.678
15.3304	0.67
15.3714	0.668
15.4124	0.659
15.4534	0.658
15.4943	0.651
15.5353	0.641
15.5763	0.637
15.6173	0.63
15.6582	0.613
15.6992	0.605
15.7402	0.598
15.7812	0.591
15.8221	0.581
15.8631	0.576
15.9041	0.572
15.9451	0.565
