Infrared Spectrum: Methyltetrahydrophthalic anhydride
Formula: C 9 H 10 O 3
CAS: 26590-20-5
State: gas
Origin: EPA-IR VAPOR PHASE LIBRARY
1/CM	ABSORBANCE
549.8	0.022533
559.445	0.021163
569.09	0.009213
578.734	0.004123
588.379	0.003783
598.024	0.004493
607.669	0.007153
617.313	0.009213
626.958	0.007473
636.603	0.005403
646.248	0.005673
655.893	0.006873
665.537	0.006833
675.182	0.006933
684.827	0.007253
694.472	0.006783
704.116	0.006393
713.761	0.005683
723.406	0.005323
733.051	0.006783
742.695	0.008713
752.34	0.009543
761.985	0.008153
771.63	0.006483
781.275	0.008103
790.919	0.013353
800.564	0.022513
810.209	0.019253
819.854	0.009273
829.498	0.006193
839.143	0.005333
848.788	0.005833
858.433	0.009123
868.078	0.014803
877.722	0.023513
887.367	0.039123
897.012	0.066523
906.657	0.110533
916.301	0.157503
925.946	0.175503
935.591	0.140173
945.236	0.086763
954.88	0.079493
964.525	0.112173
974.17	0.140063
983.815	0.108113
993.46	0.056943
1003.1	0.051063
1012.75	0.064053
1022.39	0.061573
1032.04	0.047013
1041.68	0.041423
1051.33	0.039673
1060.97	0.031673
1070.62	0.029373
1080.26	0.050683
1089.91	0.066143
1099.55	0.053163
1109.2	0.032203
1118.84	0.019053
1128.49	0.013463
1138.13	0.012753
1147.78	0.018443
1157.42	0.033743
1167.07	0.048243
1176.71	0.045383
1186.36	0.044303
1196	0.059353
1205.64	0.080513
1215.29	0.097533
1224.93	0.112733
1234.58	0.110443
1244.22	0.083403
1253.87	0.052883
1263.51	0.031343
1273.16	0.022963
1282.8	0.017933
1292.45	0.017723
1302.09	0.023933
1311.74	0.026353
1321.38	0.021753
1331.03	0.018423
1340.67	0.017523
1350.32	0.015213
1359.96	0.012043
1369.61	0.010013
1379.25	0.011403
1388.9	0.011663
1398.54	0.007683
1408.18	0.006873
1417.83	0.008513
1427.47	0.013203
1437.12	0.024213
1446.76	0.031213
1456.41	0.024563
1466.05	0.013343
1475.7	0.007183
1485.34	0.005043
1494.99	0.003793
1504.63	0.003193
1514.28	0.003203
1523.92	0.003193
1533.57	0.003283
1543.21	0.003163
1552.86	0.003123
1562.5	0.002913
1572.15	0.003083
1581.79	0.003233
1591.44	0.003993
1601.08	0.004673
1610.73	0.004673
1620.37	0.004283
1630.01	0.004023
1639.66	0.004153
1649.3	0.005103
1658.95	0.006353
1668.59	0.006333
1678.24	0.005393
1687.88	0.005023
1697.53	0.005653
1707.17	0.006793
1716.82	0.008323
1726.46	0.010403
1736.11	0.013583
1745.75	0.019503
1755.4	0.034393
1765.04	0.066643
1774.69	0.126143
1784.33	0.227113
1793.98	0.413913
1803.62	0.588733
1813.27	0.494073
1822.91	0.228433
1832.55	0.105423
1842.2	0.075983
1851.84	0.075423
1861.49	0.091873
1871.13	0.107153
1880.78	0.085203
1890.42	0.046253
1900.07	0.025313
1909.71	0.015763
1919.36	0.011023
1929	0.008583
1938.65	0.007063
1948.29	0.005633
1957.94	0.004413
1967.58	0.003703
1977.23	0.003263
1986.87	0.003273
1996.52	0.003493
2006.16	0.003583
2015.81	0.003083
2025.45	0.002353
2035.1	0.001973
2044.74	0.001753
2054.38	0.001753
2064.03	0.001883
2073.67	0.001983
2083.32	0.002113
2092.96	0.002483
2102.61	0.002853
2112.25	0.003103
2121.9	0.003393
2131.54	0.003803
2141.19	0.004043
2150.83	0.003973
2160.48	0.003713
2170.12	0.003243
2179.77	0.003093
2189.41	0.003013
2199.06	0.003143
2208.7	0.002993
2218.35	0.002683
2227.99	0.002313
2237.64	0.002113
2247.28	0.002043
2256.92	0.001893
2266.57	0.001813
2276.21	0.001493
2285.86	0.001393
2295.5	0.0011524
2305.15	0.001303
2314.79	0.001213
2324.44	0.001243
2334.08	0.0010026
2343.73	0.0009821
2353.37	0.001023
2363.02	0.001016
2372.66	0.0010612
2382.31	0.0010597
2391.95	0.0011461
2401.6	0.001253
2411.24	0.001513
2420.89	0.001383
2430.53	0.001523
2440.18	0.001303
2449.82	0.001233
2459.47	0.0011317
2469.11	0.0010195
2478.75	0.0008114
2488.4	0.0008944
2498.04	0.0006611
2507.69	0.0007519
2517.33	0.0006472
2526.98	0.0006029
2536.62	0.0007305
2546.27	0.0007847
2555.91	0.000818
2565.56	0.0006501
2575.2	0.0006217
2584.85	0.0006681
2594.49	0.000594
2604.14	0.0006818
2613.78	0.0006536
2623.43	0.0006651
2633.07	0.0006695
2642.72	0.0006847
2652.36	0.0006672
2662.01	0.0007533
2671.65	0.0006651
2681.29	0.0008072
2690.94	0.0008671
2700.58	0.0008828
2710.23	0.0008806
2719.87	0.0009971
2729.52	0.001363
2739.16	0.001873
2748.81	0.002413
2758.45	0.002113
2768.1	0.001493
2777.74	0.001673
2787.39	0.001953
2797.03	0.002243
2806.68	0.002903
2816.32	0.003643
2825.97	0.005263
2835.61	0.007643
2845.26	0.013543
2854.9	0.027243
2864.55	0.038593
2874.19	0.034303
2883.84	0.028603
2893.48	0.031583
2903.12	0.037323
2912.77	0.042063
2922.41	0.044573
2932.06	0.044863
2941.7	0.047483
2951.35	0.046543
2960.99	0.041273
2970.64	0.043703
2980.28	0.040523
2989.93	0.024023
2999.57	0.011943
3009.22	0.009273
3018.86	0.008683
3028.51	0.009513
3038.15	0.013953
3047.8	0.016023
3057.44	0.010273
3067.09	0.004513
3076.73	0.003003
3086.38	0.002583
3096.02	0.002453
3105.67	0.002153
3115.31	0.002003
3124.95	0.001573
3134.6	0.0008793
3144.24	0.0010648
3153.89	0.0011431
3163.53	0.0009662
3173.18	0.0006398
3182.82	0.0005707
3192.47	0.0005655
3202.11	0.0003852
3211.76	0.000468
3221.4	0.0005925
3231.05	0.000385
3240.69	0.00027172
3250.34	0.0004313
3259.98	0.00020069
3269.63	0.0004031
3279.27	0.0002843
3288.92	0.0003062
3298.56	0.0005814
3308.21	0.0005426
3317.85	0.000455
3327.49	0.0004223
3337.14	0.00026243
3346.78	0.000213
3356.43	0.0001627
3366.07	0.0004106
3375.72	0.00028225
3385.36	0.00019374
3395.01	0.0002336
3404.65	0.0003042
3414.3	0.0002851
3423.94	0.0003935
3433.59	0.0003113
3443.23	0.00021514
3452.88	0.0001059
3462.52	0.000384
3472.17	0.0002329
3481.81	0.0003138
3491.46	0.0003265
3501.1	0.00027527
3510.75	0.0002891
3520.39	0.000306
3530.04	0.00026272
3539.68	0.0006369
3549.32	0.0009945
3558.97	0.0007817
3568.61	0.001393
3578.26	0.001623
3587.9	0.001973
3597.55	0.002323
3607.19	0.002793
3616.84	0.003733
3626.48	0.004913
3636.13	0.005843
3645.77	0.006283
3655.42	0.005963
3665.06	0.004773
3674.71	0.003903
3684.35	0.002733
3694	0.001853
3703.64	0.001553
3713.29	0.001423
3722.93	0.001443
3732.58	0.001493
3742.22	0.001303
3751.86	0.001107
3761.51	0.0011331
3771.15	0.0008322
3780.8	0.0006839
3790.44	0.0006244
3800.09	0.0004465
3809.73	0.0007735
3819.38	0.000639
3829.02	0.0004582
3838.67	0.0004922
3848.31	0.0006561
3857.96	0.0005523
3867.6	0.0005743
3877.25	0.0008053
3886.89	0.0004815
3896.54	0.0007656
3906.18	0.0004618
3915.83	0.0006593
3925.47	0.0003739
3935.12	0.0006049
3944.76	0.0006102
3954.41	0.0004969
3964.05	0.0004737
3973.69	0.0004327
3983.34	0.0005776
3992.98	0.0003603
