Infrared Spectrum: p,p'-Dioctyldiphenylamine
Formula: C 28 H 43 N
CAS: 26603-23-6
State: gas
Origin: EPA-IR VAPOR PHASE LIBRARY
1/CM	ABSORBANCE
501.5	0.0042244
513.074	0.0053344
524.648	0.0038644
536.222	0.0032944
547.796	0.0036444
559.37	0.0039444
570.944	0.0046844
582.518	0.0056844
594.092	0.0040544
605.666	0.0036244
617.24	0.0029344
628.814	0.0024244
640.388	0.0023444
651.962	0.0017644
663.536	0.0013344
675.11	0.0014944
686.684	0.0018444
698.258	0.0023944
709.832	0.0026144
721.406	0.0029344
732.98	0.0029944
744.554	0.0022844
756.128	0.0020444
767.702	0.0018744
779.276	0.0019344
790.85	0.0027544
802.423	0.0065244
813.997	0.0153344
825.571	0.0214444
837.145	0.0082344
848.719	0.0042544
860.293	0.0032244
871.867	0.0036744
883.441	0.0034044
895.015	0.0019244
906.589	0.0022144
918.163	0.0026444
929.737	0.0021544
941.311	0.0019444
952.885	0.0017544
964.459	0.0025644
976.033	0.0028244
987.607	0.0014944
999.181	0.0015044
1010.76	0.0070044
1022.33	0.0025044
1033.9	0.0012644
1045.48	0.0009618
1057.05	0.0008813
1068.63	0.0011144
1080.2	0.0018344
1091.77	0.0051044
1103.35	0.0043944
1114.92	0.0029344
1126.49	0.0035044
1138.07	0.0032644
1149.64	0.0027844
1161.22	0.0038244
1172.79	0.0053444
1184.36	0.0139844
1195.94	0.0162644
1207.51	0.0086944
1219.09	0.0085844
1230.66	0.0152344
1242.23	0.0279644
1253.81	0.0206644
1265.38	0.0155844
1276.96	0.0224344
1288.53	0.0343344
1300.1	0.0391744
1311.68	0.0374244
1323.25	0.0267444
1334.83	0.0185644
1346.4	0.0143744
1357.97	0.0135844
1369.55	0.0234744
1381.12	0.0147744
1392.7	0.0200844
1404.27	0.0113944
1415.84	0.0068744
1427.42	0.0070944
1438.99	0.0097844
1450.57	0.0153844
1462.14	0.0222044
1473.71	0.0302044
1485.29	0.0279044
1496.86	0.0399144
1508.44	0.110454
1520.01	0.0851944
1531.58	0.0284444
1543.16	0.0134044
1554.73	0.0087944
1566.31	0.0079944
1577.88	0.0099844
1589.45	0.0153744
1601.03	0.0370844
1612.6	0.0280644
1624.18	0.0114944
1635.75	0.0059644
1647.32	0.0036644
1658.9	0.0026544
1670.47	0.0021544
1682.05	0.0018144
1693.62	0.0016044
1705.19	0.0014744
1716.77	0.0014244
1728.34	0.0014644
1739.92	0.0016244
1751.49	0.0018344
1763.06	0.0018044
1774.64	0.0014944
1786.21	0.0011644
1797.79	0.0010529
1809.36	0.00098
1820.93	0.0009524
1832.51	0.0009542
1844.08	0.0010234
1855.66	0.0012444
1867.23	0.0016544
1878.8	0.0019644
1890.38	0.0017544
1901.95	0.0012844
1913.53	0.0010111
1925.1	0.0009198
1936.67	0.000809
1948.25	0.0007586
1959.82	0.0006966
1971.4	0.0006298
1982.97	0.0006202
1994.54	0.0005528
2006.12	0.0005624
2017.69	0.0005684
2029.27	0.0005866
2040.84	0.0005518
2052.41	0.0005913
2063.99	0.0006499
2075.56	0.000658
2087.14	0.0006474
2098.71	0.0007188
2110.28	0.0007431
2121.86	0.0006576
2133.43	0.0005824
2145.01	0.0005417
2156.58	0.0005023
2168.15	0.0004525
2179.73	0.0004184
2191.3	0.0003936
2202.88	0.0003711
2214.45	0.0003352
2226.02	0.0003545
2237.6	0.0003125
2249.17	0.0003306
2260.74	0.0003405
2272.32	0.000396
2283.89	0.0004234
2295.47	0.0004495
2307.04	0.0004739
2318.61	0.0004315
2330.19	0.0003937
2341.76	0.0004056
2353.34	0.0003979
2364.91	0.0004145
2376.48	0.0005399
2388.06	0.0005964
2399.63	0.0005487
2411.21	0.0005023
2422.78	0.0004984
2434.35	0.0004778
2445.93	0.0005093
2457.5	0.0005821
2469.08	0.0007048
2480.65	0.0008505
2492.22	0.0009973
2503.8	0.0010643
2515.37	0.0011644
2526.95	0.0012144
2538.52	0.0010473
2550.09	0.0009337
2561.67	0.0008743
2573.24	0.000752
2584.82	0.0006674
2596.39	0.0006534
2607.96	0.0006028
2619.54	0.000677
2631.11	0.000758
2642.69	0.0009783
2654.26	0.0011244
2665.83	0.0013144
2677.41	0.0013944
2688.98	0.0013344
2700.56	0.0016144
2712.13	0.0018944
2723.7	0.0021544
2735.28	0.0019744
2746.85	0.0018144
2758.43	0.0018744
2770	0.0019844
2781.57	0.0022544
2793.15	0.0028044
2804.72	0.0032744
2816.3	0.0042844
2827.87	0.0053344
2839.44	0.0080244
2851.02	0.0113044
2862.59	0.0178344
2874.17	0.0327244
2885.74	0.0407244
2897.31	0.0478144
2908.89	0.0515344
2920.46	0.0495944
2932.04	0.0477344
2943.61	0.0597244
2955.18	0.101924
2966.76	0.114664
2978.33	0.0599344
2989.91	0.0386744
3001.48	0.0252344
3013.05	0.0154744
3024.63	0.0152244
3036.2	0.0127344
3047.78	0.0095144
3059.35	0.0092144
3070.92	0.0068844
3082.5	0.0053744
3094.07	0.0053144
3105.65	0.0039344
3117.22	0.0026544
3128.79	0.0021944
3140.37	0.0016944
3151.94	0.0014044
3163.52	0.0013644
3175.09	0.0012744
3186.66	0.0013144
3198.24	0.0012244
3209.81	0.0013244
3221.39	0.0012744
3232.96	0.0011244
3244.53	0.0009342
3256.11	0.0007737
3267.68	0.0007201
3279.26	0.0005964
3290.83	0.0005389
3302.4	0.0004794
3313.98	0.0004804
3325.55	0.0004658
3337.13	0.0004678
3348.7	0.0004273
3360.27	0.0004506
3371.85	0.0005732
3383.42	0.000656
3395	0.0007207
3406.57	0.0011244
3418.14	0.0018444
3429.72	0.0024244
3441.29	0.0021044
3452.86	0.0013444
3464.44	0.000723
3476.01	0.0003787
3487.59	0.0002931
3499.16	0.0001872
3510.73	0.00014656
3522.31	0.00016496
3533.88	8.989e-05
3545.46	7.46e-05
3557.03	1.67e-05
3568.6	4.79e-05
3580.18	4.65e-05
3591.75	2.47e-05
3603.33	2.4e-06
3614.9	3.57e-05
3626.47	3.92e-05
3638.05	8.915e-05
3649.62	8.19e-05
3661.2	0.00015911
3672.77	5.41e-05
3684.34	0.00012908
3695.92	0.00018094
3707.49	9.7999e-05
3719.07	9.7344e-05
3730.64	0.00014939
3742.21	0.00017837
3753.79	0.00014634
3765.36	0.00013728
3776.94	0.00016969
3788.51	0.00018502
3800.08	0.00017905
3811.66	0.00017863
3823.23	0.000243
3834.81	0.0002047
3846.38	0.00010916
3857.95	0.0002522
3869.53	0.0002706
3881.1	0.0002406
3892.68	0.000397
3904.25	0.0003277
3915.82	0.0002791
3927.4	0.0002804
3938.97	0.0002457
3950.55	0.0002324
3962.12	0.0003056
3973.69	0.0002431
3985.27	0.0002603
3996.84	0.0002297
