Infrared Spectrum: n-Dodecyl 4-hydroxybenzoate
Formula: C 19 H 30 O 3
CAS: 2664-60-0
State: gas
Origin: EPA-IR VAPOR PHASE LIBRARY
1/CM	ABSORBANCE
549.9	0.000905
559.547	0.00118002
569.193	0.000973
578.84	0.000911
588.486	0.000842
598.133	0.0013224
607.779	0.00276
617.426	0.00479
627.072	0.001784
636.719	0.0015321
646.365	0.0012703
656.012	0.00118311
665.658	0.001192
675.305	0.0015035
684.951	0.00219
694.598	0.00235
704.245	0.0018787
713.891	0.0017183
723.538	0.0016723
733.184	0.0015431
742.831	0.0018451
752.477	0.00274
762.124	0.00491
771.77	0.00531
781.417	0.00311
791.063	0.00216
800.71	0.0020827
810.356	0.00245
820.003	0.0023
829.649	0.00292
839.296	0.00461
848.943	0.00506
858.589	0.0032
868.236	0.0020222
877.882	0.0016789
887.529	0.0015033
897.175	0.0015856
906.822	0.0016037
916.468	0.0014939
926.115	0.0015609
935.761	0.0015643
945.408	0.001946
955.054	0.0022
964.701	0.00237
974.347	0.00227
983.994	0.0021
993.64	0.0020111
1003.29	0.00231
1012.93	0.00406
1022.58	0.00249
1032.23	0.00218
1041.87	0.00219
1051.52	0.00253
1061.17	0.00335
1070.81	0.00498
1080.46	0.00925
1090.11	0.01974
1099.75	0.02665
1109.4	0.02618
1119.05	0.01586
1128.69	0.00771
1138.34	0.00603
1147.99	0.00845
1157.63	0.02293
1167.28	0.03706
1176.92	0.01208
1186.57	0.01992
1196.22	0.01413
1205.86	0.00594
1215.51	0.00576
1225.16	0.00661
1234.8	0.00826
1244.45	0.01413
1254.1	0.03521
1263.74	0.07038
1273.39	0.04828
1283.04	0.01858
1292.68	0.00951
1302.33	0.0083
1311.98	0.00747
1321.62	0.00701
1331.27	0.00553
1340.92	0.00373
1350.56	0.00365
1360.21	0.00374
1369.86	0.00344
1379.5	0.00391
1389.15	0.00393
1398.79	0.00283
1408.44	0.00263
1418.09	0.00327
1427.73	0.00489
1437.38	0.0053
1447.03	0.00466
1456.67	0.00572
1466.32	0.00573
1475.97	0.00414
1485.61	0.00289
1495.26	0.00326
1504.91	0.00663
1514.55	0.00803
1524.2	0.00268
1533.85	0.0019636
1543.49	0.0018694
1553.14	0.0019939
1562.79	0.00233
1572.43	0.003
1582.08	0.00474
1591.73	0.00897
1601.37	0.01265
1611.02	0.01455
1620.67	0.00772
1630.31	0.00361
1639.96	0.00231
1649.6	0.0019379
1659.25	0.0018509
1668.9	0.0018183
1678.54	0.0019155
1688.19	0.00236
1697.84	0.00277
1707.48	0.00392
1717.13	0.00764
1726.78	0.01865
1736.42	0.03422
1746.07	0.01822
1755.72	0.00627
1765.36	0.00313
1775.01	0.00232
1784.66	0.0020227
1794.3	0.001873
1803.95	0.0016243
1813.6	0.0014163
1823.24	0.0012755
1832.89	0.0012247
1842.54	0.0012168
1852.18	0.00118915
1861.83	0.0011712
1871.47	0.0012507
1881.12	0.0013576
1890.77	0.0013908
1900.41	0.0014009
1910.06	0.0014324
1919.71	0.0013372
1929.35	0.0012299
1939	0.00111259
1948.65	0.00112486
1958.29	0.0011579
1967.94	0.0010799
1977.59	0.001073
1987.23	0.001065
1996.88	0.0010718
2006.53	0.00111614
2016.17	0.00109626
2025.82	0.0011719
2035.47	0.00116775
2045.11	0.00116645
2054.76	0.0012004
2064.41	0.0012189
2074.05	0.00114855
2083.7	0.00116089
2093.35	0.0011059
2102.99	0.0011047
2112.64	0.0010886
2122.28	0.0010323
2131.93	0.0010085
2141.58	0.000959
2151.22	0.000899
2160.87	0.0010116
2170.52	0.000906
2180.16	0.00094
2189.81	0.000943
2199.46	0.00092
2209.1	0.000957
2218.75	0.000952
2228.4	0.000982
2238.04	0.000994
2247.69	0.000946
2257.34	0.000984
2266.98	0.0010503
2276.63	0.000985
2286.28	0.000913
2295.92	0.0009941
2305.57	0.0010182
2315.22	0.0010278
2324.86	0.00108215
2334.51	0.00111394
2344.16	0.0011566
2353.8	0.00108707
2363.45	0.00114967
2373.09	0.00109254
2382.74	0.00112414
2392.39	0.0010483
2402.03	0.0010597
2411.68	0.00111103
2421.33	0.00112976
2430.97	0.00114507
2440.62	0.00111763
2450.27	0.00110064
2459.91	0.0010357
2469.56	0.0010226
2479.21	0.000957
2488.85	0.00098
2498.5	0.0010243
2508.15	0.0010305
2517.79	0.00110797
2527.44	0.0010416
2537.09	0.0010636
2546.73	0.000914
2556.38	0.0010004
2566.03	0.000957
2575.67	0.0010215
2585.32	0.0010377
2594.96	0.0010138
2604.61	0.0010301
2614.26	0.0010606
2623.9	0.0010095
2633.55	0.000998
2643.2	0.00110354
2652.84	0.00112688
2662.49	0.00110797
2672.14	0.00111721
2681.78	0.00118728
2691.43	0.0011599
2701.08	0.00112432
2710.72	0.00109037
2720.37	0.000974
2730.02	0.00113058
2739.66	0.001189
2749.31	0.00115093
2758.96	0.0013443
2768.6	0.0013613
2778.25	0.001351
2787.9	0.0014242
2797.54	0.001558
2807.19	0.0018608
2816.84	0.00218
2826.48	0.00279
2836.13	0.00357
2845.77	0.00579
2855.42	0.01251
2865.07	0.01734
2874.71	0.01281
2884.36	0.01037
2894.01	0.01018
2903.65	0.0133
2913.3	0.01988
2922.95	0.03212
2932.59	0.04643
2942.24	0.03626
2951.89	0.02221
2961.53	0.01851
2971.18	0.0147
2980.83	0.00845
2990.47	0.00506
3000.12	0.00344
3009.77	0.0028
3019.41	0.0025
3029.06	0.00219
3038.71	0.00239
3048.35	0.0018552
3058	0.0012885
3067.64	0.0013061
3077.29	0.0017275
3086.94	0.00113564
3096.58	0.0009937
3106.23	0.000879
3115.88	0.000588
3125.52	0.000626
3135.17	0.00051
3144.82	0.000313
3154.46	0.000246
3164.11	0.000374
3173.76	0.000469
3183.4	0.0006
3193.05	0.000442
3202.7	0.000207
3212.34	0.000211
3221.99	0.000195
3231.64	0.000151
3241.28	0.000183
3250.93	0.000129
3260.58	9.2e-05
3270.22	6e-05
3279.87	9.8e-05
3289.52	0.000143
3299.16	0.000192
3308.81	0.000274
3318.45	0.000297
3328.1	0.000341
3337.75	0.000279
3347.39	0.00019
3357.04	9.1e-05
3366.69	0.000128
3376.33	0.000511
3385.98	0.000308
3395.63	0.000316
3405.27	9.1e-05
3414.92	0.000175
3424.57	0.000184
3434.21	0.00028
3443.86	0.000448
3453.51	0.000391
3463.15	0.000292
3472.8	0.000183
3482.45	0.000183
3492.09	0.000232
3501.74	0.000349
3511.39	0.000245
3521.03	0.000138
3530.68	0.00027
3540.33	0.000421
3549.97	0.000235
3559.62	0.000297
3569.26	0.000511
3578.91	0.000509
3588.56	0.000357
3598.2	0.00047
3607.85	0.0005
3617.5	0.000751
3627.14	0.0015355
3636.79	0.00495
3646.44	0.01277
3656.08	0.00489
3665.73	0.0013029
3675.38	0.00086
3685.02	0.000606
3694.67	0.000683
3704.32	0.000653
3713.96	0.000573
3723.61	0.000672
3733.26	0.000644
3742.9	0.000633
3752.55	0.000501
3762.2	0.00059
3771.84	0.000576
3781.49	0.000495
3791.13	0.000544
3800.78	0.000541
3810.43	0.000516
3820.07	0.000529
3829.72	0.000624
3839.37	0.000421
3849.01	0.000595
3858.66	0.000601
3868.31	0.000503
3877.95	0.000618
3887.6	0.00067
3897.25	0.000597
3906.89	0.00061
3916.54	0.000596
3926.19	0.000538
3935.83	0.000695
3945.48	0.000739
3955.13	0.000596
3964.77	0.000648
3974.42	0.000679
3984.07	0.000822
3993.71	0.00053
