Infrared Spectrum: 4,4'-Thiodiphenol
Formula: C 12 H 10 O 2 S
CAS: 2664-63-3
State: gas
Instrument: HP-GC/MS/IRD
Origin: NIST Mass Spectrometry Data Center
1/CM	ABSORBANCE
550	0.0004584
562	0.0002166
574	0.0002796
586	0.0001884
598	0.0001002
610	0.0001326
622	0.0001914
634	0.000345
646	0.0002814
658	0.0001896
670	0.0001722
682	8.34e-05
694	7.8e-06
706	0.0001308
718	0.0001068
730	0.000171
742	0.0001338
754	9.3e-05
766	0.0001212
778	0.0001404
790	0.000267
802	0.0006684
814	0.0010242
826	0.0015516
838	0.0006618
850	0.000294
862	0.0001218
874	8.28e-05
886	6.84e-05
898	6.9e-05
910	8.7e-05
922	0.0001398
934	6.48e-05
946	0.0001236
958	6.78e-05
970	5.88e-05
982	3.6e-05
994	0.0001038
1006	0.0002376
1018	0.0002076
1030	9.3e-05
1042	0.0001062
1054	0.000129
1066	8.46e-05
1078	0.0003006
1090	0.0006294
1102	0.0004332
1114	0.0004386
1126	0.0003762
1138	0.0005784
1150	0.000843
1162	0.0032976
1174	0.006
1186	0.0024
1198	0.000996
1210	0.0006582
1222	0.0006732
1234	0.0009162
1246	0.0023898
1258	0.0035964
1270	0.0011448
1282	0.0004362
1294	0.0002598
1306	0.0003564
1318	0.0007164
1330	0.0004944
1342	0.0003432
1354	0.0001962
1366	0.0001452
1378	0.0001248
1390	0.0001638
1402	0.0002994
1414	0.0007002
1426	0.0005892
1438	0.0003108
1450	0.0002994
1462	0.0003726
1474	0.0008076
1486	0.0036804
1498	0.0026556
1510	0.0006528
1522	0.0003168
1534	0.0002436
1546	0.0002484
1558	0.0003384
1570	0.0005652
1582	0.0011862
1594	0.0014274
1606	0.0009282
1618	0.0003132
1630	0.0001812
1642	0.0001488
1654	0.0001812
1666	8.46e-05
1678	9e-05
1690	7.44e-05
1702	0.0001284
1714	0.000135
1726	0.0001074
1738	0.0001434
1750	0.0001296
1762	9.18e-05
1774	6.9e-05
1786	2.4e-05
1798	4.44e-05
1810	3.54e-05
1822	8.34e-05
1834	7.2e-05
1846	0.0001062
1858	0.0001026
1870	0.0001374
1882	0.0001254
1894	0.000111
1906	9.24e-05
1918	7.32e-05
1930	4.5e-05
1942	6.3e-05
1954	8.22e-05
1966	6.72e-05
1978	6.06e-05
1990	5.76e-05
2002	6.3e-05
2014	4.2e-05
2026	9e-05
2038	4.86e-05
2050	3.72e-05
2062	0.000102
2074	0.0001128
2086	9.66e-05
2098	3.9e-05
2110	5.4e-05
2122	5.58e-05
2134	2.64e-05
2146	4.08e-05
2158	4.32e-05
2170	3.18e-05
2182	5.7e-05
2194	4.86e-05
2206	6.36e-05
2218	4.86e-05
2230	4.86e-05
2242	7.26e-05
2254	4.44e-05
2266	6.06e-05
2278	6.3e-05
2290	8.52e-05
2302	7.08e-05
2314	0.0001014
2326	8.64e-05
2338	9.66e-05
2350	6.84e-05
2362	8.64e-05
2374	8.94e-05
2386	7.44e-05
2398	9.06e-05
2410	0.0001134
2422	0.0001512
2434	0.0001218
2446	7.8e-05
2458	6.36e-05
2470	9.12e-05
2482	0.0001014
2494	8.16e-05
2506	8.7e-05
2518	9.66e-05
2530	9.06e-05
2542	4.68e-05
2554	5.22e-05
2566	5.58e-05
2578	6.36e-05
2590	4.32e-05
2602	5.46e-05
2614	5.58e-05
2626	4.56e-05
2638	9.66e-05
2650	8.34e-05
2662	9e-05
2674	0.000111
2686	5.94e-05
2698	6.54e-05
2710	3.84e-05
2722	2.34e-05
2734	7.32e-05
2746	7.56e-05
2758	8.94e-05
2770	6.66e-05
2782	3.96e-05
2794	2.94e-05
2806	6.12e-05
2818	5.46e-05
2830	0.0001308
2842	7.74e-05
2854	0.0001278
2866	6.12e-05
2878	9.18e-05
2890	8.04e-05
2902	5.4e-05
2914	4.2e-05
2926	5.7e-05
2938	0.0001044
2950	4.92e-05
2962	4.56e-05
2974	0.0001434
2986	0.0001356
2998	0.0001518
3010	0.0001836
3022	0.0003252
3034	0.0005016
3046	0.0002994
3058	0.0002154
3070	0.0003282
3082	0.000294
3094	0.0002718
3106	0.0001704
3118	7.8e-05
3130	6.12e-05
3142	9.42e-05
3154	0.000102
3166	0.0001188
3178	9.84e-05
3190	7.68e-05
3202	9e-05
3214	7.44e-05
3226	9.12e-05
3238	5.94e-05
3250	6.12e-05
3262	0.0001086
3274	0.0001254
3286	0.0001002
3298	0.0001134
3310	0.000141
3322	8.88e-05
3334	0.000138
3346	0.0001584
3358	0.0001314
3370	0.0001914
3382	0.0001194
3394	8.94e-05
3406	0.0001314
3418	0.0001422
3430	0.0001806
3442	0.00015
3454	8.94e-05
3466	7.86e-05
3478	0.0001314
3490	0.000114
3502	0.0002052
3514	0.000135
3526	7.14e-05
3538	0.000159
3550	6.48e-05
3562	0.000108
3574	0.0001116
3586	0.0001776
3598	0.000132
3610	0.0002082
3622	0.000264
3634	0.0005256
3646	0.0022146
3658	0.0016278
3670	0.0002922
3682	0.0001866
3694	0.000117
3706	0.0001704
3718	0.0001596
3730	5.76e-05
3742	0.0001218
3754	9.78e-05
3766	0.0001032
3778	8.4e-06
3790	0.0001092
3802	0.0001458
3814	0.0001434
3826	0.0001206
3838	0.0001344
