Infrared Spectrum: 5-(P-ACETAMIDOPHENYLAZO)-8-QUINOLINOL HYDROCHLORIDE
Formula: C17 H15 Cl N4 O2
CAS: 26644-97-3
State: SOLID (MINERAL OIL MULL)
Class: COBLENTZ
Instrument: Not specified, most likely a prism, grating, or hybrid spectrometer.
Sampling: TRANSMISSION
Resolution: 4
Origin: WYANDOTTE CHEMICALS CORP., WYANDOTTE, MICHIGAN, USA
MICROMETERS	TRANSMITTANCE
2.026	0.183
2.06574	0.19
2.10547	0.193
2.14521	0.196
2.18495	0.2
2.22468	0.203
2.26442	0.208
2.30416	0.213
2.34389	0.222
2.38363	0.23
2.42336	0.245
2.4631	0.26
2.50284	0.252
2.54257	0.268
2.58231	0.283
2.62205	0.29
2.66178	0.303
2.70152	0.315
2.74126	0.322
2.78099	0.313
2.82073	0.317
2.86047	0.305
2.9002	0.283
2.93994	0.272
2.97968	0.263
3.01941	0.26
3.05915	0.245
3.09889	0.191
3.13862	0.16
3.17836	0.146
3.21809	0.13
3.25783	0.09
3.29757	0.06
3.3373	0.036
3.37704	0.02
3.41678	0.02
3.45651	0.018
3.49625	0.018
3.53599	0.016
3.57572	0.045
3.61546	0.071
3.6552	0.078
3.69493	0.085
3.73467	0.101
3.77441	0.115
3.81414	0.133
3.85388	0.15
3.89362	0.158
3.93335	0.176
3.97309	0.196
4.01282	0.217
4.05256	0.25
4.0923	0.277
4.13203	0.297
4.17177	0.31
4.21151	0.333
4.25124	0.347
4.29098	0.352
4.33072	0.37
4.37045	0.393
4.41019	0.429
4.44993	0.442
4.48966	0.45
4.5294	0.469
4.56914	0.484
4.60887	0.495
4.64861	0.509
4.68835	0.524
4.72808	0.539
4.76782	0.559
4.80755	0.574
4.84729	0.579
4.88703	0.584
4.92676	0.587
4.9665	0.592
5.00624	0.59
5.04597	0.575
5.08571	0.597
5.12545	0.632
5.16518	0.654
5.20492	0.659
5.24466	0.642
5.28439	0.597
5.32413	0.652
5.36387	0.709
5.4036	0.727
5.44334	0.739
5.48307	0.732
5.52281	0.736
5.56255	0.767
5.60228	0.808
5.64202	0.823
5.68176	0.851
5.72149	0.891
5.76123	0.911
5.80097	0.911
5.8407	0.959
5.88044	0.774
5.92018	0.19
5.95991	0.325
5.99965	0.619
6.03939	0.709
6.07912	0.621
6.11886	0.19
6.1586	0.317
6.19833	0.131
6.23807	0.036
6.2778	0.166
6.31754	0.442
6.35728	0.484
6.39701	0.071
6.43675	0.021
6.47649	0.046
6.51622	0.15
6.55596	0.255
6.5957	0.235
6.63543	0.05
6.67517	0.166
6.71491	0.227
6.75464	0.153
6.79438	0.038
6.83412	0.038
6.87385	0.065
6.91359	0.153
6.95333	0.3
6.99306	0.425
7.0328	0.459
7.07253	0.278
7.11227	0.103
7.15201	0.158
7.19174	0.181
7.23148	0.071
7.27122	0.04
7.31095	0.063
7.35069	0.111
7.39043	0.086
7.43016	0.118
7.4699	0.267
7.50964	0.302
7.54937	0.098
7.58911	0.066
7.62885	0.126
7.66858	0.061
7.70832	0.038
7.74805	0.153
7.78779	0.243
7.82753	0.307
7.86726	0.183
7.907	0.061
7.94674	0.123
7.98647	0.168
8.02621	0.24
8.06595	0.203
8.10568	0.146
8.14542	0.217
8.18516	0.307
8.22489	0.377
8.26463	0.407
8.30437	0.432
8.3441	0.46
8.38384	0.502
8.42358	0.472
8.46331	0.46
8.50305	0.442
8.54278	0.437
8.58252	0.49
8.62226	0.419
8.66199	0.31
8.70173	0.442
8.74147	0.434
8.7812	0.335
8.82094	0.258
8.86068	0.452
8.90041	0.574
8.94015	0.609
8.97989	0.621
9.01962	0.624
9.05936	0.679
9.0991	0.696
9.13883	0.662
9.17857	0.517
9.21831	0.282
9.25804	0.37
9.29778	0.547
9.33751	0.627
9.37725	0.661
9.41699	0.687
9.45672	0.694
9.49646	0.641
9.5362	0.606
9.57593	0.617
9.61567	0.637
9.65541	0.649
9.69514	0.664
9.73488	0.629
9.77462	0.519
9.81435	0.415
9.85409	0.372
9.89383	0.412
9.93356	0.519
9.9733	0.555
10.013	0.601
10.0528	0.657
10.0925	0.691
10.1322	0.716
10.172	0.724
10.2117	0.724
10.2515	0.722
10.2912	0.727
10.3309	0.729
10.3707	0.727
10.4104	0.727
10.4501	0.729
10.4899	0.732
10.5296	0.737
10.5693	0.762
10.6091	0.794
10.6488	0.808
10.6886	0.821
10.7283	0.821
10.768	0.821
10.8078	0.819
10.8475	0.813
10.8872	0.752
10.927	0.701
10.9667	0.732
11.0064	0.813
11.0462	0.851
11.0859	0.881
11.1257	0.906
11.1654	0.913
11.2051	0.913
11.2449	0.914
11.2846	0.923
11.3243	0.946
11.3641	0.963
11.4038	0.964
11.4435	0.973
11.4833	0.983
11.523	0.996
11.5628	0.984
11.6025	0.968
11.6422	0.931
11.682	0.878
11.7217	0.766
11.7614	0.601
11.8012	0.447
11.8409	0.24
11.8807	0.14
11.9204	0.232
11.9601	0.409
11.9999	0.58
12.0396	0.656
12.0793	0.704
12.1191	0.727
12.1588	0.722
12.1985	0.671
12.2383	0.607
12.278	0.547
12.3178	0.5
12.3575	0.398
12.3972	0.293
12.437	0.405
12.4767	0.636
12.5164	0.742
12.5562	0.814
12.5959	0.866
12.6356	0.916
12.6754	0.938
12.7151	0.956
12.7549	0.939
12.7946	0.916
12.8343	0.829
12.8741	0.617
12.9138	0.435
12.9535	0.298
12.9933	0.348
13.033	0.445
13.0727	0.585
13.1125	0.687
13.1522	0.719
13.192	0.734
13.2317	0.734
13.2714	0.717
13.3112	0.704
13.3509	0.687
13.3906	0.676
13.4304	0.667
13.4701	0.662
13.5098	0.657
13.5496	0.647
13.5893	0.646
13.6291	0.641
13.6688	0.637
13.7085	0.636
13.7483	0.622
13.788	0.597
13.8277	0.537
13.8675	0.494
13.9072	0.519
13.9469	0.592
13.9867	0.636
14.0264	0.664
14.0662	0.667
14.1059	0.662
14.1456	0.647
14.1854	0.639
14.2251	0.629
14.2648	0.636
14.3046	0.642
14.3443	0.667
14.384	0.691
14.4238	0.706
14.4635	0.722
14.5033	0.741
14.543	0.756
14.5827	0.767
14.6225	0.779
14.6622	0.786
14.7019	0.797
14.7417	0.804
14.7814	0.808
14.8212	0.809
14.8609	0.809
14.9006	0.804
14.9404	0.803
14.9801	0.792
15.0198	0.731
15.0596	0.646
15.0993	0.565
15.139	0.552
15.1788	0.599
15.2185	0.652
15.2583	0.696
15.298	0.714
15.3377	0.714
15.3775	0.712
15.4172	0.707
15.4569	0.702
15.4967	0.682
15.5364	0.676
15.5761	0.667
15.6159	0.646
15.6556	0.626
15.6954	0.597
15.7351	0.557
15.7748	0.539
15.8146	0.524
15.8543	0.525
15.894	0.525
15.9338	0.517
15.9735	0.509
