Infrared Spectrum: SORBITAN, TRISTEARATE
Formula: C60 H114 O8
CAS: 26658-19-5
State: SOLUTION (CCl4 FOR 2-10 MICRONS, CS2 FOR 10-16 MICRONS) VS. 0.005 CM SOLVENT
Class: COBLENTZ III
Instrument: BAIRD (PRISM)
Instrument parameters: NaCl PRISM
Sampling: TRANSMISSION
Path length: 0.010 CM, 0.010 CM
Resolution: 4
Origin: WYANDOTTE CHEMICALS CORP.
MICROMETERS	TRANSMITTANCE
2.004	0.899
2.04307	0.897
2.08214	0.892
2.12121	0.889
2.16029	0.885
2.19936	0.873
2.23843	0.84
2.2775	0.834
2.31657	0.84
2.35564	0.846
2.39471	0.856
2.43378	0.868
2.47286	0.873
2.51193	0.877
2.551	0.886
2.59007	0.897
2.62914	0.903
2.66821	0.9
2.70728	0.892
2.74635	0.861
2.78543	0.777
2.8245	0.609
2.86357	0.519
2.90264	0.507
2.94171	0.512
2.98078	0.541
3.01985	0.583
3.05892	0.635
3.098	0.678
3.13707	0.706
3.17614	0.726
3.21521	0.744
3.25428	0.737
3.29335	0.689
3.33242	0.377
3.37149	0.013
3.41057	0
3.44964	0.003
3.48871	0.017
3.52778	0.18
3.56685	0.54
3.60592	0.7
3.64499	0.75
3.68406	0.763
3.72314	0.774
3.76221	0.776
3.80128	0.801
3.84035	0.821
3.87942	0.844
3.91849	0.862
3.95756	0.881
3.99663	0.89
4.03571	0.902
4.07478	0.912
4.11385	0.914
4.15292	0.923
4.19199	0.922
4.23106	0.925
4.27013	0.93
4.30921	0.936
4.34828	0.934
4.38735	0.935
4.42642	0.936
4.46549	0.937
4.50456	0.939
4.54363	0.945
4.5827	0.945
4.62178	0.95
4.66085	0.954
4.69992	0.953
4.73899	0.954
4.77806	0.954
4.81713	0.952
4.8562	0.951
4.89527	0.948
4.93435	0.945
4.97342	0.94
5.01249	0.944
5.05156	0.945
5.09063	0.946
5.1297	0.956
5.16877	0.951
5.20784	0.951
5.24692	0.958
5.28599	0.958
5.32506	0.956
5.36413	0.954
5.4032	0.944
5.44227	0.944
5.48134	0.935
5.52041	0.929
5.55949	0.89
5.59856	0.869
5.63763	0.784
5.6767	0.566
5.71577	0.108
5.75484	0.081
5.79391	0.071
5.83298	0.121
5.87206	0.257
5.91113	0.553
5.9502	0.671
5.98927	0.762
6.02834	0.823
6.06741	0.849
6.10648	0.86
6.14556	0.867
6.18463	0.867
6.2237	0.845
6.26277	0.818
6.30184	0.782
6.34091	0.77
6.37998	0.754
6.41905	0.712
6.45813	0.712
6.4972	0.729
6.53627	0.745
6.57534	0.772
6.61441	0.787
6.65348	0.807
6.69255	0.789
6.73162	0.71
6.7707	0.431
6.80977	0.125
6.84884	0.153
6.88791	0.248
6.92698	0.33
6.96605	0.413
7.00512	0.462
7.04419	0.427
7.08327	0.472
7.12234	0.51
7.16141	0.517
7.20048	0.444
7.23955	0.319
7.27862	0.293
7.31769	0.311
7.35676	0.316
7.39584	0.34
7.43491	0.36
7.47398	0.373
7.51305	0.389
7.55212	0.389
7.59119	0.363
7.63026	0.34
7.66933	0.323
7.70841	0.313
7.74748	0.3
7.78655	0.289
7.82562	0.27
7.86469	0.248
7.90376	0.229
7.94283	0.198
7.9819	0.17
8.02098	0.154
8.06005	0.147
8.09912	0.143
8.13819	0.144
8.17726	0.148
8.21633	0.152
8.2554	0.148
8.29448	0.144
8.33355	0.136
8.37262	0.127
8.41169	0.096
8.45076	0.077
8.48983	0.063
8.5289	0.052
8.56797	0.043
8.60705	0.041
8.64612	0.051
8.68519	0.063
8.72426	0.076
8.76333	0.115
8.8024	0.217
8.84147	0.245
8.88054	0.221
8.91962	0.163
8.95869	0.127
8.99776	0.108
9.03683	0.118
9.0759	0.142
9.11497	0.144
9.15404	0.159
9.19311	0.184
9.23219	0.21
9.27126	0.214
9.31033	0.227
9.3494	0.236
9.38847	0.243
9.42754	0.259
9.46661	0.279
9.50568	0.29
9.54476	0.306
9.58383	0.335
9.6229	0.364
9.66197	0.374
9.70104	0.389
9.74011	0.403
9.77918	0.416
9.81825	0.429
9.85733	0.446
9.8964	0.468
9.93547	0.496
9.97454	0.521
10.0136	0.549
10.0527	0.575
10.0918	0.598
10.1308	0.622
10.1699	0.645
10.209	0.667
10.248	0.688
10.2871	0.703
10.3262	0.718
10.3653	0.734
10.4043	0.746
10.4434	0.76
10.4825	0.77
10.5215	0.778
10.5606	0.782
10.5997	0.784
10.6388	0.784
10.6778	0.783
10.7169	0.788
10.756	0.794
10.795	0.796
10.8341	0.794
10.8732	0.791
10.9123	0.789
10.9513	0.79
10.9904	0.795
11.0295	0.802
11.0685	0.809
11.1076	0.801
11.1467	0.806
11.1857	0.807
11.2248	0.807
11.2639	0.804
11.303	0.802
11.342	0.795
11.3811	0.779
11.4202	0.773
11.4592	0.765
11.4983	0.761
11.5374	0.756
11.5765	0.755
11.6155	0.755
11.6546	0.755
11.6937	0.757
11.7327	0.762
11.7718	0.77
11.8109	0.79
11.85	0.802
11.889	0.821
11.9281	0.83
11.9672	0.851
12.0062	0.86
12.0453	0.866
12.0844	0.869
12.1235	0.874
12.1625	0.879
12.2016	0.883
12.2407	0.884
12.2797	0.886
12.3188	0.889
12.3579	0.888
12.397	0.889
12.436	0.892
12.4751	0.892
12.5142	0.889
12.5532	0.88
12.5923	0.881
12.6314	0.88
12.6705	0.873
12.7095	0.871
12.7486	0.862
12.7877	0.857
12.8267	0.847
12.8658	0.845
12.9049	0.844
12.944	0.847
12.983	0.847
13.0221	0.845
13.0612	0.844
13.1002	0.845
13.1393	0.849
13.1784	0.854
13.2175	0.857
13.2565	0.857
13.2956	0.851
13.3347	0.839
13.3737	0.834
13.4128	0.828
13.4519	0.823
13.491	0.822
13.53	0.811
13.5691	0.804
13.6082	0.794
13.6472	0.782
13.6863	0.76
13.7254	0.751
13.7645	0.728
13.8035	0.704
13.8426	0.66
13.8817	0.638
13.9207	0.618
13.9598	0.611
13.9989	0.636
14.038	0.68
14.077	0.715
14.1161	0.75
14.1552	0.767
14.1942	0.793
14.2333	0.818
14.2724	0.84
14.3115	0.851
14.3505	0.857
14.3896	0.86
14.4287	0.864
14.4677	0.875
14.5068	0.879
14.5459	0.881
14.585	0.892
14.624	0.896
14.6631	0.899
14.7022	0.902
14.7412	0.901
14.7803	0.895
14.8194	0.897
14.8584	0.901
14.8975	0.896
14.9366	0.901
14.9757	0.902
15.0147	0.896
15.0538	0.892
15.0929	0.896
15.1319	0.892
15.171	0.888
15.2101	0.883
15.2492	0.879
15.2882	0.881
15.3273	0.875
15.3664	0.866
15.4054	0.864
15.4445	0.874
15.4836	0.864
15.5227	0.872
15.5617	0.868
15.6008	0.855
15.6399	0.852
15.6789	0.854
15.718	0.845
15.7571	0.843
15.7962	0.838
15.8352	0.843
15.8743	0.835
15.9134	0.833
15.9524	0.826
15.9915	0.824
