Infrared Spectrum: (+)-cis-2-Benzamidocyclohexanecarboxylic acid
Formula: C 14 H 17 N O 3
CAS: 26685-82-5
State: gas
Origin: EPA-IR VAPOR PHASE LIBRARY
1/CM	ABSORBANCE
549.8	0.00404
559.445	0.00365
569.09	0.00416
578.734	0.00308
588.379	0.00419
598.024	0.00404
607.669	0.00369
617.313	0.00384
626.958	0.00313
636.603	0.00357
646.248	0.0025
655.893	0.0024
665.537	0.00346
675.182	0.00374
684.827	0.00688
694.472	0.00751
704.116	0.00432
713.761	0.00317
723.406	0.0022401
733.051	0.00273
742.695	0.00253
752.34	0.0020165
761.985	0.00268
771.63	0.001968
781.275	0.0021031
790.919	0.000961
800.564	0.0020754
810.209	0.0019635
819.854	0.00375
829.498	0.00248
839.143	0.00255
848.788	0.002075
858.433	0.00273
868.078	0.0015254
877.722	0.001074
887.367	0.0015419
897.012	0.0016487
906.657	0.0019274
916.301	0.0012565
925.946	0.00141423
935.591	0.0013199
945.236	0.00135323
954.88	0.000667
964.525	0.001118
974.17	0.0014828
983.815	0.000552
993.46	0.000838
1003.1	0.0017766
1012.75	0.00139915
1022.39	0.0012827
1032.04	0.0023362
1041.68	0.00272
1051.33	0.00338
1060.97	0.00252
1070.62	0.00563
1080.26	0.00435
1089.91	0.00495
1099.55	0.00674
1109.2	0.00887
1118.84	0.0122
1128.49	0.01081
1138.13	0.00806
1147.78	0.00887
1157.42	0.00673
1167.07	0.00669
1176.71	0.00693
1186.36	0.00775
1196	0.00698
1205.64	0.01006
1215.29	0.00876
1224.93	0.00665
1234.58	0.00728
1244.22	0.00584
1253.87	0.00519
1263.51	0.00554
1273.16	0.00382
1282.8	0.0039
1292.45	0.00393
1302.09	0.00312
1311.74	0.00278
1321.38	0.00288
1331.03	0.00298
1340.67	0.00311
1350.32	0.00305
1359.96	0.00332
1369.61	0.00383
1379.25	0.00405
1388.9	0.00366
1398.54	0.00287
1408.18	0.00269
1417.83	0.00272
1427.47	0.00269
1437.12	0.0034
1446.76	0.00313
1456.41	0.00288
1466.05	0.00266
1475.7	0.0020411
1485.34	0.001711
1494.99	0.0019929
1504.63	0.0017183
1514.28	0.00139158
1523.92	0.0015108
1533.57	0.0015927
1543.21	0.001782
1552.86	0.0018492
1562.5	0.0015181
1572.15	0.0017474
1581.79	0.0015721
1591.44	0.0015407
1601.08	0.000978
1610.73	0.0015456
1620.37	0.0018519
1630.01	0.001649
1639.66	0.0021114
1649.3	0.0016498
1658.95	0.001558
1668.59	0.0017401
1678.24	0.0020295
1687.88	0.0017455
1697.53	0.0020356
1707.17	0.0022277
1716.82	0.00273
1726.46	0.00283
1736.11	0.00409
1745.75	0.00549
1755.4	0.00754
1765.04	0.01109
1774.69	0.01532
1784.33	0.01359
1793.98	0.00886
1803.62	0.00589
1813.27	0.00379
1822.91	0.00244
1832.55	0.0019563
1842.2	0.0019651
1851.84	0.0018304
1861.49	0.0014883
1871.13	0.0015413
1880.78	0.0012552
1890.42	0.0014588
1900.07	0.001313
1909.71	0.0015715
1919.36	0.0014966
1929	0.00140632
1938.65	0.00135313
1948.29	0.0012629
1957.94	0.001238
1967.58	0.001065
1977.23	0.001188
1986.87	0.0012898
1996.52	0.0012625
2006.16	0.00111
2015.81	0.000937
2025.45	0.001172
2035.1	0.001107
2044.74	0.0012836
2054.38	0.000935
2064.03	0.001142
2073.67	0.001169
2083.32	0.0012644
2092.96	0.001007
2102.61	0.000946
2112.25	0.001035
2121.9	0.000974
2131.54	0.00137737
2141.19	0.001159
2150.83	0.001044
2160.48	0.001084
2170.12	0.001074
2179.77	0.001061
2189.41	0.001069
2199.06	0.001212
2208.7	0.000915
2218.35	0.001026
2227.99	0.001025
2237.64	0.001102
2247.28	0.00123
2256.92	0.000921
2266.57	0.001061
2276.21	0.001168
2285.86	0.001108
2295.5	0.001154
2305.15	0.001217
2314.79	0.00105
2324.44	0.000882
2334.08	0.000961
2343.73	0.001177
2353.37	0.001172
2363.02	0.00111
2372.66	0.000958
2382.31	0.000904
2391.95	0.001118
2401.6	0.0012449
2411.24	0.00107
2420.89	0.000466
2430.53	0.001106
2440.18	0.001099
2449.82	0.0012481
2459.47	0.001117
2469.11	0.000995
2478.75	0.0012929
2488.4	0.001196
2498.04	0.00067
2507.69	0.000362
2517.33	0.000845
2526.98	0.001315
2536.62	0.000945
2546.27	0.00136554
2555.91	0.000792
2565.56	0.0014951
2575.2	0.000583
2584.85	0.000859
2594.49	0.00099
2604.14	0.000985
2613.78	0.001025
2623.43	0.00059
2633.07	0.000794
2642.72	0.0015957
2652.36	0.0012802
2662.01	0.000823
2671.65	0.000883
2681.29	0.001233
2690.94	0.000937
2700.58	0.000946
2710.23	0.00136435
2719.87	0.001074
2729.52	0.000545
2739.16	0.000662
2748.81	0.000434
2758.45	0.000873
2768.1	0.000849
2777.74	0.000832
2787.39	0.000663
2797.03	0.000935
2806.68	0.00109
2816.32	0.001176
2825.97	0.000801
2835.61	0.000995
2845.26	0.001122
2854.9	0.0014976
2864.55	0.0025
2874.19	0.0022701
2883.84	0.0018788
2893.48	0.0019731
2903.12	0.0023059
2912.77	0.00287
2922.41	0.00372
2932.06	0.00517
2941.7	0.00537
2951.35	0.00559
2960.99	0.00353
2970.64	0.002318
2980.28	0.0022635
2989.93	0.0013244
2999.57	0.000859
3009.22	0.000946
3018.86	0.000941
3028.51	0.00106
3038.15	0.0014412
3047.8	0.000358
3057.44	0.0015617
3067.09	0.001193
3076.73	0.0014955
3086.38	0.0016182
3096.02	0.0016968
3105.67	0.0015339
3115.31	0.0016136
3124.95	0.00133771
3134.6	0.00076
3144.24	0.0013066
3153.89	0.001019
3163.53	0.000486
3173.18	0.00103
3182.82	0.00091
3192.47	0.000772
3202.11	0.000395
3211.76	0.000778
3221.4	0.0012412
3231.05	0.00142368
3240.69	0.001004
3250.34	0.00136741
3259.98	0.001008
3269.63	0.0012516
3279.27	0.0012782
3288.92	0.000503
3298.56	0.001188
3308.21	0.0020746
3317.85	0.001122
3327.49	0.000728
3337.14	0.00107
3346.78	0.000858
3356.43	0.001142
3366.07	0.001222
3375.72	0.0014628
3385.36	0.0013194
3395.01	0.000999
3404.65	0.00101
3414.3	0.0015207
3423.94	0.001114
3433.59	0.00141604
3443.23	0.001445
3452.88	0.00139015
3462.52	0.000515
3472.17	0.0014885
3481.81	0.0016133
3491.46	0.00097
3501.1	0.0019797
3510.75	0.000889
3520.39	0.0020943
3530.04	0.00138222
3539.68	0.001108
3549.32	0.0020676
3558.97	0.00242
3568.61	0.00563
3578.26	0.00639
3587.9	0.0022763
3597.55	0.0013073
3607.19	0.001201
3616.84	0.0018292
3626.48	0.0016973
3636.13	0.0014242
3645.77	0.000656
3655.42	0.0019747
3665.06	0.001031
3674.71	0.000383
3684.35	0.0012904
3694	0.0012699
3703.64	0.0014732
3713.29	0.000563
3722.93	0.000602
3732.58	0.0016607
3742.22	0.000784
3751.86	0.001027
3761.51	0.000985
3771.15	0.0012542
3780.8	0.0014783
3790.44	0.0018147
3800.09	0.0016985
3809.73	0.0017171
3819.38	0.00134561
3829.02	0.0015366
3838.67	0.0012589
3848.31	0.001069
3857.96	0.001082
3867.6	0.0014406
3877.25	0.001205
3886.89	0.000632
3896.54	0.001215
3906.18	0.001016
3915.83	0.001121
3925.47	0.001172
3935.12	0.00031
3944.76	0
3954.41	0.0020545
3964.05	0.001179
3973.69	0.0003
3983.34	0.0015038
3992.98	0.0014955
