Infrared Spectrum: 2-Octenyl succinic anhydride
Formula: C 12 H 18 O 3
CAS: 26680-54-6
State: gas
Instrument: HP-GC/MS/IRD
Origin: NIST Mass Spectrometry Data Center
1/CM	ABSORBANCE
550	0.0010388
562	0.0006517
574	0.0012299
586	0.000882
598	0.000735
610	0.0005635
622	0.0007154
634	0.0007105
646	0.0005439
658	0.0004557
670	0.0004116
682	0.0004704
694	0.0006909
706	0.0010192
718	0.0015092
730	0.0014651
742	0.0009016
754	0.0003969
766	0.0002401
778	0.0002548
790	0.0001911
802	9.31e-05
814	0
826	7.84e-05
838	0.0001715
850	0.0004067
862	0.0009653
874	0.0025725
886	0.0059731
898	0.0092365
910	0.01225
922	0.0130095
934	0.0093149
946	0.0064141
958	0.0058163
970	0.0062769
982	0.0055909
994	0.0044247
1006	0.0045521
1018	0.0048755
1030	0.005488
1042	0.0072373
1054	0.009604
1066	0.011564
1078	0.0075509
1090	0.0032781
1102	0.0017738
1114	0.0011564
1126	0.0009702
1138	0.0009947
1150	0.0013279
1162	0.0019404
1174	0.0027636
1186	0.0036848
1198	0.005047
1210	0.0069335
1222	0.0077714
1234	0.0064925
1246	0.0042875
1258	0.003038
1270	0.0023667
1282	0.0018669
1294	0.0017444
1306	0.0017444
1318	0.002009
1330	0.0014994
1342	0.0019159
1354	0.0011858
1366	0.0011907
1378	0.0010584
1390	0.0013867
1402	0.0010829
1414	0.0015288
1426	0.0023324
1438	0.0031164
1450	0.0025039
1462	0.0024941
1474	0.0025823
1486	0.0013671
1498	0.0012887
1510	0.0028861
1522	0.0022197
1534	0.0012299
1546	0.0015631
1558	0.0022638
1570	0.0004802
1582	9.31e-05
1594	5.39e-05
1606	0.0001078
1618	0.0006076
1630	0.0003577
1642	0.0006664
1654	0.0020139
1666	0.0008967
1678	0.0011221
1690	0.0009751
1702	0.0019012
1714	0.0016807
1726	0.0009555
1738	0.0020433
1750	0.0030478
1762	0.0040033
1774	0.0078596
1786	0.0165081
1798	0.0373625
1810	0.0472017
1822	0.0237307
1834	0.0110544
1846	0.0071785
1858	0.0061054
1870	0.0097608
1882	0.0099421
1894	0.0033859
1906	0.0014259
1918	0.0011025
1930	0.0005439
1942	0.000588
1954	0.0002793
1966	0.0002842
1978	0.0001274
1990	0.0002891
2002	0.0001568
2014	0.0002205
2026	9.8e-05
2038	5.88e-05
2050	4.9e-06
2062	5.39e-05
2074	2.45e-05
2086	6.37e-05
2098	7.35e-05
2110	0.0001078
2122	0.0001323
2134	0.0001568
2146	0.0001421
2158	0.0001421
2170	9.31e-05
2182	7.84e-05
2194	5.39e-05
2206	7.84e-05
2218	4.9e-05
2230	6.37e-05
2242	5.88e-05
2254	6.86e-05
2266	6.86e-05
2278	7.84e-05
2290	8.33e-05
2302	9.8e-05
2314	0.0001372
2326	0.0001127
2338	9.8e-05
2350	8.82e-05
2362	0.0001274
2374	9.31e-05
2386	9.8e-06
2398	1.96e-05
2410	3.92e-05
2422	6.37e-05
2434	2.94e-05
2446	2.94e-05
2458	1.96e-05
2470	0
2482	9.8e-06
2494	3.43e-05
2506	2.94e-05
2518	2.94e-05
2530	1.47e-05
2542	9.8e-06
2554	3.43e-05
2566	2.94e-05
2578	4.41e-05
2590	3.43e-05
2602	1.96e-05
2614	4.41e-05
2626	5.88e-05
2638	7.35e-05
2650	9.8e-05
2662	9.31e-05
2674	0.0001421
2686	0.0001372
2698	0.0001078
2710	0.0001029
2722	0.0001372
2734	0.0001813
2746	0.0001862
2758	0.0001911
2770	0.0002352
2782	0.0002891
2794	0.0003822
2806	0.0005243
2818	0.0006958
2830	0.001078
2842	0.0019306
2854	0.0039004
2866	0.0055909
2878	0.0051695
2890	0.0047334
2902	0.0052332
2914	0.0078694
2926	0.0132349
2938	0.0158221
2950	0.0107555
2962	0.0092071
2974	0.0082516
2986	0.0041405
2998	0.0026117
3010	0.0021021
3022	0.0018718
3034	0.0013916
3046	0.0008281
3058	0.00049
3070	0.0003479
3082	0.0002891
3094	0.0002254
3106	0.000196
3118	0.0001617
3130	0.0001078
3142	0.0001078
3154	0.0001323
3166	0.0001323
3178	0.0001127
3190	8.33e-05
3202	8.82e-05
3214	6.86e-05
3226	7.35e-05
3238	6.86e-05
3250	7.35e-05
3262	4.9e-05
3274	5.39e-05
3286	6.86e-05
3298	5.39e-05
3310	3.43e-05
3322	1.47e-05
3334	8.82e-05
3346	2.45e-05
3358	4.9e-05
3370	2.45e-05
3382	2.94e-05
3394	5.39e-05
3406	0
3418	6.37e-05
3430	3.43e-05
3442	8.82e-05
3454	3.92e-05
3466	6.86e-05
3478	0.0001176
3490	0.0001029
3502	0.0004459
3514	0.0001078
3526	0.0005831
3538	0.0002303
3550	0.000539
3562	0.000588
3574	0.0002842
3586	0.0012005
3598	0.0006174
3610	0.0014308
3622	0.000882
3634	0.0008134
3646	0.0013181
3658	0.0009702
3670	0.0015043
3682	0.0005488
3694	0.0004802
3706	0.0004655
3718	0.0005782
3730	0.00098
3742	0.0014847
3754	0.0010241
3766	0.0003381
3778	7.84e-05
3790	9.8e-06
3802	0.000637
3814	0.0004606
3826	0.0003234
3838	0.0009653
