Infrared Spectrum: 3,4-Dichlorobenzamide
Formula: C 7 H 5 Cl 2 N O
CAS: 2670-38-4
State: gas
Origin: EPA-IR VAPOR PHASE LIBRARY
1/CM	ABSORBANCE
549.8	0.00419
559.445	0.00417
569.09	0.00339
578.734	0.00396
588.379	0.00292
598.024	0.0020067
607.669	0.0024827
617.313	0.0015265
626.958	0.0027
636.603	0.0024952
646.248	0.00275
655.893	0.00383
665.537	0.00388
675.182	0.00807
684.827	0.00838
694.472	0.00485
704.116	0.00333
713.761	0.00414
723.406	0.00392
733.051	0.00383
742.695	0.00736
752.34	0.01139
761.985	0.00729
771.63	0.00452
781.275	0.00456
790.919	0.00415
800.564	0.00469
810.209	0.0046
819.854	0.004
829.498	0.00836
839.143	0.00987
848.788	0.00734
858.433	0.0049
868.078	0.00458
877.722	0.00507
887.367	0.0052
897.012	0.00445
906.657	0.00385
916.301	0.00396
925.946	0.00317
935.591	0.00293
945.236	0.00276
954.88	0.0023697
964.525	0.00276
974.17	0.0022069
983.815	0.00333
993.46	0.0023819
1003.1	0.0017201
1012.75	0.00298
1022.39	0.00529
1032.04	0.01138
1041.68	0.00782
1051.33	0.00311
1060.97	0.0031
1070.62	0.00426
1080.26	0.00364
1089.91	0.00288
1099.55	0.00277
1109.2	0.00434
1118.84	0.00621
1128.49	0.00676
1138.13	0.008
1147.78	0.00908
1157.42	0.00616
1167.07	0.00382
1176.71	0.00265
1186.36	0.0023791
1196	0.00331
1205.64	0.0020305
1215.29	0.00279
1224.93	0.00352
1234.58	0.00563
1244.22	0.00766
1253.87	0.00582
1263.51	0.00527
1273.16	0.00391
1282.8	0.00377
1292.45	0.00402
1302.09	0.00521
1311.74	0.00768
1321.38	0.01236
1331.03	0.02758
1340.67	0.048
1350.32	0.03193
1359.96	0.01171
1369.61	0.01271
1379.25	0.01576
1388.9	0.01277
1398.54	0.00662
1408.18	0.00397
1417.83	0.00341
1427.47	0.00304
1437.12	0.00281
1446.76	0.00332
1456.41	0.00464
1466.05	0.00739
1475.7	0.00689
1485.34	0.00417
1494.99	0.00276
1504.63	0.0025308
1514.28	0.0021921
1523.92	0.00276
1533.57	0.00295
1543.21	0.00513
1552.86	0.00815
1562.5	0.00917
1572.15	0.01077
1581.79	0.01973
1591.44	0.02669
1601.08	0.01841
1610.73	0.01013
1620.37	0.0062
1630.01	0.00434
1639.66	0.00388
1649.3	0.00392
1658.95	0.00368
1668.59	0.00449
1678.24	0.00649
1687.88	0.00944
1697.53	0.01118
1707.17	0.01685
1716.82	0.04703
1726.46	0.05969
1736.11	0.0234
1745.75	0.0101
1755.4	0.01034
1765.04	0.0073
1774.69	0.00392
1784.33	0.0024278
1793.98	0.0024048
1803.62	0.0018645
1813.27	0.0019428
1822.91	0.0017432
1832.55	0.00167097
1842.2	0.0018242
1851.84	0.0014978
1861.49	0.00159596
1871.13	0.0018824
1880.78	0.0019991
1890.42	0.0018538
1900.07	0.00162148
1909.71	0.0017203
1919.36	0.00160553
1929	0.00164895
1938.65	0.0014909
1948.29	0.0015451
1957.94	0.001532
1967.58	0.00143
1977.23	0.0017112
1986.87	0.0015098
1996.52	0.001464
2006.16	0.001278
2015.81	0.00165895
2025.45	0.0015027
2035.1	0.001486
2044.74	0.001453
2054.38	0.001251
2064.03	0.001449
2073.67	0.001286
2083.32	0.001411
2092.96	0.0015767
2102.61	0.001441
2112.25	0.001253
2121.9	0.001224
2131.54	0.0015218
2141.19	0.00116
2150.83	0.0015169
2160.48	0.001441
2170.12	0.0015167
2179.77	0.001281
2189.41	0.001452
2199.06	0.0015417
2208.7	0.001401
2218.35	0.001306
2227.99	0.001441
2237.64	0.00139
2247.28	0.001323
2256.92	0.00162093
2266.57	0.001401
2276.21	0.001375
2285.86	0.0017478
2295.5	0.001206
2305.15	0.001471
2314.79	0.0015041
2324.44	0.00159786
2334.08	0.0015237
2343.73	0.00142
2353.37	0.0017499
2363.02	0.0014923
2372.66	0.001317
2382.31	0.001449
2391.95	0.00166848
2401.6	0.0017836
2411.24	0.001329
2420.89	0.0017814
2430.53	0.001487
2440.18	0.001152
2449.82	0.001187
2459.47	0.0016193
2469.11	0.0014968
2478.75	0.0015104
2488.4	0.001475
2498.04	0.001303
2507.69	0.0015213
2517.33	0.00163039
2526.98	0.0016922
2536.62	0.001445
2546.27	0.00166388
2555.91	0.00118
2565.56	0.001451
2575.2	0.0015555
2584.85	0.0015059
2594.49	0.001439
2604.14	0.001403
2613.78	0.001134
2623.43	0.001358
2633.07	0.001236
2642.72	0.001463
2652.36	0.0014955
2662.01	0.001336
2671.65	0.001299
2681.29	0.00104
2690.94	0.001148
2700.58	0.001752
2710.23	0.001139
2719.87	0.001258
2729.52	0.000989
2739.16	0.001124
2748.81	0.001413
2758.45	0.00158249
2768.1	0.001303
2777.74	0.0015124
2787.39	0.001354
2797.03	0.001176
2806.68	0.001033
2816.32	0.0015314
2825.97	0.001384
2835.61	0.001309
2845.26	0.00165759
2854.9	0.000999
2864.55	0.001073
2874.19	0.000853
2883.84	0.001031
2893.48	0.0015316
2903.12	0.001243
2912.77	0.00159276
2922.41	0.001489
2932.06	0.001431
2941.7	0.0019047
2951.35	0.001073
2960.99	0.001091
2970.64	0.001422
2980.28	0.001328
2989.93	0.001406
2999.57	0.00159441
3009.22	0.00129
3018.86	0.0015013
3028.51	0.001281
3038.15	0.001314
3047.8	0.001792
3057.44	0.0018328
3067.09	0.002316
3076.73	0.0027
3086.38	0.0019479
3096.02	0.0015693
3105.67	0.0015195
3115.31	0.001431
3124.95	0.000778
3134.6	0.00055
3144.24	0.001376
3153.89	0.001464
3163.53	0.00162286
3173.18	0.0015181
3182.82	0.00163924
3192.47	0.00133
3202.11	0.001017
3211.76	0.001391
3221.4	0.000718
3231.05	0.00098
3240.69	0.000922
3250.34	0.001351
3259.98	0.00158754
3269.63	0.0015096
3279.27	0.0019851
3288.92	0.001403
3298.56	0.001271
3308.21	0.0015689
3317.85	0.001378
3327.49	0.0016914
3337.14	0.000873
3346.78	0.000771
3356.43	0.001185
3366.07	0.001366
3375.72	0.00158315
3385.36	0.0015759
3395.01	0.0023094
3404.65	0.00319
3414.3	0.00402
3423.94	0.00619
3433.59	0.00831
3443.23	0.00651
3452.88	0.00389
3462.52	0.0024779
3472.17	0.00284
3481.81	0.001924
3491.46	0.0019425
3501.1	0.001399
3510.75	0.0022301
3520.39	0.0023069
3530.04	0.00328
3539.68	0.00468
3549.32	0.00658
3558.97	0.00453
3568.61	0.00342
3578.26	0.0023215
3587.9	0.001205
3597.55	0.001319
3607.19	0.001025
3616.84	0.00056
3626.48	0.000859
3636.13	0.000883
3645.77	0.0017194
3655.42	0.001487
3665.06	0.001016
3674.71	0.001477
3684.35	0.00052
3694	0.001025
3703.64	0.001441
3713.29	0.00158802
3722.93	0.0017075
3732.58	0.001354
3742.22	0.00041
3751.86	0.0015769
3761.51	0.001344
3771.15	0.001393
3780.8	0.001444
3790.44	0.000841
3800.09	0.00176
3809.73	0.001249
3819.38	0.00166927
3829.02	0.0017416
3838.67	0.00054
3848.31	0.0015212
3857.96	0.0021168
3867.6	0.0015057
3877.25	0.001245
3886.89	0.00125
3896.54	0.001312
3906.18	0.00047
3915.83	0.000832
3925.47	0.001234
3935.12	0.001197
3944.76	0.000974
3954.41	0.00129
3964.05	0.001416
3973.69	0.000998
3983.34	0.001153
3992.98	0.001466
