Infrared Spectrum: Phloroglucinol triacetate
Formula: C 12 H 12 O 6
CAS: 2672-58-4
State: gas
Origin: EPA-IR VAPOR PHASE LIBRARY
1/CM	ABSORBANCE
549.8	0.001406
559.445	0.002066
569.09	0.001886
578.734	0.002226
588.379	0.002396
598.024	0.003146
607.669	0.002206
617.313	0.001706
626.958	0.0011664
636.603	0.001366
646.248	0.002006
655.893	0.004126
665.537	0.003146
675.182	0.002096
684.827	0.003166
694.472	0.006596
704.116	0.004366
713.761	0.001506
723.406	0.0011496
733.051	0.0009345
742.695	0.000661
752.34	0.000645
761.985	0.0007657
771.63	0.0008068
781.275	0.0007604
790.919	0.0013407
800.564	0.001656
810.209	0.002476
819.854	0.003526
829.498	0.003696
839.143	0.002766
848.788	0.002366
858.433	0.003036
868.078	0.003946
877.722	0.006416
887.367	0.010286
897.012	0.010666
906.657	0.007946
916.301	0.004606
925.946	0.002946
935.591	0.002536
945.236	0.002336
954.88	0.002236
964.525	0.002996
974.17	0.004176
983.815	0.007086
993.46	0.010076
1003.1	0.016606
1012.75	0.031446
1022.39	0.053836
1032.04	0.038306
1041.68	0.015536
1051.33	0.010246
1060.97	0.010276
1070.62	0.013006
1080.26	0.012616
1089.91	0.010396
1099.55	0.012806
1109.2	0.028176
1118.84	0.080326
1128.49	0.066796
1138.13	0.025056
1147.78	0.016926
1157.42	0.018906
1167.07	0.032596
1176.71	0.073466
1186.36	0.213156
1196	0.261336
1205.64	0.087116
1215.29	0.038586
1224.93	0.021816
1234.58	0.014406
1244.22	0.009486
1253.87	0.007286
1263.51	0.007526
1273.16	0.007006
1282.8	0.006326
1292.45	0.005736
1302.09	0.005286
1311.74	0.005156
1321.38	0.004566
1331.03	0.003856
1340.67	0.003926
1350.32	0.005646
1359.96	0.013036
1369.61	0.034326
1379.25	0.025906
1388.9	0.011266
1398.54	0.007856
1408.18	0.006656
1417.83	0.006576
1427.47	0.007746
1437.12	0.010856
1446.76	0.017676
1456.41	0.026156
1466.05	0.018946
1475.7	0.007476
1485.34	0.004376
1494.99	0.003406
1504.63	0.002866
1514.28	0.002956
1523.92	0.003446
1533.57	0.003616
1543.21	0.003626
1552.86	0.004016
1562.5	0.004856
1572.15	0.006906
1581.79	0.010526
1591.44	0.016006
1601.08	0.025546
1610.73	0.034706
1620.37	0.021976
1630.01	0.008736
1639.66	0.004496
1649.3	0.003116
1658.95	0.002686
1668.59	0.002596
1678.24	0.002846
1687.88	0.002776
1697.53	0.002876
1707.17	0.003386
1716.82	0.004096
1726.46	0.005206
1736.11	0.006436
1745.75	0.008376
1755.4	0.012336
1765.04	0.021536
1774.69	0.033996
1784.33	0.051916
1793.98	0.077036
1803.62	0.051846
1813.27	0.023476
1822.91	0.009226
1832.55	0.004676
1842.2	0.003306
1851.84	0.002926
1861.49	0.002246
1871.13	0.001766
1880.78	0.001476
1890.42	0.001556
1900.07	0.001486
1909.71	0.001436
1919.36	0.0013029
1929	0.0011814
1938.65	0.0010565
1948.29	0.0009797
1957.94	0.0009953
1967.58	0.0009758
1977.23	0.000819
1986.87	0.0008649
1996.52	0.0009677
2006.16	0.0011812
2015.81	0.001476
2025.45	0.001516
2035.1	0.001356
2044.74	0.0011663
2054.38	0.0010997
2064.03	0.0011361
2073.67	0.0012313
2083.32	0.0013457
2092.96	0.0012523
2102.61	0.0012457
2112.25	0.0010274
2121.9	0.0008332
2131.54	0.0008469
2141.19	0.000776
2150.83	0.000726
2160.48	0.0007008
2170.12	0.000578
2179.77	0.0006227
2189.41	0.000561
2199.06	0.0005945
2208.7	0.0006234
2218.35	0.0005677
2227.99	0.0005822
2237.64	0.0006063
2247.28	0.0006538
2256.92	0.0004932
2266.57	0.0005902
2276.21	0.0005924
2285.86	0.000541
2295.5	0.0005312
2305.15	0.0005681
2314.79	0.0006396
2324.44	0.0005864
2334.08	0.0005592
2343.73	0.0006373
2353.37	0.0006199
2363.02	0.0005128
2372.66	0.0005932
2382.31	0.0006664
2391.95	0.0008069
2401.6	0.000847
2411.24	0.0010819
2420.89	0.0009685
2430.53	0.0007533
2440.18	0.0005703
2449.82	0.0004745
2459.47	0.00043792
2469.11	0.00041809
2478.75	0.0004072
2488.4	0.00039237
2498.04	0.0004683
2507.69	0.0002825
2517.33	0.0002672
2526.98	0.0003799
2536.62	0.0004375
2546.27	0.00036965
2555.91	0.00037724
2565.56	0.0004613
2575.2	0.00037707
2584.85	0.00040785
2594.49	0.000241
2604.14	0.0002736
2613.78	0.000249
2623.43	0.000158
2633.07	0.000137
2642.72	0.000177
2652.36	0.000125
2662.01	0.0003271
2671.65	0.0003227
2681.29	0.000254
2690.94	0.0002971
2700.58	0.0002836
2710.23	0.000255
2719.87	0.00034874
2729.52	0.00038196
2739.16	0.0002842
2748.81	0.0005052
2758.45	0.0002705
2768.1	0.00040238
2777.74	0.00043031
2787.39	0.00034815
2797.03	0.0002596
2806.68	0.000185
2816.32	0.0002649
2825.97	0.000238
2835.61	0.0003131
2845.26	0.0003676
2854.9	0.00037049
2864.55	0.0004357
2874.19	0.00040661
2883.84	0.0003141
2893.48	0.000146
2903.12	0.00036571
2912.77	0.0002898
2922.41	0.00040568
2932.06	0.0005108
2941.7	0.0007876
2951.35	0.001566
2960.99	0.0011101
2970.64	0.0007296
2980.28	0.0008562
2989.93	0.0007536
2999.57	0.0007745
3009.22	0.0008852
3018.86	0.0008973
3028.51	0.001376
3038.15	0.001386
3047.8	0.0008818
3057.44	0.000894
3067.09	0.0008819
3076.73	0.0008721
3086.38	0.000885
3096.02	0.0009064
3105.67	0.000776
3115.31	0.0006452
3124.95	0.0007988
3134.6	0.0007261
3144.24	0.0005974
3153.89	0.0006347
3163.53	0.0005705
3173.18	0.0005736
3182.82	0.00034852
3192.47	0.0004863
3202.11	0.0003102
3211.76	0.00043979
3221.4	0.0004038
3231.05	0.000303
3240.69	0.000225
3250.34	0.0003133
3259.98	0.0003046
3269.63	0.0003163
3279.27	0.000202
3288.92	0.000234
3298.56	0.000235
3308.21	0.0002813
3317.85	0.000149
3327.49	0.000186
3337.14	0.000182
3346.78	0.0003347
3356.43	0.00041023
3366.07	0.000252
3375.72	0.0002957
3385.36	0.000231
3395.01	0.0003089
3404.65	0.00033
3414.3	0.0002922
3423.94	0.0002668
3433.59	0.00037362
3443.23	0.0003016
3452.88	0.0003194
3462.52	0.000216
3472.17	0.00019
3481.81	0.000358908
3491.46	0.00035051
3501.1	0.00044368
3510.75	0.0005575
3520.39	0.0004698
3530.04	0.0006459
3539.68	0.0007709
3549.32	0.0007977
3558.97	0.001189
3568.61	0.0009464
3578.26	0.00083
3587.9	0.0006849
3597.55	0.000254
3607.19	0.000365539
3616.84	0.00041185
3626.48	0.00038434
3636.13	0.00042937
3645.77	0.0007335
3655.42	0.0007663
3665.06	0.0005584
3674.71	0.00035038
3684.35	0.000207
3694	0.0002768
3703.64	9e-05
3713.29	0.000297
3722.93	0.0002979
3732.58	0.000211
3742.22	0.000224
3751.86	0.000225
3761.51	0.000196
3771.15	0.000244
3780.8	0.00023
3790.44	0.000360477
3800.09	0.0002584
3809.73	0.0003004
3819.38	0.0002713
3829.02	0.00021
3838.67	0.000312
3848.31	0.000244
3857.96	0.00038969
3867.6	0.00039978
3877.25	0.00041014
3886.89	0.000247
3896.54	0.00037594
3906.18	0.000228
3915.83	0.0003112
3925.47	0.0002987
3935.12	0.00042722
3944.76	6.7e-05
3954.41	0.000183
3964.05	0.000177
3973.69	0.00041412
3983.34	0.0003062
3992.98	0.0003281
