Infrared Spectrum: 2-HEXANOL, 2-METHYL-3,3,4,4,5,5,6,6-OCTAFLUORO-
Formula: C7 H8 F8 O
CAS: 2673-15-6
State: LIQUID (NEAT)
Boiling point: 153 C AT 760 mmHg
Class: COBLENTZ III
Instrument: DOW KBr FOREPRISM-GRATING
Instrument parameters: BLAZED AT 3.5, 12.0, 20.0 MICRON AND CHANGED AT 5.0, 7.5, 14.9 MICRON
Sampling: TRANSMISSION
Path length: CAPILLARY
Resolution: 2
Origin: DOW CHEMICAL COMPANY
1/CM	TRANSMITTANCE
457	0.704
466	0.7065
475	0.7078
484	0.708
493	0.7071
502	0.6993
511	0.6825
520	0.6684
529	0.6638
538	0.598
547	0.5187
556	0.5394
565	0.656
574	0.6775
583	0.6601
592	0.6948
601	0.6854
610	0.7025
619	0.7182
628	0.7371
637	0.6819
646	0.6883
655	0.7638
664	0.7798
673	0.8053
682	0.8033
691	0.7855
700	0.7697
709	0.8193
718	0.8007
727	0.8351
736	0.8346
745	0.8285
754	0.7938
763	0.4735
772	0.4551
781	0.6286
790	0.4298
799	0.561
808	0.5967
817	0.7719
826	0.7511
835	0.5609
844	0.6668
853	0.6471
862	0.7901
871	0.79
880	0.6695
889	0.6188
898	0.6736
907	0.5138
916	0.7312
925	0.7862
934	0.7071
943	0.5872
952	0.7599
961	0.7756
970	0.6448
979	0.5637
988	0.7001
997	0.7691
1006	0.6732
1015	0.793
1024	0.7745
1033	0.6762
1042	0.4362
1051	0.507
1060	0.6314
1069	0.5836
1078	0.6347
1087	0.5392
1096	0.3076
1105	0.1696
1114	0.1001
1123	0.0868
1132	0.083
1141	0.1289
1150	0.1729
1159	0.1202
1168	0.0475
1177	0.0556
1186	0.104
1195	0.1866
1204	0.2445
1213	0.3163
1222	0.3568
1231	0.3812
1240	0.5099
1249	0.5425
1258	0.4986
1267	0.5587
1276	0.6227
1285	0.6401
1294	0.6635
1303	0.6855
1312	0.7158
1321	0.76
1330	0.7762
1339	0.7569
1348	0.6537
1357	0.6125
1366	0.63
1375	0.6212
1384	0.536
1393	0.5864
1402	0.5444
1411	0.6029
1420	0.718
1429	0.7732
1438	0.7828
1447	0.7553
1456	0.7455
1465	0.7108
1474	0.6507
1483	0.6968
1492	0.7853
1501	0.8236
1510	0.8336
1519	0.8363
1528	0.8399
1537	0.8435
1546	0.8447
1555	0.846
1564	0.8481
1573	0.8482
1582	0.8483
1591	0.848
1600	0.8467
1609	0.8436
1618	0.838
1627	0.834
1636	0.8342
1645	0.8363
1654	0.8378
1663	0.838
1672	0.8378
1681	0.8389
1690	0.8401
1699	0.8402
1708	0.8404
1717	0.8421
1726	0.8487
1735	0.8505
1744	0.8495
1753	0.8475
1762	0.8456
1771	0.8444
1780	0.8471
1789	0.8498
1798	0.85
1807	0.85
1816	0.8506
1825	0.8513
1834	0.8521
1843	0.853
1852	0.8531
1861	0.8528
1870	0.8525
1879	0.8536
1888	0.8545
1897	0.8553
1906	0.856
1915	0.8567
1924	0.8564
1933	0.8553
1942	0.8551
1951	0.8543
1960	0.8578
1969	0.8616
1978	0.8598
1987	0.8595
1996	0.8778
2005	0.8868
2014	0.8878
2023	0.8886
2032	0.889
2041	0.8891
2050	0.8895
2059	0.89
2068	0.8903
2077	0.8904
2086	0.8906
2095	0.8906
2104	0.89
2113	0.8893
2122	0.8887
2131	0.888
2140	0.8875
2149	0.8873
2158	0.887
2167	0.8864
2176	0.8857
2185	0.8851
2194	0.8841
2203	0.8828
2212	0.8815
2221	0.8801
2230	0.8785
2239	0.8768
2248	0.8762
2257	0.8773
2266	0.8785
2275	0.8809
2284	0.8814
2293	0.8805
2302	0.8791
2311	0.8838
2320	0.8886
2329	0.8885
2338	0.8866
2347	0.8836
2356	0.8807
2365	0.8778
2374	0.8767
2383	0.8757
2392	0.8748
2401	0.8739
2410	0.8731
2419	0.8723
2428	0.8715
2437	0.8707
2446	0.8699
2455	0.869
2464	0.8682
2473	0.8673
2482	0.8671
2491	0.8673
2500	0.8675
2509	0.8677
2518	0.868
2527	0.8682
2536	0.8684
2545	0.8686
2554	0.8688
2563	0.8691
2572	0.8695
2581	0.8698
2590	0.8699
2599	0.8696
2608	0.8693
2617	0.8689
2626	0.868
2635	0.8663
2644	0.8646
2653	0.8628
2662	0.8612
2671	0.8598
2680	0.8587
2689	0.8574
2698	0.8563
2707	0.8551
2716	0.854
2725	0.8531
2734	0.8521
2743	0.8513
2752	0.8502
2761	0.8487
2770	0.8473
2779	0.8464
2788	0.8456
2797	0.8434
2806	0.8409
2815	0.8385
2824	0.833
2833	0.8233
2842	0.8065
2851	0.7884
2860	0.7768
2869	0.7925
2878	0.791
2887	0.7831
2896	0.7684
2905	0.7526
2914	0.7326
2923	0.6994
2932	0.7087
2941	0.7283
2950	0.7165
2959	0.7084
2968	0.7364
2977	0.7654
2986	0.7569
2995	0.7075
3004	0.64
3013	0.6448
3022	0.6818
3031	0.7443
3040	0.7844
3049	0.7985
3058	0.8028
3067	0.8017
3076	0.8001
3085	0.7975
3094	0.7954
3103	0.7938
3112	0.7922
3121	0.7907
3130	0.7891
3139	0.7876
3148	0.7864
3157	0.785
3166	0.7837
3175	0.7818
3184	0.7801
3193	0.7782
3202	0.7757
3211	0.7731
3220	0.7701
3229	0.7661
3238	0.7621
3247	0.7582
3256	0.7531
3265	0.748
3274	0.7422
3283	0.7336
3292	0.7248
3301	0.715
3310	0.7051
3319	0.6939
3328	0.6815
3337	0.6688
3346	0.6546
3355	0.6405
3364	0.6265
3373	0.6124
3382	0.6003
3391	0.5884
3400	0.5775
3409	0.5673
3418	0.5584
3427	0.551
3436	0.5476
3445	0.5466
3454	0.5481
3463	0.5523
3472	0.5599
3481	0.5696
3490	0.5841
3499	0.603
3508	0.6242
3517	0.6428
3526	0.6607
3535	0.6818
3544	0.7058
3553	0.7225
3562	0.7401
3571	0.7617
3580	0.7621
3589	0.7542
3598	0.7215
3607	0.6782
3616	0.6971
3625	0.7281
3634	0.7649
3643	0.8017
3652	0.8071
3661	0.8071
3670	0.8071
3679	0.8104
3688	0.818
3697	0.8249
3706	0.8294
3715	0.8312
3724	0.8317
3733	0.832
3742	0.8318
3751	0.8318
3760	0.8314
3769	0.8305
3778	0.8289
3787	0.8178
