Infrared Spectrum: P-PHENYLAZO CARBANILIC ACID, n-BUTYL ESTER
Formula: C17 H19 N3 O2
CAS: 2678-88-8
State: SOLID (1.7 mg / 200 mg KBr)
Melting point: 129-130 C
Class: COBLENTZ
Instrument: Not specified, most likely a grating spectrometer.
Sampling: TRANSMISSION
Resolution: 4
Origin: CITRUS EXPERIMENT STATION, UNIVERSITY OF FLORIDA (G. EDWARDS)
MICROMETERS	TRANSMITTANCE
2.033	0.707
2.06614	0.709
2.09929	0.724
2.13243	0.731
2.16557	0.732
2.19872	0.731
2.23186	0.733
2.26501	0.732
2.29815	0.748
2.33129	0.749
2.36444	0.753
2.39758	0.757
2.43072	0.762
2.46387	0.764
2.49701	0.768
2.53016	0.774
2.5633	0.78
2.59644	0.774
2.62959	0.778
2.66273	0.778
2.69587	0.774
2.72902	0.777
2.76216	0.778
2.79531	0.772
2.82845	0.766
2.86159	0.764
2.89474	0.754
2.92788	0.723
2.96102	0.411
2.99417	0.47
3.02731	0.673
3.06045	0.756
3.0936	0.784
3.12674	0.794
3.15989	0.797
3.19303	0.778
3.22617	0.754
3.25932	0.758
3.29246	0.78
3.3256	0.758
3.35875	0.577
3.39189	0.637
3.42504	0.7
3.45818	0.679
3.49132	0.778
3.52447	0.806
3.55761	0.806
3.59075	0.804
3.6239	0.821
3.65704	0.828
3.69018	0.829
3.72333	0.832
3.75647	0.833
3.78962	0.83
3.82276	0.832
3.8559	0.834
3.88905	0.842
3.92219	0.85
3.95533	0.853
3.98848	0.854
4.02162	0.856
4.05477	0.858
4.08791	0.86
4.12105	0.862
4.1542	0.861
4.18734	0.854
4.22048	0.861
4.25363	0.872
4.28677	0.872
4.31992	0.872
4.35306	0.873
4.3862	0.878
4.41935	0.878
4.45249	0.872
4.48563	0.884
4.51878	0.892
4.55192	0.901
4.58506	0.901
4.61821	0.902
4.65135	0.906
4.6845	0.906
4.71764	0.905
4.75078	0.906
4.78393	0.908
4.81707	0.909
4.85021	0.909
4.88336	0.909
4.9165	0.91
4.94965	0.912
4.98279	0.912
5.01593	0.906
5.04908	0.904
5.08222	0.906
5.11536	0.906
5.14851	0.906
5.18165	0.909
5.21479	0.91
5.24794	0.914
5.28108	0.92
5.31423	0.917
5.34737	0.929
5.38051	0.921
5.41366	0.92
5.4468	0.912
5.47994	0.905
5.51309	0.904
5.54623	0.905
5.57938	0.906
5.61252	0.901
5.64566	0.889
5.67881	0.85
5.71195	0.802
5.74509	0.72
5.77824	0.649
5.81138	0.255
5.84453	0.177
5.87767	0.464
5.91081	0.625
5.94396	0.699
5.9771	0.78
6.01024	0.844
6.04339	0.878
6.07653	0.886
6.10967	0.868
6.14282	0.78
6.17596	0.595
6.20911	0.241
6.24225	0.331
6.27539	0.592
6.30854	0.74
6.34168	0.772
6.37482	0.649
6.40797	0.332
6.44111	0.195
6.47426	0.181
6.5074	0.238
6.54054	0.491
6.57369	0.591
6.60683	0.613
6.63997	0.628
6.67312	0.72
6.70626	0.749
6.7394	0.725
6.77255	0.665
6.80569	0.615
6.83884	0.669
6.87198	0.75
6.90512	0.743
6.93827	0.517
6.97141	0.612
7.00455	0.744
7.0377	0.601
7.07084	0.528
7.10399	0.704
7.13713	0.786
7.17027	0.782
7.20342	0.764
7.23656	0.705
7.2697	0.79
7.30285	0.82
7.33599	0.834
7.36914	0.832
7.40228	0.826
7.43542	0.785
7.46857	0.723
7.50171	0.56
7.53485	0.508
7.568	0.475
7.60114	0.436
7.63428	0.498
7.66743	0.535
7.70057	0.692
7.73372	0.785
7.76686	0.81
7.8	0.776
7.83315	0.691
7.86629	0.581
7.89943	0.704
7.93258	0.655
7.96572	0.571
7.99887	0.466
8.03201	0.255
8.06515	0.262
8.0983	0.223
8.13144	0.078
8.16458	0.078
8.19773	0.175
8.23087	0.38
8.26401	0.528
8.29716	0.599
8.3303	0.691
8.36345	0.733
8.39659	0.75
8.42973	0.772
8.46288	0.802
8.49602	0.824
8.52916	0.82
8.56231	0.784
8.59545	0.608
8.6286	0.422
8.66174	0.434
8.69488	0.532
8.72803	0.661
8.76117	0.692
8.79431	0.773
8.82746	0.761
8.8606	0.774
8.89375	0.805
8.92689	0.81
8.96003	0.786
8.99318	0.809
9.02632	0.778
9.05946	0.821
9.09261	0.861
9.12575	0.872
9.15889	0.866
9.19204	0.861
9.22518	0.84
9.25833	0.764
9.29147	0.651
9.32461	0.487
9.35776	0.382
9.3909	0.36
9.42404	0.415
9.45719	0.403
9.49033	0.486
9.52348	0.676
9.55662	0.762
9.58976	0.786
9.62291	0.821
9.65605	0.841
9.68919	0.857
9.72234	0.873
9.75548	0.869
9.78862	0.814
9.82177	0.797
9.85491	0.857
9.88806	0.85
9.9212	0.853
9.95434	0.884
9.98749	0.885
10.0206	0.898
10.0538	0.906
10.0869	0.914
10.1201	0.906
10.1532	0.894
10.1863	0.873
10.2195	0.816
10.2526	0.806
10.2858	0.84
10.3189	0.874
10.3521	0.892
10.3852	0.902
10.4184	0.91
10.4515	0.91
10.4846	0.914
10.5178	0.909
10.5509	0.921
10.5841	0.922
10.6172	0.921
10.6504	0.928
10.6835	0.929
10.7166	0.922
10.7498	0.912
10.7829	0.909
10.8161	0.914
10.8492	0.908
10.8824	0.874
10.9155	0.87
10.9487	0.893
10.9818	0.914
11.0149	0.92
11.0481	0.914
11.0812	0.916
11.1144	0.918
11.1475	0.917
11.1807	0.929
11.2138	0.932
11.2469	0.937
11.2801	0.938
11.3132	0.937
11.3464	0.941
11.3795	0.941
11.4127	0.938
11.4458	0.937
11.479	0.932
11.5121	0.93
11.5452	0.928
11.5784	0.9
11.6115	0.849
11.6447	0.801
11.6778	0.794
11.711	0.781
11.7441	0.74
11.7772	0.691
11.8104	0.631
11.8435	0.58
11.8767	0.573
11.9098	0.655
11.943	0.744
11.9761	0.79
12.0093	0.784
12.0424	0.793
12.0755	0.82
12.1087	0.849
12.1418	0.878
12.175	0.905
12.2081	0.914
12.2413	0.922
12.2744	0.922
12.3075	0.918
12.3407	0.91
12.3738	0.898
12.407	0.884
12.4401	0.894
12.4733	0.912
12.5064	0.925
12.5396	0.93
12.5727	0.933
12.6058	0.933
12.639	0.932
12.6721	0.926
12.7053	0.934
12.7384	0.932
12.7716	0.93
12.8047	0.928
12.8378	0.917
12.871	0.912
12.9041	0.878
12.9373	0.842
12.9704	0.78
13.0036	0.719
13.0367	0.608
13.0699	0.547
13.103	0.508
13.1361	0.539
13.1693	0.663
13.2024	0.778
13.2356	0.793
13.2687	0.774
13.3019	0.76
13.335	0.77
13.3681	0.817
13.4013	0.858
13.4344	0.864
13.4676	0.853
13.5007	0.837
13.5339	0.837
13.567	0.886
13.6001	0.912
13.6333	0.929
13.6664	0.93
13.6996	0.945
13.7327	0.948
13.7659	0.945
13.799	0.93
13.8322	0.916
13.8653	0.901
13.8984	0.89
13.9316	0.864
13.9647	0.853
13.9979	0.872
14.031	0.914
14.0642	0.921
14.0973	0.924
14.1304	0.933
14.1636	0.932
14.1967	0.933
14.2299	0.921
14.263	0.916
14.2962	0.905
14.3293	0.882
14.3625	0.881
14.3956	0.869
14.4287	0.838
14.4619	0.79
14.495	0.735
14.5282	0.624
14.5613	0.552
14.5945	0.521
14.6276	0.537
14.6607	0.591
14.6939	0.641
14.727	0.696
14.7602	0.739
14.7933	0.769
14.8265	0.769
14.8596	0.764
14.8928	0.753
14.9259	0.736
14.959	0.711
14.9922	0.735
