Infrared Spectrum: 1,3-Dinitro-2,4,5-trichlorobenzene
Formula: C 6 H Cl 3 N 2 O 4
CAS: 2678-21-9
State: gas
Origin: EPA-IR VAPOR PHASE LIBRARY
1/CM	ABSORBANCE
549.9	0.01738
559.547	0.00904
569.193	0.00806
578.84	0.01305
588.486	0.02824
598.133	0.03822
607.779	0.02115
617.426	0.01347
627.072	0.01588
636.719	0.0192
646.365	0.01644
656.012	0.01611
665.658	0.0186
675.305	0.01578
684.951	0.01421
694.598	0.01178
704.245	0.00831
713.891	0.01569
723.538	0.0577
733.184	0.04996
742.831	0.02971
752.477	0.03965
762.124	0.03745
771.77	0.04011
781.417	0.01423
791.063	0.00687
800.71	0.00581
810.356	0.00649
820.003	0.00701
829.649	0.00498
839.296	0.00442
848.943	0.00438
858.589	0.00518
868.236	0.00749
877.882	0.01674
887.529	0.02876
897.175	0.01491
906.822	0.01029
916.468	0.0168
926.115	0.04327
935.761	0.06359
945.408	0.02459
955.054	0.00695
964.701	0.0037
974.347	0.0028199
983.994	0.002388
993.64	0.00234
1003.29	0.00237
1012.93	0.002625
1022.58	0.0029182
1032.23	0.0034186
1041.87	0.00387
1051.52	0.00366
1061.17	0.0032512
1070.81	0.00356
1080.46	0.00434
1090.11	0.00699
1099.75	0.02139
1109.4	0.04989
1119.05	0.03724
1128.69	0.01103
1138.34	0.00771
1147.99	0.00709
1157.63	0.01101
1167.28	0.02594
1176.92	0.02843
1186.57	0.02626
1196.22	0.02405
1205.86	0.01712
1215.51	0.01027
1225.16	0.00905
1234.8	0.01193
1244.45	0.02039
1254.1	0.01779
1263.74	0.01037
1273.39	0.01125
1283.04	0.01357
1292.68	0.01626
1302.33	0.02307
1311.98	0.0438
1321.62	0.11628
1331.27	0.2406
1340.92	0.19577
1350.56	0.15911
1360.21	0.12377
1369.86	0.07582
1379.5	0.0482
1389.15	0.03245
1398.79	0.0372
1408.44	0.05888
1418.09	0.1028
1427.73	0.10228
1437.38	0.04004
1447.03	0.01976
1456.67	0.01358
1466.32	0.01165
1475.97	0.01241
1485.61	0.0156
1495.26	0.02426
1504.91	0.03755
1514.55	0.04823
1524.2	0.0624
1533.85	0.08712
1543.49	0.12097
1553.14	0.18665
1562.79	0.3634
1572.43	0.52417
1582.08	0.28085
1591.73	0.09994
1601.37	0.05508
1611.02	0.03078
1620.67	0.02753
1630.31	0.02748
1639.96	0.01828
1649.6	0.01061
1659.25	0.00621
1668.9	0.00458
1678.54	0.00409
1688.19	0.00383
1697.84	0.003193
1707.48	0.0028662
1717.13	0.0026464
1726.78	0.0026139
1736.42	0.0026227
1746.07	0.0030777
1755.72	0.0042
1765.36	0.00551
1775.01	0.0051
1784.66	0.0031359
1794.3	0.002229
1803.95	0.001936
1813.6	0.001856
1823.24	0.001854
1832.89	0.001894
1842.54	0.001878
1852.18	0.00194
1861.83	0.001892
1871.47	0.001775
1881.12	0.001665
1890.77	0.001648
1900.41	0.001709
1910.06	0.001707
1919.71	0.001718
1929.35	0.001775
1939	0.001731
1948.65	0.001776
1958.29	0.001931
1967.94	0.001851
1977.59	0.001738
1987.23	0.001599
1996.88	0.00165
2006.53	0.001653
2016.17	0.00149
2025.82	0.00142
2035.47	0.00134
2045.11	0.00131
2054.76	0.0013
2064.41	0.00128
2074.05	0.00137
2083.7	0.00134
2093.35	0.00131
2102.99	0.00128
2112.64	0.00127
2122.28	0.00124
2131.93	0.00123
2141.58	0.00122
2151.22	0.00125
2160.87	0.00126
2170.52	0.00128
2180.16	0.00131
2189.81	0.00128
2199.46	0.00126
2209.1	0.00112
2218.75	0.00105
2228.4	0.00109
2238.04	0.00108
2247.69	0.00113
2257.34	0.0011
2266.98	0.00115
2276.63	0.0012
2286.28	0.00127
2295.92	0.00132
2305.57	0.00135
2315.22	0.00144
2324.86	0.00149
2334.51	0.00147
2344.16	0.00143
2353.8	0.00137
2363.45	0.00125
2373.09	0.00131
2382.74	0.00132
2392.39	0.00123
2402.03	0.0011
2411.68	0.00106
2421.33	0.001
2430.97	0.00093
2440.62	0.00107
2450.27	0.00122
2459.91	0.001618
2469.56	0.001844
2479.21	0.001809
2488.85	0.001844
2498.5	0.002026
2508.15	0.001875
2517.79	0.00143
2527.44	0.00119
2537.09	0.00111
2546.73	0.00109
2556.38	0.00112
2566.03	0.00114
2575.67	0.00111
2585.32	0.00124
2594.96	0.00122
2604.61	0.00117
2614.26	0.00127
2623.9	0.0013
2633.55	0.00129
2643.2	0.00152
2652.84	0.001991
2662.49	0.0028877
2672.14	0.00375
2681.78	0.00435
2691.43	0.00392
2701.08	0.0033978
2710.72	0.0030149
2720.37	0.0026867
2730.02	0.002341
2739.66	0.002036
2749.31	0.001882
2758.96	0.001806
2768.6	0.001988
2778.25	0.002076
2787.9	0.002085
2797.54	0.001684
2807.19	0.00144
2816.84	0.00142
2826.48	0.001697
2836.13	0.001739
2845.77	0.001994
2855.42	0.002391
2865.07	0.0031064
2874.71	0.00436
2884.36	0.00613
2894.01	0.00785
2903.65	0.00759
2913.3	0.00621
2922.95	0.00527
2932.59	0.00454
2942.24	0.0034428
2951.89	0.00222
2961.53	0.00109
2971.18	0.00075
2980.83	0.00043
2990.47	0.00042
3000.12	0.00034
3009.77	0.0002
3019.41	9e-05
3029.06	4e-05
3038.71	5e-05
3048.35	0.00033
3058	0.00048
3067.64	0.00127
3077.29	0.00388
3086.94	0.01102
3096.58	0.00976
3106.23	0.0026764
3115.88	0.00148
3125.52	0.0014
3135.17	0.00124
3144.82	0.00085
3154.46	0.00072
3164.11	0.00032
3173.76	0.00038
3183.4	0.00033
3193.05	0.00017
3202.7	0.00026
3212.34	0.00022
3221.99	0.00013
3231.64	0.00029
3241.28	0.00047
3250.93	0.0004
3260.58	0.00042
3270.22	0.00069
3279.87	0.00042
3289.52	0.00066
3299.16	0.00072
3308.81	0.00056
3318.45	0.00061
3328.1	0.00077
3337.75	0.00096
3347.39	0.00095
3357.04	0.00094
3366.69	0.00109
3376.33	0.00089
3385.98	0.00101
3395.63	0.0013
3405.27	0.00108
3414.92	0.00122
3424.57	0.00136
3434.21	0.00133
3443.86	0.0014
3453.51	0.00138
3463.15	0.00141
3472.8	0.0014
3482.45	0.00146
3492.09	0.00144
3501.74	0.001543
3511.39	0.001538
3521.03	0.001641
3530.68	0.001575
3540.33	0.001574
3549.97	0.00148
3559.62	0.001655
3569.26	0.001677
3578.91	0.001715
3588.56	0.001788
3598.2	0.001621
3607.85	0.001788
3617.5	0.001756
3627.14	0.001696
3636.79	0.001691
3646.44	0.001791
3656.08	0.001697
3665.73	0.001597
3675.38	0.00172
3685.02	0.001683
3694.67	0.001808
3704.32	0.001802
3713.96	0.001609
3723.61	0.001763
3733.26	0.001687
3742.9	0.001841
3752.55	0.001917
3762.2	0.001772
3771.84	0.001647
3781.49	0.001692
3791.13	0.001734
3800.78	0.001887
3810.43	0.001885
3820.07	0.001775
3829.72	0.001746
3839.37	0.001791
3849.01	0.001572
3858.66	0.001701
3868.31	0.001607
3877.95	0.001644
3887.6	0.001607
3897.25	0.001611
3906.89	0.001647
3916.54	0.00142
3926.19	0.0016
3935.83	0.001591
3945.48	0.001624
3955.13	0.001608
3964.77	0.001733
3974.42	0.001636
3984.07	0.00166
3993.71	0.00157
