Infrared Spectrum: N,N-Dimethylacrylamide
Formula: C 5 H 9 N O
CAS: 2680-03-7
State: gas
Origin: EPA-IR VAPOR PHASE LIBRARY
1/CM	ABSORBANCE
549.8	0.0012247
559.445	0.0013847
569.09	0.0011347
578.734	0.0009935
588.379	0.0016247
598.024	0.0018747
607.669	0.0019747
617.313	0.0014147
626.958	0.0007332
636.603	0.0004959
646.248	0.0004283
655.893	0.0004553
665.537	0.0004215
675.182	0.0002643
684.827	0.0003287
694.472	0.0004601
704.116	0.0006015
713.761	0.00016103
723.406	0.0002059
733.051	0.0004688
742.695	0.0005784
752.34	0.0009505
761.985	0.0015547
771.63	0.0028947
781.275	0.0040347
790.919	0.0065447
800.564	0.0038947
810.209	0.0023047
819.854	0.0010302
829.498	0.0003975
839.143	0.0007672
848.788	0.0005455
858.433	0.0008187
868.078	0.00071
877.722	0.0007896
887.367	0.0011147
897.012	0.0017947
906.657	0.0023447
916.301	0.0030747
925.946	0.0037147
935.591	0.0049347
945.236	0.0062647
954.88	0.0089847
964.525	0.0099647
974.17	0.0117647
983.815	0.0093647
993.46	0.0068647
1003.1	0.0054847
1012.75	0.0044847
1022.39	0.0048947
1032.04	0.0062247
1041.68	0.0081247
1051.33	0.0086047
1060.97	0.0077547
1070.62	0.0064447
1080.26	0.0054447
1089.91	0.0060247
1099.55	0.0084647
1109.2	0.0123647
1118.84	0.0173947
1128.49	0.0241047
1138.13	0.0282147
1147.78	0.0272747
1157.42	0.0226847
1167.07	0.0167447
1176.71	0.0127847
1186.36	0.0088547
1196	0.0065747
1205.64	0.0048847
1215.29	0.0041747
1224.93	0.0046647
1234.58	0.0055947
1244.22	0.0081147
1253.87	0.0116247
1263.51	0.0134647
1273.16	0.0122947
1282.8	0.0085447
1292.45	0.0062747
1302.09	0.0058147
1311.74	0.0057847
1321.38	0.0062647
1331.03	0.0080247
1340.67	0.0115847
1350.32	0.0173847
1359.96	0.0241347
1369.61	0.0267147
1379.25	0.0252547
1388.9	0.0251247
1398.54	0.0334847
1408.18	0.0435447
1417.83	0.0433747
1427.47	0.0325147
1437.12	0.0210547
1446.76	0.0210547
1456.41	0.0237547
1466.05	0.0224747
1475.7	0.0178747
1485.34	0.0145947
1494.99	0.0123247
1504.63	0.0106747
1514.28	0.0094247
1523.92	0.0085347
1533.57	0.0079047
1543.21	0.0076347
1552.86	0.0071047
1562.5	0.0068247
1572.15	0.0065447
1581.79	0.0060247
1591.44	0.0059247
1601.08	0.0068247
1610.73	0.0092847
1620.37	0.0119347
1630.01	0.0137147
1639.66	0.0170047
1649.3	0.0247747
1658.95	0.0481847
1668.59	0.0858247
1678.24	0.0938347
1687.88	0.0905547
1697.53	0.0433647
1707.17	0.0160047
1716.82	0.0072047
1726.46	0.0045147
1736.11	0.0031947
1745.75	0.0024847
1755.4	0.0020247
1765.04	0.0017047
1774.69	0.0015647
1784.33	0.0013447
1793.98	0.0011047
1803.62	0.0009381
1813.27	0.0007878
1822.91	0.000745
1832.55	0.0007782
1842.2	0.0007103
1851.84	0.0006651
1861.49	0.0007479
1871.13	0.0009052
1880.78	0.001029
1890.42	0.0012247
1900.07	0.0014747
1909.71	0.0016147
1919.36	0.0016247
1929	0.0014947
1938.65	0.0012047
1948.29	0.00093
1957.94	0.000656
1967.58	0.0007885
1977.23	0.0006806
1986.87	0.0005373
1996.52	0.0005439
2006.16	0.0005726
2015.81	0.0006173
2025.45	0.0005195
2035.1	0.0005645
2044.74	0.0004938
2054.38	0.0006071
2064.03	0.0004646
2073.67	0.0005102
2083.32	0.0004977
2092.96	0.0004805
2102.61	0.0006626
2112.25	0.0005777
2121.9	0.000559
2131.54	0.0004892
2141.19	0.0004131
2150.83	0.0004329
2160.48	0.0004629
2170.12	0.0004762
2179.77	0.0005755
2189.41	0.0004675
2199.06	0.0005341
2208.7	0.0006207
2218.35	0.0006018
2227.99	0.0003767
2237.64	0.0003801
2247.28	0.0003985
2256.92	0.0004512
2266.57	0.0004694
2276.21	0.0003482
2285.86	0.0003753
2295.5	0.00037
2305.15	0.0004072
2314.79	0.0003773
2324.44	0.0003348
2334.08	0.0003773
2343.73	0.0004388
2353.37	0.0004603
2363.02	0.0004536
2372.66	0.0003975
2382.31	0.0003323
2391.95	0.000422
2401.6	0.0004228
2411.24	0.0004874
2420.89	0.0004584
2430.53	0.0005646
2440.18	0.0005261
2449.82	0.0005859
2459.47	0.0004478
2469.11	0.0004358
2478.75	0.00043
2488.4	0.0003742
2498.04	0.000415
2507.69	0.0005059
2517.33	0.0005005
2526.98	0.0003196
2536.62	0.0005029
2546.27	0.0003888
2555.91	0.0004402
2565.56	0.0006253
2575.2	0.0004368
2584.85	0.0005179
2594.49	0.0006457
2604.14	0.000669
2613.78	0.0004851
2623.43	0.0005588
2633.07	0.0005432
2642.72	0.0005549
2652.36	0.0005334
2662.01	0.0005719
2671.65	0.0006335
2681.29	0.0006968
2690.94	0.0006958
2700.58	0.0008669
2710.23	0.000768
2719.87	0.0008809
2729.52	0.0011847
2739.16	0.001059
2748.81	0.0011247
2758.45	0.0012147
2768.1	0.0014647
2777.74	0.0018247
2787.39	0.0025847
2797.03	0.0034447
2806.68	0.0043847
2816.32	0.0053547
2825.97	0.0059447
2835.61	0.0064647
2845.26	0.0071147
2854.9	0.0086047
2864.55	0.0102847
2874.19	0.0115247
2883.84	0.0130147
2893.48	0.0145347
2903.12	0.0164847
2912.77	0.0194247
2922.41	0.0225047
2932.06	0.0243547
2941.7	0.0232547
2951.35	0.0191447
2960.99	0.0139947
2970.64	0.0100547
2980.28	0.0079347
2989.93	0.0068347
2999.57	0.0064447
3009.22	0.0066347
3018.86	0.0073747
3028.51	0.0080047
3038.15	0.0079747
3047.8	0.0070347
3057.44	0.0056647
3067.09	0.0046547
3076.73	0.0042347
3086.38	0.0040547
3096.02	0.0041347
3105.67	0.0035647
3115.31	0.0028847
3124.95	0.0017647
3134.6	0.0014047
3144.24	0.0008911
3153.89	0.0010255
3163.53	0.0009337
3173.18	0.0007386
3182.82	0.0006412
3192.47	0.0006798
3202.11	0.0004494
3211.76	0.00037
3221.4	0.0003792
3231.05	0.0007599
3240.69	0.0005299
3250.34	0.0004028
3259.98	0.0005575
3269.63	0.0005987
3279.27	0.0005899
3288.92	0.0004428
3298.56	0.0006825
3308.21	0.0009562
3317.85	0.0009685
3327.49	0.0009873
3337.14	0.0011647
3346.78	0.0011747
3356.43	0.0010696
3366.07	0.0008133
3375.72	0.0002935
3385.36	0.0002677
3395.01	0.000281
3404.65	0.00012458
3414.3	0.0003031
3423.94	0.0003755
3433.59	0.0001787
3443.23	0.0003293
3452.88	0.0002272
3462.52	0.00015969
3472.17	0.0003529
3481.81	0.000334
3491.46	4.75e-05
3501.1	0.0004316
3510.75	0.0002473
3520.39	0.0004305
3530.04	0.0003321
3539.68	0.0003028
3549.32	0.0003191
3558.97	0.0002776
3568.61	0.0002375
3578.26	0.0002424
3587.9	0.0002745
3597.55	0.0003776
3607.19	0.0004602
3616.84	0.0002625
3626.48	0.0003275
3636.13	0.00012523
3645.77	0.0004479
3655.42	0.0002594
3665.06	0.0002969
3674.71	0.0003419
3684.35	0.0002939
3694	0.0002486
3703.64	0.0002184
3713.29	0.0003454
3722.93	0.00012624
3732.58	0.0002308
3742.22	0.000284
3751.86	0.000405
3761.51	0.000284
3771.15	0.000234
3780.8	0.00015967
3790.44	0
3800.09	0.0003149
3809.73	0.0002636
3819.38	0.0004005
3829.02	3.51e-05
3838.67	0.0002543
3848.31	0.0002369
3857.96	0.0003018
3867.6	0.00010132
3877.25	0.0002345
3886.89	0.0004603
3896.54	0.0002443
3906.18	0.0004577
3915.83	0.0003275
3925.47	0.0005167
3935.12	0.000199
3944.76	0.00015341
3954.41	0.0003127
3964.05	0.0004326
3973.69	0.0005571
3983.34	0.0005411
3992.98	0.0006125
