Infrared Spectrum: 1-Chloro-4-decyne
Formula: C 10 H 17 Cl
CAS: 26817-65-2
State: gas
Instrument: HP-GC/MS/IRD
Origin: NIST Mass Spectrometry Data Center
1/CM	ABSORBANCE
550	0.001155
562	0.000336
574	0.0001645
586	0.000266
598	9.8e-05
610	0.000182
622	0.0002625
634	0.000609
646	0.001148
658	0.002009
670	0.0018165
682	0.00112
694	0.000987
706	0.0010675
718	0.0015085
730	0.00238
742	0.002296
754	0.001463
766	0.001288
778	0.00112
790	0.0008995
802	0.0008295
814	0.0007105
826	0.000504
838	0.0006685
850	0.001057
862	0.0011305
874	0.000497
886	0.0002205
898	0.0002135
910	0.000224
922	0.0002275
934	0.000252
946	0.000322
958	0.000532
970	0.0009695
982	0.0009345
994	0.0006965
1006	0.0004165
1018	0.000252
1030	0.0002065
1042	0.0002555
1054	0.0003185
1066	0.000266
1078	0.0001715
1090	0.000189
1102	0.000273
1114	0.0002275
1126	0.0001085
1138	0.0001155
1150	0.000168
1162	0.0001995
1174	0.00014
1186	0.0002835
1198	0.000322
1210	0.000399
1222	0.0004795
1234	0.0006895
1246	0.0007595
1258	0.0013405
1270	0.0026425
1282	0.0042035
1294	0.0053305
1306	0.0034895
1318	0.0033845
1330	0.004816
1342	0.003948
1354	0.003318
1366	0.001918
1378	0.001323
1390	0.00119
1402	0.000868
1414	0.0011445
1426	0.0023835
1438	0.0050995
1450	0.0052885
1462	0.00406
1474	0.002555
1486	0.0012495
1498	0.000763
1510	0.0005775
1522	0.00049
1534	0.0003185
1546	0.000266
1558	0.0003395
1570	0.0001995
1582	0.0001505
1594	0.000126
1606	0.0001015
1618	0.0001365
1630	8.75e-05
1642	8.75e-05
1654	0.0001855
1666	6.65e-05
1678	0.0001085
1690	6.65e-05
1702	0.0001575
1714	0.000119
1726	3.15e-05
1738	5.95e-05
1750	8.75e-05
1762	2.8e-05
1774	3.15e-05
1786	4.2e-05
1798	4.55e-05
1810	4.2e-05
1822	3.15e-05
1834	4.2e-05
1846	7e-05
1858	3.15e-05
1870	4.9e-05
1882	2.45e-05
1894	3.5e-05
1906	4.2e-05
1918	2.45e-05
1930	3.5e-05
1942	5.25e-05
1954	2.8e-05
1966	5.25e-05
1978	4.55e-05
1990	3.85e-05
2002	3.15e-05
2014	6.65e-05
2026	8.05e-05
2038	8.4e-05
2050	0.000105
2062	0.0001085
2074	9.1e-05
2086	9.1e-05
2098	0.0001015
2110	9.45e-05
2122	7.7e-05
2134	8.05e-05
2146	9.1e-05
2158	0.000105
2170	0.000112
2182	0.00014
2194	0.0001225
2206	0.000154
2218	0.000161
2230	0.0001645
2242	0.0001295
2254	0.000126
2266	0.000126
2278	0.0001365
2290	0.0001435
2302	0.000133
2314	0.0001435
2326	0.000126
2338	7.35e-05
2350	9.45e-05
2362	8.4e-05
2374	0.000126
2386	0.0001435
2398	0.0001365
2410	0.00014
2422	0.0001435
2434	0.0001295
2446	0.0001015
2458	0.0001295
2470	0.0001295
2482	0.000133
2494	0.0001295
2506	7.7e-05
2518	0.0001015
2530	0.0001085
2542	0.000154
2554	0.0001575
2566	0.000168
2578	0.0002135
2590	0.0002065
2602	0.000224
2614	0.000245
2626	0.00028
2638	0.0003045
2650	0.0003815
2662	0.0004165
2674	0.000406
2686	0.000406
2698	0.0003745
2710	0.0003605
2722	0.000427
2734	0.000518
2746	0.000539
2758	0.00056
2770	0.000595
2782	0.000721
2794	0.0008995
2806	0.001162
2818	0.001491
2830	0.0023065
2842	0.00427
2854	0.0082075
2866	0.0115885
2878	0.011718
2890	0.0103495
2902	0.0109935
2914	0.016961
2926	0.0262045
2938	0.035
2950	0.0297745
2962	0.024297
2974	0.0190295
2986	0.0089915
2998	0.005572
3010	0.003962
3022	0.0020755
3034	0.0014875
3046	0.0010675
3058	0.000826
3070	0.0006965
3082	0.000616
3094	0.0005215
3106	0.0005005
3118	0.000392
3130	0.0003185
3142	0.0003885
3154	0.0003045
3166	0.000336
3178	0.000308
3190	0.0003255
3202	0.000287
3214	0.0001855
3226	0.0001785
3238	0.00014
3250	0.000189
3262	0.000154
3274	0.000147
3286	0.000105
3298	0.0001225
3310	0.0001505
3322	0.0001295
3334	0.0001645
3346	0.000189
3358	0.0001575
3370	0.000154
3382	0.000154
3394	0.000168
3406	9.1e-05
3418	0.0001925
3430	0.000168
3442	0.0002205
3454	0.00014
3466	0.0001295
3478	0.000168
3490	0.000126
3502	0.0001575
3514	0.000112
3526	0.000119
3538	0.0001155
3550	0.000161
3562	9.8e-05
3574	0.0001295
3586	0.0001645
3598	0.0001715
3610	0.0002065
3622	0.000196
3634	0.0001785
3646	0.000203
3658	0.0002135
3670	0.0002275
3682	0.000189
3694	0.00021
3706	0.0002135
3718	0.000175
3730	0.0002345
3742	0.0002555
3754	0.00021
3766	0.0001855
3778	0.0001715
3790	0.000175
3802	0.000189
3814	0.0002345
3826	0.000217
3838	0.0002555
