Infrared Spectrum: Morpholine, 4-(5-nitro-2-pyridyl)-
Formula: C9 H11 N3 O3
CAS: 26820-62-2
State: SOLID (SPLIT MULL), FLUOROLUBE FOR 3800-1330 CM^-^1, NUJOL FOR 1330-400 CM^-^1
Melting point: 143 C
Class: COBLENTZ III
Instrument: DOW FOREPRISM-GRATING
Instrument parameters: BLAZED AT 3.5, 12.0, 20.0 MICRON AND CHANGED AT 5.0, 7.5, 14.9 MICRON
Resolution: 2
Origin: DOW CHEMICAL COMPANY
1/CM	TRANSMITTANCE
386	0.7815
395	0.7813
404	0.7805
413	0.7804
422	0.7885
431	0.8421
440	0.8534
449	0.8558
458	0.8273
467	0.8762
476	0.8767
485	0.8818
494	0.8575
503	0.8134
512	0.8975
521	0.8946
530	0.8839
539	0.8081
548	0.7925
557	0.8903
566	0.7816
575	0.9032
584	0.901
593	0.9069
602	0.9054
611	0.9021
620	0.8983
629	0.8931
638	0.8858
647	0.7158
656	0.5867
665	0.8809
674	0.8984
683	0.9027
692	0.8982
701	0.8923
710	0.8845
719	0.8579
728	0.8061
737	0.8595
746	0.7245
755	0.8377
764	0.8212
773	0.8763
782	0.8865
791	0.8877
800	0.8696
809	0.7861
818	0.2435
827	0.8733
836	0.8784
845	0.8602
854	0.7605
863	0.8776
872	0.8792
881	0.8796
890	0.8779
899	0.87
908	0.863
917	0.8496
926	0.7723
935	0.6626
944	0.2768
953	0.7756
962	0.8322
971	0.8061
980	0.853
989	0.8001
998	0.6987
1007	0.7495
1016	0.8192
1025	0.8082
1034	0.8365
1043	0.7996
1052	0.4722
1061	0.7728
1070	0.6647
1079	0.8003
1088	0.7777
1097	0.7306
1106	0.5685
1115	0.1387
1124	0.4801
1133	0.7798
1142	0.8205
1151	0.8244
1160	0.7705
1169	0.8216
1178	0.7013
1187	0.819
1196	0.8192
1205	0.8041
1214	0.7782
1223	0.7303
1232	0.6904
1241	0.4087
1250	0.3159
1259	0.1559
1268	0.3243
1277	0.6398
1286	0.4767
1295	0.2252
1304	0.3093
1313	0.1663
1322	0.2241
1331	0.2432
1340	0.3016
1349	0.2063
1358	0.5635
1367	0.6768
1376	0.7731
1385	0.7748
1394	0.7764
1403	0.7811
1412	0.7588
1421	0.6828
1430	0.4658
1439	0.649
1448	0.6826
1457	0.5505
1466	0.7681
1475	0.7531
1484	0.6239
1493	0.3559
1502	0.5331
1511	0.3989
1520	0.2806
1529	0.728
1538	0.7844
1547	0.7815
1556	0.7514
1565	0.685
1574	0.4753
1583	0.4844
1592	0.2254
1601	0.0689
1610	0.5096
1619	0.7892
1628	0.8315
1637	0.8669
1646	0.8757
1655	0.8772
1664	0.8777
1673	0.88
1682	0.8818
1691	0.885
1700	0.8886
1709	0.8908
1718	0.8913
1727	0.8889
1736	0.8839
1745	0.8755
1754	0.8776
1763	0.8802
1772	0.8767
1781	0.8754
1790	0.8785
1799	0.8777
1808	0.8746
1817	0.8712
1826	0.8686
1835	0.8669
1844	0.8654
1853	0.8661
1862	0.8652
1871	0.8639
1880	0.8609
1889	0.8569
1898	0.8545
1907	0.8539
1916	0.8544
1925	0.8522
1934	0.8504
1943	0.8495
1952	0.8439
1961	0.8419
1970	0.8465
1979	0.8456
1988	0.8381
1997	0.8388
2006	0.8584
2015	0.86
2024	0.8577
2033	0.854
2042	0.8511
2051	0.8489
2060	0.8487
2069	0.8434
2078	0.8408
2087	0.8386
2096	0.8371
2105	0.8356
2114	0.8337
2123	0.8312
2132	0.8289
2141	0.8267
2150	0.8247
2159	0.8227
2168	0.8206
2177	0.8184
2186	0.8155
2195	0.8125
2204	0.8106
2213	0.8082
2222	0.8057
2231	0.8011
2240	0.7972
2249	0.7933
2258	0.7894
2267	0.7866
2276	0.7841
2285	0.7817
2294	0.7797
2303	0.7774
2312	0.7751
2321	0.7728
2330	0.7704
2339	0.7679
2348	0.7683
2357	0.7703
2366	0.7696
2375	0.7682
2384	0.7666
2393	0.7648
2402	0.7627
2411	0.7606
2420	0.7586
2429	0.7568
2438	0.7552
2447	0.7527
2456	0.751
2465	0.7573
2474	0.7595
2483	0.7587
2492	0.7569
2501	0.7552
2510	0.7538
2519	0.7535
2528	0.7523
2537	0.7484
2546	0.7442
2555	0.7475
2564	0.7498
2573	0.747
2582	0.7393
2591	0.7269
2600	0.7336
2609	0.7443
2618	0.7436
2627	0.7413
2636	0.7397
2645	0.7406
2654	0.7448
2663	0.7442
2672	0.7421
2681	0.7396
2690	0.7371
2699	0.7345
2708	0.732
2717	0.7291
2726	0.7267
2735	0.725
2744	0.7239
2753	0.7226
2762	0.7199
2771	0.7169
2780	0.7138
2789	0.7121
2798	0.7106
2807	0.7085
2816	0.7034
2825	0.6932
2834	0.6827
2843	0.6688
2852	0.651
2861	0.6224
2870	0.5812
2879	0.5639
2888	0.653
2897	0.6534
2906	0.6198
2915	0.5936
2924	0.6078
2933	0.6005
2942	0.6291
2951	0.6269
2960	0.5335
2969	0.6835
2978	0.6485
2987	0.7095
2996	0.7081
3005	0.7021
3014	0.7035
3023	0.7023
3032	0.6999
3041	0.6964
3050	0.69
3059	0.6836
3068	0.6855
3077	0.6915
3086	0.6912
3095	0.6908
3104	0.6904
3113	0.69
3122	0.69
3131	0.6898
3140	0.6896
3149	0.6884
3158	0.687
3167	0.6856
3176	0.6845
3185	0.6834
3194	0.6823
3203	0.6809
3212	0.6796
3221	0.6781
3230	0.6753
3239	0.6721
3248	0.669
3257	0.6656
3266	0.6622
3275	0.6603
3284	0.6586
3293	0.6569
3302	0.6552
3311	0.6534
3320	0.6515
3329	0.6494
3338	0.6473
3347	0.6452
3356	0.6433
3365	0.6415
3374	0.6397
3383	0.638
3392	0.6362
3401	0.6345
3410	0.6329
3419	0.6312
3428	0.6295
3437	0.6279
3446	0.6261
3455	0.6243
3464	0.6224
3473	0.6206
3482	0.6188
3491	0.6173
3500	0.6159
3509	0.6145
3518	0.6131
3527	0.6117
3536	0.6104
3545	0.6095
3554	0.6086
3563	0.6077
3572	0.6067
3581	0.6061
3590	0.606
3599	0.6058
3608	0.6057
3617	0.6054
3626	0.6048
3635	0.6041
3644	0.6035
3653	0.6028
3662	0.6015
3671	0.6
3680	0.5985
3689	0.597
3698	0.5955
3707	0.5941
3716	0.5927
3725	0.5912
3734	0.5899
3743	0.5885
3752	0.5881
3761	0.5876
3770	0.5872
3779	0.5868
3788	0.5864
3797	0.5859
