Infrared Spectrum: 2,4-Dichloro-6-nitroaniline
Formula: C 6 H 4 Cl 2 N 2 O 2
CAS: 2683-43-4
State: gas
Origin: EPA-IR VAPOR PHASE LIBRARY
1/CM	ABSORBANCE
501.5	0.00286
513.074	0.00327
524.648	0.00358
536.222	0.00354
547.796	0.00458
559.37	0.00523
570.944	0.00248
582.518	0.00174
594.092	0.00215
605.666	0.00273
617.24	0.00241
628.814	0.00307
640.388	0.00434
651.962	0.00563
663.536	0.00601
675.11	0.00597
686.684	0.00651
698.258	0.00852
709.832	0.01367
721.406	0.0162
732.98	0.01436
744.554	0.01468
756.128	0.02298
767.702	0.01705
779.276	0.0088
790.85	0.00591
802.423	0.00438
813.997	0.00348
825.571	0.00332
837.145	0.00511
848.719	0.01218
860.293	0.01081
871.867	0.01262
883.441	0.01381
895.015	0.01374
906.589	0.0095
918.163	0.00399
929.737	0.00309
941.311	0.00281
952.885	0.00257
964.459	0.00239
976.033	0.0022
987.607	0.00201
999.181	0.00186
1010.76	0.00173
1022.33	0.00159
1033.9	0.00168
1045.48	0.00204
1057.05	0.00331
1068.63	0.00797
1080.2	0.01695
1091.77	0.01184
1103.35	0.00736
1114.92	0.00859
1126.49	0.00866
1138.07	0.01289
1149.64	0.01534
1161.22	0.00627
1172.79	0.00335
1184.36	0.00294
1195.94	0.00395
1207.51	0.00907
1219.09	0.01801
1230.66	0.0199
1242.23	0.01628
1253.81	0.01305
1265.38	0.02243
1276.96	0.02601
1288.53	0.01062
1300.1	0.00803
1311.68	0.01461
1323.25	0.01544
1334.83	0.03086
1346.4	0.04441
1357.97	0.02567
1369.55	0.00896
1381.12	0.00449
1392.7	0.00662
1404.27	0.00712
1415.84	0.00621
1427.42	0.01014
1438.99	0.01058
1450.57	0.01465
1462.14	0.02107
1473.71	0.01463
1485.29	0.01368
1496.86	0.02017
1508.44	0.04516
1520.01	0.08515
1531.58	0.10542
1543.16	0.0485
1554.73	0.02585
1566.31	0.02293
1577.88	0.01519
1589.45	0.01045
1601.03	0.00999
1612.6	0.0275
1624.18	0.03995
1635.75	0.013
1647.32	0.00465
1658.9	0.003
1670.47	0.00224
1682.05	0.0016
1693.62	0.00121
1705.19	0.00105
1716.77	0.0008873
1728.34	0.0006968
1739.92	0.0008672
1751.49	0.00151
1763.06	0.00221
1774.64	0.0019
1786.21	0.00115
1797.79	0.0007743
1809.36	0.0005891
1820.93	0.0004982
1832.51	0.0003987
1844.08	0.0003444
1855.66	0.0003581
1867.23	0.0003947
1878.8	0.0003732
1890.38	0.0003149
1901.95	0.000284
1913.53	0.0002808
1925.1	0.0002852
1936.67	0.0002726
1948.25	0.0002572
1959.82	0.0002699
1971.4	0.0002574
1982.97	0.0002866
1994.54	0.0002451
2006.12	0.0002243
2017.69	0.0002108
2029.27	0.0002269
2040.84	0.0002111
2052.41	0.0001694
2063.99	0.0001126
2075.56	0.0001116
2087.14	0.0001314
2098.71	9.842e-05
2110.28	0.0001498
2121.86	0.0001543
2133.43	0.0001608
2145.01	0.0001318
2156.58	0.0001626
2168.15	0.0001993
2179.73	0.0001884
2191.3	0.0001933
2202.88	0.0001988
2214.45	0.0002634
2226.02	0.0002869
2237.6	0.0002884
2249.17	0.0002828
2260.74	0.0002594
2272.32	0.0002499
2283.89	0.0003048
2295.47	0.000356
2307.04	0.0003839
2318.61	0.0003529
2330.19	0.000327
2341.76	0.0003085
2353.34	0.0003148
2364.91	0.0002838
2376.48	0.0002999
2388.06	0.0002837
2399.63	0.0002961
2411.21	0.0003399
2422.78	0.0003787
2434.35	0.0003242
2445.93	0.0002745
2457.5	0.0002866
2469.08	0.0003382
2480.65	0.0003525
2492.22	0.0002914
2503.8	0.0002637
2515.37	0.0002364
2526.95	0.0002713
2538.52	0.0003639
2550.09	0.0003169
2561.67	0.00026
2573.24	0.0002391
2584.82	0.0002846
2596.39	0.0003002
2607.96	0.0002597
2619.54	0.0003721
2631.11	0.0003694
2642.69	0.0004147
2654.26	0.0004528
2665.83	0.0004408
2677.41	0.0004367
2688.98	0.0004235
2700.56	0.0004723
2712.13	0.0004836
2723.7	0.0004903
2735.28	0.0004012
2746.85	0.0003028
2758.43	0.0003062
2770	0.0003401
2781.57	0.0003613
2793.15	0.0004272
2804.72	0.0004085
2816.3	0.0004639
2827.87	0.0007134
2839.44	0.0009087
2851.02	0.0009684
2862.59	0.0008856
2874.17	0.0007318
2885.74	0.0007382
2897.31	0.0007009
2908.89	0.0007355
2920.46	0.0007418
2932.04	0.0006169
2943.61	0.0003778
2955.18	0.0003057
2966.76	0.0002573
2978.33	0.0002853
2989.91	0.0002667
3001.48	0.0002667
3013.05	0.0002584
3024.63	0.0003204
3036.2	0.0003338
3047.78	0.0002993
3059.35	0.0003742
3070.92	0.000497
3082.5	0.000892
3094.07	0.00239
3105.65	0.00285
3117.22	0.00101
3128.79	0.0003001
3140.37	0.0001362
3151.94	0.0002182
3163.52	0.0002425
3175.09	0.000295
3186.66	0.0002276
3198.24	0.0002151
3209.81	0.0002351
3221.39	0.000127
3232.96	0.0001308
3244.53	0.0001201
3256.11	8.389e-05
3267.68	0.0001029
3279.26	0.0001214
3290.83	7.217e-05
3302.4	0.000116
3313.98	0.0001098
3325.55	0.0001995
3337.13	0.0003006
3348.7	0.000422
3360.27	0.0007909
3371.85	0.0017
3383.42	0.00472
3395	0.01337
3406.57	0.02222
3418.14	0.01213
3429.72	0.00287
3441.29	0.00138
3452.86	0.00129
3464.44	0.00176
3476.01	0.00285
3487.59	0.00512
3499.16	0.00941
3510.73	0.0171
3522.31	0.02204
3533.88	0.01422
3545.46	0.00397
3557.03	0.00136
3568.6	0.0007675
3580.18	0.0005101
3591.75	0.0002825
3603.33	0.0002848
3614.9	0.0002201
3626.47	0.0001029
3638.05	0.0001167
3649.62	9.689e-05
3661.2	0.0001397
3672.77	0.0001027
3684.34	0.0001155
3695.92	7.596e-05
3707.49	0.0001426
3719.07	0.000116
3730.64	0.0001776
3742.21	0.0002397
3753.79	0.0001751
3765.36	0.0001775
3776.94	9.293e-05
3788.51	7.278e-06
3800.08	0.0001519
3811.66	0.0001678
3823.23	0.0001502
3834.81	9.17e-05
3846.38	0.0001024
3857.95	0.0001222
3869.53	0.0001121
3881.1	0.0001007
3892.68	8.333e-05
3904.25	9.515e-05
3915.82	0.0001172
3927.4	0.0001271
3938.97	0.0001935
3950.55	0.0002091
3962.12	0.0002199
3973.69	7.533e-05
3985.27	0.0002435
3996.84	0.0002233
