Infrared Spectrum: 5-Diethylamino-1-pentanol
Formula: C 9 H 21 N O
CAS: 2683-57-0
State: gas
Origin: EPA-IR VAPOR PHASE LIBRARY
1/CM	ABSORBANCE
501.5	0.0008242
513.074	0.0007647
524.648	0.0005901
536.222	0.0005726
547.796	0.0005658
559.37	0.0003983
570.944	0.0002739
582.518	0.00012089
594.092	0.00010553
605.666	0.0001368
617.24	0.00011264
628.814	9.324e-05
640.388	8.1e-06
651.962	0.0001283
663.536	0.0001642
675.11	0.0002342
686.684	0.0002997
698.258	0.0004898
709.832	0.0010542
721.406	0.0013442
732.98	0.0011942
744.554	0.0013942
756.128	0.0016742
767.702	0.0017842
779.276	0.0018542
790.85	0.0019142
802.423	0.0018742
813.997	0.0016542
825.571	0.0011142
837.145	0.0010107
848.719	0.000984
860.293	0.0011442
871.867	0.0013242
883.441	0.0014642
895.015	0.0017042
906.589	0.0019042
918.163	0.0023442
929.737	0.0025742
941.311	0.0026742
952.885	0.0031342
964.459	0.0039442
976.033	0.0048842
987.607	0.0061142
999.181	0.0075542
1010.76	0.0092142
1022.33	0.0125942
1033.9	0.0167542
1045.48	0.0176642
1057.05	0.0181642
1068.63	0.0190542
1080.2	0.0178542
1091.77	0.0139342
1103.35	0.0099642
1114.92	0.0075642
1126.49	0.0062042
1138.07	0.0054242
1149.64	0.0053542
1161.22	0.0054942
1172.79	0.0058142
1184.36	0.0072242
1195.94	0.0107942
1207.51	0.0118042
1219.09	0.0079842
1230.66	0.0058542
1242.23	0.0051442
1253.81	0.0050242
1265.38	0.0051642
1276.96	0.0058142
1288.53	0.0071042
1300.1	0.0077442
1311.68	0.0070842
1323.25	0.0066642
1334.83	0.0076242
1346.4	0.0093442
1357.97	0.0105342
1369.55	0.0129442
1381.12	0.0155442
1392.7	0.0110842
1404.27	0.0058642
1415.84	0.0037942
1427.42	0.0034742
1438.99	0.0045742
1450.57	0.0066142
1462.14	0.0077542
1473.71	0.0069542
1485.29	0.0041142
1496.86	0.0020542
1508.44	0.0013642
1520.01	0.0010642
1531.58	0.0008754
1543.16	0.0007634
1554.73	0.0006476
1566.31	0.0005726
1577.88	0.0004946
1589.45	0.0004339
1601.03	0.0003922
1612.6	0.000373
1624.18	0.0004211
1635.75	0.0004754
1647.32	0.0003999
1658.9	0.0002999
1670.47	0.0002607
1682.05	0.0001919
1693.62	0.0001712
1705.19	0.0001585
1716.77	0.000157
1728.34	0.0001616
1739.92	0.0001595
1751.49	0.000148
1763.06	0.0001728
1774.64	0.0001833
1786.21	0.0002011
1797.79	0.0002066
1809.36	0.0002335
1820.93	0.0002466
1832.51	0.0002576
1844.08	0.0002381
1855.66	0.0002046
1867.23	0.0001942
1878.8	0.0002077
1890.38	0.0001949
1901.95	0.0001933
1913.53	0.0002084
1925.1	0.0002162
1936.67	0.0002312
1948.25	0.000222
1959.82	0.00021
1971.4	0.0002444
1982.97	0.0002108
1994.54	0.0002127
2006.12	0.0002488
2017.69	0.0002597
2029.27	0.0002739
2040.84	0.0003027
2052.41	0.0002719
2063.99	0.0002659
2075.56	0.0002682
2087.14	0.0002702
2098.71	0.0002512
2110.28	0.0002092
2121.86	0.0002299
2133.43	0.00019
2145.01	0.0001984
2156.58	0.000187
2168.15	0.0002196
2179.73	0.000219
2191.3	0.0002091
2202.88	0.000215
2214.45	0.0002123
2226.02	0.0001971
2237.6	0.0002354
2249.17	0.0002254
2260.74	0.0002544
2272.32	0.0002872
2283.89	0.0002825
2295.47	0.0002996
2307.04	0.0002754
2318.61	0.0002874
2330.19	0.0002891
2341.76	0.0002999
2353.34	0.0003085
2364.91	0.000369
2376.48	0.0003502
2388.06	0.0003655
2399.63	0.0003748
2411.21	0.0003903
2422.78	0.0004316
2434.35	0.0004486
2445.93	0.0003938
2457.5	0.0003525
2469.08	0.0003575
2480.65	0.0003517
2492.22	0.0003898
2503.8	0.000398
2515.37	0.0004678
2526.95	0.0005009
2538.52	0.000599
2550.09	0.0007388
2561.67	0.0008365
2573.24	0.0009402
2584.82	0.0010342
2596.39	0.0011142
2607.96	0.0011842
2619.54	0.0013142
2631.11	0.0015542
2642.69	0.0018342
2654.26	0.0021842
2665.83	0.0025142
2677.41	0.0029642
2688.98	0.0033542
2700.56	0.0039342
2712.13	0.0045842
2723.7	0.0052742
2735.28	0.0058342
2746.85	0.0066242
2758.43	0.0080142
2770	0.0098142
2781.57	0.0128142
2793.15	0.0189842
2804.72	0.0253942
2816.3	0.0248042
2827.87	0.0199742
2839.44	0.0164242
2851.02	0.0173542
2862.59	0.0223442
2874.17	0.0272842
2885.74	0.0279842
2897.31	0.0270942
2908.89	0.0315142
2920.46	0.0403742
2932.04	0.0548042
2943.61	0.0597842
2955.18	0.0456042
2966.76	0.0426442
2978.33	0.0428742
2989.91	0.0220942
3001.48	0.0095342
3013.05	0.0055342
3024.63	0.0038142
3036.2	0.0028942
3047.78	0.0023642
3059.35	0.0019742
3070.92	0.0017142
3082.5	0.0014342
3094.07	0.0012642
3105.65	0.0011542
3117.22	0.0010152
3128.79	0.0008264
3140.37	0.0008081
3151.94	0.0007293
3163.52	0.0006423
3175.09	0.0005255
3186.66	0.0005165
3198.24	0.0004346
3209.81	0.000384
3221.39	0.0003471
3232.96	0.0003138
3244.53	0.0002664
3256.11	0.0002848
3267.68	0.0002776
3279.26	0.000275
3290.83	0.0002113
3302.4	0.0002421
3313.98	0.0002808
3325.55	0.0002294
3337.13	0.0002764
3348.7	0.0002351
3360.27	0.0002058
3371.85	0.0001988
3383.42	0.0002626
3395	0.0002263
3406.57	0.000225
3418.14	0.0003046
3429.72	0.0002776
3441.29	0.0002861
3452.86	0.0003111
3464.44	0.0003812
3476.01	0.0003685
3487.59	0.0003082
3499.16	0.0003356
3510.73	0.000264
3522.31	0.0002141
3533.88	0.0002661
3545.46	0.0002029
3557.03	0.0001961
3568.6	0.0001922
3580.18	0.000285
3591.75	0.0003066
3603.33	0.0003386
3614.9	0.0004662
3626.47	0.0006264
3638.05	0.0010742
3649.62	0.0020242
3661.2	0.0035542
3672.77	0.0036942
3684.34	0.0020642
3695.92	0.0009039
3707.49	0.0005626
3719.07	0.0004481
3730.64	0.0003505
3742.21	0.0003076
3753.79	0.0002608
3765.36	0.0002777
3776.94	0.0002359
3788.51	0.0002266
3800.08	0.0002602
3811.66	0.0002366
3823.23	0.0002452
3834.81	0.0003001
3846.38	0.0003077
3857.95	0.000388
3869.53	0.0002968
3881.1	0.0003137
3892.68	0.0003462
3904.25	0.000321
3915.82	0.0002707
3927.4	0.0002661
3938.97	0.0002371
3950.55	0.0002359
3962.12	0.0002095
3973.69	0.0002088
3985.27	0.0003153
3996.84	0.0003192
