Infrared Spectrum: Benzimidazole, 4,5,7-trifluoro-
Formula: C7 H3 F3 N2
CAS: 2686-72-8
State: SOLID (0.6 mg / 650 mg KBr DISC)
Class: COBLENTZ III
Instrument: PERKIN-ELMER 21 (GRATING)
Instrument parameters: FILTER CHANGE ABOUT 1090 CM^-^1
Sampling: TRANSMISSION
Resolution: 2
Origin: SOUTHERN RESEARCH INSTITUTE
1/CM	TRANSMITTANCE
599.98	1.0098
609.028	1.0097
618.075	1.0098
627.123	1.0102
636.171	1.0069
645.218	0.9913
654.266	0.9611
663.314	0.9637
672.361	0.9741
681.409	0.9302
690.456	0.6888
699.504	0.9287
708.552	0.8338
717.599	0.3505
726.647	0.7636
735.695	0.9582
744.742	0.9481
753.79	0.9397
762.838	0.9301
771.885	0.9143
780.933	0.891
789.981	0.8627
799.028	0.8273
808.076	0.7862
817.123	0.7326
826.171	0.4365
835.219	0.4382
844.266	0.5835
853.314	0.6054
862.362	0.5644
871.409	0.5278
880.457	0.5533
889.505	0.7396
898.552	0.7602
907.6	0.7301
916.648	0.7036
925.695	0.6047
934.743	0.6521
943.791	0.6477
952.838	0.3405
961.886	0.4743
970.933	0.691
979.981	0.1603
989.029	0.3001
998.076	0.6719
1007.12	0.7536
1016.17	0.7921
1025.22	0.8794
1034.27	0.8883
1043.31	0.8652
1052.36	0.7991
1061.41	0.7286
1070.46	0.3615
1079.51	0.5606
1088.55	0.6639
1097.6	0.7376
1106.65	0.8509
1115.7	0.8278
1124.74	0.7953
1133.79	0.7337
1142.84	0.2635
1151.89	0.6225
1160.93	0.6471
1169.98	0.6037
1179.03	0.5222
1188.08	0.4966
1197.12	0.5332
1206.17	0.8506
1215.22	0.8502
1224.27	0.8266
1233.32	0.7263
1242.36	0.7849
1251.41	0.8117
1260.46	0.7996
1269.51	0.7083
1278.55	0.6391
1287.6	0.5832
1296.65	0.0595
1305.7	0.1647
1314.74	0.4918
1323.79	0.7409
1332.84	0.8619
1341.89	0.8507
1350.93	0.7796
1359.98	0.4302
1369.03	0.2524
1378.08	0.4996
1387.13	0.7951
1396.17	0.7734
1405.22	0.7351
1414.27	0.6487
1423.32	0.5277
1432.36	0.233
1441.41	0.57
1450.46	0.4899
1459.51	0.282
1468.55	0.1559
1477.6	0.3013
1486.65	0.4821
1495.7	0.5986
1504.74	0.6587
1513.79	0.6737
1522.84	0.666
1531.89	0.612
1540.94	0.2633
1549.98	0.0385
1559.03	0.3374
1568.08	0.643
1577.13	0.722
1586.17	0.7998
1595.22	0.7971
1604.27	0.7888
1613.32	0.7642
1622.36	0.7405
1631.41	0.7579
1640.46	0.695
1649.51	0.624
1658.55	0.5364
1667.6	0.5917
1676.65	0.6728
1685.7	0.718
1694.75	0.737
1703.79	0.7344
1712.84	0.7209
1721.89	0.7077
1730.94	0.6996
1739.98	0.6948
1749.03	0.6786
1758.08	0.6753
1767.13	0.6774
1776.17	0.6888
1785.22	0.7067
1794.27	0.7202
1803.32	0.725
1812.36	0.7267
1821.41	0.7358
1830.46	0.7508
1839.51	0.7632
1848.56	0.7689
1857.6	0.7878
1866.65	0.79
1875.7	0.7961
1884.75	0.8084
1893.79	0.8165
1902.84	0.8219
1911.89	0.8272
1920.94	0.8319
1929.98	0.8402
1939.03	0.8453
1948.08	0.8465
1957.13	0.8487
1966.17	0.853
1975.22	0.856
1984.27	0.8615
1993.32	0.8693
2002.37	0.871
2011.41	0.8679
2020.46	0.8654
2029.51	0.8623
2038.56	0.865
2047.6	0.8627
2056.65	0.8621
2065.7	0.8639
2074.75	0.8575
2083.79	0.8521
2092.84	0.8542
2101.89	0.8485
2110.94	0.8416
2119.98	0.8347
2129.03	0.828
2138.08	0.823
2147.13	0.8199
2156.18	0.8179
2165.22	0.8114
2174.27	0.8047
2183.32	0.7924
2192.37	0.7869
2201.41	0.78
2210.46	0.7716
2219.51	0.7589
2228.56	0.7478
2237.6	0.7417
2246.65	0.7326
2255.7	0.7211
2264.75	0.7077
2273.79	0.6934
2282.84	0.6775
2291.89	0.6601
2300.94	0.6393
2309.98	0.615
2319.03	0.5847
2328.08	0.5658
2337.13	0.5577
2346.18	0.5526
2355.22	0.5408
2364.27	0.5329
2373.32	0.5234
2382.37	0.5132
2391.41	0.503
2400.46	0.4929
2409.51	0.4826
2418.56	0.4724
2427.6	0.4621
2436.65	0.4523
2445.7	0.4495
2454.75	0.4383
2463.79	0.4334
2472.84	0.416
2481.89	0.3894
2490.94	0.3728
2499.99	0.3569
2509.03	0.3406
2518.08	0.3279
2527.13	0.3167
2536.18	0.3053
2545.22	0.2969
2554.27	0.28
2563.32	0.2757
2572.37	0.2725
2581.41	0.272
2590.46	0.2742
2599.51	0.2809
2608.56	0.2884
2617.6	0.297
2626.65	0.3026
2635.7	0.298
2644.75	0.2933
2653.8	0.2958
2662.84	0.2964
2671.89	0.2826
2680.94	0.2799
2689.99	0.2881
2699.03	0.2974
2708.08	0.2942
2717.13	0.2871
2726.18	0.2728
2735.22	0.2561
2744.27	0.2413
2753.32	0.2395
2762.37	0.2494
2771.41	0.2545
2780.46	0.2514
2789.51	0.2614
2798.56	0.2808
2807.61	0.3024
2816.65	0.3239
2825.7	0.3452
2834.75	0.3641
2843.8	0.386
2852.84	0.4209
2861.89	0.4416
2870.94	0.4601
2879.99	0.4706
2889.03	0.4788
2898.08	0.484
2907.13	0.4872
2916.18	0.4871
2925.22	0.4818
2934.27	0.4656
2943.32	0.4455
2952.37	0.4287
2961.42	0.4214
2970.46	0.4232
2979.51	0.4287
2988.56	0.4322
2997.61	0.422
3006.65	0.4134
3015.7	0.4175
3024.75	0.4253
3033.8	0.4343
3042.84	0.4436
3051.89	0.4621
3060.94	0.4777
3069.99	0.491
3079.03	0.492
3088.08	0.5007
3097.13	0.5164
3106.18	0.5317
3115.23	0.5441
3124.27	0.5735
3133.32	0.6357
3142.37	0.65
3151.42	0.6594
3160.46	0.675
3169.51	0.6949
3178.56	0.7025
3187.61	0.7069
3196.65	0.7212
3205.7	0.7342
3214.75	0.744
3223.8	0.7526
3232.84	0.759
3241.89	0.7641
3250.94	0.7707
3259.99	0.7764
3269.04	0.7764
3278.08	0.7765
3287.13	0.7825
3296.18	0.7879
3305.23	0.7885
3314.27	0.7876
3323.32	0.7868
3332.37	0.7851
3341.42	0.7814
3350.46	0.7751
3359.51	0.7731
3368.56	0.7695
3377.61	0.7627
3386.65	0.7571
3395.7	0.756
3404.75	0.7577
3413.8	0.7525
3422.85	0.7472
3431.89	0.7473
3440.94	0.7541
3449.99	0.7607
3459.04	0.766
3468.08	0.7717
3477.13	0.778
3486.18	0.7843
3495.23	0.7895
3504.27	0.7946
3513.32	0.7995
3522.37	0.8074
3531.42	0.8188
3540.46	0.8203
3549.51	0.822
3558.56	0.8355
3567.61	0.8392
3576.66	0.8406
3585.7	0.8538
3594.75	0.8642
3603.8	0.8728
3612.85	0.8776
3621.89	0.8858
3630.94	0.8905
3639.99	0.8904
3649.04	0.8905
3658.08	0.8907
3667.13	0.892
3676.18	0.8937
3685.23	0.8955
3694.27	0.8969
3703.32	0.8984
3712.37	0.9007
3721.42	0.9021
3730.47	0.9019
3739.51	0.9011
3748.56	0.9011
3757.61	0.9044
3766.66	0.9071
3775.7	0.9039
3784.75	0.8991
3793.8	0.8945
3802.85	0.8934
3811.89	0.8947
3820.94	0.8977
3829.99	0.9016
3839.04	0.9055
3848.08	0.9086
3857.13	0.9103
3866.18	0.9079
3875.23	0.9054
3884.28	0.9045
3893.32	0.9048
3902.37	0.9052
3911.42	0.9058
3920.47	0.9069
3929.51	0.9081
3938.56	0.9093
3947.61	0.9104
3956.66	0.9099
3965.7	0.9106
3974.75	0.9066
3983.8	0.9029
3992.85	0.8988
4001.89	0.8932
4010.94	0.8775
4019.99	0.8439
