Infrared Spectrum: 1-Ethyl-2-pyrrolidinone
Formula: C 6 H 11 N O
CAS: 2687-91-4
State: gas
Origin: EPA-IR VAPOR PHASE LIBRARY
1/CM	ABSORBANCE
501.5	0.00257
513.074	0.0005778
524.648	0.0003661
536.222	0.0007114
547.796	0.00164
559.37	0.00264
570.944	0.00232
582.518	0.00179
594.092	0.0017
605.666	0.00197
617.24	0.00253
628.814	0.00345
640.388	0.00431
651.962	0.00398
663.536	0.00264
675.11	0.00153
686.684	0.0009074
698.258	0.0007401
709.832	0.000773
721.406	0.0008317
732.98	0.0008551
744.554	0.0007456
756.128	0.0008754
767.702	0.00174
779.276	0.00367
790.85	0.00477
802.423	0.00417
813.997	0.00282
825.571	0.00316
837.145	0.0046
848.719	0.00497
860.293	0.0035
871.867	0.00215
883.441	0.00172
895.015	0.00191
906.589	0.00233
918.163	0.00379
929.737	0.00466
941.311	0.00321
952.885	0.00162
964.459	0.0010071
976.033	0.00127
987.607	0.00242
999.181	0.00407
1010.76	0.0043
1022.33	0.00362
1033.9	0.0034
1045.48	0.00314
1057.05	0.00348
1068.63	0.00473
1080.2	0.00561
1091.77	0.00522
1103.35	0.00528
1114.92	0.00733
1126.49	0.00856
1138.07	0.00766
1149.64	0.00589
1161.22	0.00615
1172.79	0.00691
1184.36	0.0077
1195.94	0.01019
1207.51	0.01636
1219.09	0.02396
1230.66	0.02878
1242.23	0.03273
1253.81	0.04977
1265.38	0.07592
1276.96	0.08324
1288.53	0.05478
1300.1	0.02821
1311.68	0.0232
1323.25	0.0278
1334.83	0.02594
1346.4	0.01875
1357.97	0.01557
1369.55	0.01707
1381.12	0.02098
1392.7	0.02802
1404.27	0.0453
1415.84	0.06772
1427.42	0.06431
1438.99	0.03753
1450.57	0.0258
1462.14	0.02427
1473.71	0.01862
1485.29	0.01424
1496.86	0.01293
1508.44	0.00914
1520.01	0.00434
1531.58	0.0031
1543.16	0.00259
1554.73	0.00228
1566.31	0.00207
1577.88	0.00196
1589.45	0.00186
1601.03	0.00194
1612.6	0.00219
1624.18	0.00261
1635.75	0.00323
1647.32	0.00426
1658.9	0.00626
1670.47	0.01029
1682.05	0.01671
1693.62	0.03306
1705.19	0.09353
1716.77	0.23144
1728.34	0.28261
1739.92	0.19835
1751.49	0.05212
1763.06	0.01522
1774.64	0.00788
1786.21	0.00468
1797.79	0.00294
1809.36	0.00219
1820.93	0.00179
1832.51	0.0016
1844.08	0.00155
1855.66	0.0016
1867.23	0.0016
1878.8	0.00154
1890.38	0.00129
1901.95	0.0010488
1913.53	0.0008685
1925.1	0.0007971
1936.67	0.0007681
1948.25	0.0007743
1959.82	0.0007933
1971.4	0.0007717
1982.97	0.000752
1994.54	0.0008002
2006.12	0.0008912
2017.69	0.000852
2029.27	0.0007675
2040.84	0.0006733
2052.41	0.0006481
2063.99	0.0005838
2075.56	0.0005228
2087.14	0.0004753
2098.71	0.0005512
2110.28	0.0006049
2121.86	0.0006778
2133.43	0.0007093
2145.01	0.0007723
2156.58	0.0007967
2168.15	0.0006981
2179.73	0.0005874
2191.3	0.0005613
2202.88	0.0005537
2214.45	0.0005753
2226.02	0.000662
2237.6	0.0007221
2249.17	0.0007563
2260.74	0.0006969
2272.32	0.0006457
2283.89	0.0005987
2295.47	0.0006204
2307.04	0.0007311
2318.61	0.0007133
2330.19	0.0006559
2341.76	0.0006472
2353.34	0.0006558
2364.91	0.0006703
2376.48	0.0006613
2388.06	0.000528
2399.63	0.0004043
2411.21	0.0004241
2422.78	0.0004806
2434.35	0.0006367
2445.93	0.0008
2457.5	0.0009431
2469.08	0.0008478
2480.65	0.0006993
2492.22	0.0005911
2503.8	0.0005563
2515.37	0.000452
2526.95	0.0004408
2538.52	0.00049
2550.09	0.0005566
2561.67	0.0005539
2573.24	0.0004767
2584.82	0.0004335
2596.39	0.0003764
2607.96	0.0004076
2619.54	0.0004825
2631.11	0.0005403
2642.69	0.0006446
2654.26	0.0007626
2665.83	0.000805
2677.41	0.0008899
2688.98	0.00111
2700.56	0.00143
2712.13	0.00165
2723.7	0.00169
2735.28	0.00178
2746.85	0.00212
2758.43	0.00236
2770	0.00277
2781.57	0.00332
2793.15	0.00442
2804.72	0.00634
2816.3	0.00894
2827.87	0.01226
2839.44	0.01736
2851.02	0.02511
2862.59	0.03385
2874.17	0.03942
2885.74	0.04028
2897.31	0.03903
2908.89	0.03836
2920.46	0.03704
2932.04	0.03599
2943.61	0.0388
2955.18	0.04262
2966.76	0.05453
2978.33	0.06902
2989.91	0.05846
3001.48	0.02896
3013.05	0.01273
3024.63	0.00667
3036.2	0.00474
3047.78	0.00358
3059.35	0.00296
3070.92	0.00256
3082.5	0.00235
3094.07	0.00203
3105.65	0.00173
3117.22	0.00139
3128.79	0.00121
3140.37	0.00114
3151.94	0.0010599
3163.52	0.0008688
3175.09	0.000833
3186.66	0.0006627
3198.24	0.000479
3209.81	0.0003514
3221.39	0.0003244
3232.96	0.0002444
3244.53	0.0002113
3256.11	0.00013022
3267.68	0.00014124
3279.26	0.00014349
3290.83	0.00017491
3302.4	0.00012906
3313.98	9.56e-05
3325.55	9.77e-05
3337.13	0.00012369
3348.7	0.0002552
3360.27	0.00016038
3371.85	0.00017959
3383.42	0.0003121
3395	0.0004497
3406.57	0.0008116
3418.14	0.0016
3429.72	0.00251
3441.29	0.00286
3452.86	0.00183
3464.44	0.0008591
3476.01	0.0005431
3487.59	0.0003813
3499.16	0.0002697
3510.73	0.0001014
3522.31	0.00012992
3533.88	0.00010401
3545.46	0.00019524
3557.03	0.00014486
3568.6	0.00012158
3580.18	0.00014164
3591.75	0.00010794
3603.33	8.34e-05
3614.9	3.55e-05
3626.47	0.00010665
3638.05	0.00012759
3649.62	5.75e-05
3661.2	6.44e-05
3672.77	0.00012621
3684.34	0.000112678
3695.92	5.89e-05
3707.49	9.18e-05
3719.07	5e-05
3730.64	0.00017365
3742.21	8.48e-05
3753.79	0.0001246
3765.36	0.00018094
3776.94	0.000215
3788.51	9.96e-05
3800.08	0.00017426
3811.66	0.000271
3823.23	0.0002987
3834.81	0.00019179
3846.38	0.00015655
3857.95	0.0002285
3869.53	0.00016384
3881.1	0.000214
3892.68	0.00018185
3904.25	0.00014972
3915.82	0.00020995
3927.4	0.0003157
3938.97	0.0003039
3950.55	0.000352
3962.12	0.0002779
3973.69	0.0003362
3985.27	0.0003839
3996.84	0.0003627
