Infrared Spectrum: 3-Chloro-1-phenyl-1-propene
Formula: C 9 H 9 Cl
CAS: 2687-12-9
State: gas
Instrument: HP-GC/MS/IRD
Origin: NIST Mass Spectrometry Data Center
1/CM	ABSORBANCE
550	0.0005676
562	4.56e-05
574	0.0003132
586	0.0004044
598	0.0008988
610	0.0012816
622	0.000582
634	0.0005796
646	0.0010032
658	0.0019884
670	0.0044124
682	0.0093192
694	0.012
706	0.0088488
718	0.005838
730	0.00747
742	0.011388
754	0.0090924
766	0.0038508
778	0.0017136
790	0.00093
802	0.0006984
814	0.0006084
826	0.0006876
838	0.0008088
850	0.0007392
862	0.0005472
874	0.0004068
886	0.0005556
898	0.0005592
910	0.000798
922	0.00099
934	0.0017736
946	0.0046488
958	0.007872
970	0.0054168
982	0.0023604
994	0.0013272
1006	0.0009804
1018	0.0008988
1030	0.001326
1042	0.000696
1054	0.0009264
1066	0.0011112
1078	0.0011004
1090	0.0005592
1102	0.0003324
1114	0.0001332
1126	0.0001224
1138	0.0002964
1150	0.0009408
1162	0.0011928
1174	0.0005292
1186	0.0003756
1198	0.0004176
1210	0.000708
1222	0.0011292
1234	0.0024672
1246	0.0078096
1258	0.0069756
1270	0.0030096
1282	0.0026184
1294	0.0030696
1306	0.0028128
1318	0.0016152
1330	0.0010692
1342	0.0006444
1354	0.0003372
1366	0.00027
1378	0.0002664
1390	0.0002484
1402	0.0002256
1414	0.0002808
1426	0.0006636
1438	0.0015432
1450	0.0017028
1462	0.0009756
1474	0.0009936
1486	0.0017316
1498	0.0030876
1510	0.0008208
1522	0.0003096
1534	0.0002136
1546	0.0002016
1558	0.0002652
1570	0.0005652
1582	0.0009744
1594	0.0014616
1606	0.00102
1618	0.000396
1630	0.0004116
1642	0.0007872
1654	0.0012048
1666	0.0005988
1678	0.0003816
1690	0.0002952
1702	0.0003516
1714	0.0003972
1726	0.000432
1738	0.0005052
1750	0.0004764
1762	0.00048
1774	0.0005364
1786	0.0007368
1798	0.0008376
1810	0.000546
1822	0.0003264
1834	0.0002184
1846	0.00024
1858	0.0004272
1870	0.0005556
1882	0.000612
1894	0.0003672
1906	0.0002064
1918	0.000276
1930	0.0004644
1942	0.0006432
1954	0.0006192
1966	0.0002916
1978	0.000144
1990	7.2e-05
2002	6.24e-05
2014	4.92e-05
2026	5.16e-05
2038	6.12e-05
2050	6.84e-05
2062	7.8e-05
2074	5.52e-05
2086	4.08e-05
2098	6.36e-05
2110	5.16e-05
2122	6e-05
2134	7.44e-05
2146	7.68e-05
2158	7.68e-05
2170	3.96e-05
2182	3.72e-05
2194	6.72e-05
2206	0.0001092
2218	0.0001248
2230	0.000102
2242	6.36e-05
2254	9.12e-05
2266	7.56e-05
2278	0.0001104
2290	0.000102
2302	0.000144
2314	0.0001932
2326	0.0001656
2338	0.0001392
2350	0.0001632
2362	0.0001212
2374	0.00012
2386	0.000126
2398	5.16e-05
2410	9e-05
2422	6.72e-05
2434	7.56e-05
2446	8.28e-05
2458	8.04e-05
2470	5.76e-05
2482	5.04e-05
2494	7.44e-05
2506	7.2e-05
2518	7.32e-05
2530	9.72e-05
2542	8.64e-05
2554	7.92e-05
2566	8.04e-05
2578	0.0001092
2590	0.000114
2602	9e-05
2614	0.0001308
2626	0.0001272
2638	0.0001068
2650	7.2e-05
2662	0.0001236
2674	9e-05
2686	0.0001752
2698	0.0002256
2710	0.0001848
2722	0.000114
2734	0.0001044
2746	6.72e-05
2758	8.16e-05
2770	9.6e-05
2782	0.0001296
2794	0.0001152
2806	0.0001668
2818	0.000216
2830	0.0002292
2842	0.0002832
2854	0.000438
2866	0.0005952
2878	0.0006156
2890	0.0005328
2902	0.000498
2914	0.0005436
2926	0.0008544
2938	0.0014616
2950	0.0024252
2962	0.003288
2974	0.0025932
2986	0.002004
2998	0.002208
3010	0.0028932
3022	0.0045444
3034	0.0071892
3046	0.0062244
3058	0.005238
3070	0.0080448
3082	0.00558
3094	0.0039972
3106	0.0024072
3118	0.0010704
3130	0.00045
3142	0.0003756
3154	0.00033
3166	0.0002016
3178	0.0001572
3190	0.0001428
3202	0.0001212
3214	0.0001272
3226	5.88e-05
3238	6.6e-05
3250	8.76e-05
3262	8.28e-05
3274	4.2e-05
3286	6.24e-05
3298	0.0001092
3310	0.0001296
3322	0.0001548
3334	0.000144
3346	0.0001296
3358	0.0001104
3370	0.0001332
3382	9e-05
3394	8.88e-05
3406	9.36e-05
3418	7.2e-05
3430	7.68e-05
3442	0.0001008
3454	5.4e-05
3466	0.0001404
3478	0.0001452
3490	9.72e-05
3502	9.96e-05
3514	5.28e-05
3526	0.000132
3538	0.0001428
3550	0.0001164
3562	0.0001356
3574	0.0001416
3586	0.0001476
3598	0.0001452
3610	0.0001452
3622	0.0001488
3634	0.0001776
3646	0.0001764
3658	0.0001656
3670	0.0001728
3682	0.0001608
3694	0.0002004
3706	0.000234
3718	0.0002088
3730	0.0001584
3742	0.0002196
3754	0.0001512
3766	0.000144
3778	0.0001176
3790	0.0001404
3802	0.0001548
3814	0.00015
3826	0.0001128
3838	0.0002088
