Infrared Spectrum: 2-Phenoxyaniline
Formula: C 12 H 11 N O
CAS: 2688-84-8
State: gas
Origin: EPA-IR VAPOR PHASE LIBRARY
1/CM	ABSORBANCE
549.9	0.0177
559.547	0.01605
569.193	0.0153
578.84	0.01511
588.486	0.01498
598.133	0.01527
607.779	0.01609
617.426	0.01732
627.072	0.01922
636.719	0.02077
646.365	0.02247
656.012	0.02457
665.658	0.02654
675.305	0.03111
684.951	0.04888
694.598	0.05142
704.245	0.03563
713.891	0.03298
723.538	0.05152
733.184	0.10853
742.831	0.13475
752.477	0.09083
762.124	0.05644
771.77	0.04402
781.417	0.03874
791.063	0.03476
800.71	0.03265
810.356	0.03328
820.003	0.0272
829.649	0.01974
839.296	0.01456
848.943	0.0133
858.589	0.01521
868.236	0.0259
877.882	0.04837
887.529	0.03471
897.175	0.01713
906.822	0.01242
916.468	0.01241
926.115	0.01226
935.761	0.0092
945.408	0.00792
955.054	0.00776
964.701	0.00797
974.347	0.00818
983.994	0.00837
993.64	0.00841
1003.29	0.0091
1012.93	0.01275
1022.58	0.02176
1032.23	0.01766
1041.87	0.01115
1051.52	0.01073
1061.17	0.0148
1070.81	0.01713
1080.46	0.01217
1090.11	0.00885
1099.75	0.00924
1109.4	0.01036
1119.05	0.01296
1128.69	0.02281
1138.34	0.03557
1147.99	0.03464
1157.63	0.04173
1167.28	0.03546
1176.92	0.03722
1186.57	0.06542
1196.22	0.08287
1205.86	0.14585
1215.51	0.35931
1225.16	0.41653
1234.8	0.21684
1244.45	0.0898
1254.1	0.06964
1263.74	0.09665
1273.39	0.10461
1283.04	0.07471
1292.68	0.06518
1302.33	0.05261
1311.98	0.04107
1321.62	0.03728
1331.27	0.02805
1340.92	0.01769
1350.56	0.01101
1360.21	0.0089
1369.86	0.00866
1379.5	0.00871
1389.15	0.00759
1398.79	0.00646
1408.44	0.0063
1418.09	0.00691
1427.73	0.00851
1437.38	0.01181
1447.03	0.02232
1456.67	0.04315
1466.32	0.05036
1475.97	0.08319
1485.61	0.2278
1495.26	0.28157
1504.91	0.19494
1514.55	0.09566
1524.2	0.03486
1533.85	0.0215
1543.49	0.01899
1553.14	0.02187
1562.79	0.03275
1572.43	0.06534
1582.08	0.11693
1591.73	0.1139
1601.37	0.08202
1611.02	0.07964
1620.67	0.09868
1630.31	0.08276
1639.96	0.04083
1649.6	0.01949
1659.25	0.01305
1668.9	0.01024
1678.54	0.00869
1688.19	0.0079
1697.84	0.0075
1707.48	0.00706
1717.13	0.00613
1726.78	0.00556
1736.42	0.0054
1746.07	0.00567
1755.72	0.00659
1765.36	0.00776
1775.01	0.00729
1784.66	0.00564
1794.3	0.00486
1803.95	0.00434
1813.6	0.00393
1823.24	0.00412
1832.89	0.00504
1842.54	0.00603
1852.18	0.00614
1861.83	0.00624
1871.47	0.00677
1881.12	0.00631
1890.77	0.00509
1900.41	0.00598
1910.06	0.00774
1919.71	0.00771
1929.35	0.00735
1939	0.00696
1948.65	0.00623
1958.29	0.00499
1967.94	0.00471
1977.59	0.0047
1987.23	0.00483
1996.88	0.0049
2006.53	0.00506
2016.17	0.00522
2025.82	0.00522
2035.47	0.0052
2045.11	0.00487
2054.76	0.00457
2064.41	0.00446
2074.05	0.00416
2083.7	0.003417
2093.35	0.0030476
2102.99	0.0027971
2112.64	0.0026053
2122.28	0.002374
2131.93	0.002278
2141.58	0.002285
2151.22	0.002113
2160.87	0.00207
2170.52	0.0021
2180.16	0.002169
2189.81	0.002184
2199.46	0.002212
2209.1	0.002284
2218.75	0.002259
2228.4	0.00223
2238.04	0.002203
2247.69	0.002104
2257.34	0.002153
2266.98	0.002264
2276.63	0.0024009
2286.28	0.0026363
2295.92	0.0028666
2305.57	0.0032924
2315.22	0.0034726
2324.86	0.0031408
2334.51	0.0028237
2344.16	0.0026664
2353.8	0.002754
2363.45	0.0030063
2373.09	0.00373
2382.74	0.00432
2392.39	0.0044
2402.03	0.00472
2411.68	0.00485
2421.33	0.00444
2430.97	0.00414
2440.62	0.00396
2450.27	0.00372
2459.91	0.00367
2469.56	0.0034067
2479.21	0.0030439
2488.85	0.0027017
2498.5	0.0024796
2508.15	0.0024695
2517.79	0.0023996
2527.44	0.002263
2537.09	0.00218
2546.73	0.002159
2556.38	0.00223
2566.03	0.002116
2575.67	0.002053
2585.32	0.002004
2594.96	0.0022
2604.61	0.0026244
2614.26	0.0027609
2623.9	0.0024647
2633.55	0.002038
2643.2	0.001742
2652.84	0.001501
2662.49	0.00128
2672.14	0.00118
2681.78	0.00119
2691.43	0.00115
2701.08	0.00109
2710.72	0.00119
2720.37	0.00124
2730.02	0.00127
2739.66	0.00114
2749.31	0.00098
2758.96	0.00116
2768.6	0.0011
2778.25	0.00115
2787.9	0.00097
2797.54	0.00073
2807.19	0.00082
2816.84	0.00071
2826.48	0.00068
2836.13	0.00061
2845.77	0.00066
2855.42	0.0009
2865.07	0.00105
2874.71	0.00124
2884.36	0.00135
2894.01	0.0012
2903.65	0.0011
2913.3	0.00104
2922.95	0.00069
2932.59	0.00052
2942.24	0.0005
2951.89	0.00041
2961.53	0.00046
2971.18	0.00047
2980.83	0.00078
2990.47	0.00133
3000.12	0.00252435
3009.77	0.006
3019.41	0.01426
3029.06	0.02797
3038.71	0.04173
3048.35	0.04264
3058	0.03659
3067.64	0.04383
3077.29	0.05493
3086.94	0.04323
3096.58	0.02524
3106.23	0.01309
3115.88	0.00554
3125.52	0.0023916
3135.17	0.00138
3144.82	0.00077
3154.46	0.00077
3164.11	0.00096
3173.76	0.00111
3183.4	0.00117
3193.05	0.00137
3202.7	0.00132
3212.34	0.00101
3221.99	0.00093
3231.64	0.00071
3241.28	0.00037
3250.93	0.00034
3260.58	0.00016
3270.22	0.00024
3279.87	0.00023
3289.52	0
3299.16	0.00029
3308.81	0.00023
3318.45	0.00024
3328.1	0.00024
3337.75	0.00051
3347.39	0.00074
3357.04	0.00091
3366.69	0.0014
3376.33	0.002165
3385.98	0.00386
3395.63	0.0088
3405.27	0.01778
3414.92	0.01902
3424.57	0.00895
3434.21	0.00401
3443.86	0.0030504
3453.51	0.003046
3463.15	0.00385
3472.8	0.00593
3482.45	0.01019
3492.09	0.0184
3501.74	0.02562
3511.39	0.01715
3521.03	0.00692
3530.68	0.0037
3540.33	0.00249573
3549.97	0.001948
3559.62	0.001648
3569.26	0.001553
3578.91	0.001564
3588.56	0.00153
3598.2	0.00147
3607.85	0.001569
3617.5	0.001707
3627.14	0.001682
3636.79	0.001657
3646.44	0.001727
3656.08	0.001724
3665.73	0.001752
3675.38	0.001728
3685.02	0.001743
3694.67	0.001714
3704.32	0.001713
3713.96	0.001602
3723.61	0.001743
3733.26	0.001673
3742.9	0.001722
3752.55	0.001756
3762.2	0.001742
3771.84	0.001674
3781.49	0.001634
3791.13	0.001725
3800.78	0.001743
3810.43	0.001842
3820.07	0.001709
3829.72	0.00193
3839.37	0.001897
3849.01	0.002038
3858.66	0.001946
3868.31	0.002182
3877.95	0.002276
3887.6	0.002276
3897.25	0.0023965
3906.89	0.002167
3916.54	0.002152
3926.19	0.002249
3935.83	0.002328
3945.48	0.002286
3955.13	0.002219
3964.77	0.002198
3974.42	0.002033
3984.07	0.002066
3993.71	0.001941
