Infrared Spectrum: DIETHYL, DIPROPARGYL MALONATE
Formula: C13 H16 O4
CAS: 2689-88-5
State: SOLUTION (7% IN CHCl3)
Class: COBLENTZ
Instrument: PERKIN-ELMER
Sampling: TRANSMISSION
Path length: 0.010 CM
Resolution: 4
Origin: ABBOTT LABORATORIES - WASHBURN
MICROMETERS	TRANSMITTANCE
2.071	0.972
2.10451	0.967
2.13802	0.966
2.17153	0.966
2.20504	0.966
2.23855	0.967
2.27206	0.967
2.30557	0.961
2.33908	0.951
2.37259	0.954
2.4061	0.956
2.43961	0.952
2.47312	0.956
2.50663	0.956
2.54014	0.959
2.57365	0.951
2.60716	0.957
2.64067	0.959
2.67418	0.962
2.70769	0.966
2.7412	0.966
2.77471	0.966
2.80822	0.9535
2.84173	0.9169
2.87524	0.918
2.90875	0.912
2.94226	0.912
2.97577	0.913
3.00928	0.838
3.04279	0.4501
3.0763	0.5978
3.10981	0.8632
3.14332	0.8954
3.17683	0.915
3.21034	0.9179
3.24385	0.913
3.27736	0.9069
3.31087	0.8416
3.34438	0.7718
3.37789	0.5596
3.4114	0.6122
3.44491	0.6824
3.47842	0.7397
3.51193	0.7974
3.54544	0.8695
3.57895	0.8928
3.61246	0.9166
3.64597	0.9268
3.67948	0.9299
3.71299	0.9418
3.7465	0.9519
3.78001	0.956
3.81352	0.956
3.84703	0.9511
3.88054	0.9539
3.91405	0.954
3.94756	0.954
3.98107	0.954
4.01458	0.9521
4.04809	0.9471
4.0816	0.942
4.11511	0.93
4.14862	0.93
4.18213	0.9318
4.21564	0.9509
4.24915	0.9539
4.28266	0.956
4.31617	0.952
4.34968	0.952
4.38319	0.952
4.4167	0.952
4.45021	0.954
4.48372	0.952
4.51723	0.952
4.55074	0.954
4.58425	0.956
4.61776	0.954
4.65127	0.9471
4.68478	0.9401
4.71829	0.8963
4.7518	0.9217
4.78531	0.9319
4.81882	0.939
4.85233	0.937
4.88584	0.935
4.91935	0.94
4.95286	0.947
4.98637	0.954
5.01988	0.954
5.05339	0.9536
5.0869	0.9555
5.12041	0.951
5.15392	0.954
5.18743	0.9479
5.22094	0.939
5.25445	0.935
5.28796	0.937
5.32147	0.939
5.35498	0.937
5.38849	0.937
5.422	0.925
5.45551	0.9204
5.48902	0.9135
5.52253	0.8987
5.55604	0.8872
5.58955	0.8633
5.62306	0.8167
5.65657	0.7427
5.69008	0.5661
5.72359	0.1675
5.7571	0.0758
5.79061	0.02
5.82412	0.0205
5.85763	0.1685
5.89114	0.4171
5.92465	0.601
5.95816	0.7356
5.99167	0.783
6.02518	0.8215
6.05869	0.8479
6.0922	0.8615
6.12571	0.8753
6.15922	0.885
6.19273	0.891
6.22624	0.8945
6.25975	0.9013
6.29326	0.9008
6.32677	0.9
6.36028	0.905
6.39379	0.907
6.4273	0.903
6.46081	0.907
6.49432	0.9083
6.52783	0.912
6.56134	0.913
6.59485	0.9146
6.62836	0.9136
6.66187	0.913
6.69538	0.9039
6.72889	0.883
6.7624	0.8358
6.79591	0.7382
6.82942	0.6417
6.86294	0.559
6.89645	0.5881
6.92996	0.6208
6.96347	0.5467
6.99698	0.6158
7.03049	0.5202
7.064	0.4445
7.09751	0.562
7.13102	0.7274
7.16453	0.7638
7.19804	0.7503
7.23155	0.656
7.26506	0.6686
7.29857	0.6989
7.33208	0.6069
7.36559	0.385
7.3991	0.5779
7.43261	0.7662
7.46612	0.7837
7.49963	0.754
7.53314	0.6353
7.56665	0.4693
7.60016	0.297
7.63367	0.3648
7.66718	0.4222
7.70069	0.2449
7.7342	0.1087
7.76771	0.0845
7.80122	0.0833
7.83473	0.1239
7.86824	0.2376
7.90175	0.3355
7.93526	0.3656
7.96877	0.3837
8.00228	0.3791
8.03579	0.3346
8.0693	0.2449
8.10281	0.1872
8.13632	0.179
8.16983	0.172
8.20334	0.167
8.23685	0.1637
8.27036	0.165
8.30387	0.1662
8.33738	0.168
8.37089	0.1645
8.4044	0.1181
8.43791	0.0819
8.47142	0.07
8.50493	0.145
8.53844	0.2679
8.57195	0.3904
8.60546	0.4457
8.63897	0.5116
8.67248	0.5632
8.70599	0.6054
8.7395	0.6422
8.77301	0.6722
8.80652	0.6817
8.84003	0.6717
8.87354	0.648
8.90705	0.6232
8.94056	0.614
8.97407	0.616
9.00758	0.6133
9.04109	0.5975
9.0746	0.5832
9.10811	0.5409
9.14162	0.4586
9.17513	0.3737
9.20864	0.3986
9.24215	0.4342
9.27566	0.4231
9.30917	0.3221
9.34268	0.317
9.37619	0.3579
9.4097	0.3796
9.44321	0.3681
9.47672	0.306
9.51023	0.25
9.54374	0.2543
9.57725	0.3603
9.61076	0.5335
9.64427	0.6093
9.67778	0.6699
9.71129	0.6981
9.7448	0.709
9.77831	0.6757
9.81182	0.6078
9.84533	0.4833
9.87884	0.4072
9.91235	0.3473
9.94586	0.331
9.97937	0.3526
10.0129	0.4376
10.0464	0.5559
10.0799	0.6686
10.1134	0.7406
10.1469	0.7848
10.1804	0.812
10.2139	0.8391
10.2474	0.8558
10.281	0.8618
10.3145	0.8624
10.348	0.8665
10.3815	0.8632
10.415	0.8292
10.4485	0.7442
10.482	0.6516
10.5155	0.6374
10.549	0.6773
10.5825	0.745
10.6161	0.8097
10.6496	0.8482
10.6831	0.8705
10.7166	0.8886
10.7501	0.9003
10.7836	0.913
10.8171	0.9169
10.8506	0.9217
10.8841	0.922
10.9176	0.922
10.9512	0.9123
10.9847	0.913
11.0182	0.912
11.0517	0.912
11.0852	0.9122
11.1187	0.913
11.1522	0.913
11.1857	0.912
11.2192	0.9101
11.2527	0.91
11.2863	0.91
11.3198	0.9006
11.3533	0.891
11.3868	0.8752
11.4203	0.864
11.4538	0.8587
11.4873	0.8521
11.5208	0.8307
11.5543	0.794
11.5878	0.7265
11.6214	0.6586
11.6549	0.5984
11.6884	0.5548
11.7219	0.53
11.7554	0.551
11.7889	0.6434
11.8224	0.7344
11.8559	0.7856
11.8894	0.8076
11.923	0.8152
11.9565	0.8271
11.99	0.8409
12.0235	0.8538
12.057	0.8723
12.0905	0.887
12.124	0.898
12.1575	0.9049
12.191	0.912
12.2245	0.912
12.2581	0.913
12.2916	0.915
12.3251	0.918
12.3586	0.922
12.3921	0.927
12.4256	0.929
12.4591	0.929
12.4926	0.93
12.5261	0.9331
12.5596	0.934
12.5932	0.934
12.6267	0.934
12.6602	0.9355
12.6937	0.9367
12.7272	0.935
12.7607	0.934
12.7942	0.932
12.8277	0.935
12.8612	0.937
12.8947	0.935
12.9283	0.9345
12.9618	0.934
12.9953	0.9346
13.0288	0.9334
13.0623	0.9315
13.0958	0.93
13.1293	0.9339
13.1628	0.934
13.1963	0.9336
13.2298	0.932
13.2634	0.9327
13.2969	0.934
13.3304	0.937
13.3639	0.9346
13.3974	0.935
13.4309	0.934
13.4644	0.935
13.4979	0.935
13.5314	0.934
13.5649	0.9341
13.5985	0.935
13.632	0.932
13.6655	0.932
13.699	0.932
13.7325	0.932
13.766	0.93
13.7995	0.932
13.833	0.9317
13.8665	0.93
13.9	0.932
13.9336	0.934
13.9671	0.939
14.0006	0.9374
14.0341	0.9356
14.0676	0.9396
14.1011	0.939
14.1346	0.934
14.1681	0.9285
14.2016	0.9196
14.2351	0.915
14.2687	0.91
14.3022	0.9021
14.3357	0.8882
14.3692	0.876
14.4027	0.8573
14.4362	0.8449
14.4697	0.8286
14.5032	0.8126
14.5367	0.793
14.5702	0.7702
14.6038	0.7543
14.6373	0.7384
14.6708	0.714
14.7043	0.7041
14.7378	0.6922
14.7713	0.6853
14.8048	0.6761
14.8383	0.6709
14.8718	0.663
14.9053	0.662
14.9389	0.663
14.9724	0.662
15.0059	0.658
15.0394	0.6579
15.0729	0.655
15.1064	0.6352
15.1399	0.5634
15.1734	0.4533
15.2069	0.3079
15.2404	0.2531
15.274	0.2188
15.3075	0.2002
15.341	0.194
15.3745	0.1898
15.408	0.189
