Infrared Spectrum: Neodecanoic acid
Formula: C 10 H 20 O 2
CAS: 26896-20-8
State: gas
Origin: EPA-IR VAPOR PHASE LIBRARY
1/CM	ABSORBANCE
549.8	0.005346
559.445	0.006356
569.09	0.008456
578.734	0.010306
588.379	0.010396
598.024	0.009746
607.669	0.008276
617.313	0.006106
626.958	0.003566
636.603	0.001916
646.248	0.001466
655.893	0.0010343
665.537	0.0010387
675.182	0.0010058
684.827	0.001476
694.472	0.002436
704.116	0.003146
713.761	0.003266
723.406	0.002536
733.051	0.002246
742.695	0.002606
752.34	0.003316
761.985	0.003676
771.63	0.003466
781.275	0.002786
790.919	0.002096
800.564	0.001596
810.209	0.0009861
819.854	0.000846
829.498	0.0010023
839.143	0.00079
848.788	0.0008424
858.433	0.0008092
868.078	0.0007469
877.722	0.0007678
887.367	0.0009259
897.012	0.0008439
906.657	0.0009605
916.301	0.0008363
925.946	0.001216
935.591	0.001146
945.236	0.001166
954.88	0.0010189
964.525	0.001146
974.17	0.0011059
983.815	0.001476
993.46	0.001836
1003.1	0.002776
1012.75	0.003086
1022.39	0.003396
1032.04	0.003816
1041.68	0.005076
1051.33	0.006316
1060.97	0.008196
1070.62	0.010776
1080.26	0.015526
1089.91	0.022626
1099.55	0.030186
1109.2	0.032006
1118.84	0.026186
1128.49	0.016846
1138.13	0.010636
1147.78	0.007556
1157.42	0.005776
1167.07	0.005646
1176.71	0.005696
1186.36	0.006166
1196	0.006126
1205.64	0.005286
1215.29	0.003426
1224.93	0.002286
1234.58	0.001986
1244.22	0.001746
1253.87	0.001956
1263.51	0.002426
1273.16	0.002766
1282.8	0.002946
1292.45	0.003146
1302.09	0.003236
1311.74	0.003106
1321.38	0.002896
1331.03	0.002816
1340.67	0.002886
1350.32	0.002926
1359.96	0.003246
1369.61	0.004186
1379.25	0.006226
1388.9	0.007366
1398.54	0.004966
1408.18	0.002416
1417.83	0.001776
1427.47	0.001866
1437.12	0.002626
1446.76	0.004326
1456.41	0.007166
1466.05	0.008876
1475.7	0.007206
1485.34	0.003816
1494.99	0.001986
1504.63	0.001356
1514.28	0.001136
1523.92	0.0009634
1533.57	0.0009221
1543.21	0.0007814
1552.86	0.0007593
1562.5	0.0007013
1572.15	0.0006206
1581.79	0.0006241
1591.44	0.0006117
1601.08	0.0006288
1610.73	0.0005779
1620.37	0.0005843
1630.01	0.0006106
1639.66	0.0006276
1649.3	0.0006391
1658.95	0.0007467
1668.59	0.0008589
1678.24	0.0010487
1687.88	0.001386
1697.53	0.002036
1707.17	0.003026
1716.82	0.004496
1726.46	0.006016
1736.11	0.009386
1745.75	0.022696
1755.4	0.050886
1765.04	0.051696
1774.69	0.020886
1784.33	0.008486
1793.98	0.005526
1803.62	0.003626
1813.27	0.002396
1822.91	0.001666
1832.55	0.001156
1842.2	0.0008251
1851.84	0.0006481
1861.49	0.0005165
1871.13	0.0004671
1880.78	0.0003979
1890.42	0.0004362
1900.07	0.0004026
1909.71	0.0003636
1919.36	0.0003251
1929	0.0003615
1938.65	0.0003527
1948.29	0.0003241
1957.94	0.0002742
1967.58	0.0002768
1977.23	0.0002825
1986.87	0.0002666
1996.52	0.0002912
2006.16	0.0002557
2015.81	0.0002945
2025.45	0.0002425
2035.1	0.0002368
2044.74	0.0003182
2054.38	0.0003137
2064.03	0.000289
2073.67	0.0002554
2083.32	0.0002817
2092.96	0.0002667
2102.61	0.0002527
2112.25	0.0002787
2121.9	0.0002706
2131.54	0.0003169
2141.19	0.0003414
2150.83	0.0003117
2160.48	0.0003351
2170.12	0.0003256
2179.77	0.0003223
2189.41	0.000398
2199.06	0.0003969
2208.7	0.0003619
2218.35	0.0003588
2227.99	0.0003632
2237.64	0.0003155
2247.28	0.0002836
2256.92	0.0002806
2266.57	0.0002679
2276.21	0.0002889
2285.86	0.0003004
2295.5	0.0003085
2305.15	0.0003504
2314.79	0.0003105
2324.44	0.0003217
2334.08	0.0003312
2343.73	0.0003219
2353.37	0.0003681
2363.02	0.0003993
2372.66	0.0004124
2382.31	0.0003529
2391.95	0.0003944
2401.6	0.0003422
2411.24	0.000425
2420.89	0.0003727
2430.53	0.0003508
2440.18	0.000332
2449.82	0.0003572
2459.47	0.0003589
2469.11	0.0003426
2478.75	0.000296
2488.4	0.0003253
2498.04	0.000284
2507.69	0.0003412
2517.33	0.0003443
2526.98	0.0002821
2536.62	0.0003607
2546.27	0.0003232
2555.91	0.0003835
2565.56	0.0003768
2575.2	0.0003746
2584.85	0.0003619
2594.49	0.0004485
2604.14	0.0004575
2613.78	0.0003982
2623.43	0.0004622
2633.07	0.0004112
2642.72	0.0005111
2652.36	0.0004916
2662.01	0.0004883
2671.65	0.0005801
2681.29	0.0005519
2690.94	0.0005443
2700.58	0.0005641
2710.23	0.0005769
2719.87	0.0006179
2729.52	0.0007232
2739.16	0.0009361
2748.81	0.0010278
2758.45	0.0010279
2768.1	0.0010287
2777.74	0.001027
2787.39	0.001206
2797.03	0.001266
2806.68	0.001506
2816.32	0.001786
2825.97	0.001996
2835.61	0.002666
2845.26	0.003516
2854.9	0.005546
2864.55	0.009036
2874.19	0.013156
2883.84	0.016506
2893.48	0.016016
2903.12	0.014586
2912.77	0.016216
2922.41	0.020306
2932.06	0.026356
2941.7	0.032126
2951.35	0.032356
2960.99	0.035256
2970.64	0.041556
2980.28	0.034786
2989.93	0.023516
2999.57	0.013646
3009.22	0.007026
3018.86	0.004146
3028.51	0.003016
3038.15	0.002316
3047.8	0.001826
3057.44	0.001606
3067.09	0.001386
3076.73	0.001276
3086.38	0.001121
3096.02	0.001196
3105.67	0.0009579
3115.31	0.0009471
3124.95	0.0009751
3134.6	0.0008069
3144.24	0.0008605
3153.89	0.0007387
3163.53	0.0007664
3173.18	0.0006603
3182.82	0.0006422
3192.47	0.0006857
3202.11	0.0005774
3211.76	0.0004613
3221.4	0.000393
3231.05	0.0004085
3240.69	0.0003445
3250.34	0.000328
3259.98	0.0002806
3269.63	0.0002626
3279.27	0.0003207
3288.92	0.0003462
3298.56	0.0002907
3308.21	0.0002563
3317.85	0.00013651
3327.49	0.00018148
3337.14	0.00014638
3346.78	0.0002296
3356.43	0.00022103
3366.07	0.000105
3375.72	0.0002373
3385.36	0.0002242
3395.01	0.0003123
3404.65	0.0002924
3414.3	0.00020389
3423.94	0.0003039
3433.59	0.00015741
3443.23	0.00017901
3452.88	0.00015668
3462.52	0.0003858
3472.17	0.000324
3481.81	0.0003368
3491.46	0.0004657
3501.1	0.0006549
3510.75	0.000603
3520.39	0.0004071
3530.04	0.0006071
3539.68	0.0007255
3549.32	0.002046
3558.97	0.009326
3568.61	0.018396
3578.26	0.012356
3587.9	0.002796
3597.55	0.0007897
3607.19	0.0006339
3616.84	0.0006536
3626.48	0.0005736
3636.13	0.0003986
3645.77	0.000323
3655.42	0.0002852
3665.06	0.0002802
3674.71	0.0003211
3684.35	0.0003205
3694	0.0003117
3703.64	0.0002346
3713.29	0.00020698
3722.93	0.00014357
3732.58	0.00017355
3742.22	0.0002367
3751.86	0.00018839
3761.51	0.00018593
3771.15	0.000276
3780.8	8e-06
3790.44	0.0002368
3800.09	7.31e-05
3809.73	0.0003223
3819.38	0.0003353
3829.02	0.0002445
3838.67	0.0002187
3848.31	0.0001094
3857.96	0.000127926
3867.6	0.0002322
3877.25	0.00020531
3886.89	0.0002623
3896.54	0.0002398
3906.18	0.0003021
3915.83	0.0003106
3925.47	0.0003237
3935.12	0.0002428
3944.76	0.00020087
3954.41	0.00018669
3964.05	0.00015206
3973.69	7.68e-05
3983.34	0.0002303
3992.98	0.0002478
