Infrared Spectrum: 3-Cyclopentylcyclopentene
Formula: C 10 H 16
CAS: 2690-17-7
State: gas
Instrument: HP-GC/MS/IRD
Origin: NIST Mass Spectrometry Data Center
1/CM	ABSORBANCE
550	0.0004828
562	0.000272
574	0.0003502
586	0.0002244
598	0.000153
610	5.78e-05
622	0.0002142
634	0.0001054
646	0.000153
658	0.0003128
670	0.000425
682	0.0006834
694	0.0012546
706	0.0023664
718	0.003689
730	0.0032708
742	0.0019516
754	0.000986
766	0.000646
778	0.0004488
790	0.0002278
802	0.0001802
814	0.000119
826	0.000136
838	8.16e-05
850	8.5e-05
862	0.0001054
874	0.0001734
886	0.0006256
898	0.0011016
910	0.0010846
922	0.0007378
934	0.0005916
946	0.0004114
958	0.0002414
970	0.000323
982	0.0003842
994	0.0004998
1006	0.0005644
1018	0.0004658
1030	0.0003944
1042	0.0003094
1054	0.0001904
1066	0.0001938
1078	0.0002278
1090	0.000187
1102	0.0001496
1114	0.0002686
1126	0.0002822
1138	0.0002754
1150	0.0002108
1162	0.0002142
1174	0.0002312
1186	0.0002448
1198	0.0002482
1210	0.0002584
1222	0.0002924
1234	0.000408
1246	0.0005032
1258	0.0005168
1270	0.0005542
1282	0.0005066
1294	0.0004828
1306	0.0004828
1318	0.000374
1330	0.0003196
1342	0.0005134
1354	0.0007718
1366	0.0007106
1378	0.0003604
1390	0.0001904
1402	0.0002244
1414	0.0002992
1426	0.0004284
1438	0.0007752
1450	0.0013396
1462	0.0015028
1474	0.0011288
1486	0.0007208
1498	0.0003366
1510	0.0001972
1522	0.000119
1534	6.46e-05
1546	4.76e-05
1558	4.76e-05
1570	2.38e-05
1582	5.44e-05
1594	0.0001122
1606	0.000238
1618	0.0003094
1630	0.0002516
1642	0.000323
1654	0.0003808
1666	0.0002686
1678	0.0001598
1690	8.5e-05
1702	3.4e-05
1714	2.72e-05
1726	3.4e-06
1738	1.02e-05
1750	0
1762	3.4e-05
1774	2.04e-05
1786	2.04e-05
1798	1.7e-05
1810	0
1822	6.8e-06
1834	1.36e-05
1846	3.06e-05
1858	7.82e-05
1870	7.48e-05
1882	5.78e-05
1894	5.44e-05
1906	4.76e-05
1918	4.42e-05
1930	6.8e-05
1942	9.18e-05
1954	7.14e-05
1966	5.1e-05
1978	5.44e-05
1990	5.78e-05
2002	6.46e-05
2014	6.8e-05
2026	8.5e-05
2038	7.14e-05
2050	7.14e-05
2062	6.8e-05
2074	6.12e-05
2086	6.12e-05
2098	5.78e-05
2110	7.48e-05
2122	7.82e-05
2134	9.18e-05
2146	8.5e-05
2158	0.000102
2170	0.0001258
2182	0.0001598
2194	0.000153
2206	0.0001394
2218	0.0001394
2230	0.0001224
2242	0.0001088
2254	0.0001088
2266	0.0001224
2278	0.0001122
2290	0.0001088
2302	8.84e-05
2314	0.0001258
2326	0.0001122
2338	0.000136
2350	0.000136
2362	7.82e-05
2374	7.82e-05
2386	7.48e-05
2398	8.16e-05
2410	6.46e-05
2422	8.16e-05
2434	6.8e-05
2446	6.8e-05
2458	8.5e-05
2470	8.84e-05
2482	0.0001258
2494	0.0001122
2506	9.52e-05
2518	0.0001122
2530	0.0001258
2542	0.0001326
2554	0.0001496
2566	0.00017
2578	0.0001666
2590	0.0001836
2602	0.000187
2614	0.000187
2626	0.0001836
2638	0.0001734
2650	0.000204
2662	0.0001904
2674	0.0002006
2686	0.0002006
2698	0.000204
2710	0.0002278
2722	0.0002584
2734	0.000255
2746	0.0003264
2758	0.0003876
2770	0.0004488
2782	0.0006188
2794	0.0008364
2806	0.0011696
2818	0.0017442
2830	0.0027812
2842	0.0050354
2854	0.0097512
2866	0.0141066
2878	0.0155142
2890	0.0129336
2902	0.0114546
2914	0.0127772
2926	0.0155346
2938	0.0212432
2950	0.0309128
2962	0.031875
2974	0.0165988
2986	0.0064328
2998	0.003315
3010	0.002193
3022	0.0016082
3034	0.001683
3046	0.0033354
3058	0.005644
3070	0.003876
3082	0.0011628
3094	0.0004386
3106	0.0002856
3118	0.0002618
3130	0.000238
3142	0.0001938
3154	0.0002074
3166	0.00017
3178	0.000153
3190	0.0001394
3202	0.000187
3214	0.0002176
3226	0.0002006
3238	0.0001224
3250	0.0001224
3262	0.0001258
3274	9.52e-05
3286	8.84e-05
3298	0.0001088
3310	9.52e-05
3322	8.16e-05
3334	0.0001088
3346	7.48e-05
3358	8.5e-05
3370	8.84e-05
3382	6.46e-05
3394	9.52e-05
3406	9.18e-05
3418	7.48e-05
3430	0.0001156
3442	8.5e-05
3454	0.0001088
3466	9.86e-05
3478	7.82e-05
3490	0.0001224
3502	0.0001394
3514	0.0001292
3526	0.0001394
3538	0.0001632
3550	0.0001462
3562	0.0001428
3574	0.0001394
3586	0.0001088
3598	0.000119
3610	0.0001292
3622	0.0001632
3634	0.0001292
3646	0.000153
3658	0.0001598
3670	0.0001428
3682	0.00017
3694	0.0001734
3706	0.000187
3718	0.0001972
3730	0.00017
3742	0.0001938
3754	0.00017
3766	0.0002006
3778	0.0002176
3790	0.0002244
3802	0.0002244
3814	0.0002754
3826	0.0002958
3838	0.0003094
