Infrared Spectrum: 2-Benzyl-4,4-6-trimethyl-5,6-dihydro-1,3-oxazine
Formula: C 14 H 19 N O
CAS: 26939-22-0
State: gas
Origin: EPA-IR VAPOR PHASE LIBRARY
1/CM	ABSORBANCE
549.8	0.0046459
559.445	0.0128259
569.09	0.0182259
578.734	0.0087459
588.379	0.0056659
598.024	0.0043559
607.669	0.0061959
617.313	0.0090459
626.958	0.0093159
636.603	0.0053259
646.248	0.0046759
655.893	0.0064759
665.537	0.0104559
675.182	0.0170259
684.827	0.0349859
694.472	0.0656559
704.116	0.0848559
713.761	0.0676759
723.406	0.0369959
733.051	0.0271959
742.695	0.0325059
752.34	0.0392159
761.985	0.0193759
771.63	0.0083559
781.275	0.0055159
790.919	0.0050259
800.564	0.0052459
810.209	0.0052459
819.854	0.0074359
829.498	0.0140359
839.143	0.0258859
848.788	0.0237459
858.433	0.0162059
868.078	0.0143359
877.722	0.0126159
887.367	0.0166259
897.012	0.0247059
906.657	0.0173859
916.301	0.0145559
925.946	0.0176359
935.591	0.0300559
945.236	0.0377359
954.88	0.0219259
964.525	0.0176059
974.17	0.0147859
983.815	0.0157359
993.46	0.0228859
1003.1	0.0211659
1012.75	0.0140459
1022.39	0.0192459
1032.04	0.0326759
1041.68	0.0451959
1051.33	0.0604159
1060.97	0.0370559
1070.62	0.0362959
1080.26	0.0526559
1089.91	0.0443759
1099.55	0.0242059
1109.2	0.0232059
1118.84	0.0362559
1128.49	0.0686159
1138.13	0.127006
1147.78	0.170616
1157.42	0.126866
1167.07	0.0834659
1176.71	0.0825059
1186.36	0.0856559
1196	0.0713359
1205.64	0.0549759
1215.29	0.0505959
1224.93	0.0544559
1234.58	0.0801159
1244.22	0.123016
1253.87	0.197156
1263.51	0.180906
1273.16	0.0915359
1282.8	0.0551159
1292.45	0.0547559
1302.09	0.0560159
1311.74	0.0420259
1321.38	0.0350159
1331.03	0.0284259
1340.67	0.0258659
1350.32	0.0372259
1359.96	0.0583059
1369.61	0.0698959
1379.25	0.0616659
1388.9	0.0442159
1398.54	0.0171059
1408.18	0.0119359
1417.83	0.0153559
1427.47	0.0267959
1437.12	0.0389959
1446.76	0.0451859
1456.41	0.0434659
1466.05	0.0324159
1475.7	0.0217359
1485.34	0.0220959
1494.99	0.0473159
1504.63	0.0219959
1514.28	0.0072859
1523.92	0.0059259
1533.57	0.0057859
1543.21	0.0055159
1552.86	0.0056959
1562.5	0.0067359
1572.15	0.0090759
1581.79	0.0125359
1591.44	0.0215959
1601.08	0.0359459
1610.73	0.0274859
1620.37	0.0179959
1630.01	0.0239159
1639.66	0.0404059
1649.3	0.0878759
1658.95	0.200276
1668.59	0.323626
1678.24	0.238386
1687.88	0.110626
1697.53	0.0479959
1707.17	0.0249859
1716.82	0.0168159
1726.46	0.0127659
1736.11	0.0109059
1745.75	0.0098359
1755.4	0.0083859
1765.04	0.0074259
1774.69	0.0074259
1784.33	0.0084859
1793.98	0.0094759
1803.62	0.0072459
1813.27	0.0053959
1822.91	0.0045459
1832.55	0.0044859
1842.2	0.0044059
1851.84	0.0045559
1861.49	0.0052059
1871.13	0.0057859
1880.78	0.0057659
1890.42	0.0051959
1900.07	0.0043659
1909.71	0.0041459
1919.36	0.0046559
1929	0.0058659
1938.65	0.0066059
1948.29	0.0064659
1957.94	0.0044259
1967.58	0.0027359
1977.23	0.0024859
1986.87	0.0026059
1996.52	0.0026259
2006.16	0.0023959
2015.81	0.0020459
2025.45	0.0019459
2035.1	0.0019159
2044.74	0.0019259
2054.38	0.0019259
2064.03	0.0017459
2073.67	0.0018259
2083.32	0.0016359
2092.96	0.0016659
2102.61	0.0017359
2112.25	0.0015959
2121.9	0.0015959
2131.54	0.0017559
2141.19	0.0016859
2150.83	0.0017659
2160.48	0.0017059
2170.12	0.0017059
2179.77	0.0015659
2189.41	0.0016259
2199.06	0.0013859
2208.7	0.0013159
2218.35	0.0013859
2227.99	0.0014159
2237.64	0.0012759
2247.28	0.0013759
2256.92	0.0014859
2266.57	0.0013659
2276.21	0.0012559
2285.86	0.0015559
2295.5	0.0017759
2305.15	0.0019459
2314.79	0.0021059
2324.44	0.0016059
2334.08	0.0014659
2343.73	0.0015759
2353.37	0.0015659
2363.02	0.0015859
2372.66	0.0014159
2382.31	0.0013759
2391.95	0.0012059
2401.6	0.0013159
2411.24	0.0011759
2420.89	0.0012559
2430.53	0.0015459
2440.18	0.0016259
2449.82	0.0016859
2459.47	0.0016759
2469.11	0.0015459
2478.75	0.0012059
2488.4	0.0012659
2498.04	0.0014859
2507.69	0.0018059
2517.33	0.0018459
2526.98	0.0019559
2536.62	0.0022159
2546.27	0.0020859
2555.91	0.0017159
2565.56	0.0018859
2575.2	0.0017959
2584.85	0.0017959
2594.49	0.0019759
2604.14	0.0019859
2613.78	0.0022459
2623.43	0.0024459
2633.07	0.0027859
2642.72	0.0029659
2652.36	0.0029259
2662.01	0.0024459
2671.65	0.0021459
2681.29	0.0019259
2690.94	0.0019859
2700.58	0.0024459
2710.23	0.0029859
2719.87	0.0039459
2729.52	0.0043859
2739.16	0.0040859
2748.81	0.0039559
2758.45	0.0041759
2768.1	0.0038759
2777.74	0.0038459
2787.39	0.0042259
2797.03	0.0047959
2806.68	0.0059759
2816.32	0.0071859
2825.97	0.0091859
2835.61	0.0132959
2845.26	0.0219059
2854.9	0.0262159
2864.55	0.0317059
2874.19	0.0426059
2883.84	0.0455159
2893.48	0.0508559
2903.12	0.0747059
2912.77	0.104886
2922.41	0.123216
2932.06	0.153366
2941.7	0.195606
2951.35	0.0985159
2960.99	0.102986
2970.64	0.214366
2980.28	0.240416
2989.93	0.116946
2999.57	0.0348759
3009.22	0.0232159
3018.86	0.0281359
3028.51	0.0468759
3038.15	0.0573859
3047.8	0.0370059
3057.44	0.0376459
3067.09	0.0626859
3076.73	0.0505859
3086.38	0.0330759
3096.02	0.0249859
3105.67	0.0176259
3115.31	0.0116759
3124.95	0.0063459
3134.6	0.0042359
3144.24	0.0033159
3153.89	0.0034259
3163.53	0.0035959
3173.18	0.0036659
3182.82	0.0034959
3192.47	0.0033959
3202.11	0.0036059
3211.76	0.0030859
3221.4	0.0023259
3231.05	0.0017959
3240.69	0.0015759
3250.34	0.0014259
3259.98	0.0017659
3269.63	0.0016159
3279.27	0.0015659
3288.92	0.0018459
3298.56	0.0023059
3308.21	0.0033459
3317.85	0.0036959
3327.49	0.0036359
3337.14	0.0026959
3346.78	0.0015759
3356.43	0.0010859
3366.07	0.0009125
3375.72	0.0008061
3385.36	0.0010559
3395.01	0.0008548
3404.65	0.0010959
3414.3	0.0010459
3423.94	0.0009167
3433.59	0.0008861
3443.23	0.0011359
3452.88	0.0009584
3462.52	0.0005035
3472.17	0.0005728
3481.81	0.0003502
3491.46	0.0004382
3501.1	0.0005912
3510.75	0.0002551
3520.39	0.0002931
3530.04	0.0002586
3539.68	0.0004115
3549.32	3.875e-05
3558.97	0.0004092
3568.61	0.0004479
3578.26	9.417e-05
3587.9	0.0002131
3597.55	0.00053
3607.19	0.0004391
3616.84	0.0003646
3626.48	0.0004022
3636.13	0.0005595
3645.77	0.0004521
3655.42	0.000839
3665.06	0.0008518
3674.71	0.0005122
3684.35	0.0004109
3694	0.0006826
3703.64	0.0007826
3713.29	0.0004849
3722.93	0.0006861
3732.58	0.0008146
3742.22	0.0003894
3751.86	0.000523
3761.51	0.000761
3771.15	0.0008653
3780.8	0.0006375
3790.44	0.0006663
3800.09	0.0008617
3809.73	0.0008602
3819.38	0.0010759
3829.02	0.0011859
3838.67	0.0009632
3848.31	0.0007914
3857.96	0.0008017
3867.6	0.0009156
3877.25	0.0011859
3886.89	0.0009403
3896.54	0.0006671
3906.18	0.0010459
3915.83	0.0003954
3925.47	0.0011459
3935.12	0.0008685
3944.76	0.0008506
3954.41	0.000911
3964.05	0.0011059
3973.69	0.0009177
3983.34	0.0011959
3992.98	0.0010359
