Infrared Spectrum: 2,4,4,6-Tetramethyl-1-oxa-3-aza-2-cyclohexene
Formula: C 8 H 15 N O
CAS: 26939-18-4
State: gas
Instrument: HP-GC/MS/IRD
Origin: NIST Mass Spectrometry Data Center
1/CM	ABSORBANCE
550	0.0002278
562	3.06e-05
574	0.0001496
586	0.000119
598	0.0003502
610	0.0004692
622	0.001224
634	0.0018122
646	0.000867
658	0.0003264
670	0.0001802
682	0.0002006
694	0.0002108
706	0.0002142
718	0.000187
730	0.000255
742	0.0003026
754	0.0002958
766	0.0004284
778	0.0006902
790	0.0008806
802	0.0007344
814	0.0007038
826	0.0015912
838	0.0035394
850	0.0028084
862	0.0015232
874	0.0014926
886	0.0016048
898	0.0026724
910	0.002601
922	0.002363
934	0.0042942
946	0.0045492
958	0.0025058
970	0.0028424
982	0.0040664
994	0.003145
1006	0.0017
1018	0.0015164
1030	0.0030226
1042	0.006545
1054	0.0068782
1066	0.00459
1078	0.0059058
1090	0.006018
1102	0.0031348
1114	0.0021012
1126	0.0027336
1138	0.0046546
1150	0.0051578
1162	0.0046444
1174	0.0084184
1186	0.0147968
1198	0.0151436
1210	0.0119748
1222	0.009231
1234	0.0125766
1246	0.0282948
1258	0.032674
1270	0.0148886
1282	0.0055896
1294	0.0046886
1306	0.003791
1318	0.0019414
1330	0.0015742
1342	0.0019788
1354	0.0044744
1366	0.0109718
1378	0.0143718
1390	0.008534
1402	0.0022882
1414	0.0014722
1426	0.0023256
1438	0.0042228
1450	0.0050966
1462	0.0041072
1474	0.002703
1486	0.0014144
1498	0.0008602
1510	0.0007276
1522	0.0007242
1534	0.0007752
1546	0.0008976
1558	0.0009486
1570	0.000918
1582	0.0009486
1594	0.00102
1606	0.0010812
1618	0.0013974
1630	0.0024106
1642	0.005049
1654	0.0126684
1666	0.0276182
1678	0.0334934
1690	0.020876
1702	0.0099892
1714	0.0038488
1726	0.001938
1738	0.0013056
1750	0.0009044
1762	0.0007752
1774	0.000731
1786	0.0005814
1798	0.0005236
1810	0.0005338
1822	0.0005202
1834	0.0004794
1846	0.0004386
1858	0.0003468
1870	0.000357
1882	0.0003842
1894	0.0003332
1906	0.0003264
1918	0.00034
1930	0.0002754
1942	0.0002278
1954	0.000204
1966	0.0001938
1978	0.0002244
1990	0.0002006
2002	0.0001326
2014	0.0001224
2026	0.000153
2038	0.0001836
2050	0.0001428
2062	0.0001394
2074	0.0001496
2086	0.0001496
2098	0.0001632
2110	0.0001292
2122	0.0001156
2134	0.0001156
2146	0.0001326
2158	0.0001326
2170	0.0001224
2182	8.84e-05
2194	6.46e-05
2206	4.42e-05
2218	6.46e-05
2230	5.78e-05
2242	5.44e-05
2254	2.38e-05
2266	3.4e-06
2278	6.46e-05
2290	6.46e-05
2302	8.16e-05
2314	6.8e-05
2326	5.44e-05
2338	3.74e-05
2350	1.7e-05
2362	5.1e-05
2374	3.06e-05
2386	3.06e-05
2398	6.12e-05
2410	5.44e-05
2422	8.84e-05
2434	8.16e-05
2446	0.0001088
2458	9.86e-05
2470	0.0001088
2482	8.84e-05
2494	7.82e-05
2506	8.84e-05
2518	9.18e-05
2530	0.0001462
2542	0.000187
2554	0.000187
2566	0.000153
2578	0.0001258
2590	0.0001258
2602	0.0001224
2614	0.000187
2626	0.0001972
2638	0.0003128
2650	0.0003264
2662	0.0002788
2674	0.0002074
2686	0.0002142
2698	0.000221
2710	0.0002992
2722	0.000442
2734	0.000476
2746	0.0005032
2758	0.0004046
2770	0.000408
2782	0.0004318
2794	0.0005678
2806	0.0007548
2818	0.0010064
2830	0.0012784
2842	0.002074
2854	0.0032538
2866	0.0045016
2878	0.0055046
2890	0.0063784
2902	0.0091324
2914	0.012818
2926	0.0161942
2938	0.021488
2950	0.0163098
2962	0.0152864
2974	0.026962
2986	0.0230792
2998	0.0074766
3010	0.0023392
3022	0.0017748
3034	0.0012954
3046	0.0008772
3058	0.0008092
3070	0.0008398
3082	0.0008568
3094	0.0008296
3106	0.0007446
3118	0.000663
3130	0.0005916
3142	0.0003944
3154	0.0003978
3166	0.0003808
3178	0.0003842
3190	0.0004216
3202	0.0004182
3214	0.000391
3226	0.0003026
3238	0.0002278
3250	0.0002074
3262	0.0001836
3274	0.000238
3286	0.000153
3298	0.000238
3310	0.0003468
3322	0.0004692
3334	0.0004284
3346	0.0004012
3358	0.000323
3370	0.0001904
3382	0.0002244
3394	0.000102
3406	0.0001428
3418	0.0002244
3430	0.0001802
3442	0.0001904
3454	0.0001054
3466	0.000136
3478	0.0001598
3490	0.000102
3502	7.48e-05
3514	8.16e-05
3526	8.5e-05
3538	0.0001292
3550	9.18e-05
3562	0.0001394
3574	0.000102
3586	6.8e-05
3598	0.0001292
3610	8.16e-05
3622	0.0001156
3634	0
3646	2.38e-05
3658	4.76e-05
3670	0.0001394
3682	8.84e-05
3694	9.86e-05
3706	0.0001122
3718	7.82e-05
3730	0.0001258
3742	0.0001156
3754	6.8e-05
3766	0.000187
3778	0.0001972
3790	0.0001802
3802	0.0001496
3814	0.0001802
3826	0.0002414
3838	0.0001734
