Infrared Spectrum: Triallyl trimellite
Formula: C 18 H 18 O 6
CAS: 2694-54-4
State: gas
Origin: EPA-IR VAPOR PHASE LIBRARY
1/CM	ABSORBANCE
549.9	0.01189
559.547	0.01122
569.193	0.00993
578.84	0.00876
588.486	0.00764
598.133	0.00722
607.779	0.0073
617.426	0.0078
627.072	0.00909
636.719	0.01059
646.365	0.01092
656.012	0.01018
665.658	0.01056
675.305	0.00853
684.951	0.00813
694.598	0.00867
704.245	0.01003
713.891	0.01231
723.538	0.01717
733.184	0.01714
742.831	0.02127
752.477	0.03522
762.124	0.03072
771.77	0.01968
781.417	0.01531
791.063	0.01545
800.71	0.01727
810.356	0.01959
820.003	0.01756
829.649	0.01437
839.296	0.01265
848.943	0.01508
858.589	0.01774
868.236	0.01401
877.882	0.01478
887.529	0.0168
897.175	0.02085
906.822	0.02989
916.468	0.04864
926.115	0.07446
935.761	0.07873
945.408	0.0528
955.054	0.05099
964.701	0.07355
974.347	0.09793
983.994	0.12197
993.64	0.08186
1003.29	0.04671
1012.93	0.03244
1022.58	0.02768
1032.23	0.02792
1041.87	0.03592
1051.52	0.06737
1061.17	0.12217
1070.81	0.09057
1080.46	0.06651
1090.11	0.09461
1099.75	0.20219
1109.4	0.28178
1119.05	0.2286
1128.69	0.15443
1138.34	0.11496
1147.99	0.09117
1157.63	0.05285
1167.28	0.03848
1176.92	0.03397
1186.57	0.0376
1196.22	0.05204
1205.86	0.08993
1215.51	0.19422
1225.16	0.43757
1234.8	0.49288
1244.45	0.34332
1254.1	0.25649
1263.74	0.19238
1273.39	0.22505
1283.04	0.25164
1292.68	0.21239
1302.33	0.17389
1311.98	0.0824
1321.62	0.04197
1331.27	0.02935
1340.92	0.02601
1350.56	0.03254
1360.21	0.05163
1369.86	0.03869
1379.5	0.02851
1389.15	0.024
1398.79	0.02748
1408.44	0.03246
1418.09	0.02639
1427.73	0.02377
1437.38	0.02377
1447.03	0.02864
1456.67	0.0315
1466.32	0.02194
1475.97	0.01669
1485.61	0.01885
1495.26	0.019
1504.91	0.0142
1514.55	0.01162
1524.2	0.01055
1533.85	0.00999
1543.49	0.00955
1553.14	0.00977
1562.79	0.01135
1572.43	0.01288
1582.08	0.01017
1591.73	0.00935
1601.37	0.01035
1611.02	0.01229
1620.67	0.01103
1630.31	0.0115
1639.96	0.01477
1649.6	0.01796
1659.25	0.0138
1668.9	0.0125
1678.54	0.01353
1688.19	0.01672
1697.84	0.02369
1707.48	0.03291
1717.13	0.04586
1726.78	0.08072
1736.42	0.21676
1746.07	0.46747
1755.72	0.29192
1765.36	0.12043
1775.01	0.05566
1784.66	0.0342
1794.3	0.02341
1803.95	0.01756
1813.6	0.01449
1823.24	0.01269
1832.89	0.01155
1842.54	0.01095
1852.18	0.01119
1861.83	0.01158
1871.47	0.01112
1881.12	0.00936
1890.77	0.0082
1900.41	0.00749
1910.06	0.0069624
1919.71	0.0067858
1929.35	0.00705
1939	0.00727
1948.65	0.0068725
1958.29	0.0061402
1967.94	0.005774
1977.59	0.005579
1987.23	0.00537
1996.88	0.005205
2006.53	0.005093
2016.17	0.005099
2025.82	0.005209
2035.47	0.005264
2045.11	0.005212
2054.76	0.005164
2064.41	0.005179
2074.05	0.005314
2083.7	0.005389
2093.35	0.005283
2102.99	0.005137
2112.64	0.00492
2122.28	0.00462
2131.93	0.00441
2141.58	0.00432
2151.22	0.00431
2160.87	0.00439
2170.52	0.00443
2180.16	0.00442
2189.81	0.00443
2199.46	0.00441
2209.1	0.0043
2218.75	0.00419
2228.4	0.00409
2238.04	0.004
2247.69	0.0039
2257.34	0.00386
2266.98	0.00388
2276.63	0.0039
2286.28	0.00391
2295.92	0.00393
2305.57	0.00394
2315.22	0.00399
2324.86	0.00414
2334.51	0.00422
2344.16	0.00422
2353.8	0.00411
2363.45	0.004
2373.09	0.00398
2382.74	0.00398
2392.39	0.00389
2402.03	0.00384
2411.68	0.00372
2421.33	0.00363
2430.97	0.00347
2440.62	0.00344
2450.27	0.00342
2459.91	0.0034
2469.56	0.00332
2479.21	0.00326
2488.85	0.00314
2498.5	0.00311
2508.15	0.00313
2517.79	0.00318
2527.44	0.00326
2537.09	0.00314
2546.73	0.00309
2556.38	0.00296
2566.03	0.00299
2575.67	0.00293
2585.32	0.00282
2594.96	0.00271
2604.61	0.00266
2614.26	0.00259
2623.9	0.00257
2633.55	0.00257
2643.2	0.00249
2652.84	0.00244
2662.49	0.00237
2672.14	0.00229
2681.78	0.00231
2691.43	0.00229
2701.08	0.00243
2710.72	0.00247
2720.37	0.00246
2730.02	0.00241
2739.66	0.00243
2749.31	0.00228
2758.96	0.00223
2768.6	0.00219
2778.25	0.0022
2787.9	0.00241
2797.54	0.00261
2807.19	0.00285
2816.84	0.00322
2826.48	0.00327
2836.13	0.00313
2845.77	0.00358
2855.42	0.0041
2865.07	0.005088
2874.71	0.006903
2884.36	0.01028
2894.01	0.01254
2903.65	0.01078
2913.3	0.00917
2922.95	0.01011
2932.59	0.01444
2942.24	0.02368
2951.89	0.03586
2961.53	0.03477
2971.18	0.02148
2980.83	0.01808
2990.47	0.01882
3000.12	0.01744
3009.77	0.01464
3019.41	0.01447
3029.06	0.01497
3038.71	0.00909
3048.35	0.0067601
3058	0.0064751
3067.64	0.00794
3077.29	0.01209
3086.94	0.01746
3096.58	0.02183
3106.23	0.0145
3115.88	0.0059987
3125.52	0.00312
3135.17	0.00198
3144.82	0.0015
3154.46	0.00116
3164.11	0.0009
3173.76	0.00076
3183.4	0.00038
3193.05	0.00031
3202.7	0.00016
3212.34	0.00026
3221.99	0.00023
3231.64	0.00019
3241.28	0.00019
3250.93	0.00024
3260.58	0.00039
3270.22	0.00024
3279.87	0.00029
3289.52	0.00045
3299.16	0.00042
3308.81	0.00063
3318.45	0.00057
3328.1	0.00066
3337.75	0.00079
3347.39	0.00093
3357.04	0.00096
3366.69	0.00104
3376.33	0.00106
3385.98	0.00102
3395.63	0.00125
3405.27	0.00133
3414.92	0.00151
3424.57	0.00166
3434.21	0.00191
3443.86	0.00228
3453.51	0.00296
3463.15	0.00425
3472.8	0.00501
3482.45	0.00454
3492.09	0.0038
3501.74	0.00317
3511.39	0.00256
3521.03	0.00241
3530.68	0.00237
3540.33	0.00226
3549.97	0.00214
3559.62	0.0023
3569.26	0.00228
3578.91	0.00234
3588.56	0.00232
3598.2	0.00228
3607.85	0.00229
3617.5	0.00229
3627.14	0.00238
3636.79	0.00241
3646.44	0.00252
3656.08	0.00262
3665.73	0.00265
3675.38	0.00254
3685.02	0.00258
3694.67	0.00273
3704.32	0.00267
3713.96	0.00271
3723.61	0.00272
3733.26	0.0027
3742.9	0.00262
3752.55	0.00266
3762.2	0.00267
3771.84	0.00271
3781.49	0.00278
3791.13	0.0028
3800.78	0.00289
3810.43	0.00276
3820.07	0.00293
3829.72	0.00293
3839.37	0.00285
3849.01	0.00298
3858.66	0.00292
3868.31	0.00295
3877.95	0.00298
3887.6	0.00304
3897.25	0.00299
3906.89	0.00319
3916.54	0.00326
3926.19	0.00331
3935.83	0.00323
3945.48	0.00318
3955.13	0.00324
3964.77	0.0032
3974.42	0.00317
3984.07	0.00313
3993.71	0.00314
