Infrared Spectrum: 2-NITRAMINO-1,3,4-THIADIAZOLE
Formula: C2 H2 N4 O2 S
CAS: 26947-66-0
State: SOLID (KBr PELLET)
Class: COBLENTZ
Instrument: Not specified, most likely a prism, grating, or hybrid spectrometer.
Sampling: TRANSMISSION
Resolution: 4
Origin: TENNESSEE EASTMAN COMPANY, RESEARCH LABORATORIES
MICROMETERS	TRANSMITTANCE
2.007	0.959
2.04794	0.957
2.08887	0.959
2.12981	0.96
2.17074	0.96
2.21168	0.962
2.25261	0.964
2.29355	0.964
2.33448	0.967
2.37542	0.969
2.41635	0.972
2.45729	0.977
2.49822	0.981
2.53916	0.981
2.58009	0.981
2.62103	0.981
2.66196	0.982
2.7029	0.979
2.74384	0.972
2.78477	0.962
2.82571	0.948
2.86664	0.928
2.90758	0.899
2.94851	0.862
2.98945	0.833
3.03038	0.801
3.07132	0.778
3.11225	0.678
3.15319	0.528
3.19412	0.287
3.23506	0.198
3.27599	0.18
3.31693	0.268
3.35786	0.26
3.3988	0.365
3.43973	0.457
3.48067	0.399
3.52161	0.489
3.56254	0.636
3.60348	0.681
3.64441	0.698
3.68535	0.724
3.72628	0.729
3.76722	0.775
3.80815	0.831
3.84909	0.862
3.89002	0.889
3.93096	0.901
3.97189	0.913
4.01283	0.926
4.05376	0.93
4.0947	0.93
4.13563	0.923
4.17657	0.928
4.21751	0.937
4.25844	0.935
4.29938	0.933
4.34031	0.933
4.38125	0.933
4.42218	0.921
4.46312	0.908
4.50405	0.914
4.54499	0.937
4.58592	0.947
4.62686	0.947
4.66779	0.948
4.70873	0.94
4.74966	0.945
4.7906	0.948
4.83153	0.948
4.87247	0.948
4.91341	0.94
4.95434	0.926
4.99528	0.935
5.03621	0.945
5.07715	0.947
5.11808	0.947
5.15902	0.942
5.19995	0.933
5.24089	0.933
5.28182	0.937
5.32276	0.933
5.36369	0.931
5.40463	0.945
5.44556	0.945
5.4865	0.948
5.52743	0.933
5.56837	0.925
5.60931	0.926
5.65024	0.891
5.69118	0.901
5.73211	0.891
5.77305	0.829
5.81398	0.819
5.85492	0.846
5.89585	0.848
5.93679	0.836
5.97772	0.835
6.01866	0.829
6.05959	0.828
6.10053	0.799
6.14146	0.807
6.1824	0.807
6.22333	0.806
6.26427	0.818
6.3052	0.828
6.34614	0.807
6.38708	0.777
6.42801	0.678
6.46895	0.51
6.50988	0.062
6.55082	0.181
6.59175	0.406
6.63269	0.494
6.67362	0.386
6.71456	0.079
6.75549	0.2
6.79643	0.384
6.83736	0.284
6.8783	0.168
6.91923	0.039
6.96017	0.044
7.0011	0.221
7.04204	0.403
7.08298	0.585
7.12391	0.637
7.16485	0.608
7.20578	0.549
7.24672	0.501
7.28765	0.365
7.32859	0.28
7.36952	0.204
7.41046	0.18
7.45139	0.222
7.49233	0.418
7.53326	0.578
7.5742	0.59
7.61513	0.557
7.65607	0.323
7.697	0.12
7.73794	0.052
7.77888	0.022
7.81981	0.022
7.86075	0.049
7.90168	0.032
7.94262	0.032
7.98355	0.03
8.02449	0.018
8.06542	0.018
8.10636	0.02
8.14729	0.023
8.18823	0.03
8.22916	0.093
8.2701	0.232
8.31103	0.35
8.35197	0.503
8.3929	0.557
8.43384	0.578
8.47478	0.634
8.51571	0.707
8.55665	0.727
8.59758	0.748
8.63852	0.758
8.67945	0.777
8.72039	0.797
8.76132	0.802
8.80226	0.804
8.84319	0.804
8.88413	0.802
8.92506	0.778
8.966	0.714
9.00693	0.676
9.04787	0.673
9.0888	0.751
9.12974	0.801
9.17067	0.814
9.21161	0.826
9.25255	0.831
9.29348	0.841
9.33442	0.848
9.37535	0.852
9.41629	0.857
9.45722	0.862
9.49816	0.865
9.53909	0.865
9.58003	0.867
9.62096	0.872
9.6619	0.87
9.70283	0.863
9.74377	0.867
9.7847	0.872
9.82564	0.869
9.86657	0.838
9.90751	0.818
9.94845	0.85
9.98938	0.867
10.0303	0.869
10.0713	0.882
10.1122	0.892
10.1531	0.894
10.1941	0.896
10.235	0.897
10.2759	0.904
10.3169	0.906
10.3578	0.904
10.3987	0.904
10.4397	0.906
10.4806	0.908
10.5215	0.908
10.5625	0.904
10.6034	0.909
10.6443	0.911
10.6853	0.911
10.7262	0.909
10.7672	0.906
10.8081	0.908
10.849	0.908
10.89	0.904
10.9309	0.896
10.9718	0.86
11.0128	0.794
11.0537	0.629
11.0946	0.224
11.1356	0.122
11.1765	0.329
11.2174	0.539
11.2584	0.673
11.2993	0.729
11.3402	0.76
11.3812	0.761
11.4221	0.688
11.4631	0.445
11.504	0.258
11.5449	0.471
11.5859	0.714
11.6268	0.797
11.6677	0.828
11.7087	0.843
11.7496	0.848
11.7905	0.845
11.8315	0.829
11.8724	0.819
11.9133	0.807
11.9543	0.797
11.9952	0.767
12.0361	0.722
12.0771	0.671
12.118	0.613
12.159	0.547
12.1999	0.469
12.2408	0.418
12.2818	0.387
12.3227	0.382
12.3636	0.387
12.4046	0.399
12.4455	0.248
12.4864	0.246
12.5274	0.425
12.5683	0.51
12.6092	0.569
12.6502	0.608
12.6911	0.647
12.732	0.671
12.773	0.707
12.8139	0.719
12.8549	0.717
12.8958	0.585
12.9367	0.428
12.9777	0.578
13.0186	0.649
13.0595	0.687
13.1005	0.719
13.1414	0.748
13.1823	0.78
13.2233	0.799
13.2642	0.814
13.3051	0.818
13.3461	0.829
13.387	0.838
13.4279	0.843
13.4689	0.846
13.5098	0.848
13.5508	0.85
13.5917	0.852
13.6326	0.853
13.6736	0.853
13.7145	0.853
13.7554	0.85
13.7964	0.843
13.8373	0.816
13.8782	0.768
13.9192	0.641
13.9601	0.442
14.001	0.397
14.042	0.443
14.0829	0.513
14.1238	0.619
14.1648	0.693
14.2057	0.748
14.2467	0.778
14.2876	0.802
14.3285	0.811
14.3695	0.816
14.4104	0.816
14.4513	0.818
14.4923	0.818
14.5332	0.819
14.5741	0.819
14.6151	0.819
14.656	0.819
14.6969	0.819
14.7379	0.818
14.7788	0.814
14.8197	0.811
14.8607	0.809
14.9016	0.804
14.9426	0.795
14.9835	0.78
15.0244	0.77
15.0654	0.767
15.1063	0.763
15.1472	0.756
15.1882	0.75
15.2291	0.741
15.27	0.727
15.311	0.719
15.3519	0.709
15.3928	0.695
15.4338	0.685
15.4747	0.675
15.5156	0.653
15.5566	0.639
15.5975	0.607
15.6385	0.588
15.6794	0.578
15.7203	0.576
15.7613	0.578
15.8022	0.578
15.8431	0.576
15.8841	0.576
15.925	0.574
15.9659	0.573
