Infrared Spectrum: 8-Bromo-1-octene
Formula: C 8 H 15 Br
CAS: 2695-48-9
State: gas
Instrument: HP-GC/MS/IRD
Origin: NIST Mass Spectrometry Data Center
1/CM	ABSORBANCE
550	0.0013137
562	0.0014471
574	0.001537
586	0.0006293
598	0.0002784
610	0.0004756
622	0.0009251
634	0.0013978
646	0.0021257
658	0.001624
670	0.0005452
682	9.28e-05
694	0.0001711
706	0.0003161
718	0.0006873
730	0.0009541
742	0.000638
754	0.0005046
766	0.0003393
778	0.000174
790	0.0001595
802	0.0002581
814	0.0003016
826	0.0002726
838	0.0003741
850	0.0005075
862	0.0006554
874	0.0009367
886	0.0013456
898	0.0025607
910	0.005858
922	0.0052084
934	0.0024389
946	0.0015051
958	0.0012876
970	0.0013543
982	0.0020329
994	0.0028246
1006	0.0017777
1018	0.0011571
1030	0.0008294
1042	0.0005771
1054	0.0004147
1066	0.0003364
1078	0.0002784
1090	0.0001595
1102	0.0001421
1114	0.000116
1126	0.0001015
1138	0.0001421
1150	0.0001798
1162	0.000232
1174	0.0003712
1186	0.0005278
1198	0.0009773
1210	0.0018096
1222	0.0030189
1234	0.0030943
1246	0.0031842
1258	0.0039875
1270	0.0035902
1282	0.0026129
1294	0.0022417
1306	0.0016385
1318	0.0010962
1330	0.0009483
1342	0.0011629
1354	0.0012644
1366	0.0008903
1378	0.0005307
1390	0.0004205
1402	0.0005365
1414	0.0009599
1426	0.0016298
1438	0.0031726
1450	0.003828
1462	0.0030653
1474	0.0015428
1486	0.0005858
1498	0.0002523
1510	0.0001189
1522	0.0001015
1534	0.0001218
1546	0.0001073
1558	6.67e-05
1570	3.48e-05
1582	8.12e-05
1594	0.0001508
1606	0.0003248
1618	0.0006815
1630	0.0015805
1642	0.0026274
1654	0.0010759
1666	0.0003335
1678	0.0001392
1690	8.7e-05
1702	4.93e-05
1714	1.74e-05
1726	0
1738	1.16e-05
1750	0
1762	2.61e-05
1774	5.8e-06
1786	2.61e-05
1798	8.99e-05
1810	0.0001711
1822	0.0004582
1834	0.0006061
1846	0.0003509
1858	0.0001537
1870	6.67e-05
1882	5.22e-05
1894	3.77e-05
1906	4.06e-05
1918	2.61e-05
1930	3.19e-05
1942	4.64e-05
1954	3.77e-05
1966	9.28e-05
1978	0.0001073
1990	7.54e-05
2002	7.25e-05
2014	6.09e-05
2026	8.12e-05
2038	9.57e-05
2050	9.57e-05
2062	0.0001073
2074	8.99e-05
2086	8.12e-05
2098	0.0001044
2110	8.7e-05
2122	9.57e-05
2134	0.0001015
2146	9.28e-05
2158	0.0001073
2170	0.0001073
2182	0.0001044
2194	0.0001218
2206	0.0001044
2218	8.41e-05
2230	0.0001073
2242	0.0001189
2254	0.0001102
2266	0.0001218
2278	0.0001189
2290	0.0001073
2302	0.0001015
2314	0.0001131
2326	8.99e-05
2338	7.83e-05
2350	9.57e-05
2362	6.38e-05
2374	8.99e-05
2386	0.0001131
2398	9.57e-05
2410	0.0001247
2422	0.0001131
2434	0.0001102
2446	9.86e-05
2458	9.86e-05
2470	9.57e-05
2482	0.0001218
2494	0.0001073
2506	9.86e-05
2518	0.0001363
2530	0.0001334
2542	0.000116
2554	0.0001363
2566	8.99e-05
2578	0.0001218
2590	0.0001624
2602	0.0001537
2614	0.0001885
2626	0.0002001
2638	0.0002523
2650	0.0002668
2662	0.0003045
2674	0.000377
2686	0.0004002
2698	0.0003596
2710	0.0003451
2722	0.0003045
2734	0.0002871
2746	0.0003306
2758	0.0003828
2770	0.0004524
2782	0.0005307
2794	0.0006496
2806	0.0009164
2818	0.001276
2830	0.0021083
2842	0.0040571
2854	0.007656
2866	0.0104197
2878	0.0084738
2890	0.0071311
2902	0.008903
2914	0.013427
2926	0.0223706
2938	0.029
2950	0.0199433
2962	0.0110113
2974	0.0084187
2986	0.0062089
2998	0.0048459
3010	0.0048952
3022	0.0032045
3034	0.0018502
3046	0.0015718
3058	0.0017371
3070	0.0024592
3082	0.0040368
3094	0.0031465
3106	0.0011803
3118	0.0006728
3130	0.0004872
3142	0.0003625
3154	0.0002784
3166	0.0002291
3178	0.0002146
3190	0.0001653
3202	0.0001972
3214	0.0001682
3226	0.0001247
3238	0.0001711
3250	0.0001595
3262	0.0001276
3274	0.000145
3286	0.0001595
3298	0.000116
3310	0.0001537
3322	0.0001073
3334	0.0001595
3346	0.0001363
3358	0.0001276
3370	0.0001421
3382	0.0001421
3394	0.0001305
3406	0.0001595
3418	0.0001624
3430	0.0001682
3442	0.0001363
3454	8.7e-05
3466	0.0001595
3478	0.0001856
3490	0.0002088
3502	0.0001711
3514	0.0001972
3526	0.0001711
3538	0.0002059
3550	0.0001972
3562	0.0002001
3574	0.0002407
3586	0.0002378
3598	0.0002552
3610	0.0002059
3622	0.000261
3634	0.0002001
3646	0.0002088
3658	0.0002378
3670	0.0002552
3682	0.0002494
3694	0.0002088
3706	0.0002436
3718	0.0002146
3730	0.0002871
3742	0.000232
3754	0.0002523
3766	0.0002523
3778	0.0002407
3790	0.0002523
3802	0.0002552
3814	0.0002784
3826	0.0002552
3838	0.0002842
