Infrared Spectrum: 6-Bromo-1-hexene
Formula: C 6 H 11 Br
CAS: 2695-47-8
State: gas
Instrument: HP-GC/MS/IRD
Origin: NIST Mass Spectrometry Data Center
1/CM	ABSORBANCE
550	0.000756
562	0.0007805
574	0.0008512
586	0.0004263
598	0.0002919
610	0.0004879
622	0.0008631
634	0.0008533
646	0.0007819
658	0.0006482
670	0.0003465
682	0.0001302
694	4.27e-05
706	7.7e-05
718	0.0001239
730	0.0003773
742	0.0004704
754	0.0004116
766	0.0002772
778	0.0001568
790	0.0001498
802	0.0001876
814	0.0002471
826	0.0002268
838	0.000203
850	0.0003374
862	0.0004935
874	0.0005803
886	0.000833
898	0.0014504
910	0.0030807
922	0.0032424
934	0.0015988
946	0.0008911
958	0.0007469
970	0.0009548
982	0.0014315
994	0.0017563
1006	0.0011249
1018	0.0006531
1030	0.0004655
1042	0.0002933
1054	0.0002807
1066	0.0002135
1078	0.0001848
1090	0.0001561
1102	0.0001505
1114	9.52e-05
1126	8.4e-05
1138	6.02e-05
1150	6.02e-05
1162	0.0001071
1174	0.0001659
1186	0.0003416
1198	0.0006125
1210	0.0007889
1222	0.0011263
1234	0.0019152
1246	0.0024906
1258	0.0024178
1270	0.001554
1282	0.0013363
1294	0.0012978
1306	0.0009219
1318	0.0005733
1330	0.0004389
1342	0.0004235
1354	0.000434
1366	0.0003311
1378	0.0001834
1390	0.0002044
1402	0.000308
1414	0.0005432
1426	0.0009296
1438	0.0016499
1450	0.0018186
1462	0.0011711
1474	0.0005873
1486	0.0002793
1498	0.0001589
1510	8.12e-05
1522	8.68e-05
1534	0.0001071
1546	8.61e-05
1558	8.05e-05
1570	6.86e-05
1582	9.03e-05
1594	0.0001365
1606	0.000203
1618	0.0004046
1630	0.000903
1642	0.0013965
1654	0.0007077
1666	0.0002548
1678	0.0001001
1690	6.37e-05
1702	4.97e-05
1714	3.57e-05
1726	1.33e-05
1738	2.8e-05
1750	4.83e-05
1762	3.85e-05
1774	6.79e-05
1786	6.16e-05
1798	7.14e-05
1810	0.0001155
1822	0.0002751
1834	0.0004116
1846	0.0002814
1858	0.000133
1870	9.31e-05
1882	9.52e-05
1894	8.33e-05
1906	6.02e-05
1918	7.07e-05
1930	4.27e-05
1942	6.23e-05
1954	6.3e-05
1966	0.0001036
1978	7.98e-05
1990	9.94e-05
2002	8.05e-05
2014	9.94e-05
2026	8.89e-05
2038	9.03e-05
2050	7.49e-05
2062	8.96e-05
2074	7.56e-05
2086	7.56e-05
2098	9.17e-05
2110	8.47e-05
2122	7.77e-05
2134	5.81e-05
2146	6.72e-05
2158	5.74e-05
2170	6.58e-05
2182	0.0001015
2194	9.59e-05
2206	7.91e-05
2218	6.58e-05
2230	8.12e-05
2242	9.03e-05
2254	9.24e-05
2266	9.66e-05
2278	9.66e-05
2290	8.47e-05
2302	3.78e-05
2314	8.33e-05
2326	6.23e-05
2338	7.63e-05
2350	0.0001029
2362	9.03e-05
2374	9.45e-05
2386	6.16e-05
2398	7.56e-05
2410	8.47e-05
2422	9.1e-05
2434	8.61e-05
2446	9.8e-05
2458	9.03e-05
2470	9.52e-05
2482	7.42e-05
2494	8.26e-05
2506	0.0001001
2518	8.75e-05
2530	4.97e-05
2542	4.06e-05
2554	6.3e-05
2566	6.65e-05
2578	5.74e-05
2590	7.7e-05
2602	6.44e-05
2614	9.1e-05
2626	0.0001211
2638	0.0001043
2650	0.000119
2662	0.0001295
2674	0.0001554
2686	0.0001764
2698	0.000126
2710	0.0001288
2722	0.0001617
2734	0.0001512
2746	0.0001526
2758	0.0001505
2770	0.0001624
2782	0.0001715
2794	0.0002765
2806	0.0003136
2818	0.0004473
2830	0.0007868
2842	0.0014679
2854	0.0022491
2866	0.0026159
2878	0.0025207
2890	0.0025179
2902	0.0031444
2914	0.0042399
2926	0.005684
2938	0.0069279
2950	0.0063252
2962	0.0047733
2974	0.0038934
2986	0.0031717
2998	0.0025235
3010	0.0024185
3022	0.001673
3034	0.0009072
3046	0.0007497
3058	0.0009303
3070	0.0013195
3082	0.0021175
3094	0.0018137
3106	0.0006979
3118	0.0003311
3130	0.0002639
3142	0.000196
3154	0.0001953
3166	0.0001295
3178	0.0001309
3190	0.0001379
3202	0.0001351
3214	5.95e-05
3226	9.1e-05
3238	0.0001372
3250	0.0001484
3262	0.0001092
3274	0.0001162
3286	0.0001183
3298	5.88e-05
3310	7.98e-05
3322	0.0001197
3334	8.33e-05
3346	7.56e-05
3358	6.23e-05
3370	0.0001253
3382	8.96e-05
3394	8.19e-05
3406	8.19e-05
3418	0.0001344
3430	4.69e-05
3442	0.0001183
3454	9.03e-05
3466	9.8e-05
3478	0.0001155
3490	9.87e-05
3502	0.0001351
3514	0.0001792
3526	7.21e-05
3538	0.0001162
3550	8.96e-05
3562	0.0001379
3574	0.0001407
3586	0.0001267
3598	0.0001554
3610	0.0001659
3622	0.0001183
3634	0.0001393
3646	0.0001477
3658	0.0001456
3670	0.0001323
3682	0.0001246
3694	0.0001414
3706	0.000175
3718	0.0001505
3730	0.0001414
3742	0.000126
3754	0.0001372
3766	0.000161
3778	0.0001855
3790	0.0001337
3802	0.0001351
3814	0.0001778
3826	0.0001302
3838	0.0001687
