Infrared Spectrum: p-Propylaniline
Formula: C 9 H 13 N
CAS: 2696-84-6
State: gas
Origin: EPA-IR VAPOR PHASE LIBRARY
1/CM	ABSORBANCE
549.8	0.007495
559.445	0.005485
569.09	0.004495
578.734	0.004275
588.379	0.004265
598.024	0.004245
607.669	0.004365
617.313	0.004735
626.958	0.007025
636.603	0.010585
646.248	0.016615
655.893	0.018565
665.537	0.014265
675.182	0.011305
684.827	0.009875
694.472	0.008465
704.116	0.007205
713.761	0.005905
723.406	0.005425
733.051	0.004895
742.695	0.004905
752.34	0.005335
761.985	0.005455
771.63	0.006115
781.275	0.008165
790.919	0.010645
800.564	0.012945
810.209	0.014425
819.854	0.013935
829.498	0.011365
839.143	0.008625
848.788	0.006255
858.433	0.004475
868.078	0.003625
877.722	0.002815
887.367	0.002855
897.012	0.002275
906.657	0.002195
916.301	0.001955
925.946	0.001915
935.591	0.001885
945.236	0.001705
954.88	0.001745
964.525	0.002015
974.17	0.002245
983.815	0.002005
993.46	0.002005
1003.1	0.001525
1012.75	0.002335
1022.39	0.002235
1032.04	0.002275
1041.68	0.002465
1051.33	0.002805
1060.97	0.003565
1070.62	0.004315
1080.26	0.004405
1089.91	0.004385
1099.55	0.004275
1109.2	0.004405
1118.84	0.004585
1128.49	0.003985
1138.13	0.002605
1147.78	0.001755
1157.42	0.001785
1167.07	0.002555
1176.71	0.006085
1186.36	0.005715
1196	0.001975
1205.64	0.001425
1215.29	0.001755
1224.93	0.002335
1234.58	0.003285
1244.22	0.005875
1253.87	0.014585
1263.51	0.028875
1273.16	0.028215
1282.8	0.012275
1292.45	0.005175
1302.09	0.003275
1311.74	0.002825
1321.38	0.002575
1331.03	0.003195
1340.67	0.003785
1350.32	0.002945
1359.96	0.001965
1369.61	0.001985
1379.25	0.002675
1388.9	0.002705
1398.54	0.002095
1408.18	0.002145
1417.83	0.002525
1427.47	0.003015
1437.12	0.003555
1446.76	0.004595
1456.41	0.005595
1466.05	0.005935
1475.7	0.005205
1485.34	0.005105
1494.99	0.008985
1504.63	0.024475
1514.28	0.044565
1523.92	0.032815
1533.57	0.009195
1543.21	0.004155
1552.86	0.002975
1562.5	0.002775
1572.15	0.003475
1581.79	0.004755
1591.44	0.006525
1601.08	0.009455
1610.73	0.017115
1620.37	0.030035
1630.01	0.031855
1639.66	0.017165
1649.3	0.006455
1658.95	0.003705
1668.59	0.002665
1678.24	0.002065
1687.88	0.001855
1697.53	0.001905
1707.17	0.001795
1716.82	0.001675
1726.46	0.001375
1736.11	0.001305
1745.75	0.001485
1755.4	0.001265
1765.04	0.0008458
1774.69	0.0007607
1784.33	0.0007462
1793.98	0.0006929
1803.62	0.0007866
1813.27	0.0007157
1822.91	0.0008017
1832.55	0.0008577
1842.2	0.0010068
1851.84	0.001465
1861.49	0.001895
1871.13	0.001905
1880.78	0.001575
1890.42	0.0010279
1900.07	0.0009012
1909.71	0.0009414
1919.36	0.0009637
1929	0.0008891
1938.65	0.0007874
1948.29	0.0006985
1957.94	0.0006322
1967.58	0.0006186
1977.23	0.0005953
1986.87	0.0005534
1996.52	0.000544
2006.16	0.0005805
2015.81	0.0007118
2025.45	0.0008039
2035.1	0.0007249
2044.74	0.0006638
2054.38	0.0006926
2064.03	0.0007009
2073.67	0.0008168
2083.32	0.0006213
2092.96	0.0006322
2102.61	0.0006073
2112.25	0.0005592
2121.9	0.0004849
2131.54	0.0004667
2141.19	0.000436
2150.83	0.0004497
2160.48	0.0004045
2170.12	0.0004511
2179.77	0.0004606
2189.41	0.0004903
2199.06	0.0004456
2208.7	0.0003894
2218.35	0.0004486
2227.99	0.0004422
2237.64	0.0004696
2247.28	0.0003996
2256.92	0.000392
2266.57	0.0004921
2276.21	0.0005861
2285.86	0.0005713
2295.5	0.0005514
2305.15	0.0005931
2314.79	0.0006318
2324.44	0.0006067
2334.08	0.0005917
2343.73	0.0005843
2353.37	0.0005581
2363.02	0.0004677
2372.66	0.000476
2382.31	0.0004153
2391.95	0.0004434
2401.6	0.0004867
2411.24	0.0004302
2420.89	0.0004548
2430.53	0.0003736
2440.18	0.0004129
2449.82	0.0004711
2459.47	0.0005061
2469.11	0.0003943
2478.75	0.00032
2488.4	0.0003106
2498.04	0.0003643
2507.69	0.0005029
2517.33	0.0004995
2526.98	0.0006204
2536.62	0.0005659
2546.27	0.0004952
2555.91	0.0004425
2565.56	0.0004603
2575.2	0.0005297
2584.85	0.0005184
2594.49	0.0005136
2604.14	0.0005712
2613.78	0.0006718
2623.43	0.0006384
2633.07	0.0006308
2642.72	0.0006574
2652.36	0.0006432
2662.01	0.0006594
2671.65	0.000682
2681.29	0.0006224
2690.94	0.0005339
2700.58	0.0007548
2710.23	0.0006216
2719.87	0.0007356
2729.52	0.0008774
2739.16	0.000726
2748.81	0.0009406
2758.45	0.0008556
2768.1	0.0009783
2777.74	0.001125
2787.39	0.001215
2797.03	0.001195
2806.68	0.001445
2816.32	0.001785
2825.97	0.002285
2835.61	0.003325
2845.26	0.005555
2854.9	0.008675
2864.55	0.011775
2874.19	0.015325
2883.84	0.016105
2893.48	0.012655
2903.12	0.012475
2912.77	0.017245
2922.41	0.024885
2932.06	0.031425
2941.7	0.030165
2951.35	0.024525
2960.99	0.024465
2970.64	0.027395
2980.28	0.019955
2989.93	0.011475
2999.57	0.011955
3009.22	0.013775
3018.86	0.014725
3028.51	0.017155
3038.15	0.014745
3047.8	0.009135
3057.44	0.007325
3067.09	0.005815
3076.73	0.004335
3086.38	0.003545
3096.02	0.002985
3105.67	0.002485
3115.31	0.001825
3124.95	0.001495
3134.6	0.001345
3144.24	0.0010758
3153.89	0.0008515
3163.53	0.0008206
3173.18	0.0006935
3182.82	0.0006508
3192.47	0.0006054
3202.11	0.000835
3211.76	0.0007506
3221.4	0.0007662
3231.05	0.0008472
3240.69	0.0006905
3250.34	0.0005708
3259.98	0.0004797
3269.63	0.0003654
3279.27	0.00012993
3288.92	0.0002569
3298.56	0.0003769
3308.21	0.0003979
3317.85	0.0002696
3327.49	0.0003237
3337.14	0.0002764
3346.78	0.000248
3356.43	0.0003674
3366.07	0.0004231
3375.72	0.0006344
3385.36	0.001165
3395.01	0.002675
3404.65	0.003745
3414.3	0.002865
3423.94	0.001475
3433.59	0.0009502
3443.23	0.0008803
3452.88	0.0008203
3462.52	0.001255
3472.17	0.001945
3481.81	0.002615
3491.46	0.002795
3501.1	0.002085
3510.75	0.001255
3520.39	0.0007807
3530.04	0.0005398
3539.68	0.0003741
3549.32	0.0002403
3558.97	0.0003006
3568.61	0.0002587
3578.26	0.00020096
3587.9	0.0002377
3597.55	0.0002168
3607.19	0.0004545
3616.84	0.00017074
3626.48	0.0002598
3636.13	0.00020083
3645.77	0.00018029
3655.42	0.000319
3665.06	0.0003066
3674.71	0.00015582
3684.35	0.0004233
3694	0.000301
3703.64	0.0002732
3713.29	0.0002331
3722.93	0.0002526
3732.58	0.0003486
3742.22	0.00014687
3751.86	0.0002247
3761.51	0.0003884
3771.15	0.0003658
3780.8	0.000299
3790.44	0.0002642
3800.09	0.0003569
3809.73	0.000124864
3819.38	0.00020891
3829.02	0.0002779
3838.67	0.0003701
3848.31	0.0006189
3857.96	0.0005365
3867.6	0.000475
3877.25	0.0004892
3886.89	0.0004514
3896.54	0.0005242
3906.18	0.0004003
3915.83	0.0004619
3925.47	0.0004569
3935.12	0.0004062
3944.76	0.000565
3954.41	0.0004438
3964.05	0.0004173
3973.69	0.0005049
3983.34	0.0005099
3992.98	0.0006399
