Infrared Spectrum: Anthracene, 9,10-di-1-naphthyl-
Formula: C34 H22
CAS: 26979-27-1
State: SOLID (SPLIT MULL), FLUOROLUBE FOR 3800-1330 CM^-^1, NUJOL FOR 1330-400 CM^-^1
Class: COBLENTZ III
Instrument: DOW KBr FOREPRISM-GRATING
Instrument parameters: BLAZED AT 3.5, 12.0, 20.0 MICRON AND CHANGED AT 5.0, 7.5, 14.9 MICRON
Sampling: TRANSMISSION
Resolution: 2
Origin: DOW CHEMICAL COMPANY
1/CM	TRANSMITTANCE
385	0.8625
394	0.8609
403	0.8575
412	0.8371
421	0.7531
430	0.8225
439	0.87
448	0.8681
457	0.8637
466	0.8718
475	0.878
484	0.8832
493	0.8835
502	0.8767
511	0.868
520	0.8658
529	0.8674
538	0.8686
547	0.8307
556	0.7734
565	0.8807
574	0.8832
583	0.8827
592	0.8807
601	0.8119
610	0.8814
619	0.8199
628	0.7925
637	0.8765
646	0.8831
655	0.6179
664	0.6385
673	0.8675
682	0.8694
691	0.8323
700	0.8473
709	0.8182
718	0.7387
727	0.7089
736	0.7506
745	0.7775
754	0.3175
763	0.5262
772	0.3065
781	0.4564
790	0.6281
799	0.0929
808	0.8162
817	0.7768
826	0.8412
835	0.8371
844	0.8238
853	0.7931
862	0.8259
871	0.8312
880	0.7883
889	0.81
898	0.8025
907	0.8049
916	0.7892
925	0.529
934	0.7862
943	0.7788
952	0.7468
961	0.7765
970	0.7511
979	0.7744
988	0.7984
997	0.7987
1006	0.7419
1015	0.7204
1024	0.688
1033	0.7728
1042	0.7651
1051	0.7706
1060	0.7678
1069	0.7639
1078	0.7712
1087	0.779
1096	0.7796
1105	0.7787
1114	0.7778
1123	0.7696
1132	0.7662
1141	0.7255
1150	0.7185
1159	0.7283
1168	0.7288
1177	0.7571
1186	0.754
1195	0.7365
1204	0.7268
1213	0.7239
1222	0.7519
1231	0.7551
1240	0.7499
1249	0.684
1258	0.736
1267	0.7411
1276	0.7333
1285	0.7339
1294	0.7205
1303	0.7182
1312	0.7158
1321	0.7131
1330	0.6784
1339	0.6718
1348	0.7008
1357	0.6439
1366	0.4469
1375	0.796
1384	0.8112
1393	0.8294
1402	0.829
1411	0.8202
1420	0.8148
1429	0.768
1438	0.6012
1447	0.7768
1456	0.8375
1465	0.846
1474	0.8483
1483	0.8228
1492	0.8368
1501	0.7081
1510	0.7599
1519	0.8556
1528	0.8493
1537	0.8556
1546	0.852
1555	0.8454
1564	0.8403
1573	0.8091
1582	0.7921
1591	0.764
1600	0.8201
1609	0.8189
1618	0.8025
1627	0.8184
1636	0.8225
1645	0.8298
1654	0.8328
1663	0.8271
1672	0.8255
1681	0.8245
1690	0.8212
1699	0.8045
1708	0.8001
1717	0.8072
1726	0.8117
1735	0.813
1744	0.8128
1753	0.8124
1762	0.8114
1771	0.8107
1780	0.8103
1789	0.8036
1798	0.7849
1807	0.7769
1816	0.7803
1825	0.7841
1834	0.7889
1843	0.7894
1852	0.7867
1861	0.7843
1870	0.7781
1879	0.7795
1888	0.7822
1897	0.7782
1906	0.7695
1915	0.7567
1924	0.7517
1933	0.7489
1942	0.7488
1951	0.7545
1960	0.7626
1969	0.7718
1978	0.7703
1987	0.7654
1996	0.761
2005	0.7146
2014	0.7108
2023	0.7068
2032	0.7051
2041	0.7034
2050	0.7
2059	0.6958
2068	0.6915
2077	0.6874
2086	0.6833
2095	0.6793
2104	0.6753
2113	0.6712
2122	0.6672
2131	0.6633
2140	0.6594
2149	0.6553
2158	0.6511
2167	0.6471
2176	0.6431
2185	0.6387
2194	0.6344
2203	0.63
2212	0.625
2221	0.6199
2230	0.6155
2239	0.6114
2248	0.6072
2257	0.6028
2266	0.599
2275	0.596
2284	0.5935
2293	0.5935
2302	0.5952
2311	0.5898
2320	0.5803
2329	0.5836
2338	0.5852
2347	0.5838
2356	0.5823
2365	0.5804
2374	0.576
2383	0.5723
2392	0.5706
2401	0.569
2410	0.5678
2419	0.5666
2428	0.5656
2437	0.5644
2446	0.5634
2455	0.5621
2464	0.5605
2473	0.5589
2482	0.5573
2491	0.5553
2500	0.5532
2509	0.5515
2518	0.5504
2527	0.5492
2536	0.548
2545	0.5465
2554	0.5451
2563	0.5436
2572	0.5421
2581	0.5404
2590	0.5387
2599	0.5369
2608	0.5352
2617	0.5335
2626	0.5321
2635	0.5307
2644	0.5293
2653	0.5277
2662	0.5258
2671	0.5239
2680	0.5222
2689	0.5205
2698	0.5188
2707	0.517
2716	0.515
2725	0.513
2734	0.511
2743	0.5091
2752	0.5066
2761	0.5035
2770	0.5005
2779	0.4974
2788	0.4941
2797	0.4904
2806	0.4868
2815	0.483
2824	0.4786
2833	0.474
2842	0.4696
2851	0.4687
2860	0.4679
2869	0.4636
2878	0.458
2887	0.4556
2896	0.4502
2905	0.4406
2914	0.4388
2923	0.4383
2932	0.4378
2941	0.4374
2950	0.4372
2959	0.4367
2968	0.4364
2977	0.4334
2986	0.4257
2995	0.4168
3004	0.4127
3013	0.4077
3022	0.3893
3031	0.362
3040	0.3579
3049	0.3605
3058	0.383
3067	0.4066
3076	0.4265
3085	0.4368
3094	0.4395
3103	0.4341
3112	0.4289
3121	0.4259
3130	0.4236
3139	0.4212
3148	0.4189
3157	0.4165
3166	0.4141
3175	0.4116
3184	0.4091
3193	0.4072
3202	0.4054
3211	0.4034
3220	0.4014
3229	0.3991
3238	0.397
3247	0.3949
3256	0.393
3265	0.391
3274	0.3892
3283	0.3873
3292	0.3854
3301	0.3836
3310	0.3818
3319	0.3799
3328	0.378
3337	0.3762
3346	0.374
3355	0.3716
3364	0.3696
3373	0.3673
3382	0.3652
3391	0.3632
3400	0.3614
3409	0.3596
3418	0.3577
3427	0.3559
3436	0.3543
3445	0.3525
3454	0.3509
3463	0.3491
3472	0.3476
3481	0.346
3490	0.3447
3499	0.3446
3508	0.3446
3517	0.3448
3526	0.3452
3535	0.3458
3544	0.3462
3553	0.3456
3562	0.3434
3571	0.341
3580	0.3398
3589	0.3384
3598	0.3373
3607	0.3362
3616	0.3352
3625	0.3341
3634	0.3328
3643	0.3314
3652	0.33
3661	0.3284
3670	0.3266
3679	0.3252
3688	0.3241
3697	0.323
3706	0.3228
3715	0.3225
3724	0.322
3733	0.3212
3742	0.3207
3751	0.3197
3760	0.3184
3769	0.3171
3778	0.3155
3787	0.3148
3796	0.3147
