Infrared Spectrum: N,N-Diisopropylformide
Formula: C 7 H 15 N O
CAS: 2700-30-3
State: gas
Origin: EPA-IR VAPOR PHASE LIBRARY
1/CM	ABSORBANCE
549.8	0.001512
559.445	0.0012023
569.09	0.0006661
578.734	0.0004905
588.379	0.000756
598.024	0.0007189
607.669	0.0012851
617.313	0.001572
626.958	0.001362
636.603	0.0012384
646.248	0.0009065
655.893	0.0004879
665.537	0.0004897
675.182	0.000326569
684.827	0.0002223
694.472	0.00034679
704.116	0.0004346
713.761	0.0005055
723.406	0.0009003
733.051	0.0012257
742.695	0.0007292
752.34	0.0009011
761.985	0.001692
771.63	0.002422
781.275	0.002352
790.919	0.001492
800.564	0.0005029
810.209	0.00041175
819.854	0.0002934
829.498	0.000452
839.143	0.0004758
848.788	0.000653
858.433	0.000532
868.078	0.0009192
877.722	0.0007046
887.367	0.0007373
897.012	0.0005638
906.657	0.0008451
916.301	0.000705
925.946	0.0005062
935.591	0.000469
945.236	0.0005453
954.88	0.0006535
964.525	0.0005183
974.17	0.0005039
983.815	0.0007697
993.46	0.0005468
1003.1	0.0004935
1012.75	0.0010206
1022.39	0.001522
1032.04	0.002402
1041.68	0.002292
1051.33	0.002102
1060.97	0.001952
1070.62	0.002242
1080.26	0.002852
1089.91	0.005772
1099.55	0.008792
1109.2	0.009822
1118.84	0.009252
1128.49	0.009062
1138.13	0.007962
1147.78	0.007912
1157.42	0.008212
1167.07	0.006932
1176.71	0.005852
1186.36	0.007192
1196	0.013272
1205.64	0.017362
1215.29	0.013742
1224.93	0.007032
1234.58	0.004772
1244.22	0.006692
1253.87	0.011952
1263.51	0.017622
1273.16	0.019812
1282.8	0.021212
1292.45	0.020302
1302.09	0.013602
1311.74	0.006882
1321.38	0.004102
1331.03	0.003272
1340.67	0.003962
1350.32	0.006352
1359.96	0.010142
1369.61	0.012942
1379.25	0.012252
1388.9	0.009932
1398.54	0.008742
1408.18	0.011712
1417.83	0.015542
1427.47	0.015732
1437.12	0.012092
1446.76	0.008372
1456.41	0.006992
1466.05	0.006662
1475.7	0.005392
1485.34	0.003412
1494.99	0.001942
1504.63	0.001402
1514.28	0.0011048
1523.92	0.0010944
1533.57	0.0010253
1543.21	0.001031
1552.86	0.0009031
1562.5	0.0009467
1572.15	0.0008395
1581.79	0.000861
1591.44	0.0008346
1601.08	0.0009464
1610.73	0.001143
1620.37	0.001452
1630.01	0.001982
1639.66	0.002822
1649.3	0.004092
1658.95	0.006002
1668.59	0.011062
1678.24	0.030752
1687.88	0.074692
1697.53	0.111922
1707.17	0.085742
1716.82	0.029862
1726.46	0.005782
1736.11	0.002822
1745.75	0.002022
1755.4	0.001622
1765.04	0.001362
1774.69	0.0010939
1784.33	0.0010168
1793.98	0.0009709
1803.62	0.0010354
1813.27	0.001031
1822.91	0.0009339
1832.55	0.0008287
1842.2	0.0007513
1851.84	0.0006682
1861.49	0.000636
1871.13	0.0006103
1880.78	0.0006082
1890.42	0.0006073
1900.07	0.0007562
1909.71	0.0007044
1919.36	0.0006606
1929	0.0006306
1938.65	0.000628
1948.29	0.0005806
1957.94	0.0005159
1967.58	0.00040432
1977.23	0.0004515
1986.87	0.0004922
1996.52	0.0005075
2006.16	0.0004401
2015.81	0.0004345
2025.45	0.0004865
2035.1	0.0004487
2044.74	0.0004384
2054.38	0.0004554
2064.03	0.00036221
2073.67	0.0004266
2083.32	0.00039474
2092.96	0.00036906
2102.61	0.00037147
2112.25	0.00033467
2121.9	0.00034854
2131.54	0.0003052
2141.19	0.00034435
2150.83	0.00034966
2160.48	0.00041294
2170.12	0.00033383
2179.77	0.000412
2189.41	0.00036322
2199.06	0.0004221
2208.7	0.0005181
2218.35	0.0004828
2227.99	0.0005253
2237.64	0.0004972
2247.28	0.0005176
2256.92	0.000449
2266.57	0.0004545
2276.21	0.0004656
2285.86	0.0004617
2295.5	0.0004531
2305.15	0.0004271
2314.79	0.0005027
2324.44	0.0005218
2334.08	0.00041754
2343.73	0.00039128
2353.37	0.000433
2363.02	0.0004276
2372.66	0.0004575
2382.31	0.0005441
2391.95	0.0005407
2401.6	0.0005557
2411.24	0.0004535
2420.89	0.00041785
2430.53	0.0004934
2440.18	0.00040131
2449.82	0.0004538
2459.47	0.00040139
2469.11	0.00039628
2478.75	0.0004279
2488.4	0.0005072
2498.04	0.0005068
2507.69	0.0005445
2517.33	0.0005531
2526.98	0.0005454
2536.62	0.0004619
2546.27	0.00041506
2555.91	0.0005177
2565.56	0.0006105
2575.2	0.000526
2584.85	0.0005402
2594.49	0.0005272
2604.14	0.0006172
2613.78	0.0006979
2623.43	0.0006236
2633.07	0.0006751
2642.72	0.0006222
2652.36	0.0006152
2662.01	0.0006031
2671.65	0.0006691
2681.29	0.0007694
2690.94	0.0007877
2700.58	0.0011067
2710.23	0.0011841
2719.87	0.001442
2729.52	0.002252
2739.16	0.003632
2748.81	0.004482
2758.45	0.004122
2768.1	0.003612
2777.74	0.003492
2787.39	0.004422
2797.03	0.005742
2806.68	0.005662
2816.32	0.004382
2825.97	0.003742
2835.61	0.003892
2845.26	0.005172
2854.9	0.007442
2864.55	0.009452
2874.19	0.011032
2883.84	0.011982
2893.48	0.011412
2903.12	0.010132
2912.77	0.009852
2922.41	0.011762
2932.06	0.015522
2941.7	0.018122
2951.35	0.016962
2960.99	0.019862
2970.64	0.033372
2980.28	0.040792
2989.93	0.028412
2999.57	0.013062
3009.22	0.006862
3018.86	0.003872
3028.51	0.002232
3038.15	0.001882
3047.8	0.001582
3057.44	0.001582
3067.09	0.001296
3076.73	0.0012771
3086.38	0.001332
3096.02	0.001412
3105.67	0.001332
3115.31	0.0012973
3124.95	0.0011851
3134.6	0.0012121
3144.24	0.0009888
3153.89	0.0009497
3163.53	0.0009989
3173.18	0.0008916
3182.82	0.000926
3192.47	0.0009338
3202.11	0.000845
3211.76	0.0007382
3221.4	0.0006457
3231.05	0.0006257
3240.69	0.0005132
3250.34	0.000501
3259.98	0.0005127
3269.63	0.0004556
3279.27	0.0005075
3288.92	0.0005132
3298.56	0.0004645
3308.21	0.0004334
3317.85	0.0006341
3327.49	0.0004792
3337.14	0.0006973
3346.78	0.0006369
3356.43	0.0006959
3366.07	0.001219
3375.72	0.0012054
3385.36	0.001362
3395.01	0.0008679
3404.65	0.0005262
3414.3	0.0004875
3423.94	0.000471
3433.59	0.00031658
3443.23	0.00042167
3452.88	0.0003588
3462.52	0.0002647
3472.17	0.0002621
3481.81	0.00036797
3491.46	0.00036991
3501.1	0.000441
3510.75	0.00031865
3520.39	0.00037131
3530.04	0.0003002
3539.68	0.000173
3549.32	0.0002847
3558.97	0.000198
3568.61	0.00031438
3578.26	0.00031482
3587.9	0.000205
3597.55	0.00038465
3607.19	0.000184
3616.84	0.000329087
3626.48	0.00034514
3636.13	0.0003047
3645.77	0.0002899
3655.42	0.0003016
3665.06	0.000157
3674.71	0.00021
3684.35	0.0002834
3694	0.0002261
3703.64	0.0002923
3713.29	0.0003012
3722.93	0.000127
3732.58	0.0002985
3742.22	0.0002476
3751.86	0.000187
3761.51	0.0002427
3771.15	0.00033242
3780.8	0.00038443
3790.44	0.0002589
3800.09	0.000233
3809.73	0.000484
3819.38	0.000330607
3829.02	0.000325714
3838.67	0.0002
3848.31	0.000214
3857.96	0.00036447
3867.6	0.0003038
3877.25	0.0003012
3886.89	0.000188
3896.54	0.0002972
3906.18	0.00033835
3915.83	0.00034139
3925.47	0.00036511
3935.12	0.0002394
3944.76	0.0002587
3954.41	0.00038283
3964.05	0.00037987
3973.69	0.00036991
3983.34	0.00037918
3992.98	0.0004595
