Infrared Spectrum: Methyl 3,5-dinitrobenzoate
Formula: C 8 H 6 N 2 O 6
CAS: 2702-58-1
State: gas
Origin: EPA-IR VAPOR PHASE LIBRARY
1/CM	ABSORBANCE
549.8	0.00063545
559.445	0.0008276
569.09	0.0004905
578.734	0.000238
588.379	0.000421
598.024	0.000351
607.669	0.000362
617.313	0.00059103
626.958	0.00066393
636.603	0.0007353
646.248	0.0013169
655.893	0.002149
665.537	0.002349
675.182	0.002219
684.827	0.002499
694.472	0.003229
704.116	0.006579
713.761	0.027239
723.406	0.080829
733.051	0.054709
742.695	0.011659
752.34	0.004059
761.985	0.003789
771.63	0.006349
781.275	0.004269
790.919	0.001829
800.564	0.001739
810.209	0.005579
819.854	0.006079
829.498	0.001799
839.143	0.001859
848.788	0.002499
858.433	0.002459
868.078	0.002469
877.722	0.005029
887.367	0.006699
897.012	0.004579
906.657	0.008589
916.301	0.017799
925.946	0.014929
935.591	0.005939
945.236	0.002749
954.88	0.002729
964.525	0.003899
974.17	0.007899
983.815	0.018859
993.46	0.019789
1003.1	0.006659
1012.75	0.002909
1022.39	0.002259
1032.04	0.002449
1041.68	0.002539
1051.33	0.003799
1060.97	0.008149
1070.62	0.020209
1080.26	0.019649
1089.91	0.012689
1099.55	0.009539
1109.2	0.006649
1118.84	0.006899
1128.49	0.008719
1138.13	0.014109
1147.78	0.032399
1157.42	0.077559
1167.07	0.062169
1176.71	0.025099
1186.36	0.019939
1196	0.020649
1205.64	0.014429
1215.29	0.009469
1224.93	0.009279
1234.58	0.013069
1244.22	0.019099
1253.87	0.030609
1263.51	0.066929
1273.16	0.179549
1282.8	0.195719
1292.45	0.055549
1302.09	0.029569
1311.74	0.030799
1321.38	0.029319
1331.03	0.043989
1340.67	0.121569
1350.32	0.117379
1359.96	0.039939
1369.61	0.017379
1379.25	0.010439
1388.9	0.008319
1398.54	0.007249
1408.18	0.009039
1417.83	0.009339
1427.47	0.009069
1437.12	0.016799
1446.76	0.018899
1456.41	0.022799
1466.05	0.018879
1475.7	0.009309
1485.34	0.008999
1494.99	0.010609
1504.63	0.016169
1514.28	0.026109
1523.92	0.020589
1533.57	0.018379
1543.21	0.042689
1552.86	0.153479
1562.5	0.169429
1572.15	0.038029
1581.79	0.022559
1591.44	0.027899
1601.08	0.030499
1610.73	0.016159
1620.37	0.018909
1630.01	0.024609
1639.66	0.010969
1649.3	0.006039
1658.95	0.004559
1668.59	0.004189
1678.24	0.003529
1687.88	0.003349
1697.53	0.004159
1707.17	0.006929
1716.82	0.010879
1726.46	0.009399
1736.11	0.012539
1745.75	0.050759
1755.4	0.127109
1765.04	0.048329
1774.69	0.013469
1784.33	0.009289
1793.98	0.011159
1803.62	0.006199
1813.27	0.003189
1822.91	0.002669
1832.55	0.002919
1842.2	0.003279
1851.84	0.003729
1861.49	0.003669
1871.13	0.002889
1880.78	0.002259
1890.42	0.001609
1900.07	0.0012737
1909.71	0.0011033
1919.36	0.0009977
1929	0.0009271
1938.65	0.0010398
1948.29	0.0011324
1957.94	0.0013633
1967.58	0.0014913
1977.23	0.0015448
1986.87	0.0012012
1996.52	0.0010839
2006.16	0.0009582
2015.81	0.0009507
2025.45	0.000941
2035.1	0.0010708
2044.74	0.0011211
2054.38	0.0010564
2064.03	0.0011736
2073.67	0.001258
2083.32	0.0014165
2092.96	0.0013853
2102.61	0.0011228
2112.25	0.0009558
2121.9	0.0009098
2131.54	0.0009776
2141.19	0.0010839
2150.83	0.0012765
2160.48	0.0014742
2170.12	0.0011796
2179.77	0.0008929
2189.41	0.0007721
2199.06	0.0007644
2208.7	0.0008113
2218.35	0.00064735
2227.99	0.00063157
2237.64	0.0006866
2247.28	0.000705
2256.92	0.000751
2266.57	0.0007838
2276.21	0.0007503
2285.86	0.0006715
2295.5	0.0007888
2305.15	0.0007848
2314.79	0.00087
2324.44	0.000996
2334.08	0.0008996
2343.73	0.0009822
2353.37	0.0008695
2363.02	0.0009243
2372.66	0.0009197
2382.31	0.0007576
2391.95	0.0007474
2401.6	0.0007044
2411.24	0.0007603
2420.89	0.0008649
2430.53	0.0010797
2440.18	0.0010476
2449.82	0.0009307
2459.47	0.000926
2469.11	0.0010887
2478.75	0.0010625
2488.4	0.0007967
2498.04	0.000818
2507.69	0.0008407
2517.33	0.0008448
2526.98	0.000818
2536.62	0.0008149
2546.27	0.0008807
2555.91	0.0008467
2565.56	0.0008229
2575.2	0.0009086
2584.85	0.0008711
2594.49	0.0009886
2604.14	0.0009493
2613.78	0.001094
2623.43	0.001059
2633.07	0.0009793
2642.72	0.0010146
2652.36	0.0009851
2662.01	0.0009455
2671.65	0.0012502
2681.29	0.001629
2690.94	0.001639
2700.58	0.001569
2710.23	0.0013192
2719.87	0.0011515
2729.52	0.0010895
2739.16	0.001065
2748.81	0.0011528
2758.45	0.0011706
2768.1	0.0010437
2777.74	0.001224
2787.39	0.001213
2797.03	0.0011269
2806.68	0.0011175
2816.32	0.0013776
2825.97	0.001599
2835.61	0.001949
2845.26	0.002749
2854.9	0.004179
2864.55	0.003279
2874.19	0.002979
2883.84	0.004079
2893.48	0.005779
2903.12	0.005189
2912.77	0.004319
2922.41	0.003899
2932.06	0.003459
2941.7	0.003569
2951.35	0.005239
2960.99	0.015069
2970.64	0.016229
2980.28	0.004389
2989.93	0.002759
2999.57	0.003269
3009.22	0.004389
3018.86	0.004109
3028.51	0.003479
3038.15	0.003429
3047.8	0.003139
3057.44	0.002319
3067.09	0.002509
3076.73	0.002859
3086.38	0.004819
3096.02	0.010849
3105.67	0.019309
3115.31	0.013899
3124.95	0.003319
3134.6	0.001599
3144.24	0.00136
3153.89	0.0010932
3163.53	0.001045
3173.18	0.0010196
3182.82	0.0010372
3192.47	0.0011118
3202.11	0.0009812
3211.76	0.0007179
3221.4	0.00064705
3231.05	0.0006983
3240.69	0.0007487
3250.34	0.00059932
3259.98	0.0008023
3269.63	0.0007031
3279.27	0.00065208
3288.92	0.0007012
3298.56	0.000742
3308.21	0.000751
3317.85	0.0008228
3327.49	0.000577112
3337.14	0.0006679
3346.78	0.0007659
3356.43	0.0006563
3366.07	0.00066338
3375.72	0.00060454
3385.36	0.0007161
3395.01	0.00064656
3404.65	0.0007632
3414.3	0.00061199
3423.94	0.0007598
3433.59	0.00063807
3443.23	0.00063802
3452.88	0.0008969
3462.52	0.0008764
3472.17	0.0008995
3481.81	0.0012669
3491.46	0.001889
3501.1	0.0015325
3510.75	0.0010228
3520.39	0.0006968
3530.04	0.000813
3539.68	0.0006895
3549.32	0.0005322
3558.97	0.00046
3568.61	0.00059616
3578.26	0.0005219
3587.9	0.00038
3597.55	0.0007541
3607.19	0.000570436
3616.84	0.000738
3626.48	0.000532
3636.13	0.00066584
3645.77	0.0004724
3655.42	0.0004754
3665.06	0.00060253
3674.71	0.000702
3684.35	0.000713
3694	0.0007397
3703.64	0.0005477
3713.29	0.00056409
3722.93	0.00059055
3732.58	0.0005587
3742.22	0.0006795
3751.86	0.00061191
3761.51	0.0006889
3771.15	0.0006633
3780.8	0.0007324
3790.44	0.000574011
3800.09	0.0008547
3809.73	0.0006948
3819.38	0.0008158
3829.02	0.0007631
3838.67	0.0007542
3848.31	0.00065969
3857.96	0.0004827
3867.6	0.0004742
3877.25	0.00064571
3886.89	0.00060655
3896.54	0.0005816
3906.18	0.00056004
3915.83	0.00064167
3925.47	0.0007568
3935.12	0.0006807
3944.76	0.00060271
3954.41	0.0008015
3964.05	0.00066877
3973.69	0.00059345
3983.34	0.00060614
3992.98	0.0007821
