Infrared Spectrum: Benzothiopyran, 4H-1-, 4-(3-(2-chloroethyl )ureido)-2,3-dL-hydro-
Formula: C12 H15 Cl N2 O S
CAS: 27047-62-7
State: SOLID (1 mg / 650 mg KBr DISC)
Class: COBLENTZ III
Instrument: PERKIN-ELMER 521 (GRATING)
Instrument parameters: FILTERS AT 3150, 2500, 2000, 1150, 700, 410. GRATING CHANGES: 2000, 630
Sampling: TRANSMISSION
Resolution: 2
Origin: SOUTHERN RESEARCH INSTITUTE
1/CM	TRANSMITTANCE
258	0.2675
268.045	0.3303
278.09	0.4027
288.135	0.4713
298.18	0.5133
308.225	0.5462
318.27	0.5972
328.315	0.6381
338.36	0.6758
348.405	0.6856
358.45	0.6875
368.495	0.7392
378.54	0.7589
388.585	0.7805
398.63	0.7805
408.675	0.7905
418.72	0.7916
428.765	0.7936
438.811	0.7495
448.856	0.7717
458.901	0.6986
468.946	0.7398
478.991	0.7926
489.036	0.7582
499.081	0.7541
509.126	0.805
519.171	0.8019
529.216	0.7886
539.261	0.7748
549.306	0.7826
559.351	0.7822
569.396	0.7689
579.441	0.729
589.486	0.6911
599.531	0.7124
609.576	0.6493
619.621	0.6285
629.666	0.6154
639.711	0.6047
649.756	0.6236
659.801	0.6648
669.846	0.6343
679.891	0.7192
689.936	0.7483
699.981	0.7588
710.026	0.7581
720.071	0.6295
730.116	0.6371
740.161	0.4659
750.206	0.5729
760.251	0.7861
770.296	0.8069
780.342	0.856
790.387	0.866
800.432	0.8687
810.477	0.8719
820.522	0.8791
830.567	0.8778
840.612	0.8685
850.657	0.8643
860.702	0.868
870.747	0.8584
880.792	0.8686
890.837	0.8698
900.882	0.8679
910.927	0.8475
920.972	0.8239
931.017	0.8178
941.062	0.7533
951.107	0.8129
961.152	0.8226
971.197	0.8159
981.242	0.7927
991.287	0.8102
1001.33	0.8077
1011.38	0.7955
1021.42	0.764
1031.47	0.739
1041.51	0.707
1051.56	0.7024
1061.6	0.6931
1071.65	0.6806
1081.69	0.6992
1091.74	0.7596
1101.78	0.7816
1111.83	0.7704
1121.87	0.7337
1131.92	0.7707
1141.96	0.7165
1152.01	0.7045
1162.05	0.7533
1172.1	0.7258
1182.14	0.6593
1192.19	0.6789
1202.23	0.6884
1212.28	0.6657
1222.32	0.5239
1232.37	0.3458
1242.41	0.4328
1252.46	0.5033
1262.5	0.5916
1272.55	0.6297
1282.59	0.6056
1292.64	0.6674
1302.68	0.6887
1312.73	0.7032
1322.77	0.6898
1332.82	0.7659
1342.86	0.7828
1352.91	0.7656
1362.95	0.7617
1373	0.7912
1383.04	0.7968
1393.09	0.7932
1403.13	0.7819
1413.18	0.7472
1423.22	0.5798
1433.27	0.5848
1443.31	0.552
1453.36	0.7033
1463.4	0.6172
1473.45	0.61
1483.49	0.6464
1493.54	0.563
1503.58	0.5318
1513.63	0.5277
1523.67	0.4919
1533.72	0.4355
1543.76	0.2997
1553.81	0.1146
1563.85	0.1128
1573.9	0.1792
1583.94	0.3425
1593.99	0.4218
1604.03	0.1338
1614.08	0.0893
1624.12	0.1626
1634.17	0.3082
1644.21	0.4775
1654.26	0.6242
1664.3	0.7018
1674.35	0.7346
1684.39	0.7632
1694.44	0.8018
1704.48	0.8348
1714.53	0.8667
1724.57	0.8805
1734.62	0.8897
1744.66	0.8942
1754.71	0.9011
1764.75	0.9046
1774.8	0.9068
1784.84	0.9054
1794.89	0.9054
1804.93	0.9123
1814.98	0.9129
1825.02	0.9125
1835.07	0.9121
1845.11	0.912
1855.16	0.912
1865.2	0.9114
1875.25	0.9109
1885.29	0.9092
1895.34	0.9054
1905.38	0.9017
1915.43	0.9064
1925.47	0.9053
1935.52	0.9049
1945.56	0.9034
1955.61	0.9023
1965.65	0.9012
1975.7	0.9
1985.75	0.9007
1995.79	0.902
2005.84	0.903
2015.88	0.9038
2025.93	0.9045
2035.97	0.9044
2046.02	0.9031
2056.06	0.9019
2066.11	0.9014
2076.15	0.9011
2086.2	0.9013
2096.24	0.9017
2106.29	0.9022
2116.33	0.901
2126.38	0.8995
2136.42	0.8992
2146.47	0.8994
2156.51	0.8998
2166.56	0.8989
2176.6	0.8981
2186.65	0.8971
2196.69	0.8961
2206.74	0.8951
2216.78	0.8941
2226.83	0.8931
2236.87	0.8925
2246.92	0.8931
2256.96	0.8936
2267.01	0.8932
2277.05	0.8923
2287.1	0.8913
2297.14	0.8905
2307.19	0.8897
2317.23	0.8889
2327.28	0.8883
2337.32	0.888
2347.37	0.8877
2357.41	0.8874
2367.46	0.8871
2377.5	0.8868
2387.55	0.8859
2397.59	0.885
2407.64	0.8841
2417.68	0.8832
2427.73	0.8822
2437.77	0.881
2447.82	0.8798
2457.86	0.8766
2467.91	0.8736
2477.95	0.8715
2488	0.8707
2498.04	0.8699
2508.09	0.8698
2518.13	0.8693
2528.18	0.8688
2538.22	0.8683
2548.27	0.8679
2558.31	0.8667
2568.36	0.8654
2578.4	0.8619
2588.45	0.8557
2598.49	0.8532
2608.54	0.8541
2618.58	0.8536
2628.63	0.8531
2638.67	0.8526
2648.72	0.8521
2658.76	0.8516
2668.81	0.8511
2678.85	0.8498
2688.9	0.8501
2698.94	0.8502
2708.99	0.8504
2719.03	0.8503
2729.08	0.8489
2739.12	0.8474
2749.17	0.8458
2759.21	0.8443
2769.26	0.8427
2779.3	0.8386
2789.35	0.8307
2799.39	0.822
2809.44	0.8136
2819.48	0.8067
2829.53	0.7995
2839.57	0.792
2849.62	0.7891
2859.66	0.7959
2869.71	0.8008
2879.75	0.7898
2889.8	0.7547
2899.84	0.7143
2909.89	0.6783
2919.93	0.6706
2929.98	0.6676
2940.02	0.699
2950.07	0.6961
2960.11	0.7063
2970.16	0.7707
2980.2	0.7868
2990.25	0.7745
3000.29	0.757
3010.34	0.7724
3020.38	0.774
3030.43	0.7663
3040.47	0.7583
3050.52	0.754
3060.56	0.7669
3070.61	0.7795
3080.65	0.774
3090.7	0.7656
3100.74	0.7626
3110.79	0.7622
3120.83	0.7671
3130.88	0.7885
3140.92	0.7758
3150.97	0.768
3161.01	0.7648
3171.06	0.7613
3181.1	0.7553
3191.15	0.7444
3201.19	0.7327
3211.24	0.7188
3221.28	0.7021
3231.33	0.6809
3241.37	0.657
3251.42	0.6262
3261.46	0.5807
3271.51	0.5097
3281.55	0.4442
3291.6	0.4026
3301.64	0.3656
3311.69	0.3391
3321.73	0.3252
3331.78	0.3199
3341.82	0.3223
3351.87	0.3522
3361.91	0.3948
3371.96	0.4932
3382	0.5738
3392.05	0.6204
3402.09	0.6685
3412.14	0.702
3422.18	0.7217
3432.23	0.7358
3442.27	0.7477
3452.32	0.7559
3462.36	0.763
3472.41	0.7676
3482.45	0.7717
3492.5	0.7743
3502.54	0.7761
3512.59	0.7772
3522.63	0.7817
3532.68	0.7885
3542.72	0.7979
3552.77	0.807
3562.81	0.8146
3572.86	0.8219
3582.9	0.8291
3592.95	0.8351
3602.99	0.8411
3613.04	0.8475
3623.08	0.8516
3633.13	0.8557
3643.17	0.8582
3653.22	0.8594
3663.26	0.859
3673.31	0.8575
3683.36	0.8587
3693.4	0.8643
3703.45	0.8642
3713.49	0.8627
3723.54	0.8623
3733.58	0.8623
3743.63	0.863
3753.67	0.8644
3763.72	0.8669
3773.76	0.869
3783.81	0.8692
3793.85	0.868
3803.9	0.8669
3813.94	0.8658
3823.99	0.8647
3834.03	0.8639
3844.08	0.8632
3854.12	0.8625
3864.17	0.8618
3874.21	0.8613
3884.26	0.8612
3894.3	0.861
3904.35	0.8611
3914.39	0.8614
3924.44	0.8615
3934.48	0.8615
3944.53	0.8611
3954.57	0.861
3964.62	0.8614
3974.66	0.8618
3984.71	0.8616
3994.75	0.8616
4004.8	0.8621
4014.84	0.8639
