Infrared Spectrum: Allyl cyclohexylpropionate
Formula: C 12 H 20 O 2
CAS: 2705-87-5
State: gas
Instrument: HP-GC/MS/IRD
Origin: NIST Mass Spectrometry Data Center
1/CM	ABSORBANCE
550	0.0003472
562	0.000448
574	0.0002352
586	0.0002912
598	0.0005096
610	0.0004536
622	0.0004816
634	0.0004424
646	0.0003136
658	0.0002352
670	0.000168
682	0.0001456
694	0.0001512
706	6.16e-05
718	2.8e-05
730	5.04e-05
742	2.8e-05
754	0.0001568
766	0.0002576
778	0.0002128
790	0.000224
802	0.0003136
814	0.0005376
826	0.0006888
838	0.0010752
850	0.0008736
862	0.000924
874	0.0013272
886	0.0017808
898	0.0020776
910	0.0030128
922	0.005124
934	0.005936
946	0.0037128
958	0.0033936
970	0.00504
982	0.0084168
994	0.009996
1006	0.0085624
1018	0.0065688
1030	0.0046424
1042	0.003472
1054	0.0032312
1066	0.003472
1078	0.0044576
1090	0.0053816
1102	0.0062048
1114	0.0091056
1126	0.0134512
1138	0.0163184
1150	0.021336
1162	0.0238168
1174	0.0206864
1186	0.0158144
1198	0.0127008
1210	0.0124208
1222	0.01288
1234	0.0127344
1246	0.0126336
1258	0.0102144
1270	0.0092288
1282	0.0077728
1294	0.0056
1306	0.0055664
1318	0.0054264
1330	0.004872
1342	0.0044016
1354	0.004284
1366	0.0049896
1378	0.0046592
1390	0.002968
1402	0.002072
1414	0.0023352
1426	0.003192
1438	0.0044016
1450	0.0070056
1462	0.0055888
1474	0.0021952
1486	0.00098
1498	0.000588
1510	0.0004032
1522	0.0003472
1534	0.0002688
1546	0.0002744
1558	0.0002128
1570	0.0002296
1582	0.0002408
1594	0.00028
1606	0.0002856
1618	0.0003864
1630	0.000588
1642	0.0009856
1654	0.0009856
1666	0.0007224
1678	0.0007616
1690	0.0010976
1702	0.0017976
1714	0.003024
1726	0.0054824
1738	0.013356
1750	0.0281568
1762	0.0251328
1774	0.009996
1786	0.0039648
1798	0.002072
1810	0.0012656
1822	0.0008512
1834	0.0006328
1846	0.000616
1858	0.0006216
1870	0.0005152
1882	0.0003696
1894	0.00028
1906	0.0002352
1918	0.0002184
1930	0.0002072
1942	0.0002408
1954	0.0002184
1966	0.0002352
1978	0.0002128
1990	0.0001904
2002	0.000224
2014	0.0001792
2026	0.000196
2038	0.000168
2050	0.0001456
2062	0.00014
2074	0.0001064
2086	8.96e-05
2098	0.000112
2110	0.0001008
2122	4.48e-05
2134	3.92e-05
2146	3.36e-05
2158	2.24e-05
2170	6.72e-05
2182	3.36e-05
2194	5.04e-05
2206	2.24e-05
2218	3.92e-05
2230	7.84e-05
2242	6.72e-05
2254	3.36e-05
2266	0
2278	2.8e-05
2290	4.48e-05
2302	6.72e-05
2314	7.28e-05
2326	8.4e-05
2338	6.16e-05
2350	6.72e-05
2362	8.96e-05
2374	8.4e-05
2386	6.72e-05
2398	5.04e-05
2410	4.48e-05
2422	6.72e-05
2434	5.04e-05
2446	5.04e-05
2458	7.28e-05
2470	3.36e-05
2482	8.4e-05
2494	6.72e-05
2506	3.36e-05
2518	4.48e-05
2530	5.6e-05
2542	8.4e-05
2554	0.0001008
2566	0.0001008
2578	0.0001624
2590	0.0001848
2602	0.000224
2614	0.0002576
2626	0.00028
2638	0.0003136
2650	0.0004368
2662	0.00056
2674	0.0005936
2686	0.0004424
2698	0.0004088
2710	0.000392
2722	0.0003528
2734	0.0003416
2746	0.0003304
2758	0.0003584
2770	0.000448
2782	0.0006608
2794	0.0009352
2806	0.0011928
2818	0.001456
2830	0.00224
2842	0.005124
2854	0.0131152
2866	0.0170576
2878	0.0095032
2890	0.00854
2902	0.0123088
2914	0.0215376
2926	0.0436856
2938	0.0529424
2950	0.0240576
2962	0.0095536
2974	0.0053368
2986	0.003864
2998	0.0028112
3010	0.0020216
3022	0.0017472
3034	0.0013552
3046	0.0008736
3058	0.0007616
3070	0.0009184
3082	0.001372
3094	0.00196
3106	0.0014952
3118	0.0006048
3130	0.000392
3142	0.0003024
3154	0.0002632
3166	0.0002016
3178	0.0001176
3190	8.4e-05
3202	0.0001064
3214	7.84e-05
3226	7.84e-05
3238	5.04e-05
3250	7.28e-05
3262	6.16e-05
3274	8.96e-05
3286	3.36e-05
3298	4.48e-05
3310	3.92e-05
3322	5.6e-05
3334	3.36e-05
3346	7.84e-05
3358	0.000112
3370	6.16e-05
3382	7.28e-05
3394	8.4e-05
3406	6.72e-05
3418	6.72e-05
3430	0.0001008
3442	0.0001344
3454	0.0001512
3466	0.0002408
3478	0.0003528
3490	0.0003864
3502	0.0003136
3514	0.0002128
3526	0.0001624
3538	0.0001344
3550	3.36e-05
3562	6.72e-05
3574	7.28e-05
3586	3.36e-05
3598	0.0001064
3610	8.96e-05
3622	8.96e-05
3634	5.6e-05
3646	8.96e-05
3658	6.72e-05
3670	0.0001064
3682	8.4e-05
3694	9.52e-05
3706	8.4e-05
3718	0.0001288
3730	0.000112
3742	0.00014
3754	7.84e-05
3766	8.96e-05
3778	8.96e-05
3790	0.000112
3802	0.000112
3814	0.0001568
3826	0.0001288
3838	0.000168
