Infrared Spectrum: 2-Bromo-5-methoxytoluene
Formula: C 8 H 9 Br O
CAS: 27060-75-9
State: gas
Origin: EPA-IR VAPOR PHASE LIBRARY
1/CM	ABSORBANCE
549.8	0.003095
559.445	0.004015
569.09	0.005885
578.734	0.009835
588.379	0.020545
598.024	0.033705
607.669	0.021425
617.313	0.009915
626.958	0.006865
636.603	0.003135
646.248	0.001375
655.893	0.0009961
665.537	0.0010179
675.182	0.001655
684.827	0.002215
694.472	0.002905
704.116	0.002515
713.761	0.002105
723.406	0.002405
733.051	0.002055
742.695	0.001765
752.34	0.001415
761.985	0.001665
771.63	0.002755
781.275	0.007485
790.919	0.016515
800.564	0.022095
810.209	0.021215
819.854	0.011885
829.498	0.008815
839.143	0.012775
848.788	0.015125
858.433	0.017405
868.078	0.016675
877.722	0.010045
887.367	0.004815
897.012	0.003475
906.657	0.003115
916.301	0.003985
925.946	0.004235
935.591	0.003425
945.236	0.002865
954.88	0.002795
964.525	0.003395
974.17	0.004545
983.815	0.007145
993.46	0.011445
1003.1	0.018585
1012.75	0.036135
1022.39	0.073905
1032.04	0.067625
1041.68	0.035655
1051.33	0.039615
1060.97	0.038555
1070.62	0.025155
1080.26	0.013135
1089.91	0.009235
1099.55	0.008775
1109.2	0.014655
1118.84	0.027015
1128.49	0.027715
1138.13	0.028605
1147.78	0.034775
1157.42	0.066025
1167.07	0.078565
1176.71	0.036205
1186.36	0.020275
1196	0.015895
1205.64	0.013085
1215.29	0.017645
1224.93	0.043665
1234.58	0.124275
1244.22	0.140235
1253.87	0.056635
1263.51	0.036125
1273.16	0.061255
1282.8	0.108765
1292.45	0.105395
1302.09	0.071395
1311.74	0.051735
1321.38	0.023105
1331.03	0.010445
1340.67	0.006825
1350.32	0.006465
1359.96	0.007965
1369.61	0.011455
1379.25	0.015705
1388.9	0.020515
1398.54	0.029715
1408.18	0.033095
1417.83	0.024985
1427.47	0.022175
1437.12	0.029055
1446.76	0.037425
1456.41	0.049005
1466.05	0.092525
1475.7	0.159175
1485.34	0.124235
1494.99	0.053325
1504.63	0.031465
1514.28	0.021175
1523.92	0.015425
1533.57	0.013065
1543.21	0.014135
1552.86	0.020435
1562.5	0.036355
1572.15	0.052635
1581.79	0.048125
1591.44	0.049185
1601.08	0.046695
1610.73	0.025035
1620.37	0.012665
1630.01	0.007515
1639.66	0.004955
1649.3	0.004265
1658.95	0.003685
1668.59	0.003155
1678.24	0.002615
1687.88	0.002235
1697.53	0.002125
1707.17	0.002285
1716.82	0.002705
1726.46	0.002735
1736.11	0.002535
1745.75	0.002185
1755.4	0.001635
1765.04	0.001305
1774.69	0.001135
1784.33	0.001245
1793.98	0.001215
1803.62	0.0009687
1813.27	0.0010487
1822.91	0.001455
1832.55	0.002135
1842.2	0.002845
1851.84	0.002795
1861.49	0.002875
1871.13	0.003065
1880.78	0.003235
1890.42	0.002555
1900.07	0.001755
1909.71	0.001435
1919.36	0.001135
1929	0.0010027
1938.65	0.001205
1948.29	0.001725
1957.94	0.002265
1967.58	0.002175
1977.23	0.001675
1986.87	0.001315
1996.52	0.001335
2006.16	0.001515
2015.81	0.001525
2025.45	0.001495
2035.1	0.001525
2044.74	0.001755
2054.38	0.001865
2064.03	0.001895
2073.67	0.001985
2083.32	0.001795
2092.96	0.001665
2102.61	0.001475
2112.25	0.001195
2121.9	0.001115
2131.54	0.000978
2141.19	0.0010508
2150.83	0.001455
2160.48	0.001675
2170.12	0.001385
2179.77	0.001125
2189.41	0.001265
2199.06	0.001515
2208.7	0.001275
2218.35	0.001165
2227.99	0.001044
2237.64	0.0008705
2247.28	0.0005775
2256.92	0.0003815
2266.57	0.0003419
2276.21	0.0005931
2285.86	0.0008233
2295.5	0.0010321
2305.15	0.0010788
2314.79	0.0009285
2324.44	0.0007827
2334.08	0.0006454
2343.73	0.0004994
2353.37	0.0006093
2363.02	0.0005853
2372.66	0.0004902
2382.31	0.0007816
2391.95	0.0008849
2401.6	0.0010262
2411.24	0.0010004
2420.89	0.0009208
2430.53	0.0010476
2440.18	0.0009395
2449.82	0.0010177
2459.47	0.0009978
2469.11	0.001105
2478.75	0.001195
2488.4	0.001155
2498.04	0.0010681
2507.69	0.001145
2517.33	0.001295
2526.98	0.001545
2536.62	0.001565
2546.27	0.001355
2555.91	0.0010823
2565.56	0.0010548
2575.2	0.0010283
2584.85	0.0009094
2594.49	0.0008876
2604.14	0.001185
2613.78	0.001125
2623.43	0.001018
2633.07	0.0010338
2642.72	0.0009104
2652.36	0.0008216
2662.01	0.0008126
2671.65	0.0005502
2681.29	0.0006103
2690.94	0.0006101
2700.58	0.000667
2710.23	0.0006693
2719.87	0.00075
2729.52	0.0009478
2739.16	0.001375
2748.81	0.001785
2758.45	0.001665
2768.1	0.001575
2777.74	0.001775
2787.39	0.002345
2797.03	0.003025
2806.68	0.004095
2816.32	0.005915
2825.97	0.009105
2835.61	0.017055
2845.26	0.025235
2854.9	0.022135
2864.55	0.016635
2874.19	0.014325
2883.84	0.013805
2893.48	0.014875
2903.12	0.019015
2912.77	0.025535
2922.41	0.030525
2932.06	0.038155
2941.7	0.050145
2951.35	0.049285
2960.99	0.038695
2970.64	0.029105
2980.28	0.023835
2989.93	0.023175
2999.57	0.028525
3009.22	0.037105
3018.86	0.023515
3028.51	0.013725
3038.15	0.011355
3047.8	0.009635
3057.44	0.009405
3067.09	0.010575
3076.73	0.011845
3086.38	0.010505
3096.02	0.007795
3105.67	0.005125
3115.31	0.003385
3124.95	0.002305
3134.6	0.002125
3144.24	0.001635
3153.89	0.001375
3163.53	0.0009482
3173.18	0.0010274
3182.82	0.0007607
3192.47	0.0007393
3202.11	0.0004919
3211.76	0.0006501
3221.4	0.0005103
3231.05	0.0004161
3240.69	0.0003661
3250.34	0.00014715
3259.98	0.00018544
3269.63	0.000105249
3279.27	0.00017699
3288.92	0.0004598
3298.56	0.00015688
3308.21	0.0002247
3317.85	0.00013127
3327.49	0.000229
3337.14	0.0002154
3346.78	0.0003406
3356.43	0.0002932
3366.07	0.0002235
3375.72	0.0002253
3385.36	0.0003246
3395.01	0.00014665
3404.65	0.0003729
3414.3	0.00017233
3423.94	0.00016888
3433.59	0.0003192
3443.23	0.00013455
3452.88	0.00012654
3462.52	0.00018159
3472.17	0.0002303
3481.81	0.0002764
3491.46	1.78e-05
3501.1	0.00017145
3510.75	0.00018678
3520.39	0.00019539
3530.04	0.0002907
3539.68	0.00017567
3549.32	0.0002551
3558.97	0.0002163
3568.61	0.00015603
3578.26	0.00011649
3587.9	0.0001837
3597.55	0.00018564
3607.19	0.0002722
3616.84	0.0003712
3626.48	0.0003034
3636.13	0.0005294
3645.77	0.0003337
3655.42	0.00013103
3665.06	0.0003276
3674.71	0.0002923
3684.35	0.000247
3694	0.0003292
3703.64	0.0002389
3713.29	0.0003167
3722.93	0.00018262
3732.58	0.00016431
3742.22	0.0004084
3751.86	0.0003539
3761.51	0.000274
3771.15	0.0004114
3780.8	0.0002099
3790.44	0.0005241
3800.09	0.0005085
3809.73	0.0004149
3819.38	0.0004308
3829.02	0.0005711
3838.67	0.0003658
3848.31	0.000442
3857.96	0.0004069
3867.6	0.0003905
3877.25	0.0003098
3886.89	0.0007434
3896.54	0.0004742
3906.18	0.0004872
3915.83	0.000515
3925.47	0.0003469
3935.12	0.0005437
3944.76	0.0005397
3954.41	0.0006904
3964.05	0.0005404
3973.69	0.0007629
3983.34	0.0007916
3992.98	0.0009124
