Infrared Spectrum: Bicyclo[2.2.1]-5-heptene-2-carbonyl chloride
Formula: C 8 H 9 Cl O
CAS: 27063-48-5
State: gas
Origin: EPA-IR VAPOR PHASE LIBRARY
1/CM	ABSORBANCE
549.8	0.00204
559.445	0.00225
569.09	0.00178
578.734	0.00222
588.379	0.00237
598.024	0.0021
607.669	0.00235
617.313	0.00227
626.958	0.0024
636.603	0.00311
646.248	0.00352
655.893	0.00553
665.537	0.0124
675.182	0.01229
684.827	0.01212
694.472	0.03108
704.116	0.04209
713.761	0.02765
723.406	0.01194
733.051	0.00937
742.695	0.01232
752.34	0.01366
761.985	0.01399
771.63	0.01505
781.275	0.01115
790.919	0.00703
800.564	0.00822
810.209	0.0091
819.854	0.00878
829.498	0.01239
839.143	0.01369
848.788	0.00865
858.433	0.00528
868.078	0.00398
877.722	0.00351
887.367	0.00516
897.012	0.00656
906.657	0.0104
916.301	0.01591
925.946	0.01437
935.591	0.00956
945.236	0.00851
954.88	0.01074
964.525	0.01299
974.17	0.01474
983.815	0.019
993.46	0.02145
1003.1	0.01506
1012.75	0.00665
1022.39	0.00988
1032.04	0.01558
1041.68	0.01343
1051.33	0.01035
1060.97	0.01114
1070.62	0.00676
1080.26	0.00407
1089.91	0.00354
1099.55	0.00315
1109.2	0.00302
1118.84	0.00425
1128.49	0.00575
1138.13	0.00648
1147.78	0.00579
1157.42	0.00522
1167.07	0.00314
1176.71	0.00196
1186.36	0.002
1196	0.00134
1205.64	0.00128
1215.29	0.00208
1224.93	0.00259
1234.58	0.0022
1244.22	0.00175
1253.87	0.00226
1263.51	0.00335
1273.16	0.00262
1282.8	0.0009203
1292.45	0.0004962
1302.09	0.0009849
1311.74	0.00261
1321.38	0.00414
1331.03	0.00588
1340.67	0.00588
1350.32	0.0041
1359.96	0.00278
1369.61	0.00231
1379.25	0.00254
1388.9	0.00273
1398.54	0.00257
1408.18	0.00236
1417.83	0.00196
1427.47	0.00163
1437.12	0.00197
1446.76	0.00282
1456.41	0.00292
1466.05	0.00214
1475.7	0.0013
1485.34	0.0007763
1494.99	0.0006651
1504.63	0.0006773
1514.28	0.0006308
1523.92	0.0006609
1533.57	0.0005771
1543.21	0.0005239
1552.86	0.000584
1562.5	0.0009222
1572.15	0.0011542
1581.79	0.0011517
1591.44	0.0010555
1601.08	0.00135
1610.73	0.00172
1620.37	0.00163
1630.01	0.00145
1639.66	0.0010964
1649.3	0.0009105
1658.95	0.0007473
1668.59	0.0006709
1678.24	0.0007114
1687.88	0.0006542
1697.53	0.000757
1707.17	0.0007906
1716.82	0.0010269
1726.46	0.00155
1736.11	0.00253
1745.75	0.00456
1755.4	0.00899
1765.04	0.01521
1774.69	0.02059
1784.33	0.02857
1793.98	0.03882
1803.62	0.05175
1813.27	0.04954
1822.91	0.03143
1832.55	0.01617
1842.2	0.00962
1851.84	0.00616
1861.49	0.00406
1871.13	0.00283
1880.78	0.00196
1890.42	0.00146
1900.07	0.0010941
1909.71	0.0010344
1919.36	0.0010324
1929	0.0010492
1938.65	0.0010754
1948.29	0.001064
1957.94	0.0009612
1967.58	0.0008198
1977.23	0.0007195
1986.87	0.0006186
1996.52	0.0005941
2006.16	0.0006235
2015.81	0.0005632
2025.45	0.0007603
2035.1	0.0007241
2044.74	0.0010369
2054.38	0.0011739
2064.03	0.00149
2073.67	0.00179
2083.32	0.00241
2092.96	0.00393
2102.61	0.00647
2112.25	0.00996
2121.9	0.0125
2131.54	0.01233
2141.19	0.00868
2150.83	0.00451
2160.48	0.00194
2170.12	0.00136
2179.77	0.0008995
2189.41	0.0008189
2199.06	0.0007559
2208.7	0.0006624
2218.35	0.0007673
2227.99	0.000635
2237.64	0.0005982
2247.28	0.0005602
2256.92	0.0005801
2266.57	0.0005491
2276.21	0.0004843
2285.86	0.0003524
2295.5	0.0003213
2305.15	0.000385
2314.79	0.000366
2324.44	0.0004734
2334.08	0.0004666
2343.73	0.0004614
2353.37	0.0005825
2363.02	0.0003927
2372.66	0.000424
2382.31	0.0003124
2391.95	0.0003626
2401.6	0.00022292
2411.24	0.0003163
2420.89	0.00022663
2430.53	0.00028521
2440.18	0.00028516
2449.82	0.00023894
2459.47	0.00028653
2469.11	0.0001618
2478.75	0.000207569
2488.4	0.00028787
2498.04	0.0002972
2507.69	0.00029056
2517.33	0.00025993
2526.98	0.00024256
2536.62	0.00028375
2546.27	0.00028344
2555.91	0.0001872
2565.56	0.0003168
2575.2	0.0001322
2584.85	0.0003137
2594.49	0.00021084
2604.14	0.00026682
2613.78	0.0001595
2623.43	0.000204074
2633.07	0.0001525
2642.72	0.00027172
2652.36	0.00021875
2662.01	0.00019154
2671.65	0.0002557
2681.29	0.000309
2690.94	0.0001246
2700.58	0.00023265
2710.23	0.0001545
2719.87	0.000205007
2729.52	0.0003682
2739.16	0.0003878
2748.81	0.0004305
2758.45	0.00027344
2768.1	0.00027814
2777.74	0.000199472
2787.39	0.00021776
2797.03	0.0004329
2806.68	0.0003004
2816.32	0.0003398
2825.97	0.0004729
2835.61	0.0005216
2845.26	0.0009368
2854.9	0.00146
2864.55	0.0036
2874.19	0.00622
2883.84	0.00747
2893.48	0.00612
2903.12	0.00464
2912.77	0.00541
2922.41	0.00528
2932.06	0.00708
2941.7	0.01097
2951.35	0.01395
2960.99	0.01365
2970.64	0.01715
2980.28	0.02673
2989.93	0.0295
2999.57	0.01957
3009.22	0.00748
3018.86	0.00338
3028.51	0.00165
3038.15	0.00136
3047.8	0.00148
3057.44	0.00272
3067.09	0.00483
3076.73	0.00525
3086.38	0.00352
3096.02	0.00243
3105.67	0.00179
3115.31	0.00144
3124.95	0.0011927
3134.6	0.0011389
3144.24	0.0009129
3153.89	0.0005443
3163.53	0.0001742
3173.18	0.00029474
3182.82	0.00028683
3192.47	0.0001406
3202.11	0
3211.76	0.0001421
3221.4	0.00027683
3231.05	0.0001511
3240.69	9.7e-05
3250.34	0.0001793
3259.98	0.00024901
3269.63	0.0003688
3279.27	0.00025478
3288.92	0.0003283
3298.56	0.0001799
3308.21	0.0001
3317.85	0.0001225
3327.49	0.0003141
3337.14	0.0003048
3346.78	0.0001718
3356.43	0.0001731
3366.07	0.0001877
3375.72	0.0001196
3385.36	0.0001841
3395.01	0.0003106
3404.65	0.000261
3414.3	0.00027688
3423.94	0.0001545
3433.59	0.000204693
3443.23	0.0004651
3452.88	0.0003212
3462.52	0.0004776
3472.17	0.00028816
3481.81	0.00028977
3491.46	0.0003388
3501.1	0.0004622
3510.75	0.000443
3520.39	0.0004563
3530.04	0.0003485
3539.68	0.0006694
3549.32	0.000696
3558.97	0.0006604
3568.61	0.000564
3578.26	0.0010236
3587.9	0.0010492
3597.55	0.001111
3607.19	0.0008254
3616.84	0.0006808
3626.48	0.0005155
3636.13	0.0004022
3645.77	0.0004004
3655.42	0.0004428
3665.06	0.000305
3674.71	0.0003267
3684.35	0.0003135
3694	0.00021028
3703.64	0.000138
3713.29	0.00027595
3722.93	0.00024337
3732.58	0.0004087
3742.22	0.0005042
3751.86	0.0004193
3761.51	0.000321
3771.15	0.0004602
3780.8	5.9e-05
3790.44	0.0003736
3800.09	0.0004057
3809.73	0.0003076
3819.38	0.0004166
3829.02	0.0003207
3838.67	0.0001734
3848.31	0.0003956
3857.96	0.0004247
3867.6	0.00028113
3877.25	0.000437
3886.89	0.0004787
3896.54	0.0004967
3906.18	0.0006721
3915.83	0.0006389
3925.47	0.0003425
3935.12	0.000583
3944.76	0.000758
3954.41	0.0003219
3964.05	0.00021545
3973.69	0.0003246
3983.34	0.0004384
3992.98	0.0004641
