Infrared Spectrum: Perfluoropentanoic acid
Formula: C 5 H F 9 O 2
CAS: 2706-90-3
State: gas
Origin: EPA-IR VAPOR PHASE LIBRARY
1/CM	ABSORBANCE
549.8	0.00583
559.445	0.00554
569.09	0.00774
578.734	0.00897
588.379	0.00905
598.024	0.00759
607.669	0.00678
617.313	0.00846
626.958	0.00836
636.603	0.00782
646.248	0.00828
655.893	0.01005
665.537	0.01254
675.182	0.01141
684.827	0.00914
694.472	0.01066
704.116	0.00692
713.761	0.00325
723.406	0.00341
733.051	0.003
742.695	0.00769
752.34	0.01005
761.985	0.00632
771.63	0.0037
781.275	0.0029
790.919	0.0019
800.564	0.00195
810.209	0.00188
819.854	0.0014233
829.498	0.00335
839.143	0.00649
848.788	0.00872
858.433	0.00616
868.078	0.01167
877.722	0.01815
887.367	0.01343
897.012	0.00886
906.657	0.00645
916.301	0.00586
925.946	0.00602
935.591	0.00434
945.236	0.00246
954.88	0.00199
964.525	0.0014373
974.17	0.00231
983.815	0.00254
993.46	0.00249
1003.1	0.00343
1012.75	0.00748
1022.39	0.01124
1032.04	0.00995
1041.68	0.00673
1051.33	0.00461
1060.97	0.0043
1070.62	0.00418
1080.26	0.00475
1089.91	0.00756
1099.55	0.01312
1109.2	0.02086
1118.84	0.03445
1128.49	0.04124
1138.13	0.04426
1147.78	0.03813
1157.42	0.02741
1167.07	0.02642
1176.71	0.03039
1186.36	0.0343
1196	0.03841
1205.64	0.04326
1215.29	0.0546
1224.93	0.07358
1234.58	0.11174
1244.22	0.11812
1253.87	0.06
1263.51	0.02542
1273.16	0.01478
1282.8	0.01265
1292.45	0.01109
1302.09	0.00876
1311.74	0.00812
1321.38	0.01016
1331.03	0.01362
1340.67	0.01607
1350.32	0.01236
1359.96	0.00666
1369.61	0.00523
1379.25	0.00601
1388.9	0.00567
1398.54	0.00381
1408.18	0.00272
1417.83	0.00231
1427.47	0.00196
1437.12	0.00181
1446.76	0.0017
1456.41	0.0014941
1466.05	0.0015857
1475.7	0.0015913
1485.34	0.0016
1494.99	0.0013544
1504.63	0.0015636
1514.28	0.0015316
1523.92	0.0014382
1533.57	0.0015832
1543.21	0.0014254
1552.86	0.0013826
1562.5	0.0013254
1572.15	0.0014145
1581.79	0.0011791
1591.44	0.001255
1601.08	0.0010509
1610.73	0.0011638
1620.37	0.0013871
1630.01	0.0011158
1639.66	0.0010004
1649.3	0.0011701
1658.95	0.0010695
1668.59	0.0010804
1678.24	0.0008664
1687.88	0.0009137
1697.53	0.0010759
1707.17	0.0010846
1716.82	0.001286
1726.46	0.0013745
1736.11	0.001471
1745.75	0.00173
1755.4	0.00243
1765.04	0.00366
1774.69	0.0054
1784.33	0.00773
1793.98	0.0122
1803.62	0.02458
1813.27	0.04056
1822.91	0.02987
1832.55	0.01493
1842.2	0.00946
1851.84	0.00544
1861.49	0.00325
1871.13	0.00247
1880.78	0.002
1890.42	0.0015839
1900.07	0.0013994
1909.71	0.0013636
1919.36	0.0012636
1929	0.0011182
1938.65	0.0011696
1948.29	0.0011364
1957.94	0.0011848
1967.58	0.001277
1977.23	0.0011762
1986.87	0.0012476
1996.52	0.0011
2006.16	0.0010487
2015.81	0.0008072
2025.45	0.0010527
2035.1	0.000974
2044.74	0.0011918
2054.38	0.0009898
2064.03	0.0012466
2073.67	0.0010217
2083.32	0.0009695
2092.96	0.0012902
2102.61	0.0011846
2112.25	0.0011418
2121.9	0.000841
2131.54	0.0008288
2141.19	0.0010206
2150.83	0.0009684
2160.48	0.0010089
2170.12	0.0012897
2179.77	0.0010878
2189.41	0.0009131
2199.06	0.0011539
2208.7	0.0012332
2218.35	0.0011703
2227.99	0.0012333
2237.64	0.0013319
2247.28	0.0012368
2256.92	0.0010745
2266.57	0.0010025
2276.21	0.0012632
2285.86	0.0013603
2295.5	0.0013188
2305.15	0.0014889
2314.79	0.00164
2324.44	0.0018
2334.08	0.0015645
2343.73	0.00164
2353.37	0.00177
2363.02	0.002
2372.66	0.00162
2382.31	0.0014927
2391.95	0.0014874
2401.6	0.0011928
2411.24	0.0012841
2420.89	0.0014517
2430.53	0.0013669
2440.18	0.0014469
2449.82	0.0014174
2459.47	0.0013152
2469.11	0.0011744
2478.75	0.0014634
2488.4	0.0013198
2498.04	0.0013257
2507.69	0.0014455
2517.33	0.0011531
2526.98	0.0010743
2536.62	0.0011459
2546.27	0.0011802
2555.91	0.0011143
2565.56	0.0012411
2575.2	0.0011534
2584.85	0.0013673
2594.49	0.0010312
2604.14	0.0009795
2613.78	0.0009598
2623.43	0.0011775
2633.07	0.0010543
2642.72	0.0010783
2652.36	0.0010784
2662.01	0.0009622
2671.65	0.0005065
2681.29	0.0009142
2690.94	0.0008595
2700.58	0.0012441
2710.23	0.000788
2719.87	0.00067198
2729.52	0.0008875
2739.16	0.0008671
2748.81	0.0008684
2758.45	0.0009506
2768.1	0.0009116
2777.74	0.0009342
2787.39	0.0008472
2797.03	0.0005358
2806.68	0.0008094
2816.32	0.0009844
2825.97	0.00067577
2835.61	0.0010512
2845.26	0.0010821
2854.9	0.0011557
2864.55	0.0008744
2874.19	0.0010212
2883.84	0.0010578
2893.48	0.0009186
2903.12	0.0009057
2912.77	0.0009008
2922.41	0.0009354
2932.06	0.0008748
2941.7	0.0014024
2951.35	0.0009016
2960.99	0.0008264
2970.64	0.0010268
2980.28	0.0012172
2989.93	0.0009696
2999.57	0.0010967
3009.22	0.0008109
3018.86	0.00062316
3028.51	0.0011641
3038.15	0.00062882
3047.8	0.0010925
3057.44	0.0010904
3067.09	0.0010223
3076.73	0.0007236
3086.38	0.00063567
3096.02	0.0007286
3105.67	0.0012762
3115.31	0.0011931
3124.95	0.0008924
3134.6	0.000718
3144.24	0.0011082
3153.89	0.0010194
3163.53	0.00084
3173.18	0.0009117
3182.82	0.0010432
3192.47	0.00066303
3202.11	0.0010166
3211.76	0.0007885
3221.4	0.0009696
3231.05	0.0009567
3240.69	0.00068821
3250.34	0.0008622
3259.98	0.0013294
3269.63	0.001062
3279.27	0.000606273
3288.92	0.0013838
3298.56	0.0010142
3308.21	0.0009649
3317.85	0.0009147
3327.49	0.001212
3337.14	0.0009541
3346.78	0.0013538
3356.43	0.0014656
3366.07	0.0008798
3375.72	0.0008595
3385.36	0.0013263
3395.01	0.0009994
3404.65	0.000605406
3414.3	0.0014153
3423.94	0.000476
3433.59	0.0010705
3443.23	0.000223
3452.88	0.0011851
3462.52	0.0010154
3472.17	0.0010262
3481.81	0.001236
3491.46	0.0009652
3501.1	0.0007741
3510.75	0.0008588
3520.39	0.0011321
3530.04	0.0015888
3539.68	0.00195
3549.32	0.00219
3558.97	0.00594
3568.61	0.0237
3578.26	0.01989
3587.9	0.00439
3597.55	0.00379
3607.19	0.00351
3616.84	0.00247
3626.48	0.00163
3636.13	0.001465
3645.77	0.0009164
3655.42	0.0012929
3665.06	0.0012147
3674.71	0.0009167
3684.35	0.0009535
3694	0.0008869
3703.64	0.0012379
3713.29	0.0010574
3722.93	0.0007858
3732.58	0.0007838
3742.22	0.00069453
3751.86	0.0011492
3761.51	0.001148
3771.15	0.0010448
3780.8	0.0009264
3790.44	0.0012055
3800.09	0.0010191
3809.73	0.00063048
3819.38	0.0012958
3829.02	0.0013671
3838.67	0.0013539
3848.31	0.0007213
3857.96	0.0009248
3867.6	0.0010635
3877.25	0.0011366
3886.89	0.0012317
3896.54	0.0013458
3906.18	0.0010783
3915.83	0.0009431
3925.47	0.0009616
3935.12	0.0011993
3944.76	0.0015043
3954.41	0.00037
3964.05	0.0015369
3973.69	0.000473
3983.34	0.0008806
3992.98	0.0013589
