Infrared Spectrum: 1,2-DIIODOTETRAFLUOROBENZENE
Formula: C6 F4 I2
CAS: 2708-97-6
State: SOLUTION (10% CCl4 FOR 3800-1330, 10% CS2 FOR 1330-450 CM^-^1)
Melting point: 50 C
Class: COBLENTZ III
Instrument: DOW KBr FOREPRISM-GRATING
Instrument parameters: BLAZED AT 3.5, 12.0, 20.0 MICRON AND CHANGED AT 5.0, 7.5, 14.9 MICRON
Sampling: TRANSMISSION
Path length: 0.011 CM, 0.011 CM
Resolution: 2
Origin: DOW CHEMICAL COMPANY
1/CM	TRANSMITTANCE
451.726	0.971
460.503	0.954
469.28	0.946
478.057	0.944
486.834	0.943
495.611	0.933
504.389	0.928
513.166	0.926
521.943	0.925
530.72	0.933
539.497	0.933
548.274	0.938
557.051	0.938
565.828	0.935
574.605	0.938
583.382	0.942
592.159	0.938
600.936	0.943
609.714	0.949
618.491	0.947
627.268	0.903
636.045	0.954
644.822	0.962
653.599	0.969
662.376	0.979
671.153	0.971
679.93	0.968
688.707	0.973
697.484	0.966
706.261	0.976
715.039	0.98
723.816	0.975
732.593	0.976
741.37	0.954
750.147	0.887
758.924	0.851
767.701	0.6259
776.478	0.6631
785.255	0.95
794.032	0.957
802.809	0.892
811.586	0.327
820.364	0.882
829.141	0.969
837.918	0.984
846.695	0.984
855.472	0.986
864.249	0.986
873.026	0.984
881.803	0.988
890.58	0.988
899.357	0.987
908.134	0.988
916.912	0.984
925.689	0.984
934.466	0.986
943.243	0.984
952.02	0.977
960.797	0.966
969.574	0.977
978.351	0.977
987.128	0.969
995.905	0.938
1004.68	0.793
1013.46	0.749
1022.24	0.1409
1031.01	0.858
1039.79	0.943
1048.57	0.924
1057.34	0.971
1066.12	0.954
1074.9	0.965
1083.68	0.895
1092.45	0.926
1101.23	0.589
1110.01	0.2433
1118.78	0.962
1127.56	0.986
1136.34	0.998
1145.12	0.997
1153.89	0.994
1162.67	0.995
1171.45	0.983
1180.22	0.988
1189	0.991
1197.78	0.987
1206.56	0.976
1215.33	0.966
1224.11	0.979
1232.89	0.976
1241.66	0.954
1250.44	0.889
1259.22	0.658
1267.99	0.954
1276.77	0.968
1285.55	0.965
1294.33	0.96
1303.1	0.903
1311.88	0.8401
1320.66	0.951
1329.43	0.962
1338.21	0.944
1346.99	0.82
1355.77	0.958
1364.54	0.958
1373.32	0.951
1382.1	0.936
1390.87	0.957
1399.65	0.938
1408.43	0.933
1417.21	0.935
1425.98	0.742
1434.76	0.3779
1443.54	0
1452.31	0.5701
1461.09	0.661
1469.87	0.5771
1478.64	0.5449
1487.42	0.048
1496.2	0.205
1504.98	0.7191
1513.75	0.8
1522.53	0.831
1531.31	0.76
1540.08	0.822
1548.86	0.878
1557.64	0.914
1566.42	0.955
1575.19	0.944
1583.97	0.899
1592.75	0.792
1601.52	0.801
1610.3	0.836
1619.08	0.891
1627.86	0.957
1636.63	0.946
1645.41	0.95
1654.19	0.976
1662.96	0.977
1671.74	0.971
1680.52	0.969
1689.29	0.972
1698.07	0.976
1706.85	0.975
1715.63	0.975
1724.4	0.976
1733.18	0.976
1741.96	0.973
1750.73	0.98
1759.51	0.983
1768.29	0.983
1777.07	0.982
1785.84	0.976
1794.62	0.98
1803.4	0.987
1812.17	0.988
1820.95	0.99
1829.73	0.991
1838.51	0.99
1847.28	0.984
1856.06	0.984
1864.84	0.995
1873.61	0.99
1882.39	0.986
1891.17	0.988
1899.95	0.988
1908.72	0.988
1917.5	0.988
1926.28	0.99
1935.05	0.993
1943.83	0.991
1952.61	0.993
1961.38	0.988
1970.16	0.993
1978.94	0.994
1987.72	0.998
1996.49	0.998
2005.27	0.998
2014.05	1
2022.82	1.001
2031.6	1.004
2040.38	1.0041
2049.16	1.0091
2057.93	1.0121
2066.71	1.013
2075.49	1.016
2084.26	1.017
2093.04	1.0192
2101.82	1.0221
2110.6	1.024
2119.37	1.023
2128.15	1.017
2136.93	1.023
2145.7	1.026
2154.48	1.027
2163.26	1.028
2172.03	1.028
2180.81	1.028
2189.59	1.0254
2198.37	1.0227
2207.14	1.019
2215.92	1.0053
2224.7	1.0124
2233.47	1.016
2242.25	1.0156
2251.03	1.0102
2259.81	1.0004
2268.58	0.9948
2277.36	1.008
2286.14	1.0029
2294.91	1.008
2303.69	1.01
2312.47	1.0115
2321.25	1.0155
2330.02	1.018
2338.8	1.016
2347.58	1.016
2356.35	1.016
2365.13	1.006
2373.91	1.006
2382.68	1.008
2391.46	1.0116
2400.24	1.012
2409.02	1.0114
2417.79	1.005
2426.57	1.004
2435.35	1.008
2444.12	1.009
2452.9	1.009
2461.68	1.0053
2470.46	1.0057
2479.23	1.008
2488.01	1.008
2496.79	1.005
2505.56	0.9984
2514.34	0.9754
2523.12	0.9828
2531.9	0.9967
2540.67	0.9972
2549.45	0.9821
2558.23	0.9869
2567	1.0009
2575.78	1.004
2584.56	1.004
2593.33	1.004
2602.11	1.0011
2610.89	1.005
2619.67	1.005
2628.44	1.004
2637.22	1.004
2646	1.004
2654.77	1.008
2663.55	1.008
2672.33	1.008
2681.11	1.0079
2689.88	1.004
2698.66	1.0009
2707.44	1
2716.21	1.004
2724.99	1.002
2733.77	1.001
2742.55	1.002
2751.32	1.002
2760.1	1.0024
2768.88	1.005
2777.65	1.005
2786.43	1.005
2795.21	1.002
2803.98	1.004
2812.76	1.004
2821.54	1.004
2830.32	1.0017
2839.09	0.9944
2847.87	0.9837
2856.65	0.98
2865.42	0.9834
2874.2	0.9874
2882.98	0.991
2891.76	0.99
2900.53	0.9866
2909.31	0.9826
2918.09	0.9715
2926.86	0.969
2935.64	0.973
2944.42	0.981
2953.2	0.984
2961.97	0.9875
2970.75	0.991
2979.53	0.988
2988.3	0.9944
2997.08	1
3005.86	1
3014.63	1
3023.41	1
3032.19	0.9987
3040.97	0.998
3049.74	0.998
3058.52	0.998
3067.3	0.995
3076.07	0.995
3084.85	0.991
3093.63	0.993
3102.41	0.995
3111.18	0.9965
3119.96	0.998
3128.74	0.998
3137.51	1
3146.29	0.994
3155.07	0.9953
3163.85	0.995
3172.62	0.995
3181.4	0.995
3190.18	0.995
3198.95	0.9968
3207.73	0.9943
3216.51	0.994
3225.28	0.9949
3234.06	0.997
3242.84	0.9931
3251.62	0.995
3260.39	0.997
3269.17	0.997
3277.95	0.994
3286.72	0.9951
3295.5	0.998
3304.28	0.998
3313.06	0.998
3321.83	0.998
3330.61	0.997
3339.39	0.995
3348.16	0.995
3356.94	0.994
3365.72	0.994
3374.5	0.994
3383.27	0.994
3392.05	0.994
3400.83	0.994
3409.6	0.994
3418.38	0.994
3427.16	0.994
3435.93	0.993
3444.71	0.9916
3453.49	0.994
3462.27	0.995
3471.04	0.9937
3479.82	0.993
3488.6	0.993
3497.37	0.993
3506.15	0.993
3514.93	0.993
3523.71	0.993
3532.48	0.991
3541.26	0.991
3550.04	0.991
3558.81	0.991
3567.59	0.991
3576.37	0.991
3585.15	0.9895
3593.92	0.988
3602.7	0.987
3611.48	0.988
3620.25	0.9869
3629.03	0.986
3637.81	0.987
3646.58	0.99
3655.36	0.9876
3664.14	0.99
3672.92	0.99
3681.69	0.9873
3690.47	0.986
3699.25	0.987
3708.02	0.9873
3716.8	0.987
3725.58	0.987
3734.36	0.988
3743.13	0.986
3751.91	0.987
3760.69	0.991
3769.46	0.988
3778.24	0.986
3787.02	0.988
