Infrared Spectrum: 1,2-Benzisoxazole
Formula: C 7 H 5 N O
CAS: 271-95-4
State: gas
Origin: EPA-IR VAPOR PHASE LIBRARY
1/CM	ABSORBANCE
551.7	0.00637
563.274	0.00665
574.848	0.00753
586.421	0.01135
597.995	0.0172
609.569	0.0208
621.143	0.01507
632.717	0.00819
644.291	0.0057
655.864	0.00576
667.438	0.00558
679.012	0.00548
690.586	0.00569
702.16	0.0065
713.734	0.01092
725.307	0.02883
736.881	0.05758
748.455	0.07849
760.029	0.05866
771.603	0.02908
783.177	0.00959
794.75	0.0073
806.324	0.00807
817.898	0.01156
829.472	0.02107
841.046	0.03987
852.619	0.04627
864.193	0.04606
875.767	0.03252
887.341	0.02541
898.915	0.01542
910.489	0.00831
922.062	0.01759
933.636	0.02128
945.21	0.01557
956.784	0.00669
968.358	0.00583
979.932	0.00671
991.505	0.00965
1003.08	0.01095
1014.65	0.0083
1026.23	0.00538
1037.8	0.00466
1049.37	0.00445
1060.95	0.00449
1072.52	0.00443
1084.1	0.00455
1095.67	0.00582
1107.24	0.01291
1118.82	0.01511
1130.39	0.01357
1141.97	0.01283
1153.54	0.01411
1165.11	0.02009
1176.69	0.02022
1188.26	0.01197
1199.83	0.00608
1211.41	0.00908
1222.98	0.02501
1234.56	0.02999
1246.13	0.02304
1257.7	0.01431
1269.28	0.01268
1280.85	0.00767
1292.42	0.0082
1304	0.00868
1315.57	0.01
1327.15	0.01394
1338.72	0.01544
1350.29	0.0137
1361.87	0.00928
1373.44	0.00705
1385.02	0.00594
1396.59	0.00652
1408.16	0.00917
1419.74	0.01897
1431.31	0.02063
1442.88	0.01781
1454.46	0.01042
1466.03	0.01273
1477.61	0.01341
1489.18	0.01072
1500.75	0.02004
1512.33	0.02459
1523.9	0.01742
1535.48	0.00656
1547.05	0.00519
1558.62	0.0056
1570.2	0.00753
1581.77	0.01025
1593.34	0.01837
1604.92	0.0328
1616.49	0.02779
1628.07	0.01322
1639.64	0.00725
1651.21	0.00661
1662.79	0.00706
1674.36	0.00763
1685.93	0.00785
1697.51	0.00743
1709.08	0.00679
1720.66	0.00689
1732.23	0.0069
1743.8	0.00692
1755.38	0.00645
1766.95	0.00704
1778.53	0.00716
1790.1	0.00655
1801.67	0.00645
1813.25	0.00618
1824.82	0.00521
1836.39	0.00467
1847.97	0.00487
1859.54	0.00512
1871.12	0.0053
1882.69	0.00556
1894.26	0.00617
1905.84	0.00622
1917.41	0.00572
1928.99	0.00595
1940.56	0.00596
1952.13	0.00501
1963.71	0.004
1975.28	0.00389
1986.85	0.00394
1998.43	0.00395
2010	0.00389
2021.58	0.00378
2033.15	0.00359
2044.72	0.00334
2056.3	0.00328
2067.87	0.0032
2079.44	0.00302
2091.02	0.00295
2102.59	0.00293
2114.17	0.00299
2125.74	0.00296
2137.31	0.00305
2148.89	0.00298
2160.46	0.00276
2172.04	0.00271
2183.61	0.00283
2195.18	0.00278
2206.76	0.00276
2218.33	0.00276
2229.9	0.00283
2241.48	0.00286
2253.05	0.00297
2264.63	0.003
2276.2	0.00292
2287.77	0.00275
2299.35	0.00274
2310.92	0.0028
2322.5	0.00281
2334.07	0.00288
2345.64	0.00284
2357.22	0.00288
2368.79	0.00287
2380.36	0.00282
2391.94	0.0028
2403.51	0.00292
2415.09	0.00292
2426.66	0.00296
2438.23	0.00306
2449.81	0.0031
2461.38	0.0033
2472.96	0.00341
2484.53	0.00338
2496.1	0.00341
2507.68	0.00295
2519.25	0.00273
2530.82	0.00269
2542.4	0.00261
2553.97	0.00261
2565.55	0.00256
2577.12	0.00262
2588.69	0.00275
2600.27	0.00277
2611.84	0.0028
2623.41	0.00281
2634.99	0.00278
2646.56	0.00265
2658.14	0.00263
2669.71	0.00274
2681.28	0.00286
2692.86	0.00276
2704.43	0.00263
2716.01	0.00263
2727.58	0.00262
2739.15	0.00259
2750.73	0.00263
2762.3	0.00267
2773.87	0.00274
2785.45	0.00263
2797.02	0.00261
2808.6	0.0026
2820.17	0.00259
2831.74	0.00264
2843.32	0.00274
2854.89	0.00274
2866.47	0.00279
2878.04	0.00284
2889.61	0.003
2901.19	0.0033
2912.76	0.0035
2924.33	0.00377
2935.91	0.00371
2947.48	0.00329
2959.06	0.00303
2970.63	0.00293
2982.2	0.00299
2993.78	0.00312
3005.35	0.00328
3016.92	0.00393
3028.5	0.00533
3040.07	0.00848
3051.65	0.01443
3063.22	0.02161
3074.79	0.02465
3086.37	0.01985
3097.94	0.01349
3109.52	0.00909
3121.09	0.00602
3132.66	0.00433
3144.24	0.00325
3155.81	0.00276
3167.38	0.00273
3178.96	0.00273
3190.53	0.00282
3202.11	0.00286
3213.68	0.0027
3225.25	0.00263
3236.83	0.00254
3248.4	0.00254
3259.98	0.00256
3271.55	0.00252
3283.12	0.00251
3294.7	0.00251
3306.27	0.00263
3317.84	0.0026
3329.42	0.00256
3340.99	0.00255
3352.57	0.00257
3364.14	0.00262
3375.71	0.00257
3387.29	0.00249
3398.86	0.00249
3410.43	0.00256
3422.01	0.00258
3433.58	0.0026
3445.16	0.0027
3456.73	0.00283
3468.3	0.00288
3479.88	0.00301
3491.45	0.00302
3503.03	0.00277
3514.6	0.00265
3526.17	0.00262
3537.75	0.00259
3549.32	0.00263
3560.89	0.00269
3572.47	0.00301
3584.04	0.00335
3595.62	0.00315
3607.19	0.00275
3618.76	0.00273
3630.34	0.00276
3641.91	0.00286
3653.49	0.0028
3665.06	0.00285
3676.63	0.00287
3688.21	0.00288
3699.78	0.00269
3711.35	0.0026
3722.93	0.00252
3734.5	0.00258
3746.08	0.00254
3757.65	0.00247
3769.22	0.00251
3780.8	0.00248
3792.37	0.00246
3803.94	0.00252
3815.52	0.00255
3827.09	0.00259
3838.67	0.00244
3850.24	0.0026
3861.81	0.00257
3873.39	0.00263
3884.96	0.00255
3896.54	0.00259
3908.11	0.00266
3919.68	0.00276
3931.26	0.00305
3942.83	0.00314
3954.4	0.00311
3965.98	0.00303
3977.55	0.00293
3989.13	0.00281
4000.7	0.00275
