Infrared Spectrum: 2,3-Benzofuran
Formula: C 8 H 6 O
CAS: 271-89-6
State: gas
Instrument: HP-GC/MS/IRD
Origin: NIST Mass Spectrometry Data Center
1/CM	ABSORBANCE
550	0.0005082
562	0.000121
574	0.0001089
586	0.0003751
598	0.0008833
610	0.0013915
622	0.0009196
634	0.000121
646	0.0002178
658	0.0003025
670	0.0002299
682	0.0001331
694	0.0007865
706	0.002783
718	0.0151855
730	0.0516428
742	0.117285
754	0.080707
766	0.051425
778	0.0140118
790	0.0039446
802	0.001694
814	0.0012705
826	0.0015609
838	0.0030492
850	0.0096074
862	0.0103334
874	0.0066187
886	0.0031944
898	0.0035332
910	0.0039204
922	0.0026741
934	0.0021296
946	0.0016698
958	0.000726
970	0.0007018
982	0.00121
994	0.003751
1006	0.0068365
1018	0.0117128
1030	0.0171578
1042	0.0178354
1054	0.0050094
1066	0.0016698
1078	0.0020086
1090	0.0070906
1102	0.0121847
1114	0.0176418
1126	0.0192148
1138	0.0195899
1150	0.0113861
1162	0.0164923
1174	0.0212355
1186	0.0152581
1198	0.0025652
1210	0.000968
1222	0.0022627
1234	0.0163592
1246	0.0363726
1258	0.0366388
1270	0.0104786
1282	0.0022264
1294	0.0011011
1306	0.0015609
1318	0.0030613
1330	0.0047432
1342	0.0046464
1354	0.0034364
1366	0.0016335
1378	0.0005808
1390	0.0006534
1402	0.0017545
1414	0.0030492
1426	0.0050336
1438	0.0154517
1450	0.0316536
1462	0.0296571
1474	0.0095469
1486	0.0086878
1498	0.0046343
1510	0.0036058
1522	0.006292
1534	0.0103213
1546	0.0090629
1558	0.0050578
1570	0.0066671
1582	0.0088088
1594	0.0074536
1606	0.0067518
1618	0.0046827
1630	0.002178
1642	0.000847
1654	0.0013673
1666	0.0019602
1678	0.0021054
1690	0.0030734
1702	0.0036663
1714	0.0021538
1726	0.0008712
1738	0.0007381
1750	0.00121
1762	0.0022264
1774	0.002299
1786	0.0015125
1798	0.0012947
1810	0.0011374
1822	0.0005808
1834	0.0004114
1846	0.0008712
1858	0.0010769
1870	0.0013794
1882	0.0020812
1894	0.0019965
1906	0.001331
1918	0.0018271
1930	0.0017908
1942	0.000726
1954	0.0001815
1966	0.0001815
1978	0.0003267
1990	0.0003993
2002	0.0003993
2014	0.0003509
2026	0.0004235
2038	0.000484
2050	0.000605
2062	0.0007623
2074	0.0006897
2086	0.0002541
2098	0.0003388
2110	0.0003751
2122	0.0002783
2134	0.0003267
2146	0.0004235
2158	0.0005203
2170	0.0003872
2182	0.0002299
2194	0.0003025
2206	0.0002904
2218	0.0003993
2230	0.0003993
2242	0.0005082
2254	0.0005566
2266	0.000605
2278	0.0003993
2290	0.0003751
2302	0.0004114
2314	0.0004356
2326	0.0003872
2338	0.0003751
2350	0.0003267
2362	0.0002904
2374	0.0001936
2386	0.0003267
2398	0.0003388
2410	0.0003388
2422	0.0003025
2434	0.0003146
2446	0.0003509
2458	0.0004235
2470	0.000605
2482	0.0005929
2494	0.0004719
2506	0.0004235
2518	0.0003751
2530	0.000242
2542	0.0001936
2554	0.0003025
2566	0.0003993
2578	0.0003993
2590	0.0002057
2602	0.0001694
2614	0.0002541
2626	0.0003025
2638	0.0004356
2650	0.0005566
2662	0.0007018
2674	0.0006776
2686	0.0005082
2698	0.0003872
2710	0.0003872
2722	0.0003751
2734	0.0001936
2746	0.0001452
2758	0.0001573
2770	6.05e-05
2782	0.0001694
2794	0.0001694
2806	0.0001815
2818	0.0001694
2830	0
2842	0
2854	0.0001694
2866	0.0002057
2878	0.0002057
2890	0.0001573
2902	0.0002904
2914	0.0004235
2926	0.0005082
2938	0.0006655
2950	0.000605
2962	0.000363
2974	0.0002541
2986	0.000242
2998	0.0004235
3010	0.0010043
3022	0.0027104
3034	0.0068365
3046	0.0105633
3058	0.0154033
3070	0.0198561
3082	0.0188639
3094	0.0120879
3106	0.0063525
3118	0.0025531
3130	0.001573
3142	0.0012221
3154	0.0015851
3166	0.0012221
3178	0.0004114
3190	0.000242
3202	0.0001694
3214	0.0001936
3226	0.0001815
3238	0.0001452
3250	9.68e-05
3262	0.000121
3274	0.000121
3286	9.68e-05
3298	0.0001573
3310	0.0001452
3322	0.0001331
3334	9.68e-05
3346	6.05e-05
3358	0
3370	0.0001815
3382	9.68e-05
3394	0.000121
3406	0.0001089
3418	0.0001089
3430	0.000121
3442	0.000121
3454	0.0001089
3466	0.000121
3478	0.0002178
3490	0.0002299
3502	0.0001452
3514	0.0001331
3526	0.000121
3538	7.26e-05
3550	0.0001573
3562	0.0001573
3574	0.0002057
3586	0.0002299
3598	0.0002057
3610	0.0003267
3622	0.000242
3634	0.0001936
3646	0.0002057
3658	0.0001936
3670	0.0002904
3682	0.0002541
3694	0.0003025
3706	0.0002299
3718	0.0001815
3730	0.0001936
3742	0.0002299
3754	0.0003267
3766	0.000242
3778	0.0002783
3790	0.0002783
3802	0.0002178
3814	0.0002541
3826	0.0002904
3838	0.0002299
