Infrared Spectrum: 7-Azaindole
Formula: C 7 H 6 N 2
CAS: 271-63-6
State: gas
Instrument: HP-GC/MS/IRD
Origin: NIST Mass Spectrometry Data Center
1/CM	ABSORBANCE
550	0.000735
562	0.0006825
574	0.00126
586	0.0008775
598	0.00135
610	0.003015
622	0.0032325
634	0.001305
646	9e-05
658	0.0005175
670	0.0014625
682	0.0035475
694	0.0133275
706	0.032265
718	0.075
730	0.0339825
742	0.01569
754	0.015615
766	0.0298275
778	0.02988
790	0.02556
802	0.014415
814	0.0073575
826	0.0035625
838	0.0030825
850	0.00351
862	0.005415
874	0.0066525
886	0.01533
898	0.01563
910	0.01257
922	0.013845
934	0.0202125
946	0.0216
958	0.017655
970	0.010635
982	0.0056475
994	0.00345
1006	0.001995
1018	0.00156
1030	0.0016725
1042	0.00315
1054	0.0078
1066	0.01101
1078	0.013455
1090	0.0134775
1102	0.00876
1114	0.00498
1126	0.0027825
1138	0.0006525
1150	0.0003675
1162	0.000585
1174	0.001125
1186	0.002865
1198	0.00315
1210	0.00207
1222	0.0008175
1234	0.0008325
1246	0.0015375
1258	0.0072975
1270	0.0275325
1282	0.03285
1294	0.0220125
1306	0.0149025
1318	0.0136875
1330	0.01305
1342	0.01959
1354	0.01659
1366	0.00648
1378	0.00537
1390	0.0182625
1402	0.0441975
1414	0.060675
1426	0.0411675
1438	0.017445
1450	0.0059475
1462	0.003075
1474	0.0044175
1486	0.0090975
1498	0.015285
1510	0.01356
1522	0.0094575
1534	0.0040725
1546	0.0053325
1558	0.012615
1570	0.0210675
1582	0.027525
1594	0.02784
1606	0.016125
1618	0.004215
1630	0.0019575
1642	0.0020625
1654	0.0020775
1666	0.001515
1678	0.00156
1690	0.003405
1702	0.0049275
1714	0.00444
1726	0.002475
1738	0.00102
1750	0.0002925
1762	0.000255
1774	0.0003075
1786	0.0002925
1798	0.0002025
1810	0.000195
1822	0.00042
1834	0.0011025
1846	0.001995
1858	0.001995
1870	0.0018225
1882	0.00192
1894	0.00183
1906	0.002025
1918	0.001815
1930	0.0007275
1942	0.0001575
1954	0.0001425
1966	0.0001725
1978	0.00015
1990	0.000165
2002	0.0001425
2014	9.75e-05
2026	0.000105
2038	0.0001125
2050	0.0002475
2062	0.000255
2074	0.00021
2086	0.0002025
2098	0.00027
2110	0.0002775
2122	0.0003225
2134	0.000465
2146	0.000645
2158	0.000735
2170	0.00081
2182	0.0007275
2194	0.000465
2206	0.000375
2218	0.0004125
2230	0.000435
2242	0.0003825
2254	0.0003
2266	0.0003075
2278	0.00039
2290	0.000645
2302	0.000705
2314	0.0006075
2326	0.000345
2338	0.0002775
2350	0.0003075
2362	0.0003675
2374	0.00048
2386	0.00057
2398	0.000615
2410	0.0005025
2422	0.000435
2434	0.0005025
2446	0.0007875
2458	0.00117
2470	0.001455
2482	0.0015
2494	0.0012525
2506	0.0009975
2518	0.00072
2530	0.0004875
2542	0.00036
2554	0.00045
2566	0.0006675
2578	0.00102
2590	0.0012975
2602	0.0013125
2614	0.0012225
2626	0.0006825
2638	0.00033
2650	0.000195
2662	0.000195
2674	0.0003525
2686	0.000525
2698	0.000645
2710	0.0006225
2722	0.000465
2734	0.0002175
2746	9e-05
2758	0.000165
2770	0.00024
2782	0.0003225
2794	0.0004125
2806	0.0005025
2818	0.00045
2830	0.00036
2842	0.0003225
2854	0.0003225
2866	0.00033
2878	0.0003375
2890	0.00051
2902	0.0006075
2914	0.0005625
2926	0.000405
2938	0.0003375
2950	0.000465
2962	0.0009825
2974	0.0016575
2986	0.00216
2998	0.0021375
3010	0.0025725
3022	0.0046875
3034	0.00876
3046	0.017475
3058	0.0245175
3070	0.0235875
3082	0.0122025
3094	0.0074025
3106	0.004035
3118	0.002925
3130	0.0038025
3142	0.0032025
3154	0.0014925
3166	0.00054
3178	0.000585
3190	0.000555
3202	0.000465
3214	0.00018
3226	3e-05
3238	3e-05
3250	5.25e-05
3262	0
3274	6.75e-05
3286	0.0001425
3298	0.0001275
3310	0.000105
3322	6.75e-05
3334	7.5e-05
3346	6e-05
3358	0.000105
3370	0.0001425
3382	0.00018
3394	0.0002175
3406	0.0002625
3418	0.0004425
3430	0.0007425
3442	0.00129
3454	0.0024375
3466	0.0047625
3478	0.01164
3490	0.0283575
3502	0.04956
3514	0.046755
3526	0.02745
3538	0.007485
3550	0.00279
3562	0.0011175
3574	0.0004875
3586	0.0003
3598	0.0001725
3610	0.00021
3622	0.0001875
3634	0.000165
3646	0.000165
3658	0.0001575
3670	0.000165
3682	0.0002325
3694	0.0002625
3706	0.00027
3718	0.000255
3730	0.0002625
3742	0.0003225
3754	0.0002175
3766	0.0001725
3778	0.0001125
3790	0.000165
3802	0.0001275
3814	0.0002025
3826	0.00012
3838	0.00015
