Infrared Spectrum: GLYCINE, N-(PHENOXYACETYL)-, ETHYL ESTER
Formula: C12 H15 N O4
CAS: 27127-58-8
State: SOLID (0.8 mg / 650 mg KBr DISC)
Class: COBLENTZ III
Instrument: PERKIN-ELMER 21 (GRATING)
Instrument parameters: FILTER CHANGE AT 1075 CM^-^1
Sampling: TRANSMISSION
Resolution: 2
Origin: SOUTHERN RESEARCH INSTITUTE
1/CM	TRANSMITTANCE
643.131	0.96
651.253	0.9282
659.375	0.8647
667.496	0.8216
675.618	0.7062
683.74	0.5853
691.862	0.739
699.984	0.7062
708.106	0.7463
716.227	0.8125
724.349	0.8127
732.471	0.7635
740.593	0.5435
748.715	0.6296
756.836	0.8641
764.958	0.9125
773.08	0.9185
781.202	0.923
789.324	0.9206
797.446	0.897
805.567	0.8867
813.689	0.8581
821.811	0.8377
829.933	0.831
838.055	0.9051
846.176	0.9176
854.298	0.8902
862.42	0.8202
870.542	0.7812
878.664	0.8789
886.786	0.934
894.907	0.933
903.029	0.921
911.151	0.9151
919.273	0.9111
927.395	0.921
935.516	0.9159
943.638	0.9094
951.76	0.9015
959.882	0.89
968.004	0.8816
976.126	0.8634
984.247	0.8497
992.369	0.8272
1000.49	0.8001
1008.61	0.7635
1016.73	0.6905
1024.86	0.6006
1032.98	0.6733
1041.1	0.7126
1049.22	0.6329
1057.34	0.4893
1065.47	0.7147
1073.59	0.5501
1081.71	0.7723
1089.83	0.8028
1097.95	0.7836
1106.07	0.7237
1114.2	0.73
1122.32	0.7271
1130.44	0.741
1138.56	0.7329
1146.68	0.665
1154.81	0.6245
1162.93	0.551
1171.05	0.4686
1179.17	0.6329
1187.29	0.5201
1195.41	0.3997
1203.54	0.361
1211.66	0.5577
1219.78	0.6016
1227.9	0.5355
1236.02	0.3956
1244.15	0.401
1252.27	0.361
1260.39	0.339
1268.51	0.5146
1276.63	0.678
1284.75	0.6395
1292.88	0.6052
1301	0.6236
1309.12	0.7403
1317.24	0.7943
1325.36	0.7847
1333.49	0.788
1341.61	0.7742
1349.73	0.695
1357.85	0.6919
1365.97	0.602
1374.09	0.5921
1382.22	0.67
1390.34	0.647
1398.46	0.5814
1406.58	0.5009
1414.7	0.6651
1422.83	0.6284
1430.95	0.5809
1439.07	0.7154
1447.19	0.739
1455.31	0.7323
1463.43	0.6986
1471.56	0.6377
1479.68	0.5566
1487.8	0.4408
1495.92	0.3949
1504.04	0.6175
1512.17	0.571
1520.29	0.4498
1528.41	0.3559
1536.53	0.3652
1544.65	0.3754
1552.77	0.5512
1560.9	0.6048
1569.02	0.6869
1577.14	0.679
1585.26	0.632
1593.38	0.5159
1601.51	0.5546
1609.63	0.693
1617.75	0.6696
1625.87	0.6534
1633.99	0.5778
1642.11	0.3949
1650.24	0.2372
1658.36	0.3285
1666.48	0.4818
1674.6	0.5951
1682.72	0.6466
1690.85	0.711
1698.97	0.7273
1707.09	0.7202
1715.21	0.6916
1723.33	0.5701
1731.45	0.351
1739.58	0.2917
1747.7	0.4856
1755.82	0.6523
1763.94	0.7345
1772.06	0.7754
1780.19	0.8017
1788.31	0.811
1796.43	0.8244
1804.55	0.841
1812.67	0.851
1820.79	0.855
1828.92	0.8705
1837.04	0.874
1845.16	0.8752
1853.28	0.8943
1861.4	0.9061
1869.53	0.911
1877.65	0.911
1885.77	0.908
1893.89	0.906
1902.01	0.9012
1910.13	0.891
1918.26	0.9077
1926.38	0.913
1934.5	0.9158
1942.62	0.9228
1950.74	0.9267
1958.87	0.927
1966.99	0.929
1975.11	0.93
1983.23	0.931
1991.35	0.934
1999.47	0.93
2007.6	0.931
2015.72	0.933
2023.84	0.935
2031.96	0.935
2040.08	0.934
2048.21	0.9285
2056.33	0.9265
2064.45	0.922
2072.57	0.921
2080.69	0.924
2088.81	0.928
2096.94	0.928
2105.06	0.929
2113.18	0.929
2121.3	0.9335
2129.42	0.9345
2137.55	0.9365
2145.67	0.939
2153.79	0.937
2161.91	0.941
2170.03	0.943
2178.15	0.943
2186.28	0.9415
2194.4	0.941
2202.52	0.9375
2210.64	0.935
2218.76	0.933
2226.89	0.931
2235.01	0.931
2243.13	0.933
2251.25	0.934
2259.37	0.934
2267.49	0.935
2275.62	0.9375
2283.74	0.9421
2291.86	0.9485
2299.98	0.9575
2308.1	0.963
2316.23	0.963
2324.35	0.96
2332.47	0.9569
2340.59	0.952
2348.71	0.9499
2356.83	0.937
2364.96	0.933
2373.08	0.9285
2381.2	0.928
2389.32	0.927
2397.44	0.926
2405.57	0.923
2413.69	0.923
2421.81	0.923
2429.93	0.9235
2438.05	0.926
2446.17	0.928
2454.3	0.9214
2462.42	0.915
2470.54	0.915
2478.66	0.916
2486.78	0.916
2494.91	0.916
2503.03	0.916
2511.15	0.918
2519.27	0.914
2527.39	0.912
2535.51	0.912
2543.64	0.9125
2551.76	0.909
2559.88	0.909
2568	0.9125
2576.12	0.914
2584.25	0.9135
2592.37	0.913
2600.49	0.913
2608.61	0.913
2616.73	0.913
2624.85	0.912
2632.98	0.909
2641.1	0.908
2649.22	0.906
2657.34	0.9019
2665.46	0.898
2673.59	0.8949
2681.71	0.893
2689.83	0.892
2697.95	0.891
2706.07	0.891
2714.19	0.89
2722.32	0.887
2730.44	0.882
2738.56	0.879
2746.68	0.8745
2754.8	0.8685
2762.93	0.868
2771.05	0.8635
2779.17	0.861
2787.29	0.8579
2795.41	0.8525
2803.53	0.847
2811.66	0.8415
2819.78	0.8365
2827.9	0.831
2836.02	0.8255
2844.14	0.8215
2852.27	0.818
2860.39	0.8095
2868.51	0.7955
2876.63	0.7875
2884.75	0.7709
2892.87	0.7574
2901	0.7485
2909.12	0.742
2917.24	0.7379
2925.36	0.7304
2933.48	0.7059
2941.61	0.6948
2949.73	0.6723
2957.85	0.6596
2965.97	0.7094
2974.09	0.7697
2982.21	0.78
2990.34	0.7785
2998.46	0.7735
3006.58	0.7645
3014.7	0.759
3022.82	0.757
3030.95	0.757
3039.07	0.7595
3047.19	0.7651
3055.31	0.7785
3063.43	0.7895
3071.55	0.8015
3079.68	0.804
3087.8	0.8065
3095.92	0.811
3104.04	0.81
3112.16	0.809
3120.29	0.8029
3128.41	0.792
3136.53	0.788
3144.65	0.7789
3152.77	0.7585
3160.89	0.7515
3169.02	0.7434
3177.14	0.7265
3185.26	0.7195
3193.38	0.7095
3201.5	0.7049
3209.63	0.6923
3217.75	0.676
3225.87	0.6573
3233.99	0.6364
3242.11	0.6073
3250.23	0.5762
3258.36	0.5489
3266.48	0.5298
3274.6	0.5144
3282.72	0.5045
3290.84	0.5025
3298.97	0.508
3307.09	0.5262
3315.21	0.5516
3323.33	0.572
3331.45	0.5851
3339.57	0.5991
3347.7	0.6211
3355.82	0.631
3363.94	0.6556
3372.06	0.6671
3380.18	0.6796
3388.31	0.6925
3396.43	0.703
3404.55	0.7125
3412.67	0.7245
3420.79	0.7365
3428.91	0.7435
3437.04	0.7491
3445.16	0.756
3453.28	0.7635
3461.4	0.7681
3469.52	0.773
3477.65	0.7795
3485.77	0.786
3493.89	0.7945
3502.01	0.7965
3510.13	0.8011
3518.25	0.81
3526.38	0.811
3534.5	0.8145
3542.62	0.8215
3550.74	0.8295
3558.86	0.8395
3566.99	0.8465
3575.11	0.8501
3583.23	0.853
3591.35	0.854
3599.47	0.855
3607.59	0.855
3615.72	0.855
3623.84	0.855
3631.96	0.856
3640.08	0.856
3648.2	0.861
3656.33	0.861
3664.45	0.863
3672.57	0.864
3680.69	0.864
3688.81	0.864
3696.93	0.863
3705.06	0.863
3713.18	0.863
3721.3	0.863
3729.42	0.86
3737.54	0.8581
3745.67	0.859
3753.79	0.859
3761.91	0.859
3770.03	0.86
3778.15	0.861
3786.27	0.8635
3794.4	0.868
3802.52	0.869
3810.64	0.869
