Infrared Spectrum: 3,5-Bis(trifluoromethyl)benzonitrile
Formula: C 9 H 3 F 6 N
CAS: 27126-93-8
State: gas
Origin: EPA-IR VAPOR PHASE LIBRARY
1/CM	ABSORBANCE
549.8	0.002909
559.445	0.002259
569.09	0.001709
578.734	0.001929
588.379	0.0013262
598.024	0.0013301
607.669	0.001779
617.313	0.004489
626.958	0.009589
636.603	0.003809
646.248	0.002389
655.893	0.002939
665.537	0.004259
675.182	0.018319
684.827	0.126849
694.472	0.061149
704.116	0.040469
713.761	0.016449
723.406	0.039729
733.051	0.016819
742.695	0.002779
752.34	0.002239
761.985	0.0013055
771.63	0.001939
781.275	0.002649
790.919	0.002579
800.564	0.003189
810.209	0.004999
819.854	0.005239
829.498	0.006879
839.143	0.014659
848.788	0.050679
858.433	0.022619
868.078	0.006829
877.722	0.015479
887.367	0.053159
897.012	0.083099
906.657	0.125469
916.301	0.029839
925.946	0.007059
935.591	0.004129
945.236	0.003799
954.88	0.003339
964.525	0.002529
974.17	0.002149
983.815	0.002859
993.46	0.004069
1003.1	0.005329
1012.75	0.005439
1022.39	0.003619
1032.04	0.003449
1041.68	0.005309
1051.33	0.005559
1060.97	0.004579
1070.62	0.005769
1080.26	0.007179
1089.91	0.009939
1099.55	0.025329
1109.2	0.063649
1118.84	0.044929
1128.49	0.039759
1138.13	0.068359
1147.78	0.240409
1157.42	0.783779
1167.07	0.845899
1176.71	0.479759
1186.36	0.772419
1196	0.435969
1205.64	0.159529
1215.29	0.079039
1224.93	0.071199
1234.58	0.046699
1244.22	0.047279
1253.87	0.059269
1263.51	0.117559
1273.16	0.552219
1282.8	1.07089
1292.45	0.200169
1302.09	0.054659
1311.74	0.029159
1321.38	0.024069
1331.03	0.024379
1340.67	0.030359
1350.32	0.060179
1359.96	0.134579
1369.61	0.243409
1379.25	0.195449
1388.9	0.045589
1398.54	0.019089
1408.18	0.010339
1417.83	0.009099
1427.47	0.010039
1437.12	0.011119
1446.76	0.020679
1456.41	0.023869
1466.05	0.012769
1475.7	0.007479
1485.34	0.004289
1494.99	0.002859
1504.63	0.003029
1514.28	0.003349
1523.92	0.002889
1533.57	0.002749
1543.21	0.003079
1552.86	0.003679
1562.5	0.003089
1572.15	0.003499
1581.79	0.002809
1591.44	0.002789
1601.08	0.004939
1610.73	0.011689
1620.37	0.013129
1630.01	0.006489
1639.66	0.004139
1649.3	0.003189
1658.95	0.002479
1668.59	0.002169
1678.24	0.001689
1687.88	0.002159
1697.53	0.002899
1707.17	0.002679
1716.82	0.001949
1726.46	0.002069
1736.11	0.002089
1745.75	0.001719
1755.4	0.001859
1765.04	0.002039
1774.69	0.001829
1784.33	0.002139
1793.98	0.002309
1803.62	0.002679
1813.27	0.005499
1822.91	0.012459
1832.55	0.010039
1842.2	0.007889
1851.84	0.005969
1861.49	0.002269
1871.13	0.001789
1880.78	0.001929
1890.42	0.001699
1900.07	0.001539
1909.71	0.001609
1919.36	0.0011743
1929	0.0007753
1938.65	0.0008893
1948.29	0.0011682
1957.94	0.0011643
1967.58	0.0008497
1977.23	0.0008024
1986.87	0.001097
1996.52	0.001739
2006.16	0.002469
2015.81	0.001829
2025.45	0.0013365
2035.1	0.001699
2044.74	0.001649
2054.38	0.001559
2064.03	0.0013386
2073.67	0.0012976
2083.32	0.0012792
2092.96	0.000999
2102.61	0.0010199
2112.25	0.0008332
2121.9	0.0012192
2131.54	0.0012977
2141.19	0.000724
2150.83	0.0006954
2160.48	0.00079
2170.12	0.001195
2179.77	0.0009329
2189.41	0.000885
2199.06	0.0009936
2208.7	0.001499
2218.35	0.002039
2227.99	0.002369
2237.64	0.002299
2247.28	0.002369
2256.92	0.002939
2266.57	0.003139
2276.21	0.003049
2285.86	0.003239
2295.5	0.003729
2305.15	0.003849
2314.79	0.003559
2324.44	0.002819
2334.08	0.002839
2343.73	0.002979
2353.37	0.002879
2363.02	0.002659
2372.66	0.002919
2382.31	0.002689
2391.95	0.001999
2401.6	0.001529
2411.24	0.001529
2420.89	0.001399
2430.53	0.001599
2440.18	0.001549
2449.82	0.001589
2459.47	0.001449
2469.11	0.0013075
2478.75	0.0008987
2488.4	0.000633
2498.04	0.0008511
2507.69	0.0006704
2517.33	0.0008517
2526.98	0.0009113
2536.62	0.0013685
2546.27	0.001469
2555.91	0.001439
2565.56	0.001419
2575.2	0.0007624
2584.85	0.0005664
2594.49	0.0006974
2604.14	0.0007467
2613.78	0.0009662
2623.43	0.0012146
2633.07	0.0012886
2642.72	0.001589
2652.36	0.0013339
2662.01	0.0010233
2671.65	0.0005377
2681.29	0.00040144
2690.94	0.00047692
2700.58	0.0003773
2710.23	0.0006656
2719.87	0.0005803
2729.52	0.00048091
2739.16	0.0005954
2748.81	0.0003709
2758.45	0.0003413
2768.1	0.0005474
2777.74	0.0007881
2787.39	0.0005954
2797.03	0.0006067
2806.68	0.0006174
2816.32	0.0005957
2825.97	0.0004307
2835.61	0.0003056
2845.26	0.000252
2854.9	0.0005374
2864.55	0.0007158
2874.19	0.00024
2883.84	0.000713
2893.48	0.0008668
2903.12	0.0012465
2912.77	0.0009531
2922.41	0.0007623
2932.06	0.0007802
2941.7	0.0007191
2951.35	0.000889
2960.99	0.0008858
2970.64	0.001057
2980.28	0.001509
2989.93	0.001469
2999.57	0.000949
3009.22	0.000746
3018.86	0.0003196
3028.51	0.0005628
3038.15	0.0006996
3047.8	0.0008046
3057.44	0.001499
3067.09	0.0012706
3076.73	0.001999
3086.38	0.005019
3096.02	0.006489
3105.67	0.002449
3115.31	0.0012034
3124.95	0.0006554
3134.6	0.0009927
3144.24	0.00045704
3153.89	0.0005882
3163.53	0.00038176
3173.18	0.0005151
3182.82	0.0005174
3192.47	0.000742
3202.11	0.0005879
3211.76	0.00046412
3221.4	0.0003217
3231.05	0.000211
3240.69	0.0003772
3250.34	0.0003572
3259.98	0.000325
3269.63	0.0005982
3279.27	0.0003522
3288.92	0.00044443
3298.56	0.00040004
3308.21	5.6e-05
3317.85	0.0006191
3327.49	0.000334
3337.14	0.0005573
3346.78	0.000221
3356.43	0.0003669
3366.07	0.000504
3375.72	0.00042356
3385.36	0.0008112
3395.01	0.0005576
3404.65	0.0005097
3414.3	0.0009469
3423.94	0.0008638
3433.59	0.0007235
3443.23	0.0005477
3452.88	0.00041277
3462.52	0.0006852
3472.17	0.0006481
3481.81	0.00046419
3491.46	0.0005003
3501.1	0.000187
3510.75	0.0005748
3520.39	0.00040081
3530.04	0.00040791
3539.68	0.0004068
3549.32	0.0003654
3558.97	0.0003386
3568.61	0.0007304
3578.26	0.0005545
3587.9	0.0003137
3597.55	0.0005327
3607.19	0.0006203
3616.84	0.0005272
3626.48	0.000389905
3636.13	0.0003272
3645.77	0.0005687
3655.42	0.00040637
3665.06	0.00040482
3674.71	0.0006098
3684.35	0.000391786
3694	0.0006437
3703.64	0.0006777
3713.29	0.0006111
3722.93	0.000367
3732.58	0.0005027
3742.22	0.00045379
3751.86	0.000288
3761.51	0.000249
3771.15	0.0003507
3780.8	0.000592
3790.44	0.0005291
3800.09	0.0005879
3809.73	0.0005556
3819.38	0.00053
3829.02	0.000265
3838.67	0.000117
3848.31	0.00047508
3857.96	0.000226
3867.6	0.000398775
3877.25	0.000242
3886.89	7.5e-05
3896.54	0.0003052
3906.18	0.000377
3915.83	0.000518
3925.47	0.00045533
3935.12	0.0005829
3944.76	0.0005813
3954.41	0.000394415
3964.05	0.00039939
3973.69	0.0006688
3983.34	0.0006967
3992.98	0.000973
