Infrared Spectrum: 3,5-Dimethylbenzyl bromide
Formula: C 9 H 11 Br
CAS: 27129-86-8
State: gas
Origin: EPA-IR VAPOR PHASE LIBRARY
1/CM	ABSORBANCE
549.8	0.0010038
559.445	0.0004772
569.09	0.000626
578.734	0.0007221
588.379	0.00274
598.024	0.01049
607.669	0.00721
617.313	0.00273
626.958	0.0056
636.603	0.00777
646.248	0.00433
655.893	0.00253
665.537	0.0022
675.182	0.00283
684.827	0.0067
694.472	0.01315
704.116	0.00833
713.761	0.00262
723.406	0.0011188
733.051	0.0006055
742.695	0.0005153
752.34	0.00036062
761.985	0.0004739
771.63	0.00047
781.275	0.0005924
790.919	0.000765
800.564	0.0008628
810.209	0.0010227
819.854	0.00205
829.498	0.00352
839.143	0.00552
848.788	0.00874
858.433	0.00489
868.078	0.00229
877.722	0.00149
887.367	0.0011555
897.012	0.0009285
906.657	0.0013
916.301	0.00133
925.946	0.0009245
935.591	0.00154
945.236	0.00168
954.88	0.00168
964.525	0.0007276
974.17	0.0006404
983.815	0.0008613
993.46	0.00145
1003.1	0.0015
1012.75	0.0009432
1022.39	0.0009388
1032.04	0.0013
1041.68	0.00129
1051.33	0.00152
1060.97	0.0012388
1070.62	0.00133
1080.26	0.0008548
1089.91	0.0007425
1099.55	0.0007919
1109.2	0.0009839
1118.84	0.0009669
1128.49	0.0015
1138.13	0.0016
1147.78	0.00257
1157.42	0.00236
1167.07	0.00266
1176.71	0.0012495
1186.36	0.00259
1196	0.00513
1205.64	0.01648
1215.29	0.02371
1224.93	0.00976
1234.58	0.00392
1244.22	0.00282
1253.87	0.00197
1263.51	0.00157
1273.16	0.00185
1282.8	0.00284
1292.45	0.00595
1302.09	0.00635
1311.74	0.00264
1321.38	0.00144
1331.03	0.00138
1340.67	0.00138
1350.32	0.00159
1359.96	0.00195
1369.61	0.00236
1379.25	0.00328
1388.9	0.00352
1398.54	0.00248
1408.18	0.00243
1417.83	0.00245
1427.47	0.00301
1437.12	0.00482
1446.76	0.0074
1456.41	0.00761
1466.05	0.00641
1475.7	0.00593
1485.34	0.00569
1494.99	0.00494
1504.63	0.00467
1514.28	0.00416
1523.92	0.00416
1533.57	0.00429
1543.21	0.00363
1552.86	0.00326
1562.5	0.00336
1572.15	0.00388
1581.79	0.00468
1591.44	0.00818
1601.08	0.01587
1610.73	0.01521
1620.37	0.00578
1630.01	0.00195
1639.66	0.0011339
1649.3	0.0008039
1658.95	0.0006888
1668.59	0.0005367
1678.24	0.0007076
1687.88	0.0007882
1697.53	0.0008416
1707.17	0.0009258
1716.82	0.0009944
1726.46	0.00147
1736.11	0.00177
1745.75	0.00169
1755.4	0.00159
1765.04	0.00158
1774.69	0.00132
1784.33	0.0008135
1793.98	0.0005377
1803.62	0.0004572
1813.27	0.0005517
1822.91	0.0004915
1832.55	0.0005711
1842.2	0.000492
1851.84	0.0004234
1861.49	0.0004805
1871.13	0.0005002
1880.78	0.0005422
1890.42	0.0005278
1900.07	0.0007062
1909.71	0.0005957
1919.36	0.0005136
1929	0.0005189
1938.65	0.0005967
1948.29	0.0004928
1957.94	0.0004779
1967.58	0.0004336
1977.23	0.0004706
1986.87	0.0004609
1996.52	0.0004496
2006.16	0.0003809
2015.81	0.00036794
2025.45	0.00032596
2035.1	0.00035023
2044.74	0.00027462
2054.38	0.0002306
2064.03	0.0002516
2073.67	0.00035429
2083.32	0.00029963
2092.96	0.00034975
2102.61	0.00034751
2112.25	0.00030937
2121.9	0.000384
2131.54	0.00033615
2141.19	0.00029584
2150.83	0.00030017
2160.48	0.00034067
2170.12	0.0004052
2179.77	0.00029222
2189.41	0.0002911
2199.06	0.0002683
2208.7	0.00029498
2218.35	0.00036577
2227.99	0.0004021
2237.64	0.00042
2247.28	0.00030156
2256.92	0.00037328
2266.57	0.0003958
2276.21	0.00036972
2285.86	0.000283216
2295.5	0.0004622
2305.15	0.0004081
2314.79	0.0005194
2324.44	0.0004602
2334.08	0.0004579
2343.73	0.0004687
2353.37	0.0004328
2363.02	0.00033661
2372.66	0.0004755
2382.31	0.0004138
2391.95	0.0004495
2401.6	0.0004776
2411.24	0.0005335
2420.89	0.0005864
2430.53	0.0004697
2440.18	0.0004629
2449.82	0.0004916
2459.47	0.0004955
2469.11	0.0003999
2478.75	0.0004105
2488.4	0.00036245
2498.04	0.0005017
2507.69	0.0004055
2517.33	0.00036163
2526.98	0.00032568
2536.62	0.000325
2546.27	0.0004082
2555.91	0.00035712
2565.56	0.0004257
2575.2	0.00034029
2584.85	0.00033641
2594.49	0.00033875
2604.14	0.0004165
2613.78	0.000279211
2623.43	0.0002496
2633.07	0.00034983
2642.72	0.0003929
2652.36	0.0005246
2662.01	0.0006359
2671.65	0.00035432
2681.29	0.0005367
2690.94	0.0004672
2700.58	0.0004075
2710.23	0.00035447
2719.87	0.000508
2729.52	0.0007742
2739.16	0.0011248
2748.81	0.0012257
2758.45	0.000776
2768.1	0.0006428
2777.74	0.0006622
2787.39	0.0006494
2797.03	0.0007164
2806.68	0.0007542
2816.32	0.0011176
2825.97	0.00143
2835.61	0.00204
2845.26	0.00307
2854.9	0.00442
2864.55	0.00682
2874.19	0.00921
2883.84	0.00866
2893.48	0.00746
2903.12	0.00867
2912.77	0.01112
2922.41	0.01656
2932.06	0.02052
2941.7	0.01622
2951.35	0.01052
2960.99	0.00828
2970.64	0.00843
2980.28	0.00905
2989.93	0.00861
2999.57	0.00885
3009.22	0.01155
3018.86	0.01756
3028.51	0.01976
3038.15	0.01315
3047.8	0.00773
3057.44	0.00533
3067.09	0.00355
3076.73	0.00252
3086.38	0.00218
3096.02	0.00156
3105.67	0.0011425
3115.31	0.0009147
3124.95	0.0007322
3134.6	0.0005153
3144.24	0.0004018
3153.89	0.0004389
3163.53	0.00030524
3173.18	0.00032788
3182.82	0.0004949
3192.47	0.00033823
3202.11	0.0003862
3211.76	0.0004609
3221.4	0.0004193
3231.05	0.000282692
3240.69	0.0002438
3250.34	0.00034743
3259.98	0.00035787
3269.63	0.0004968
3279.27	0.0004168
3288.92	0.0002348
3298.56	0.0005125
3308.21	0.00031767
3317.85	0.00035645
3327.49	0.0002512
3337.14	0.00037268
3346.78	0.000193
3356.43	0.0002089
3366.07	0.00011
3375.72	0.0002191
3385.36	0.0004517
3395.01	0.00032803
3404.65	0.00036973
3414.3	0.000174
3423.94	0.0004489
3433.59	0.000111
3443.23	0.00037568
3452.88	0.00036918
3462.52	0.000286677
3472.17	0.0004061
3481.81	0.00036363
3491.46	0.000287022
3501.1	0.000136
3510.75	0.00037149
3520.39	0.0002686
3530.04	0.00027229
3539.68	0.00027332
3549.32	0.00037591
3558.97	0.0002621
3568.61	0.00036365
3578.26	0.000285497
3587.9	0.00027684
3597.55	0.00034602
3607.19	0.00026
3616.84	0.00036394
3626.48	6.9e-05
3636.13	0.00030366
3645.77	0.00034114
3655.42	0.0001986
3665.06	0.00037071
3674.71	0.0002945
3684.35	0.0004487
3694	0.000286693
3703.64	0.000286371
3713.29	0.00029914
3722.93	0.0003406
3732.58	0.000112
3742.22	0.000389
3751.86	0.000137
3761.51	0.000113
3771.15	0.000137
3780.8	0.00034636
3790.44	0.00033454
3800.09	0.0002306
3809.73	0.0002552
3819.38	0.00032733
3829.02	0.0002152
3838.67	0.0003934
3848.31	0.0002067
3857.96	0.00031732
3867.6	0.00030669
3877.25	0.0002167
3886.89	0.0002014
3896.54	0.0003986
3906.18	0.0004207
3915.83	0.000441
3925.47	0.000174
3935.12	0.00029088
3944.76	0.00032682
3954.41	0.0005392
3964.05	0.0004414
3973.69	0.0006678
3983.34	0.0003571
3992.98	0.0004327
