Infrared Spectrum: 3,5-Dimethylbenzylalcohol
Formula: C 9 H 12 O
CAS: 27129-87-9
State: gas
Origin: EPA-IR VAPOR PHASE LIBRARY
1/CM	ABSORBANCE
551.7	0.00304
563.274	0.00272
574.848	0.00241
586.421	0.00255
597.995	0.00264
609.569	0.00302
621.143	0.00542
632.717	0.01096
644.291	0.01007
655.864	0.00616
667.438	0.00628
679.012	0.0084
690.586	0.0159
702.16	0.02468
713.734	0.01473
725.307	0.00646
736.881	0.00398
748.455	0.0032
760.029	0.00307
771.603	0.00315
783.177	0.00313
794.75	0.00363
806.324	0.0046
817.898	0.00852
829.472	0.02591
841.046	0.05528
852.619	0.03303
864.193	0.01235
875.767	0.00868
887.341	0.01026
898.915	0.01077
910.489	0.0119
922.062	0.0137
933.636	0.01366
945.21	0.01273
956.784	0.01549
968.358	0.02283
979.932	0.03291
991.505	0.03908
1003.08	0.04042
1014.65	0.04516
1026.23	0.05749
1037.8	0.06456
1049.37	0.05263
1060.95	0.0372
1072.52	0.02563
1084.1	0.01617
1095.67	0.01116
1107.24	0.00915
1118.82	0.00897
1130.39	0.00999
1141.97	0.01386
1153.54	0.02367
1165.11	0.02588
1176.69	0.01772
1188.26	0.01532
1199.83	0.01432
1211.41	0.01377
1222.98	0.0136
1234.56	0.01351
1246.13	0.01352
1257.7	0.01352
1269.28	0.01369
1280.85	0.01442
1292.42	0.01617
1304	0.01481
1315.57	0.01262
1327.15	0.01241
1338.72	0.01445
1350.29	0.02015
1361.87	0.02991
1373.44	0.04085
1385.02	0.04525
1396.59	0.03525
1408.16	0.02486
1419.74	0.01922
1431.31	0.01797
1442.88	0.02285
1454.46	0.0289
1466.03	0.0262
1477.61	0.02006
1489.18	0.01748
1500.75	0.01638
1512.33	0.01524
1523.9	0.01434
1535.48	0.01396
1547.05	0.01229
1558.62	0.01106
1570.2	0.01202
1581.77	0.01559
1593.34	0.02882
1604.92	0.05102
1616.49	0.0323
1628.07	0.00996
1639.64	0.00441
1651.21	0.00316
1662.79	0.00266
1674.36	0.00247
1685.93	0.00246
1697.51	0.00278
1709.08	0.00416
1720.66	0.0053
1732.23	0.00456
1743.8	0.00413
1755.38	0.00559
1766.95	0.00553
1778.53	0.0034
1790.1	0.00217
1801.67	0.00192
1813.25	0.00186
1824.82	0.00181
1836.39	0.00182
1847.97	0.00177
1859.54	0.00176
1871.12	0.00183
1882.69	0.00198
1894.26	0.00202
1905.84	0.00188
1917.41	0.00196
1928.99	0.00207
1940.56	0.0019
1952.13	0.00165
1963.71	0.00158
1975.28	0.00153
1986.85	0.00153
1998.43	0.00159
2010	0.00161
2021.58	0.00163
2033.15	0.00148
2044.72	0.00135
2056.3	0.00127
2067.87	0.00127
2079.44	0.00126
2091.02	0.00129
2102.59	0.00116
2114.17	0.00106
2125.74	0.0009773
2137.31	0.0009542
2148.89	0.0009666
2160.46	0.0009415
2172.04	0.0008959
2183.61	0.0007763
2195.18	0.000795
2206.76	0.000839
2218.33	0.0009326
2229.9	0.001
2241.48	0.0009956
2253.05	0.0009335
2264.63	0.0009804
2276.2	0.00101
2287.77	0.00108
2299.35	0.00131
2310.92	0.00144
2322.5	0.00138
2334.07	0.00135
2345.64	0.00133
2357.22	0.00135
2368.79	0.00143
2380.36	0.0015
2391.94	0.00158
2403.51	0.00161
2415.09	0.0017
2426.66	0.00175
2438.23	0.00174
2449.81	0.00173
2461.38	0.00165
2472.96	0.00148
2484.53	0.00145
2496.1	0.00145
2507.68	0.00137
2519.25	0.00136
2530.82	0.0013
2542.4	0.00126
2553.97	0.00119
2565.55	0.0011
2577.12	0.00113
2588.69	0.00114
2600.27	0.00129
2611.84	0.0013
2623.41	0.00129
2634.99	0.00135
2646.56	0.00141
2658.14	0.00149
2669.71	0.00173
2681.28	0.00187
2692.86	0.00194
2704.43	0.00223
2716.01	0.00261
2727.58	0.00369
2739.15	0.00536
2750.73	0.00539
2762.3	0.0043
2773.87	0.00428
2785.45	0.00477
2797.02	0.00573
2808.6	0.00724
2820.17	0.00988
2831.74	0.01429
2843.32	0.02086
2854.89	0.03133
2866.47	0.04782
2878.04	0.06171
2889.61	0.06024
2901.19	0.05788
2912.76	0.06689
2924.33	0.08875
2935.91	0.08976
2947.48	0.0632
2959.06	0.04312
2970.63	0.03079
2982.2	0.02872
2993.78	0.03291
3005.35	0.04332
3016.92	0.06383
3028.5	0.06693
3040.07	0.04193
3051.65	0.0233
3063.22	0.01517
3074.79	0.01054
3086.37	0.00758
3097.94	0.00554
3109.52	0.00412
3121.09	0.00282
3132.66	0.00211
3144.24	0.00179
3155.81	0.0016
3167.38	0.00145
3178.96	0.00133
3190.53	0.00128
3202.11	0.00129
3213.68	0.00122
3225.25	0.00116
3236.83	0.00109
3248.4	0.00107
3259.98	0.0009847
3271.55	0.0009837
3283.12	0.001
3294.7	0.0008801
3306.27	0.0009168
3317.84	0.00102
3329.42	0.0009637
3340.99	0.0009681
3352.57	0.00103
3364.14	0.00122
3375.71	0.00133
3387.29	0.00132
3398.86	0.00146
3410.43	0.0015
3422.01	0.00158
3433.58	0.00155
3445.16	0.0016
3456.73	0.00164
3468.3	0.00163
3479.88	0.00164
3491.45	0.00158
3503.03	0.00151
3514.6	0.00158
3526.17	0.00159
3537.75	0.00154
3549.32	0.0016
3560.89	0.00143
3572.47	0.00149
3584.04	0.00165
3595.62	0.00196
3607.19	0.00269
3618.76	0.00394
3630.34	0.00675
3641.91	0.01234
3653.49	0.01604
3665.06	0.01311
3676.63	0.00903
3688.21	0.00598
3699.78	0.00385
3711.35	0.00252
3722.93	0.00191
3734.5	0.00154
3746.08	0.0014
3757.65	0.0014
3769.22	0.00141
3780.8	0.00146
3792.37	0.00142
3803.94	0.00131
3815.52	0.00149
3827.09	0.00146
3838.67	0.00159
3850.24	0.00175
3861.81	0.00184
3873.39	0.00199
3884.96	0.00194
3896.54	0.00197
3908.11	0.00187
3919.68	0.00189
3931.26	0.00174
3942.83	0.00177
3954.4	0.00162
3965.98	0.00142
3977.55	0.00139
3989.13	0.00142
4000.7	0.0016
