Infrared Spectrum: 2,5-Difluorophenol
Formula: C 6 H 4 F 2 O
CAS: 2713-31-7
State: gas
Origin: EPA-IR VAPOR PHASE LIBRARY
1/CM	ABSORBANCE
549.8	0.003702
559.445	0.004182
569.09	0.004812
578.734	0.008472
588.379	0.013712
598.024	0.018142
607.669	0.026272
617.313	0.014052
626.958	0.007022
636.603	0.004222
646.248	0.003182
655.893	0.004482
665.537	0.005382
675.182	0.005682
684.827	0.004682
694.472	0.004422
704.116	0.006852
713.761	0.030212
723.406	0.076462
733.051	0.098102
742.695	0.070802
752.34	0.043212
761.985	0.102132
771.63	0.183692
781.275	0.203572
790.919	0.105952
800.564	0.087322
810.209	0.059822
819.854	0.032492
829.498	0.035002
839.143	0.066872
848.788	0.094732
858.433	0.092312
868.078	0.060162
877.722	0.020222
887.367	0.007942
897.012	0.007312
906.657	0.008402
916.301	0.010852
925.946	0.009102
935.591	0.015242
945.236	0.033862
954.88	0.114312
964.525	0.145652
974.17	0.119402
983.815	0.025802
993.46	0.009542
1003.1	0.007382
1012.75	0.005862
1022.39	0.005102
1032.04	0.004992
1041.68	0.008152
1051.33	0.011222
1060.97	0.012792
1070.62	0.015112
1080.26	0.027392
1089.91	0.038832
1099.55	0.041382
1109.2	0.026362
1118.84	0.050152
1128.49	0.257852
1138.13	0.431202
1147.78	0.405802
1157.42	0.116012
1167.07	0.076612
1176.71	0.059522
1186.36	0.042022
1196	0.040632
1205.64	0.066602
1215.29	0.130832
1224.93	0.290862
1234.58	0.337372
1244.22	0.237312
1253.87	0.112932
1263.51	0.133592
1273.16	0.155492
1282.8	0.176652
1292.45	0.200232
1302.09	0.195312
1311.74	0.127662
1321.38	0.068532
1331.03	0.043942
1340.67	0.030922
1350.32	0.013302
1359.96	0.007642
1369.61	0.006422
1379.25	0.006932
1388.9	0.008832
1398.54	0.009632
1408.18	0.009292
1417.83	0.008812
1427.47	0.014502
1437.12	0.023432
1446.76	0.051152
1456.41	0.075022
1466.05	0.073072
1475.7	0.057002
1485.34	0.110742
1494.99	0.350972
1504.63	0.781532
1514.28	0.806152
1523.92	0.426962
1533.57	0.137002
1543.21	0.055772
1552.86	0.035152
1562.5	0.028532
1572.15	0.026172
1581.79	0.031402
1591.44	0.042422
1601.08	0.069702
1610.73	0.118052
1620.37	0.178262
1630.01	0.178722
1639.66	0.132032
1649.3	0.068842
1658.95	0.033792
1668.59	0.015332
1678.24	0.011002
1687.88	0.009292
1697.53	0.011152
1707.17	0.011072
1716.82	0.008922
1726.46	0.004882
1736.11	0.003522
1745.75	0.003252
1755.4	0.003262
1765.04	0.003272
1774.69	0.003072
1784.33	0.002572
1793.98	0.002922
1803.62	0.004342
1813.27	0.007612
1822.91	0.011632
1832.55	0.011172
1842.2	0.008982
1851.84	0.006132
1861.49	0.006472
1871.13	0.006542
1880.78	0.004992
1890.42	0.004292
1900.07	0.003872
1909.71	0.003002
1919.36	0.002372
1929	0.001902
1938.65	0.002132
1948.29	0.002112
1957.94	0.002062
1967.58	0.002012
1977.23	0.002152
1986.87	0.002582
1996.52	0.003072
2006.16	0.003762
2015.81	0.003452
2025.45	0.002622
2035.1	0.002362
2044.74	0.002902
2054.38	0.003402
2064.03	0.003242
2073.67	0.002942
2083.32	0.002452
2092.96	0.002162
2102.61	0.002072
2112.25	0.001782
2121.9	0.001272
2131.54	0.001122
2141.19	0.0007025
2150.83	0.000933
2160.48	0.0005908
2170.12	0.0009842
2179.77	0.001362
2189.41	0.001772
2199.06	0.001582
2208.7	0.001662
2218.35	0.001612
2227.99	0.002562
2237.64	0.003212
2247.28	0.003192
2256.92	0.003442
2266.57	0.004702
2276.21	0.005112
2285.86	0.004862
2295.5	0.003712
2305.15	0.003102
2314.79	0.003282
2324.44	0.003472
2334.08	0.003422
2343.73	0.003812
2353.37	0.004202
2363.02	0.003582
2372.66	0.003442
2382.31	0.003672
2391.95	0.004892
2401.6	0.006022
2411.24	0.006242
2420.89	0.005942
2430.53	0.007042
2440.18	0.007342
2449.82	0.006222
2459.47	0.005012
2469.11	0.004232
2478.75	0.003782
2488.4	0.003492
2498.04	0.003912
2507.69	0.003722
2517.33	0.002552
2526.98	0.002732
2536.62	0.002542
2546.27	0.002782
2555.91	0.002562
2565.56	0.002582
2575.2	0.002722
2584.85	0.003522
2594.49	0.004262
2604.14	0.003792
2613.78	0.002542
2623.43	0.001722
2633.07	0.001532
2642.72	0.002102
2652.36	0.001722
2662.01	0.001622
2671.65	0.001081
2681.29	0.000797
2690.94	0.0007393
2700.58	0.0007882
2710.23	0.0006468
2719.87	0.0009854
2729.52	0.001442
2739.16	0.002062
2748.81	0.002712
2758.45	0.002842
2768.1	0.002812
2777.74	0.002782
2787.39	0.002532
2797.03	0.002102
2806.68	0.001912
2816.32	0.001462
2825.97	0.0011574
2835.61	0.0010785
2845.26	0.0012103
2854.9	0.0008543
2864.55	0.0011253
2874.19	0.0010441
2883.84	0.001116
2893.48	0.001252
2903.12	0.001119
2912.77	0.0012003
2922.41	0.001252
2932.06	0.001372
2941.7	0.001262
2951.35	0.001282
2960.99	0.001402
2970.64	0.0010898
2980.28	0.0005326
2989.93	0.0003449
2999.57	0.000199
3009.22	0.0004287
3018.86	0.0004653
3028.51	0.0003322
3038.15	0.000354
3047.8	0.0011159
3057.44	0.001852
3067.09	0.003512
3076.73	0.003942
3086.38	0.003952
3096.02	0.003472
3105.67	0.002182
3115.31	0.0009281
3124.95	0.0007736
3134.6	0.0004357
3144.24	0.0007718
3153.89	0.0004165
3163.53	0.000204
3173.18	0.0003946
3182.82	0.00032906
3192.47	0.00025786
3202.11	0.0004869
3211.76	0.0006081
3221.4	0.0011117
3231.05	0.001802
3240.69	0.003412
3250.34	0.002742
3259.98	0.002442
3269.63	0.001912
3279.27	0.001632
3288.92	0.001552
3298.56	0.001622
3308.21	0.0010084
3317.85	0.001652
3327.49	0.001992
3337.14	0.001962
3346.78	0.0011505
3356.43	0.0008749
3366.07	0.0009126
3375.72	0.0008157
3385.36	0.0010478
3395.01	0.0007097
3404.65	0.0010419
3414.3	0.0009524
3423.94	0.0008466
3433.59	0.0005593
3443.23	0.000153
3452.88	0
3462.52	0.0003818
3472.17	0.0003819
3481.81	5.1e-05
3491.46	0.0007147
3501.1	5.9e-05
3510.75	0.0003654
3520.39	0.000483
3530.04	0.0005974
3539.68	0.00030344
3549.32	0.001352
3558.97	0.001432
3568.61	0.001442
3578.26	0.002172
3587.9	0.004402
3597.55	0.009022
3607.19	0.042082
3616.84	0.233652
3626.48	0.308992
3636.13	0.215612
3645.77	0.043962
3655.42	0.022032
3665.06	0.016682
3674.71	0.005842
3684.35	0.002672
3694	0.001302
3703.64	0.0012088
3713.29	0.0012294
3722.93	0.0009588
3732.58	0.0007701
3742.22	0.0004126
3751.86	0.0005131
3761.51	0.00053
3771.15	0.0006391
3780.8	0.0007991
3790.44	0.0009404
3800.09	0.0010727
3809.73	0.0010846
3819.38	0.001292
3829.02	0.001252
3838.67	0.001812
3848.31	0.002002
3857.96	0.001742
3867.6	0.001522
3877.25	0.001382
3886.89	0.0007964
3896.54	0.0010992
3906.18	0.002152
3915.83	0.002762
3925.47	0.002712
3935.12	0.002352
3944.76	0.001392
3954.41	0.001402
3964.05	0.001322
3973.69	0.0012002
3983.34	0.001872
3992.98	0.001422
