Infrared Spectrum: 3,4-Difluorophenol
Formula: C 6 H 4 F 2 O
CAS: 2713-33-9
State: gas
Origin: EPA-IR VAPOR PHASE LIBRARY
1/CM	ABSORBANCE
549.9	0.0019104
559.547	0.0019193
569.193	0.00261
578.84	0.00384
588.486	0.00514
598.133	0.00575
607.779	0.00725
617.426	0.00427
627.072	0.00237
636.719	0.0012857
646.365	0.00109106
656.012	0.0010469
665.658	0.00118597
675.305	0.00119529
684.951	0.0015253
694.598	0.0012263
704.245	0.0012964
713.891	0.0020305
723.538	0.00487
733.184	0.00652
742.831	0.00658
752.477	0.003
762.124	0.00542
771.77	0.02075
781.417	0.02711
791.063	0.02465
800.71	0.01158
810.356	0.00985
820.003	0.00894
829.649	0.01063
839.296	0.01096
848.943	0.01123
858.589	0.00799
868.236	0.00482
877.882	0.00243
887.529	0.001826
897.175	0.0019246
906.822	0.00213
916.468	0.00231
926.115	0.00213
935.761	0.00272
945.408	0.00678
955.054	0.0156
964.701	0.01432
974.347	0.00614
983.994	0.0019255
993.64	0.0013591
1003.29	0.0012088
1012.93	0.0012133
1022.58	0.00118285
1032.23	0.0012605
1041.87	0.001541
1051.52	0.0018945
1061.17	0.00215
1070.81	0.00257
1080.46	0.00369
1090.11	0.00769
1099.75	0.01339
1109.4	0.01525
1119.05	0.0116
1128.69	0.02113
1138.34	0.03211
1147.99	0.03485
1157.63	0.02895
1167.28	0.03118
1176.92	0.0257
1186.57	0.02072
1196.22	0.02233
1205.86	0.03806
1215.51	0.04002
1225.16	0.02945
1234.8	0.01201
1244.45	0.00948
1254.1	0.01764
1263.74	0.02674
1273.39	0.02779
1283.04	0.01602
1292.68	0.01373
1302.33	0.01522
1311.98	0.01639
1321.62	0.01737
1331.27	0.01122
1340.92	0.00584
1350.56	0.00222
1360.21	0.0017897
1369.86	0.0019689
1379.5	0.0019586
1389.15	0.0020345
1398.79	0.00231
1408.44	0.00258
1418.09	0.00276
1427.73	0.00433
1437.38	0.0088
1447.03	0.01402
1456.67	0.0158
1466.32	0.01217
1475.97	0.00853
1485.61	0.00747
1495.26	0.01486
1504.91	0.04765
1514.55	0.10028
1524.2	0.10733
1533.85	0.06455
1543.49	0.01957
1553.14	0.00993
1562.79	0.00576
1572.43	0.0042
1582.08	0.00474
1591.73	0.00724
1601.37	0.01119
1611.02	0.01572
1620.67	0.01629
1630.31	0.01179
1639.96	0.00734
1649.6	0.00549
1659.25	0.0043
1668.9	0.00272
1678.54	0.0019388
1688.19	0.0017505
1697.84	0.0018864
1707.48	0.0017685
1717.13	0.0015618
1726.78	0.0013701
1736.42	0.001358
1746.07	0.001353
1755.72	0.0012395
1765.36	0.0013044
1775.01	0.0012745
1784.66	0.00116053
1794.3	0.00110878
1803.95	0.00111728
1813.6	0.0013855
1823.24	0.0015617
1832.89	0.0017128
1842.54	0.0017254
1852.18	0.0016424
1861.83	0.0015723
1871.47	0.0014865
1881.12	0.0014719
1890.77	0.0013798
1900.41	0.0012763
1910.06	0.00112866
1919.71	0.00109587
1929.35	0.0010701
1939	0.000958
1948.65	0.000905
1958.29	0.000879
1967.94	0.000908
1977.59	0.00093
1987.23	0.000983
1996.88	0.000962
2006.53	0.000909
2016.17	0.000897
2025.82	0.000971
2035.47	0.00110387
2045.11	0.001228
2054.76	0.00117583
2064.41	0.0010717
2074.05	0.0010188
2083.7	0.0010844
2093.35	0.00109364
2102.99	0.0010691
2112.64	0.000927
2122.28	0.000878
2131.93	0.000813
2141.58	0.000784
2151.22	0.000818
2160.87	0.000806
2170.52	0.000869
2180.16	0.000857
2189.81	0.000847
2199.46	0.000842
2209.1	0.000875
2218.75	0.000879
2228.4	0.000918
2238.04	0.000949
2247.69	0.000983
2257.34	0.0010186
2266.98	0.0010529
2276.63	0.00110107
2286.28	0.001078
2295.92	0.0012026
2305.57	0.00118649
2315.22	0.0012087
2324.86	0.0012328
2334.51	0.0012831
2344.16	0.001246
2353.8	0.00119577
2363.45	0.00110171
2373.09	0.0010525
2382.74	0.00110922
2392.39	0.0012112
2402.03	0.0012612
2411.68	0.00119246
2421.33	0.00117841
2430.97	0.0012073
2440.62	0.0012592
2450.27	0.0012505
2459.91	0.00119715
2469.56	0.00117248
2479.21	0.00116209
2488.85	0.0012246
2498.5	0.00113894
2508.15	0.00109457
2517.79	0.0010361
2527.44	0.0010503
2537.09	0.001025
2546.73	0.0010089
2556.38	0.000941
2566.03	0.000959
2575.67	0.000936
2585.32	0.000865
2594.96	0.000926
2604.61	0.00096
2614.26	0.000927
2623.9	0.000866
2633.55	0.000769
2643.2	0.000685
2652.84	0.000675
2662.49	0.000629
2672.14	0.000647
2681.78	0.00058
2691.43	0.0006
2701.08	0.00058
2710.72	0.000575
2720.37	0.000622
2730.02	0.000684
2739.66	0.000643
2749.31	0.000679
2758.96	0.000727
2768.6	0.000648
2778.25	0.000612
2787.9	0.000633
2797.54	0.000576
2807.19	0.000615
2816.84	0.000552
2826.48	0.00061
2836.13	0.000565
2845.77	0.000462
2855.42	0.00033
2865.07	0.000414
2874.71	0.000361
2884.36	0.000436
2894.01	0.000437
2903.65	0.000394
2913.3	0.000414
2922.95	0.000346
2932.59	0.000368
2942.24	0.000213
2951.89	0.00034
2961.53	0.000156
2971.18	0.00021
2980.83	0.0002
2990.47	0.000176
3000.12	8e-05
3009.77	0.000187
3019.41	0.000117
3029.06	0.00044
3038.71	0.0013214
3048.35	0.0020258
3058	0.0019948
3067.64	0.0010451
3077.29	0.000728
3086.94	0.000556
3096.58	0.000401
3106.23	0.000337
3115.88	0.000195
3125.52	0.000207
3135.17	0.0001
3144.82	0.000249
3154.46	0.000114
3164.11	0.000132
3173.76	8e-05
3183.4	6e-05
3193.05	0.000128
3202.7	0.000124
3212.34	0.000113
3221.99	0.000116
3231.64	0.000253
3241.28	0.00022
3250.93	0.000165
3260.58	0.000205
3270.22	0.000272
3279.87	0.000219
3289.52	0.000317
3299.16	0.000284
3308.81	0.00026
3318.45	0.000315
3328.1	0.000363
3337.75	0.000339
3347.39	0.000373
3357.04	0.000504
3366.69	0.000534
3376.33	0.000606
3385.98	0.000647
3395.63	0.000686
3405.27	0.000679
3414.92	0.000793
3424.57	0.000632
3434.21	0.000531
3443.86	0.000753
3453.51	0.000541
3463.15	0.000435
3472.8	0.000516
3482.45	0.000594
3492.09	0.000654
3501.74	0.000644
3511.39	0.000626
3521.03	0.000447
3530.68	0.000445
3540.33	0.000448
3549.97	0.00048
3559.62	0.000509
3569.26	0.000626
3578.91	0.000595
3588.56	0.000747
3598.2	0.000767
3607.85	0.000919
3617.5	0.0012383
3627.14	0.00237
3636.79	0.0067
3646.44	0.01868
3656.08	0.02401
3665.73	0.01788
3675.38	0.00444
3685.02	0.0013427
3694.67	0.000921
3704.32	0.000713
3713.96	0.000612
3723.61	0.000673
3733.26	0.000593
3742.9	0.000679
3752.55	0.000706
3762.2	0.000668
3771.84	0.000671
3781.49	0.000788
3791.13	0.00087
3800.78	0.000873
3810.43	0.000907
3820.07	0.000822
3829.72	0.000842
3839.37	0.000911
3849.01	0.000967
3858.66	0.000992
3868.31	0.000872
3877.95	0.000897
3887.6	0.0009
3897.25	0.000877
3906.89	0.000862
3916.54	0.000846
3926.19	0.000897
3935.83	0.000923
3945.48	0.000817
3955.13	0.000723
3964.77	0.000702
3974.42	0.000598
3984.07	0.000656
3993.71	0.000642
