Infrared Spectrum: 4,4'-Dimethoxy-N-methyldiphenylamine
Formula: C 15 H 17 N O 2
CAS: 27151-57-1
State: gas
Origin: EPA-IR VAPOR PHASE LIBRARY
1/CM	ABSORBANCE
549.8	0.03381
559.445	0.04223
569.09	0.04289
578.734	0.0312
588.379	0.01732
598.024	0.00997
607.669	0.00735
617.313	0.00577
626.958	0.00504
636.603	0.00601
646.248	0.00736
655.893	0.00722
665.537	0.00505
675.182	0.0044
684.827	0.00407
694.472	0.00458
704.116	0.0055
713.761	0.00708
723.406	0.00958
733.051	0.01239
742.695	0.01125
752.34	0.01581
761.985	0.05634
771.63	0.0411
781.275	0.01685
790.919	0.0181
800.564	0.02747
810.209	0.04274
819.854	0.06791
829.498	0.0697
839.143	0.05387
848.788	0.02705
858.433	0.0179
868.078	0.02434
877.722	0.01434
887.367	0.00747
897.012	0.0054
906.657	0.00411
916.301	0.00343
925.946	0.00415
935.591	0.00394
945.236	0.00461
954.88	0.00548
964.525	0.00677
974.17	0.00875
983.815	0.01179
993.46	0.0166
1003.1	0.02536
1012.75	0.03807
1022.39	0.06439
1032.04	0.11859
1041.68	0.15148
1051.33	0.09456
1060.97	0.05587
1070.62	0.04776
1080.26	0.03281
1089.91	0.0275
1099.55	0.03963
1109.2	0.04805
1118.84	0.05339
1128.49	0.06692
1138.13	0.05433
1147.78	0.0361
1157.42	0.0442
1167.07	0.08523
1176.71	0.09017
1186.36	0.0632
1196	0.04712
1205.64	0.05737
1215.29	0.08998
1224.93	0.17709
1234.58	0.42216
1244.22	0.57052
1253.87	0.31767
1263.51	0.20016
1273.16	0.16002
1282.8	0.12977
1292.45	0.09374
1302.09	0.06182
1311.74	0.04611
1321.38	0.04366
1331.03	0.04384
1340.67	0.03396
1350.32	0.0223
1359.96	0.0164
1369.61	0.01349
1379.25	0.01195
1388.9	0.01157
1398.54	0.01292
1408.18	0.01633
1417.83	0.02172
1427.47	0.03012
1437.12	0.04994
1446.76	0.07878
1456.41	0.07123
1466.05	0.09362
1475.7	0.09618
1485.34	0.13029
1494.99	0.35789
1504.63	0.84593
1514.28	0.47543
1523.92	0.15026
1533.57	0.06312
1543.21	0.03857
1552.86	0.0294
1562.5	0.02689
1572.15	0.02856
1581.79	0.0284
1591.44	0.02329
1601.08	0.02203
1610.73	0.02125
1620.37	0.01924
1630.01	0.01673
1639.66	0.01391
1649.3	0.01095
1658.95	0.00857
1668.59	0.00685
1678.24	0.00612
1687.88	0.00546
1697.53	0.00519
1707.17	0.00526
1716.82	0.00537
1726.46	0.00576
1736.11	0.00598
1745.75	0.00572
1755.4	0.00494
1765.04	0.00459
1774.69	0.00472
1784.33	0.00469
1793.98	0.00487
1803.62	0.00555
1813.27	0.00575
1822.91	0.00578
1832.55	0.00615
1842.2	0.00662
1851.84	0.00694
1861.49	0.00698
1871.13	0.00749
1880.78	0.00717
1890.42	0.00593
1900.07	0.00477
1909.71	0.00385
1919.36	0.00356
1929	0.00388
1938.65	0.00435
1948.29	0.00399
1957.94	0.00387
1967.58	0.00431
1977.23	0.00477
1986.87	0.00541
1996.52	0.00583
2006.16	0.00655
2015.81	0.00639
2025.45	0.00634
2035.1	0.00781
2044.74	0.00934
2054.38	0.00944
2064.03	0.00891
2073.67	0.00823
2083.32	0.00691
2092.96	0.00516
2102.61	0.00409
2112.25	0.00368
2121.9	0.00295
2131.54	0.00227
2141.19	0.00199
2150.83	0.00178
2160.48	0.00154
2170.12	0.00154
2179.77	0.00158
2189.41	0.0014658
2199.06	0.0013687
2208.7	0.00155
2218.35	0.00169
2227.99	0.00185
2237.64	0.00205
2247.28	0.00229
2256.92	0.00279
2266.57	0.00338
2276.21	0.00371
2285.86	0.0033
2295.5	0.00326
2305.15	0.00359
2314.79	0.00293
2324.44	0.00232
2334.08	0.00213
2343.73	0.00203
2353.37	0.00213
2363.02	0.00253
2372.66	0.00315
2382.31	0.00327
2391.95	0.00271
2401.6	0.00291
2411.24	0.00309
2420.89	0.00289
2430.53	0.00253
2440.18	0.00243
2449.82	0.00272
2459.47	0.00303
2469.11	0.00346
2478.75	0.00407
2488.4	0.00385
2498.04	0.00352
2507.69	0.00389
2517.33	0.00418
2526.98	0.00435
2536.62	0.00448
2546.27	0.004
2555.91	0.00375
2565.56	0.00372
2575.2	0.00389
2584.85	0.00409
2594.49	0.00395
2604.14	0.0038
2613.78	0.00331
2623.43	0.00319
2633.07	0.00311
2642.72	0.00314
2652.36	0.00297
2662.01	0.00265
2671.65	0.00249
2681.29	0.00262
2690.94	0.0028
2700.58	0.00285
2710.23	0.00325
2719.87	0.00339
2729.52	0.00357
2739.16	0.0044
2748.81	0.00533
2758.45	0.00636
2768.1	0.00826
2777.74	0.01082
2787.39	0.01527
2797.03	0.02252
2806.68	0.03241
2816.32	0.03833
2825.97	0.0398
2835.61	0.05948
2845.26	0.06975
2854.9	0.04551
2864.55	0.03998
2874.19	0.04128
2883.84	0.04388
2893.48	0.04711
2903.12	0.05333
2912.77	0.0629
2922.41	0.06419
2932.06	0.07156
2941.7	0.09269
2951.35	0.08962
2960.99	0.07163
2970.64	0.05231
2980.28	0.04666
2989.93	0.06035
2999.57	0.08585
3009.22	0.07124
3018.86	0.03441
3028.51	0.02995
3038.15	0.04128
3047.8	0.04916
3057.44	0.03508
3067.09	0.02862
3076.73	0.02488
3086.38	0.0208
3096.02	0.02069
3105.67	0.01713
3115.31	0.01149
3124.95	0.00803
3134.6	0.00563
3144.24	0.00399
3153.89	0.00329
3163.53	0.0026
3173.18	0.0022
3182.82	0.00174
3192.47	0.00168
3202.11	0.00157
3211.76	0.0012428
3221.4	0.0012065
3231.05	0.0009886
3240.69	0.0007697
3250.34	0.00057226
3259.98	0.0004537
3269.63	0.0004327
3279.27	0.0009395
3288.92	0.00058591
3298.56	0.00055821
3308.21	0.000454
3317.85	0.000489729
3327.49	0.000336
3337.14	0.00048733
3346.78	0.00052982
3356.43	0.00056421
3366.07	0.000258
3375.72	0.000176
3385.36	0.000198
3395.01	0.000257
3404.65	0.000329
3414.3	0.0004778
3423.94	0.0003901
3433.59	0.000343
3443.23	1.6e-05
3452.88	0.000362
3462.52	0.000362
3472.17	4.6e-05
3481.81	0.000318
3491.46	0.0004848
3501.1	0.000239
3510.75	0.0004815
3520.39	0.00056344
3530.04	0.000223
3539.68	0.000125
3549.32	0.000244
3558.97	0.0003966
3568.61	9e-05
3578.26	0.0004329
3587.9	0.000191
3597.55	0.00052729
3607.19	0.000335
3616.84	0.000282
3626.48	0.000497118
3636.13	0.0004515
3645.77	0.0004154
3655.42	0.0006118
3665.06	0.00055701
3674.71	0.0006125
3684.35	0.0007206
3694	0.0009393
3703.64	0.0005972
3713.29	0.000437
3722.93	0.000218
3732.58	0.0006174
3742.22	0.00057642
3751.86	3.8e-05
3761.51	0.000204
3771.15	0.0004514
3780.8	0.000195
3790.44	0.000329
3800.09	0.0004736
3809.73	0.0004037
3819.38	0.0007037
3829.02	0.0004721
3838.67	0.0004267
3848.31	0.0010783
3857.96	0.0009141
3867.6	0.0009223
3877.25	0.0011004
3886.89	0.0010522
3896.54	0.0009346
3906.18	0.0006889
3915.83	0.0004066
3925.47	0.0007716
3935.12	0.0008716
3944.76	0.0009685
3954.41	0.0010541
3964.05	0.0013027
3973.69	0.0013601
3983.34	0.0013239
3992.98	0.0011812
