Infrared Spectrum: Adenine, 9-butyl-
Formula: C9 H13 N5
CAS: 2715-70-0
State: SOLID (0.8 m / 650 mg KBr DISC)
Class: COBLENTZ III
Instrument: PERKIN-ELMER 21 (GRATING)
Instrument parameters: FILTER CHANGE ABOUT 1025 CM^-^1
Sampling: TRANSMISSION
Resolution: 2
Origin: SOUTHERN RESEARCH INSTITUTE
1/CM	TRANSMITTANCE
601	0.6037
610	0.5955
619	0.5787
628	0.55
637	0.4833
646	0.435
655	0.4324
664	0.4439
673	0.4744
682	0.5259
691	0.5574
700	0.5769
709	0.5526
718	0.557
727	0.6406
736	0.7159
745	0.7227
754	0.6816
763	0.6714
772	0.7908
781	0.7865
790	0.7012
799	0.8075
808	0.8708
817	0.8723
826	0.8673
835	0.8483
844	0.8532
853	0.8735
862	0.8736
871	0.8711
880	0.867
889	0.8589
898	0.8546
907	0.8735
916	0.8695
925	0.8574
934	0.8403
943	0.8522
952	0.8656
961	0.863
970	0.8512
979	0.8292
988	0.7975
997	0.6324
1006	0.6462
1015	0.6796
1024	0.8298
1033	0.8447
1042	0.8163
1051	0.7704
1060	0.6344
1069	0.6018
1078	0.8055
1087	0.8161
1096	0.7603
1105	0.7745
1114	0.8217
1123	0.8358
1132	0.8301
1141	0.8148
1150	0.7934
1159	0.7707
1168	0.7432
1177	0.7084
1186	0.6269
1195	0.5084
1204	0.6349
1213	0.6334
1222	0.4278
1231	0.3283
1240	0.4841
1249	0.5629
1258	0.6867
1267	0.6882
1276	0.6414
1285	0.5527
1294	0.3105
1303	0.3076
1312	0.3372
1321	0.4183
1330	0.6316
1339	0.5988
1348	0.5071
1357	0.498
1366	0.6492
1375	0.6309
1384	0.707
1393	0.7089
1402	0.38
1411	0.4326
1420	0.7058
1429	0.6747
1438	0.62
1447	0.5837
1456	0.4903
1465	0.4026
1474	0.378
1483	0.6063
1492	0.7837
1501	0.7419
1510	0.7309
1519	0.7642
1528	0.743
1537	0.7071
1546	0.5699
1555	0.3851
1564	0.2638
1573	0.289
1582	0.1195
1591	0.1289
1600	0.3084
1609	0.44
1618	0.4462
1627	0.3791
1636	0.3683
1645	0.3084
1654	0.1301
1663	0.2047
1672	0.3398
1681	0.6161
1690	0.7438
1699	0.8396
1708	0.8813
1717	0.9237
1726	0.9436
1735	0.959
1744	0.9702
1753	0.9764
1762	0.9802
1771	0.9833
1780	0.9851
1789	0.986
1798	0.9855
1807	0.9852
1816	0.985
1825	0.9841
1834	0.983
1843	0.9766
1852	0.9681
1861	0.9595
1870	0.9624
1879	0.9736
1888	0.976
1897	0.9754
1906	0.9742
1915	0.9731
1924	0.9735
1933	0.9729
1942	0.9715
1951	0.9696
1960	0.9673
1969	0.965
1978	0.9624
1987	0.9583
1996	0.9542
2005	0.9503
2014	0.9469
2023	0.9458
2032	0.9469
2041	0.9506
2050	0.9525
2059	0.9503
2068	0.9442
2077	0.9412
2086	0.9427
2095	0.9445
2104	0.9434
2113	0.9419
2122	0.9403
2131	0.9391
2140	0.9389
2149	0.9395
2158	0.9363
2167	0.9316
2176	0.9267
2185	0.9221
2194	0.9179
2203	0.9139
2212	0.9099
2221	0.9062
2230	0.903
2239	0.8993
2248	0.8949
2257	0.8896
2266	0.8837
2275	0.8784
2284	0.8734
2293	0.8676
2302	0.8648
2311	0.8643
2320	0.8661
2329	0.8689
2338	0.8717
2347	0.8771
2356	0.8799
2365	0.8796
2374	0.8786
2383	0.878
2392	0.8776
2401	0.8762
2410	0.8743
2419	0.8723
2428	0.8701
2437	0.8678
2446	0.8651
2455	0.8623
2464	0.8597
2473	0.8575
2482	0.8554
2491	0.8533
2500	0.8514
2509	0.8495
2518	0.8476
2527	0.8456
2536	0.8437
2545	0.8393
2554	0.8351
2563	0.8285
2572	0.8202
2581	0.8104
2590	0.7998
2599	0.7896
2608	0.7797
2617	0.7692
2626	0.7579
2635	0.7464
2644	0.7404
2653	0.7417
2662	0.7442
2671	0.7467
2680	0.7414
2689	0.7349
2698	0.7328
2707	0.7333
2716	0.735
2725	0.7352
2734	0.7348
2743	0.7323
2752	0.728
2761	0.721
2770	0.7127
2779	0.6977
2788	0.6668
2797	0.6346
2806	0.6002
2815	0.5435
2824	0.5026
2833	0.5039
2842	0.5181
2851	0.5161
2860	0.49
2869	0.442
2878	0.4082
2887	0.3754
2896	0.3771
2905	0.3872
2914	0.3845
2923	0.3986
2932	0.4327
2941	0.4752
2950	0.4932
2959	0.4879
2968	0.4776
2977	0.4508
2986	0.4201
2995	0.3936
3004	0.3836
3013	0.3776
3022	0.3678
3031	0.3519
3040	0.3329
3049	0.3107
3058	0.2844
3067	0.2595
3076	0.2444
3085	0.2379
3094	0.2374
3103	0.2436
3112	0.2547
3121	0.2675
3130	0.2807
3139	0.2943
3148	0.3072
3157	0.3182
3166	0.3291
3175	0.3393
3184	0.3475
3193	0.3481
3202	0.3431
3211	0.3368
3220	0.327
3229	0.3121
3238	0.296
3247	0.2774
3256	0.2714
3265	0.2745
3274	0.2939
3283	0.3155
3292	0.3385
3301	0.3688
3310	0.4002
3319	0.4375
3328	0.4811
3337	0.5207
3346	0.5495
3355	0.5798
3364	0.5962
3373	0.6092
3382	0.6179
3391	0.6247
3400	0.6317
3409	0.641
3418	0.6531
3427	0.6635
3436	0.6702
3445	0.6808
3454	0.691
3463	0.6992
3472	0.7072
3481	0.7153
3490	0.7237
3499	0.7321
3508	0.7401
3517	0.748
3526	0.7553
3535	0.7648
3544	0.7795
3553	0.7951
3562	0.8096
3571	0.8218
3580	0.833
3589	0.841
3598	0.847
3607	0.8496
3616	0.8502
3625	0.8508
3634	0.8513
3643	0.8517
3652	0.8519
3661	0.852
3670	0.8513
3679	0.8506
3688	0.8501
3697	0.8496
3706	0.8492
3715	0.8491
3724	0.8491
3733	0.8514
3742	0.8528
3751	0.8534
3760	0.8535
3769	0.8525
3778	0.8504
3787	0.8479
3796	0.8454
3805	0.8443
3814	0.8431
3823	0.8417
3832	0.8414
3841	0.8421
3850	0.8428
3859	0.8434
3868	0.8428
3877	0.842
3886	0.841
3895	0.839
3904	0.8366
3913	0.835
3922	0.8352
3931	0.8354
3940	0.8343
3949	0.8328
3958	0.8311
3967	0.8295
3976	0.8279
3985	0.8289
3994	0.8261
