Infrared Spectrum: N-SEC-AMYL ANILINE
Formula: C11 H17 N
CAS: 2716-62-3
State: SOLUTION (10% IN CCl4 FOR 5000-1350 CM^-^1, 10% IN CS2 FOR 1350-625 CM^-^1)
Class: COBLENTZ
Instrument: Not specified, most likely a prism, grating, or hybrid spectrometer.
Sampling: TRANSMISSION
Path length: 0.01 CM, 0.01 CM
Resolution: 4
Origin: DOW CHEMICAL COMPANY
MICROMETERS	TRANSMITTANCE
2.038	0.86
2.07727	0.86
2.11655	0.861
2.15582	0.868
2.19509	0.868
2.23436	0.858
2.27364	0.85
2.31291	0.855
2.35218	0.861
2.39146	0.863
2.43073	0.852
2.47	0.865
2.50928	0.869
2.54855	0.868
2.58782	0.868
2.62709	0.873
2.66637	0.873
2.70564	0.869
2.74491	0.869
2.78419	0.861
2.82346	0.853
2.86273	0.78
2.90201	0.666
2.94128	0.822
2.98055	0.842
3.01982	0.853
3.0591	0.843
3.09837	0.822
3.13764	0.819
3.17692	0.791
3.21619	0.702
3.25546	0.603
3.29473	0.546
3.33401	0.547
3.37328	0.11
3.41255	0.198
3.45183	0.278
3.4911	0.432
3.53037	0.661
3.56965	0.791
3.60892	0.821
3.64819	0.821
3.68746	0.842
3.72674	0.861
3.76601	0.858
3.80528	0.861
3.84456	0.858
3.88383	0.868
3.9231	0.882
3.96237	0.891
4.00165	0.895
4.04092	0.9
4.08019	0.9
4.11947	0.899
4.15874	0.9
4.19801	0.886
4.23729	0.876
4.27656	0.882
4.31583	0.892
4.3551	0.9
4.39438	0.912
4.43365	0.92
4.47292	0.923
4.5122	0.925
4.55147	0.923
4.59074	0.918
4.63002	0.92
4.66929	0.921
4.70856	0.92
4.74783	0.921
4.78711	0.921
4.82638	0.928
4.86565	0.928
4.90493	0.93
4.9442	0.926
4.98347	0.923
5.02274	0.923
5.06202	0.92
5.10129	0.917
5.14056	0.882
5.17984	0.863
5.21911	0.866
5.25838	0.9
5.29766	0.912
5.33693	0.915
5.3762	0.913
5.41547	0.881
5.45475	0.873
5.49402	0.871
5.53329	0.899
5.57257	0.902
5.61184	0.887
5.65111	0.871
5.69039	0.874
5.72966	0.876
5.76893	0.879
5.8082	0.878
5.84748	0.873
5.88675	0.855
5.92602	0.832
5.9653	0.83
6.00457	0.839
6.04384	0.806
6.08311	0.746
6.12239	0.617
6.16166	0.292
6.20093	0.052
6.24021	0.203
6.27948	0.378
6.31875	0.487
6.35803	0.497
6.3973	0.445
6.43657	0.417
6.47584	0.45
6.51512	0.458
6.55439	0.347
6.59366	0.185
6.63294	0.092
6.67221	0.268
6.71148	0.308
6.75076	0.245
6.79003	0.302
6.8293	0.497
6.86857	0.639
6.90785	0.619
6.94712	0.448
6.98639	0.512
7.02567	0.728
7.06494	0.752
7.10421	0.756
7.14348	0.686
7.18276	0.586
7.22203	0.593
7.2613	0.51
7.30058	0.562
7.33985	0.736
7.37912	0.699
7.4184	0.596
7.45767	0.469
7.49694	0.339
7.53621	0.191
7.57549	0.247
7.61476	0.421
7.65403	0.513
7.69331	0.515
7.73258	0.534
7.77185	0.504
7.81112	0.468
7.8504	0.424
7.88967	0.396
7.92894	0.396
7.96822	0.391
8.00749	0.512
8.04676	0.684
8.08604	0.712
8.12531	0.674
8.16458	0.652
8.20385	0.744
8.24313	0.767
8.2824	0.759
8.32167	0.746
8.36095	0.717
8.40022	0.637
8.43949	0.445
8.47877	0.484
8.51804	0.596
8.55731	0.635
8.59658	0.603
8.63586	0.484
8.67513	0.479
8.7144	0.556
8.75368	0.634
8.79295	0.713
8.83222	0.744
8.87149	0.767
8.91077	0.788
8.95004	0.79
8.98931	0.765
9.02859	0.756
9.06786	0.746
9.10713	0.681
9.14641	0.606
9.18568	0.604
9.22495	0.71
9.26422	0.743
9.3035	0.699
9.34277	0.705
9.38204	0.777
9.42132	0.808
9.46059	0.811
9.49986	0.795
9.53914	0.8
9.57841	0.806
9.61768	0.804
9.65695	0.738
9.69623	0.73
9.7355	0.811
9.77477	0.837
9.81405	0.84
9.85332	0.839
9.89259	0.835
9.93186	0.826
9.97114	0.79
10.0104	0.71
10.0497	0.656
10.089	0.751
10.1282	0.809
10.1675	0.839
10.2068	0.855
10.246	0.868
10.2853	0.873
10.3246	0.868
10.3639	0.866
10.4031	0.871
10.4424	0.866
10.4817	0.865
10.521	0.858
10.5602	0.848
10.5995	0.852
10.6388	0.858
10.6781	0.863
10.7173	0.865
10.7566	0.865
10.7959	0.855
10.8351	0.829
10.8744	0.826
10.9137	0.842
10.953	0.845
10.9922	0.848
11.0315	0.842
11.0708	0.843
11.1101	0.845
11.1493	0.837
11.1886	0.829
11.2279	0.809
11.2671	0.788
11.3064	0.765
11.3457	0.739
11.385	0.702
11.4242	0.652
11.4635	0.59
11.5028	0.5
11.5421	0.426
11.5813	0.474
11.6206	0.559
11.6599	0.595
11.6991	0.616
11.7384	0.647
11.7777	0.684
11.817	0.723
11.8562	0.746
11.8955	0.759
11.9348	0.765
11.9741	0.77
12.0133	0.773
12.0526	0.773
12.0919	0.773
12.1312	0.762
12.1704	0.757
12.2097	0.747
12.249	0.739
12.2882	0.723
12.3275	0.715
12.3668	0.715
12.4061	0.721
12.4453	0.728
12.4846	0.731
12.5239	0.736
12.5632	0.734
12.6024	0.731
12.6417	0.733
12.681	0.731
12.7202	0.726
12.7595	0.725
12.7988	0.725
12.8381	0.718
12.8773	0.713
12.9166	0.704
12.9559	0.682
12.9952	0.666
13.0344	0.645
13.0737	0.616
13.113	0.578
13.1522	0.525
13.1915	0.45
13.2308	0.336
13.2701	0.224
13.3093	0.097
13.3486	0.019
13.3879	0.001
13.4272	0.032
13.4664	0.107
13.5057	0.239
13.545	0.378
13.5842	0.474
13.6235	0.546
13.6628	0.59
13.7021	0.616
13.7413	0.634
13.7806	0.64
13.8199	0.647
13.8592	0.648
13.8984	0.653
13.9377	0.652
13.977	0.647
14.0163	0.64
14.0555	0.632
14.0948	0.622
14.1341	0.604
14.1733	0.582
14.2126	0.544
14.2519	0.5
14.2912	0.426
14.3304	0.338
14.3697	0.237
14.409	0.126
14.4483	0.065
14.4875	0.069
14.5268	0.152
14.5661	0.256
14.6053	0.362
14.6446	0.432
14.6839	0.466
14.7232	0.491
14.7624	0.502
14.8017	0.507
14.841	0.507
14.8803	0.504
14.9195	0.494
14.9588	0.494
14.9981	0.492
15.0373	0.484
15.0766	0.473
15.1159	0.465
15.1552	0.458
15.1944	0.45
15.2337	0.44
15.273	0.43
15.3123	0.426
15.3515	0.422
15.3908	0.421
15.4301	0.414
15.4694	0.408
15.5086	0.403
15.5479	0.398
15.5872	0.393
15.6264	0.386
15.6657	0.378
15.705	0.372
15.7443	0.365
15.7835	0.359
15.8228	0.356
15.8621	0.354
15.9014	0.369
