Infrared Spectrum: 1-Chloro-9-phenylnonane
Formula: C15 H23 Cl
CAS: 27175-81-1
State: gas
Origin: EPA-IR VAPOR PHASE LIBRARY
1/CM	ABSORBANCE
549.8	0.002702
559.445	0.002512
569.09	0.002702
578.734	0.001972
588.379	0.001243
598.024	0.002492
607.669	0.000696
617.313	0.0010964
626.958	0.0014505
636.603	0.002962
646.248	0.004442
655.893	0.007332
665.537	0.008602
675.182	0.008702
684.827	0.012732
694.472	0.025382
704.116	0.021472
713.761	0.017902
723.406	0.019682
733.051	0.024062
742.695	0.024392
752.34	0.015312
761.985	0.009672
771.63	0.006292
781.275	0.004272
790.919	0.004342
800.564	0.002552
810.209	0.003902
819.854	0.002572
829.498	0.002902
839.143	0.002372
848.788	0.002432
858.433	0.001892
868.078	0.002822
877.722	0.002612
887.367	0.002682
897.012	0.003442
906.657	0.003412
916.301	0.002982
925.946	0.002282
935.591	0.0017538
945.236	0.002672
954.88	0.002312
964.525	0.002942
974.17	0.002632
983.815	0.002792
993.46	0.002472
1003.1	0.0017632
1012.75	0.002392
1022.39	0.004022
1032.04	0.005692
1041.68	0.003772
1051.33	0.003522
1060.97	0.005972
1070.62	0.004262
1080.26	0.003582
1089.91	0.003742
1099.55	0.003262
1109.2	0.002962
1118.84	0.003702
1128.49	0.003162
1138.13	0.0014342
1147.78	0.002852
1157.42	0.0015385
1167.07	0.001822
1176.71	0.002702
1186.36	0.0011458
1196	0.002892
1205.64	0.0017677
1215.29	0.0013198
1224.93	0.002232
1234.58	0.002422
1244.22	0.003022
1253.87	0.003342
1263.51	0.004942
1273.16	0.006032
1282.8	0.007882
1292.45	0.009172
1302.09	0.009182
1311.74	0.008882
1321.38	0.007512
1331.03	0.006222
1340.67	0.006642
1350.32	0.007662
1359.96	0.006612
1369.61	0.005082
1379.25	0.003552
1388.9	0.002772
1398.54	0.002462
1408.18	0.002722
1417.83	0.003232
1427.47	0.004802
1437.12	0.008372
1446.76	0.015522
1456.41	0.018712
1466.05	0.014032
1475.7	0.008172
1485.34	0.007202
1494.99	0.013092
1504.63	0.006842
1514.28	0.002892
1523.92	0.002542
1533.57	0.002472
1543.21	0.001922
1552.86	0.001992
1562.5	0.001952
1572.15	0.002302
1581.79	0.003322
1591.44	0.004912
1601.08	0.007162
1610.73	0.004432
1620.37	0.002322
1630.01	0.0014882
1639.66	0.001567
1649.3	0.0014132
1658.95	0.0013376
1668.59	0.0012207
1678.24	0.0011548
1687.88	0.0010949
1697.53	0.0013182
1707.17	0.0014744
1716.82	0.0011238
1726.46	0.0015939
1736.11	0.0014025
1745.75	0.0014808
1755.4	0.0013422
1765.04	0.0011169
1774.69	0.0016324
1784.33	0.002162
1793.98	0.002542
1803.62	0.002052
1813.27	0.0017169
1822.91	0.001533
1832.55	0.0013944
1842.2	0.0015562
1851.84	0.0017717
1861.49	0.002102
1871.13	0.002082
1880.78	0.0015818
1890.42	0.0014978
1900.07	0.001348
1909.71	0.0014621
1919.36	0.001872
1929	0.002052
1938.65	0.002622
1948.29	0.002532
1957.94	0.002112
1967.58	0.0014009
1977.23	0.0013421
1986.87	0.0012849
1996.52	0.0014352
2006.16	0.0012772
2015.81	0.0012528
2025.45	0.0012683
2035.1	0.0015812
2044.74	0.0013729
2054.38	0.0014368
2064.03	0.0012916
2073.67	0.0013887
2083.32	0.0014881
2092.96	0.0010956
2102.61	0.0011169
2112.25	0.001129
2121.9	0.0013439
2131.54	0.0014587
2141.19	0.0012596
2150.83	0.0010871
2160.48	0.0013951
2170.12	0.0015256
2179.77	0.001248
2189.41	0.00144
2199.06	0.0011753
2208.7	0.0011456
2218.35	0.0011641
2227.99	0.0012005
2237.64	0.0013783
2247.28	0.0010802
2256.92	0.0013259
2266.57	0.0012733
2276.21	0.0013971
2285.86	0.0013875
2295.5	0.0014308
2305.15	0.0013186
2314.79	0.0016057
2324.44	0.0013807
2334.08	0.0014577
2343.73	0.0012432
2353.37	0.0014042
2363.02	0.0012696
2372.66	0.0016716
2382.31	0.0014322
2391.95	0.0012842
2401.6	0.0013016
2411.24	0.0014713
2420.89	0.0013632
2430.53	0.0012162
2440.18	0.0012237
2449.82	0.0012301
2459.47	0.0013907
2469.11	0.001597
2478.75	0.0013917
2488.4	0.0014245
2498.04	0.001646
2507.69	0.0012571
2517.33	0.00085459
2526.98	0.0013206
2536.62	0.0015764
2546.27	0.0011441
2555.91	0.0010434
2565.56	0.0015104
2575.2	0.0014035
2584.85	0.0014699
2594.49	0.0014611
2604.14	0.0017809
2613.78	0.001852
2623.43	0.001982
2633.07	0.0017059
2642.72	0.002262
2652.36	0.002262
2662.01	0.002092
2671.65	0.002172
2681.29	0.002372
2690.94	0.002212
2700.58	0.002502
2710.23	0.002312
2719.87	0.002722
2729.52	0.002072
2739.16	0.001902
2748.81	0.002272
2758.45	0.002442
2768.1	0.002452
2777.74	0.003502
2787.39	0.003192
2797.03	0.003852
2806.68	0.004182
2816.32	0.005882
2825.97	0.007412
2835.61	0.010092
2845.26	0.016922
2854.9	0.037752
2864.55	0.056692
2874.19	0.040752
2883.84	0.027042
2893.48	0.026542
2903.12	0.035822
2912.77	0.054662
2922.41	0.090612
2932.06	0.141492
2941.7	0.129332
2951.35	0.069882
2960.99	0.040162
2970.64	0.025052
2980.28	0.015512
2989.93	0.014212
2999.57	0.015822
3009.22	0.012392
3018.86	0.014832
3028.51	0.022802
3038.15	0.019932
3047.8	0.011822
3057.44	0.012692
3067.09	0.019602
3076.73	0.016192
3086.38	0.011212
3096.02	0.008222
3105.67	0.005102
3115.31	0.004082
3124.95	0.002032
3134.6	0.001972
3144.24	0.002082
3153.89	0.0012235
3163.53	0.002182
3173.18	0.00087523
3182.82	0.001562
3192.47	0.001842
3202.11	0.0011651
3211.76	0.0015582
3221.4	0.000697
3231.05	0.0011079
3240.69	0.0013821
3250.34	0.0014289
3259.98	0.0009796
3269.63	0.0015691
3279.27	0.000585
3288.92	0.0016686
3298.56	0.0012059
3308.21	0.0010772
3317.85	0.000628
3327.49	0.000414
3337.14	0.000386
3346.78	0.0011403
3356.43	0.001451
3366.07	0.000635
3375.72	0.0012777
3385.36	0.000334
3395.01	0.00047
3404.65	0.0011087
3414.3	0.0010404
3423.94	0.0009606
3433.59	0.0012456
3443.23	0.0011821
3452.88	0.000697
3462.52	0.00084088
3472.17	0.0011203
3481.81	0.00089632
3491.46	0.0014343
3501.1	0.0008876
3510.75	0.000287
3520.39	0.00084414
3530.04	0.00084407
3539.68	0.00071
3549.32	0.00035
3558.97	0.00083988
3568.61	0.0007786
3578.26	0.0014198
3587.9	0.0012178
3597.55	0.0010719
3607.19	0.0013631
3616.84	0.0007928
3626.48	0.0011274
3636.13	0.00089111
3645.77	0.001048
3655.42	0.0016287
3665.06	0.0010775
3674.71	0.00087856
3684.35	0.0010141
3694	0.000756
3703.64	0.0015258
3713.29	0.0012907
3722.93	0.0011397
3732.58	0.001225
3742.22	0.0009618
3751.86	0.0010159
3761.51	0.0010475
3771.15	0.0015427
3780.8	0.001057
3790.44	0.0014773
3800.09	0.0010446
3809.73	0.0016575
3819.38	0.0015961
3829.02	0.0013695
3838.67	0.0014057
3848.31	0.000677
3857.96	0.0011608
3867.6	0.0014104
3877.25	0.001663
3886.89	0.0016764
3896.54	0.0007977
3906.18	0.0013644
3915.83	0.00136
3925.47	0.0013627
3935.12	0.0016186
3944.76	0.0007798
3954.41	0.0012556
3964.05	0.0013224
3973.69	0.0016222
3983.34	0.0013579
3992.98	0.0009483
