Infrared Spectrum: Ether, bis(m-nitrobenzyl)-
Formula: C14 H12 N2 O5
CAS: 27183-43-3
State: SOLID (SPLIT MULL), FLUOROLUBE FOR 3800-1330 CM^-^1, NUJOL FOR 1330-450 CM^-^1
Class: COBLENTZ III
Instrument: DOW KBr FOREPRISM-GRATING
Instrument parameters: BLAZED AT 3.5, 12.0, 20.0 MICRON AND CHANGED AT 5.0, 7.5, 14.9 MICRON
Sampling: TRANSMISSION
Resolution: 2
Origin: DOW CHEMICAL COMPANY
1/CM	TRANSMITTANCE
465	0.8494
474	0.8482
483	0.8499
492	0.8516
501	0.8468
510	0.8395
519	0.8449
528	0.8478
537	0.8407
546	0.8349
555	0.8511
564	0.8711
573	0.8832
582	0.8868
591	0.889
600	0.8893
609	0.8875
618	0.8834
627	0.8925
636	0.8924
645	0.8852
654	0.8828
663	0.8382
672	0.4159
681	0.8654
690	0.7995
699	0.6325
708	0.8473
717	0.5385
726	0.5495
735	0.5001
744	0.7551
753	0.8432
762	0.8664
771	0.8687
780	0.8673
789	0.8558
798	0.7975
807	0.3188
816	0.8168
825	0.7786
834	0.8218
843	0.714
852	0.8537
861	0.857
870	0.8512
879	0.7836
888	0.7486
897	0.75
906	0.7903
915	0.8008
924	0.7755
933	0.7778
942	0.7822
951	0.8231
960	0.8168
969	0.8108
978	0.8038
987	0.7706
996	0.7871
1005	0.7449
1014	0.6392
1023	0.7133
1032	0.6643
1041	0.4121
1050	0.5758
1059	0.2642
1068	0.1409
1077	0.403
1086	0.4974
1095	0.4874
1104	0.5537
1113	0.2769
1122	0.3995
1131	0.7021
1140	0.8018
1149	0.8008
1158	0.7924
1167	0.7953
1176	0.8321
1185	0.8161
1194	0.789
1203	0.6346
1212	0.758
1221	0.7471
1230	0.7651
1239	0.6845
1248	0.7926
1257	0.7748
1266	0.7548
1275	0.7254
1284	0.6558
1293	0.6185
1302	0.5445
1311	0.4258
1320	0.5004
1329	0.4209
1338	0.1399
1347	0.143
1356	0.031
1365	0.392
1374	0.6598
1383	0.7646
1392	0.7036
1401	0.7672
1410	0.7542
1419	0.7674
1428	0.7451
1437	0.6348
1446	0.6617
1455	0.623
1464	0.6922
1473	0.6058
1482	0.484
1491	0.6487
1500	0.6125
1509	0.4958
1518	0.145
1527	0.0327
1536	0.2029
1545	0.5418
1554	0.7401
1563	0.7804
1572	0.7908
1581	0.7494
1590	0.7682
1599	0.7914
1608	0.8011
1617	0.7901
1626	0.8157
1635	0.8453
1644	0.8438
1653	0.8412
1662	0.8481
1671	0.8494
1680	0.8475
1689	0.8451
1698	0.8423
1707	0.8396
1716	0.8368
1725	0.8321
1734	0.8246
1743	0.8161
1752	0.8244
1761	0.8277
1770	0.8278
1779	0.8257
1788	0.8218
1797	0.8234
1806	0.8213
1815	0.8194
1824	0.8242
1833	0.8227
1842	0.8252
1851	0.8317
1860	0.8278
1869	0.8245
1878	0.8212
1887	0.8216
1896	0.8231
1905	0.8241
1914	0.8183
1923	0.8057
1932	0.8194
1941	0.8267
1950	0.8273
1959	0.8337
1968	0.815
1977	0.8026
1986	0.8101
1995	0.8065
2004	0.8083
2013	0.8201
2022	0.823
2031	0.8198
2040	0.8175
2049	0.8136
2058	0.8101
2067	0.8067
2076	0.8034
2085	0.8004
2094	0.7975
2103	0.7947
2112	0.7918
2121	0.7894
2130	0.7858
2139	0.7821
2148	0.7784
2157	0.7747
2166	0.7708
2175	0.7668
2184	0.7633
2193	0.7597
2202	0.7561
2211	0.7528
2220	0.7499
2229	0.7446
2238	0.7389
2247	0.7324
2256	0.7261
2265	0.7203
2274	0.7161
2283	0.713
2292	0.7115
2301	0.711
2310	0.7108
2319	0.7111
2328	0.7112
2337	0.7114
2346	0.7122
2355	0.7133
2364	0.7141
2373	0.7143
2382	0.7145
2391	0.7147
2400	0.7144
2409	0.7138
2418	0.713
2427	0.711
2436	0.7081
2445	0.7086
2454	0.7135
2463	0.7151
2472	0.7162
2481	0.7171
2490	0.7174
2499	0.7171
2508	0.7165
2517	0.7154
2526	0.7136
2535	0.7115
2544	0.7093
2553	0.7069
2562	0.7058
2571	0.7045
2580	0.7041
2589	0.7037
2598	0.7024
2607	0.7011
2616	0.6994
2625	0.6976
2634	0.6955
2643	0.6928
2652	0.6904
2661	0.6878
2670	0.6855
2679	0.683
2688	0.6807
2697	0.6782
2706	0.6761
2715	0.6741
2724	0.6721
2733	0.6701
2742	0.6672
2751	0.6642
2760	0.6612
2769	0.6582
2778	0.6551
2787	0.6518
2796	0.6478
2805	0.6436
2814	0.6387
2823	0.6333
2832	0.6281
2841	0.622
2850	0.6134
2859	0.6015
2868	0.591
2877	0.5912
2886	0.5919
2895	0.5927
2904	0.5914
2913	0.5875
2922	0.5851
2931	0.592
2940	0.599
2949	0.6073
2958	0.614
2967	0.6191
2976	0.6222
2985	0.6216
2994	0.6197
3003	0.6166
3012	0.6134
3021	0.6098
3030	0.6053
3039	0.6004
3048	0.596
3057	0.5901
3066	0.5839
3075	0.5483
3084	0.5483
3093	0.559
3102	0.5716
3111	0.5838
3120	0.5937
3129	0.5994
3138	0.6028
3147	0.6018
3156	0.601
3165	0.6
3174	0.5981
3183	0.5965
3192	0.5951
3201	0.5936
3210	0.5919
3219	0.5903
3228	0.5886
3237	0.587
3246	0.5853
3255	0.5834
3264	0.5815
3273	0.5797
3282	0.578
3291	0.5762
3300	0.5746
3309	0.5729
3318	0.5712
3327	0.5696
3336	0.568
3345	0.5662
3354	0.5652
3363	0.5641
3372	0.5631
3381	0.562
3390	0.561
3399	0.56
3408	0.559
3417	0.558
3426	0.557
3435	0.5562
3444	0.5559
3453	0.5554
3462	0.555
3471	0.5546
3480	0.5545
3489	0.5547
3498	0.555
3507	0.5552
3516	0.5555
3525	0.5559
3534	0.5562
3543	0.5566
3552	0.557
3561	0.5572
3570	0.5576
3579	0.5577
3588	0.5566
3597	0.5554
3606	0.5542
3615	0.5524
3624	0.5508
3633	0.5495
3642	0.5483
3651	0.5468
3660	0.5447
3669	0.5437
3678	0.5428
3687	0.5418
3696	0.541
3705	0.5405
3714	0.5399
3723	0.5394
3732	0.5388
3741	0.5377
3750	0.5359
3759	0.5342
3768	0.5343
3777	0.5346
3786	0.5349
3795	0.5345
