Infrared Spectrum: 2-ACETAMIDOTHIAZOLE
Formula: C5 H6 N2 O S
CAS: 2719-23-5
State: SOLID (KBr PELLET)
Melting point: 203 C
Class: COBLENTZ
Instrument: Not specified, most likely a prism, grating, or hybrid spectrometer.
Sampling: TRANSMISSION
Resolution: 4
Origin: TENNESSEE EASTMAN COMPANY, RESEARCH LABORATORIES
MICROMETERS	TRANSMITTANCE
2.068	0.988
2.10888	0.994
2.14975	1
2.19063	1.001
2.23151	1.001
2.27238	1.001
2.31326	1
2.35414	0.996
2.39501	0.991
2.43589	0.982
2.47677	0.972
2.51764	0.962
2.55852	0.953
2.5994	0.941
2.64027	0.936
2.68115	0.926
2.72203	0.876
2.7629	0.772
2.80378	0.721
2.84465	0.682
2.88553	0.659
2.92641	0.661
2.96728	0.704
3.00816	0.743
3.04904	0.735
3.08991	0.726
3.13079	0.678
3.17167	0.635
3.21254	0.682
3.25342	0.615
3.2943	0.629
3.33517	0.505
3.37605	0.41
3.41693	0.422
3.4578	0.463
3.49868	0.536
3.53956	0.552
3.58043	0.577
3.62131	0.632
3.66219	0.673
3.70306	0.74
3.74394	0.769
3.78482	0.791
3.82569	0.817
3.86657	0.837
3.90745	0.844
3.94832	0.856
3.9892	0.87
4.03008	0.887
4.07095	0.894
4.11183	0.902
4.15271	0.909
4.19358	0.911
4.23446	0.911
4.27534	0.897
4.31621	0.892
4.35709	0.917
4.39796	0.931
4.43884	0.947
4.47972	0.953
4.52059	0.955
4.56147	0.955
4.60235	0.957
4.64322	0.957
4.6841	0.957
4.72498	0.958
4.76585	0.96
4.80673	0.96
4.84761	0.96
4.88848	0.962
4.92936	0.962
4.97024	0.962
5.01111	0.969
5.05199	0.969
5.09287	0.967
5.13374	0.962
5.17462	0.96
5.2155	0.965
5.25637	0.969
5.29725	0.97
5.33813	0.967
5.379	0.957
5.41988	0.957
5.46076	0.958
5.50163	0.958
5.54251	0.933
5.58339	0.926
5.62426	0.938
5.66514	0.938
5.70602	0.926
5.74689	0.902
5.78777	0.897
5.82865	0.873
5.86952	0.762
5.9104	0.254
5.95127	0.328
5.99215	0.572
6.03303	0.659
6.0739	0.723
6.11478	0.748
6.15566	0.74
6.19653	0.724
6.23741	0.688
6.27829	0.487
6.31916	0.191
6.36004	0.082
6.40092	0.181
6.44179	0.483
6.48267	0.646
6.52355	0.728
6.56442	0.779
6.6053	0.8
6.64618	0.8
6.68705	0.82
6.72793	0.837
6.76881	0.818
6.80968	0.817
6.85056	0.748
6.89144	0.728
6.93231	0.735
6.97319	0.735
7.01407	0.743
7.05494	0.777
7.09582	0.793
7.1367	0.794
7.17757	0.781
7.21845	0.717
7.25933	0.541
7.3002	0.282
7.34108	0.41
7.38196	0.67
7.42283	0.776
7.46371	0.747
7.50458	0.588
7.54546	0.726
7.58634	0.781
7.62721	0.726
7.66809	0.292
7.70897	0.145
7.74984	0.437
7.79072	0.69
7.8316	0.815
7.87247	0.842
7.91335	0.803
7.95423	0.794
7.9951	0.847
8.03598	0.866
8.07686	0.75
8.11773	0.509
8.15861	0.782
8.19949	0.835
8.24036	0.864
8.28124	0.871
8.32212	0.888
8.36299	0.868
8.40387	0.83
8.44475	0.8
8.48562	0.425
8.5265	0.37
8.56738	0.77
8.60825	0.825
8.64913	0.851
8.69001	0.856
8.73088	0.858
8.77176	0.859
8.81264	0.859
8.85351	0.859
8.89439	0.858
8.93526	0.856
8.97614	0.854
9.01702	0.854
9.05789	0.856
9.09877	0.856
9.13965	0.858
9.18052	0.859
9.2214	0.858
9.26228	0.847
9.30315	0.741
9.34403	0.606
9.38491	0.776
9.42578	0.839
9.46666	0.851
9.50754	0.851
9.54841	0.841
9.58929	0.82
9.63017	0.813
9.67104	0.815
9.71192	0.834
9.7528	0.854
9.79367	0.859
9.83455	0.864
9.87543	0.87
9.9163	0.871
9.95718	0.858
9.99806	0.827
10.0389	0.796
10.0798	0.798
10.1207	0.815
10.1616	0.822
10.2024	0.805
10.2433	0.719
10.2842	0.629
10.3251	0.717
10.3659	0.825
10.4068	0.868
10.4477	0.89
10.4886	0.902
10.5295	0.909
10.5703	0.914
10.6112	0.921
10.6521	0.926
10.693	0.929
10.7338	0.931
10.7747	0.935
10.8156	0.938
10.8565	0.94
10.8973	0.94
10.9382	0.94
10.9791	0.94
11.02	0.931
11.0608	0.892
11.1017	0.89
11.1426	0.909
11.1835	0.931
11.2244	0.936
11.2652	0.936
11.3061	0.935
11.347	0.919
11.3879	0.829
11.4287	0.752
11.4696	0.849
11.5105	0.897
11.5514	0.902
11.5922	0.904
11.6331	0.897
11.674	0.866
11.7149	0.844
11.7557	0.818
11.7966	0.801
11.8375	0.788
11.8784	0.767
11.9193	0.748
11.9601	0.726
12.001	0.714
12.0419	0.704
12.0828	0.692
12.1236	0.678
12.1645	0.673
12.2054	0.675
12.2463	0.688
12.2871	0.719
12.328	0.745
12.3689	0.772
12.4098	0.788
12.4507	0.798
12.4915	0.813
12.5324	0.829
12.5733	0.839
12.6142	0.842
12.655	0.839
12.6959	0.8
12.7368	0.666
12.7777	0.5
12.8185	0.57
12.8594	0.731
12.9003	0.806
12.9412	0.834
12.982	0.851
13.0229	0.866
13.0638	0.882
13.1047	0.888
13.1456	0.892
13.1864	0.892
13.2273	0.894
13.2682	0.894
13.3091	0.897
13.3499	0.899
13.3908	0.9
13.4317	0.902
13.4726	0.897
13.5134	0.89
13.5543	0.888
13.5952	0.887
13.6361	0.885
13.6769	0.882
13.7178	0.87
13.7587	0.846
13.7996	0.813
13.8405	0.752
13.8813	0.705
13.9222	0.685
13.9631	0.652
14.004	0.598
14.0448	0.558
14.0857	0.555
14.1266	0.579
14.1675	0.6
14.2083	0.635
14.2492	0.658
14.2901	0.67
14.331	0.688
14.3718	0.717
14.4127	0.762
14.4536	0.793
14.4945	0.806
14.5354	0.817
14.5762	0.823
14.6171	0.829
14.658	0.83
14.6989	0.83
14.7397	0.83
14.7806	0.829
14.8215	0.829
14.8624	0.822
14.9032	0.815
14.9441	0.798
14.985	0.774
15.0259	0.75
15.0668	0.716
15.1076	0.676
15.1485	0.637
15.1894	0.617
15.2303	0.617
15.2711	0.646
15.312	0.664
15.3529	0.676
15.3938	0.68
15.4346	0.682
15.4755	0.682
15.5164	0.68
15.5573	0.675
15.5981	0.666
15.639	0.659
15.6799	0.649
15.7208	0.639
15.7617	0.623
15.8025	0.608
15.8434	0.581
15.8843	0.548
15.9252	0.521
15.966	0.502
