Infrared Spectrum: 3-Chloro-4-methylbenzyl chloride
Formula: C 8 H 8 Cl 2
CAS: 2719-40-6
State: gas
Origin: EPA-IR VAPOR PHASE LIBRARY
1/CM	ABSORBANCE
549.8	0.001584
559.445	0.003664
569.09	0.002904
578.734	0.001794
588.379	0.0010704
598.024	0.0007387
607.669	0.0008922
617.313	0.0008582
626.958	0.0008693
636.603	0.001894
646.248	0.002694
655.893	0.002014
665.537	0.002404
675.182	0.004264
684.827	0.008814
694.472	0.009974
704.116	0.007794
713.761	0.010294
723.406	0.017474
733.051	0.021324
742.695	0.016044
752.34	0.011154
761.985	0.007514
771.63	0.005314
781.275	0.004124
790.919	0.004154
800.564	0.005654
810.209	0.008714
819.854	0.007294
829.498	0.003574
839.143	0.001754
848.788	0.001414
858.433	0.002064
868.078	0.002834
877.722	0.004094
887.367	0.004024
897.012	0.003774
906.657	0.003974
916.301	0.003934
925.946	0.003874
935.591	0.004224
945.236	0.004014
954.88	0.001944
964.525	0.001534
974.17	0.0012233
983.815	0.001764
993.46	0.001994
1003.1	0.002494
1012.75	0.002204
1022.39	0.003764
1032.04	0.007474
1041.68	0.015744
1051.33	0.027974
1060.97	0.020974
1070.62	0.006604
1080.26	0.003404
1089.91	0.002404
1099.55	0.002634
1109.2	0.002914
1118.84	0.002004
1128.49	0.002534
1138.13	0.002994
1147.78	0.003174
1157.42	0.002394
1167.07	0.002694
1176.71	0.002174
1186.36	0.002284
1196	0.002984
1205.64	0.004424
1215.29	0.004284
1224.93	0.003244
1234.58	0.002904
1244.22	0.005134
1253.87	0.009554
1263.51	0.015694
1273.16	0.014374
1282.8	0.009274
1292.45	0.006764
1302.09	0.003044
1311.74	0.001844
1321.38	0.001344
1331.03	0.0011348
1340.67	0.0010544
1350.32	0.0012042
1359.96	0.001484
1369.61	0.002084
1379.25	0.003794
1388.9	0.005804
1398.54	0.006534
1408.18	0.005924
1417.83	0.004784
1427.47	0.005084
1437.12	0.006764
1446.76	0.008564
1456.41	0.008294
1466.05	0.009664
1475.7	0.015374
1485.34	0.017004
1494.99	0.013194
1504.63	0.006884
1514.28	0.003344
1523.92	0.002374
1533.57	0.001974
1543.21	0.002104
1552.86	0.002514
1562.5	0.003264
1572.15	0.003634
1581.79	0.003224
1591.44	0.002624
1601.08	0.002754
1610.73	0.002654
1620.37	0.001814
1630.01	0.0011988
1639.66	0.001081
1649.3	0.0007848
1658.95	0.0006916
1668.59	0.0006637
1678.24	0.0005756
1687.88	0.0006321
1697.53	0.0006521
1707.17	0.0006143
1716.82	0.0007123
1726.46	0.0007568
1736.11	0.0008809
1745.75	0.0011556
1755.4	0.001364
1765.04	0.0010531
1774.69	0.0008023
1784.33	0.0006655
1793.98	0.0005118
1803.62	0.0005003
1813.27	0.0004951
1822.91	0.0004057
1832.55	0.0004527
1842.2	0.0004121
1851.84	0.0004447
1861.49	0.0006341
1871.13	0.0007398
1880.78	0.001119
1890.42	0.001222
1900.07	0.0007836
1909.71	0.0005829
1919.36	0.0004201
1929	0.0003716
1938.65	0.00031464
1948.29	0.00030968
1957.94	0.0003831
1967.58	0.000249175
1977.23	0.00029859
1986.87	0.00030098
1996.52	0.000246729
2006.16	0.00029564
2015.81	0.00026556
2025.45	0.00031942
2035.1	0.0002916
2044.74	0.00031677
2054.38	0.00027365
2064.03	0.000244363
2073.67	0.00031063
2083.32	0.0003051
2092.96	0.00028449
2102.61	0.00034101
2112.25	0.000228
2121.9	0.00030264
2131.54	0.0002255
2141.19	0.0003635
2150.83	0.00027461
2160.48	0.00027911
2170.12	0.0001693
2179.77	0.0003103
2189.41	0.00026956
2199.06	0.00028459
2208.7	0.00031009
2218.35	0.00033193
2227.99	0.0001963
2237.64	0.00023954
2247.28	0.000219
2256.92	0.0002558
2266.57	0.00029643
2276.21	0.0002231
2285.86	0.000372
2295.5	0.0003863
2305.15	0.0004727
2314.79	0.0004209
2324.44	0.00029761
2334.08	0.0004046
2343.73	0.0005388
2353.37	0.0004047
2363.02	0.0003698
2372.66	0.0003866
2382.31	0.0003385
2391.95	0.0004006
2401.6	0.000366
2411.24	0.0004058
2420.89	0.0003276
2430.53	0.000439
2440.18	0.00028866
2449.82	0.00031154
2459.47	0.00031363
2469.11	0.00032964
2478.75	0.000263
2488.4	0.0002932
2498.04	0.000244923
2507.69	0.00033239
2517.33	0.000366
2526.98	0.0003627
2536.62	0.000383
2546.27	0.0003807
2555.91	0.00030185
2565.56	0.0003595
2575.2	0.00029563
2584.85	0.00029998
2594.49	0.00025908
2604.14	0.0002266
2613.78	0.000466
2623.43	0.0004033
2633.07	0.0003547
2642.72	0.00027491
2652.36	0.0003587
2662.01	0.000169
2671.65	0.0003767
2681.29	0.0003948
2690.94	0.00032851
2700.58	0.0003794
2710.23	0.0005622
2719.87	0.0005469
2729.52	0.0003989
2739.16	0.0005546
2748.81	0.000623
2758.45	0.0005782
2768.1	0.0005277
2777.74	0.0003458
2787.39	0.0004213
2797.03	0.0005028
2806.68	0.0005613
2816.32	0.0005295
2825.97	0.0007899
2835.61	0.0009375
2845.26	0.0012299
2854.9	0.001894
2864.55	0.002554
2874.19	0.003134
2883.84	0.003034
2893.48	0.002764
2903.12	0.002714
2912.77	0.003214
2922.41	0.004424
2932.06	0.007194
2941.7	0.008574
2951.35	0.007234
2960.99	0.007894
2970.64	0.009094
2980.28	0.007804
2989.93	0.006564
2999.57	0.005784
3009.22	0.005404
3018.86	0.005454
3028.51	0.005754
3038.15	0.005254
3047.8	0.004694
3057.44	0.004484
3067.09	0.004064
3076.73	0.003204
3086.38	0.002394
3096.02	0.001844
3105.67	0.001614
3115.31	0.0010481
3124.95	0.0006625
3134.6	0.0005936
3144.24	0.0006594
3153.89	0.0003845
3163.53	0.0004698
3173.18	0.0004161
3182.82	0.0004103
3192.47	0.000248576
3202.11	0.000369
3211.76	0.0004326
3221.4	0.0002244
3231.05	0.00027903
3240.69	0.00027408
3250.34	0.0001848
3259.98	0.0001578
3269.63	7.1e-05
3279.27	0.0001558
3288.92	0.00025523
3298.56	0.0003857
3308.21	0.00029028
3317.85	4.6e-05
3327.49	0.0003522
3337.14	0.00029316
3346.78	0.0001925
3356.43	0.0001934
3366.07	0.00027318
3375.72	0.000133
3385.36	0.0004368
3395.01	0.0004718
3404.65	0.0001546
3414.3	0.0001906
3423.94	0.000232
3433.59	0.00027764
3443.23	0.0002233
3452.88	0.0005603
3462.52	0.00032522
3472.17	0.0004467
3481.81	0.0002195
3491.46	0.0001806
3501.1	0.00028762
3510.75	0.00030881
3520.39	0.0001633
3530.04	0.0001725
3539.68	0.00030956
3549.32	0.0005361
3558.97	0.000118
3568.61	0.00034355
3578.26	0.000236
3587.9	0.00025621
3597.55	0.0002696
3607.19	0.0002213
3616.84	0
3626.48	0.0002878
3636.13	0.0005733
3645.77	0.0002209
3655.42	0.00039
3665.06	7.3e-05
3674.71	0.0003568
3684.35	0.00026779
3694	0.0004083
3703.64	0.000248788
3713.29	0.00031904
3722.93	0.00031217
3732.58	0.0003933
3742.22	0.00022
3751.86	0.0004561
3761.51	0.00030664
3771.15	0.00027603
3780.8	0.0003805
3790.44	0.0004724
3800.09	0.0003617
3809.73	0.000506
3819.38	0.0004898
3829.02	0.00025971
3838.67	0.0005604
3848.31	0.000364
3857.96	0.0004749
3867.6	0.0004313
3877.25	0.00026605
3886.89	0.0004299
3896.54	0.0004558
3906.18	0.00025946
3915.83	0.0003831
3925.47	0.0002201
3935.12	0.0005209
3944.76	5.9e-05
3954.41	0.000583
3964.05	0.00027664
3973.69	0.0004152
3983.34	0.0004338
3992.98	0.0003477
