Infrared Spectrum: 4-Acetamidoacetophenone
Formula: C 10 H 11 N O 2
CAS: 2719-21-3
State: gas
Origin: EPA-IR VAPOR PHASE LIBRARY
1/CM	ABSORBANCE
551.7	0.00197
563.274	0.00177
574.848	0.002
586.421	0.00261
597.995	0.00277
609.569	0.00368
621.143	0.00417
632.717	0.00268
644.291	0.00196
655.864	0.00154
667.438	0.0014
679.012	0.00127
690.586	0.0012
702.16	0.00125
713.734	0.00124
725.307	0.0012
736.881	0.00113
748.455	0.00122
760.029	0.00113
771.603	0.0012
783.177	0.0013
794.75	0.00154
806.324	0.00195
817.898	0.00248
829.472	0.00336
841.046	0.00344
852.619	0.00228
864.193	0.00156
875.767	0.00138
887.341	0.00132
898.915	0.00132
910.489	0.00136
922.062	0.00137
933.636	0.00178
945.21	0.00283
956.784	0.00362
968.358	0.00249
979.932	0.00253
991.505	0.00287
1003.08	0.00243
1014.65	0.00228
1026.23	0.00176
1037.8	0.00162
1049.37	0.00181
1060.95	0.00184
1072.52	0.00188
1084.1	0.00175
1095.67	0.00164
1107.24	0.00166
1118.82	0.00178
1130.39	0.00164
1141.97	0.00145
1153.54	0.00168
1165.11	0.00253
1176.69	0.00795
1188.26	0.00574
1199.83	0.00474
1211.41	0.00749
1222.98	0.0089
1234.56	0.01077
1246.13	0.01313
1257.7	0.01828
1269.28	0.01313
1280.85	0.00699
1292.42	0.00816
1304	0.00999
1315.57	0.00659
1327.15	0.00333
1338.72	0.00341
1350.29	0.00498
1361.87	0.00842
1373.44	0.00766
1385.02	0.00629
1396.59	0.00781
1408.16	0.00695
1419.74	0.00411
1431.31	0.00339
1442.88	0.0034
1454.46	0.0038
1466.03	0.00487
1477.61	0.00811
1489.18	0.01365
1500.75	0.01484
1512.33	0.01651
1523.9	0.00925
1535.48	0.00445
1547.05	0.00316
1558.62	0.00286
1570.2	0.00337
1581.77	0.00564
1593.34	0.00996
1604.92	0.01152
1616.49	0.00482
1628.07	0.00261
1639.64	0.00229
1651.21	0.00237
1662.79	0.00275
1674.36	0.00338
1685.93	0.00616
1697.51	0.01511
1709.08	0.01337
1720.66	0.01223
1732.23	0.01456
1743.8	0.00941
1755.38	0.0042
1766.95	0.00287
1778.53	0.00221
1790.1	0.00178
1801.67	0.00149
1813.25	0.00128
1824.82	0.00122
1836.39	0.00118
1847.97	0.00118
1859.54	0.0012
1871.12	0.00122
1882.69	0.00117
1894.26	0.00116
1905.84	0.00115
1917.41	0.0011
1928.99	0.00102
1940.56	0.0009714
1952.13	0.0009542
1963.71	0.00094
1975.28	0.0009265
1986.85	0.0009032
1998.43	0.0008929
2010	0.0009006
2021.58	0.0008544
2033.15	0.0008321
2044.72	0.0007931
2056.3	0.0007389
2067.87	0.0007442
2079.44	0.0007013
2091.02	0.0006747
2102.59	0.0006566
2114.17	0.0006515
2125.74	0.000664
2137.31	0.0006653
2148.89	0.0006846
2160.46	0.000655
2172.04	0.0006114
2183.61	0.0005869
2195.18	0.0006192
2206.76	0.0005993
2218.33	0.000606
2229.9	0.0005863
2241.48	0.0005546
2253.05	0.0005503
2264.63	0.0005397
2276.2	0.0005509
2287.77	0.0005961
2299.35	0.0006413
2310.92	0.0006323
2322.5	0.0006265
2334.07	0.0006192
2345.64	0.0006225
2357.22	0.0006275
2368.79	0.0005506
2380.36	0.0005641
2391.94	0.0005744
2403.51	0.0005727
2415.09	0.0005943
2426.66	0.0006393
2438.23	0.0006624
2449.81	0.0006248
2461.38	0.0005855
2472.96	0.0006005
2484.53	0.0006129
2496.1	0.0006206
2507.68	0.0006461
2519.25	0.0006892
2530.82	0.0006767
2542.4	0.0006682
2553.97	0.0006594
2565.55	0.0006208
2577.12	0.0005822
2588.69	0.0006064
2600.27	0.0005712
2611.84	0.0005591
2623.41	0.000573
2634.99	0.0005427
2646.56	0.0005682
2658.14	0.0005779
2669.71	0.0005982
2681.28	0.0005641
2692.86	0.0005803
2704.43	0.0006168
2716.01	0.0006234
2727.58	0.0005652
2739.15	0.0005544
2750.73	0.0006168
2762.3	0.0005767
2773.87	0.0005862
2785.45	0.0005717
2797.02	0.0005915
2808.6	0.000555
2820.17	0.0006152
2831.74	0.0006365
2843.32	0.0006551
2854.89	0.0007351
2866.47	0.0007061
2878.04	0.000692
2889.61	0.0007606
2901.19	0.0008029
2912.76	0.0008976
2924.33	0.0009865
2935.91	0.0012
2947.48	0.0011
2959.06	0.00101
2970.63	0.00105
2982.2	0.00106
2993.78	0.00111
3005.35	0.00137
3016.92	0.0017
3028.5	0.00187
3040.07	0.00171
3051.65	0.00138
3063.22	0.00147
3074.79	0.00147
3086.37	0.00125
3097.94	0.00108
3109.52	0.00105
3121.09	0.0008604
3132.66	0.0007337
3144.24	0.0006758
3155.81	0.0006187
3167.38	0.0005951
3178.96	0.0005916
3190.53	0.0005917
3202.11	0.0005469
3213.68	0.000521
3225.25	0.0005884
3236.83	0.0005522
3248.4	0.0005608
3259.98	0.0004652
3271.55	0.0005403
3283.12	0.0005492
3294.7	0.0005495
3306.27	0.0004609
3317.84	0.000542
3329.42	0.0005731
3340.99	0.0005943
3352.57	0.0005699
3364.14	0.0006483
3375.71	0.0007243
3387.29	0.0008734
3398.86	0.0007564
3410.43	0.0008884
3422.01	0.0008566
3433.58	0.0009561
3445.16	0.00126
3456.73	0.00166
3468.3	0.00159
3479.88	0.00101
3491.45	0.0006886
3503.03	0.0006448
3514.6	0.0005557
3526.17	0.0005527
3537.75	0.0005477
3549.32	0.0005331
3560.89	0.0005247
3572.47	0.0005299
3584.04	0.0005452
3595.62	0.0005221
3607.19	0.0005628
3618.76	0.0005633
3630.34	0.0005139
3641.91	0.0006118
3653.49	0.0005955
3665.06	0.0006211
3676.63	0.0005768
3688.21	0.0005925
3699.78	0.0005693
3711.35	0.0005269
3722.93	0.0005248
3734.5	0.0004919
3746.08	0.0005087
3757.65	0.0005294
3769.22	0.0005306
3780.8	0.0004851
3792.37	0.0005277
3803.94	0.000509
3815.52	0.0004212
3827.09	0.0004302
3838.67	0.00041
3850.24	0.0004864
3861.81	0.0005534
3873.39	0.0004923
3884.96	0.0005722
3896.54	0.0005089
3908.11	0.0005798
3919.68	0.0005639
3931.26	0.0005155
3942.83	0.0005588
3954.4	0.0004285
3965.98	0.0005073
3977.55	0.0004815
3989.13	0.0005281
4000.7	0.0004991
