Infrared Spectrum: 2-Nitrophenyl isothiocyanate
Formula: C 7 H 4 N 2 O 2 S
CAS: 2719-30-4
State: gas
Origin: EPA-IR VAPOR PHASE LIBRARY
1/CM	ABSORBANCE
549.8	0.012561
559.445	0.013091
569.09	0.011921
578.734	0.010041
588.379	0.008701
598.024	0.006831
607.669	0.005771
617.313	0.004771
626.958	0.004041
636.603	0.004991
646.248	0.009601
655.893	0.011601
665.537	0.006751
675.182	0.005841
684.827	0.010531
694.472	0.014701
704.116	0.018651
713.761	0.025261
723.406	0.025511
733.051	0.042841
742.695	0.069471
752.34	0.035921
761.985	0.024971
771.63	0.031491
781.275	0.017031
790.919	0.005941
800.564	0.002521
810.209	0.002371
819.854	0.002791
829.498	0.005561
839.143	0.022111
848.788	0.033331
858.433	0.015601
868.078	0.004371
877.722	0.002191
887.367	0.002231
897.012	0.003451
906.657	0.004991
916.301	0.005921
925.946	0.008901
935.591	0.019391
945.236	0.036911
954.88	0.033631
964.525	0.016491
974.17	0.009051
983.815	0.005671
993.46	0.003461
1003.1	0.002281
1012.75	0.001771
1022.39	0.001951
1032.04	0.003391
1041.68	0.003551
1051.33	0.001621
1060.97	0.0010752
1070.62	0.001411
1080.26	0.001711
1089.91	0.002411
1099.55	0.002731
1109.2	0.002591
1118.84	0.001661
1128.49	0.002711
1138.13	0.004091
1147.78	0.005261
1157.42	0.006231
1167.07	0.005741
1176.71	0.003341
1186.36	0.003731
1196	0.002471
1205.64	0.002591
1215.29	0.003231
1224.93	0.003521
1234.58	0.005051
1244.22	0.008461
1253.87	0.016081
1263.51	0.024531
1273.16	0.024831
1282.8	0.015911
1292.45	0.012521
1302.09	0.014001
1311.74	0.014851
1321.38	0.018021
1331.03	0.031991
1340.67	0.068801
1350.32	0.101881
1359.96	0.072891
1369.61	0.025741
1379.25	0.012951
1388.9	0.008571
1398.54	0.006501
1408.18	0.006021
1417.83	0.005961
1427.47	0.006111
1437.12	0.006851
1446.76	0.007981
1456.41	0.010201
1466.05	0.018851
1475.7	0.039531
1485.34	0.051101
1494.99	0.034541
1504.63	0.029311
1514.28	0.040911
1523.92	0.060051
1533.57	0.094041
1543.21	0.140901
1552.86	0.124211
1562.5	0.079891
1572.15	0.070841
1581.79	0.068761
1591.44	0.082801
1601.08	0.127321
1610.73	0.106631
1620.37	0.040631
1630.01	0.016801
1639.66	0.010511
1649.3	0.007301
1658.95	0.005691
1668.59	0.004771
1678.24	0.004231
1687.88	0.004101
1697.53	0.003951
1707.17	0.003761
1716.82	0.004141
1726.46	0.004341
1736.11	0.003571
1745.75	0.003341
1755.4	0.003311
1765.04	0.003521
1774.69	0.004381
1784.33	0.004861
1793.98	0.004761
1803.62	0.005901
1813.27	0.006261
1822.91	0.005461
1832.55	0.005841
1842.2	0.006591
1851.84	0.006891
1861.49	0.007741
1871.13	0.009441
1880.78	0.011921
1890.42	0.015141
1900.07	0.017341
1909.71	0.019341
1919.36	0.023991
1929	0.029991
1938.65	0.037921
1948.29	0.051401
1957.94	0.068161
1967.58	0.087981
1977.23	0.117551
1986.87	0.157691
1996.52	0.209491
2006.16	0.276641
2015.81	0.361341
2025.45	0.463301
2035.1	0.559851
2044.74	0.592311
2054.38	0.517011
2064.03	0.397281
2073.67	0.323861
2083.32	0.311601
2092.96	0.300641
2102.61	0.250821
2112.25	0.185721
2121.9	0.139871
2131.54	0.118161
2141.19	0.104191
2150.83	0.085021
2160.48	0.062851
2170.12	0.044381
2179.77	0.032831
2189.41	0.027201
2199.06	0.025721
2208.7	0.025161
2218.35	0.023551
2227.99	0.020481
2237.64	0.018241
2247.28	0.019391
2256.92	0.020651
2266.57	0.017951
2276.21	0.013971
2285.86	0.011171
2295.5	0.009061
2305.15	0.008141
2314.79	0.007861
2324.44	0.007941
2334.08	0.007161
2343.73	0.006581
2353.37	0.006811
2363.02	0.007851
2372.66	0.007081
2382.31	0.005561
2391.95	0.004831
2401.6	0.004291
2411.24	0.004011
2420.89	0.003861
2430.53	0.003671
2440.18	0.003771
2449.82	0.003691
2459.47	0.003731
2469.11	0.003561
2478.75	0.003751
2488.4	0.004241
2498.04	0.004981
2507.69	0.005571
2517.33	0.006371
2526.98	0.007031
2536.62	0.007261
2546.27	0.007661
2555.91	0.008531
2565.56	0.009321
2575.2	0.009651
2584.85	0.008781
2594.49	0.007231
2604.14	0.005511
2613.78	0.003941
2623.43	0.003131
2633.07	0.002811
2642.72	0.002661
2652.36	0.002561
2662.01	0.002621
2671.65	0.002571
2681.29	0.002891
2690.94	0.003311
2700.58	0.003641
2710.23	0.003651
2719.87	0.004061
2729.52	0.004601
2739.16	0.005591
2748.81	0.006501
2758.45	0.006581
2768.1	0.006251
2777.74	0.005071
2787.39	0.003971
2797.03	0.003111
2806.68	0.002541
2816.32	0.002561
2825.97	0.002621
2835.61	0.002671
2845.26	0.002481
2854.9	0.002681
2864.55	0.003121
2874.19	0.003741
2883.84	0.004121
2893.48	0.003791
2903.12	0.003241
2912.77	0.002991
2922.41	0.002791
2932.06	0.002601
2941.7	0.002561
2951.35	0.002391
2960.99	0.002441
2970.64	0.002761
2980.28	0.003121
2989.93	0.003121
2999.57	0.003051
3009.22	0.002741
3018.86	0.002711
3028.51	0.002901
3038.15	0.003011
3047.8	0.003071
3057.44	0.003681
3067.09	0.005871
3076.73	0.010651
3086.38	0.011251
3096.02	0.005711
3105.67	0.002071
3115.31	0.0013363
3124.95	0.000945
3134.6	0.0007136
3144.24	0.0006528
3153.89	0.000400823
3163.53	0.0005749
3173.18	0.00043739
3182.82	0.00044238
3192.47	0.0003416
3202.11	0.0003757
3211.76	0.00042528
3221.4	0.000236
3231.05	0.0003472
3240.69	0.0003528
3250.34	3.2e-05
3259.98	0.000165
3269.63	0.000139
3279.27	0.000207
3288.92	0.0005774
3298.56	0.0003793
3308.21	0.0003741
3317.85	0.0003514
3327.49	0.0003615
3337.14	0.0003816
3346.78	0.0003666
3356.43	0.0003391
3366.07	0.0003069
3375.72	0.000251
3385.36	0.00047467
3395.01	0.0003853
3404.65	0.0003214
3414.3	0.000282
3423.94	0.0003805
3433.59	0.00042908
3443.23	0.0005528
3452.88	0.0003186
3462.52	0.00043874
3472.17	0.0006526
3481.81	0.0005183
3491.46	0.000405789
3501.1	0.0006476
3510.75	0.0005291
3520.39	0.000512
3530.04	0.00043736
3539.68	0.0005953
3549.32	0.00049994
3558.97	0.00049454
3568.61	0.000406421
3578.26	0.0006514
3587.9	0.0003155
3597.55	0.0005877
3607.19	0.0003657
3616.84	0.00049053
3626.48	0.00042231
3636.13	0.0003838
3645.77	0.00047108
3655.42	0.000276
3665.06	0.00046433
3674.71	0.0005041
3684.35	0.0006622
3694	0.0006388
3703.64	0.0008202
3713.29	0.0007086
3722.93	0.0007404
3732.58	0.0007672
3742.22	0.001066
3751.86	0.0010894
3761.51	0.0007493
3771.15	0.0006605
3780.8	0.0007722
3790.44	0.0007587
3800.09	0.0006981
3809.73	0.0009415
3819.38	0.0008018
3829.02	0.0006884
3838.67	0.0006965
3848.31	0.0009595
3857.96	0.000822
3867.6	0.0010912
3877.25	0.0007963
3886.89	0.0009545
3896.54	0.0009472
3906.18	0.0008571
3915.83	0.0011779
3925.47	0.0013436
3935.12	0.001411
3944.76	0.001581
3954.41	0.001501
3964.05	0.001661
3973.69	0.001701
3983.34	0.002041
3992.98	0.002211
