Infrared Spectrum: (1-Methybutyl)benzene
Formula: C 11 H 16
CAS: 2719-52-0
State: gas
Instrument: HP-GC/MS/IRD
Origin: NIST Mass Spectrometry Data Center
1/CM	ABSORBANCE
550	0.0025155
562	0.0011076
574	0.0004524
586	0.0002769
598	0.0002067
610	0.0001872
622	0.0001209
634	0.0001521
646	0.0003276
658	0.0009594
670	0.0015951
682	0.0042042
694	0.0130299
706	0.0110877
718	0.004017
730	0.0033384
742	0.0040248
754	0.0071994
766	0.005772
778	0.0014664
790	0.0006552
802	0.0003666
814	9.75e-05
826	0.0001053
838	0.0001755
850	0.000195
862	0.0001872
874	0.0002925
886	0.0003588
898	0.0007449
910	0.000975
922	0.0007332
934	0.0003627
946	0.0001755
958	0.0001989
970	0.0002457
982	0.0007722
994	0.0011817
1006	0.0009906
1018	0.0016848
1030	0.002067
1042	0.0009984
1054	0.0011388
1066	0.0015678
1078	0.0016146
1090	0.0013728
1102	0.0008775
1114	0.000624
1126	0.0004017
1138	0.0003627
1150	0.0001521
1162	7.02e-05
1174	2.73e-05
1186	8.19e-05
1198	7.8e-05
1210	0.0001404
1222	0.000234
1234	0.000351
1246	0.0003432
1258	0.000351
1270	0.0004407
1282	0.0005694
1294	0.0008307
1306	0.0009906
1318	0.0010296
1330	0.0010335
1342	0.0011193
1354	0.0017238
1366	0.0022503
1378	0.0033852
1390	0.0027924
1402	0.0012051
1414	0.000975
1426	0.0012207
1438	0.0026481
1450	0.0057213
1462	0.0062712
1474	0.0043368
1486	0.0049179
1498	0.0047424
1510	0.0015678
1522	0.0008697
1534	0.0007137
1546	0.0004641
1558	0.0004251
1570	0.000585
1582	0.0012363
1594	0.0026091
1606	0.0026442
1618	0.0008463
1630	0.0002886
1642	0.0002457
1654	0.0003393
1666	0.000351
1678	0.0001872
1690	0.0001482
1702	0.0001209
1714	0.0001716
1726	0.0002535
1738	0.0003549
1750	0.0002067
1762	0.0001248
1774	0.0002301
1786	0.0006318
1798	0.0007059
1810	0.0003315
1822	0.0001989
1834	0.0001404
1846	0.0002535
1858	0.0004836
1870	0.0006006
1882	0.0004797
1894	0.0002184
1906	0.0001482
1918	0.000273
1930	0.000624
1942	0.0007644
1954	0.0005577
1966	0.000156
1978	8.58e-05
1990	5.46e-05
2002	3.12e-05
2014	4.68e-05
2026	3.9e-05
2038	4.68e-05
2050	4.68e-05
2062	2.34e-05
2074	7.8e-06
2086	0
2098	1.56e-05
2110	1.95e-05
2122	0
2134	0
2146	0
2158	1.17e-05
2170	1.17e-05
2182	3.51e-05
2194	7.8e-06
2206	1.56e-05
2218	2.73e-05
2230	3.9e-05
2242	2.73e-05
2254	4.29e-05
2266	3.51e-05
2278	3.12e-05
2290	5.46e-05
2302	0.0001053
2314	0.0001326
2326	0.000117
2338	0.0001521
2350	0.000117
2362	0.0001326
2374	0.0001131
2386	0.0001248
2398	0.0001053
2410	0.0001014
2422	0.0001092
2434	0.0001092
2446	8.58e-05
2458	0.0001014
2470	0.000117
2482	9.75e-05
2494	9.75e-05
2506	0.0001209
2518	8.97e-05
2530	0.0001131
2542	0.0001404
2554	0.0001872
2566	0.0002496
2578	0.0002535
2590	0.0003003
2602	0.0003003
2614	0.0003042
2626	0.0003042
2638	0.0002886
2650	0.0002613
2662	0.0003042
2674	0.0003666
2686	0.00039
2698	0.0003861
2710	0.0003978
2722	0.0004992
2734	0.0006669
2746	0.0007371
2758	0.0007059
2770	0.0007371
2782	0.0008619
2794	0.0010569
2806	0.0013494
2818	0.001677
2830	0.0021567
2842	0.0032799
2854	0.0064077
2866	0.0100815
2878	0.0152217
2890	0.0154206
2902	0.0140829
2914	0.0185913
2926	0.0243984
2938	0.0261612
2950	0.0228618
2962	0.0347295
2974	0.0342069
2986	0.0119535
2998	0.0054561
3010	0.0051987
3022	0.0083148
3034	0.0108615
3046	0.0073827
3058	0.0072384
3070	0.0103545
3082	0.0080028
3094	0.0049842
3106	0.0030342
3118	0.0017589
3130	0.0010296
3142	0.0007722
3154	0.0007332
3166	0.0006513
3178	0.0005616
3190	0.0004836
3202	0.0004563
3214	0.0003198
3226	0.0002262
3238	0.0001716
3250	0.0001365
3262	0.0001443
3274	0.0001248
3286	9.75e-05
3298	0.0001053
3310	0.0001248
3322	0.0001014
3334	6.63e-05
3346	8.58e-05
3358	7.41e-05
3370	6.24e-05
3382	9.75e-05
3394	8.97e-05
3406	5.85e-05
3418	8.97e-05
3430	4.29e-05
3442	0.0001209
3454	0.0001092
3466	7.02e-05
3478	8.97e-05
3490	7.41e-05
3502	4.68e-05
3514	2.73e-05
3526	6.24e-05
3538	5.07e-05
3550	5.46e-05
3562	3.51e-05
3574	5.07e-05
3586	4.29e-05
3598	4.29e-05
3610	0.0001326
3622	9.75e-05
3634	0.0001404
3646	0.0001638
3658	0.0001365
3670	0.0001521
3682	0.0001599
3694	0.0001443
3706	0.0001326
3718	0.0001482
3730	0.0001443
3742	0.0001248
3754	0.0001248
3766	0.0001755
3778	0.0001638
3790	0.000195
3802	0.0002262
3814	0.0001521
3826	0.000117
3838	0.0001443
