Infrared Spectrum: Cyclohexanecarbonyl chloride
Formula: C 7 H 11 Cl O
CAS: 2719-27-9
State: gas
Origin: EPA-IR VAPOR PHASE LIBRARY
1/CM	ABSORBANCE
549.8	0.003034
559.445	0.002284
569.09	0.002404
578.734	0.003514
588.379	0.004454
598.024	0.006464
607.669	0.008134
617.313	0.009464
626.958	0.011434
636.603	0.010054
646.248	0.005984
655.893	0.004284
665.537	0.003684
675.182	0.003754
684.827	0.003994
694.472	0.005454
704.116	0.007094
713.761	0.011394
723.406	0.022404
733.051	0.054074
742.695	0.073084
752.34	0.044974
761.985	0.013294
771.63	0.009284
781.275	0.014104
790.919	0.020134
800.564	0.016314
810.209	0.006594
819.854	0.006214
829.498	0.011544
839.143	0.018474
848.788	0.017084
858.433	0.010204
868.078	0.008184
877.722	0.006614
887.367	0.006514
897.012	0.007194
906.657	0.007344
916.301	0.010804
925.946	0.017794
935.591	0.036224
945.236	0.064064
954.88	0.070884
964.525	0.041524
974.17	0.013174
983.815	0.006784
993.46	0.004774
1003.1	0.005714
1012.75	0.008314
1022.39	0.008914
1032.04	0.009994
1041.68	0.012474
1051.33	0.012374
1060.97	0.009674
1070.62	0.009704
1080.26	0.011724
1089.91	0.013894
1099.55	0.010794
1109.2	0.005544
1118.84	0.004234
1128.49	0.006244
1138.13	0.008404
1147.78	0.005814
1157.42	0.002804
1167.07	0.003134
1176.71	0.003124
1186.36	0.002844
1196	0.002444
1205.64	0.001634
1215.29	0.001624
1224.93	0.003324
1234.58	0.004544
1244.22	0.004474
1253.87	0.002904
1263.51	0.002134
1273.16	0.002264
1282.8	0.003624
1292.45	0.006284
1302.09	0.007014
1311.74	0.005304
1321.38	0.004584
1331.03	0.004074
1340.67	0.003374
1350.32	0.003314
1359.96	0.003484
1369.61	0.002524
1379.25	0.001494
1388.9	0.001254
1398.54	0.001354
1408.18	0.001614
1417.83	0.001824
1427.47	0.002794
1437.12	0.006724
1446.76	0.015884
1456.41	0.021094
1466.05	0.013234
1475.7	0.005604
1485.34	0.002434
1494.99	0.001464
1504.63	0.0009792
1514.28	0.0008271
1523.92	0.0007107
1533.57	0.0007551
1543.21	0.000718
1552.86	0.000757
1562.5	0.000735
1572.15	0.0007336
1581.79	0.000787
1591.44	0.0006922
1601.08	0.0007426
1610.73	0.0005506
1620.37	0.0006492
1630.01	0.0005496
1639.66	0.0007435
1649.3	0.0006692
1658.95	0.0005915
1668.59	0.000839
1678.24	0.0010424
1687.88	0.001304
1697.53	0.001614
1707.17	0.001804
1716.82	0.002254
1726.46	0.002924
1736.11	0.004334
1745.75	0.006414
1755.4	0.010264
1765.04	0.017184
1774.69	0.029274
1784.33	0.051744
1793.98	0.091034
1803.62	0.128904
1813.27	0.116514
1822.91	0.064974
1832.55	0.026714
1842.2	0.013014
1851.84	0.008004
1861.49	0.005444
1871.13	0.004474
1880.78	0.004084
1890.42	0.003864
1900.07	0.003534
1909.71	0.002934
1919.36	0.002144
1929	0.001574
1938.65	0.001264
1948.29	0.001204
1957.94	0.001224
1967.58	0.0011387
1977.23	0.001284
1986.87	0.001204
1996.52	0.0010028
2006.16	0.0008418
2015.81	0.0008372
2025.45	0.0007924
2035.1	0.000884
2044.74	0.0008359
2054.38	0.0009336
2064.03	0.001154
2073.67	0.001794
2083.32	0.003094
2092.96	0.005464
2102.61	0.008824
2112.25	0.012184
2121.9	0.012604
2131.54	0.008894
2141.19	0.003874
2150.83	0.001514
2160.48	0.0011399
2170.12	0.0009113
2179.77	0.0009306
2189.41	0.0008209
2199.06	0.0008523
2208.7	0.0008547
2218.35	0.0008372
2227.99	0.0008926
2237.64	0.0009363
2247.28	0.0010125
2256.92	0.0007873
2266.57	0.0006364
2276.21	0.000535
2285.86	0.000556
2295.5	0.0005036
2305.15	0.0006142
2314.79	0.00069
2324.44	0.0005964
2334.08	0.0006491
2343.73	0.000546
2353.37	0.0006299
2363.02	0.0006384
2372.66	0.0007558
2382.31	0.0006406
2391.95	0.0007885
2401.6	0.0006402
2411.24	0.0005827
2420.89	0.0004566
2430.53	0.0003737
2440.18	0.0004066
2449.82	0.0004049
2459.47	0.000347
2469.11	0.0004373
2478.75	0.0004983
2488.4	0.0003808
2498.04	0.0004489
2507.69	0.0005541
2517.33	0.0002906
2526.98	0.0004339
2536.62	0.0003834
2546.27	0.0004335
2555.91	0.0004493
2565.56	0.0003789
2575.2	0.0005512
2584.85	0.0005934
2594.49	0.0007025
2604.14	0.0007809
2613.78	0.0006777
2623.43	0.0007912
2633.07	0.0009876
2642.72	0.001047
2652.36	0.001394
2662.01	0.001814
2671.65	0.001964
2681.29	0.001504
2690.94	0.001324
2700.58	0.001284
2710.23	0.0008952
2719.87	0.0008227
2729.52	0.0009057
2739.16	0.0008037
2748.81	0.0008727
2758.45	0.0010407
2768.1	0.001214
2777.74	0.001534
2787.39	0.001744
2797.03	0.002334
2806.68	0.002414
2816.32	0.002694
2825.97	0.003244
2835.61	0.004684
2845.26	0.008874
2854.9	0.023254
2864.55	0.042714
2874.19	0.041064
2883.84	0.023464
2893.48	0.015504
2903.12	0.017714
2912.77	0.027714
2922.41	0.046934
2932.06	0.086914
2941.7	0.141044
2951.35	0.134414
2960.99	0.067154
2970.64	0.026014
2980.28	0.010014
2989.93	0.004314
2999.57	0.002524
3009.22	0.001514
3018.86	0.001224
3028.51	0.0011534
3038.15	0.001174
3047.8	0.0010994
3057.44	0.000786
3067.09	0.000548
3076.73	0.0005186
3086.38	0.0004733
3096.02	0.0005348
3105.67	0.0005408
3115.31	0.0004648
3124.95	0.0004527
3134.6	0.0004652
3144.24	0.0003593
3153.89	0.0005423
3163.53	0.0006669
3173.18	0.0005497
3182.82	0.0004746
3192.47	0.0004638
3202.11	0.000348
3211.76	0.0003522
3221.4	0.0002766
3231.05	0.000137
3240.69	0.0004523
3250.34	1.2e-05
3259.98	0.0003177
3269.63	0.0002931
3279.27	0.0004604
3288.92	0.0002164
3298.56	0.00018069
3308.21	0.000275
3317.85	0.00024437
3327.49	0.00019035
3337.14	0.0003451
3346.78	0.0002927
3356.43	0.0002065
3366.07	0.00022501
3375.72	0.0004935
3385.36	0.0003297
3395.01	0.00024624
3404.65	0.0003966
3414.3	0.00018178
3423.94	0.00023091
3433.59	0.0003519
3443.23	0.0002717
3452.88	0.0004705
3462.52	0.0004867
3472.17	0.0004762
3481.81	0.0004282
3491.46	0.0004025
3501.1	0.0003352
3510.75	0.0003599
3520.39	0.000523
3530.04	0.000536
3539.68	0.0006833
3549.32	0.0008247
3558.97	0.001164
3568.61	0.001494
3578.26	0.001844
3587.9	0.002224
3597.55	0.002034
3607.19	0.001454
3616.84	0.0011075
3626.48	0.0007089
3636.13	0.0004343
3645.77	0.0005691
3655.42	0.0002131
3665.06	0.0003875
3674.71	0.00024813
3684.35	0.0004279
3694	0.000375
3703.64	0.0005759
3713.29	0.0004303
3722.93	0.0003837
3732.58	0.00016463
3742.22	0.0004308
3751.86	0.0001113
3761.51	0.0004376
3771.15	0.0001813
3780.8	0.00017263
3790.44	0.000627
3800.09	0.0004041
3809.73	0.0002997
3819.38	0.0005385
3829.02	0.0004387
3838.67	0.00020794
3848.31	0.000349
3857.96	0.00020915
3867.6	0.0004461
3877.25	0.0003096
3886.89	0.0002633
3896.54	0.0003758
3906.18	0.00018441
3915.83	0.0004289
3925.47	0.00015111
3935.12	0.00024416
3944.76	0.0005736
3954.41	0.0005618
3964.05	0.0004585
3973.69	0.0003977
3983.34	0.0004622
3992.98	0.00017058
