Infrared Spectrum: ACETIC ACID, 2-(2,4-DINITROPHENYL) HYDRAZIDE
Formula: C8 H8 N4 O5
CAS: 2719-07-5
State: SOLID (MINERAL OIL MULL)
Class: COBLENTZ
Instrument: Not specified, most likely a prism, grating, or hybrid spectrometer.
Sampling: TRANSMISSION
Resolution: 4
Origin: DOW CHEMICAL COMPANY
MICROMETERS	TRANSMITTANCE
2.021	0.624
2.06201	0.631
2.10303	0.634
2.14404	0.643
2.18506	0.646
2.22607	0.65
2.26708	0.645
2.3081	0.646
2.34911	0.658
2.39012	0.665
2.43114	0.677
2.47215	0.684
2.51317	0.694
2.55418	0.697
2.59519	0.704
2.63621	0.713
2.67722	0.716
2.71824	0.728
2.75925	0.728
2.80026	0.72
2.84128	0.708
2.88229	0.709
2.9233	0.72
2.96432	0.675
3.00533	0.682
3.04635	0.708
3.08736	0.641
3.12837	0.539
3.16939	0.559
3.2104	0.578
3.25142	0.595
3.29243	0.576
3.33344	0.477
3.37446	0.156
3.41547	0.051
3.45648	0.139
3.4975	0.257
3.53851	0.658
3.57953	0.728
3.62054	0.755
3.66155	0.749
3.70257	0.757
3.74358	0.761
3.7846	0.769
3.82561	0.779
3.86662	0.791
3.90764	0.803
3.94865	0.808
3.98966	0.813
4.03068	0.819
4.07169	0.82
4.11271	0.825
4.15372	0.825
4.19473	0.822
4.23575	0.824
4.27676	0.839
4.31778	0.848
4.35879	0.849
4.3998	0.848
4.44082	0.86
4.48183	0.865
4.52284	0.865
4.56386	0.87
4.60487	0.872
4.64589	0.873
4.6869	0.875
4.72791	0.878
4.76893	0.878
4.80994	0.877
4.85096	0.877
4.89197	0.88
4.93298	0.882
4.974	0.883
5.01501	0.883
5.05602	0.883
5.09704	0.88
5.13805	0.887
5.17907	0.89
5.22008	0.892
5.26109	0.895
5.30211	0.899
5.34312	0.904
5.38413	0.909
5.42515	0.912
5.46616	0.912
5.50718	0.921
5.54819	0.928
5.5892	0.93
5.63022	0.921
5.67123	0.906
5.71225	0.883
5.75326	0.868
5.79427	0.865
5.83529	0.858
5.8763	0.819
5.91731	0.776
5.95833	0.665
5.99934	0.445
6.04036	0.491
6.08137	0.641
6.12238	0.505
6.1634	0.332
6.20441	0.534
6.24543	0.546
6.28644	0.535
6.32745	0.691
6.36847	0.726
6.40948	0.718
6.45049	0.716
6.49151	0.755
6.53252	0.708
6.57354	0.592
6.61455	0.546
6.65556	0.578
6.69658	0.511
6.73759	0.529
6.77861	0.426
6.81962	0.329
6.86063	0.401
6.90165	0.506
6.94266	0.558
6.98367	0.518
7.02469	0.58
7.0657	0.672
7.10672	0.715
7.14773	0.738
7.18874	0.633
7.22976	0.476
7.27077	0.421
7.31179	0.532
7.3528	0.619
7.39381	0.443
7.43483	0.293
7.47584	0.32
7.51685	0.392
7.55787	0.452
7.59888	0.412
7.6399	0.334
7.68091	0.351
7.72192	0.5
7.76294	0.491
7.80395	0.445
7.84497	0.481
7.88598	0.539
7.92699	0.576
7.96801	0.6
8.00902	0.595
8.05003	0.59
8.09105	0.631
8.13206	0.682
8.17308	0.704
8.21409	0.725
8.2551	0.745
8.29612	0.755
8.33713	0.767
8.37815	0.776
8.41916	0.779
8.46017	0.75
8.50119	0.745
8.5422	0.783
8.58321	0.796
8.62423	0.747
8.66524	0.638
8.70626	0.546
8.74727	0.65
8.78828	0.72
8.8293	0.73
8.87031	0.697
8.91133	0.715
8.95234	0.735
8.99335	0.766
9.03437	0.793
9.07538	0.817
9.11639	0.831
9.15741	0.834
9.19842	0.843
9.23944	0.848
9.28045	0.843
9.32146	0.829
9.36248	0.771
9.40349	0.701
9.44451	0.745
9.48552	0.81
9.52653	0.822
9.56755	0.822
9.60856	0.808
9.64957	0.781
9.69059	0.778
9.7316	0.808
9.77262	0.829
9.81363	0.831
9.85464	0.805
9.89566	0.738
9.93667	0.684
9.97769	0.733
10.0187	0.771
10.0597	0.79
10.1007	0.822
10.1417	0.832
10.1828	0.837
10.2238	0.846
10.2648	0.853
10.3058	0.858
10.3468	0.861
10.3878	0.87
10.4288	0.872
10.4699	0.875
10.5109	0.878
10.5519	0.882
10.5929	0.885
10.6339	0.887
10.6749	0.887
10.7159	0.865
10.7569	0.829
10.798	0.839
10.839	0.877
10.88	0.831
10.921	0.725
10.962	0.754
11.003	0.863
11.044	0.885
11.0851	0.895
11.1261	0.901
11.1671	0.904
11.2081	0.906
11.2491	0.911
11.2901	0.916
11.3311	0.921
11.3722	0.924
11.4132	0.926
11.4542	0.931
11.4952	0.931
11.5362	0.93
11.5772	0.931
11.6182	0.93
11.6593	0.93
11.7003	0.928
11.7413	0.928
11.7823	0.923
11.8233	0.912
11.8643	0.877
11.9053	0.815
11.9463	0.725
11.9874	0.622
12.0284	0.633
12.0694	0.805
12.1104	0.863
12.1514	0.882
12.1924	0.892
12.2334	0.899
12.2745	0.902
12.3155	0.906
12.3565	0.909
12.3975	0.909
12.4385	0.911
12.4795	0.912
12.5205	0.912
12.5616	0.912
12.6026	0.911
12.6436	0.907
12.6846	0.904
12.7256	0.901
12.7666	0.897
12.8076	0.895
12.8487	0.89
12.8897	0.887
12.9307	0.883
12.9717	0.878
13.0127	0.872
13.0537	0.856
13.0947	0.841
13.1358	0.843
13.1768	0.858
13.2178	0.844
13.2588	0.824
13.2998	0.803
13.3408	0.755
13.3818	0.668
13.4228	0.575
13.4639	0.587
13.5049	0.668
13.5459	0.684
13.5869	0.674
13.6279	0.645
13.6689	0.604
13.7099	0.551
13.751	0.518
13.792	0.517
13.833	0.573
13.874	0.627
13.915	0.675
13.956	0.701
13.997	0.708
14.0381	0.703
14.0791	0.692
14.1201	0.68
14.1611	0.674
14.2021	0.67
14.2431	0.668
14.2841	0.668
14.3252	0.672
14.3662	0.677
14.4072	0.679
14.4482	0.672
14.4892	0.662
14.5302	0.651
14.5712	0.646
14.6122	0.643
14.6533	0.645
14.6943	0.65
14.7353	0.655
14.7763	0.655
14.8173	0.653
14.8583	0.648
14.8993	0.639
14.9404	0.633
14.9814	0.629
15.0224	0.622
15.0634	0.614
15.1044	0.607
15.1454	0.602
15.1864	0.597
15.2275	0.588
15.2685	0.581
15.3095	0.573
15.3505	0.563
15.3915	0.552
15.4325	0.539
15.4735	0.523
15.5146	0.517
15.5556	0.513
15.5966	0.511
15.6376	0.506
15.6786	0.503
15.7196	0.498
15.7606	0.491
15.8017	0.488
15.8427	0.479
