Infrared Spectrum: Octylphenol
Formula: C 14 H 22 O
CAS: 27193-28-8
State: gas
Origin: EPA-IR VAPOR PHASE LIBRARY
1/CM	ABSORBANCE
549.8	0.007673
559.445	0.008433
569.09	0.014093
578.734	0.017483
588.379	0.007563
598.024	0.002903
607.669	0.001993
617.313	0.001493
626.958	0.001603
636.603	0.002043
646.248	0.002903
655.893	0.004193
665.537	0.006463
675.182	0.003783
684.827	0.002813
694.472	0.002493
704.116	0.002013
713.761	0.001363
723.406	0.002463
733.051	0.003863
742.695	0.003393
752.34	0.002683
761.985	0.001953
771.63	0.003133
781.275	0.003923
790.919	0.007083
800.564	0.017943
810.209	0.028633
819.854	0.048403
829.498	0.054743
839.143	0.019683
848.788	0.008403
858.433	0.005033
868.078	0.004233
877.722	0.003893
887.367	0.002573
897.012	0.002523
906.657	0.003223
916.301	0.003983
925.946	0.003543
935.591	0.003263
945.236	0.003083
954.88	0.003203
964.525	0.004383
974.17	0.004863
983.815	0.003423
993.46	0.002533
1003.1	0.003753
1012.75	0.007953
1022.39	0.004883
1032.04	0.003273
1041.68	0.002793
1051.33	0.002353
1060.97	0.002653
1070.62	0.003733
1080.26	0.005233
1089.91	0.010973
1099.55	0.017533
1109.2	0.013503
1118.84	0.014783
1128.49	0.017593
1138.13	0.014023
1147.78	0.016013
1157.42	0.035063
1167.07	0.141143
1176.71	0.214853
1186.36	0.088393
1196	0.050113
1205.64	0.038953
1215.29	0.030343
1224.93	0.028413
1234.58	0.038923
1244.22	0.058743
1253.87	0.084523
1263.51	0.081883
1273.16	0.024463
1282.8	0.014703
1292.45	0.010723
1302.09	0.007373
1311.74	0.009423
1321.38	0.020723
1331.03	0.026903
1340.67	0.021103
1350.32	0.018193
1359.96	0.023843
1369.61	0.040683
1379.25	0.024463
1388.9	0.023803
1398.54	0.024313
1408.18	0.015753
1417.83	0.018023
1427.47	0.021653
1437.12	0.015533
1446.76	0.016983
1456.41	0.023263
1466.05	0.033813
1475.7	0.042533
1485.34	0.036363
1494.99	0.036993
1504.63	0.085323
1514.28	0.126373
1523.92	0.047403
1533.57	0.015423
1543.21	0.009343
1552.86	0.007433
1562.5	0.006453
1572.15	0.006683
1581.79	0.011413
1591.44	0.023033
1601.08	0.027973
1610.73	0.033263
1620.37	0.022193
1630.01	0.008973
1639.66	0.004953
1649.3	0.003583
1658.95	0.003043
1668.59	0.002383
1678.24	0.001943
1687.88	0.001683
1697.53	0.001493
1707.17	0.001503
1716.82	0.001713
1726.46	0.001863
1736.11	0.002183
1745.75	0.002793
1755.4	0.002333
1765.04	0.001623
1774.69	0.001333
1784.33	0.000959
1793.98	0.0008687
1803.62	0.0008444
1813.27	0.0009759
1822.91	0.001163
1832.55	0.001303
1842.2	0.001633
1851.84	0.002003
1861.49	0.002353
1871.13	0.002743
1880.78	0.002663
1890.42	0.001893
1900.07	0.001543
1909.71	0.001153
1919.36	0.0010056
1929	0.0008589
1938.65	0.0006865
1948.29	0.0006133
1957.94	0.000563
1967.58	0.0006345
1977.23	0.0008258
1986.87	0.0009778
1996.52	0.0009048
2006.16	0.0008973
2015.81	0.0009678
2025.45	0.0008661
2035.1	0.0006593
2044.74	0.0005136
2054.38	0.0008045
2064.03	0.001263
2073.67	0.001273
2083.32	0.0009261
2092.96	0.0009889
2102.61	0.0011198
2112.25	0.0007265
2121.9	0.00042
2131.54	0.0003623
2141.19	0.0003052
2150.83	0.0002964
2160.48	0.0003274
2170.12	0.0003314
2179.77	0.0004351
2189.41	0.0003727
2199.06	0.0003036
2208.7	0.0003291
2218.35	0.0003881
2227.99	0.0004328
2237.64	0.0004505
2247.28	0.0003501
2256.92	0.0004073
2266.57	0.0007811
2276.21	0.0008507
2285.86	0.000865
2295.5	0.0008713
2305.15	0.0007606
2314.79	0.0008471
2324.44	0.0009027
2334.08	0.0009697
2343.73	0.001183
2353.37	0.001283
2363.02	0.0010732
2372.66	0.0007711
2382.31	0.0009349
2391.95	0.0009351
2401.6	0.001091
2411.24	0.001453
2420.89	0.002253
2430.53	0.002893
2440.18	0.002353
2449.82	0.001383
2459.47	0.0011101
2469.11	0.0009252
2478.75	0.000916
2488.4	0.0009848
2498.04	0.0010599
2507.69	0.001233
2517.33	0.001343
2526.98	0.0010395
2536.62	0.0008927
2546.27	0.0007849
2555.91	0.0008263
2565.56	0.0008811
2575.2	0.0007969
2584.85	0.0009979
2594.49	0.001143
2604.14	0.001203
2613.78	0.0011143
2623.43	0.001133
2633.07	0.001223
2642.72	0.001493
2652.36	0.001903
2662.01	0.002183
2671.65	0.002103
2681.29	0.002303
2690.94	0.002103
2700.58	0.002113
2710.23	0.002513
2719.87	0.003043
2729.52	0.003213
2739.16	0.002983
2748.81	0.002633
2758.45	0.002883
2768.1	0.003053
2777.74	0.003323
2787.39	0.003683
2797.03	0.004283
2806.68	0.005153
2816.32	0.006503
2825.97	0.007683
2835.61	0.010533
2845.26	0.015063
2854.9	0.020123
2864.55	0.033393
2874.19	0.054783
2883.84	0.067553
2893.48	0.075913
2903.12	0.084873
2912.77	0.089883
2922.41	0.083613
2932.06	0.080893
2941.7	0.096443
2951.35	0.144523
2960.99	0.215333
2970.64	0.173263
2980.28	0.098023
2989.93	0.067953
2999.57	0.049763
3009.22	0.033503
3018.86	0.022733
3028.51	0.023863
3038.15	0.022783
3047.8	0.013463
3057.44	0.012633
3067.09	0.013913
3076.73	0.011793
3086.38	0.008013
3096.02	0.006703
3105.67	0.006733
3115.31	0.005513
3124.95	0.004123
3134.6	0.003033
3144.24	0.002673
3153.89	0.002213
3163.53	0.002013
3173.18	0.002143
3182.82	0.002373
3192.47	0.002453
3202.11	0.002373
3211.76	0.002023
3221.4	0.002043
3231.05	0.001963
3240.69	0.001763
3250.34	0.001413
3259.98	0.001263
3269.63	0.001193
3279.27	0.001054
3288.92	0.0009289
3298.56	0.0009851
3308.21	0.0008125
3317.85	0.0009921
3327.49	0.000878
3337.14	0.0007611
3346.78	0.001273
3356.43	0.001743
3366.07	0.001373
3375.72	0.001293
3385.36	0.001423
3395.01	0.0010286
3404.65	0.001193
3414.3	0.0009271
3423.94	0.0010208
3433.59	0.0009139
3443.23	0.000669
3452.88	0.0004639
3462.52	0.0006535
3472.17	0.0006118
3481.81	0.0007136
3491.46	0.0004579
3501.1	0.0006927
3510.75	0.0004153
3520.39	0.0001403
3530.04	0.00016153
3539.68	0.0002318
3549.32	0.0004236
3558.97	0.00013782
3568.61	0.0004598
3578.26	0.0004643
3587.9	0.000722
3597.55	0.0010035
3607.19	0.001163
3616.84	0.001813
3626.48	0.003693
3636.13	0.012283
3645.77	0.056083
3655.42	0.073833
3665.06	0.012723
3674.71	0.002553
3684.35	0.001533
3694	0.001213
3703.64	0.0010292
3713.29	0.0008426
3722.93	0.0007527
3732.58	0.000406
3742.22	0.0003664
3751.86	0.0008248
3761.51	0.0005223
3771.15	0.0004021
3780.8	0.0004286
3790.44	0.0006695
3800.09	0.0007558
3809.73	0.0007702
3819.38	0.0007157
3829.02	0.0006484
3838.67	0.0008852
3848.31	0.0009358
3857.96	0.0009658
3867.6	0.0009512
3877.25	0.0011173
3886.89	0.001223
3896.54	0.001173
3906.18	0.001393
3915.83	0.001363
3925.47	0.001143
3935.12	0.001043
3944.76	0.0011152
3954.41	0.001203
3964.05	0.0006755
3973.69	0.0004
3983.34	0.0004805
3992.98	0.0006277
