Infrared Spectrum: 5-Azabenzimidazole hemihydrate
Formula: C 6 H 5 N 3
CAS: 272-97-9
State: gas
Origin: EPA-IR VAPOR PHASE LIBRARY
1/CM	ABSORBANCE
549.8	0.0018409
559.445	0.0018017
569.09	0.0017696
578.734	0.00435
588.379	0.00525
598.024	0.0091
607.669	0.00607
617.313	0.00598
626.958	0.0052
636.603	0.00432
646.248	0.00296
655.893	0.00249
665.537	0.00278
675.182	0.0017387
684.827	0.001779
694.472	0.0019558
704.116	0.0016833
713.761	0.00142945
723.406	0.0014867
733.051	0.0016417
742.695	0.0013217
752.34	0.0014687
761.985	0.0018728
771.63	0.00441
781.275	0.00913
790.919	0.01217
800.564	0.0182
810.209	0.01242
819.854	0.01645
829.498	0.00896
839.143	0.00769
848.788	0.00778
858.433	0.01336
868.078	0.01849
877.722	0.01896
887.367	0.01821
897.012	0.01338
906.657	0.0102
916.301	0.00711
925.946	0.00467
935.591	0.00422
945.236	0.00596
954.88	0.00836
964.525	0.00869
974.17	0.00722
983.815	0.00483
993.46	0.00319
1003.1	0.00372
1012.75	0.00416
1022.39	0.00517
1032.04	0.00457
1041.68	0.00425
1051.33	0.00448
1060.97	0.00724
1070.62	0.0075
1080.26	0.00608
1089.91	0.00352
1099.55	0.0020724
1109.2	0.001009
1118.84	0.000796
1128.49	0.000534
1138.13	9e-05
1147.78	0.0018773
1157.42	0.0017712
1167.07	0.00521
1176.71	0.00612
1186.36	0.00531
1196	0.00251
1205.64	0.0017001
1215.29	0.00397
1224.93	0.00697
1234.58	0.011
1244.22	0.01377
1253.87	0.01843
1263.51	0.02382
1273.16	0.02181
1282.8	0.01201
1292.45	0.00437
1302.09	0.00341
1311.74	0.0057
1321.38	0.00883
1331.03	0.00865
1340.67	0.00623
1350.32	0.00574
1359.96	0.01146
1369.61	0.02391
1379.25	0.02789
1388.9	0.02334
1398.54	0.00997
1408.18	0.00496
1417.83	0.00504
1427.47	0.00813
1437.12	0.01418
1446.76	0.01726
1456.41	0.0162
1466.05	0.00953
1475.7	0.01001
1485.34	0.01268
1494.99	0.01352
1504.63	0.01044
1514.28	0.00649
1523.92	0.003
1533.57	0.0021342
1543.21	0.0023386
1552.86	0.00399
1562.5	0.00742
1572.15	0.01069
1581.79	0.01174
1591.44	0.01159
1601.08	0.01372
1610.73	0.015
1620.37	0.01161
1630.01	0.00522
1639.66	0.00266
1649.3	0.0024
1658.95	0.0023093
1668.59	0.0019694
1678.24	0.0021629
1687.88	0.00254
1697.53	0.00418
1707.17	0.00599
1716.82	0.00592
1726.46	0.00542
1736.11	0.00395
1745.75	0.003
1755.4	0.0021005
1765.04	0.0018922
1774.69	0.0019463
1784.33	0.0017651
1793.98	0.0017173
1803.62	0.0016503
1813.27	0.0017912
1822.91	0.001702
1832.55	0.0018224
1842.2	0.0019638
1851.84	0.0021557
1861.49	0.00259
1871.13	0.00238
1880.78	0.0021126
1890.42	0.0020447
1900.07	0.0022303
1909.71	0.0022359
1919.36	0.001919
1929	0.0016288
1938.65	0.001478
1948.29	0.0016445
1957.94	0.0015793
1967.58	0.0016291
1977.23	0.0016055
1986.87	0.0015117
1996.52	0.0014756
2006.16	0.0015293
2015.81	0.00137
2025.45	0.0014915
2035.1	0.0015475
2044.74	0.0017429
2054.38	0.0015502
2064.03	0.0015664
2073.67	0.001573
2083.32	0.0015499
2092.96	0.0015452
2102.61	0.001548
2112.25	0.0015776
2121.9	0.0015046
2131.54	0.0016332
2141.19	0.0015271
2150.83	0.0016573
2160.48	0.0017035
2170.12	0.0015569
2179.77	0.0017003
2189.41	0.0016356
2199.06	0.0017457
2208.7	0.0017863
2218.35	0.0017525
2227.99	0.0019154
2237.64	0.0017689
2247.28	0.0014701
2256.92	0.0015673
2266.57	0.001795
2276.21	0.0016224
2285.86	0.0018261
2295.5	0.0017427
2305.15	0.0020123
2314.79	0.0019302
2324.44	0.0018361
2334.08	0.0019519
2343.73	0.0020582
2353.37	0.0018637
2363.02	0.0018418
2372.66	0.0015566
2382.31	0.0016496
2391.95	0.0015223
2401.6	0.0017913
2411.24	0.0019456
2420.89	0.0020569
2430.53	0.0022922
2440.18	0.00252
2449.82	0.00253
2459.47	0.0023319
2469.11	0.0020594
2478.75	0.0021666
2488.4	0.00239
2498.04	0.00248
2507.69	0.00236
2517.33	0.0021954
2526.98	0.0021052
2536.62	0.0020765
2546.27	0.0022393
2555.91	0.0022724
2565.56	0.0023203
2575.2	0.0019961
2584.85	0.0017642
2594.49	0.0017671
2604.14	0.0018594
2613.78	0.0017403
2623.43	0.0018046
2633.07	0.0019538
2642.72	0.0019729
2652.36	0.0020589
2662.01	0.0022679
2671.65	0.0022718
2681.29	0.0019102
2690.94	0.0019251
2700.58	0.0021547
2710.23	0.0018661
2719.87	0.001913
2729.52	0.0018811
2739.16	0.0020293
2748.81	0.0020687
2758.45	0.0020783
2768.1	0.0018387
2777.74	0.0018632
2787.39	0.0018975
2797.03	0.0017073
2806.68	0.0016976
2816.32	0.0020236
2825.97	0.0018518
2835.61	0.0018813
2845.26	0.0018831
2854.9	0.0019021
2864.55	0.0018631
2874.19	0.0019602
2883.84	0.0020542
2893.48	0.0020693
2903.12	0.001997
2912.77	0.00202
2922.41	0.0022744
2932.06	0.0022604
2941.7	0.00217
2951.35	0.0022647
2960.99	0.0022241
2970.64	0.0021323
2980.28	0.0023047
2989.93	0.00268
2999.57	0.00394
3009.22	0.00602
3018.86	0.00724
3028.51	0.00894
3038.15	0.00965
3047.8	0.01088
3057.44	0.01144
3067.09	0.00979
3076.73	0.00809
3086.38	0.00642
3096.02	0.00526
3105.67	0.00374
3115.31	0.00331
3124.95	0.00285
3134.6	0.0027
3144.24	0.0021027
3153.89	0.0018425
3163.53	0.0021087
3173.18	0.0017918
3182.82	0.0017888
3192.47	0.00140982
3202.11	0.001545
3211.76	0.0018663
3221.4	0.0017844
3231.05	0.0015372
3240.69	0.001778
3250.34	0.0016227
3259.98	0.001916
3269.63	0.0015971
3279.27	0.0019341
3288.92	0.0017896
3298.56	0.0016396
3308.21	0.0017758
3317.85	0.0016978
3327.49	0.0018247
3337.14	0.001577
3346.78	0.0015687
3356.43	0.0015799
3366.07	0.0017581
3375.72	0.0013127
3385.36	0.0013237
3395.01	0.001189
3404.65	0.0016894
3414.3	0.0017902
3423.94	0.0020732
3433.59	0.0015494
3443.23	0.0021026
3452.88	0.0028
3462.52	0.00408
3472.17	0.00669
3481.81	0.01159
3491.46	0.01674
3501.1	0.02909
3510.75	0.02451
3520.39	0.02359
3530.04	0.00808
3539.68	0.00294
3549.32	0.0018856
3558.97	0.0012552
3568.61	0.0016733
3578.26	0.001234
3587.9	0.001102
3597.55	0.00138861
3607.19	0.001122
3616.84	0.00140257
3626.48	0.001091
3636.13	0.001039
3645.77	0.001187
3655.42	0.00123
3665.06	0.0012661
3674.71	0.001213
3684.35	0.001194
3694	0.001163
3703.64	0.0012632
3713.29	0.001081
3722.93	0.0012889
3732.58	0.0013138
3742.22	0.001114
3751.86	0.000989
3761.51	0.0014803
3771.15	0.001134
3780.8	0.001297
3790.44	0.00136421
3800.09	0.0012589
3809.73	0.00135299
3819.38	0.00143589
3829.02	0.00142935
3838.67	0.001171
3848.31	0.001302
3857.96	0.0015228
3867.6	0.001089
3877.25	0.001169
3886.89	0.0013087
3896.54	0.0016553
3906.18	0.0014939
3915.83	0.0016586
3925.47	0.0015695
3935.12	0.0016151
3944.76	0.0018348
3954.41	0.001153
3964.05	0.001185
3973.69	0.00135654
3983.34	0.0012941
3992.98	0.0012631
