Infrared Spectrum: O-CHLOROBENZALDEHYDE-2-P-CHLORO-PHENYL HYDRAZONE
Formula: C13 H10 Cl2 N2
CAS: 27241-93-6
State: SOLID (MINERAL OIL MULL)
Class: COBLENTZ
Instrument: Not specified, most likely a prism, grating, or hybrid spectrometer.
Sampling: TRANSMISSION
Resolution: 4
Origin: DOW CHEMICAL COMPANY
MICROMETERS	TRANSMITTANCE
2.021	0.397
2.06211	0.395
2.10323	0.395
2.14434	0.411
2.18545	0.418
2.22657	0.421
2.26768	0.421
2.30879	0.421
2.34991	0.43
2.39102	0.44
2.43213	0.452
2.47325	0.469
2.51436	0.482
2.55547	0.489
2.59659	0.498
2.6377	0.508
2.67881	0.513
2.71993	0.522
2.76104	0.527
2.80215	0.535
2.84327	0.542
2.88438	0.549
2.92549	0.552
2.96661	0.559
3.00772	0.549
3.04883	0.556
3.08994	0.571
3.13106	0.571
3.17217	0.569
3.21328	0.568
3.2544	0.556
3.29551	0.532
3.33662	0.447
3.37774	0.153
3.41885	0.018
3.45996	0.051
3.50108	0.066
3.54219	0.457
3.5833	0.614
3.62442	0.66
3.66553	0.656
3.70664	0.658
3.74776	0.665
3.78887	0.679
3.82998	0.687
3.8711	0.701
3.91221	0.715
3.95332	0.725
3.99444	0.74
4.03555	0.745
4.07666	0.747
4.11778	0.75
4.15889	0.752
4.2	0.752
4.24112	0.759
4.28223	0.771
4.32334	0.779
4.36446	0.779
4.40557	0.784
4.44668	0.79
4.4878	0.791
4.52891	0.795
4.57002	0.798
4.61114	0.805
4.65225	0.812
4.69336	0.812
4.73448	0.815
4.77559	0.819
4.8167	0.827
4.85782	0.829
4.89893	0.832
4.94004	0.839
4.98115	0.844
5.02227	0.849
5.06338	0.849
5.10449	0.849
5.14561	0.851
5.18672	0.858
5.22783	0.86
5.26895	0.86
5.31006	0.851
5.35117	0.851
5.39229	0.875
5.4334	0.873
5.47451	0.878
5.51563	0.877
5.55674	0.87
5.59785	0.88
5.63897	0.883
5.68008	0.883
5.72119	0.88
5.76231	0.887
5.80342	0.89
5.84453	0.885
5.88565	0.885
5.92676	0.894
5.96787	0.902
6.00899	0.911
6.0501	0.918
6.09121	0.924
6.13233	0.909
6.17344	0.883
6.21455	0.686
6.25567	0.595
6.29678	0.638
6.33789	0.639
6.37901	0.827
6.42012	0.699
6.46123	0.788
6.50235	0.841
6.54346	0.803
6.58457	0.626
6.62569	0.438
6.6668	0.604
6.70791	0.598
6.74903	0.423
6.79014	0.361
6.83125	0.203
6.87236	0.281
6.91348	0.423
6.95459	0.505
6.9957	0.624
7.03682	0.725
7.07793	0.72
7.11904	0.75
7.16016	0.783
7.20127	0.648
7.24238	0.506
7.2835	0.563
7.32461	0.703
7.36572	0.762
7.40684	0.73
7.44795	0.762
7.48906	0.827
7.53018	0.843
7.57129	0.841
7.6124	0.827
7.65352	0.822
7.69463	0.812
7.73574	0.767
7.77686	0.686
7.81797	0.65
7.85908	0.754
7.9002	0.708
7.94131	0.532
7.98242	0.302
8.02354	0.523
8.06465	0.728
8.10576	0.761
8.14688	0.802
8.18799	0.819
8.2291	0.824
8.27022	0.854
8.31133	0.866
8.35244	0.877
8.39356	0.88
8.43467	0.882
8.47578	0.854
8.5169	0.829
8.55801	0.827
8.59912	0.776
8.64024	0.641
8.68135	0.573
8.72246	0.605
8.76357	0.742
8.80469	0.822
8.8458	0.856
8.88691	0.844
8.92803	0.754
8.96914	0.761
9.01025	0.81
9.05137	0.843
9.09248	0.846
9.13359	0.769
9.17471	0.607
9.21582	0.627
9.25693	0.825
9.29805	0.858
9.33916	0.866
9.38027	0.866
9.42139	0.858
9.4625	0.781
9.50361	0.627
9.54473	0.725
9.58584	0.839
9.62695	0.827
9.66807	0.696
9.70918	0.752
9.75029	0.858
9.79141	0.873
9.83252	0.889
9.87363	0.894
9.91475	0.878
9.95586	0.872
9.99697	0.904
10.0381	0.912
10.0792	0.916
10.1203	0.916
10.1614	0.914
10.2025	0.909
10.2437	0.897
10.2848	0.904
10.3259	0.907
10.367	0.907
10.4081	0.911
10.4492	0.909
10.4903	0.885
10.5314	0.837
10.5726	0.841
10.6137	0.902
10.6548	0.912
10.6959	0.911
10.737	0.918
10.7781	0.918
10.8192	0.924
10.8604	0.928
10.9015	0.926
10.9426	0.926
10.9837	0.906
11.0248	0.822
11.0659	0.732
11.107	0.733
11.1481	0.834
11.1893	0.899
11.2304	0.921
11.2715	0.938
11.3126	0.95
11.3537	0.959
11.3948	0.965
11.4359	0.97
11.4771	0.974
11.5182	0.977
11.5593	0.979
11.6004	0.977
11.6415	0.976
11.6826	0.97
11.7237	0.969
11.7648	0.965
11.806	0.965
11.8471	0.955
11.8882	0.95
11.9293	0.95
11.9704	0.941
12.0115	0.93
12.0526	0.906
12.0937	0.822
12.1349	0.645
12.176	0.462
12.2171	0.412
12.2582	0.617
12.2993	0.762
12.3404	0.808
12.3815	0.79
12.4227	0.745
12.4638	0.844
12.5049	0.906
12.546	0.921
12.5871	0.93
12.6282	0.938
12.6693	0.938
12.7104	0.938
12.7516	0.938
12.7927	0.938
12.8338	0.936
12.8749	0.928
12.916	0.926
12.9571	0.926
12.9982	0.919
13.0394	0.916
13.0805	0.906
13.1216	0.894
13.1627	0.875
13.2038	0.837
13.2449	0.773
13.286	0.665
13.3271	0.592
13.3683	0.54
13.4094	0.443
13.4505	0.423
13.4916	0.597
13.5327	0.718
13.5738	0.75
13.6149	0.771
13.6561	0.776
13.6972	0.776
13.7383	0.766
13.7794	0.733
13.8205	0.675
13.8616	0.61
13.9027	0.598
13.9438	0.662
13.985	0.691
14.0261	0.67
14.0672	0.648
14.1083	0.674
14.1494	0.726
14.1905	0.754
14.2316	0.757
14.2728	0.757
14.3139	0.747
14.355	0.742
14.3961	0.742
14.4372	0.738
14.4783	0.73
14.5194	0.725
14.5605	0.715
14.6017	0.708
14.6428	0.703
14.6839	0.694
14.725	0.691
14.7661	0.689
14.8072	0.68
14.8483	0.674
14.8895	0.668
14.9306	0.663
14.9717	0.658
15.0128	0.648
15.0539	0.634
15.095	0.627
15.1361	0.622
15.1772	0.614
15.2184	0.602
15.2595	0.597
15.3006	0.587
15.3417	0.585
15.3828	0.578
15.4239	0.568
15.465	0.558
15.5061	0.549
15.5473	0.539
15.5884	0.532
15.6295	0.52
15.6706	0.511
15.7117	0.508
15.7528	0.505
15.7939	0.505
15.8351	0.503
15.8762	0.503
15.9173	0.501
15.9584	0.5
