Infrared Spectrum: 5-Pregnen-3Beta-ol, 16Alpha,17Alpha-epoxy-20-ethylenedioxy-, acetate
Formula: C25 H36 O5
CAS: 27255-57-8
State: SOLUTION (0.2 M CHCl3 FOR 2.5-15 MICRON) VS SOLVENT
Class: COBLENTZ
Instrument: PERKIN-ELMER 21 (GRATING)
Instrument parameters: FILTER AT ABOUT 10 MICRONS
Path length: 0.01 CM
Resolution: 2
Origin: ABBOTT LABORATORIES
1/CM	TRANSMITTANCE
778	0.9183
787	0.912
796	0.8976
805	0.8302
814	0.7699
823	0.8175
832	0.7479
841	0.7978
850	0.7573
859	0.7713
868	0.649
877	0.5286
886	0.6085
895	0.7361
904	0.6935
913	0.8168
922	0.8257
931	0.7757
940	0.6602
949	0.5654
958	0.6483
967	0.7077
976	0.7194
985	0.7069
994	0.724
1003	0.6119
1012	0.4104
1021	0.2774
1030	0.2284
1039	0.2686
1048	0.3158
1057	0.5128
1066	0.6106
1075	0.6826
1084	0.743
1093	0.7396
1102	0.6827
1111	0.6444
1120	0.694
1129	0.6529
1138	0.6327
1147	0.6696
1156	0.6799
1165	0.6356
1174	0.6393
1183	0.5696
1192	0.4928
1201	0.3273
1210	0.2753
1219	0.224
1228	0.1735
1237	0.1237
1246	0.1101
1255	0.145
1264	0.3278
1273	0.5279
1282	0.6153
1291	0.7189
1300	0.7659
1309	0.794
1318	0.8144
1327	0.8057
1336	0.7825
1345	0.7585
1354	0.6485
1363	0.4343
1372	0.3291
1381	0.5017
1390	0.6802
1399	0.7492
1408	0.7737
1417	0.7712
1426	0.7456
1435	0.5997
1444	0.6464
1453	0.68
1462	0.6808
1471	0.7582
1480	0.8327
1489	0.8617
1498	0.8896
1507	0.9016
1516	0.9047
1525	0.9038
1534	0.9013
1543	0.8975
1552	0.8938
1561	0.8901
1570	0.8865
1579	0.8825
1588	0.8782
1597	0.8738
1606	0.8692
1615	0.8645
1624	0.8597
1633	0.8539
1642	0.8473
1651	0.8385
1660	0.8274
1669	0.8145
1678	0.7988
1687	0.7711
1696	0.7196
1705	0.5101
1714	0.271
1723	0.1508
1732	0.3002
1741	0.5152
1750	0.728
1759	0.8015
1768	0.8414
1777	0.857
1786	0.8669
1795	0.8789
1804	0.8861
1813	0.8907
1822	0.8974
1831	0.8976
1840	0.8976
1849	0.8977
1858	0.8978
1867	0.8978
1876	0.8979
1885	0.8979
1894	0.898
1903	0.8981
1912	0.8981
1921	0.8982
1930	0.8982
1939	0.8983
1948	0.8983
1957	0.8984
1966	0.8985
1975	0.8985
1984	0.8986
1993	0.8986
2002	0.8987
2011	0.8987
2020	0.8988
2029	0.8988
2038	0.8989
2047	0.8989
2056	0.899
2065	0.899
2074	0.8991
2083	0.8991
2092	0.8992
2101	0.8992
2110	0.8993
2119	0.8993
2128	0.8994
2137	0.8994
2146	0.8994
2155	0.8995
2164	0.9007
2173	0.902
2182	0.9037
2191	0.9052
2200	0.9064
2209	0.9076
2218	0.9087
2227	0.9097
2236	0.9107
2245	0.9117
2254	0.9127
2263	0.9135
2272	0.914
2281	0.9145
2290	0.915
2299	0.9161
2308	0.9171
2317	0.9182
2326	0.9192
2335	0.9202
2344	0.9205
2353	0.9197
2362	0.9175
2371	0.9147
2380	0.9117
2389	0.9084
2398	0.9044
2407	0.8993
2416	0.8955
2425	0.8937
2434	0.8943
2443	0.8954
2452	0.8968
2461	0.8984
2470	0.8996
2479	0.9007
2488	0.9011
2497	0.9012
2506	0.9012
2515	0.9011
2524	0.9005
2533	0.8998
2542	0.8991
2551	0.8985
2560	0.8978
2569	0.8971
2578	0.8964
2587	0.8956
2596	0.8949
2605	0.8941
2614	0.8932
2623	0.8924
2632	0.8915
2641	0.8907
2650	0.89
2659	0.8892
2668	0.8885
2677	0.8877
2686	0.8871
2695	0.8865
2704	0.8857
2713	0.8847
2722	0.8837
2731	0.8824
2740	0.8805
2749	0.8776
2758	0.8742
2767	0.87
2776	0.865
2785	0.8583
2794	0.8484
2803	0.8134
2812	0.7719
2821	0.7307
2830	0.6897
2839	0.649
2848	0.6086
2857	0.5684
2866	0.5301
2875	0.5046
2884	0.4737
2893	0.4431
2902	0.3964
2911	0.3748
2920	0.3498
2929	0.3353
2938	0.3335
2947	0.3642
2956	0.3935
2965	0.4194
2974	0.4689
2983	0.5186
2992	0.5681
3001	0.6173
3010	0.6661
3019	0.7147
3028	0.7642
3037	0.8019
3046	0.8622
3055	0.8755
3064	0.8834
3073	0.8879
3082	0.8913
3091	0.8938
3100	0.8958
3109	0.8965
3118	0.8972
3127	0.8979
3136	0.8984
3145	0.8989
3154	0.8993
3163	0.8998
3172	0.9002
3181	0.9006
3190	0.9006
3199	0.9005
3208	0.9004
3217	0.9003
3226	0.8984
3235	0.9001
3244	0.9
3253	0.9
3262	0.8999
3271	0.8999
3280	0.8998
3289	0.8997
3298	0.8997
3307	0.8995
3316	0.8995
3325	0.8994
3334	0.8993
3343	0.8992
3352	0.8992
3361	0.8991
3370	0.899
3379	0.899
3388	0.8989
3397	0.8988
3406	0.8988
3415	0.8987
3424	0.8987
3433	0.8986
3442	0.8985
3451	0.8985
3460	0.8984
3469	0.8983
3478	0.8983
3487	0.8983
3496	0.8983
3505	0.8983
3514	0.8983
3523	0.8983
3532	0.8983
3541	0.8983
3550	0.8983
3559	0.8983
3568	0.8983
3577	0.8983
3586	0.8983
3595	0.8985
3604	0.8986
3613	0.8987
3622	0.8987
3631	0.8989
3640	0.899
3649	0.899
3658	0.8991
3667	0.8993
3676	0.8993
3685	0.8994
3694	0.8995
3703	0.8995
3712	0.8996
3721	0.8997
3730	0.8998
3739	0.8998
3748	0.8999
3757	0.9
3766	0.9001
3775	0.9002
3784	0.9004
3793	0.9005
3802	0.9007
3811	0.9009
3820	0.9009
3829	0.9009
3838	0.9009
3847	0.9009
3856	0.9005
3865	0.9
3874	0.8992
3883	0.8979
3892	0.8965
3901	0.8955
3910	0.8947
3919	0.8944
3928	0.8944
3937	0.8944
3946	0.8945
3955	0.8946
3964	0.8947
3973	0.8947
3982	0.8948
3991	0.8949
4000	0.895
