Infrared Spectrum: Alpha,Alpha,Alpha,Alpha',Alpha',Alpha'-4-HEPTACHLORO-m-XYLENE
Formula: C8 H3 Cl7
CAS: 27260-64-6
State: SOLUTION (10% CCl4 FOR 5000-1330, 10% CS2 FOR 1330-625 CM^-^1)
Class: COBLENTZ
Instrument: Not specified, most likely a prism, grating, or hybrid spectrometer.
Sampling: TRANSMISSION
Path length: 0.0115 CM, 0.0120 CM
Resolution: 4
Origin: DOW CHEMICAL COMPANY
MICROMETERS	TRANSMITTANCE
2.014	0.892
2.05507	0.897
2.09615	0.897
2.13722	0.899
2.1783	0.897
2.21937	0.892
2.26045	0.892
2.30152	0.892
2.3426	0.895
2.38367	0.897
2.42475	0.897
2.46582	0.899
2.5069	0.907
2.54797	0.911
2.58905	0.912
2.63012	0.912
2.6712	0.911
2.71227	0.911
2.75335	0.909
2.79442	0.902
2.8355	0.902
2.87657	0.9
2.91765	0.897
2.95872	0.892
2.9998	0.892
3.04087	0.895
3.08195	0.897
3.12302	0.895
3.1641	0.895
3.20517	0.882
3.24625	0.878
3.28732	0.899
3.3284	0.902
3.36947	0.909
3.41055	0.912
3.45162	0.916
3.4927	0.912
3.53377	0.914
3.57485	0.911
3.61592	0.917
3.657	0.916
3.69807	0.919
3.73915	0.919
3.78022	0.917
3.8213	0.914
3.86237	0.917
3.90345	0.916
3.94452	0.912
3.9856	0.917
4.02667	0.919
4.06775	0.921
4.10882	0.921
4.1499	0.917
4.19097	0.917
4.23205	0.917
4.27312	0.909
4.3142	0.902
4.35527	0.9
4.39635	0.907
4.43742	0.914
4.4785	0.917
4.51957	0.917
4.56065	0.919
4.60172	0.917
4.6428	0.917
4.68387	0.921
4.72495	0.924
4.76602	0.926
4.8071	0.928
4.84817	0.929
4.88925	0.929
4.93032	0.928
4.9714	0.926
5.01247	0.921
5.05355	0.921
5.09462	0.931
5.1357	0.931
5.17677	0.929
5.21785	0.9
5.25892	0.909
5.3	0.929
5.34107	0.928
5.38215	0.912
5.42322	0.917
5.4643	0.926
5.50537	0.924
5.54645	0.897
5.58752	0.899
5.6286	0.919
5.66967	0.921
5.71075	0.919
5.75182	0.926
5.7929	0.933
5.83397	0.931
5.87505	0.928
5.91612	0.929
5.9572	0.919
5.99827	0.907
6.03935	0.902
6.08042	0.902
6.1215	0.892
6.16257	0.875
6.20364	0.834
6.24472	0.747
6.28579	0.629
6.32687	0.625
6.36794	0.586
6.40902	0.529
6.45009	0.499
6.49117	0.499
6.53224	0.62
6.57332	0.663
6.61439	0.707
6.65547	0.757
6.69654	0.762
6.73762	0.791
6.77869	0.762
6.81977	0.456
6.86084	0.646
6.90192	0.861
6.94299	0.888
6.98407	0.89
7.02514	0.876
7.06622	0.856
7.10729	0.846
7.14837	0.747
7.18944	0.552
7.23052	0.743
7.27159	0.861
7.31267	0.894
7.35374	0.9
7.39482	0.914
7.43589	0.916
7.47697	0.911
7.51804	0.911
7.55912	0.907
7.60019	0.916
7.64127	0.917
7.68234	0.907
7.72342	0.876
7.76449	0.817
7.80557	0.745
7.84664	0.757
7.88772	0.863
7.92879	0.887
7.96987	0.895
8.01094	0.895
8.05202	0.888
8.09309	0.88
8.13417	0.851
8.17524	0.805
8.21632	0.707
8.25739	0.635
8.29847	0.676
8.33954	0.817
8.38062	0.858
8.42169	0.87
8.46277	0.859
8.50384	0.806
8.54492	0.697
8.58599	0.517
8.62707	0.601
8.66814	0.728
8.70922	0.714
8.75029	0.765
8.79137	0.837
8.83244	0.859
8.87352	0.868
8.91459	0.87
8.95567	0.875
8.99674	0.875
9.03782	0.876
9.07889	0.875
9.11997	0.875
9.16104	0.871
9.20212	0.863
9.24319	0.858
9.28427	0.856
9.32534	0.846
9.36642	0.8
9.40749	0.705
9.44857	0.505
9.48964	0.241
9.53072	0.511
9.57179	0.728
9.61287	0.76
9.65394	0.777
9.69502	0.825
9.73609	0.864
9.77717	0.885
9.81824	0.89
9.85932	0.897
9.90039	0.897
9.94147	0.897
9.98254	0.892
10.0236	0.882
10.0647	0.868
10.1058	0.851
10.1468	0.817
10.1879	0.729
10.229	0.476
10.2701	0.23
10.3111	0.347
10.3522	0.6
10.3933	0.676
10.4344	0.765
10.4754	0.817
10.5165	0.856
10.5576	0.871
10.5987	0.885
10.6397	0.89
10.6808	0.89
10.7219	0.892
10.763	0.899
10.804	0.897
10.8451	0.892
10.8862	0.894
10.9273	0.894
10.9683	0.892
11.0094	0.883
11.0505	0.868
11.0916	0.851
11.1326	0.847
11.1737	0.852
11.2148	0.859
11.2559	0.851
11.2969	0.832
11.338	0.818
11.3791	0.806
11.4202	0.784
11.4612	0.767
11.5023	0.748
11.5434	0.723
11.5845	0.707
11.6255	0.697
11.6666	0.688
11.7077	0.68
11.7488	0.671
11.7898	0.656
11.8309	0.622
11.872	0.519
11.9131	0.348
11.9541	0.169
11.9952	0.133
12.0363	0.218
12.0774	0.357
12.1184	0.476
12.1595	0.502
12.2006	0.494
12.2417	0.447
12.2827	0.377
12.3238	0.338
12.3649	0.4
12.406	0.487
12.447	0.523
12.4881	0.526
12.5292	0.49
12.5703	0.417
12.6113	0.239
12.6524	0.112
12.6935	0.07
12.7346	0.128
12.7756	0.263
12.8167	0.316
12.8578	0.268
12.8989	0.17
12.9399	0.131
12.981	0.176
13.0221	0.249
13.0632	0.266
13.1042	0.2
13.1453	0.099
13.1864	0.022
13.2275	0.001
13.2685	0
13.3096	0.018
13.3507	0.051
13.3918	0.088
13.4328	0.121
13.4739	0.169
13.515	0.249
13.5561	0.358
13.5971	0.485
13.6382	0.557
13.6793	0.601
13.7204	0.642
13.7614	0.668
13.8025	0.697
13.8436	0.709
13.8847	0.719
13.9257	0.726
13.9668	0.728
14.0079	0.723
14.049	0.704
14.09	0.678
14.1311	0.611
14.1722	0.512
14.2133	0.394
14.2543	0.22
14.2954	0.162
14.3365	0.201
14.3776	0.331
14.4186	0.461
14.4597	0.509
14.5008	0.562
14.5419	0.594
14.5829	0.613
14.624	0.623
14.6651	0.629
14.7062	0.63
14.7472	0.63
14.7883	0.623
14.8294	0.615
14.8705	0.61
14.9115	0.6
14.9526	0.593
14.9937	0.588
15.0348	0.584
15.0758	0.574
15.1169	0.564
15.158	0.555
15.1991	0.543
15.2401	0.536
15.2812	0.528
15.3223	0.524
15.3634	0.519
15.4044	0.509
15.4455	0.5
15.4866	0.49
15.5277	0.471
15.5687	0.447
15.6098	0.401
15.6509	0.345
15.692	0.302
15.733	0.285
15.7741	0.28
15.8152	0.283
15.8563	0.294
15.8973	0.302
15.9384	0.288
