Infrared Spectrum: 3-Morpholinophenol
Formula: C 10 H 13 N O 2
CAS: 27292-49-5
State: gas
Origin: EPA-IR VAPOR PHASE LIBRARY
1/CM	ABSORBANCE
549.9	0.00671
559.547	0.00536
569.193	0.00516
578.84	0.00559
588.486	0.00633
598.133	0.0064
607.779	0.00616
617.426	0.00611
627.072	0.00681
636.719	0.01117
646.365	0.01698
656.012	0.01249
665.658	0.01284
675.305	0.02781
684.951	0.04196
694.598	0.02553
704.245	0.01362
713.891	0.01118
723.538	0.00985
733.184	0.01059
742.831	0.01975
752.477	0.035
762.124	0.03582
771.77	0.02135
781.417	0.01118
791.063	0.00822
800.71	0.00901
810.356	0.01385
820.003	0.02159
829.649	0.02874
839.296	0.03104
848.943	0.02354
858.589	0.01762
868.236	0.02022
877.882	0.02989
887.529	0.02914
897.175	0.01858
906.822	0.01576
916.468	0.01716
926.115	0.02079
935.761	0.01969
945.408	0.01849
955.054	0.03255
964.701	0.08484
974.347	0.14507
983.994	0.08314
993.64	0.06271
1003.29	0.04942
1012.93	0.01689
1022.58	0.01316
1032.23	0.01466
1041.87	0.01779
1051.52	0.01949
1061.17	0.02066
1070.81	0.02611
1080.46	0.03059
1090.11	0.03174
1099.75	0.04108
1109.4	0.0791
1119.05	0.13496
1128.69	0.14445
1138.34	0.11552
1147.99	0.11481
1157.63	0.17355
1167.28	0.21884
1176.92	0.25049
1186.57	0.21584
1196.22	0.12367
1205.86	0.08296
1215.51	0.05893
1225.16	0.03821
1234.8	0.03469
1244.45	0.05168
1254.1	0.09944
1263.74	0.11981
1273.39	0.07612
1283.04	0.04089
1292.68	0.04826
1302.33	0.06079
1311.98	0.04721
1321.62	0.03934
1331.27	0.04298
1340.92	0.04458
1350.56	0.03687
1360.21	0.03624
1369.86	0.0523
1379.5	0.05379
1389.15	0.027
1398.79	0.01788
1408.44	0.01671
1418.09	0.017
1427.73	0.0218
1437.38	0.03811
1447.03	0.07856
1456.67	0.09893
1466.32	0.06299
1475.97	0.05491
1485.61	0.09647
1495.26	0.14992
1504.91	0.11616
1514.55	0.05496
1524.2	0.03376
1533.85	0.02643
1543.49	0.02696
1553.14	0.03538
1562.79	0.05387
1572.43	0.08238
1582.08	0.12769
1591.73	0.17658
1601.37	0.20786
1611.02	0.19731
1620.67	0.14452
1630.31	0.06651
1639.96	0.03126
1649.6	0.02327
1659.25	0.01888
1668.9	0.01482
1678.54	0.0117
1688.19	0.01022
1697.84	0.00959
1707.48	0.00898
1717.13	0.00767
1726.78	0.00618
1736.42	0.00531
1746.07	0.0048
1755.72	0.0045144
1765.36	0.0044354
1775.01	0.00478
1784.66	0.00495
1794.3	0.0045931
1803.95	0.0043208
1813.6	0.0040792
1823.24	0.0037028
1832.89	0.003456
1842.54	0.003395
1852.18	0.003439
1861.83	0.00369786
1871.47	0.0043941
1881.12	0.00559
1890.77	0.00677
1900.41	0.00694
1910.06	0.00599
1919.71	0.00462
1929.35	0.0038954
1939	0.0037666
1948.65	0.0040409
1958.29	0.0041865
1967.94	0.0041984
1977.59	0.0040854
1987.23	0.0038948
1996.88	0.0040337
2006.53	0.0041687
2016.17	0.0040699
2025.82	0.0038553
2035.47	0.003747
2045.11	0.0039641
2054.76	0.0041526
2064.41	0.0037543
2074.05	0.003352
2083.7	0.003307
2093.35	0.003422
2102.99	0.003284
2112.64	0.003034
2122.28	0.003003
2131.93	0.00306
2141.58	0.003192
2151.22	0.003043
2160.87	0.002914
2170.52	0.002858
2180.16	0.002868
2189.81	0.002847
2199.46	0.002927
2209.1	0.003094
2218.75	0.003246
2228.4	0.003323
2238.04	0.003205
2247.69	0.002958
2257.34	0.002852
2266.98	0.00283
2276.63	0.002965
2286.28	0.003174
2295.92	0.003376
2305.57	0.00364381
2315.22	0.0039906
2324.86	0.0042648
2334.51	0.0042679
2344.16	0.0040957
2353.8	0.0038972
2363.45	0.0038806
2373.09	0.0039878
2382.74	0.003737
2392.39	0.00366197
2402.03	0.0039761
2411.68	0.0044832
2421.33	0.00478
2430.97	0.00473
2440.62	0.00462
2450.27	0.0043445
2459.91	0.0041807
2469.56	0.0041376
2479.21	0.0040416
2488.85	0.0039358
2498.5	0.0038119
2508.15	0.0038943
2517.79	0.0037375
2527.44	0.0035667
2537.09	0.003353
2546.73	0.003367
2556.38	0.0035387
2566.03	0.0037719
2575.67	0.0038591
2585.32	0.00371365
2594.96	0.0036401
2604.61	0.0037569
2614.26	0.0038121
2623.9	0.0038659
2633.55	0.0041795
2643.2	0.0045763
2652.84	0.00491
2662.49	0.0057
2672.14	0.00682
2681.78	0.00819
2691.43	0.00937
2701.08	0.00958
2710.72	0.00971
2720.37	0.00998
2730.02	0.0105
2739.66	0.01156
2749.31	0.01222
2758.96	0.01292
2768.6	0.01302
2778.25	0.01219
2787.9	0.01322
2797.54	0.0185
2807.19	0.02953
2816.84	0.05344
2826.48	0.08731
2836.13	0.08854
2845.77	0.07364
2855.42	0.09371
2865.07	0.10601
2874.71	0.06602
2884.36	0.04773
2894.01	0.04717
2903.65	0.04772
2913.3	0.0432
2922.95	0.03898
2932.59	0.0326
2942.24	0.0313
2951.89	0.04691
2961.53	0.09604
2971.18	0.13916
2980.83	0.08171
2990.47	0.03019
3000.12	0.0136
3009.77	0.00864
3019.41	0.0104
3029.06	0.01423
3038.71	0.01829
3048.35	0.02466
3058	0.02451
3067.64	0.01762
3077.29	0.01529
3086.94	0.01406
3096.58	0.01159
3106.23	0.00892
3115.88	0.00545
3125.52	0.00284
3135.17	0.00146
3144.82	0.00076
3154.46	0.00056
3164.11	0.0004
3173.76	0.00018
3183.4	0.0001
3193.05	0.0002
3202.7	0.00039
3212.34	0.00043
3221.99	0.00048
3231.64	0.00035
3241.28	0.00028
3250.93	0.00018
3260.58	0.00011
3270.22	2e-05
3279.87	0.00021
3289.52	0.00014
3299.16	0.00012
3308.81	0.00018
3318.45	0.00027
3328.1	0.00042
3337.75	0.00089
3347.39	0.00145
3357.04	0.00118
3366.69	0.00133
3376.33	0.00135
3385.98	0.00126
3395.63	0.0011
3405.27	0.00109
3414.92	0.00105
3424.57	0.00111
3434.21	0.00132
3443.86	0.00118
3453.51	0.00123
3463.15	0.00113
3472.8	0.00096
3482.45	0.00098
3492.09	0.00093
3501.74	0.00085
3511.39	0.00111
3521.03	0.00114
3530.68	0.00102
3540.33	0.00123
3549.97	0.00126
3559.62	0.00136
3569.26	0.00141
3578.91	0.00164
3588.56	0.00179
3598.2	0.00195
3607.85	0.00244
3617.5	0.0038247
3627.14	0.00787
3636.79	0.02431
3646.44	0.07435
3656.08	0.07844
3665.73	0.01835
3675.38	0.00486
3685.02	0.002788
3694.67	0.00216
3704.32	0.00182
3713.96	0.00174
3723.61	0.00173
3733.26	0.00166
3742.9	0.00161
3752.55	0.00174
3762.2	0.00181
3771.84	0.00175
3781.49	0.00197
3791.13	0.00179
3800.78	0.00194
3810.43	0.00203
3820.07	0.00202
3829.72	0.00209
3839.37	0.00221
3849.01	0.00223
3858.66	0.00227
3868.31	0.00235
3877.95	0.00256
3887.6	0.0023
3897.25	0.00238
3906.89	0.0025
3916.54	0.002677
3926.19	0.002652
3935.83	0.00256
3945.48	0.00262
3955.13	0.002685
3964.77	0.00257
3974.42	0.00254
3984.07	0.0025
3993.71	0.00253
