Infrared Spectrum: (-)-1-(4-Bromophenyl)ethylamine
Formula: C 8 H 10 Br N
CAS: 27298-97-1
State: gas
Origin: EPA-IR VAPOR PHASE LIBRARY
1/CM	ABSORBANCE
549.8	0.00796
559.445	0.00574
569.09	0.00318
578.734	0.0009
588.379	0.00212
598.024	0.00811
607.669	0.01256
617.313	0.01079
626.958	0.00903
636.603	0.01089
646.248	0.00878
655.893	0.0075
665.537	0.0082
675.182	0.00788
684.827	0.00734
694.472	0.00781
704.116	0.01019
713.761	0.0135
723.406	0.01372
733.051	0.01429
742.695	0.01529
752.34	0.02028
761.985	0.02444
771.63	0.02308
781.275	0.0255
790.919	0.02599
800.564	0.02709
810.209	0.03476
819.854	0.04648
829.498	0.03208
839.143	0.0217
848.788	0.01347
858.433	0.01045
868.078	0.00835
877.722	0.00674
887.367	0.00685
897.012	0.00831
906.657	0.00807
916.301	0.00716
925.946	0.0048156
935.591	0.0054685
945.236	0.005445
954.88	0.0053969
964.525	0.00641
974.17	0.0057
983.815	0.00777
993.46	0.0092
1003.1	0.02444
1012.75	0.04016
1022.39	0.01219
1032.04	0.00826
1041.68	0.00833
1051.33	0.00876
1060.97	0.01311
1070.62	0.03008
1080.26	0.02947
1089.91	0.02119
1099.55	0.01847
1109.2	0.0115
1118.84	0.00897
1128.49	0.00631
1138.13	0.00316
1147.78	0.00671
1157.42	0.0050011
1167.07	0.0056666
1176.71	0.00606
1186.36	0.003807
1196	0.00603
1205.64	0.00642
1215.29	0.00721
1224.93	0.01056
1234.58	0.0054774
1244.22	0.00889
1253.87	0.00761
1263.51	0.0055016
1273.16	0.00592
1282.8	0.00788
1292.45	0.01002
1302.09	0.00991
1311.74	0.00879
1321.38	0.00998
1331.03	0.0114
1340.67	0.01108
1350.32	0.01208
1359.96	0.01319
1369.61	0.01383
1379.25	0.01337
1388.9	0.012
1398.54	0.01279
1408.18	0.01263
1417.83	0.01037
1427.47	0.00815
1437.12	0.00841
1446.76	0.00903
1456.41	0.01154
1466.05	0.01213
1475.7	0.018
1485.34	0.04016
1494.99	0.03424
1504.63	0.00994
1514.28	0.00639
1523.92	0.00658
1533.57	0.0056748
1543.21	0.00589
1552.86	0.00606
1562.5	0.00738
1572.15	0.00798
1581.79	0.01037
1591.44	0.01376
1601.08	0.01258
1610.73	0.0123
1620.37	0.01393
1630.01	0.01243
1639.66	0.0106
1649.3	0.00892
1658.95	0.00629
1668.59	0.0053978
1678.24	0.0050942
1687.88	0.00488
1697.53	0.0048253
1707.17	0.004249
1716.82	0.004292
1726.46	0.0046345
1736.11	0.003897
1745.75	0.00344
1755.4	0.0048029
1765.04	0.0049779
1774.69	0.00467371
1784.33	0.003853
1793.98	0.004106
1803.62	0.00334
1813.27	0.00359
1822.91	0.004107
1832.55	0.00336
1842.2	0.00368
1851.84	0.00366
1861.49	0.00356
1871.13	0.004559
1880.78	0.004543
1890.42	0.0054477
1900.07	0.0046637
1909.71	0.00475025
1919.36	0.003777
1929	0.0034
1938.65	0.00364
1948.29	0.00306
1957.94	0.003806
1967.58	0.00351
1977.23	0.003798
1986.87	0.00348
1996.52	0.00313
2006.16	0.00334
2015.81	0.00344
2025.45	0.00303
2035.1	0.00348
2044.74	0.00362
2054.38	0.0032
2064.03	0.00343
2073.67	0.00345
2083.32	0.00329
2092.96	0.00308
2102.61	0.00281
2112.25	0.00333
2121.9	0.003704
2131.54	0.004015
2141.19	0.00283
2150.83	0.00322
2160.48	0.00274
2170.12	0.00327
2179.77	0.00363
2189.41	0.0032
2199.06	0.00275
2208.7	0.00271
2218.35	0.00253
2227.99	0.00318
2237.64	0.00302
2247.28	0.003958
2256.92	0.00334
2266.57	0.00291
2276.21	0.004454
2285.86	0.00347
2295.5	0.003904
2305.15	0.00322
2314.79	0.003719
2324.44	0.00333
2334.08	0.00293
2343.73	0.00365
2353.37	0.003933
2363.02	0.00299
2372.66	0.00301
2382.31	0.003686
2391.95	0.00319
2401.6	0.00296
2411.24	0.004303
2420.89	0.004461
2430.53	0.00354
2440.18	0.00311
2449.82	0.004025
2459.47	0.00263
2469.11	0.00335
2478.75	0.0028
2488.4	0.00309
2498.04	0.003912
2507.69	0.00346
2517.33	0.003869
2526.98	0.004097
2536.62	0.00349
2546.27	0.00367
2555.91	0.00303
2565.56	0.00323
2575.2	0.00367
2584.85	0.003814
2594.49	0.00346
2604.14	0.00318
2613.78	0.004164
2623.43	0.00348
2633.07	0.00318
2642.72	0.00267
2652.36	0.00258
2662.01	0.00292
2671.65	0.00271
2681.29	0.00319
2690.94	0.003779
2700.58	0.00319
2710.23	0.00251
2719.87	0.003945
2729.52	0.003716
2739.16	0.0049548
2748.81	0.003798
2758.45	0.00309
2768.1	0.0048401
2777.74	0.004057
2787.39	0.004197
2797.03	0.004405
2806.68	0.00473768
2816.32	0.0046023
2825.97	0.00699
2835.61	0.00751
2845.26	0.00841
2854.9	0.01018
2864.55	0.01162
2874.19	0.01407
2883.84	0.01273
2893.48	0.01248
2903.12	0.01067
2912.77	0.01123
2922.41	0.01351
2932.06	0.01497
2941.7	0.01279
2951.35	0.01209
2960.99	0.02104
2970.64	0.0344
2980.28	0.02578
2989.93	0.01656
2999.57	0.01032
3009.22	0.0061
3018.86	0.00748
3028.51	0.00992
3038.15	0.00875
3047.8	0.00689
3057.44	0.00658
3067.09	0.00639
3076.73	0.00663
3086.38	0.00946
3096.02	0.00666
3105.67	0.005556
3115.31	0.00363
3124.95	0.004054
3134.6	0.00264
3144.24	0.004153
3153.89	0.00279
3163.53	0.00336
3173.18	0.00298
3182.82	0.00597
3192.47	0.00279
3202.11	0.003879
3211.76	0.00359
3221.4	0.003852
3231.05	0.00305
3240.69	0.003846
3250.34	0.00389
3259.98	0.00286
3269.63	0.004335
3279.27	0.00311
3288.92	0.004423
3298.56	0.00161
3308.21	0.00346
3317.85	0.00279
3327.49	0.00335
3337.14	0.0048433
3346.78	0.003922
3356.43	0.00366
3366.07	0.004223
3375.72	0.003908
3385.36	0.003925
3395.01	0.00427
3404.65	0.00219
3414.3	0.00172
3423.94	0.00269
3433.59	0.00271
3443.23	0.004175
3452.88	0.00468357
3462.52	0.0022
3472.17	0.00098
3481.81	0.003998
3491.46	0.00242
3501.1	0.003734
3510.75	0.004427
3520.39	0.00323
3530.04	0.0029
3539.68	0.00296
3549.32	0.004055
3558.97	0.00188
3568.61	0.003743
3578.26	0.00385
3587.9	0.004156
3597.55	0.00352
3607.19	0.00305
3616.84	0.00263
3626.48	0.00137
3636.13	0.00201
3645.77	0.004016
3655.42	0.00276
3665.06	0.003
3674.71	0.004429
3684.35	0.00134
3694	0.003827
3703.64	0.00092
3713.29	0.00264
3722.93	0.00476847
3732.58	0.00266
3742.22	0.003754
3751.86	0.0017
3761.51	0.00321
3771.15	0.00363
3780.8	0.00247
3790.44	0.003994
3800.09	0.00226
3809.73	0.003697
3819.38	0.0048072
3829.02	0.00285
3838.67	0.00311
3848.31	0.003702
3857.96	0.00417
3867.6	0.0048207
3877.25	0.00191
3886.89	0.003748
3896.54	0.0022
3906.18	0.004388
3915.83	0.00207
3925.47	0.003732
3935.12	0.00137
3944.76	0.00302
3954.41	0.00281
3964.05	0.00337
3973.69	0.00321
3983.34	0.00245
3992.98	0.00036
