Infrared Spectrum: Benzoxazole
Formula: C 7 H 5 N O
CAS: 273-53-0
State: gas
Instrument: HP-GC/MS/IRD
Origin: NIST Mass Spectrometry Data Center
1/CM	ABSORBANCE
550	0.0009198
562	0.0002457
574	0.0001638
586	0.0002079
598	0.0010395
610	0.0029673
622	0.0032697
634	0.0018018
646	0.0005733
658	0.0004914
670	0.0004473
682	0.0005292
694	0.0008253
706	0.0017514
718	0.0084168
730	0.0255213
742	0.063
754	0.0336294
766	0.0228438
778	0.01071
790	0.0041769
802	0.0010206
814	0.0010269
826	0.001512
838	0.0031878
850	0.0064197
862	0.0111069
874	0.0077679
886	0.0039627
898	0.0025137
910	0.0056574
922	0.006615
934	0.0045486
946	0.0018333
958	0.0011214
970	0.0008946
982	0.0015813
994	0.0035973
1006	0.0034209
1018	0.0021294
1030	0.0034272
1042	0.0094941
1054	0.0253953
1066	0.0424242
1078	0.0376173
1090	0.0138474
1102	0.011277
1114	0.0105336
1126	0.0040383
1138	0.0026334
1150	0.0037863
1162	0.002898
1174	0.0018207
1186	0.0015183
1198	0.0013986
1210	0.0033579
1222	0.0185913
1234	0.0316764
1246	0.0243684
1258	0.0020916
1270	0.0015561
1282	0.0030366
1294	0.0042273
1306	0.0037989
1318	0.0016632
1330	0.0012285
1342	0.0011907
1354	0.0010017
1366	0.0007623
1378	0.0004788
1390	0.0005418
1402	0.0013482
1414	0.0022491
1426	0.0036288
1438	0.0132678
1450	0.0232218
1462	0.0196308
1474	0.008505
1486	0.0072009
1498	0.0064134
1510	0.014175
1522	0.0229824
1534	0.0215964
1546	0.0067221
1558	0.0019782
1570	0.0023814
1582	0.003969
1594	0.0050526
1606	0.0042777
1618	0.0025515
1630	0.0010584
1642	0.0005859
1654	0.0008631
1666	0.001638
1678	0.0023499
1690	0.0040446
1702	0.0059283
1714	0.0065583
1726	0.0039123
1738	0.0015687
1750	0.0010647
1762	0.001638
1774	0.0018018
1786	0.0014049
1798	0.0009702
1810	0.0009072
1822	0.0006426
1834	0.0004662
1846	0.0006489
1858	0.000756
1870	0.0009198
1882	0.0012474
1894	0.001512
1906	0.0013104
1918	0.0012852
1930	0.0016758
1942	0.0013986
1954	0.0005607
1966	0.0004032
1978	0.0003969
1990	0.0003843
2002	0.000252
2014	0.0002331
2026	0.0001827
2038	0.0001512
2050	0.0001575
2062	0.000189
2074	0.0002331
2086	0.0002961
2098	0.0004347
2110	0.0005733
2122	0.0006867
2134	0.0006426
2146	0.0004662
2158	0.000441
2170	0.0004725
2182	0.0003339
2194	0.0001953
2206	0.0002457
2218	0.0003717
2230	0.0004347
2242	0.0003843
2254	0.0003528
2266	0.0003276
2278	0.0003465
2290	0.0004095
2302	0.0003276
2314	0.0002394
2326	0.0001764
2338	0.0002142
2350	0.0003465
2362	0.0004347
2374	0.0004599
2386	0.0003969
2398	0.0003465
2410	0.000315
2422	0.0002709
2434	0.0003528
2446	0.0004095
2458	0.0004158
2470	0.0004095
2482	0.0003339
2494	0.0002583
2506	0.0001512
2518	0.0001323
2530	0.000126
2542	0.0001701
2554	0.0002079
2566	0.0003339
2578	0.0005229
2590	0.0005985
2602	0.0004158
2614	0.0002016
2626	0.0001071
2638	0.0001512
2650	0.0001575
2662	0.0001953
2674	0.0002898
2686	0.0003276
2698	0.0001638
2710	9.45e-05
2722	5.67e-05
2734	3.15e-05
2746	5.67e-05
2758	0.0001764
2770	0.0001638
2782	0.0001008
2794	0.0001638
2806	0.0001071
2818	0.0001638
2830	8.19e-05
2842	8.82e-05
2854	0.0001134
2866	4.41e-05
2878	0.0001197
2890	9.45e-05
2902	0.0001008
2914	0.000126
2926	0.0001764
2938	0.0003591
2950	0.0003339
2962	0.0002835
2974	0.0002394
2986	0.0002646
2998	0.0002142
3010	0.0004536
3022	0.0010017
3034	0.0023751
3046	0.0045234
3058	0.0075222
3070	0.0083916
3082	0.008631
3094	0.007245
3106	0.0046368
3118	0.0015183
3130	0.000504
3142	0.0002646
3154	0.0002394
3166	0.0001701
3178	0.0001008
3190	4.41e-05
3202	8.82e-05
3214	3.78e-05
3226	0.0001197
3238	5.67e-05
3250	5.04e-05
3262	6.93e-05
3274	0.0001071
3286	6.93e-05
3298	5.04e-05
3310	5.04e-05
3322	1.89e-05
3334	1.26e-05
3346	0.0001071
3358	5.67e-05
3370	0.0001071
3382	6.3e-05
3394	9.45e-05
3406	3.78e-05
3418	2.52e-05
3430	0.0001071
3442	0.0001071
3454	3.15e-05
3466	0.0001575
3478	0.0001197
3490	0.0001197
3502	0.0001764
3514	0.0001386
3526	6.3e-05
3538	5.67e-05
3550	6.3e-05
3562	0.0001071
3574	0.0001512
3586	0.0001134
3598	0.0001008
3610	0.0001638
3622	0.0001953
3634	0.0001386
3646	0.0001701
3658	0.000189
3670	0.0001638
3682	0.0001764
3694	0.0002016
3706	0.0002079
3718	0.0001449
3730	0.0001386
3742	0.0002079
3754	0.0001134
3766	0.0001512
3778	0.0002016
3790	0.0001323
3802	0.000126
3814	0.0002142
3826	0.000189
3838	0.0002016
