Infrared Spectrum: Norflurazon
Formula: C 12 H 9 Cl F 3 N 3 O
CAS: 27314-13-2
State: gas
Instrument: HP-GC/MS/IRD
Origin: NIST Mass Spectrometry Data Center
1/CM	ABSORBANCE
550	0.0013464
562	0.0012848
574	0.0012496
586	0.0005852
598	0.000176
610	4.4e-06
622	0.000308
634	0.0004664
646	0.000704
658	0.001672
670	0.00077
682	0.0010692
694	0.002618
706	0.0007832
718	0.0011132
730	0.002354
742	0.0008008
754	0.0001716
766	0.000748
778	0.0049192
790	0.0052316
802	0.0024992
814	0.0006908
826	0.0006204
838	0.001342
850	0.0037356
862	0.0014564
874	0.0005148
886	0.000638
898	0.0011484
910	0.0005412
922	0.0002244
934	6.16e-05
946	0.0001364
958	0.0001892
970	0.0006644
982	0.0016632
994	0.0008008
1006	0.000176
1018	8.36e-05
1030	0.0001628
1042	0.0008536
1054	0.0037884
1066	0.0051172
1078	0.0052492
1090	0.0045496
1102	0.003652
1114	0.002596
1126	0.0052316
1138	0.0181236
1150	0.0266596
1162	0.01023
1174	0.0152064
1186	0.0104104
1198	0.0030272
1210	0.0022264
1222	0.0023936
1234	0.0024244
1246	0.0019712
1258	0.0023364
1270	0.0044748
1282	0.0072996
1294	0.0071368
1306	0.009438
1318	0.0179916
1330	0.044
1342	0.0153384
1354	0.0036828
1366	0.0020152
1378	0.0016544
1390	0.0016808
1402	0.0029744
1414	0.0055396
1426	0.00418
1438	0.0053416
1450	0.0091476
1462	0.0041492
1474	0.002772
1486	0.0034452
1498	0.0029436
1510	0.0011308
1522	0.0009548
1534	0.0008272
1546	0.0006116
1558	0.0007436
1570	0.00132
1582	0.00275
1594	0.0058828
1606	0.009328
1618	0.0202092
1630	0.0174328
1642	0.0051348
1654	0.0032472
1666	0.0037136
1678	0.0083732
1690	0.0245168
1702	0.0218724
1714	0.0074184
1726	0.0020108
1738	0.0009108
1750	0.0006204
1762	0.0005148
1774	0.000352
1786	0.0003256
1798	0.0002464
1810	0.0001716
1822	0.0002244
1834	0.000132
1846	3.52e-05
1858	8.36e-05
1870	0.0001056
1882	0.0002376
1894	0.0001012
1906	6.16e-05
1918	6.6e-05
1930	9.24e-05
1942	0.0001936
1954	7.48e-05
1966	6.16e-05
1978	4.4e-06
1990	7.04e-05
2002	5.28e-05
2014	7.48e-05
2026	4.84e-05
2038	5.28e-05
2050	3.96e-05
2062	6.6e-05
2074	1.76e-05
2086	3.08e-05
2098	3.52e-05
2110	4.4e-05
2122	3.08e-05
2134	3.96e-05
2146	6.6e-05
2158	7.92e-05
2170	5.72e-05
2182	6.6e-05
2194	8.8e-05
2206	0.0001364
2218	0.0001452
2230	0.0001364
2242	0.0001144
2254	0.0001584
2266	0.0001628
2278	0.0001936
2290	0.0001848
2302	0.00011
2314	6.6e-05
2326	4.84e-05
2338	0.0001056
2350	0.0001012
2362	3.96e-05
2374	4.4e-05
2386	1.32e-05
2398	7.04e-05
2410	7.48e-05
2422	7.48e-05
2434	7.48e-05
2446	9.24e-05
2458	9.24e-05
2470	7.04e-05
2482	0.0001056
2494	8.36e-05
2506	0.0001012
2518	8.36e-05
2530	7.48e-05
2542	8.8e-05
2554	9.68e-05
2566	9.24e-05
2578	0.0001276
2590	0.0001452
2602	0.0001012
2614	7.48e-05
2626	9.24e-05
2638	7.48e-05
2650	0.0001188
2662	0.0001188
2674	0.0001496
2686	3.96e-05
2698	5.72e-05
2710	1.32e-05
2722	3.08e-05
2734	0.0001056
2746	8.36e-05
2758	0.0001144
2770	0.000154
2782	0.0001848
2794	0.0001672
2806	0.0002288
2818	0.0003828
2830	0.000638
2842	0.0008756
2854	0.0007656
2866	0.0007128
2878	0.0009724
2890	0.0008536
2902	0.000704
2914	0.0008756
2926	0.001254
2938	0.001606
2950	0.001958
2962	0.0018304
2974	0.001078
2986	0.0008008
2998	0.0008888
3010	0.000792
3022	0.0005412
3034	0.000462
3046	0.000528
3058	0.0006556
3070	0.0005808
3082	0.0008976
3094	0.0009152
3106	0.0004488
3118	0.0002816
3130	0.0002728
3142	0.000154
3154	8.36e-05
3166	7.92e-05
3178	0.0001056
3190	0.000176
3202	3.08e-05
3214	0.0001188
3226	0.0001804
3238	0.0001584
3250	8.8e-05
3262	4.84e-05
3274	0.0001056
3286	5.72e-05
3298	0.0001012
3310	0.000154
3322	0.0001276
3334	0.0001716
3346	0.0001232
3358	0.0002772
3370	0.0004048
3382	0.000396
3394	0.0003916
3406	0.000506
3418	0.0011308
3430	0.0024816
3442	0.002332
3454	0.00099
3466	0.0004576
3478	0.0003212
3490	0.0001936
3502	0.0001452
3514	0.0002464
3526	0.0001892
3538	0.0001452
3550	0.0002068
3562	0.0001892
3574	0.0002156
3586	0.0002068
3598	0.0002332
3610	0.0002596
3622	0.0003388
3634	0.0002112
3646	0.0001188
3658	0.0002332
3670	0.0002508
3682	0.0002816
3694	0.0002068
3706	0.0002244
3718	0.0002464
3730	0.0002112
3742	0.0002728
3754	0.000176
3766	0.0001672
3778	0.000286
3790	0.0002244
3802	0.0002728
3814	0.000242
3826	0.000198
3838	0.0001804
