Infrared Spectrum: PROPIONIC ACID, 3,3'-SULFONYLDI-, DIDODECYL ESTER
Formula: C30 H58 O6 S
CAS: 27326-27-8
State: SOLID (PELLET)
Class: COBLENTZ
Instrument: Not specified, most likely a prism, grating, or hybrid spectrometer.
Sampling: TRANSMISSION
Resolution: 4
Origin: TENNESSEE EASTMAN COMPANY, RESEARCH LABORATORIES
MICROMETERS	TRANSMITTANCE
1.993	0.769
2.03406	0.777
2.07511	0.794
2.11617	0.801
2.15722	0.806
2.19828	0.81
2.23934	0.817
2.28039	0.82
2.32145	0.823
2.3625	0.827
2.40356	0.83
2.44462	0.832
2.48567	0.835
2.52673	0.841
2.56778	0.842
2.60884	0.844
2.6499	0.846
2.69095	0.846
2.73201	0.839
2.77306	0.779
2.81412	0.733
2.85518	0.688
2.89623	0.652
2.93729	0.661
2.97834	0.716
3.0194	0.784
3.06046	0.815
3.10151	0.834
3.14257	0.851
3.18362	0.868
3.22468	0.875
3.26574	0.875
3.30679	0.846
3.34785	0.695
3.3889	0.191
3.42996	0.382
3.47101	0.353
3.51207	0.717
3.55313	0.864
3.59418	0.89
3.63524	0.904
3.67629	0.911
3.71735	0.914
3.75841	0.919
3.79946	0.921
3.84052	0.926
3.88157	0.929
3.92263	0.935
3.96369	0.94
4.00474	0.94
4.0458	0.943
4.08685	0.947
4.12791	0.947
4.16897	0.948
4.21002	0.948
4.25108	0.929
4.29213	0.895
4.33319	0.899
4.37425	0.935
4.4153	0.948
4.45636	0.952
4.49741	0.955
4.53847	0.957
4.57953	0.957
4.62058	0.958
4.66164	0.96
4.70269	0.958
4.74375	0.958
4.78481	0.96
4.82586	0.962
4.86692	0.962
4.90797	0.962
4.94903	0.962
4.99009	0.967
5.03114	0.967
5.0722	0.969
5.11325	0.969
5.15431	0.969
5.19537	0.969
5.23642	0.969
5.27748	0.969
5.31853	0.969
5.35959	0.97
5.40065	0.97
5.4417	0.969
5.48276	0.969
5.52381	0.965
5.56487	0.964
5.60593	0.95
5.64698	0.917
5.68804	0.827
5.72909	0.235
5.77015	0.266
5.81121	0.63
5.85226	0.788
5.89332	0.852
5.93437	0.895
5.97543	0.911
6.01648	0.912
6.05754	0.9
6.0986	0.883
6.13965	0.876
6.18071	0.885
6.22176	0.897
6.26282	0.929
6.30388	0.94
6.34493	0.943
6.38599	0.943
6.42704	0.947
6.4681	0.945
6.50916	0.947
6.55021	0.945
6.59127	0.941
6.63232	0.94
6.67338	0.916
6.71444	0.832
6.75549	0.716
6.79655	0.664
6.8376	0.77
6.87866	0.851
6.91972	0.849
6.96077	0.779
7.00183	0.673
7.04288	0.726
7.08394	0.745
7.125	0.747
7.16605	0.813
7.20711	0.827
7.24816	0.747
7.28922	0.63
7.33028	0.601
7.37133	0.714
7.41239	0.825
7.45344	0.858
7.4945	0.854
7.53556	0.76
7.57661	0.488
7.61767	0.42
7.65872	0.613
7.69978	0.705
7.74084	0.7
7.78189	0.625
7.82295	0.509
7.864	0.278
7.90506	0.16
7.94612	0.232
7.98717	0.432
8.02823	0.682
8.06928	0.774
8.11034	0.817
8.1514	0.83
8.19245	0.834
8.23351	0.832
8.27456	0.788
8.31562	0.7
8.35668	0.459
8.39773	0.205
8.43879	0.254
8.47984	0.488
8.5209	0.639
8.56195	0.705
8.60301	0.733
8.64407	0.735
8.68512	0.772
8.72618	0.769
8.76723	0.608
8.80829	0.35
8.84935	0.341
8.8904	0.576
8.93146	0.741
8.97251	0.808
9.01357	0.854
9.05463	0.858
9.09568	0.873
9.13674	0.894
9.17779	0.902
9.21885	0.9
9.25991	0.89
9.30096	0.861
9.34202	0.813
9.38307	0.77
9.42413	0.769
9.46519	0.769
9.50624	0.753
9.5473	0.774
9.58835	0.788
9.62941	0.842
9.67047	0.87
9.71152	0.89
9.75258	0.895
9.79363	0.894
9.83469	0.875
9.87575	0.871
9.9168	0.868
9.95786	0.894
9.99891	0.902
10.04	0.902
10.081	0.899
10.1221	0.897
10.1631	0.895
10.2042	0.9
10.2452	0.9
10.2863	0.9
10.3274	0.894
10.3684	0.894
10.4095	0.899
10.4505	0.909
10.4916	0.917
10.5326	0.921
10.5737	0.923
10.6148	0.923
10.6558	0.919
10.6969	0.882
10.7379	0.856
10.779	0.885
10.82	0.911
10.8611	0.926
10.9021	0.933
10.9432	0.938
10.9843	0.945
11.0253	0.947
11.0664	0.947
11.1074	0.948
11.1485	0.947
11.1895	0.945
11.2306	0.943
11.2716	0.947
11.3127	0.948
11.3538	0.95
11.3948	0.952
11.4359	0.95
11.4769	0.952
11.518	0.952
11.559	0.952
11.6001	0.952
11.6412	0.952
11.6822	0.952
11.7233	0.952
11.7643	0.953
11.8054	0.953
11.8464	0.952
11.8875	0.952
11.9285	0.952
11.9696	0.952
12.0107	0.952
12.0517	0.952
12.0928	0.948
12.1338	0.95
12.1749	0.95
12.2159	0.95
12.257	0.947
12.298	0.943
12.3391	0.928
12.3802	0.905
12.4212	0.88
12.4623	0.87
12.5033	0.868
12.5444	0.854
12.5854	0.822
12.6265	0.789
12.6676	0.782
12.7086	0.782
12.7497	0.791
12.7907	0.81
12.8318	0.835
12.8728	0.854
12.9139	0.863
12.9549	0.873
12.996	0.876
13.0371	0.882
13.0781	0.897
13.1192	0.905
13.1602	0.912
13.2013	0.916
13.2423	0.916
13.2834	0.917
13.3244	0.919
13.3655	0.919
13.4066	0.917
13.4476	0.917
13.4887	0.916
13.5297	0.904
13.5708	0.883
13.6118	0.858
13.6529	0.834
13.694	0.813
13.735	0.805
13.7761	0.803
13.8171	0.806
13.8582	0.81
13.8992	0.832
13.9403	0.866
13.9813	0.895
14.0224	0.902
14.0635	0.907
14.1045	0.911
14.1456	0.916
14.1866	0.916
14.2277	0.916
14.2687	0.916
14.3098	0.916
14.3508	0.914
14.3919	0.907
14.433	0.9
14.474	0.895
14.5151	0.885
14.5561	0.876
14.5972	0.871
14.6382	0.861
14.6793	0.849
14.7204	0.846
14.7614	0.837
14.8025	0.829
14.8435	0.822
14.8846	0.808
14.9256	0.782
14.9667	0.755
15.0077	0.741
15.0488	0.741
15.0899	0.748
15.1309	0.75
15.172	0.736
15.213	0.719
15.2541	0.705
15.2951	0.694
15.3362	0.682
15.3772	0.659
15.4183	0.649
15.4594	0.641
15.5004	0.632
15.5415	0.623
15.5825	0.613
15.6236	0.603
15.6646	0.594
15.7057	0.586
15.7467	0.576
15.7878	0.569
15.8289	0.56
15.8699	0.555
15.911	0.548
15.952	0.543
