Infrared Spectrum: 5,7-DIHYDROXYCOUMARIN
Formula: C9 H6 O4
CAS: 2732-18-5
State: SOLID (0.8 mg / 230 mg, KBr DISC) VS. SCREEN
Class: COBLENTZ III
Instrument: CARY 90 (GRATING)
Instrument parameters: GRATING CHANGED AT 3000, 2000, 1200 CM^-^1
Sampling: TRANSMISSION
Resolution: 4
Origin: WESTERN REGIONAL RES. USDA
1/CM	TRANSMITTANCE
445.423	0.504
454.693	0.445
463.963	0.414
473.233	0.57
482.503	0.414
491.773	0.605
501.043	0.627
510.313	0.635
519.583	0.634
528.853	0.63
538.123	0.63
547.393	0.638
556.663	0.587
565.933	0.628
575.203	0.64
584.473	0.627
593.743	0.606
603.013	0.622
612.283	0.616
621.553	0.613
630.823	0.585
640.093	0.493
649.363	0.484
658.633	0.57
667.903	0.645
677.173	0.69
686.443	0.642
695.713	0.67
704.983	0.692
714.253	0.715
723.523	0.729
732.793	0.658
742.063	0.66
751.333	0.692
760.603	0.686
769.873	0.738
779.143	0.736
788.413	0.707
797.683	0.6
806.953	0.48
816.223	0.4289
825.493	0.226
834.763	0.592
844.033	0.724
853.303	0.766
862.573	0.792
871.843	0.788
881.113	0.777
890.383	0.729
899.653	0.5061
908.923	0.78
918.193	0.805
927.463	0.807
936.733	0.8
946.003	0.783
955.273	0.754
964.543	0.67
973.813	0.756
983.083	0.759
992.353	0.774
1001.62	0.755
1010.89	0.74
1020.16	0.716
1029.43	0.671
1038.7	0.56
1047.97	0.707
1057.24	0.684
1066.51	0.4669
1075.78	0.2011
1085.05	0.629
1094.32	0.664
1103.59	0.598
1112.86	0.432
1122.13	0.172
1131.4	0.434
1140.67	0.452
1149.94	0.2239
1159.21	0.1841
1168.48	0.626
1177.75	0.636
1187.02	0.572
1196.29	0.2149
1205.56	0.458
1214.83	0.493
1224.1	0.521
1233.37	0.452
1242.64	0.21
1251.91	0.4501
1261.18	0.41
1270.45	0.276
1279.72	0.192
1288.99	0.234
1298.26	0.377
1307.53	0.513
1316.8	0.626
1326.07	0.64
1335.34	0.523
1344.61	0.3549
1353.88	0.167
1363.15	0.2561
1372.42	0.591
1381.69	0.68
1390.96	0.689
1400.23	0.4679
1409.5	0.54
1418.77	0.596
1428.04	0.525
1437.31	0.3119
1446.58	0.201
1455.85	0.4101
1465.12	0.662
1474.39	0.7121
1483.66	0.809
1492.93	0.798
1502.2	0.773
1511.47	0.67
1520.74	0.695
1530.01	0.755
1539.28	0.74
1548.55	0.693
1557.82	0.593
1567.09	0.48
1576.36	0.505
1585.63	0.439
1594.9	0.2589
1604.17	0.077
1613.44	0.046
1622.71	0.033
1631.98	0.077
1641.25	0.2661
1650.52	0.423
1659.79	0.437
1669.06	0.412
1678.33	0.237
1687.6	0.067
1696.87	0.047
1706.14	0.074
1715.41	0.093
1724.68	0.152
1733.95	0.224
1743.22	0.4051
1752.49	0.6
1761.76	0.687
1771.03	0.759
1780.3	0.849
1789.57	0.891
1798.84	0.907
1808.11	0.891
1817.38	0.924
1826.65	0.943
1835.92	0.956
1845.19	0.965
1854.46	0.964
1863.73	0.969
1873	0.959
1882.27	0.975
1891.54	0.975
1900.81	0.98
1910.08	0.986
1919.35	0.984
1928.62	0.978
1937.89	0.972
1947.16	0.974
1956.43	0.975
1965.7	0.968
1974.97	0.964
1984.24	0.956
1993.51	0.961
2002.78	0.9485
2012.05	0.9375
2021.32	0.9355
2030.59	0.9395
2039.86	0.944
2049.13	0.946
2058.4	0.941
2067.67	0.936
2076.94	0.936
2086.21	0.9395
2095.48	0.9425
2104.75	0.945
2114.02	0.9445
2123.29	0.944
2132.56	0.945
2141.83	0.943
2151.1	0.943
2160.37	0.943
2169.64	0.944
2178.91	0.945
2188.18	0.9435
2197.45	0.9395
2206.72	0.937
2215.99	0.936
2225.26	0.934
2234.53	0.931
2243.8	0.929
2253.07	0.926
2262.34	0.922
2271.61	0.919
2280.88	0.9155
2290.15	0.9115
2299.42	0.9085
2308.69	0.9075
2317.96	0.906
2327.23	0.905
2336.5	0.903
2345.77	0.902
2355.04	0.901
2364.31	0.9005
2373.58	0.9
2382.85	0.8985
2392.12	0.8955
2401.39	0.892
2410.66	0.8875
2419.93	0.8845
2429.2	0.883
2438.47	0.88
2447.74	0.8775
2457.01	0.875
2466.28	0.871
2475.55	0.8695
2484.82	0.867
2494.09	0.865
2503.36	0.864
2512.63	0.866
2521.9	0.866
2531.17	0.864
2540.44	0.8595
2549.71	0.851
2558.98	0.85
2568.25	0.851
2577.52	0.851
2586.79	0.851
2596.06	0.853
2605.33	0.853
2614.6	0.854
2623.87	0.854
2633.14	0.857
2642.41	0.857
2651.68	0.856
2660.95	0.8535
2670.22	0.8435
2679.49	0.835
2688.76	0.8315
2698.03	0.829
2707.3	0.8325
2716.57	0.8365
2725.84	0.8415
2735.11	0.841
2744.38	0.8355
2753.65	0.8315
2762.92	0.8245
2772.19	0.8185
2781.46	0.8125
2790.73	0.809
2800	0.806
2809.27	0.8095
2818.54	0.807
2827.81	0.801
2837.08	0.789
2846.35	0.7425
2855.62	0.751
2864.89	0.7715
2874.16	0.7775
2883.43	0.7845
2892.7	0.7745
2901.97	0.7565
2911.24	0.7355
2920.51	0.718
2929.78	0.7095
2939.05	0.705
2948.32	0.68
2957.59	0.6625
2966.86	0.6905
2976.13	0.6975
2985.4	0.688
2994.67	0.723
3003.94	0.732
3013.21	0.7305
3022.48	0.721
3031.75	0.709
3041.02	0.6975
3050.29	0.683
3059.56	0.6615
3068.83	0.6185
3078.1	0.6075
3087.37	0.6215
3096.64	0.629
3105.91	0.63
3115.18	0.63
3124.45	0.62
3133.72	0.604
3142.99	0.592
3152.26	0.5725
3161.53	0.5505
3170.8	0.5295
3180.07	0.5055
3189.34	0.491
3198.61	0.464
3207.88	0.438
3217.15	0.4125
3226.42	0.384
3235.69	0.353
3244.96	0.317
3254.23	0.293
3263.5	0.2655
3272.77	0.2555
3282.04	0.253
3291.31	0.2585
3300.58	0.267
3309.85	0.271
3319.12	0.27
3328.39	0.264
3337.66	0.2625
3346.93	0.267
3356.2	0.282
3365.47	0.312
3374.74	0.344
3384.01	0.372
3393.28	0.4005
3402.55	0.4205
3411.82	0.441
3421.09	0.4585
3430.36	0.476
3439.63	0.495
3448.9	0.514
3458.17	0.5355
3467.44	0.56
3476.71	0.575
3485.98	0.5945
3495.25	0.6095
3504.52	0.6235
3513.79	0.6345
3523.06	0.647
3532.33	0.6605
3541.6	0.674
3550.87	0.6885
3560.14	0.704
3569.41	0.719
3578.68	0.7345
3587.95	0.761
3597.22	0.7785
3606.49	0.7995
3615.76	0.8125
3625.03	0.828
3634.3	0.8365
3643.57	0.8425
3652.84	0.8485
3662.11	0.8545
3671.38	0.8585
3680.65	0.862
3689.92	0.864
3699.19	0.866
3708.46	0.869
3717.73	0.869
3727	0.868
3736.27	0.866
3745.54	0.865
3754.81	0.863
3764.08	0.859
3773.35	0.8575
3782.62	0.856
3791.89	0.856
3801.16	0.8555
3810.43	0.855
3819.7	0.853
3828.97	0.853
3838.24	0.851
3847.51	0.849
3856.78	0.8475
3866.05	0.846
3875.32	0.844
3884.59	0.842
3893.86	0.8405
3903.13	0.839
3912.4	0.836
3921.67	0.834
3930.94	0.8325
3940.21	0.831
3949.48	0.8275
3958.75	0.8255
3968.02	0.824
3977.29	0.821
3986.56	0.82
3995.83	0.819
