Infrared Spectrum: 3-Trifluoromethylbenzoylacetonitrile
Formula: C 10 H 6 F 3 N O
CAS: 27328-86-5
State: gas
Origin: EPA-IR VAPOR PHASE LIBRARY
1/CM	ABSORBANCE
549.8	0.004035
559.445	0.006845
569.09	0.004955
578.734	0.003545
588.379	0.003275
598.024	0.003065
607.669	0.003415
617.313	0.003305
626.958	0.002625
636.603	0.002425
646.248	0.005845
655.893	0.008365
665.537	0.004775
675.182	0.005855
684.827	0.012815
694.472	0.019055
704.116	0.013085
713.761	0.007725
723.406	0.004225
733.051	0.003625
742.695	0.003825
752.34	0.002905
761.985	0.003375
771.63	0.002945
781.275	0.003365
790.919	0.006325
800.564	0.009365
810.209	0.008795
819.854	0.004195
829.498	0.002965
839.143	0.002435
848.788	0.001995
858.433	0.0012722
868.078	0.0015562
877.722	0.0016651
887.367	0.003105
897.012	0.004095
906.657	0.003745
916.301	0.004945
925.946	0.004945
935.591	0.003985
945.236	0.002745
954.88	0.002425
964.525	0.0016698
974.17	0.001915
983.815	0.0017428
993.46	0.002555
1003.1	0.002905
1012.75	0.003985
1022.39	0.005555
1032.04	0.006105
1041.68	0.005225
1051.33	0.004995
1060.97	0.008165
1070.62	0.019475
1080.26	0.021765
1089.91	0.014245
1099.55	0.012225
1109.2	0.010875
1118.84	0.011465
1128.49	0.017085
1138.13	0.037085
1147.78	0.081805
1157.42	0.098525
1167.07	0.075375
1176.71	0.087585
1186.36	0.071515
1196	0.044325
1205.64	0.035335
1215.29	0.024425
1224.93	0.023995
1234.58	0.037565
1244.22	0.065125
1253.87	0.053195
1263.51	0.024925
1273.16	0.016205
1282.8	0.015525
1292.45	0.016385
1302.09	0.021775
1311.74	0.031895
1321.38	0.051865
1331.03	0.081695
1340.67	0.053685
1350.32	0.016265
1359.96	0.007255
1369.61	0.004835
1379.25	0.004065
1388.9	0.003935
1398.54	0.004065
1408.18	0.005395
1417.83	0.007065
1427.47	0.007545
1437.12	0.008165
1446.76	0.004855
1456.41	0.002885
1466.05	0.002455
1475.7	0.002305
1485.34	0.002575
1494.99	0.002245
1504.63	0.0017938
1514.28	0.0014654
1523.92	0.0016769
1533.57	0.0015727
1543.21	0.0016643
1552.86	0.0018578
1562.5	0.001915
1572.15	0.001975
1581.79	0.003395
1591.44	0.005005
1601.08	0.005695
1610.73	0.008205
1620.37	0.007145
1630.01	0.004545
1639.66	0.003115
1649.3	0.003005
1658.95	0.002795
1668.59	0.003585
1678.24	0.004585
1687.88	0.006335
1697.53	0.010885
1707.17	0.025625
1716.82	0.045485
1726.46	0.034865
1736.11	0.015325
1745.75	0.007695
1755.4	0.005285
1765.04	0.003895
1774.69	0.002925
1784.33	0.002525
1793.98	0.002325
1803.62	0.002295
1813.27	0.002265
1822.91	0.002165
1832.55	0.002075
1842.2	0.001955
1851.84	0.0017845
1861.49	0.0017589
1871.13	0.001772
1880.78	0.0016803
1890.42	0.0017869
1900.07	0.0016909
1909.71	0.0017854
1919.36	0.0017592
1929	0.0018396
1938.65	0.0015645
1948.29	0.0015028
1957.94	0.0016003
1967.58	0.001702
1977.23	0.0015881
1986.87	0.0013684
1996.52	0.0012308
2006.16	0.0011877
2015.81	0.0013476
2025.45	0.0010306
2035.1	0.0010624
2044.74	0.0011654
2054.38	0.0010349
2064.03	0.0010595
2073.67	0.0010914
2083.32	0.0011565
2092.96	0.0012838
2102.61	0.0011618
2112.25	0.00093035
2121.9	0.0009846
2131.54	0.0010829
2141.19	0.0012325
2150.83	0.0012507
2160.48	0.0011206
2170.12	0.0011579
2179.77	0.0011854
2189.41	0.0012515
2199.06	0.0012158
2208.7	0.0014185
2218.35	0.0015232
2227.99	0.0012423
2237.64	0.0013174
2247.28	0.0014011
2256.92	0.0018196
2266.57	0.0016078
2276.21	0.0012564
2285.86	0.0014475
2295.5	0.0012727
2305.15	0.0013983
2314.79	0.0010527
2324.44	0.0011606
2334.08	0.00138
2343.73	0.0015451
2353.37	0.0014431
2363.02	0.0015388
2372.66	0.0013933
2382.31	0.0011011
2391.95	0.001128
2401.6	0.0012091
2411.24	0.001101
2420.89	0.001063
2430.53	0.0010499
2440.18	0.0011644
2449.82	0.0010862
2459.47	0.00097271
2469.11	0.0010706
2478.75	0.00096867
2488.4	0.0013938
2498.04	0.0009954
2507.69	0.0010667
2517.33	0.0010295
2526.98	0.00094489
2536.62	0.00088864
2546.27	0.000709
2555.91	0.00091165
2565.56	0.00093868
2575.2	0.0011883
2584.85	0.0009803
2594.49	0.00096362
2604.14	0.0012785
2613.78	0.00092092
2623.43	0.001023
2633.07	0.0010884
2642.72	0.0010823
2652.36	0.0009838
2662.01	0.0010329
2671.65	0.00089268
2681.29	0.0011135
2690.94	0.0012832
2700.58	0.00092545
2710.23	0.0008371
2719.87	0.0010651
2729.52	0.000995
2739.16	0.0010403
2748.81	0.000657
2758.45	0.00088862
2768.1	0.0012378
2777.74	0.0009089
2787.39	0.0009249
2797.03	0.000614
2806.68	0.00096201
2816.32	0.000748
2825.97	0.00072
2835.61	0.0008317
2845.26	0.000707
2854.9	0.000757
2864.55	0.000628
2874.19	0.000666
2883.84	0.000772
2893.48	0.0010694
2903.12	0.0011098
2912.77	0.0011825
2922.41	0.00091464
2932.06	0.0016769
2941.7	0.0016167
2951.35	0.0009588
2960.99	0.00094112
2970.64	0.0010547
2980.28	0.0010342
2989.93	0.0011743
2999.57	0.0013099
3009.22	0.0010515
3018.86	0.0011627
3028.51	0.0013575
3038.15	0.001274
3047.8	0.0014979
3057.44	0.0014861
3067.09	0.002155
3076.73	0.002485
3086.38	0.003225
3096.02	0.002305
3105.67	0.0014951
3115.31	0.0010877
3124.95	0.0013951
3134.6	0.0009988
3144.24	0.000723
3153.89	0.000481
3163.53	0.000748
3173.18	0.00093562
3182.82	0.000832
3192.47	0.0012081
3202.11	0.001017
3211.76	0.0011489
3221.4	0.0012035
3231.05	0.0010549
3240.69	0.0011223
3250.34	0.000553
3259.98	0.0011187
3269.63	0.000479
3279.27	0.0010293
3288.92	0.00089112
3298.56	0.0012902
3308.21	0.000389
3317.85	0.0008366
3327.49	0.0008005
3337.14	0.001128
3346.78	0.0012922
3356.43	0.0011992
3366.07	0.0010005
3375.72	0.0011071
3385.36	0.0015293
3395.01	0.0010947
3404.65	0.0012808
3414.3	0.0014558
3423.94	0.0014879
3433.59	0.0015085
3443.23	0.0013293
3452.88	0.0014694
3462.52	0.0012451
3472.17	0.000984
3481.81	0.00095464
3491.46	0.00093185
3501.1	0.0014411
3510.75	0.00115
3520.39	0.00088532
3530.04	0.0010478
3539.68	0.0011215
3549.32	0.0018252
3558.97	0.00088744
3568.61	0.0012383
3578.26	0.0012139
3587.9	0.0010869
3597.55	0.0010413
3607.19	0.0012286
3616.84	0.00076
3626.48	0.00093268
3636.13	0.0015502
3645.77	0.0013513
3655.42	0.0011939
3665.06	0.000777
3674.71	0.0013897
3684.35	0.0012753
3694	0.001104
3703.64	0.0014684
3713.29	0.00089537
3722.93	0.0012745
3732.58	0.0013217
3742.22	0.000647
3751.86	0.0011511
3761.51	0.0013902
3771.15	0.0009941
3780.8	0.0013251
3790.44	0.00090215
3800.09	0.0008429
3809.73	0.0011553
3819.38	0.0012934
3829.02	0.0009901
3838.67	0.0009558
3848.31	0.000661
3857.96	0.00094694
3867.6	0.0007773
3877.25	0.000776
3886.89	0.0008473
3896.54	0.000167
3906.18	0.0013455
3915.83	0.0009214
3925.47	0.00095487
3935.12	0.0009821
3944.76	0.000683
3954.41	0.0011422
3964.05	0.00097057
3973.69	0.0011366
3983.34	0.0011793
3992.98	0.0011473
