Infrared Spectrum: 6-Ethylchrysene
Formula: C 20 H 16
CAS: 2732-58-3
State: gas
Origin: EPA-IR VAPOR PHASE LIBRARY
1/CM	ABSORBANCE
549.9	0.002445
559.547	0.002635
569.193	0.0012964
578.84	0.0008078
588.486	0.0007163
598.133	0.00048336
607.779	0.0003559
617.426	0.00042341
627.072	0.0008208
636.719	0.0006177
646.365	0.001555
656.012	0.0012125
665.658	0.0007829
675.305	0.001835
684.951	0.001635
694.598	0.0004537
704.245	0.00044454
713.891	0.0005815
723.538	0.0009223
733.184	0.001935
742.831	0.008735
752.477	0.033185
762.124	0.016095
771.77	0.002505
781.417	0.002115
791.063	0.001625
800.71	0.002215
810.356	0.007285
820.003	0.005575
829.649	0.0010694
839.296	0.0005779
848.943	0.0010106
858.589	0.001685
868.236	0.002925
877.882	0.005025
887.529	0.001575
897.175	0.000568
906.822	0.00045805
916.468	0.00047459
926.115	0.0006299
935.761	0.0011025
945.408	0.0013773
955.054	0.0007137
964.701	0.0003557
974.347	0.0003003
983.994	0.0002985
993.64	0.0003529
1003.29	0.0005533
1012.93	0.0009732
1022.58	0.001555
1032.23	0.002375
1041.87	0.002685
1051.52	0.0010097
1061.17	0.0009971
1070.81	0.0006694
1080.46	0.0003346
1090.11	0.0003609
1099.75	0.00041819
1109.4	0.00047643
1119.05	0.00027
1128.69	0.000167
1138.34	0.0003423
1147.99	0.0004921
1157.63	0.0005823
1167.28	0.00040162
1176.92	0.0003017
1186.57	0.000784
1196.22	0.0008471
1205.86	0.00046888
1215.51	0.0006881
1225.16	0.0007388
1234.8	0.0013771
1244.45	0.002165
1254.1	0.001515
1263.74	0.0005749
1273.39	0.00038618
1283.04	0.000386711
1292.68	0.0004863
1302.33	0.0007373
1311.98	0.0012716
1321.62	0.0012923
1331.27	0.0010261
1340.92	0.0004899
1350.56	0.00040357
1360.21	0.00040842
1369.86	0.0006702
1379.5	0.0012844
1389.15	0.0012938
1398.79	0.001555
1408.44	0.002795
1418.09	0.002945
1427.73	0.003165
1437.38	0.003085
1447.03	0.001925
1456.67	0.001965
1466.32	0.002645
1475.97	0.002755
1485.61	0.002115
1495.26	0.0010994
1504.91	0.001805
1514.55	0.002545
1524.2	0.002075
1533.85	0.0011021
1543.49	0.0006808
1553.14	0.00045297
1562.79	0.00041198
1572.43	0.0006187
1582.08	0.0010373
1591.73	0.002345
1601.37	0.002735
1611.02	0.002185
1620.67	0.001515
1630.31	0.0008406
1639.96	0.00041525
1649.6	0.0003149
1659.25	0.0003612
1668.9	0.0006703
1678.54	0.0009615
1688.19	0.0010271
1697.84	0.0008884
1707.48	0.000688
1717.13	0.0007993
1726.78	0.0006832
1736.42	0.0007672
1746.07	0.0013567
1755.72	0.001555
1765.36	0.000747
1775.01	0.0003577
1784.66	0.00044532
1794.3	0.0006984
1803.95	0.0007484
1813.6	0.0005902
1823.24	0.0009304
1832.89	0.0005561
1842.54	0.000185
1852.18	0.000109
1861.83	0.000127
1871.47	0.00027
1881.12	0.0007588
1890.77	0.000782
1900.41	0.0008391
1910.06	0.0011123
1919.71	0.0007057
1929.35	0.0008382
1939	0.001605
1948.65	0.0005393
1958.29	0.00014
1967.94	0.000103
1977.59	6.1e-05
1987.23	6.1e-05
1996.88	5.5e-05
2006.53	6.7e-05
2016.17	6.6e-05
2025.82	4.3e-05
2035.47	7.2e-05
2045.11	7.7e-05
2054.76	8.5e-05
2064.41	6.2e-05
2074.05	8.6e-05
2083.7	0.000117
2093.35	6.2e-05
2102.99	6.8e-05
2112.64	5.7e-05
2122.28	4.6e-05
2131.93	5.2e-05
2141.58	5.9e-05
2151.22	5.6e-05
2160.87	2.8e-05
2170.52	5.6e-05
2180.16	0.000105
2189.81	9.2e-05
2199.46	0.0001
2209.1	9.7e-05
2218.75	7.3e-05
2228.4	3.8e-05
2238.04	7.8e-05
2247.69	9.8e-05
2257.34	9.1e-05
2266.98	6.8e-05
2276.63	8.3e-05
2286.28	0.0001
2295.92	0.000114
2305.57	0.000183
2315.22	0.000171
2324.86	0.00024
2334.51	0.000282
2344.16	0.000205
2353.8	0.000194
2363.45	0.00027
2373.09	0.000185
2382.74	0.000135
2392.39	0.000134
2402.03	7.5e-05
2411.68	9.5e-05
2421.33	9.7e-05
2430.97	6.3e-05
2440.62	0.000165
2450.27	0.0001
2459.91	0.00014
2469.56	0.000135
2479.21	0.000139
2488.85	0.000149
2498.5	0.000171
2508.15	0.000151
2517.79	0.000132
2527.44	0.000128
2537.09	0.000177
2546.73	0.00013
2556.38	8.7e-05
2566.03	0.000148
2575.67	0.000169
2585.32	0.000129
2594.96	0.000182
2604.61	0.000156
2614.26	0.00016
2623.9	0.000149
2633.55	0.000145
2643.2	0.000177
2652.84	0.000167
2662.49	0.00022
2672.14	0.000164
2681.78	9.5e-05
2691.43	0.000152
2701.08	0.000191
2710.72	0.000182
2720.37	0.00018
2730.02	0.000245
2739.66	0.000234
2749.31	0.000266
2758.96	0.0002864
2768.6	0.000231
2778.25	0.0002959
2787.9	0.0003733
2797.54	0.000282
2807.19	0.0003725
2816.84	0.0004201
2826.48	0.0005406
2836.13	0.000634
2845.77	0.0009255
2855.42	0.0012515
2865.07	0.001925
2874.71	0.003295
2884.36	0.005245
2894.01	0.004865
2903.65	0.003615
2913.3	0.003605
2922.95	0.004005
2932.59	0.005265
2942.24	0.008165
2951.89	0.006835
2961.53	0.006175
2971.18	0.012965
2980.83	0.010545
2990.47	0.003975
3000.12	0.002905
3009.77	0.003205
3019.41	0.004205
3029.06	0.004945
3038.71	0.006115
3048.35	0.008275
3058	0.010785
3067.64	0.013365
3077.29	0.013675
3086.94	0.013705
3096.58	0.008825
3106.23	0.003995
3115.88	0.002195
3125.52	0.0013653
3135.17	0.0009687
3144.82	0.0007659
3154.46	0.0005741
3164.11	0.00045685
3173.76	0.00042662
3183.4	0.00043153
3193.05	0.000392405
3202.7	0.0003027
3212.34	0.00048105
3221.99	0.0003365
3231.64	0.0003129
3241.28	0.000121
3250.93	0.00016
3260.58	0.000251
3270.22	0.000225
3279.87	0.000194
3289.52	8.8e-05
3299.16	0.000109
3308.81	0.0003304
3318.45	0.000177
3328.1	0.000236
3337.75	0.000231
3347.39	0.00018
3357.04	0.000211
3366.69	0.000241
3376.33	0.000133
3385.98	0.000235
3395.63	0.0003458
3405.27	0.000169
3414.92	1.7e-05
3424.57	0.000183
3434.21	7.8e-05
3443.86	0.000181
3453.51	0.000226
3463.15	0.000131
3472.8	9.2e-05
3482.45	0.000193
3492.09	0.000169
3501.74	0.000225
3511.39	4.7e-05
3521.03	9.5e-05
3530.68	0.000148
3540.33	9.9e-05
3549.97	0.000237
3559.62	0.000194
3569.26	0.000164
3578.91	7.2e-05
3588.56	9.7e-05
3598.2	0.000274
3607.85	0.000197
3617.5	0.000208
3627.14	0.000261
3636.79	0.000185
3646.44	0.000165
3656.08	0.000253
3665.73	0.000137
3675.38	0.000205
3685.02	0.000218
3694.67	0.000185
3704.32	0.000271
3713.96	0.000206
3723.61	0.000168
3733.26	0.0003019
3742.9	0.000255
3752.55	0.00022
3762.2	0.000134
3771.84	0.000211
3781.49	0.000178
3791.13	0.000285
3800.78	0.0002984
3810.43	0.00022
3820.07	0.000218
3829.72	0.000225
3839.37	0.000266
3849.01	0.000253
3858.66	0.000279
3868.31	0.000261
3877.95	0.000227
3887.6	0.0003009
3897.25	0.000214
3906.89	0.000249
3916.54	0.000217
3926.19	0.0003159
3935.83	0.000283
3945.48	0.000363
3955.13	0.000257
3964.77	0.000263
3974.42	0.000196
3984.07	0.000233
3993.71	0.000201
