Infrared Spectrum: THIOPHENE, 2-METHOXY 3,5-DINITRO
Formula: C5 H4 N2 O5 S
CAS: 27357-00-2
State: SOLID (KBr PELLET)
Melting point: 138-139 C
Class: COBLENTZ
Instrument: Not specified, most likely a prism, grating, or hybrid spectrometer.
Sampling: TRANSMISSION
Resolution: 4
Origin: TENNESSEE EASTMAN COMPANY, RESEARCH LABORATORIES
MICROMETERS	TRANSMITTANCE
2	0.772
2.0409	0.768
2.08181	0.768
2.12271	0.77
2.16361	0.775
2.20452	0.784
2.24542	0.79
2.28632	0.799
2.32722	0.804
2.36813	0.809
2.40903	0.814
2.44993	0.819
2.49084	0.823
2.53174	0.828
2.57264	0.829
2.61355	0.835
2.65445	0.838
2.69535	0.836
2.73626	0.782
2.77716	0.702
2.81806	0.653
2.85896	0.62
2.89987	0.617
2.94077	0.666
2.98167	0.726
3.02258	0.772
3.06348	0.801
3.10438	0.828
3.14529	0.852
3.18619	0.823
3.22709	0.889
3.268	0.897
3.3089	0.913
3.3498	0.901
3.3907	0.901
3.43161	0.909
3.47251	0.909
3.51341	0.903
3.55432	0.926
3.59522	0.943
3.63612	0.921
3.67703	0.952
3.71793	0.965
3.75883	0.969
3.79974	0.972
3.84064	0.969
3.88154	0.977
3.92244	0.979
3.96335	0.969
4.00425	0.955
4.04515	0.962
4.08606	0.969
4.12696	0.971
4.16786	0.965
4.20877	0.955
4.24967	0.942
4.29057	0.94
4.33148	0.945
4.37238	0.96
4.41328	0.962
4.45419	0.962
4.49509	0.962
4.53599	0.967
4.57689	0.965
4.6178	0.96
4.6587	0.962
4.6996	0.964
4.74051	0.962
4.78141	0.96
4.82231	0.955
4.86322	0.957
4.90412	0.96
4.94502	0.962
4.98593	0.971
5.02683	0.969
5.06773	0.959
5.10863	0.962
5.14954	0.962
5.19044	0.965
5.23134	0.965
5.27225	0.969
5.31315	0.971
5.35405	0.969
5.39496	0.969
5.43586	0.969
5.47676	0.952
5.51767	0.955
5.55857	0.955
5.59947	0.952
5.64037	0.914
5.68128	0.933
5.72218	0.913
5.76308	0.904
5.80399	0.913
5.84489	0.914
5.88579	0.896
5.9267	0.892
5.9676	0.86
6.0085	0.843
6.04941	0.809
6.09031	0.799
6.13121	0.799
6.17211	0.761
6.21302	0.811
6.25392	0.814
6.29482	0.794
6.33573	0.544
6.37663	0.054
6.41753	0.132
6.45844	0.346
6.49934	0.147
6.54024	0.158
6.58115	0.462
6.62205	0.103
6.66295	0.04
6.70385	0.27
6.74476	0.527
6.78566	0.559
6.82656	0.471
6.86747	0.707
6.90837	0.767
6.94927	0.821
6.99018	0.714
7.03108	0.431
7.07198	0.363
7.11289	0.192
7.15379	0.636
7.19469	0.734
7.23559	0.727
7.2765	0.61
7.3174	0.392
7.3583	0.074
7.39921	0.054
7.44011	0.137
7.48101	0.074
7.52192	0.022
7.56282	0.022
7.60372	0.03
7.64463	0.027
7.68553	0.241
7.72643	0.471
7.76733	0.52
7.80824	0.644
7.84914	0.678
7.89004	0.409
7.93095	0.108
7.97185	0.559
8.01275	0.75
8.05366	0.811
8.09456	0.819
8.13546	0.801
8.17637	0.772
8.21727	0.801
8.25817	0.818
8.29907	0.823
8.33998	0.853
8.38088	0.818
8.42178	0.552
8.46269	0.435
8.50359	0.801
8.54449	0.841
8.5854	0.865
8.6263	0.88
8.6672	0.877
8.70811	0.852
8.74901	0.855
8.78991	0.889
8.83081	0.899
8.87172	0.894
8.91262	0.891
8.95352	0.887
8.99443	0.887
9.03533	0.887
9.07623	0.882
9.11714	0.852
9.15804	0.729
9.19894	0.387
9.23985	0.534
9.28075	0.768
9.32165	0.829
9.36256	0.86
9.40346	0.88
9.44436	0.892
9.48526	0.901
9.52617	0.903
9.56707	0.903
9.60797	0.904
9.64888	0.908
9.68978	0.911
9.73068	0.913
9.77159	0.913
9.81249	0.913
9.85339	0.913
9.8943	0.913
9.9352	0.899
9.9761	0.853
10.017	0.744
10.0579	0.374
10.0988	0.142
10.1397	0.442
10.1806	0.664
10.2215	0.777
10.2624	0.831
10.3033	0.862
10.3442	0.879
10.3851	0.882
10.426	0.843
10.4669	0.688
10.5078	0.442
10.5487	0.63
10.5896	0.76
10.6306	0.823
10.6715	0.86
10.7124	0.899
10.7533	0.918
10.7942	0.928
10.8351	0.938
10.876	0.948
10.9169	0.954
10.9578	0.959
10.9987	0.962
11.0396	0.962
11.0805	0.962
11.1214	0.94
11.1623	0.852
11.2032	0.608
11.2441	0.659
11.285	0.848
11.3259	0.925
11.3668	0.95
11.4077	0.962
11.4486	0.969
11.4895	0.971
11.5304	0.977
11.5713	0.981
11.6122	0.982
11.6531	0.988
11.694	0.988
11.7349	0.988
11.7758	0.988
11.8167	0.988
11.8576	0.988
11.8985	0.988
11.9394	0.988
11.9804	0.988
12.0213	0.988
12.0622	0.988
12.1031	0.979
12.144	0.969
12.1849	0.95
12.2258	0.896
12.2667	0.765
12.3076	0.744
12.3485	0.87
12.3894	0.933
12.4303	0.947
12.4712	0.95
12.5121	0.95
12.553	0.952
12.5939	0.952
12.6348	0.95
12.6757	0.948
12.7166	0.914
12.7575	0.75
12.7984	0.547
12.8393	0.7
12.8802	0.852
12.9211	0.903
12.962	0.916
13.0029	0.909
13.0438	0.857
13.0847	0.746
13.1256	0.678
13.1665	0.812
13.2074	0.896
13.2483	0.92
13.2893	0.937
13.3302	0.94
13.3711	0.942
13.412	0.94
13.4529	0.921
13.4938	0.835
13.5347	0.598
13.5756	0.299
13.6165	0.372
13.6574	0.664
13.6983	0.751
13.7392	0.773
13.7801	0.829
13.821	0.889
13.8619	0.918
13.9028	0.92
13.9437	0.92
13.9846	0.921
14.0255	0.921
14.0664	0.92
14.1073	0.918
14.1482	0.918
14.1891	0.918
14.23	0.914
14.2709	0.913
14.3118	0.908
14.3527	0.897
14.3936	0.891
14.4345	0.877
14.4754	0.855
14.5163	0.836
14.5572	0.811
14.5981	0.778
14.6391	0.741
14.68	0.7
14.7209	0.642
14.7618	0.59
14.8027	0.53
14.8436	0.488
14.8845	0.467
14.9254	0.464
14.9663	0.511
15.0072	0.593
15.0481	0.637
15.089	0.664
15.1299	0.681
15.1708	0.693
15.2117	0.7
15.2526	0.698
15.2935	0.695
15.3344	0.692
15.3753	0.685
15.4162	0.676
15.4571	0.676
15.498	0.671
15.5389	0.668
15.5798	0.656
15.6207	0.649
15.6616	0.637
15.7025	0.632
15.7434	0.622
15.7843	0.62
15.8252	0.617
15.8661	0.61
15.907	0.602
