Infrared Spectrum: PHOSPHONIC ACID, MORPHOLINOMETHYLDIETHYL ESTER
Formula: C9 H20 N O4 P
CAS: 27353-29-3
Class: COBLENTZ
Instrument: Not specified, most likely a prism, grating, or hybrid spectrometer.
Sampling: TRANSMISSION
Path length: SMEAR
Resolution: 4
Origin: TENNESSEE EASTMAN COMPANY, RESEARCH LABORATORIES
MICROMETERS	TRANSMITTANCE
2.055	0.995
2.09491	0.993
2.13483	0.993
2.17474	0.991
2.21465	0.988
2.25457	0.963
2.29448	0.946
2.33439	0.945
2.3743	0.943
2.41422	0.941
2.45413	0.941
2.49404	0.941
2.53396	0.941
2.57387	0.946
2.61378	0.961
2.6537	0.975
2.69361	0.98
2.73352	0.983
2.77343	0.976
2.81335	0.955
2.85326	0.896
2.89317	0.865
2.93309	0.841
2.973	0.865
3.01291	0.893
3.05283	0.903
3.09274	0.911
3.13265	0.915
3.17256	0.915
3.21248	0.915
3.25239	0.915
3.2923	0.906
3.33222	0.811
3.37213	0.518
3.41204	0.368
3.45196	0.371
3.49187	0.461
3.53178	0.4
3.57169	0.393
3.61161	0.593
3.65152	0.621
3.69143	0.745
3.73135	0.77
3.77126	0.803
3.81117	0.86
3.85109	0.886
3.891	0.915
3.93091	0.918
3.97082	0.921
4.01074	0.923
4.05065	0.928
4.09056	0.926
4.13048	0.923
4.17039	0.921
4.2103	0.921
4.25022	0.935
4.29013	0.998
4.33004	1.001
4.36996	0.981
4.40987	0.935
4.44978	0.928
4.48969	0.928
4.52961	0.928
4.56952	0.93
4.60943	0.93
4.64935	0.93
4.68926	0.93
4.72917	0.928
4.76909	0.928
4.809	0.928
4.84891	0.93
4.88882	0.931
4.92874	0.931
4.96865	0.931
5.00856	0.931
5.04848	0.92
5.08839	0.901
5.1283	0.915
5.16822	0.913
5.20813	0.911
5.24804	0.91
5.28795	0.91
5.32787	0.91
5.36778	0.908
5.40769	0.906
5.44761	0.903
5.48752	0.903
5.52743	0.9
5.56735	0.9
5.60726	0.9
5.64717	0.9
5.68708	0.903
5.727	0.901
5.76691	0.903
5.80682	0.906
5.84674	0.91
5.88665	0.913
5.92656	0.92
5.96648	0.916
6.00639	0.908
6.0463	0.9
6.08621	0.9
6.12613	0.9
6.16604	0.9
6.20595	0.901
6.24587	0.903
6.28578	0.905
6.32569	0.915
6.36561	0.921
6.40552	0.93
6.44543	0.935
6.48535	0.943
6.52526	0.935
6.56517	0.938
6.60508	0.933
6.645	0.915
6.68491	0.873
6.72482	0.75
6.76474	0.698
6.80465	0.696
6.84456	0.621
6.88448	0.461
6.92439	0.523
6.9643	0.686
7.00421	0.72
7.04413	0.683
7.08404	0.693
7.12395	0.706
7.16387	0.6
7.20378	0.493
7.24369	0.57
7.28361	0.59
7.32352	0.578
7.36343	0.695
7.40334	0.796
7.44326	0.81
7.48317	0.81
7.52308	0.798
7.563	0.715
7.60291	0.6
7.64282	0.571
7.68274	0.506
7.72265	0.373
7.76256	0.236
7.80247	0.378
7.84239	0.378
7.8823	0.246
7.92221	0.181
7.96213	0.201
8.00204	0.151
8.04195	0.161
8.08187	0.248
8.12178	0.258
8.16169	0.253
8.2016	0.3
8.24152	0.446
8.28143	0.458
8.32134	0.621
8.36126	0.7
8.40117	0.706
8.44108	0.701
8.481	0.65
8.52091	0.523
8.56082	0.393
8.60074	0.353
8.64065	0.368
8.68056	0.37
8.72047	0.353
8.76039	0.35
8.8003	0.326
8.84021	0.293
8.88013	0.23
8.92004	0.118
8.95995	0.1
8.99987	0.171
9.03978	0.265
9.07969	0.266
9.1196	0.295
9.15952	0.353
9.19943	0.358
9.23934	0.33
9.27926	0.256
9.31917	0.175
9.35908	0.131
9.399	0.1
9.43891	0.09
9.47882	0.086
9.51873	0.09
9.55865	0.09
9.59856	0.086
9.63847	0.08
9.67839	0.076
9.7183	0.075
9.75821	0.073
9.79813	0.078
9.83804	0.118
9.87795	0.176
9.91786	0.298
9.95778	0.386
9.99769	0.431
10.0376	0.461
10.0775	0.46
10.1174	0.411
10.1573	0.353
10.1973	0.268
10.2372	0.21
10.2771	0.151
10.317	0.12
10.3569	0.108
10.3968	0.105
10.4367	0.105
10.4766	0.11
10.5166	0.131
10.5565	0.15
10.5964	0.175
10.6363	0.201
10.6762	0.245
10.7161	0.288
10.756	0.301
10.796	0.391
10.8359	0.54
10.8758	0.606
10.9157	0.656
10.9556	0.695
10.9955	0.713
11.0354	0.73
11.0753	0.735
11.1153	0.743
11.1552	0.745
11.1951	0.745
11.235	0.743
11.2749	0.74
11.3148	0.721
11.3547	0.655
11.3946	0.526
11.4346	0.398
11.4745	0.251
11.5144	0.201
11.5543	0.188
11.5942	0.245
11.6341	0.391
11.674	0.48
11.714	0.523
11.7539	0.525
11.7938	0.528
11.8337	0.585
11.8736	0.631
11.9135	0.66
11.9534	0.663
11.9933	0.658
12.0333	0.628
12.0732	0.588
12.1131	0.556
12.153	0.54
12.1929	0.515
12.2328	0.483
12.2727	0.438
12.3126	0.388
12.3526	0.345
12.3925	0.326
12.4324	0.326
12.4723	0.361
12.5122	0.4
12.5521	0.426
12.592	0.47
12.6319	0.513
12.6719	0.53
12.7118	0.536
12.7517	0.536
12.7916	0.523
12.8315	0.503
12.8714	0.495
12.9113	0.491
12.9513	0.508
12.9912	0.548
13.0311	0.596
13.071	0.63
13.1109	0.656
13.1508	0.683
13.1907	0.703
13.2306	0.72
13.2706	0.736
13.3105	0.745
13.3504	0.748
13.3903	0.751
13.4302	0.75
13.4701	0.748
13.51	0.74
13.5499	0.73
13.5899	0.718
13.6298	0.7
13.6697	0.69
13.7096	0.683
13.7495	0.68
13.7894	0.676
13.8293	0.676
13.8693	0.678
13.9092	0.685
13.9491	0.695
13.989	0.708
14.0289	0.718
14.0688	0.731
14.1087	0.738
14.1486	0.741
14.1886	0.748
14.2285	0.75
14.2684	0.753
14.3083	0.755
14.3482	0.758
14.3881	0.758
14.428	0.76
14.4679	0.758
14.5079	0.758
14.5478	0.758
14.5877	0.758
14.6276	0.753
14.6675	0.748
14.7074	0.746
14.7473	0.743
14.7873	0.736
14.8272	0.736
14.8671	0.731
14.907	0.725
14.9469	0.7
14.9868	0.691
15.0267	0.69
15.0666	0.691
15.1066	0.691
15.1465	0.688
15.1864	0.681
15.2263	0.673
15.2662	0.668
15.3061	0.658
15.346	0.65
15.3859	0.645
15.4259	0.643
15.4658	0.641
15.5057	0.64
15.5456	0.641
15.5855	0.641
15.6254	0.638
15.6653	0.64
15.7053	0.636
15.7452	0.633
15.7851	0.63
15.825	0.63
15.8649	0.623
15.9048	0.621
15.9447	0.621
15.9846	0.62
