Infrared Spectrum: BUTANOYL CHLORIDE, 2-ETHYL-
Formula: C6 H11 Cl O
CAS: 2736-40-5
State: LIQUID (NEAT)
Class: COBLENTZ III
Instrument: PERKIN-ELMER 521 (GRATING)
Instrument parameters: FILTERS AT 3150, 2500, 2000, 1150, 700, 410 AND GRATING CHANGES AT 2000, 630 CM^-^1
Sampling: TRANSMISSION
Path length: SMEAR, KBr CRYSTALS
Resolution: 4
Origin: STANDARD OIL OF OHIO
1/CM	TRANSMITTANCE
332.26	0.251
341.801	0.323
351.342	0.404
360.883	0.454
370.424	0.489
379.964	0.502
389.505	0.507
399.046	0.508
408.587	0.505
418.128	0.479
427.669	0.405
437.21	0.439
446.751	0.603
456.291	0.727
465.832	0.756
475.373	0.749
484.914	0.752
494.455	0.712
503.996	0.599
513.537	0.705
523.078	0.708
532.618	0.569
542.159	0.354
551.7	0.606
561.241	0.558
570.782	0.442
580.323	0.656
589.864	0.767
599.405	0.768
608.945	0.736
618.486	0.634
628.027	0.616
637.568	0.643
647.109	0.665
656.65	0.63
666.191	0.572
675.732	0.614
685.272	0.477
694.813	0.366
704.354	0.483
713.895	0.634
723.436	0.704
732.977	0.726
742.518	0.717
752.059	0.619
761.599	0.504
771.14	0.468
780.681	0.23
790.222	0.247
799.763	0.227
809.304	0.229
818.845	0.391
828.386	0.489
837.926	0.593
847.467	0.596
857.008	0.569
866.549	0.5051
876.09	0.718
885.631	0.729
895.172	0.696
904.713	0.546
914.253	0.581
923.794	0.532
933.335	0.455
942.876	0.229
952.417	0.175
961.958	0.217
971.499	0.371
981.04	0.511
990.58	0.634
1000.12	0.645
1009.66	0.616
1019.2	0.597
1028.74	0.59
1038.28	0.569
1047.83	0.662
1057.37	0.758
1066.91	0.763
1076.45	0.756
1085.99	0.713
1095.53	0.688
1105.07	0.692
1114.61	0.63
1124.15	0.532
1133.69	0.373
1143.23	0.443
1152.78	0.514
1162.32	0.736
1171.86	0.799
1181.4	0.799
1190.94	0.787
1200.48	0.779
1210.02	0.768
1219.56	0.758
1229.1	0.711
1238.64	0.643
1248.18	0.621
1257.73	0.6011
1267.27	0.744
1276.81	0.77
1286.35	0.758
1295.89	0.742
1305.43	0.754
1314.97	0.726
1324.51	0.719
1334.05	0.645
1343.59	0.681
1353.13	0.673
1362.67	0.718
1372.22	0.6669
1381.76	0.411
1391.3	0.6561
1400.84	0.744
1410.38	0.748
1419.92	0.725
1429.46	0.67
1439	0.5069
1448.54	0.3779
1458.08	0.247
1467.62	0.4631
1477.17	0.665
1486.71	0.749
1496.25	0.786
1505.79	0.805
1515.33	0.813
1524.87	0.819
1534.41	0.818
1543.95	0.823
1553.49	0.817
1563.03	0.822
1572.57	0.824
1582.11	0.828
1591.66	0.826
1601.2	0.824
1610.74	0.821
1620.28	0.815
1629.82	0.809
1639.36	0.804
1648.9	0.805
1658.44	0.813
1667.98	0.813
1677.52	0.806
1687.06	0.798
1696.61	0.761
1706.15	0.725
1715.69	0.682
1725.23	0.622
1734.77	0.511
1744.31	0.384
1753.85	0.315
1763.39	0.295
1772.93	0.251
1782.47	0.126
1792.01	0.085
1801.55	0.094
1811.1	0.158
1820.64	0.2801
1830.18	0.429
1839.72	0.56
1849.26	0.613
1858.8	0.655
1868.34	0.699
1877.88	0.707
1887.42	0.705
1896.96	0.705
1906.5	0.708
1916.05	0.736
1925.59	0.763
1935.13	0.801
1944.67	0.821
1954.21	0.837
1963.75	0.838
1973.29	0.838
1982.83	0.838
1992.37	0.838
2001.91	0.847
2011.45	0.848
2021	0.848
2030.54	0.848
2040.08	0.844
2049.62	0.847
2059.16	0.846
2068.7	0.847
2078.24	0.847
2087.78	0.847
2097.32	0.847
2106.86	0.849
2116.4	0.85
2125.94	0.85
2135.49	0.848
2145.03	0.848
2154.57	0.843
2164.11	0.842
2173.65	0.84
2183.19	0.836
2192.73	0.834
2202.27	0.831
2211.81	0.831
2221.35	0.831
2230.89	0.836
2240.44	0.84
2249.98	0.841
2259.52	0.841
2269.06	0.841
2278.6	0.841
2288.14	0.841
2297.68	0.8421
2307.22	0.847
2316.76	0.848
2326.3	0.848
2335.84	0.847
2345.38	0.846
2354.93	0.844
2364.47	0.844
2374.01	0.843
2383.55	0.842
2393.09	0.843
2402.63	0.843
2412.17	0.844
2421.71	0.846
2431.25	0.846
2440.79	0.8459
2450.33	0.832
2459.88	0.83
2469.42	0.826
2478.96	0.8261
2488.5	0.829
2498.04	0.829
2507.58	0.829
2517.12	0.829
2526.66	0.829
2536.2	0.826
2545.74	0.824
2555.28	0.823
2564.83	0.822
2574.37	0.822
2583.91	0.822
2593.45	0.822
2602.99	0.8211
2612.53	0.822
2622.07	0.822
2631.61	0.822
2641.15	0.818
2650.69	0.8169
2660.23	0.812
2669.77	0.81
2679.32	0.809
2688.86	0.807
2698.4	0.805
2707.94	0.8028
2717.48	0.7979
2727.02	0.7847
2736.56	0.7691
2746.1	0.7523
2755.64	0.7721
2765.18	0.772
2774.72	0.7679
2784.27	0.7619
2793.81	0.761
2803.35	0.76
2812.89	0.7569
2822.43	0.7403
2831.97	0.6919
2841.51	0.6577
2851.05	0.5883
2860.59	0.4513
2870.13	0.3178
2879.67	0.3295
2889.21	0.445
2898.76	0.4165
2908.3	0.3956
2917.84	0.3437
2927.38	0.221
2936.92	0.2123
2946.46	0.2559
2956	0.1618
2965.54	0.1078
2975.08	0.1925
2984.62	0.3981
2994.16	0.5831
3003.71	0.6653
3013.25	0.7198
3022.79	0.7513
3032.33	0.7643
3041.87	0.7722
3051.41	0.7801
3060.95	0.7862
3070.49	0.7921
3080.03	0.794
3089.57	0.799
3099.11	0.8012
3108.66	0.805
3118.2	0.8102
3127.74	0.8103
3137.28	0.803
3146.82	0.8041
3156.36	0.8061
3165.9	0.8111
3175.44	0.816
3184.98	0.8184
3194.52	0.8231
3204.06	0.824
3213.6	0.8251
3223.15	0.828
3232.69	0.829
3242.23	0.8291
3251.77	0.83
3261.31	0.83
3270.85	0.83
3280.39	0.83
3289.93	0.83
3299.47	0.83
3309.01	0.83
3318.55	0.83
3328.1	0.829
3337.64	0.829
3347.18	0.829
3356.72	0.829
3366.26	0.829
3375.8	0.828
3385.34	0.829
3394.88	0.829
3404.42	0.829
3413.96	0.829
3423.5	0.829
3433.04	0.829
3442.59	0.829
3452.13	0.828
3461.67	0.828
3471.21	0.826
3480.75	0.825
3490.29	0.8248
3499.83	0.822
3509.37	0.8185
3518.91	0.8024
3528.45	0.7899
3537.99	0.7739
3547.54	0.7597
3557.08	0.755
3566.62	0.7562
3576.16	0.7632
3585.7	0.7733
3595.24	0.7923
3604.78	0.8093
3614.32	0.8173
3623.86	0.8242
3633.4	0.8288
3642.94	0.8185
3652.48	0.831
3662.03	0.8276
3671.57	0.828
3681.11	0.829
3690.65	0.829
3700.19	0.8282
3709.73	0.828
3719.27	0.828
3728.81	0.826
3738.35	0.828
3747.89	0.8302
3757.43	0.835
3766.98	0.835
3776.52	0.832
3786.06	0.8308
3795.6	0.829
3805.14	0.8276
3814.68	0.826
3824.22	0.828
3833.76	0.828
3843.3	0.828
3852.84	0.8362
3862.38	0.837
3871.93	0.838
3881.47	0.8402
3891.01	0.8412
3900.55	0.8432
