Infrared Spectrum: 2,6-Dimethyl-3-heptene
Formula: C 9 H 18
CAS: 2738-18-3
State: gas
Instrument: HP-GC/MS/IRD
Origin: NIST Mass Spectrometry Data Center
1/CM	ABSORBANCE
550	0.0001462
562	0
574	5.59e-05
586	0.0001634
598	0.0001548
610	0.0001892
622	0.0002021
634	0.0001462
646	0.0001075
658	0.000172
670	0.0001935
682	0.0001849
694	0.0001677
706	0.0001634
718	0.0002365
730	0.0002666
742	0.0002494
754	0.0002623
766	0.000258
778	0.0002881
790	0.000215
802	0.0002666
814	0.0003096
826	0.0001462
838	0.0003311
850	0.000387
862	0.0003655
874	0.0003956
886	0.00043
898	0.0004859
910	0.0007138
922	0.0010965
934	0.0014706
946	0.0025155
958	0.0045451
970	0.0054567
982	0.0033153
994	0.001462
1006	0.0008944
1018	0.0008084
1030	0.0009718
1042	0.0008342
1054	0.0005504
1066	0.0005031
1078	0.0006149
1090	0.0008213
1102	0.0009417
1114	0.000989
1126	0.0006923
1138	0.0007095
1150	0.0009073
1162	0.0015308
1174	0.0013631
1186	0.0007138
1198	0.0004773
1210	0.0005418
1222	0.0006493
1234	0.000602
1246	0.0006321
1258	0.0008557
1270	0.0008772
1282	0.0008944
1294	0.0010793
1306	0.0013459
1318	0.0014233
1330	0.0016813
1342	0.0017673
1354	0.0020984
1366	0.0029455
1378	0.0037195
1390	0.0033755
1402	0.0016469
1414	0.0010191
1426	0.0011868
1438	0.0020038
1450	0.0031347
1462	0.0043516
1474	0.003999
1486	0.002064
1498	0.0009288
1510	0.0005117
1522	0.0003526
1534	0.0002752
1546	0.0002494
1558	0.0002021
1570	0.0001677
1582	0.0001935
1594	0.0001849
1606	0.0002193
1618	0.0002236
1630	0.0002322
1642	0.0002623
1654	0.0002408
1666	0.0002408
1678	0.0002322
1690	0.0002236
1702	0.0002537
1714	0.0002838
1726	0.0003096
1738	0.0003268
1750	0.0002752
1762	0.0002107
1774	0.0002021
1786	0.0002021
1798	0.0002107
1810	0.000215
1822	0.0001763
1834	0.0001505
1846	0.0001376
1858	0.0001376
1870	0.0001118
1882	9.46e-05
1894	6.02e-05
1906	4.73e-05
1918	4.3e-05
1930	4.73e-05
1942	2.58e-05
1954	3.01e-05
1966	1.29e-05
1978	2.58e-05
1990	1.72e-05
2002	3.01e-05
2014	3.87e-05
2026	3.44e-05
2038	1.72e-05
2050	5.59e-05
2062	3.44e-05
2074	3.01e-05
2086	2.15e-05
2098	2.15e-05
2110	2.58e-05
2122	1.29e-05
2134	1.29e-05
2146	4.3e-05
2158	3.01e-05
2170	1.72e-05
2182	4.3e-06
2194	2.15e-05
2206	3.44e-05
2218	3.44e-05
2230	2.15e-05
2242	3.44e-05
2254	4.3e-05
2266	3.01e-05
2278	3.01e-05
2290	3.44e-05
2302	2.58e-05
2314	3.87e-05
2326	4.3e-06
2338	1.29e-05
2350	1.72e-05
2362	5.16e-05
2374	8.6e-05
2386	5.59e-05
2398	6.45e-05
2410	5.16e-05
2422	7.31e-05
2434	7.31e-05
2446	7.74e-05
2458	9.89e-05
2470	0.0001118
2482	0.0001032
2494	8.6e-05
2506	0.0001333
2518	9.89e-05
2530	0.0001161
2542	0.0001376
2554	0.0001892
2566	0.0002279
2578	0.0002279
2590	0.0002752
2602	0.0002709
2614	0.0002752
2626	0.000258
2638	0.0002795
2650	0.0002795
2662	0.0002924
2674	0.0002752
2686	0.0003053
2698	0.0003354
2710	0.0004601
2722	0.0006235
2734	0.0007095
2746	0.0006493
2758	0.000645
2770	0.0007138
2782	0.0007525
2794	0.0008858
2806	0.0011696
2818	0.0015566
2830	0.0023908
2842	0.0039259
2854	0.005289
2866	0.0086172
2878	0.0139492
2890	0.0149124
2902	0.0164991
2914	0.0168818
2926	0.0170323
2938	0.0191995
2950	0.0246132
2962	0.0408156
2974	0.0341592
2986	0.0124098
2998	0.0056545
3010	0.0037023
3022	0.0031476
3034	0.0025929
3046	0.001849
3058	0.001247
3070	0.0010062
3082	0.0009374
3094	0.0008299
3106	0.0007181
3118	0.0006407
3130	0.0006106
3142	0.0005977
3154	0.0005848
3166	0.0005977
3178	0.0006149
3190	0.000559
3202	0.0004945
3214	0.0004343
3226	0.0002967
3238	0.000258
3250	0.0002064
3262	0.0001677
3274	0.0001548
3286	0.0001247
3298	0.0001591
3310	0.0001548
3322	0.0001548
3334	0.0001763
3346	0.0001462
3358	0.0001677
3370	0.0001505
3382	0.000129
3394	0.0001634
3406	0.0001333
3418	9.03e-05
3430	0.0001118
3442	7.74e-05
3454	5.59e-05
3466	3.01e-05
3478	9.89e-05
3490	1.29e-05
3502	4.3e-05
3514	6.45e-05
3526	5.59e-05
3538	3.01e-05
3550	6.02e-05
3562	3.87e-05
3574	6.02e-05
3586	3.44e-05
3598	8.17e-05
3610	6.88e-05
3622	2.15e-05
3634	6.45e-05
3646	2.58e-05
3658	7.31e-05
3670	5.16e-05
3682	6.02e-05
3694	3.87e-05
3706	5.16e-05
3718	5.16e-05
3730	7.31e-05
3742	9.46e-05
3754	6.45e-05
3766	0.0001419
3778	9.89e-05
3790	8.17e-05
3802	9.89e-05
3814	0.0001376
3826	0.0001763
3838	0.000172
