Infrared Spectrum: 2-Methyl-2-hexene
Formula: C 7 H 14
CAS: 2738-19-4
State: gas
Instrument: HP-GC/MS/IRD
Origin: NIST Mass Spectrometry Data Center
1/CM	ABSORBANCE
550	0.0004522
562	0.0003128
574	0.0001734
586	0.0001632
598	0.0001904
610	8.16e-05
622	5.1e-05
634	6.46e-05
646	6.46e-05
658	6.8e-05
670	0.0001394
682	0.0001258
694	0.0001394
706	0.0002108
718	0.000391
730	0.0006052
742	0.0007038
754	0.0006766
766	0.0008466
778	0.0009928
790	0.000986
802	0.0011458
814	0.0012988
826	0.0014178
838	0.0012036
850	0.001054
862	0.001309
874	0.0014994
886	0.0015912
898	0.0012002
910	0.0007514
922	0.0004522
934	0.000408
946	0.0003876
958	0.0004488
970	0.0005134
982	0.0006052
994	0.0005372
1006	0.000374
1018	0.0003434
1030	0.000357
1042	0.00051
1054	0.0007276
1066	0.0011254
1078	0.0014654
1090	0.0013056
1102	0.0014144
1114	0.0019346
1126	0.001666
1138	0.0007684
1150	0.0003706
1162	0.00034
1174	0.0004658
1186	0.0007616
1198	0.0008738
1210	0.000782
1222	0.0005848
1234	0.0006528
1246	0.0007004
1258	0.0007242
1270	0.0008704
1282	0.0008058
1294	0.0006528
1306	0.0008398
1318	0.0011628
1330	0.0014178
1342	0.0014654
1354	0.001751
1366	0.0028662
1378	0.0043486
1390	0.00442
1402	0.0026962
1414	0.0020502
1426	0.002635
1438	0.0039236
1450	0.0050864
1462	0.0050422
1474	0.0037774
1486	0.0023358
1498	0.001462
1510	0.0010608
1522	0.0008398
1534	0.0007718
1546	0.0007378
1558	0.000748
1570	0.0005916
1582	0.0005916
1594	0.0005746
1606	0.000527
1618	0.0005032
1630	0.0004998
1642	0.0005304
1654	0.0006562
1666	0.0007888
1678	0.00068
1690	0.0003672
1702	0.0002686
1714	0.0001938
1726	0.0001462
1738	0.0001632
1750	0.0001462
1762	0.000119
1774	9.86e-05
1786	7.82e-05
1798	7.48e-05
1810	7.14e-05
1822	8.84e-05
1834	7.48e-05
1846	0.0001088
1858	8.84e-05
1870	9.52e-05
1882	5.44e-05
1894	7.82e-05
1906	7.48e-05
1918	5.78e-05
1930	7.48e-05
1942	7.82e-05
1954	5.78e-05
1966	7.48e-05
1978	4.42e-05
1990	4.76e-05
2002	4.08e-05
2014	2.04e-05
2026	6.12e-05
2038	3.4e-05
2050	1.02e-05
2062	2.72e-05
2074	3.06e-05
2086	2.38e-05
2098	2.04e-05
2110	3.4e-06
2122	4.76e-05
2134	4.76e-05
2146	7.48e-05
2158	5.78e-05
2170	6.12e-05
2182	1.7e-05
2194	3.06e-05
2206	5.1e-05
2218	4.42e-05
2230	2.72e-05
2242	4.42e-05
2254	4.76e-05
2266	6.12e-05
2278	4.42e-05
2290	4.08e-05
2302	2.72e-05
2314	6.12e-05
2326	7.82e-05
2338	0.0001156
2350	0.0001122
2362	0.00017
2374	0.0001462
2386	0.0001394
2398	0.0001054
2410	0.0001428
2422	0.0001462
2434	0.0001292
2446	0.0001224
2458	0.0001326
2470	0.000119
2482	0.0001292
2494	0.0001564
2506	0.0001326
2518	0.000153
2530	0.0001802
2542	0.0001802
2554	0.0001836
2566	0.0001972
2578	0.0002312
2590	0.000238
2602	0.0002482
2614	0.0002108
2626	0.0002516
2638	0.0002992
2650	0.0003366
2662	0.0003638
2674	0.0003774
2686	0.000425
2698	0.0004862
2710	0.0006494
2722	0.0008704
2734	0.0012138
2746	0.0012784
2758	0.001122
2770	0.0010914
2782	0.0012988
2794	0.0016932
2806	0.0021114
2818	0.0028424
2830	0.0041378
2842	0.0066844
2854	0.0112948
2866	0.0173468
2878	0.021216
2890	0.0207706
2902	0.0207468
2914	0.02584
2926	0.0321572
2938	0.0333608
2950	0.029937
2962	0.032606
2974	0.0312766
2986	0.0214846
2998	0.0128146
3010	0.0083198
3022	0.0060826
3034	0.0049912
3046	0.0041072
3058	0.0032878
3070	0.0025806
3082	0.0020128
3094	0.0016592
3106	0.0014246
3118	0.0011764
3130	0.000935
3142	0.0007514
3154	0.0005848
3166	0.0005576
3178	0.0004964
3190	0.000408
3202	0.0003638
3214	0.0003332
3226	0.0002414
3238	0.000204
3250	0.000204
3262	0.0001938
3274	0.0001496
3286	0.0002006
3298	0.0002278
3310	0.000187
3322	0.0001462
3334	0.0001462
3346	0.0001768
3358	0.0001462
3370	0.0001666
3382	0.0001768
3394	0.0001598
3406	0.000119
3418	0.0001564
3430	0.000136
3442	0.0001054
3454	0.0001428
3466	0.0001224
3478	0.0001258
3490	0.000102
3502	7.82e-05
3514	0.0001088
3526	0.0001292
3538	9.52e-05
3550	0.0001394
3562	4.08e-05
3574	0.0001088
3586	0.0001156
3598	9.86e-05
3610	7.14e-05
3622	0.0001156
3634	0.0001734
3646	0.0001666
3658	0.0001768
3670	0.0001666
3682	0.0001666
3694	0.0001938
3706	0.0002312
3718	0.0001666
3730	0.00017
3742	0.000187
3754	0.000221
3766	0.0002312
3778	0.0001768
3790	0.0001768
3802	0.0002108
3814	0.0002516
3826	0.0002176
3838	0.0002312
