Infrared Spectrum: Quinoline, 1,2,3,4-tetrahydro-, hydrochloride
Formula: C9 H12 Cl N
CAS: 2739-17-5
State: SOLID (KBr DISC, 0.9% WT.)
Class: COBLENTZ III
Instrument: PERKIN-ELMER 157
Sampling: TRANSMISSION
Resolution: 2
Origin: BRITISH PETROLEUM CO. LTD., ENGLAND
1/CM	TRANSMITTANCE
667	0.8862
676	0.8418
685	0.802
694	0.6826
703	0.7082
712	0.6842
721	0.4696
730	0.5169
739	0.3578
748	0.0316
757	0.0182
766	0.5733
775	0.8426
784	0.8423
793	0.8244
802	0.7211
811	0.279
820	0.8202
829	0.7962
838	0.7175
847	0.6392
856	0.7815
865	0.7156
874	0.6499
883	0.7392
892	0.726
901	0.6964
910	0.6777
919	0.6055
928	0.6505
937	0.5008
946	0.4654
955	0.5657
964	0.4428
973	0.6171
982	0.6045
991	0.3337
1000	0.568
1009	0.6584
1018	0.6517
1027	0.6314
1036	0.5646
1045	0.6177
1054	0.4475
1063	0.1725
1072	0.6585
1081	0.665
1090	0.5442
1099	0.656
1108	0.5534
1117	0.6065
1126	0.5966
1135	0.5781
1144	0.5427
1153	0.3665
1162	0.3904
1171	0.126
1180	0.5799
1189	0.4188
1198	0.5371
1207	0.6038
1216	0.6049
1225	0.5813
1234	0.5725
1243	0.5426
1252	0.4682
1261	0.4796
1270	0.3374
1279	0.4803
1288	0.4686
1297	0.308
1306	0.48
1315	0.4862
1324	0.4639
1333	0.3878
1342	0.2384
1351	0.2193
1360	0.4618
1369	0.4203
1378	0.3737
1387	0.358
1396	0.286
1405	0.3212
1414	0.2707
1423	0.0977
1432	0.1499
1441	0.1769
1450	0.0958
1459	0.0297
1468	0.2043
1477	0.3535
1486	0.2672
1495	0.1258
1504	0.4692
1513	0.5221
1522	0.5017
1531	0.462
1540	0.3618
1549	0.242
1558	0.1574
1567	0.5001
1576	0.5477
1585	0.444
1594	0.4363
1603	0.4195
1612	0.4581
1621	0.525
1630	0.541
1639	0.5469
1648	0.5474
1657	0.5443
1666	0.5335
1675	0.5239
1684	0.524
1693	0.5255
1702	0.5293
1711	0.531
1720	0.53
1729	0.5137
1738	0.4951
1747	0.4874
1756	0.488
1765	0.484
1774	0.4767
1783	0.4741
1792	0.4799
1801	0.4746
1810	0.4526
1819	0.4301
1828	0.4035
1837	0.4004
1846	0.4137
1855	0.4172
1864	0.3965
1873	0.3398
1882	0.3257
1891	0.3586
1900	0.3911
1909	0.396
1918	0.3924
1927	0.4032
1936	0.4068
1945	0.3962
1954	0.3893
1963	0.4061
1972	0.4056
1981	0.3975
1990	0.3705
1999	0.3224
2008	0.3006
2017	0.312
2026	0.3202
2035	0.3432
2044	0.3284
2053	0.3001
2062	0.2868
2071	0.3325
2080	0.3387
2089	0.3343
2098	0.3287
2107	0.3214
2116	0.3104
2125	0.3
2134	0.2844
2143	0.2675
2152	0.2536
2161	0.2596
2170	0.2635
2179	0.2583
2188	0.2535
2197	0.2479
2206	0.2408
2215	0.2289
2224	0.212
2233	0.1958
2242	0.1782
2251	0.1495
2260	0.1481
2269	0.1494
2278	0.1468
2287	0.126
2296	0.1158
2305	0.1002
2314	0.0973
2323	0.0965
2332	0.0781
2341	0.0616
2350	0.052
2359	0.0449
2368	0.0383
2377	0.0318
2386	0.029
2395	0.029
2404	0.0297
2413	0.024
2422	0.0151
2431	0.0121
2440	0.0116
2449	0.0116
2458	0.0115
2467	0.0115
2476	0.0115
2485	0.0115
2494	0.0116
2503	0.0116
2512	0.0117
2521	0.0118
2530	0.0118
2539	0.0118
2548	0.0118
2557	0.0119
2566	0.0119
2575	0.0119
2584	0.012
2593	0.0119
2602	0.0119
2611	0.0118
2620	0.0118
2629	0.0117
2638	0.0117
2647	0.0117
2656	0.0118
2665	0.0119
2674	0.012
2683	0.0121
2692	0.0126
2701	0.0132
2710	0.0157
2719	0.02
2728	0.025
2737	0.0274
2746	0.0285
2755	0.029
2764	0.0293
2773	0.0293
2782	0.0291
2791	0.029
2800	0.0288
2809	0.0286
2818	0.0284
2827	0.0282
2836	0.028
2845	0.0282
2854	0.0285
2863	0.0296
2872	0.0315
2881	0.0351
2890	0.0402
2899	0.0491
2908	0.0759
2917	0.1002
2926	0.1422
2935	0.1842
2944	0.2262
2953	0.2678
2962	0.3047
2971	0.3321
2980	0.3575
2989	0.3573
2998	0.3562
3007	0.3543
3016	0.3552
3025	0.4
3034	0.462
3043	0.4739
3052	0.474
3061	0.4703
3070	0.4671
3079	0.4855
3088	0.5212
3097	0.5352
3106	0.5377
3115	0.5379
3124	0.5373
3133	0.536
3142	0.5341
3151	0.5312
3160	0.5272
3169	0.5219
3178	0.5168
3187	0.5121
3196	0.5105
3205	0.5098
3214	0.5075
3223	0.5003
3232	0.4933
3241	0.4863
3250	0.4802
3259	0.4745
3268	0.4688
3277	0.4633
3286	0.4577
3295	0.4523
3304	0.4466
3313	0.4405
3322	0.4336
3331	0.4265
3340	0.4192
3349	0.4092
3358	0.4009
3367	0.3965
3376	0.3939
3385	0.3929
3394	0.392
3403	0.3912
3412	0.3905
3421	0.3904
3430	0.3903
3439	0.3902
3448	0.3902
3457	0.3906
3466	0.3911
3475	0.3916
3484	0.3921
3493	0.3927
3502	0.3937
3511	0.3947
3520	0.3958
3529	0.3971
3538	0.3986
3547	0.3996
3556	0.4
3565	0.4003
3574	0.4002
3583	0.4001
3592	0.4001
3601	0.4
3610	0.3998
3619	0.3993
3628	0.3989
3637	0.3982
3646	0.3972
3655	0.396
3664	0.3949
3673	0.3932
3682	0.3913
3691	0.3889
3700	0.3861
3709	0.3832
3718	0.3803
3727	0.3771
3736	0.3741
3745	0.371
3754	0.3681
3763	0.365
3772	0.3623
3781	0.36
3790	0.3575
3799	0.3551
3808	0.3533
3817	0.3516
3826	0.3499
3835	0.3482
3844	0.3458
3853	0.3435
3862	0.3414
3871	0.3396
3880	0.3378
3889	0.336
3898	0.3342
3907	0.3327
3916	0.3312
3925	0.3296
3934	0.3281
3943	0.3266
3952	0.325
3961	0.3234
3970	0.3216
3979	0.3198
3988	0.318
3997	0.3167
