Infrared Spectrum: 2-Chlorophenyl isothiocyanate
Formula: C 7 H 4 Cl N S
CAS: 2740-81-0
State: gas
Origin: EPA-IR VAPOR PHASE LIBRARY
1/CM	ABSORBANCE
549.8	0.014736
559.445	0.014706
569.09	0.014336
578.734	0.012866
588.379	0.008696
598.024	0.006366
607.669	0.005006
617.313	0.003506
626.958	0.003206
636.603	0.003126
646.248	0.003856
655.893	0.012376
665.537	0.015656
675.182	0.005656
684.827	0.002746
694.472	0.004656
704.116	0.008676
713.761	0.011626
723.406	0.025156
733.051	0.045516
742.695	0.072506
752.34	0.079426
761.985	0.030116
771.63	0.004786
781.275	0.002606
790.919	0.003676
800.564	0.003006
810.209	0.001386
819.854	0.0010423
829.498	0.000984
839.143	0.001596
848.788	0.001616
858.433	0.001886
868.078	0.001746
877.722	0.002096
887.367	0.002476
897.012	0.003686
906.657	0.004666
916.301	0.006256
925.946	0.012406
935.591	0.029136
945.236	0.041056
954.88	0.029546
964.525	0.014686
974.17	0.007196
983.815	0.004176
993.46	0.003286
1003.1	0.003466
1012.75	0.004346
1022.39	0.007776
1032.04	0.009786
1041.68	0.007376
1051.33	0.007786
1060.97	0.023256
1070.62	0.030056
1080.26	0.016406
1089.91	0.004436
1099.55	0.001716
1109.2	0.001846
1118.84	0.003376
1128.49	0.006776
1138.13	0.006206
1147.78	0.003306
1157.42	0.002216
1167.07	0.001306
1176.71	0.001266
1186.36	0.001336
1196	0.001486
1205.64	0.001306
1215.29	0.001376
1224.93	0.001796
1234.58	0.003016
1244.22	0.004466
1253.87	0.004526
1263.51	0.004286
1273.16	0.006066
1282.8	0.008186
1292.45	0.006386
1302.09	0.002796
1311.74	0.001696
1321.38	0.001446
1331.03	0.001276
1340.67	0.0009134
1350.32	0.0008441
1359.96	0.0009923
1369.61	0.001716
1379.25	0.002876
1388.9	0.002596
1398.54	0.002486
1408.18	0.003316
1417.83	0.003376
1427.47	0.006726
1437.12	0.017946
1446.76	0.019156
1456.41	0.015176
1466.05	0.046016
1475.7	0.074786
1485.34	0.037106
1494.99	0.012526
1504.63	0.009436
1514.28	0.005436
1523.92	0.003586
1533.57	0.003166
1543.21	0.003336
1552.86	0.004746
1562.5	0.009646
1572.15	0.022086
1581.79	0.037166
1591.44	0.028416
1601.08	0.014216
1610.73	0.007646
1620.37	0.003786
1630.01	0.002296
1639.66	0.001696
1649.3	0.001486
1658.95	0.001606
1668.59	0.002136
1678.24	0.003276
1687.88	0.003566
1697.53	0.003076
1707.17	0.003276
1716.82	0.003166
1726.46	0.002836
1736.11	0.002556
1745.75	0.002236
1755.4	0.002206
1765.04	0.002296
1774.69	0.002916
1784.33	0.004196
1793.98	0.004476
1803.62	0.003956
1813.27	0.004526
1822.91	0.005206
1832.55	0.005016
1842.2	0.004976
1851.84	0.005686
1861.49	0.007196
1871.13	0.009806
1880.78	0.011336
1890.42	0.012136
1900.07	0.014696
1909.71	0.016456
1919.36	0.017716
1929	0.023086
1938.65	0.033006
1948.29	0.041636
1957.94	0.051746
1967.58	0.068976
1977.23	0.093616
1986.87	0.129466
1996.52	0.177436
2006.16	0.229796
2015.81	0.281056
2025.45	0.348966
2035.1	0.467536
2044.74	0.617026
2054.38	0.613326
2064.03	0.418356
2073.67	0.266176
2083.32	0.211286
2092.96	0.219476
2102.61	0.243116
2112.25	0.238786
2121.9	0.195326
2131.54	0.143106
2141.19	0.105346
2150.83	0.079146
2160.48	0.056826
2170.12	0.042246
2179.77	0.036686
2189.41	0.033906
2199.06	0.028826
2208.7	0.023096
2218.35	0.020196
2227.99	0.017646
2237.64	0.013246
2247.28	0.008426
2256.92	0.005576
2266.57	0.004226
2276.21	0.003596
2285.86	0.003456
2295.5	0.003596
2305.15	0.003926
2314.79	0.004206
2324.44	0.003786
2334.08	0.003426
2343.73	0.003616
2353.37	0.003906
2363.02	0.003836
2372.66	0.003446
2382.31	0.003066
2391.95	0.002686
2401.6	0.002596
2411.24	0.002686
2420.89	0.002686
2430.53	0.002656
2440.18	0.002916
2449.82	0.003236
2459.47	0.003336
2469.11	0.003306
2478.75	0.003396
2488.4	0.003846
2498.04	0.004026
2507.69	0.004476
2517.33	0.005246
2526.98	0.005966
2536.62	0.006496
2546.27	0.006626
2555.91	0.006886
2565.56	0.007346
2575.2	0.007796
2584.85	0.007846
2594.49	0.006616
2604.14	0.005036
2613.78	0.003436
2623.43	0.002316
2633.07	0.001956
2642.72	0.001956
2652.36	0.001946
2662.01	0.002016
2671.65	0.002006
2681.29	0.001986
2690.94	0.002226
2700.58	0.002536
2710.23	0.003276
2719.87	0.003676
2729.52	0.003416
2739.16	0.003406
2748.81	0.003706
2758.45	0.004086
2768.1	0.004556
2777.74	0.004706
2787.39	0.004066
2797.03	0.002636
2806.68	0.001786
2816.32	0.001446
2825.97	0.001316
2835.61	0.0012432
2845.26	0.001306
2854.9	0.0010634
2864.55	0.0009419
2874.19	0.0007879
2883.84	0.0007393
2893.48	0.00064
2903.12	0.0008939
2912.77	0.0009625
2922.41	0.0010398
2932.06	0.0011537
2941.7	0.001356
2951.35	0.001556
2960.99	0.001586
2970.64	0.001876
2980.28	0.002196
2989.93	0.002886
2999.57	0.002956
3009.22	0.002746
3018.86	0.003066
3028.51	0.003096
3038.15	0.002916
3047.8	0.002836
3057.44	0.004216
3067.09	0.010146
3076.73	0.016376
3086.38	0.012556
3096.02	0.005196
3105.67	0.002256
3115.31	0.0012239
3124.95	0.0010668
3134.6	0.001156
3144.24	0.0010086
3153.89	0.0005077
3163.53	0.0005377
3173.18	0.00025681
3182.82	0.0002103
3192.47	0.00031697
3202.11	0.0001962
3211.76	6e-05
3221.4	4.7e-05
3231.05	0.0001703
3240.69	0.000163
3250.34	0.0002132
3259.98	0.000156
3269.63	0.0001682
3279.27	0.0001761
3288.92	0.0001748
3298.56	0.0003753
3308.21	0.000159
3317.85	0.000271764
3327.49	0.000163
3337.14	0.000141
3346.78	0.00031221
3356.43	0.0001
3366.07	0.00034474
3375.72	0.00029583
3385.36	0.00029892
3395.01	0.0001916
3404.65	0.0002454
3414.3	0.00032386
3423.94	0.00032821
3433.59	0.0004016
3443.23	0.00036056
3452.88	0.0004704
3462.52	0.0003854
3472.17	0.0002097
3481.81	0.0004093
3491.46	0.0004145
3501.1	0.0004585
3510.75	0.0005186
3520.39	0.0005145
3530.04	0.00034237
3539.68	0.000583
3549.32	0.0006159
3558.97	0.000541
3568.61	0.0005696
3578.26	0.000399
3587.9	0.0003706
3597.55	0.0005259
3607.19	0.0004878
3616.84	0.0003964
3626.48	0.00033575
3636.13	0.0005308
3645.77	0.0006306
3655.42	0.0005899
3665.06	0.00025683
3674.71	0.0005425
3684.35	0.000538
3694	0.0004427
3703.64	0.0006837
3713.29	0.0006961
3722.93	0.0006952
3732.58	0.0007352
3742.22	0.0005816
3751.86	0.0007498
3761.51	0.0007382
3771.15	0.000707
3780.8	0.0007784
3790.44	0.0009414
3800.09	0.0008297
3809.73	0.0008116
3819.38	0.0006022
3829.02	0.0007666
3838.67	0.0005283
3848.31	0.000407
3857.96	0.0008532
3867.6	0.0007933
3877.25	0.0009377
3886.89	0.0008929
3896.54	0.0007512
3906.18	0.0008935
3915.83	0.0011825
3925.47	0.0010904
3935.12	0.0010306
3944.76	0.001396
3954.41	0.001476
3964.05	0.001556
3973.69	0.001556
3983.34	0.001696
3992.98	0.001996
