Infrared Spectrum: 4-Fluorobenzyl isothiocyanate
Formula: C 8 H 6 F N S
CAS: 2740-88-7
State: gas
Origin: EPA-IR VAPOR PHASE LIBRARY
1/CM	ABSORBANCE
549.8	0.013884
559.445	0.015674
569.09	0.016144
578.734	0.013874
588.379	0.010684
598.024	0.007654
607.669	0.005524
617.313	0.003574
626.958	0.002814
636.603	0.002954
646.248	0.002964
655.893	0.003784
665.537	0.005814
675.182	0.009244
684.827	0.011854
694.472	0.010764
704.116	0.008904
713.761	0.009914
723.406	0.013644
733.051	0.013134
742.695	0.010874
752.34	0.010774
761.985	0.010934
771.63	0.008534
781.275	0.006114
790.919	0.006834
800.564	0.011344
810.209	0.020814
819.854	0.029354
829.498	0.033164
839.143	0.033294
848.788	0.033034
858.433	0.014324
868.078	0.005134
877.722	0.003114
887.367	0.002304
897.012	0.002284
906.657	0.002264
916.301	0.002714
925.946	0.003164
935.591	0.003114
945.236	0.003104
954.88	0.002494
964.525	0.002484
974.17	0.002074
983.815	0.001934
993.46	0.001884
1003.1	0.002714
1012.75	0.007624
1022.39	0.005924
1032.04	0.002234
1041.68	0.002124
1051.33	0.002534
1060.97	0.002324
1070.62	0.002634
1080.26	0.003724
1089.91	0.004574
1099.55	0.005744
1109.2	0.005354
1118.84	0.004464
1128.49	0.003594
1138.13	0.003674
1147.78	0.008094
1157.42	0.035544
1167.07	0.022424
1176.71	0.005834
1186.36	0.005594
1196	0.006204
1205.64	0.009914
1215.29	0.020034
1224.93	0.044364
1234.58	0.113254
1244.22	0.125664
1253.87	0.041744
1263.51	0.015604
1273.16	0.010984
1282.8	0.011854
1292.45	0.014774
1302.09	0.017594
1311.74	0.021494
1321.38	0.028734
1331.03	0.044634
1340.67	0.070024
1350.32	0.051434
1359.96	0.020794
1369.61	0.011664
1379.25	0.008094
1388.9	0.007124
1398.54	0.007874
1408.18	0.009404
1417.83	0.009634
1427.47	0.009354
1437.12	0.009554
1446.76	0.018074
1456.41	0.027514
1466.05	0.010284
1475.7	0.005844
1485.34	0.008534
1494.99	0.020624
1504.63	0.068164
1514.28	0.113074
1523.92	0.054894
1533.57	0.014494
1543.21	0.005854
1552.86	0.003894
1562.5	0.004114
1572.15	0.005874
1581.79	0.009554
1591.44	0.016194
1601.08	0.026894
1610.73	0.032144
1620.37	0.017994
1630.01	0.008754
1639.66	0.005464
1649.3	0.004014
1658.95	0.002934
1668.59	0.002154
1678.24	0.001694
1687.88	0.001604
1697.53	0.001594
1707.17	0.001584
1716.82	0.001644
1726.46	0.001834
1736.11	0.002144
1745.75	0.002674
1755.4	0.003594
1765.04	0.002994
1774.69	0.001904
1784.33	0.001594
1793.98	0.0015315
1803.62	0.0014859
1813.27	0.001614
1822.91	0.001734
1832.55	0.001964
1842.2	0.002314
1851.84	0.003224
1861.49	0.004694
1871.13	0.006434
1880.78	0.007664
1890.42	0.008174
1900.07	0.008604
1909.71	0.009724
1919.36	0.011514
1929	0.014074
1938.65	0.017654
1948.29	0.022764
1957.94	0.030504
1967.58	0.041984
1977.23	0.058554
1986.87	0.081784
1996.52	0.113804
2006.16	0.155094
2015.81	0.204294
2025.45	0.257224
2035.1	0.306214
2044.74	0.340934
2054.38	0.348984
2064.03	0.322484
2073.67	0.267724
2083.32	0.192704
2092.96	0.128634
2102.61	0.085204
2112.25	0.059314
2121.9	0.045774
2131.54	0.039784
2141.19	0.038314
2150.83	0.040204
2160.48	0.046124
2170.12	0.055284
2179.77	0.059084
2189.41	0.052634
2199.06	0.042404
2208.7	0.032494
2218.35	0.024424
2227.99	0.018324
2237.64	0.013354
2247.28	0.009914
2256.92	0.008064
2266.57	0.006974
2276.21	0.006214
2285.86	0.005794
2295.5	0.005324
2305.15	0.004854
2314.79	0.004304
2324.44	0.003694
2334.08	0.002984
2343.73	0.002644
2353.37	0.002444
2363.02	0.002324
2372.66	0.002064
2382.31	0.001944
2391.95	0.002204
2401.6	0.002124
2411.24	0.001874
2420.89	0.001714
2430.53	0.001664
2440.18	0.001644
2449.82	0.001874
2459.47	0.002064
2469.11	0.002294
2478.75	0.002264
2488.4	0.002074
2498.04	0.001974
2507.69	0.001734
2517.33	0.001664
2526.98	0.001804
2536.62	0.001804
2546.27	0.001964
2555.91	0.002034
2565.56	0.002114
2575.2	0.002334
2584.85	0.002424
2594.49	0.002314
2604.14	0.002434
2613.78	0.002374
2623.43	0.002024
2633.07	0.001654
2642.72	0.0014525
2652.36	0.001237
2662.01	0.0013343
2671.65	0.0014477
2681.29	0.001774
2690.94	0.001854
2700.58	0.002304
2710.23	0.002724
2719.87	0.002944
2729.52	0.003144
2739.16	0.003284
2748.81	0.003454
2758.45	0.003534
2768.1	0.003794
2777.74	0.004064
2787.39	0.004234
2797.03	0.004354
2806.68	0.003794
2816.32	0.003254
2825.97	0.002714
2835.61	0.002394
2845.26	0.002574
2854.9	0.003114
2864.55	0.004854
2874.19	0.007324
2883.84	0.008274
2893.48	0.007664
2903.12	0.005914
2912.77	0.005284
2922.41	0.007284
2932.06	0.011464
2941.7	0.013594
2951.35	0.012714
2960.99	0.009454
2970.64	0.005284
2980.28	0.002704
2989.93	0.002324
2999.57	0.002644
3009.22	0.003354
3018.86	0.003404
3028.51	0.003814
3038.15	0.006214
3047.8	0.008654
3057.44	0.006584
3067.09	0.004304
3076.73	0.004004
3086.38	0.003394
3096.02	0.002024
3105.67	0.001644
3115.31	0.001704
3124.95	0.001644
3134.6	0.001259
3144.24	0.0007581
3153.89	0.0004891
3163.53	0.000432
3173.18	0.000268
3182.82	0.00053837
3192.47	0.0004604
3202.11	0.000368
3211.76	0.000385
3221.4	0.000304
3231.05	0.00021
3240.69	0.00056825
3250.34	0.000224
3259.98	0.000403
3269.63	0.000264
3279.27	0.000251
3288.92	0.000142
3298.56	0.000408
3308.21	0.000206
3317.85	0.000235
3327.49	0.000114
3337.14	0.000202
3346.78	0.0004635
3356.43	0.000309
3366.07	9.7e-05
3375.72	0.000258
3385.36	0.000293
3395.01	0.000295
3404.65	0.000259
3414.3	0.000381
3423.94	0.000338
3433.59	0.000224
3443.23	0.000234
3452.88	0.000265
3462.52	0.000419
3472.17	0.000306
3481.81	0.00032
3491.46	0.00039
3501.1	0.0005072
3510.75	0.00019
3520.39	0.000428
3530.04	0.0006726
3539.68	0.0004633
3549.32	0.000429
3558.97	0.000363
3568.61	0.000352
3578.26	0.000415
3587.9	0.0005156
3597.55	0.00060938
3607.19	0.0005217
3616.84	0.00043
3626.48	0.000295
3636.13	0.00058157
3645.77	0.000385
3655.42	0.0004668
3665.06	0.00058674
3674.71	0.00056548
3684.35	0.0004557
3694	0.000547299
3703.64	0.0005005
3713.29	0.00062155
3722.93	0.00057059
3732.58	0.000339
3742.22	0.00061739
3751.86	0.0007142
3761.51	0.0007033
3771.15	0.0004583
3780.8	0.000357
3790.44	0.0005186
3800.09	0.00061797
3809.73	0.00058505
3819.38	0.00063402
3829.02	0.000486
3838.67	0.0006937
3848.31	0.00064058
3857.96	0.0007022
3867.6	0.000695
3877.25	0.0007072
3886.89	0.0007824
3896.54	0.0009203
3906.18	0.0007948
3915.83	0.0010113
3925.47	0.0008889
3935.12	0.001059
3944.76	0.0010131
3954.41	0.0012301
3964.05	0.00139
3973.69	0.0013754
3983.34	0.0014237
3992.98	0.001614
