Infrared Spectrum: 5-Furfurylidenebarbituric acid
Formula: C9 H6 N2 O4
CAS: 27406-36-6
State: SOLID (SPLIT MULL), FLUOROLUBE FOR 3800-1330 CM^-^1, NUJOL FOR 1330-400 CM^-^1
Melting point: 315 C (DECOMPOSES)
Class: COBLENTZ II
Instrument: DOW KBr FOREPRISM-GRATING
Instrument parameters: BLAZED AT 3.5, 12.0, 20.0 MICRON AND CHANGED AT 5.0, 7.5, 14.9 MICRON
Sampling: TRANSMISSION
Resolution: 2
Origin: DOW CHEMICAL COMPANY
1/CM	TRANSMITTANCE
3798	0.7951
3789	0.7961
3780	0.7975
3771	0.799
3762	0.8008
3753	0.8025
3744	0.8037
3735	0.8047
3726	0.8056
3717	0.8058
3708	0.8064
3699	0.8065
3690	0.8064
3681	0.8061
3672	0.8061
3663	0.8054
3654	0.8045
3645	0.8036
3636	0.8028
3627	0.8019
3618	0.8014
3609	0.8008
3600	0.8006
3591	0.7998
3582	0.7965
3573	0.7914
3564	0.7919
3555	0.7926
3546	0.7933
3537	0.793
3528	0.7926
3519	0.7924
3510	0.7921
3501	0.7914
3492	0.7908
3483	0.7901
3474	0.7907
3465	0.7931
3456	0.7956
3447	0.798
3438	0.8004
3429	0.8025
3420	0.8034
3411	0.8042
3402	0.805
3393	0.8061
3384	0.8075
3375	0.8087
3366	0.8096
3357	0.8101
3348	0.8072
3339	0.7975
3330	0.7933
3321	0.7924
3312	0.7915
3303	0.7906
3294	0.7876
3285	0.7817
3276	0.7732
3267	0.7611
3258	0.7447
3249	0.719
3240	0.679
3231	0.6421
3222	0.6049
3213	0.5394
3204	0.5129
3195	0.5138
3186	0.5117
3177	0.5057
3168	0.4779
3159	0.4135
3150	0.3491
3141	0.3826
3132	0.3889
3123	0.4052
3114	0.4166
3105	0.418
3096	0.4103
3087	0.4131
3078	0.4112
3069	0.3688
3060	0.3221
3051	0.3028
3042	0.3024
3033	0.3224
3024	0.3603
3015	0.3929
3006	0.4269
2997	0.4399
2988	0.4623
2979	0.497
2970	0.5228
2961	0.542
2952	0.5582
2943	0.5723
2934	0.5841
2925	0.5928
2916	0.5972
2907	0.5989
2898	0.5986
2889	0.5796
2880	0.5736
2871	0.5358
2862	0.4419
2853	0.405
2844	0.4236
2835	0.4902
2826	0.5435
2817	0.5831
2808	0.6225
2799	0.6583
2790	0.7001
2781	0.7178
2772	0.7274
2763	0.7343
2754	0.7415
2745	0.7522
2736	0.7597
2727	0.7668
2718	0.7719
2709	0.7757
2700	0.7795
2691	0.7832
2682	0.7871
2673	0.7911
2664	0.7954
2655	0.7998
2646	0.8038
2637	0.8061
2628	0.8086
2619	0.8105
2610	0.8121
2601	0.8134
2592	0.8137
2583	0.8148
2574	0.8175
2565	0.8183
2556	0.8164
2547	0.8165
2538	0.8168
2529	0.8174
2520	0.818
2511	0.8178
2502	0.8175
2493	0.8168
2484	0.8161
2475	0.8168
2466	0.8188
2457	0.8228
2448	0.8287
2439	0.8333
2430	0.8368
2421	0.8371
2412	0.835
2403	0.834
2394	0.8332
2385	0.8356
2376	0.8382
2367	0.8402
2358	0.8418
2349	0.8425
2340	0.8431
2331	0.8433
2322	0.8412
2313	0.838
2304	0.8367
2295	0.8367
2286	0.8383
2277	0.8398
2268	0.8412
2259	0.8424
2250	0.8413
2241	0.8416
2232	0.8435
2223	0.8457
2214	0.8477
2205	0.8485
2196	0.8493
2187	0.8516
2178	0.8542
2169	0.8577
2160	0.8608
2151	0.8628
2142	0.864
2133	0.8637
2124	0.8632
2115	0.8624
2106	0.8613
2097	0.8593
2088	0.8578
2079	0.8609
2070	0.8649
2061	0.8688
2052	0.8721
2043	0.8752
2034	0.8775
2025	0.8791
2016	0.8796
2007	0.8799
1998	0.8803
1989	0.8733
1980	0.8751
1971	0.8728
1962	0.8731
1953	0.8747
1944	0.8771
1935	0.8798
1926	0.8811
1917	0.8823
1908	0.8842
1899	0.8863
1890	0.889
1881	0.8891
1872	0.8889
1863	0.8886
1854	0.8884
1845	0.8836
1836	0.8635
1827	0.8523
1818	0.8555
1809	0.8632
1800	0.8667
1791	0.8597
1782	0.8331
1773	0.7645
1764	0.5829
1755	0.2482
1746	0.2737
1737	0.1915
1728	0.499
1719	0.6092
1710	0.5742
1701	0.1995
1692	0.4055
1683	0.461
1674	0.4686
1665	0.3188
1656	0.0753
1647	0.0885
1638	0.2394
1629	0.3903
1620	0.506
1611	0.5751
1602	0.5837
1593	0.6156
1584	0.6275
1575	0.4334
1566	0.1467
1557	0.1846
1548	0.443
1539	0.3182
1530	0.593
1521	0.6758
1512	0.7295
1503	0.7521
1494	0.7691
1485	0.8061
1476	0.8088
1467	0.6857
1458	0.6525
1449	0.4633
1440	0.1899
1431	0.1853
1422	0.4433
1413	0.5496
1404	0.1667
1395	0.5515
1386	0.362
1377	0.1081
1368	0.0949
1359	0.1835
1350	0.3282
1341	0.595
1332	0.6622
1323	0.5878
1314	0.2813
1305	0.5224
1296	0.6221
1287	0.6787
1278	0.7049
1269	0.7268
1260	0.7287
1251	0.7115
1242	0.7258
1233	0.5036
1224	0.6893
1215	0.7576
1206	0.7791
1197	0.7937
1188	0.8107
1179	0.8167
1170	0.8158
1161	0.793
1152	0.7811
1143	0.4427
1134	0.7275
1125	0.8121
1116	0.8382
1107	0.8471
1098	0.4883
1089	0.696
1080	0.7353
1071	0.8032
1062	0.8323
1053	0.7846
1044	0.7278
1035	0.7683
1026	0.438
1017	0.7655
1008	0.7999
999	0.8094
990	0.8345
981	0.8403
972	0.8353
963	0.7742
954	0.8258
945	0.8366
936	0.7915
927	0.5594
918	0.7725
909	0.8018
900	0.8214
891	0.7895
882	0.5938
873	0.6721
864	0.593
855	0.5295
846	0.5374
837	0.6359
828	0.7062
819	0.7351
810	0.7371
801	0.711
792	0.4522
783	0.6811
774	0.7928
765	0.7551
756	0.6637
747	0.8378
738	0.848
729	0.8421
720	0.8262
711	0.8474
702	0.8684
693	0.8788
684	0.8821
675	0.7572
666	0.8473
657	0.8858
648	0.8953
639	0.8304
630	0.8778
621	0.8947
612	0.8983
603	0.9004
594	0.8998
585	0.7406
576	0.8898
567	0.8978
558	0.8935
549	0.7957
540	0.4482
531	0.7276
522	0.6339
513	0.441
504	0.7918
495	0.8373
486	0.853
477	0.8575
468	0.8523
459	0.84
450	0.8214
441	0.7994
432	0.7638
423	0.6892
414	0.5083
405	0.4844
396	0.4942
387	0.5069
