Infrared Spectrum: Alpha,Alpha,Alpha,Alpha',Alpha'-PENTACHLORO-o-XYLENE
Formula: C8 H5 Cl5
CAS: 2741-57-3
State: SOLUTION (10% CCl4 FOR 5000-1330, 10% CS2 FOR 1330-625 CM^-^1)
Boiling point: 152 C AT 5 mmHg
Class: COBLENTZ
Instrument: Not specified, most likely a prism, grating, or hybrid spectrometer.
Sampling: TRANSMISSION
Path length: 0.0117 CM, 0.0115 CM
Resolution: 4
MICROMETERS	TRANSMITTANCE
2.027	0.898
2.06802	0.898
2.10904	0.901
2.15005	0.898
2.19107	0.896
2.23209	0.898
2.27311	0.898
2.31412	0.889
2.35514	0.889
2.39616	0.896
2.43718	0.9
2.4782	0.903
2.51921	0.905
2.56023	0.905
2.60125	0.906
2.64227	0.91
2.68328	0.906
2.7243	0.906
2.76532	0.908
2.80634	0.908
2.84735	0.906
2.88837	0.901
2.92939	0.898
2.97041	0.894
3.01143	0.896
3.05244	0.898
3.09346	0.9
3.13448	0.905
3.1755	0.905
3.21651	0.901
3.25753	0.896
3.29855	0.845
3.33957	0.894
3.38059	0.906
3.4216	0.922
3.46262	0.927
3.50364	0.918
3.54466	0.922
3.58567	0.92
3.62669	0.918
3.66771	0.916
3.70873	0.916
3.74974	0.918
3.79076	0.915
3.83178	0.916
3.8728	0.916
3.91382	0.916
3.95483	0.918
3.99585	0.918
4.03687	0.918
4.07789	0.918
4.1189	0.918
4.15992	0.918
4.20094	0.903
4.24196	0.898
4.28298	0.903
4.32399	0.908
4.36501	0.898
4.40603	0.896
4.44705	0.905
4.48806	0.916
4.52908	0.92
4.5701	0.922
4.61112	0.922
4.65213	0.92
4.69315	0.918
4.73417	0.918
4.77519	0.922
4.81621	0.922
4.85722	0.918
4.89824	0.915
4.93926	0.916
4.98028	0.916
5.02129	0.916
5.06231	0.913
5.10333	0.894
5.14435	0.918
5.18537	0.894
5.22638	0.92
5.2674	0.911
5.30842	0.918
5.34944	0.916
5.39045	0.901
5.43147	0.908
5.47249	0.9
5.51351	0.905
5.55452	0.916
5.59554	0.915
5.63656	0.915
5.67758	0.915
5.7186	0.915
5.75961	0.916
5.80063	0.92
5.84165	0.92
5.88267	0.925
5.92368	0.925
5.9647	0.908
6.00572	0.91
6.04674	0.908
6.08776	0.906
6.12877	0.903
6.16979	0.886
6.21081	0.833
6.25183	0.74
6.29284	0.683
6.33386	0.63
6.37488	0.608
6.4159	0.561
6.45691	0.501
6.49793	0.498
6.53895	0.616
6.57997	0.661
6.62099	0.705
6.662	0.774
6.70302	0.81
6.74404	0.683
6.78506	0.72
6.82607	0.847
6.86709	0.806
6.90811	0.666
6.94913	0.842
6.99015	0.898
7.03116	0.908
7.07218	0.911
7.1132	0.911
7.15422	0.913
7.19523	0.918
7.23625	0.923
7.27727	0.923
7.31829	0.923
7.3593	0.923
7.40032	0.923
7.44134	0.918
7.48236	0.896
7.52338	0.793
7.56439	0.793
7.60541	0.871
7.64643	0.889
7.68745	0.896
7.72846	0.896
7.76948	0.886
7.8105	0.886
7.85152	0.886
7.89254	0.888
7.93355	0.888
7.97457	0.874
8.01559	0.861
8.05661	0.857
8.09762	0.866
8.13864	0.871
8.17966	0.844
8.22068	0.783
8.26169	0.572
8.30271	0.383
8.34373	0.315
8.38475	0.71
8.42577	0.786
8.46678	0.628
8.5078	0.642
8.54882	0.803
8.58984	0.847
8.63085	0.872
8.67187	0.879
8.71289	0.883
8.75391	0.886
8.79493	0.889
8.83594	0.893
8.87696	0.896
8.91798	0.896
8.959	0.896
9.00001	0.896
9.04103	0.896
9.08205	0.891
9.12307	0.813
9.16408	0.774
9.2051	0.869
9.24612	0.896
9.28714	0.906
9.32816	0.906
9.36917	0.908
9.41019	0.91
9.45121	0.906
9.49223	0.906
9.53324	0.91
9.57426	0.913
9.61528	0.915
9.6563	0.915
9.69732	0.915
9.73833	0.915
9.77935	0.915
9.82037	0.915
9.86139	0.915
9.9024	0.911
9.94342	0.908
9.98444	0.908
10.0255	0.91
10.0665	0.91
10.1075	0.905
10.1485	0.898
10.1895	0.894
10.2305	0.896
10.2716	0.896
10.3126	0.9
10.3536	0.9
10.3946	0.898
10.4356	0.894
10.4767	0.893
10.5177	0.894
10.5587	0.898
10.5997	0.903
10.6407	0.905
10.6817	0.905
10.7228	0.903
10.7638	0.901
10.8048	0.893
10.8458	0.884
10.8868	0.877
10.9278	0.876
10.9689	0.869
11.0099	0.857
11.0509	0.854
11.0919	0.85
11.1329	0.85
11.174	0.844
11.215	0.816
11.256	0.786
11.297	0.722
11.338	0.581
11.379	0.315
11.4201	0.128
11.4611	0.345
11.5021	0.588
11.5431	0.628
11.5841	0.637
11.6251	0.637
11.6662	0.638
11.7072	0.661
11.7482	0.686
11.7892	0.715
11.8302	0.732
11.8713	0.742
11.9123	0.73
11.9533	0.725
11.9943	0.725
12.0353	0.73
12.0763	0.735
12.1174	0.728
12.1584	0.669
12.1994	0.559
12.2404	0.369
12.2814	0.167
12.3224	0.201
12.3635	0.374
12.4045	0.474
12.4455	0.454
12.4865	0.338
12.5275	0.174
12.5686	0.05
12.6096	0.04
12.6506	0.135
12.6916	0.252
12.7326	0.245
12.7736	0.244
12.8147	0.367
12.8557	0.447
12.8967	0.447
12.9377	0.503
12.9787	0.608
13.0198	0.661
13.0608	0.669
13.1018	0.669
13.1428	0.661
13.1838	0.644
13.2248	0.622
13.2659	0.589
13.3069	0.554
13.3479	0.506
13.3889	0.45
13.4299	0.372
13.4709	0.288
13.512	0.203
13.553	0.142
13.594	0.105
13.635	0.064
13.676	0.032
13.7171	0
13.7581	0
13.7991	0
13.8401	0
13.8811	0.003
13.9221	0.059
13.9632	0.174
14.0042	0.286
14.0452	0.383
14.0862	0.449
14.1272	0.489
14.1682	0.523
14.2093	0.544
14.2503	0.549
14.2913	0.544
14.3323	0.535
14.3733	0.527
14.4144	0.535
14.4554	0.552
14.4964	0.564
14.5374	0.572
14.5784	0.572
14.6194	0.572
14.6605	0.572
14.7015	0.572
14.7425	0.572
14.7835	0.571
14.8245	0.569
14.8655	0.567
14.9066	0.564
14.9476	0.562
14.9886	0.559
15.0296	0.552
15.0706	0.535
15.1117	0.527
15.1527	0.52
15.1937	0.511
15.2347	0.501
15.2757	0.494
15.3167	0.486
15.3578	0.483
15.3988	0.476
15.4398	0.472
15.4808	0.469
15.5218	0.462
15.5629	0.459
15.6039	0.459
15.6449	0.455
15.6859	0.452
15.7269	0.45
15.7679	0.445
15.809	0.442
15.85	0.44
15.891	0.44
15.932	0.445
15.973	0.445
