Infrared Spectrum: Allyldiphenylphosphine
Formula: C 15 H 15 P
CAS: 2741-38-0
State: gas
Instrument: HP-GC/MS/IRD
Origin: NIST Mass Spectrometry Data Center
1/CM	ABSORBANCE
550	0.0028704
562	0.0033657
574	0.0068679
586	0.0045825
598	0.0008892
610	0.000195
622	4.68e-05
634	0.0001209
646	0.0005499
658	0.002184
670	0.0062088
682	0.0157521
694	0.0329004
706	0.0212706
718	0.0150033
730	0.0231933
742	0.0236262
754	0.0092781
766	0.0027027
778	0.0014079
790	0.0009984
802	0.0015756
814	0.003198
826	0.0046332
838	0.0029445
850	0.001014
862	0.0008307
874	0.001014
886	0.0017199
898	0.0050544
910	0.0162396
922	0.0090207
934	0.0040911
946	0.0023439
958	0.0020475
970	0.0025038
982	0.004914
994	0.0061971
1006	0.0036933
1018	0.0032019
1030	0.0051831
1042	0.0017355
1054	0.0031278
1066	0.0039117
1078	0.0046059
1090	0.0072228
1102	0.0052455
1114	0.0018603
1126	0.0008424
1138	0.0005616
1150	0.0004836
1162	0.0010335
1174	0.002652
1186	0.0042822
1198	0.0023595
1210	0.0009594
1222	0.0005304
1234	0.0004992
1246	0.0005577
1258	0.0009204
1270	0.0010764
1282	0.0007683
1294	0.0016614
1306	0.0023244
1318	0.0017238
1330	0.0013182
1342	0.000546
1354	0.0003861
1366	0.0007488
1378	0.0010218
1390	0.0015288
1402	0.0032877
1414	0.0050739
1426	0.0103194
1438	0.0105885
1450	0.0038337
1462	0.0026442
1474	0.0055614
1486	0.0080496
1498	0.0020436
1510	0.0005148
1522	0.0003978
1534	0.0005304
1546	0.0005694
1558	0.0009399
1570	0.0022308
1582	0.0046254
1594	0.0031512
1606	0.0017277
1618	0.003081
1630	0.007878
1642	0.0062088
1654	0.0019227
1666	0.0007683
1678	0.0003159
1690	0.0001443
1702	0.0001833
1714	0.000273
1726	0.0003393
1738	0.0004758
1750	0.0006201
1762	0.0004836
1774	0.0006747
1786	0.0009672
1798	0.0022659
1810	0.002262
1822	0.0026598
1834	0.0019149
1846	0.0007878
1858	0.0009633
1870	0.0015444
1882	0.0020865
1894	0.0013533
1906	0.0005187
1918	0.0005109
1930	0.0010101
1942	0.0018408
1954	0.0022386
1966	0.001326
1978	0.0003939
1990	0.000195
2002	7.8e-05
2014	7.8e-05
2026	3.51e-05
2038	3.51e-05
2050	2.73e-05
2062	1.95e-05
2074	0
2086	3.12e-05
2098	5.07e-05
2110	3.9e-05
2122	0.0001131
2134	5.46e-05
2146	6.24e-05
2158	7.41e-05
2170	6.24e-05
2182	8.58e-05
2194	5.85e-05
2206	4.29e-05
2218	4.68e-05
2230	5.85e-05
2242	5.46e-05
2254	9.36e-05
2266	0.0001014
2278	0.0001014
2290	0.0001092
2302	0.0001404
2314	0.0005109
2326	0.0003081
2338	0.000312
2350	0.0003276
2362	0.0002847
2374	0.0002379
2386	0.0001794
2398	0.0001482
2410	0.0001209
2422	9.75e-05
2434	5.46e-05
2446	3.12e-05
2458	5.07e-05
2470	7.8e-06
2482	3.12e-05
2494	4.68e-05
2506	1.17e-05
2518	6.24e-05
2530	4.29e-05
2542	9.75e-05
2554	8.97e-05
2566	0.0001911
2578	0.000312
2590	0.0003315
2602	0.0003159
2614	0.000312
2626	0.0001989
2638	0.0001521
2650	0.0001716
2662	0.000234
2674	0.0003042
2686	0.0002262
2698	0.0001482
2710	9.75e-05
2722	5.85e-05
2734	9.75e-05
2746	8.97e-05
2758	0.0001404
2770	0.0001872
2782	0.0002418
2794	0.0004134
2806	0.0005694
2818	0.0006006
2830	0.0005655
2842	0.0005772
2854	0.0005967
2866	0.00078
2878	0.0009633
2890	0.002067
2902	0.0047229
2914	0.0039546
2926	0.0031902
2938	0.0040365
2950	0.0025077
2962	0.002145
2974	0.0033501
2986	0.0054249
2998	0.0070668
3010	0.0116571
3022	0.0114153
3034	0.008502
3046	0.0111189
3058	0.0303537
3070	0.0359892
3082	0.029172
3094	0.0165555
3106	0.0041067
3118	0.0021645
3130	0.0019344
3142	0.0019968
3154	0.001092
3166	0.0005889
3178	0.0004953
3190	0.0003939
3202	0.0002574
3214	0.0002301
3226	0.0001014
3238	0.000156
3250	0.0001131
3262	0.0002145
3274	0.0002028
3286	8.19e-05
3298	0.0001131
3310	0.0001365
3322	0.0001131
3334	0.0001482
3346	0.0001326
3358	6.24e-05
3370	9.75e-05
3382	6.63e-05
3394	4.29e-05
3406	0.000156
3418	0.0001677
3430	0.0001989
3442	0.0002067
3454	0.0001131
3466	8.58e-05
3478	0.0001404
3490	0.000117
3502	0.000156
3514	7.41e-05
3526	0.0001404
3538	8.58e-05
3550	8.19e-05
3562	7.41e-05
3574	0.0001131
3586	0.0001521
3598	0.0001287
3610	0.0001911
3622	0.0002262
3634	0.0001638
3646	0.0002808
3658	0.0002496
3670	0.0002223
3682	0.0003081
3694	0.0004056
3706	0.0003159
3718	0.0001599
3730	0.0002847
3742	0.0002808
3754	0.0002769
3766	0.0002847
3778	8.58e-05
3790	0.0001833
3802	0.0001716
3814	5.07e-05
3826	4.29e-05
3838	0.0001209
