Infrared Spectrum: 3-((Dimethylamino)phenyl isothiocyanate
Formula: C 6 H 12 N 2 S
CAS: 27421-70-1
State: gas
Origin: EPA-IR VAPOR PHASE LIBRARY
1/CM	ABSORBANCE
549.8	0.00901
559.445	0.00819
569.09	0.00756
578.734	0.00691
588.379	0.00574
598.024	0.00455
607.669	0.00401
617.313	0.00328
626.958	0.0027
636.603	0.00293
646.248	0.00315
655.893	0.00376
665.537	0.00373
675.182	0.00337
684.827	0.00298
694.472	0.00405
704.116	0.00481
713.761	0.00421
723.406	0.00309
733.051	0.0026
742.695	0.00391
752.34	0.00646
761.985	0.00768
771.63	0.00627
781.275	0.00443
790.919	0.00365
800.564	0.00317
810.209	0.00348
819.854	0.00459
829.498	0.00572
839.143	0.00617
848.788	0.00581
858.433	0.00521
868.078	0.00566
877.722	0.00545
887.367	0.00366
897.012	0.003
906.657	0.00292
916.301	0.0028
925.946	0.00271
935.591	0.00288
945.236	0.00324
954.88	0.00439
964.525	0.00557
974.17	0.00568
983.815	0.00508
993.46	0.00645
1003.1	0.0089
1012.75	0.01191
1022.39	0.01496
1032.04	0.0203
1041.68	0.02619
1051.33	0.02679
1060.97	0.02647
1070.62	0.02261
1080.26	0.01533
1089.91	0.01126
1099.55	0.01075
1109.2	0.00903
1118.84	0.0077
1128.49	0.00834
1138.13	0.00922
1147.78	0.01325
1157.42	0.01567
1167.07	0.01433
1176.71	0.01174
1186.36	0.00902
1196	0.00735
1205.64	0.00672
1215.29	0.00813
1224.93	0.01118
1234.58	0.01253
1244.22	0.01188
1253.87	0.01411
1263.51	0.01969
1273.16	0.02057
1282.8	0.01699
1292.45	0.01619
1302.09	0.01912
1311.74	0.0231
1321.38	0.02231
1331.03	0.0299
1340.67	0.04352
1350.32	0.04257
1359.96	0.03178
1369.61	0.02541
1379.25	0.02053
1388.9	0.01532
1398.54	0.00989
1408.18	0.0071
1417.83	0.00735
1427.47	0.01035
1437.12	0.01734
1446.76	0.03138
1456.41	0.04788
1466.05	0.04392
1475.7	0.02285
1485.34	0.01208
1494.99	0.00731
1504.63	0.00487
1514.28	0.0035
1523.92	0.00278
1533.57	0.00233
1543.21	0.00199
1552.86	0.00184
1562.5	0.00166
1572.15	0.00162
1581.79	0.00153
1591.44	0.00149
1601.08	0.00129
1610.73	0.0013
1620.37	0.0012069
1630.01	0.0012172
1639.66	0.001206
1649.3	0.00133
1658.95	0.0012496
1668.59	0.0012446
1678.24	0.0011984
1687.88	0.0011817
1697.53	0.0010714
1707.17	0.0010754
1716.82	0.001118
1726.46	0.0010975
1736.11	0.001074
1745.75	0.0011774
1755.4	0.0011316
1765.04	0.00125
1774.69	0.0012062
1784.33	0.0012142
1793.98	0.00136
1803.62	0.00137
1813.27	0.00147
1822.91	0.00158
1832.55	0.00181
1842.2	0.00198
1851.84	0.00233
1861.49	0.00264
1871.13	0.00311
1880.78	0.00381
1890.42	0.00462
1900.07	0.00567
1909.71	0.00715
1919.36	0.00896
1929	0.01114
1938.65	0.01398
1948.29	0.01741
1957.94	0.02211
1967.58	0.02829
1977.23	0.03682
1986.87	0.04863
1996.52	0.06557
2006.16	0.08916
2015.81	0.12143
2025.45	0.16527
2035.1	0.22162
2044.74	0.28154
2054.38	0.32372
2064.03	0.33188
2073.67	0.30621
2083.32	0.25175
2092.96	0.18784
2102.61	0.14212
2112.25	0.11726
2121.9	0.09903
2131.54	0.08079
2141.19	0.06707
2150.83	0.05875
2160.48	0.0545
2170.12	0.05211
2179.77	0.05007
2189.41	0.04854
2199.06	0.04611
2208.7	0.04074
2218.35	0.03171
2227.99	0.02271
2237.64	0.01659
2247.28	0.01282
2256.92	0.01042
2266.57	0.00859
2276.21	0.00703
2285.86	0.00573
2295.5	0.00473
2305.15	0.00407
2314.79	0.00347
2324.44	0.00295
2334.08	0.00259
2343.73	0.00234
2353.37	0.00208
2363.02	0.00194
2372.66	0.00169
2382.31	0.00158
2391.95	0.00137
2401.6	0.00147
2411.24	0.00149
2420.89	0.00156
2430.53	0.00153
2440.18	0.00146
2449.82	0.00139
2459.47	0.00152
2469.11	0.0014
2478.75	0.00162
2488.4	0.00201
2498.04	0.00215
2507.69	0.0023
2517.33	0.00223
2526.98	0.00236
2536.62	0.00232
2546.27	0.00233
2555.91	0.00234
2565.56	0.0024
2575.2	0.00251
2584.85	0.00262
2594.49	0.00284
2604.14	0.00299
2613.78	0.00292
2623.43	0.00289
2633.07	0.00301
2642.72	0.00318
2652.36	0.00352
2662.01	0.00419
2671.65	0.00513
2681.29	0.00627
2690.94	0.00741
2700.58	0.00913
2710.23	0.01185
2719.87	0.01501
2729.52	0.01823
2739.16	0.02101
2748.81	0.02469
2758.45	0.03194
2768.1	0.05067
2777.74	0.07258
2787.39	0.07077
2797.03	0.06045
2806.68	0.05471
2816.32	0.05262
2825.97	0.05529
2835.61	0.04469
2845.26	0.03153
2854.9	0.02892
2864.55	0.03154
2874.19	0.03401
2883.84	0.0349
2893.48	0.0341
2903.12	0.03238
2912.77	0.03275
2922.41	0.03694
2932.06	0.04716
2941.7	0.06404
2951.35	0.08467
2960.99	0.087
2970.64	0.07214
2980.28	0.06165
2989.93	0.03852
2999.57	0.0162
3009.22	0.00884
3018.86	0.00586
3028.51	0.00441
3038.15	0.00384
3047.8	0.00327
3057.44	0.00292
3067.09	0.00273
3076.73	0.00246
3086.38	0.00223
3096.02	0.00214
3105.67	0.00183
3115.31	0.00158
3124.95	0.00161
3134.6	0.00142
3144.24	0.00126
3153.89	0.00142
3163.53	0.0011086
3173.18	0.0011796
3182.82	0.0010846
3192.47	0.0011268
3202.11	0.0011249
3211.76	0.0007058
3221.4	0.0006795
3231.05	0.0004693
3240.69	0.0004028
3250.34	0.0003683
3259.98	0.0004103
3269.63	0.00034295
3279.27	0.0004029
3288.92	8.7e-05
3298.56	0.00029925
3308.21	0.0002367
3317.85	0.0003645
3327.49	5.3e-05
3337.14	0.0001602
3346.78	0.00034098
3356.43	0.0002367
3366.07	0.0001614
3375.72	0.0002248
3385.36	0.00029599
3395.01	0.000114
3404.65	0.00032445
3414.3	0.0003809
3423.94	0.0004958
3433.59	0.0004047
3443.23	0.0004538
3452.88	0.0002161
3462.52	0.00030107
3472.17	0.0003749
3481.81	0.0004627
3491.46	0.0003807
3501.1	0.0002145
3510.75	0.0003693
3520.39	0.00033327
3530.04	0.0003675
3539.68	0.0004314
3549.32	0.0004561
3558.97	0.0002741
3568.61	0.00034928
3578.26	0.0002142
3587.9	0.0003207
3597.55	0.0004635
3607.19	0.0005219
3616.84	0.0005005
3626.48	0.0002161
3636.13	0.0003958
3645.77	0.00027968
3655.42	0.0004113
3665.06	0.0003528
3674.71	0.0004449
3684.35	0.0003603
3694	0.00026071
3703.64	0.0003008
3713.29	0.00026222
3722.93	0.0005695
3732.58	0.0003592
3742.22	0.0004742
3751.86	0.000448
3761.51	0.0005872
3771.15	0.0004426
3780.8	0.0004882
3790.44	0.00058
3800.09	0.0005816
3809.73	0.0005523
3819.38	0.0007949
3829.02	0.0008111
3838.67	0.0008918
3848.31	0.0007959
3857.96	0.0008848
3867.6	0.0007698
3877.25	0.0007131
3886.89	0.000786
3896.54	0.0007577
3906.18	0.0009592
3915.83	0.0009351
3925.47	0.0008435
3935.12	0.0011064
3944.76	0.00134
3954.41	0.00129
3964.05	0.00131
3973.69	0.00129
3983.34	0.00139
3992.98	0.00168
