Infrared Spectrum: 3,4-Diethoxyphenylacetonitrile
Formula: C12 H15 N O2
CAS: 27472-21-5
State: gas
Origin: EPA-IR VAPOR PHASE LIBRARY
1/CM	ABSORBANCE
549.8	0.001427
559.445	0.0009439
569.09	0.001777
578.734	0.002017
588.379	0.002577
598.024	0.001957
607.669	0.002097
617.313	0.002357
626.958	0.002167
636.603	0.001847
646.248	0.001367
655.893	0.001187
665.537	0.0006829
675.182	0.0009014
684.827	0.0009708
694.472	0.0011398
704.116	0.001387
713.761	0.001777
723.406	0.002637
733.051	0.003137
742.695	0.003577
752.34	0.003827
761.985	0.004207
771.63	0.004627
781.275	0.005067
790.919	0.006907
800.564	0.009237
810.209	0.009087
819.854	0.007737
829.498	0.005527
839.143	0.004627
848.788	0.004547
858.433	0.004957
868.078	0.005577
877.722	0.006567
887.367	0.007237
897.012	0.008287
906.657	0.008397
916.301	0.007477
925.946	0.006687
935.591	0.005137
945.236	0.003767
954.88	0.003457
964.525	0.004737
974.17	0.005987
983.815	0.005687
993.46	0.005177
1003.1	0.006907
1012.75	0.012287
1022.39	0.024827
1032.04	0.043947
1041.68	0.048237
1051.33	0.031587
1060.97	0.016197
1070.62	0.010727
1080.26	0.011227
1089.91	0.014017
1099.55	0.014157
1109.2	0.015987
1118.84	0.025327
1128.49	0.036017
1138.13	0.035357
1147.78	0.029337
1157.42	0.022067
1167.07	0.014807
1176.71	0.010287
1186.36	0.009347
1196	0.012427
1205.64	0.023127
1215.29	0.039877
1224.93	0.047097
1234.58	0.041347
1244.22	0.039547
1253.87	0.058307
1263.51	0.082377
1273.16	0.076767
1282.8	0.054337
1292.45	0.038837
1302.09	0.030707
1311.74	0.024157
1321.38	0.017357
1331.03	0.011587
1340.67	0.007897
1350.32	0.006437
1359.96	0.006837
1369.61	0.008207
1379.25	0.013387
1388.9	0.022857
1398.54	0.021187
1408.18	0.014097
1417.83	0.018157
1427.47	0.029297
1437.12	0.020557
1446.76	0.011197
1456.41	0.009457
1466.05	0.010767
1475.7	0.018717
1485.34	0.024717
1494.99	0.039437
1504.63	0.078067
1514.28	0.066607
1523.92	0.027577
1533.57	0.012727
1543.21	0.008047
1552.86	0.006647
1562.5	0.006647
1572.15	0.008757
1581.79	0.011697
1591.44	0.010997
1601.08	0.010477
1610.73	0.009557
1620.37	0.005267
1630.01	0.002987
1639.66	0.002347
1649.3	0.002067
1658.95	0.001897
1668.59	0.001807
1678.24	0.001737
1687.88	0.001727
1697.53	0.001617
1707.17	0.001527
1716.82	0.001447
1726.46	0.001417
1736.11	0.001437
1745.75	0.001407
1755.4	0.001447
1765.04	0.001527
1774.69	0.001537
1784.33	0.001407
1793.98	0.001367
1803.62	0.0013073
1813.27	0.0012935
1822.91	0.001298
1832.55	0.001397
1842.2	0.001417
1851.84	0.001557
1861.49	0.001747
1871.13	0.001807
1880.78	0.001737
1890.42	0.001727
1900.07	0.001677
1909.71	0.001537
1919.36	0.001597
1929	0.001497
1938.65	0.001447
1948.29	0.001377
1957.94	0.0012088
1967.58	0.0011975
1977.23	0.0012221
1986.87	0.0013086
1996.52	0.0012822
2006.16	0.0013179
2015.81	0.0012913
2025.45	0.001288
2035.1	0.0013343
2044.74	0.0013295
2054.38	0.0012771
2064.03	0.0010775
2073.67	0.0010204
2083.32	0.0009667
2092.96	0.000902
2102.61	0.0009451
2112.25	0.0009196
2121.9	0.0008594
2131.54	0.0009565
2141.19	0.0009193
2150.83	0.000813
2160.48	0.0008281
2170.12	0.0007806
2179.77	0.0007629
2189.41	0.0007956
2199.06	0.0007109
2208.7	0.0006986
2218.35	0.0007694
2227.99	0.0008696
2237.64	0.0010852
2247.28	0.001487
2256.92	0.001887
2266.57	0.001447
2276.21	0.0010771
2285.86	0.0010375
2295.5	0.0010198
2305.15	0.0009024
2314.79	0.0007665
2324.44	0.0009051
2334.08	0.0010064
2343.73	0.0008893
2353.37	0.0008431
2363.02	0.0008362
2372.66	0.0008045
2382.31	0.0008345
2391.95	0.0009053
2401.6	0.0009625
2411.24	0.0010509
2420.89	0.001154
2430.53	0.0009907
2440.18	0.0009256
2449.82	0.0009356
2459.47	0.0009102
2469.11	0.0009236
2478.75	0.0010686
2488.4	0.0009469
2498.04	0.0010185
2507.69	0.0010342
2517.33	0.0011148
2526.98	0.0012241
2536.62	0.001417
2546.27	0.001527
2555.91	0.001467
2565.56	0.001497
2575.2	0.001437
2584.85	0.001457
2594.49	0.0012858
2604.14	0.0010294
2613.78	0.0010273
2623.43	0.0008278
2633.07	0.0008077
2642.72	0.0007474
2652.36	0.000742
2662.01	0.0007911
2671.65	0.0006883
2681.29	0.0007383
2690.94	0.0009836
2700.58	0.0010635
2710.23	0.0012497
2719.87	0.001407
2729.52	0.001627
2739.16	0.001697
2748.81	0.001717
2758.45	0.001717
2768.1	0.001847
2777.74	0.001727
2787.39	0.001877
2797.03	0.001877
2806.68	0.002187
2816.32	0.002457
2825.97	0.003007
2835.61	0.003747
2845.26	0.004377
2854.9	0.005217
2864.55	0.007327
2874.19	0.011087
2883.84	0.015597
2893.48	0.016757
2903.12	0.016417
2912.77	0.017557
2922.41	0.019087
2932.06	0.022657
2941.7	0.025277
2951.35	0.019987
2960.99	0.017297
2970.64	0.021977
2980.28	0.032247
2989.93	0.034617
2999.57	0.020487
3009.22	0.011127
3018.86	0.007937
3028.51	0.007037
3038.15	0.007317
3047.8	0.006967
3057.44	0.005987
3067.09	0.004737
3076.73	0.003327
3086.38	0.002517
3096.02	0.002047
3105.67	0.001707
3115.31	0.001667
3124.95	0.001457
3134.6	0.0012957
3144.24	0.0010036
3153.89	0.000916
3163.53	0.0008642
3173.18	0.00101
3182.82	0.0008293
3192.47	0.0007834
3202.11	0.0008905
3211.76	0.0007369
3221.4	0.0005865
3231.05	0.000526
3240.69	0.0006024
3250.34	0.0005193
3259.98	0.0005314
3269.63	0.0003063
3279.27	0.0004416
3288.92	0.000542
3298.56	0.0004465
3308.21	0.00035159
3317.85	0.00034755
3327.49	0.0002729
3337.14	0.00042479
3346.78	0.0002816
3356.43	0.0003807
3366.07	0.000339982
3375.72	7e-05
3385.36	0.00037287
3395.01	0.0003019
3404.65	0.00041199
3414.3	0.0002457
3423.94	0.000345053
3433.59	0.000121
3443.23	0.00038681
3452.88	0.00037185
3462.52	0.0002513
3472.17	0.00021
3481.81	0.00040155
3491.46	0.0002777
3501.1	0.00033241
3510.75	0.000214
3520.39	0.0004521
3530.04	0.00035839
3539.68	0.00015
3549.32	0.0003007
3558.97	0.0002858
3568.61	0.0002445
3578.26	0.000152
3587.9	0.00042111
3597.55	0.0002488
3607.19	0.000325
3616.84	0.0002664
3626.48	0.0003006
3636.13	0.000244
3645.77	0.0002477
3655.42	0.0002934
3665.06	0.0002614
3674.71	0.000296
3684.35	0.0003265
3694	0.0002661
3703.64	0.0002748
3713.29	0.00043385
3722.93	0.0002614
3732.58	0.00038379
3742.22	0.00038547
3751.86	0.0005739
3761.51	0.0004398
3771.15	0.000157
3780.8	0.000168
3790.44	0.000345051
3800.09	0.00036302
3809.73	0.0002612
3819.38	0.0002941
3829.02	0.000457
3838.67	0.0003093
3848.31	0.000339987
3857.96	0.000147
3867.6	0.000186
3877.25	0.00038132
3886.89	0.0002646
3896.54	0.0005371
3906.18	0.0002729
3915.83	0.000157
3925.47	0.0002932
3935.12	0.00043332
3944.76	0.00037597
3954.41	0.0005654
3964.05	0.0004972
3973.69	0.00032971
3983.34	0.0005567
3992.98	0.00035518
