Infrared Spectrum: 4-Methylumbelliferyl acetate
Formula: C 12 H 10 O 4
CAS: 2747-05-9
State: gas
Origin: EPA-IR VAPOR PHASE LIBRARY
1/CM	ABSORBANCE
549.8	0.001624
559.445	0.002634
569.09	0.011664
578.734	0.004854
588.379	0.004034
598.024	0.004284
607.669	0.004444
617.313	0.003174
626.958	0.003464
636.603	0.007134
646.248	0.008574
655.893	0.002634
665.537	0.001674
675.182	0.001804
684.827	0.002314
694.472	0.002894
704.116	0.002554
713.761	0.001874
723.406	0.001824
733.051	0.002424
742.695	0.001894
752.34	0.0014646
761.985	0.0012246
771.63	0.002114
781.275	0.002464
790.919	0.002794
800.564	0.003684
810.209	0.006414
819.854	0.005964
829.498	0.003904
839.143	0.006774
848.788	0.018894
858.433	0.030224
868.078	0.023874
877.722	0.014874
887.367	0.013654
897.012	0.017404
906.657	0.014064
916.301	0.008034
925.946	0.004384
935.591	0.003214
945.236	0.003144
954.88	0.003114
964.525	0.005344
974.17	0.016924
983.815	0.023574
993.46	0.020314
1003.1	0.028384
1012.75	0.051704
1022.39	0.020404
1032.04	0.007724
1041.68	0.007584
1051.33	0.011704
1060.97	0.025334
1070.62	0.018494
1080.26	0.012354
1089.91	0.011074
1099.55	0.010894
1109.2	0.013964
1118.84	0.040394
1128.49	0.128844
1138.13	0.088994
1147.78	0.057144
1157.42	0.031184
1167.07	0.031334
1176.71	0.056744
1186.36	0.140884
1196	0.237284
1205.64	0.128994
1215.29	0.048164
1224.93	0.028234
1234.58	0.017724
1244.22	0.016934
1253.87	0.029764
1263.51	0.044274
1273.16	0.022744
1282.8	0.010444
1292.45	0.008444
1302.09	0.008684
1311.74	0.010464
1321.38	0.011634
1331.03	0.008474
1340.67	0.007684
1350.32	0.010104
1359.96	0.025714
1369.61	0.055444
1379.25	0.040624
1388.9	0.033034
1398.54	0.015594
1408.18	0.013154
1417.83	0.016894
1427.47	0.015454
1437.12	0.010214
1446.76	0.008854
1456.41	0.007394
1466.05	0.005614
1475.7	0.005374
1485.34	0.007264
1494.99	0.012244
1504.63	0.011044
1514.28	0.005204
1523.92	0.004214
1533.57	0.004554
1543.21	0.006034
1552.86	0.008464
1562.5	0.014364
1572.15	0.016614
1581.79	0.012564
1591.44	0.016114
1601.08	0.028444
1610.73	0.055484
1620.37	0.072654
1630.01	0.042914
1639.66	0.018934
1649.3	0.008134
1658.95	0.005674
1668.59	0.005064
1678.24	0.005514
1687.88	0.006934
1697.53	0.008314
1707.17	0.008624
1716.82	0.010104
1726.46	0.012244
1736.11	0.016924
1745.75	0.025154
1755.4	0.044414
1765.04	0.122744
1774.69	0.268734
1784.33	0.206384
1793.98	0.098654
1803.62	0.049544
1813.27	0.024074
1822.91	0.012424
1832.55	0.008174
1842.2	0.006114
1851.84	0.005514
1861.49	0.004974
1871.13	0.004254
1880.78	0.003244
1890.42	0.002444
1900.07	0.002324
1909.71	0.002264
1919.36	0.002164
1929	0.002064
1938.65	0.001704
1948.29	0.001584
1957.94	0.0015438
1967.58	0.001584
1977.23	0.001724
1986.87	0.001724
1996.52	0.001734
2006.16	0.001754
2015.81	0.001634
2025.45	0.001533
2035.1	0.001714
2044.74	0.001764
2054.38	0.001904
2064.03	0.001684
2073.67	0.0014327
2083.32	0.0014813
2092.96	0.001714
2102.61	0.0014817
2112.25	0.001304
2121.9	0.0011968
2131.54	0.0011863
2141.19	0.001111
2150.83	0.0011137
2160.48	0.0009522
2170.12	0.0010619
2179.77	0.0007592
2189.41	0.0008515
2199.06	0.0008394
2208.7	0.0010796
2218.35	0.0009566
2227.99	0.0011036
2237.64	0.0010791
2247.28	0.0011554
2256.92	0.0011562
2266.57	0.0014049
2276.21	0.0014866
2285.86	0.0014739
2295.5	0.001594
2305.15	0.001634
2314.79	0.001834
2324.44	0.001634
2334.08	0.0014161
2343.73	0.001624
2353.37	0.001804
2363.02	0.001834
2372.66	0.001664
2382.31	0.001784
2391.95	0.001904
2401.6	0.0014407
2411.24	0.0013566
2420.89	0.0010903
2430.53	0.0013612
2440.18	0.0013037
2449.82	0.0012509
2459.47	0.001141
2469.11	0.000964
2478.75	0.0009817
2488.4	0.0009312
2498.04	0.0008694
2507.69	0.0007763
2517.33	0.000749
2526.98	0.0008046
2536.62	0.0009468
2546.27	0.0010064
2555.91	0.0009445
2565.56	0.0008367
2575.2	0.0007899
2584.85	0.000842
2594.49	0.0009246
2604.14	0.0007621
2613.78	0.0008026
2623.43	0.001046
2633.07	0.0010176
2642.72	0.0009535
2652.36	0.0008084
2662.01	0.0004829
2671.65	0.0004744
2681.29	0.00060729
2690.94	0.0007014
2700.58	0.00062493
2710.23	0.0007095
2719.87	0.0007234
2729.52	0.0009112
2739.16	0.0010887
2748.81	0.001074
2758.45	0.0010457
2768.1	0.0010267
2777.74	0.0009645
2787.39	0.0011486
2797.03	0.0011246
2806.68	0.0011132
2816.32	0.000964
2825.97	0.001108
2835.61	0.0008902
2845.26	0.001071
2854.9	0.001281
2864.55	0.001624
2874.19	0.001824
2883.84	0.001684
2893.48	0.0015425
2903.12	0.0010771
2912.77	0.0014492
2922.41	0.002484
2932.06	0.004144
2941.7	0.003824
2951.35	0.003454
2960.99	0.003954
2970.64	0.003994
2980.28	0.003514
2989.93	0.005554
2999.57	0.004674
3009.22	0.002464
3018.86	0.002064
3028.51	0.002114
3038.15	0.001914
3047.8	0.002204
3057.44	0.002084
3067.09	0.002864
3076.73	0.003214
3086.38	0.003224
3096.02	0.002494
3105.67	0.001804
3115.31	0.0015518
3124.95	0.0012094
3134.6	0.0007975
3144.24	0.0007841
3153.89	0.0009632
3163.53	0.0009977
3173.18	0.0010163
3182.82	0.0009352
3192.47	0.0008545
3202.11	0.0007544
3211.76	0.000397
3221.4	0.0009446
3231.05	0.000414
3240.69	0.0010583
3250.34	0.00059185
3259.98	0.0007363
3269.63	0.00057631
3279.27	0.000326
3288.92	0.000324
3298.56	0.0004754
3308.21	0.0005101
3317.85	0.0007056
3327.49	0.00061941
3337.14	0.000343
3346.78	0.000384
3356.43	0.000327
3366.07	0.0007315
3375.72	0.0006968
3385.36	0.00058007
3395.01	0.0005447
3404.65	0.000572779
3414.3	0.000497
3423.94	0.0008083
3433.59	0.000391
3443.23	0.0007037
3452.88	0.00063666
3462.52	0.0005219
3472.17	0.00061772
3481.81	0.000565036
3491.46	0.0007334
3501.1	0.0010248
3510.75	0.001125
3520.39	0.001904
3530.04	0.002684
3539.68	0.003114
3549.32	0.002054
3558.97	0.001774
3568.61	0.0015227
3578.26	0.0009519
3587.9	0.0005985
3597.55	0.00055426
3607.19	0.0006795
3616.84	0.0007499
3626.48	0.0007051
3636.13	0.0004885
3645.77	0.000371
3655.42	0.000356
3665.06	0.000294
3674.71	0.000266
3684.35	0.00058456
3694	0.0006738
3703.64	0.0005298
3713.29	0.000356
3722.93	3.2e-05
3732.58	0.000437
3742.22	0.000427
3751.86	0.00059264
3761.51	0.00064263
3771.15	0.00058951
3780.8	0.000564982
3790.44	0.000437
3800.09	0.0005465
3809.73	0.0004957
3819.38	0.000419
3829.02	0.000268
3838.67	3.4e-05
3848.31	0.00060903
3857.96	0
3867.6	0.000735
3877.25	0.000521
3886.89	0.00060274
3896.54	0.0005814
3906.18	0.000178
3915.83	0.0008264
3925.47	0.00057514
3935.12	0.0004669
3944.76	0.0008436
3954.41	0.0008868
3964.05	0.000416
3973.69	0.0007962
3983.34	0.00059069
3992.98	0.00063171
