Infrared Spectrum: 1-PHENYL-3-ACETOXY-2-PYRAZOLINE
Formula: C11 H12 N2 O2
CAS: 2748-21-2
State: SOLID (KBr PRESSING)
Melting point: 84 C
Class: COBLENTZ
Instrument: Not specified, most likely a prism, grating, or hybrid spectrometer.
Sampling: TRANSMISSION
Resolution: 4
Origin: EASTMAN KODAK COMPANY, RESEARCH LABORATORIES, ROCHESTER, N.Y.
MICROMETERS	TRANSMITTANCE
2.049	0.695
2.08421	0.693
2.11942	0.706
2.15464	0.714
2.18985	0.72
2.22506	0.725
2.26027	0.73
2.29548	0.739
2.3307	0.74
2.36591	0.742
2.40112	0.751
2.43633	0.753
2.47154	0.754
2.50676	0.763
2.54197	0.779
2.57718	0.782
2.61239	0.789
2.6476	0.794
2.68282	0.796
2.71803	0.798
2.75324	0.798
2.78845	0.798
2.82367	0.794
2.85888	0.766
2.89409	0.718
2.9293	0.714
2.96451	0.74
2.99973	0.756
3.03494	0.794
3.07015	0.8
3.10536	0.8
3.14057	0.803
3.17579	0.81
3.211	0.819
3.24621	0.819
3.28142	0.8
3.31663	0.749
3.35185	0.754
3.38706	0.779
3.42227	0.747
3.45748	0.779
3.49269	0.713
3.52791	0.791
3.56312	0.843
3.59833	0.864
3.63354	0.873
3.66875	0.874
3.70397	0.883
3.73918	0.892
3.77439	0.897
3.8096	0.897
3.84481	0.9
3.88003	0.893
3.91524	0.899
3.95045	0.904
3.98566	0.911
4.02087	0.909
4.05609	0.911
4.0913	0.907
4.12651	0.911
4.16172	0.911
4.19694	0.92
4.23215	0.93
4.26736	0.946
4.30257	0.96
4.33778	0.958
4.373	0.958
4.40821	0.944
4.44342	0.942
4.47863	0.933
4.51384	0.944
4.54906	0.946
4.58427	0.942
4.61948	0.939
4.65469	0.944
4.6899	0.937
4.72512	0.947
4.76033	0.942
4.79554	0.932
4.83075	0.94
4.86596	0.954
4.90118	0.96
4.93639	0.956
4.9716	0.951
5.00681	0.939
5.04202	0.949
5.07724	0.926
5.11245	0.913
5.14766	0.902
5.18287	0.902
5.21808	0.928
5.2533	0.937
5.28851	0.94
5.32372	0.947
5.35893	0.947
5.39414	0.926
5.42936	0.897
5.46457	0.848
5.49978	0.808
5.53499	0.735
5.57021	0.7
5.60542	0.646
5.64063	0.544
5.67584	0.229
5.71105	0.038
5.74627	0.168
5.78148	0.347
5.81669	0.575
5.8519	0.64
5.88711	0.686
5.92233	0.761
5.95754	0.791
5.99275	0.744
6.02796	0.761
6.06317	0.761
6.09839	0.725
6.1336	0.485
6.16881	0.612
6.20402	0.163
6.23923	0.139
6.27445	0.58
6.30966	0.653
6.34487	0.73
6.38008	0.793
6.41529	0.829
6.45051	0.855
6.48572	0.86
6.52093	0.808
6.55614	0.763
6.59135	0.533
6.62657	0.213
6.66178	0.163
6.69699	0.297
6.7322	0.462
6.76742	0.697
6.80263	0.547
6.83784	0.507
6.87305	0.629
6.90826	0.73
6.94348	0.699
6.97869	0.502
7.0139	0.523
7.04911	0.601
7.08432	0.622
7.11954	0.601
7.15475	0.547
7.18996	0.42
7.22517	0.236
7.26038	0.09
7.2956	0.034
7.33081	0.02
7.36602	0.189
7.40123	0.335
7.43644	0.34
7.47166	0.499
7.50687	0.664
7.54208	0.683
7.57729	0.669
7.6125	0.52
7.64772	0.22
7.68293	0.236
7.71814	0.337
7.75335	0.539
7.78856	0.57
7.82378	0.653
7.85899	0.681
7.8942	0.667
7.92941	0.633
7.96462	0.584
7.99984	0.506
8.03505	0.382
8.07026	0.238
8.10547	0.121
8.14069	0.055
8.1759	0.022
8.21111	0.006
8.24632	0.005
8.28153	0.005
8.31675	0.015
8.35196	0.048
8.38717	0.104
8.42238	0.168
8.45759	0.212
8.49281	0.269
8.52802	0.243
8.56323	0.217
8.59844	0.335
8.63365	0.384
8.66887	0.455
8.70408	0.54
8.73929	0.561
8.7745	0.565
8.80971	0.572
8.84493	0.53
8.88014	0.408
8.91535	0.3
8.95056	0.448
8.98577	0.413
9.02099	0.33
9.0562	0.497
9.09141	0.589
9.12662	0.648
9.16183	0.673
9.19705	0.685
9.23226	0.674
9.26747	0.6
9.30268	0.45
9.33789	0.339
9.37311	0.424
9.40832	0.558
9.44353	0.573
9.47874	0.56
9.51396	0.586
9.54917	0.572
9.58438	0.553
9.61959	0.467
9.6548	0.422
9.69002	0.535
9.72523	0.499
9.76044	0.36
9.79565	0.234
9.83086	0.177
9.86608	0.182
9.90129	0.34
9.9365	0.46
9.97171	0.539
10.0069	0.577
10.0421	0.65
10.0773	0.7
10.1126	0.726
10.1478	0.746
10.183	0.763
10.2182	0.772
10.2534	0.773
10.2886	0.753
10.3238	0.732
10.359	0.707
10.3943	0.706
10.4295	0.706
10.4647	0.674
10.4999	0.553
10.5351	0.419
10.5703	0.438
10.6055	0.563
10.6407	0.648
10.676	0.707
10.7112	0.744
10.7464	0.777
10.7816	0.782
10.8168	0.803
10.852	0.815
10.8872	0.815
10.9224	0.826
10.9576	0.831
10.9929	0.848
11.0281	0.848
11.0633	0.846
11.0985	0.845
11.1337	0.833
11.1689	0.829
11.2041	0.805
11.2393	0.742
11.2746	0.66
11.3098	0.603
11.345	0.563
11.3802	0.551
11.4154	0.572
11.4506	0.643
11.4858	0.693
11.521	0.733
11.5563	0.737
11.5915	0.726
11.6267	0.706
11.6619	0.619
11.6971	0.509
11.7323	0.4
11.7675	0.469
11.8027	0.61
11.838	0.702
11.8732	0.76
11.9084	0.784
11.9436	0.803
11.9788	0.808
12.014	0.819
12.0492	0.829
12.0844	0.836
12.1196	0.84
12.1549	0.845
12.1901	0.845
12.2253	0.845
12.2605	0.852
12.2957	0.853
12.3309	0.864
12.3661	0.862
12.4013	0.857
12.4366	0.855
12.4718	0.855
12.507	0.853
12.5422	0.848
12.5774	0.84
12.6126	0.834
12.6478	0.826
12.683	0.805
12.7183	0.796
12.7535	0.777
12.7887	0.773
12.8239	0.768
12.8591	0.749
12.8943	0.709
12.9295	0.648
12.9647	0.506
12.9999	0.313
13.0352	0.12
13.0704	0.076
13.1056	0.092
13.1408	0.12
13.176	0.093
13.2112	0.095
13.2464	0.21
13.2816	0.368
13.3169	0.476
13.3521	0.575
13.3873	0.634
13.4225	0.678
13.4577	0.704
13.4929	0.713
13.5281	0.716
13.5633	0.711
13.5986	0.686
13.6338	0.636
13.669	0.582
13.7042	0.497
13.7394	0.436
13.7746	0.434
13.8098	0.464
13.845	0.551
13.8802	0.61
13.9155	0.66
13.9507	0.685
13.9859	0.706
14.0211	0.716
14.0563	0.72
14.0915	0.728
14.1267	0.725
14.1619	0.713
14.1972	0.704
14.2324	0.673
14.2676	0.633
14.3028	0.502
14.338	0.295
14.3732	0.24
14.4084	0.241
14.4436	0.219
14.4789	0.288
14.5141	0.443
14.5493	0.577
14.5845	0.64
14.6197	0.666
14.6549	0.676
14.6901	0.683
14.7253	0.685
14.7606	0.686
14.7958	0.686
14.831	0.688
14.8662	0.686
14.9014	0.671
14.9366	0.633
14.9718	0.619
15.007	0.633
15.0422	0.577
15.0775	0.506
15.1127	0.488
15.1479	0.506
15.1831	0.535
15.2183	0.563
15.2535	0.587
15.2887	0.587
15.3239	0.584
15.3592	0.586
15.3944	0.587
15.4296	0.591
15.4648	0.587
15.5	0.584
15.5352	0.582
15.5704	0.575
15.6056	0.568
15.6409	0.566
15.6761	0.563
15.7113	0.551
15.7465	0.551
15.7817	0.551
15.8169	0.54
15.8521	0.526
15.8873	0.525
15.9225	0.526
15.9578	0.532
15.993	0.533
