Infrared Spectrum: 1-PHENYL-3-ACETOXY-4-METHYL-2-PYRAZOLINE
Formula: C12 H14 N2 O2
CAS: 2748-22-3
State: SOLID (KBr PRESSING)
Melting point: 65 C
Class: COBLENTZ
Instrument: Not specified, most likely a prism, grating, or hybrid spectrometer.
Sampling: TRANSMISSION
Resolution: 4
Origin: EASTMAN KODAK COMPANY, RESEARCH LABORATORIES, ROCHESTER, N.Y.
MICROMETERS	TRANSMITTANCE
2.106	0.5
2.14119	0.5
2.17637	0.502
2.21156	0.509
2.24675	0.52
2.28193	0.523
2.31712	0.528
2.3523	0.539
2.38749	0.53
2.42268	0.539
2.45786	0.558
2.49305	0.565
2.52824	0.568
2.56342	0.581
2.59861	0.591
2.6338	0.598
2.66898	0.603
2.70417	0.605
2.73936	0.6
2.77454	0.572
2.80973	0.537
2.84491	0.544
2.8801	0.553
2.91529	0.57
2.95047	0.589
2.98566	0.609
3.02085	0.623
3.05603	0.623
3.09122	0.63
3.12641	0.636
3.16159	0.645
3.19678	0.643
3.23196	0.502
3.26715	0.458
3.30234	0.561
3.33752	0.418
3.37271	0.511
3.4079	0.467
3.44308	0.539
3.47827	0.312
3.51346	0.52
3.54864	0.689
3.58383	0.699
3.61901	0.708
3.6542	0.715
3.68939	0.72
3.72457	0.729
3.75976	0.741
3.79495	0.739
3.83013	0.717
3.86532	0.738
3.90051	0.752
3.93569	0.76
3.97088	0.78
4.00607	0.771
4.04125	0.778
4.07644	0.778
4.11162	0.771
4.14681	0.773
4.182	0.776
4.21718	0.788
4.25237	0.801
4.28756	0.818
4.32274	0.82
4.35793	0.813
4.39312	0.823
4.4283	0.823
4.46349	0.827
4.49867	0.83
4.53386	0.828
4.56905	0.83
4.60423	0.834
4.63942	0.832
4.67461	0.832
4.70979	0.816
4.74498	0.806
4.78017	0.806
4.81535	0.832
4.85054	0.848
4.88572	0.862
4.92091	0.856
4.9561	0.853
4.99128	0.846
5.02647	0.82
5.06166	0.811
5.09684	0.815
5.13203	0.79
5.16722	0.759
5.2024	0.792
5.23759	0.821
5.27278	0.83
5.30796	0.832
5.34315	0.82
5.37833	0.773
5.41352	0.741
5.44871	0.698
5.48389	0.682
5.51908	0.574
5.55427	0.357
5.58945	0.254
5.62464	0.087
5.65983	0.043
5.69501	0.085
5.7302	0.315
5.76538	0.511
5.80057	0.668
5.83576	0.699
5.87094	0.719
5.90613	0.724
5.94132	0.715
5.9765	0.666
6.01169	0.643
6.04688	0.631
6.08206	0.464
6.11725	0.136
6.15243	0.363
6.18762	0.221
6.22281	0.024
6.25799	0.073
6.29318	0.371
6.32837	0.335
6.36355	0.509
6.39874	0.68
6.43393	0.753
6.46911	0.759
6.5043	0.727
6.53949	0.673
6.57467	0.504
6.60986	0.204
6.64504	0.05
6.68023	0.085
6.71542	0.211
6.7506	0.328
6.78579	0.359
6.82098	0.148
6.85616	0.071
6.89135	0.361
6.92654	0.408
6.96172	0.403
6.99691	0.383
7.03209	0.375
7.06728	0.452
7.10247	0.474
7.13765	0.366
7.17284	0.204
7.20803	0.094
7.24321	0.097
7.2784	0.048
7.31359	0.031
7.34877	0.055
7.38396	0.134
7.41914	0.275
7.45433	0.368
7.48952	0.455
7.5247	0.464
7.55989	0.534
7.59508	0.485
7.63026	0.294
7.66545	0.223
7.70064	0.326
7.73582	0.284
7.77101	0.425
7.8062	0.507
7.84138	0.595
7.87657	0.673
7.91175	0.694
7.94694	0.698
7.98213	0.663
8.01731	0.511
8.0525	0.291
8.08769	0.183
8.12287	0.347
8.15806	0.411
8.19325	0.383
8.22843	0.254
8.26362	0.118
8.2988	0.047
8.33399	0.033
8.36918	0.029
8.40436	0.031
8.43955	0.024
8.47474	0.022
8.50992	0.024
8.54511	0.047
8.5803	0.073
8.61548	0.094
8.65067	0.141
8.68585	0.219
8.72104	0.268
8.75623	0.272
8.79141	0.247
8.8266	0.284
8.86179	0.301
8.89697	0.167
8.93216	0.123
8.96735	0.211
9.00253	0.279
9.03772	0.357
9.07291	0.214
9.10809	0.317
9.14328	0.445
9.17846	0.507
9.21365	0.513
9.24884	0.471
9.28402	0.34
9.31921	0.202
9.3544	0.183
9.38958	0.095
9.42477	0.043
9.45996	0.052
9.49514	0.132
9.53033	0.151
9.56551	0.15
9.6007	0.226
9.63589	0.307
9.67107	0.137
9.70626	0.218
9.74145	0.284
9.77663	0.261
9.81182	0.136
9.84701	0.094
9.88219	0.144
9.91738	0.202
9.95256	0.111
9.98775	0.179
10.0229	0.359
10.0581	0.438
10.0933	0.45
10.1285	0.434
10.1637	0.509
10.1989	0.57
10.2341	0.575
10.2692	0.549
10.3044	0.474
10.3396	0.298
10.3748	0.226
10.41	0.28
10.4452	0.317
10.4804	0.415
10.5155	0.532
10.5507	0.586
10.5859	0.626
10.6211	0.65
10.6563	0.666
10.6915	0.677
10.7267	0.685
10.7619	0.687
10.797	0.687
10.8322	0.694
10.8674	0.713
10.9026	0.713
10.9378	0.71
10.973	0.682
11.0082	0.532
11.0433	0.354
11.0785	0.129
11.1137	0.085
11.1489	0.181
11.1841	0.324
11.2193	0.483
11.2545	0.541
11.2896	0.558
11.3248	0.521
11.36	0.34
11.3952	0.263
11.4304	0.41
11.4656	0.556
11.5008	0.645
11.536	0.706
11.5711	0.726
11.6063	0.759
11.6415	0.767
11.6767	0.771
11.7119	0.78
11.7471	0.78
11.7823	0.776
11.8174	0.776
11.8526	0.774
11.8878	0.762
11.923	0.752
11.9582	0.719
11.9934	0.647
12.0286	0.52
12.0637	0.356
12.0989	0.212
12.1341	0.212
12.1693	0.357
12.2045	0.476
12.2397	0.527
12.2749	0.581
12.3101	0.675
12.3452	0.743
12.3804	0.762
12.4156	0.79
12.4508	0.802
12.486	0.808
12.5212	0.808
12.5564	0.808
12.5915	0.806
12.6267	0.794
12.6619	0.757
12.6971	0.698
12.7323	0.605
12.7675	0.565
12.8027	0.63
12.8378	0.691
12.873	0.738
12.9082	0.76
12.9434	0.766
12.9786	0.766
13.0138	0.741
13.049	0.71
13.0842	0.652
13.1193	0.551
13.1545	0.424
13.1897	0.253
13.2249	0.08
13.2601	0.034
13.2953	0.029
13.3305	0.029
13.3656	0.05
13.4008	0.134
13.436	0.265
13.4712	0.39
13.5064	0.457
13.5416	0.481
13.5768	0.441
13.6119	0.319
13.6471	0.216
13.6823	0.216
13.7175	0.303
13.7527	0.432
13.7879	0.509
13.8231	0.574
13.8583	0.636
13.8934	0.678
13.9286	0.705
13.9638	0.734
13.999	0.745
14.0342	0.759
14.0694	0.766
14.1046	0.773
14.1397	0.769
14.1749	0.755
14.2101	0.729
14.2453	0.692
14.2805	0.647
14.3157	0.598
14.3509	0.479
14.386	0.287
14.4212	0.148
14.4564	0.08
14.4916	0.122
14.5268	0.254
14.562	0.443
14.5972	0.589
14.6324	0.666
14.6675	0.705
14.7027	0.741
14.7379	0.764
14.7731	0.778
14.8083	0.785
14.8435	0.795
14.8787	0.795
14.9138	0.792
14.949	0.781
14.9842	0.781
15.0194	0.781
15.0546	0.769
15.0898	0.745
15.125	0.701
15.1602	0.654
15.1953	0.584
15.2305	0.499
15.2657	0.49
15.3009	0.541
15.3361	0.605
15.3713	0.668
15.4065	0.715
15.4416	0.736
15.4768	0.748
15.512	0.755
15.5472	0.759
15.5824	0.764
15.6176	0.766
15.6528	0.766
15.6879	0.76
15.7231	0.757
15.7583	0.75
15.7935	0.741
15.8287	0.732
15.8639	0.729
15.8991	0.717
15.9343	0.701
