Infrared Spectrum: 1-Amino-1-propanol
Formula: C 3 H 9 N O
CAS: 2749-11-3
State: gas
Instrument: HP-GC/MS/IRD
Origin: NIST Mass Spectrometry Data Center
1/CM	ABSORBANCE
550	0.0002188
562	7.36e-05
574	7.44e-05
586	0.000184
598	0.0001772
610	0.0002696
622	0.0002672
634	0.000358
646	0.0003744
658	0.0003588
670	0.0003748
682	0.0003688
694	0.0004896
706	0.0005632
718	0.0007052
730	0.0008896
742	0.0011348
754	0.0014604
766	0.0018364
778	0.0020652
790	0.0021696
802	0.0020912
814	0.0017272
826	0.0014492
838	0.001076
850	0.0008832
862	0.0006412
874	0.0005236
886	0.0004132
898	0.0004312
910	0.000524
922	0.0005944
934	0.0006348
946	0.0005868
958	0.0005484
970	0.0006416
982	0.0008524
994	0.0011224
1006	0.0014844
1018	0.0021356
1030	0.0031404
1042	0.0039016
1054	0.0038396
1066	0.002872
1078	0.001628
1090	0.00105
1102	0.0007808
1114	0.0007164
1126	0.0007116
1138	0.0007128
1150	0.0007152
1162	0.0006892
1174	0.0005824
1186	0.0006088
1198	0.0005636
1210	0.0005092
1222	0.0004648
1234	0.00048
1246	0.0004984
1258	0.0004292
1270	0.0004676
1282	0.0004656
1294	0.0005152
1306	0.0005912
1318	0.00071
1330	0.0007908
1342	0.00086
1354	0.000916
1366	0.0010572
1378	0.0011672
1390	0.0011912
1402	0.0010392
1414	0.000796
1426	0.0006488
1438	0.000538
1450	0.0005836
1462	0.0006516
1474	0.0005508
1486	0.000426
1498	0.0002864
1510	0.0002408
1522	0.0002352
1534	0.0002352
1546	0.0002388
1558	0.000266
1570	0.0002872
1582	0.0003632
1594	0.0005
1606	0.0006508
1618	0.0007712
1630	0.000732
1642	0.0005512
1654	0.0003704
1666	0.0002172
1678	0.0001388
1690	9.92e-05
1702	9.6e-05
1714	7.6e-05
1726	6.12e-05
1738	6.64e-05
1750	6.68e-05
1762	4e-05
1774	4.24e-05
1786	4.36e-05
1798	3.72e-05
1810	3.92e-05
1822	5.52e-05
1834	3.96e-05
1846	4.96e-05
1858	4.44e-05
1870	4.84e-05
1882	4e-05
1894	4.48e-05
1906	3.08e-05
1918	5e-05
1930	2.92e-05
1942	3.28e-05
1954	3.84e-05
1966	3.28e-05
1978	3.8e-05
1990	3.44e-05
2002	4.72e-05
2014	4.16e-05
2026	3.84e-05
2038	3.48e-05
2050	5.88e-05
2062	3.92e-05
2074	5.72e-05
2086	4.72e-05
2098	5e-05
2110	4.48e-05
2122	3.68e-05
2134	2.84e-05
2146	3.64e-05
2158	2.88e-05
2170	3.92e-05
2182	3.6e-05
2194	4.4e-05
2206	2.04e-05
2218	4.04e-05
2230	3.84e-05
2242	3.16e-05
2254	3.56e-05
2266	2.76e-05
2278	4.8e-05
2290	2.84e-05
2302	3.92e-05
2314	4.44e-05
2326	5.44e-05
2338	5.92e-05
2350	5e-05
2362	4.12e-05
2374	6.36e-05
2386	2.84e-05
2398	2.68e-05
2410	7e-05
2422	6.44e-05
2434	5.92e-05
2446	6.08e-05
2458	4.44e-05
2470	7.72e-05
2482	4.76e-05
2494	6.6e-05
2506	5.56e-05
2518	6.16e-05
2530	6.8e-05
2542	5.96e-05
2554	6.8e-05
2566	7.56e-05
2578	8.4e-05
2590	0.0001132
2602	0.0001064
2614	0.0001308
2626	0.0001228
2638	0.0001216
2650	0.000132
2662	0.0001484
2674	0.0001444
2686	0.0001852
2698	0.0001716
2710	0.0002244
2722	0.0002212
2734	0.0002736
2746	0.0003156
2758	0.0003236
2770	0.0003776
2782	0.0003932
2794	0.000466
2806	0.0005252
2818	0.0006716
2830	0.0008988
2842	0.0012836
2854	0.0017584
2866	0.0022784
2878	0.0025972
2890	0.0026424
2902	0.0026664
2914	0.0028024
2926	0.0030684
2938	0.0031428
2950	0.0031532
2962	0.003372
2974	0.0029692
2986	0.0021696
2998	0.0011412
3010	0.0004956
3022	0.000236
3034	0.0001716
3046	0.0001508
3058	0.000128
3070	0.0001332
3082	0.000164
3094	0.0001092
3106	0.0001448
3118	9.6e-05
3130	0.0001292
3142	0.000134
3154	0.0001284
3166	0.0001136
3178	0.0001212
3190	8.16e-05
3202	6.16e-05
3214	7.12e-05
3226	8e-05
3238	6e-05
3250	3.36e-05
3262	4.44e-05
3274	3.24e-05
3286	5.64e-05
3298	7.92e-05
3310	6.92e-05
3322	9.32e-05
3334	0.0001108
3346	0.0001336
3358	0.0001164
3370	7.44e-05
3382	8.24e-05
3394	0.0001676
3406	0.0001572
3418	0.0001448
3430	8.84e-05
3442	7.84e-05
3454	7.32e-05
3466	0.0001048
3478	7.72e-05
3490	6.84e-05
3502	0.000104
3514	5.4e-05
3526	0.0001664
3538	0.0002304
3550	0.0003552
3562	0.0004224
3574	0.0003824
3586	0.000322
3598	0.0002268
3610	0.0001768
3622	0.0002212
3634	0.0002412
3646	0.000336
3658	0.0004312
3670	0.0004788
3682	0.0004324
3694	0.000338
3706	0.0001984
3718	0.000132
3730	8.6e-05
3742	4.64e-05
3754	4.04e-05
3766	4.64e-05
3778	4.4e-05
3790	1.92e-05
3802	1.44e-05
3814	2.4e-05
3826	8.16e-05
3838	1.88e-05
