Infrared Spectrum: 17Beta-ACETYLAMINO-5-ANDROSTEN-3Beta-OL
Formula: C21 H33 N O2
CAS: 27508-62-9
State: SOLID (0.02 MOLAR IN KBr DISC)
Class: COBLENTZ III
Instrument: PERKIN-ELMER 21 (GRATING)
Instrument parameters: FILTER AT ABOUT 10 MICRONS
Resolution: 2
Origin: ABBOTT LABORATORIES
1/CM	TRANSMITTANCE
668	0.4008
677	0.4052
686	0.4177
695	0.4246
704	0.4368
713	0.4487
722	0.4531
731	0.4504
740	0.4763
749	0.4841
758	0.5054
767	0.5122
776	0.5301
785	0.5348
794	0.4583
803	0.479
812	0.571
821	0.5729
830	0.5442
839	0.4956
848	0.5625
857	0.6629
866	0.674
875	0.6338
884	0.6386
893	0.6116
902	0.6755
911	0.6447
920	0.6444
929	0.6564
938	0.6192
947	0.4459
956	0.5346
965	0.6097
974	0.5542
983	0.5326
992	0.5832
1001	0.5226
1010	0.4806
1019	0.4468
1028	0.2837
1037	0.3901
1046	0.2742
1055	0.1689
1064	0.1259
1073	0.4633
1082	0.5141
1091	0.3738
1100	0.501
1109	0.5572
1118	0.5844
1127	0.5144
1136	0.4996
1145	0.5364
1154	0.5759
1163	0.5863
1172	0.59
1181	0.5758
1190	0.5321
1199	0.5411
1208	0.559
1217	0.5067
1226	0.4876
1235	0.5339
1244	0.4487
1253	0.4976
1262	0.4597
1271	0.3924
1280	0.4223
1289	0.3433
1298	0.3107
1307	0.2653
1316	0.4097
1325	0.4056
1334	0.41
1343	0.4139
1352	0.3492
1361	0.2593
1370	0.1493
1379	0.2672
1388	0.3506
1397	0.3964
1406	0.3686
1415	0.2705
1424	0.1633
1433	0.1523
1442	0.1636
1451	0.2011
1460	0.2118
1469	0.3185
1478	0.4061
1487	0.4157
1496	0.3896
1505	0.3288
1514	0.2685
1523	0.209
1532	0.1501
1541	0.0653
1550	0.0524
1559	0.1146
1568	0.2046
1577	0.3042
1586	0.4011
1595	0.4206
1604	0.3815
1613	0.2791
1622	0.1777
1631	0.0774
1640	0.0387
1649	0.0669
1658	0.0893
1667	0.1836
1676	0.2769
1685	0.3758
1694	0.6077
1703	0.6324
1712	0.651
1721	0.6688
1730	0.6844
1739	0.6976
1748	0.7072
1757	0.7202
1766	0.7303
1775	0.7379
1784	0.7436
1793	0.7485
1802	0.7512
1811	0.7538
1820	0.7557
1829	0.7575
1838	0.7594
1847	0.7611
1856	0.7626
1865	0.764
1874	0.7641
1883	0.7642
1892	0.7643
1901	0.7643
1910	0.7645
1919	0.7648
1928	0.765
1937	0.7653
1946	0.7656
1955	0.7657
1964	0.7656
1973	0.7656
1982	0.7656
1991	0.7656
2000	0.7654
2009	0.7652
2018	0.7649
2027	0.7647
2036	0.7644
2045	0.7642
2054	0.7639
2063	0.7634
2072	0.7629
2081	0.7625
2090	0.762
2099	0.7616
2108	0.7612
2117	0.7609
2126	0.7607
2135	0.7595
2144	0.7579
2153	0.7549
2162	0.7517
2171	0.7481
2180	0.7446
2189	0.7408
2198	0.7381
2207	0.7369
2216	0.7369
2225	0.7372
2234	0.7379
2243	0.7386
2252	0.7391
2261	0.7396
2270	0.7401
2279	0.7407
2288	0.7411
2297	0.7414
2306	0.7418
2315	0.7423
2324	0.7422
2333	0.742
2342	0.7419
2351	0.7414
2360	0.7409
2369	0.7405
2378	0.74
2387	0.7394
2396	0.7383
2405	0.7373
2414	0.7362
2423	0.7352
2432	0.7336
2441	0.732
2450	0.7303
2459	0.7287
2468	0.727
2477	0.7252
2486	0.7233
2495	0.7215
2504	0.7196
2513	0.7172
2522	0.7141
2531	0.711
2540	0.708
2549	0.7049
2558	0.7012
2567	0.6974
2576	0.6934
2585	0.6873
2594	0.681
2603	0.6751
2612	0.6695
2621	0.666
2630	0.6648
2639	0.6648
2648	0.6665
2657	0.6693
2666	0.6705
2675	0.6679
2684	0.6647
2693	0.6617
2702	0.6581
2711	0.6536
2720	0.6483
2729	0.6418
2738	0.6334
2747	0.6208
2756	0.6036
2765	0.5827
2774	0.5597
2783	0.5249
2792	0.4769
2801	0.3847
2810	0.2931
2819	0.2218
2828	0.202
2837	0.1773
2846	0.158
2855	0.127
2864	0.1197
2873	0.1152
2882	0.1124
2891	0.1074
2900	0.1001
2909	0.0784
2918	0.0699
2927	0.0722
2936	0.0813
2945	0.0874
2954	0.0923
2963	0.1274
2972	0.2566
2981	0.3816
2990	0.4189
2999	0.4347
3008	0.4403
3017	0.4378
3026	0.4313
3035	0.4262
3044	0.422
3053	0.4094
3062	0.3883
3071	0.3672
3080	0.3463
3089	0.3323
3098	0.3293
3107	0.3228
3116	0.3079
3125	0.2968
3134	0.2862
3143	0.2751
3152	0.2646
3161	0.2559
3170	0.2475
3179	0.2402
3188	0.2337
3197	0.2275
3206	0.2215
3215	0.2147
3224	0.206
3233	0.1948
3242	0.1836
3251	0.1725
3260	0.1614
3269	0.1501
3278	0.1397
3287	0.1303
3296	0.1214
3305	0.1127
3314	0.1044
3323	0.1007
3332	0.0988
3341	0.0973
3350	0.1002
3359	0.1083
3368	0.1439
3377	0.1572
3386	0.1664
3395	0.1739
3404	0.1804
3413	0.1863
3422	0.1919
3431	0.1976
3440	0.2161
3449	0.2432
3458	0.2677
3467	0.2964
3476	0.3248
3485	0.3532
3494	0.3814
3503	0.4094
3512	0.4373
3521	0.4651
3530	0.4927
3539	0.52
3548	0.5474
3557	0.5746
3566	0.6016
3575	0.6276
3584	0.671
3593	0.686
3602	0.703
3611	0.7116
3620	0.7197
3629	0.7287
3638	0.7378
3647	0.7457
3656	0.7504
3665	0.7535
3674	0.7553
3683	0.7565
3692	0.7577
3701	0.7585
3710	0.759
3719	0.7596
3728	0.7599
3737	0.7597
3746	0.7597
3755	0.7595
3764	0.7593
3773	0.7589
3782	0.7585
3791	0.7581
3800	0.7578
3809	0.7575
3818	0.7572
3827	0.757
3836	0.7567
3845	0.7565
3854	0.7562
3863	0.756
3872	0.7557
3881	0.7555
3890	0.7553
3899	0.7551
3908	0.7549
3917	0.7547
3926	0.7546
3935	0.7545
3944	0.7543
3953	0.7542
3962	0.754
3971	0.7539
3980	0.7539
3989	0.7537
3998	0.7537
