Infrared Spectrum: 2-Ethyl-1-pentanol
Formula: C 7 H 16 O
CAS: 27522-11-8
State: gas
Instrument: HP-GC/MS/IRD
Origin: NIST Mass Spectrometry Data Center
1/CM	ABSORBANCE
550	0.0003069
562	0.0001188
574	0.000231
586	0.0001518
598	0.0002706
610	0.0002277
622	0.0001584
634	5.94e-05
646	0.000165
658	8.91e-05
670	0.0001419
682	0.0001056
694	0.0001815
706	0.0002442
718	0.0003135
730	0.0005115
742	0.0007029
754	0.000627
766	0.0008085
778	0.0008976
790	0.000693
802	0.000594
814	0.0004818
826	0.0005016
838	0.0004488
850	0.0005148
862	0.0006633
874	0.0008118
886	0.0010296
898	0.0011286
910	0.0011253
922	0.0011517
934	0.0013563
946	0.0018744
958	0.0023265
970	0.0024057
982	0.0025542
994	0.0032472
1006	0.0049137
1018	0.0082764
1030	0.0128007
1042	0.0135135
1054	0.0088671
1066	0.004653
1078	0.0028149
1090	0.0022209
1102	0.0020823
1114	0.0019833
1126	0.0017391
1138	0.0016566
1150	0.0016566
1162	0.0015312
1174	0.0014883
1186	0.0016896
1198	0.0018843
1210	0.0019437
1222	0.0019668
1234	0.0019338
1246	0.0019173
1258	0.0019602
1270	0.0019371
1282	0.0019206
1294	0.0018645
1306	0.0018447
1318	0.0017985
1330	0.0018777
1342	0.0020229
1354	0.0021582
1366	0.0025344
1378	0.0034518
1390	0.0035244
1402	0.0021912
1414	0.0014256
1426	0.0012969
1438	0.0018117
1450	0.0034122
1462	0.0049698
1474	0.0045804
1486	0.0026235
1498	0.0011946
1510	0.0007095
1522	0.0005346
1534	0.0004257
1546	0.0003366
1558	0.0003201
1570	0.0002442
1582	0.0002376
1594	0.0001914
1606	0.0002112
1618	0.000198
1630	0.0001551
1642	0.0001551
1654	0.0001584
1666	0.0001122
1678	0.0001023
1690	0.0001089
1702	9.57e-05
1714	6.6e-05
1726	4.95e-05
1738	2.64e-05
1750	4.62e-05
1762	3.96e-05
1774	4.29e-05
1786	3.3e-05
1798	6.6e-06
1810	3.63e-05
1822	2.31e-05
1834	1.32e-05
1846	9.9e-06
1858	0
1870	3.63e-05
1882	2.31e-05
1894	3.63e-05
1906	1.98e-05
1918	1.98e-05
1930	1.65e-05
1942	2.31e-05
1954	1.32e-05
1966	3.3e-06
1978	2.97e-05
1990	2.97e-05
2002	4.62e-05
2014	7.59e-05
2026	7.92e-05
2038	6.93e-05
2050	0.0001188
2062	9.9e-05
2074	8.91e-05
2086	5.94e-05
2098	3.96e-05
2110	3.63e-05
2122	1.65e-05
2134	1.65e-05
2146	3.3e-06
2158	3.63e-05
2170	1.32e-05
2182	6.6e-06
2194	1.32e-05
2206	0
2218	3.63e-05
2230	3.3e-05
2242	1.32e-05
2254	3.63e-05
2266	3.63e-05
2278	3.63e-05
2290	1.98e-05
2302	4.95e-05
2314	4.62e-05
2326	7.59e-05
2338	5.94e-05
2350	8.58e-05
2362	0.0001089
2374	8.91e-05
2386	8.91e-05
2398	0.000132
2410	0.0001188
2422	9.24e-05
2434	9.9e-05
2446	8.58e-05
2458	7.26e-05
2470	4.95e-05
2482	6.6e-05
2494	6.27e-05
2506	9.9e-05
2518	6.93e-05
2530	0.0001221
2542	9.57e-05
2554	0.0001221
2566	0.0002013
2578	0.0002112
2590	0.0002244
2602	0.0002574
2614	0.0002541
2626	0.0002772
2638	0.000297
2650	0.0003597
2662	0.0003993
2674	0.0004422
2686	0.000495
2698	0.000561
2710	0.0006633
2722	0.0007788
2734	0.0009801
2746	0.0011715
2758	0.0012078
2770	0.0012672
2782	0.0014619
2794	0.0016764
2806	0.0019173
2818	0.0023529
2830	0.0030789
2842	0.0048048
2854	0.0086262
2866	0.0150546
2878	0.0216117
2890	0.0220539
2902	0.0202653
2914	0.0242847
2926	0.0300828
2938	0.0309771
2950	0.0277365
2962	0.0316206
2974	0.0288486
2986	0.0133386
2998	0.0054648
3010	0.0032637
3022	0.002409
3034	0.0018744
3046	0.0014652
3058	0.0011583
3070	0.0009339
3082	0.0008151
3094	0.0006963
3106	0.000627
3118	0.0005511
3130	0.0005148
3142	0.0004521
3154	0.000396
3166	0.0003168
3178	0.0002838
3190	0.0003036
3202	0.0002607
3214	8.58e-05
3226	8.58e-05
3238	8.58e-05
3250	1.98e-05
3262	2.31e-05
3274	5.61e-05
3286	9.9e-06
3298	1.32e-05
3310	2.97e-05
3322	1.98e-05
3334	4.95e-05
3346	9.9e-06
3358	3.96e-05
3370	1.32e-05
3382	6.6e-06
3394	7.26e-05
3406	7.26e-05
3418	0.0001155
3430	8.91e-05
3442	1.98e-05
3454	0.0001221
3466	0.0001518
3478	0.000132
3490	0.0001221
3502	0.0001485
3514	7.92e-05
3526	9.24e-05
3538	0.0001056
3550	0.0001056
3562	0.0001353
3574	0.0001023
3586	0.0001155
3598	0.0001782
3610	0.0002079
3622	0.0003168
3634	0.0005412
3646	0.0011682
3658	0.0024552
3670	0.0031185
3682	0.0020526
3694	0.0007821
3706	0.0003762
3718	0.0002574
3730	0.0002277
3742	0.0001947
3754	0.0002178
3766	0.0001947
3778	0.0001716
3790	0.0002046
3802	0.0001716
3814	0.0002178
3826	0.0002904
3838	0.0002442
