Infrared Spectrum: Di-isooctyl phthalate
Formula: C 24 H 38 O 4
CAS: 27554-26-3
State: gas
Instrument: HP-GC/MS/IRD
Origin: NIST Mass Spectrometry Data Center
1/CM	ABSORBANCE
550	0.0001515
562	7.65e-05
574	0.000129
586	0.000147
598	0.00012
610	9.15e-05
622	6e-05
634	6.15e-05
646	0.000291
658	0.000204
670	0.0001785
682	0.0003405
694	0.000795
706	0.0008055
718	0.0008445
730	0.001272
742	0.001944
754	0.001347
766	0.0010035
778	0.0010215
790	0.000789
802	0.000531
814	0.000444
826	0.0003645
838	0.0003375
850	0.000342
862	0.0003765
874	0.0003525
886	0.000366
898	0.000426
910	0.0005025
922	0.0006285
934	0.000792
946	0.0010305
958	0.001257
970	0.0010155
982	0.0008985
994	0.0008295
1006	0.0007905
1018	0.000876
1030	0.0014025
1042	0.0024765
1054	0.0029445
1066	0.007206
1078	0.003957
1090	0.002091
1102	0.0033
1114	0.008079
1126	0.0085995
1138	0.0055605
1150	0.002397
1162	0.0013695
1174	0.0008595
1186	0.0007815
1198	0.0009105
1210	0.001278
1222	0.0020505
1234	0.0042675
1246	0.008466
1258	0.0130245
1270	0.0148335
1282	0.0128535
1294	0.007926
1306	0.0037755
1318	0.002148
1330	0.001431
1342	0.0012255
1354	0.000999
1366	0.00102
1378	0.001545
1390	0.001662
1402	0.0007665
1414	0.000612
1426	0.000606
1438	0.00096
1450	0.001605
1462	0.002247
1474	0.0018915
1486	0.001023
1498	0.0006345
1510	0.000618
1522	0.000489
1534	0.0003465
1546	0.000366
1558	0.000459
1570	0.0004875
1582	0.0006165
1594	0.000462
1606	0.0004365
1618	0.0003165
1630	0.0002895
1642	0.000318
1654	0.000423
1666	0.0004035
1678	0.0005085
1690	0.000699
1702	0.001218
1714	0.0019665
1726	0.0041415
1738	0.011787
1750	0.011811
1762	0.0039435
1774	0.001665
1786	0.0009105
1798	0.0005925
1810	0.0003945
1822	0.0003315
1834	0.000288
1846	0.000249
1858	0.0001845
1870	0.0001605
1882	0.0001215
1894	0.000114
1906	0.0001125
1918	0.000126
1930	0.000162
1942	0.0001365
1954	9.45e-05
1966	0.000135
1978	6.15e-05
1990	6.75e-05
2002	5.4e-05
2014	5.25e-05
2026	6.6e-05
2038	6.75e-05
2050	8.25e-05
2062	7.35e-05
2074	7.95e-05
2086	7.95e-05
2098	6.9e-05
2110	6.45e-05
2122	6.15e-05
2134	5.1e-05
2146	4.2e-05
2158	3.6e-05
2170	4.5e-05
2182	4.5e-05
2194	3.9e-05
2206	4.95e-05
2218	6.75e-05
2230	6.15e-05
2242	4.05e-05
2254	3.75e-05
2266	4.05e-05
2278	3e-05
2290	4.2e-05
2302	4.65e-05
2314	5.7e-05
2326	7.35e-05
2338	8.55e-05
2350	7.2e-05
2362	5.55e-05
2374	5.85e-05
2386	4.5e-05
2398	4.8e-05
2410	4.2e-05
2422	2.7e-05
2434	3.15e-05
2446	1.2e-05
2458	1.35e-05
2470	1.95e-05
2482	2.1e-05
2494	9e-06
2506	1.8e-05
2518	1.35e-05
2530	2.1e-05
2542	3.3e-05
2554	3.15e-05
2566	3.45e-05
2578	5.7e-05
2590	6e-05
2602	6.75e-05
2614	6.9e-05
2626	8.1e-05
2638	7.8e-05
2650	7.5e-05
2662	9.3e-05
2674	8.85e-05
2686	0.000108
2698	0.000135
2710	0.000138
2722	0.0001545
2734	0.0001935
2746	0.0002355
2758	0.0002145
2770	0.0002325
2782	0.000261
2794	0.0003105
2806	0.0003975
2818	0.0005115
2830	0.0007245
2842	0.0010815
2854	0.0020115
2866	0.0039975
2878	0.004533
2890	0.0044265
2902	0.004185
2914	0.0053415
2926	0.007761
2938	0.0097725
2950	0.008019
2962	0.0089265
2974	0.0085575
2986	0.0034935
2998	0.0016995
3010	0.0010125
3022	0.0007335
3034	0.000636
3046	0.000507
3058	0.000525
3070	0.000849
3082	0.0009495
3094	0.000375
3106	0.0002835
3118	0.000195
3130	0.000186
3142	0.0001605
3154	0.0001365
3166	0.0001155
3178	0.000105
3190	8.55e-05
3202	0.0001035
3214	4.8e-05
3226	5.55e-05
3238	5.85e-05
3250	5.25e-05
3262	3.45e-05
3274	5.1e-05
3286	5.55e-05
3298	4.2e-05
3310	3.15e-05
3322	2.85e-05
3334	4.05e-05
3346	3.15e-05
3358	3.6e-05
3370	4.2e-05
3382	4.5e-06
3394	4.5e-05
3406	3e-05
3418	4.2e-05
3430	4.2e-05
3442	9e-05
3454	0.0001065
3466	0.0001365
3478	0.0001575
3490	0.0001035
3502	9.45e-05
3514	2.1e-05
3526	4.8e-05
3538	3.45e-05
3550	5.85e-05
3562	7.8e-05
3574	2.1e-05
3586	8.4e-05
3598	2.55e-05
3610	9.15e-05
3622	4.8e-05
3634	3.75e-05
3646	7.95e-05
3658	5.1e-05
3670	6.3e-05
3682	5.4e-05
3694	2.55e-05
3706	3.45e-05
3718	2.25e-05
3730	7.35e-05
3742	0.000126
3754	0.000102
3766	1.95e-05
3778	0
3790	0
3802	6.15e-05
3814	5.1e-05
3826	9e-06
3838	9e-05
