Infrared Spectrum: Chlorocarbonyl sulphenyl chloride
Formula: C Cl 2 O S
CAS: 2757-23-5
State: gas
Origin: EPA-IR VAPOR PHASE LIBRARY
1/CM	ABSORBANCE
549.8	0.05814
559.445	0.03142
569.09	0.02158
578.734	0.03004
588.379	0.02714
598.024	0.01754
607.669	0.0061
617.313	0.005162
626.958	0.0048581
636.603	0.00471
646.248	0.00618
655.893	0.0062
665.537	0.00669
675.182	0.00653
684.827	0.00602
694.472	0.00669
704.116	0.00767
713.761	0.00745
723.406	0.01027
733.051	0.01314
742.695	0.01446
752.34	0.01314
761.985	0.02068
771.63	0.04306
781.275	0.08779
790.919	0.15039
800.564	0.22002
810.209	0.2498
819.854	0.20431
829.498	0.09378
839.143	0.04692
848.788	0.02877
858.433	0.01822
868.078	0.02014
877.722	0.02239
887.367	0.02093
897.012	0.01757
906.657	0.01281
916.301	0.01214
925.946	0.00887
935.591	0.00967
945.236	0.01154
954.88	0.01194
964.525	0.01078
974.17	0.00937
983.815	0.00838
993.46	0.01222
1003.1	0.01306
1012.75	0.01268
1022.39	0.00717
1032.04	0.00612
1041.68	0.0051831
1051.33	0.004501
1060.97	0.003977
1070.62	0.0055429
1080.26	0.006
1089.91	0.0077
1099.55	0.00811
1109.2	0.00792
1118.84	0.00713
1128.49	0.0050654
1138.13	0.0056978
1147.78	0.00665
1157.42	0.0046556
1167.07	0.0056754
1176.71	0.00357
1186.36	0.004109
1196	0.0026
1205.64	0.00133
1215.29	0.00128
1224.93	0.00165
1234.58	0.00202
1244.22	0.00146
1253.87	0.00115
1263.51	0.00115
1273.16	0.00076
1282.8	0.00117
1292.45	0.0017
1302.09	0.00246
1311.74	0.00369
1321.38	0.004136
1331.03	0.004454
1340.67	0.0048702
1350.32	0.0057155
1359.96	0.00698
1369.61	0.00613
1379.25	0.00589
1388.9	0.00589
1398.54	0.00578
1408.18	0.0056588
1417.83	0.0052871
1427.47	0.0053704
1437.12	0.0052413
1446.76	0.0052863
1456.41	0.0054664
1466.05	0.005602
1475.7	0.0054177
1485.34	0.0059
1494.99	0.00633
1504.63	0.00607
1514.28	0.00624
1523.92	0.00655
1533.57	0.007
1543.21	0.00737
1552.86	0.00803
1562.5	0.00863
1572.15	0.00908
1581.79	0.00952
1591.44	0.01033
1601.08	0.01075
1610.73	0.01089
1620.37	0.01081
1630.01	0.00923
1639.66	0.00729
1649.3	0.00656
1658.95	0.00639
1668.59	0.00593
1678.24	0.00622
1687.88	0.00737
1697.53	0.00975
1707.17	0.01342
1716.82	0.01476
1726.46	0.01462
1736.11	0.01178
1745.75	0.0133
1755.4	0.01785
1765.04	0.02584
1774.69	0.0417
1784.33	0.07242
1793.98	0.12261
1803.62	0.17328
1813.27	0.18046
1822.91	0.16364
1832.55	0.09617
1842.2	0.0461
1851.84	0.02045
1861.49	0.01112
1871.13	0.00789
1880.78	0.00648
1890.42	0.00582
1900.07	0.0061
1909.71	0.00606
1919.36	0.0056354
1929	0.0055397
1938.65	0.0053895
1948.29	0.0055795
1957.94	0.00619
1967.58	0.00599
1977.23	0.00605
1986.87	0.00604
1996.52	0.00691
2006.16	0.00949
2015.81	0.0175
2025.45	0.03332
2035.1	0.05659
2044.74	0.07283
2054.38	0.06238
2064.03	0.06795
2073.67	0.09291
2083.32	0.03902
2092.96	0.00742
2102.61	0.00618
2112.25	0.005573
2121.9	0.0052414
2131.54	0.0054341
2141.19	0.0050331
2150.83	0.0050104
2160.48	0.0050533
2170.12	0.0052458
2179.77	0.005343
2189.41	0.005093
2199.06	0.0053633
2208.7	0.0051211
2218.35	0.0046934
2227.99	0.0048566
2237.64	0.0048241
2247.28	0.004449
2256.92	0.00474855
2266.57	0.0046258
2276.21	0.004457
2285.86	0.0049184
2295.5	0.005168
2305.15	0.0052904
2314.79	0.0055495
2324.44	0.0055422
2334.08	0.00576
2343.73	0.0054703
2353.37	0.00605
2363.02	0.00637
2372.66	0.00605
2382.31	0.0053226
2391.95	0.0052688
2401.6	0.0051674
2411.24	0.0047842
2420.89	0.0049657
2430.53	0.004953
2440.18	0.0047189
2449.82	0.00484
2459.47	0.00479105
2469.11	0.0046452
2478.75	0.00478291
2488.4	0.0048751
2498.04	0.00472653
2507.69	0.004947
2517.33	0.00480487
2526.98	0.0049192
2536.62	0.0051107
2546.27	0.0049337
2555.91	0.0051081
2565.56	0.0051303
2575.2	0.0051075
2584.85	0.0049546
2594.49	0.0051686
2604.14	0.0057068
2613.78	0.0054094
2623.43	0.0055171
2633.07	0.0053924
2642.72	0.0051129
2652.36	0.0055888
2662.01	0.0048771
2671.65	0.0052696
2681.29	0.0049001
2690.94	0.0048244
2700.58	0.006
2710.23	0.0051543
2719.87	0.0050999
2729.52	0.00575
2739.16	0.0046582
2748.81	0.00605
2758.45	0.0048202
2768.1	0.0051774
2777.74	0.00583
2787.39	0.0050136
2797.03	0.00733
2806.68	0.0055677
2816.32	0.0055162
2825.97	0.0050071
2835.61	0.0050978
2845.26	0.00629
2854.9	0.0049941
2864.55	0.00655
2874.19	0.0055256
2883.84	0.0055013
2893.48	0.00638
2903.12	0.00617
2912.77	0.00606
2922.41	0.00668
2932.06	0.00606
2941.7	0.00654
2951.35	0.0053429
2960.99	0.00703
2970.64	0.0056212
2980.28	0.00777
2989.93	0.0055795
2999.57	0.00603
3009.22	0.00593
3018.86	0.0055707
3028.51	0.0063
3038.15	0.0052259
3047.8	0.0053784
3057.44	0.00604
3067.09	0.005529
3076.73	0.0053121
3086.38	0.00574
3096.02	0.0054996
3105.67	0.0051603
3115.31	0.0051009
3124.95	0.0049232
3134.6	0.0052175
3144.24	0.0051286
3153.89	0.0049228
3163.53	0.0052338
3173.18	0.0049837
3182.82	0.0054382
3192.47	0.00481252
3202.11	0.00481243
3211.76	0.005582
3221.4	0.0054981
3231.05	0.0053498
3240.69	0.0047003
3250.34	0.00479374
3259.98	0.0048672
3269.63	0.0049903
3279.27	0.0051804
3288.92	0.0048993
3298.56	0.004971
3308.21	0.0051677
3317.85	0.0051583
3327.49	0.0052073
3337.14	0.004504
3346.78	0.0049128
3356.43	0.0051277
3366.07	0.0047875
3375.72	0.00475739
3385.36	0.0054785
3395.01	0.0046236
3404.65	0.005514
3414.3	0.0049877
3423.94	0.0052475
3433.59	0.0055233
3443.23	0.0055966
3452.88	0.00588
3462.52	0.0050237
3472.17	0.0053217
3481.81	0.0048619
3491.46	0.0050424
3501.1	0.00481411
3510.75	0.0049557
3520.39	0.0050768
3530.04	0.0052191
3539.68	0.0052984
3549.32	0.0055884
3558.97	0.0052497
3568.61	0.00587
3578.26	0.00684
3587.9	0.00708
3597.55	0.00699
3607.19	0.0068
3616.84	0.00655
3626.48	0.00613
3636.13	0.00562
3645.77	0.00591
3655.42	0.00480757
3665.06	0.0052752
3674.71	0.0048297
3684.35	0.004581
3694	0.0052701
3703.64	0.005467
3713.29	0.0049441
3722.93	0.0048303
3732.58	0.0053344
3742.22	0.0051122
3751.86	0.0050423
3761.51	0.0056285
3771.15	0.00476838
3780.8	0.004506
3790.44	0.00471269
3800.09	0.0049816
3809.73	0.00471987
3819.38	0.0048833
3829.02	0.0051928
3838.67	0.0049562
3848.31	0.0051738
3857.96	0.0047099
3867.6	0.0054598
3877.25	0.0050185
3886.89	0.0049164
3896.54	0.0052732
3906.18	0.005263
3915.83	0.0053359
3925.47	0.0055072
3935.12	0.004604
3944.76	0.004524
3954.41	0.004551
3964.05	0.0049211
3973.69	0.0051041
3983.34	0.0051727
3992.98	0.0050056
