Infrared Spectrum: P-CHLORO PROPION ANILIDE
Formula: C9 H10 Cl N O
CAS: 2759-54-8
State: SOLID (MINERAL OIL MULL)
Class: COBLENTZ
Instrument: Not specified, most likely a prism, grating, or hybrid spectrometer.
Sampling: TRANSMISSION
Resolution: 4
Origin: DOW CHEMICAL COMPANY
MICROMETERS	TRANSMITTANCE
2.02	0.524
2.06015	0.532
2.10031	0.542
2.14046	0.547
2.18061	0.549
2.22077	0.551
2.26092	0.552
2.30108	0.561
2.34123	0.571
2.38138	0.581
2.42154	0.591
2.46169	0.598
2.50184	0.613
2.542	0.618
2.58215	0.633
2.62231	0.643
2.66246	0.648
2.70261	0.658
2.74277	0.665
2.78292	0.677
2.82307	0.687
2.86323	0.694
2.90338	0.704
2.94353	0.615
2.98369	0.369
3.02384	0.28
3.064	0.43
3.10415	0.398
3.1443	0.46
3.18446	0.394
3.22461	0.452
3.26476	0.46
3.30492	0.411
3.34507	0.055
3.38522	0.058
3.42538	0.139
3.46553	0.282
3.50569	0.628
3.54584	0.672
3.58599	0.707
3.62615	0.709
3.6663	0.726
3.70645	0.729
3.74661	0.737
3.78676	0.741
3.82692	0.751
3.86707	0.761
3.90722	0.771
3.94738	0.778
3.98753	0.786
4.02768	0.788
4.06784	0.794
4.10799	0.798
4.14814	0.801
4.1883	0.805
4.22845	0.811
4.26861	0.813
4.30876	0.816
4.34891	0.828
4.38907	0.831
4.42922	0.831
4.46937	0.833
4.50953	0.836
4.54968	0.842
4.58983	0.845
4.62999	0.845
4.67014	0.847
4.7103	0.85
4.75045	0.858
4.7906	0.863
4.83076	0.865
4.87091	0.868
4.91106	0.878
4.95122	0.882
4.99137	0.884
5.03153	0.894
5.07168	0.895
5.11183	0.897
5.15199	0.9
5.19214	0.899
5.23229	0.882
5.27245	0.843
5.3126	0.892
5.35275	0.912
5.39291	0.914
5.43306	0.922
5.47322	0.926
5.51337	0.932
5.55352	0.934
5.59368	0.926
5.63383	0.904
5.67398	0.894
5.71414	0.909
5.75429	0.91
5.79444	0.884
5.8346	0.815
5.87475	0.726
5.91491	0.504
5.95506	0.176
5.99521	0.132
6.03537	0.322
6.07552	0.467
6.11567	0.5
6.15583	0.396
6.19598	0.159
6.23614	0.405
6.27629	0.618
6.31644	0.62
6.3566	0.586
6.39675	0.389
6.4369	0.142
6.47706	0.205
6.51721	0.341
6.55736	0.472
6.59752	0.492
6.63767	0.376
6.67783	0.179
6.71798	0.413
6.75813	0.361
6.79829	0.208
6.83844	0.302
6.87859	0.431
6.91875	0.563
6.9589	0.623
6.99905	0.517
7.03921	0.468
7.07936	0.366
7.11952	0.312
7.15967	0.465
7.19982	0.252
7.23998	0.285
7.28013	0.408
7.32028	0.579
7.36044	0.61
7.40059	0.616
7.44075	0.675
7.4809	0.69
7.52105	0.652
7.56121	0.62
7.60136	0.492
7.64151	0.268
7.68167	0.482
7.72182	0.463
7.76197	0.626
7.80213	0.704
7.84228	0.724
7.88244	0.721
7.92259	0.521
7.96274	0.361
8.0029	0.623
8.04305	0.721
8.0832	0.754
8.12336	0.771
8.16351	0.779
8.20366	0.741
8.24382	0.598
8.28397	0.554
8.32413	0.714
8.36428	0.771
8.40443	0.798
8.44459	0.757
8.48474	0.709
8.52489	0.778
8.56505	0.805
8.6052	0.81
8.64536	0.82
8.68551	0.826
8.72566	0.83
8.76582	0.836
8.80597	0.84
8.84612	0.84
8.88628	0.83
8.92643	0.794
8.96658	0.769
9.00674	0.769
9.04689	0.761
9.08705	0.759
9.1272	0.694
9.16735	0.531
9.20751	0.65
9.24766	0.678
9.28781	0.588
9.32797	0.731
9.36812	0.806
9.40827	0.835
9.44843	0.848
9.48858	0.853
9.52874	0.853
9.56889	0.857
9.60904	0.858
9.6492	0.86
9.68935	0.855
9.7295	0.835
9.76966	0.739
9.80981	0.583
9.84997	0.532
9.89012	0.741
9.93027	0.815
9.97043	0.838
10.0106	0.852
10.0507	0.863
10.0909	0.868
10.131	0.872
10.1712	0.872
10.2113	0.872
10.2515	0.87
10.2917	0.872
10.3318	0.87
10.372	0.873
10.4121	0.867
10.4523	0.85
10.4924	0.835
10.5326	0.85
10.5727	0.848
10.6129	0.826
10.653	0.811
10.6932	0.754
10.7333	0.684
10.7735	0.668
10.8137	0.739
10.8538	0.769
10.894	0.808
10.9341	0.84
10.9743	0.852
11.0144	0.868
11.0546	0.872
11.0947	0.875
11.1349	0.875
11.175	0.877
11.2152	0.877
11.2553	0.878
11.2955	0.878
11.3357	0.88
11.3758	0.88
11.416	0.88
11.4561	0.877
11.4963	0.87
11.5364	0.867
11.5766	0.862
11.6167	0.853
11.6569	0.848
11.697	0.84
11.7372	0.825
11.7773	0.811
11.8175	0.769
11.8576	0.694
11.8978	0.635
11.938	0.603
11.9781	0.512
12.0183	0.415
12.0584	0.238
12.0986	0.22
12.1387	0.225
12.1789	0.193
12.219	0.381
12.2592	0.608
12.2993	0.69
12.3395	0.717
12.3796	0.689
12.4198	0.64
12.46	0.67
12.5001	0.734
12.5403	0.766
12.5804	0.781
12.6206	0.786
12.6607	0.789
12.7009	0.794
12.741	0.794
12.7812	0.788
12.8213	0.781
12.8615	0.771
12.9016	0.763
12.9418	0.752
12.982	0.746
13.0221	0.731
13.0623	0.717
13.1024	0.704
13.1426	0.692
13.1827	0.677
13.2229	0.652
13.263	0.635
13.3032	0.618
13.3433	0.598
13.3835	0.576
13.4236	0.552
13.4638	0.531
13.5039	0.519
13.5441	0.51
13.5843	0.509
13.6244	0.512
13.6646	0.531
13.7047	0.542
13.7449	0.559
13.785	0.568
13.8252	0.584
13.8653	0.601
13.9055	0.623
13.9456	0.638
13.9858	0.653
14.0259	0.665
14.0661	0.67
14.1063	0.668
14.1464	0.648
14.1866	0.631
14.2267	0.613
14.2669	0.603
14.307	0.593
14.3472	0.593
14.3873	0.6
14.4275	0.606
14.4676	0.611
14.5078	0.618
14.5479	0.623
14.5881	0.628
14.6283	0.628
14.6684	0.628
14.7086	0.626
14.7487	0.623
14.7889	0.623
14.829	0.616
14.8692	0.613
14.9093	0.608
14.9495	0.603
14.9896	0.6
15.0298	0.596
15.0699	0.591
15.1101	0.583
15.1502	0.576
15.1904	0.573
15.2306	0.566
15.2707	0.561
15.3109	0.554
15.351	0.544
15.3912	0.542
15.4313	0.539
15.4715	0.534
15.5116	0.526
15.5518	0.521
15.5919	0.515
15.6321	0.514
15.6722	0.51
15.7124	0.505
15.7526	0.502
15.7927	0.495
15.8329	0.487
15.873	0.485
