Infrared Spectrum: 2,3,4,5,6-Pentafluorobenzhydrol
Formula: C 13 H 7 F 5 O
CAS: 27599-16-2
State: gas
Origin: EPA-IR VAPOR PHASE LIBRARY
1/CM	ABSORBANCE
549.8	0.01039
559.445	0.01193
569.09	0.02568
578.734	0.0451
588.379	0.01955
598.024	0.03339
607.669	0.08168
617.313	0.07786
626.958	0.08841
636.603	0.14321
646.248	0.16542
655.893	0.1025
665.537	0.07199
675.182	0.07945
684.827	0.12599
694.472	0.19556
704.116	0.14711
713.761	0.08076
723.406	0.05703
733.051	0.08117
742.695	0.09076
752.34	0.07481
761.985	0.06565
771.63	0.10134
781.275	0.12114
790.919	0.04437
800.564	0.02478
810.209	0.01926
819.854	0.02354
829.498	0.04507
839.143	0.05124
848.788	0.02845
858.433	0.02149
868.078	0.01906
877.722	0.01821
887.367	0.02014
897.012	0.02403
906.657	0.03175
916.301	0.04879
925.946	0.08406
935.591	0.20143
945.236	0.36369
954.88	0.19504
964.525	0.11587
974.17	0.14557
983.815	0.34496
993.46	0.77873
1003.1	0.55487
1012.75	0.23461
1022.39	0.22839
1032.04	0.23096
1041.68	0.23509
1051.33	0.18279
1060.97	0.1138
1070.62	0.08722
1080.26	0.08318
1089.91	0.0831
1099.55	0.12658
1109.2	0.2967
1118.84	0.61405
1128.49	0.46195
1138.13	0.19443
1147.78	0.13653
1157.42	0.07795
1167.07	0.06878
1176.71	0.08077
1186.36	0.09431
1196	0.07429
1205.64	0.06088
1215.29	0.07274
1224.93	0.08984
1234.58	0.08713
1244.22	0.0789
1253.87	0.07317
1263.51	0.07062
1273.16	0.08001
1282.8	0.08937
1292.45	0.11203
1302.09	0.16522
1311.74	0.17139
1321.38	0.1405
1331.03	0.13177
1340.67	0.11907
1350.32	0.10748
1359.96	0.0975
1369.61	0.09283
1379.25	0.09831
1388.9	0.11933
1398.54	0.12829
1408.18	0.13586
1417.83	0.14532
1427.47	0.08428
1437.12	0.07334
1446.76	0.09578
1456.41	0.10617
1466.05	0.13022
1475.7	0.25114
1485.34	0.55383
1494.99	1.23064
1504.63	1.46227
1514.28	1.20331
1523.92	0.86303
1533.57	0.21284
1543.21	0.0815
1552.86	0.0559
1562.5	0.04966
1572.15	0.04701
1581.79	0.05129
1591.44	0.05333
1601.08	0.05459
1610.73	0.04538
1620.37	0.04318
1630.01	0.06068
1639.66	0.11688
1649.3	0.15626
1658.95	0.06638
1668.59	0.0261
1678.24	0.017
1687.88	0.01533
1697.53	0.0148
1707.17	0.01256
1716.82	0.01438
1726.46	0.01501
1736.11	0.01371
1745.75	0.01379
1755.4	0.01315
1765.04	0.01136
1774.69	0.0109
1784.33	0.01203
1793.98	0.01754
1803.62	0.01495
1813.27	0.00817
1822.91	0.0063
1832.55	0.00479
1842.2	0.00414
1851.84	0.00549
1861.49	0.00814
1871.13	0.01039
1880.78	0.01116
1890.42	0.01121
1900.07	0.0079
1909.71	0.00525
1919.36	0.00561
1929	0.00717
1938.65	0.0099
1948.29	0.01128
1957.94	0.01166
1967.58	0.00796
1977.23	0.0041
1986.87	0.00402
1996.52	0.00382
2006.16	0.00383
2015.81	0.00317
2025.45	0.00308
2035.1	0.00322
2044.74	0.0036
2054.38	0.00482
2064.03	0.0064
2073.67	0.00854
2083.32	0.00851
2092.96	0.00767
2102.61	0.00559
2112.25	0.00451
2121.9	0.00452
2131.54	0.00495
2141.19	0.00457
2150.83	0.00335
2160.48	0.00278
2170.12	0.00261
2179.77	0.00255
2189.41	0.00247
2199.06	0.0027
2208.7	0.00351
2218.35	0.00491
2227.99	0.0046
2237.64	0.00374
2247.28	0.00337
2256.92	0.00301
2266.57	0.00295
2276.21	0.00293
2285.86	0.00283
2295.5	0.0027
2305.15	0.00256
2314.79	0.00362
2324.44	0.00337
2334.08	0.0036
2343.73	0.0047
2353.37	0.00537
2363.02	0.00565
2372.66	0.00584
2382.31	0.00656
2391.95	0.00813
2401.6	0.00988
2411.24	0.01081
2420.89	0.01035
2430.53	0.01004
2440.18	0.01053
2449.82	0.01044
2459.47	0.00867
2469.11	0.00654
2478.75	0.00504
2488.4	0.00437
2498.04	0.00444
2507.69	0.0048
2517.33	0.00465
2526.98	0.00414
2536.62	0.00399
2546.27	0.00414
2555.91	0.00433
2565.56	0.00427
2575.2	0.00431
2584.85	0.00479
2594.49	0.00577
2604.14	0.00712
2613.78	0.00931
2623.43	0.01147
2633.07	0.0133
2642.72	0.01311
2652.36	0.0104
2662.01	0.00752
2671.65	0.00458
2681.29	0.00319
2690.94	0.0027
2700.58	0.00293
2710.23	0.00295
2719.87	0.00312
2729.52	0.00296
2739.16	0.00294
2748.81	0.00318
2758.45	0.00365
2768.1	0.00397
2777.74	0.00382
2787.39	0.00327
2797.03	0.0029
2806.68	0.00257
2816.32	0.00267
2825.97	0.00265
2835.61	0.00262
2845.26	0.00272
2854.9	0.00304
2864.55	0.00383
2874.19	0.00474
2883.84	0.00617
2893.48	0.0081
2903.12	0.01038
2912.77	0.01301
2922.41	0.01656
2932.06	0.01968
2941.7	0.01819
2951.35	0.01562
2960.99	0.01327
2970.64	0.00957
2980.28	0.0073
2989.93	0.00687
2999.57	0.0089
3009.22	0.01529
3018.86	0.02749
3028.51	0.05539
3038.15	0.07556
3047.8	0.05594
3057.44	0.05237
3067.09	0.08752
3076.73	0.10948
3086.38	0.06039
3096.02	0.04967
3105.67	0.03275
3115.31	0.0191
3124.95	0.00829
3134.6	0.00457
3144.24	0.00331
3153.89	0.00293
3163.53	0.00265
3173.18	0.00242
3182.82	0.00132
3192.47	0.00108
3202.11	0.0006953
3211.76	0.000793
3221.4	0.000628
3231.05	0.0007892
3240.69	0.0004938
3250.34	0.0009215
3259.98	0.000655
3269.63	0.00104
3279.27	0.00143
3288.92	0.00147
3298.56	0.00133
3308.21	0.00159
3317.85	0.00154
3327.49	0.00157
3337.14	0.00162
3346.78	0.00148
3356.43	0.00176
3366.07	0.0019
3375.72	0.00189
3385.36	0.00199
3395.01	0.00208
3404.65	0.00216
3414.3	0.0024
3423.94	0.0023
3433.59	0.00234
3443.23	0.00226
3452.88	0.00246
3462.52	0.0025
3472.17	0.00248
3481.81	0.00252
3491.46	0.00224
3501.1	0.00226
3510.75	0.00196
3520.39	0.00189
3530.04	0.00195
3539.68	0.00193
3549.32	0.00164
3558.97	0.00173
3568.61	0.00223
3578.26	0.00225
3587.9	0.00276
3597.55	0.00446
3607.19	0.00724
3616.84	0.0131
3626.48	0.03294
3636.13	0.06528
3645.77	0.09112
3655.42	0.07408
3665.06	0.03492
3674.71	0.01561
3684.35	0.00841
3694	0.00543
3703.64	0.00401
3713.29	0.00302
3722.93	0.00244
3732.58	0.00251
3742.22	0.00228
3751.86	0.00219
3761.51	0.00245
3771.15	0.0025
3780.8	0.00246
3790.44	0.00256
3800.09	0.00266
3809.73	0.00297
3819.38	0.00299
3829.02	0.00292
3838.67	0.00283
3848.31	0.00288
3857.96	0.00303
3867.6	0.00328
3877.25	0.00338
3886.89	0.00306
3896.54	0.0031
3906.18	0.00298
3915.83	0.00257
3925.47	0.0027
3935.12	0.00257
3944.76	0.0022
3954.41	0.00227
3964.05	0.00223
3973.69	0.00195
3983.34	0.00184
3992.98	0.00144
