Infrared Spectrum: 1-Benzylpiperazine
Formula: C 11 H 16 N 2
CAS: 2759-28-6
State: gas
Origin: EPA-IR VAPOR PHASE LIBRARY
1/CM	ABSORBANCE
549.9	0.01544
559.547	0.02117
569.193	0.02895
578.84	0.04888
588.486	0.05103
598.133	0.05432
607.779	0.05882
617.426	0.03327
627.072	0.01984
636.719	0.018
646.365	0.01971
656.012	0.02319
665.658	0.03299
675.305	0.04571
684.951	0.09014
694.598	0.18686
704.245	0.17175
713.891	0.11291
723.538	0.15749
733.184	0.25243
742.831	0.24999
752.477	0.26499
762.124	0.30693
771.77	0.19892
781.417	0.0984
791.063	0.08535
800.71	0.08301
810.356	0.05671
820.003	0.04301
829.649	0.02962
839.296	0.02166
848.943	0.01927
858.589	0.01903
868.236	0.02046
877.882	0.02635
887.529	0.03605
897.175	0.0497
906.822	0.07043
916.468	0.04893
926.115	0.02409
935.761	0.01712
945.408	0.01489
955.054	0.01441
964.701	0.01767
974.347	0.02735
983.994	0.04294
993.64	0.08135
1003.29	0.12883
1012.93	0.11044
1022.58	0.06954
1032.23	0.05732
1041.87	0.03305
1051.52	0.05022
1061.17	0.0604
1070.81	0.05636
1080.46	0.04218
1090.11	0.03786
1099.75	0.06201
1109.4	0.10938
1119.05	0.19301
1128.69	0.27546
1138.34	0.27945
1147.99	0.21264
1157.63	0.1018
1167.28	0.05699
1176.92	0.05372
1186.57	0.05103
1196.22	0.04213
1205.86	0.03107
1215.51	0.02107
1225.16	0.01997
1234.8	0.021
1244.45	0.02719
1254.1	0.04273
1263.74	0.05791
1273.39	0.06972
1283.04	0.0764
1292.68	0.07141
1302.33	0.07796
1311.98	0.11775
1321.62	0.16626
1331.27	0.16368
1340.92	0.13923
1350.56	0.09829
1360.21	0.13064
1369.86	0.08165
1379.5	0.0419
1389.15	0.03503
1398.79	0.02676
1408.44	0.0235
1418.09	0.02803
1427.73	0.04357
1437.38	0.08496
1447.03	0.13797
1456.67	0.13367
1466.32	0.07807
1475.97	0.03799
1485.61	0.04277
1495.26	0.05901
1504.91	0.02919
1514.55	0.01136
1524.2	0.00907
1533.85	0.00903
1543.49	0.00841
1553.14	0.0079623
1562.79	0.00903
1572.43	0.01163
1582.08	0.01602
1591.73	0.02288
1601.37	0.02648
1611.02	0.01918
1620.67	0.01054
1630.31	0.00839
1639.96	0.00853
1649.6	0.0076089
1659.25	0.00629
1668.9	0.00551
1678.54	0.00524
1688.19	0.00528
1697.84	0.0058
1707.48	0.00612
1717.13	0.00603
1726.78	0.00631
1736.42	0.00744862
1746.07	0.0081071
1755.72	0.007185
1765.36	0.006511
1775.01	0.007156
1784.66	0.00868
1794.3	0.01325
1803.95	0.01506
1813.6	0.01169
1823.24	0.00903
1832.89	0.006605
1842.54	0.006613
1852.18	0.0081004
1861.83	0.01074
1871.47	0.01259
1881.12	0.01263
1890.77	0.01037
1900.41	0.00865
1910.06	0.00899
1919.71	0.01014
1929.35	0.01304
1939	0.01642
1948.65	0.01606
1958.29	0.01197
1967.94	0.00675
1977.59	0.00562
1987.23	0.00531
1996.88	0.00485
2006.53	0.00462
2016.17	0.00478
2025.82	0.00492
2035.47	0.00499
2045.11	0.00487
2054.76	0.00465
2064.41	0.00443
2074.05	0.00429
2083.7	0.00428
2093.35	0.00432
2102.99	0.00444
2112.64	0.00456
2122.28	0.00462
2131.93	0.00449
2141.58	0.00448
2151.22	0.00452
2160.87	0.00451
2170.52	0.00462
2180.16	0.00474
2189.81	0.00476
2199.46	0.00464
2209.1	0.00462
2218.75	0.00477
2228.4	0.00531
2238.04	0.00611
2247.69	0.006755
2257.34	0.006946
2266.98	0.006864
2276.63	0.006667
2286.28	0.00613
2295.92	0.00594
2305.57	0.006671
2315.22	0.006974
2324.86	0.00628
2334.51	0.00627
2344.16	0.00604
2353.8	0.00583
2363.45	0.0056
2373.09	0.00518
2382.74	0.00489
2392.39	0.00467
2402.03	0.00465
2411.68	0.00482
2421.33	0.00497
2430.97	0.00526
2440.62	0.00567
2450.27	0.00628
2459.91	0.006868
2469.56	0.00738032
2479.21	0.007186
2488.85	0.007187
2498.5	0.0076114
2508.15	0.0080688
2517.79	0.0081821
2527.44	0.0075661
2537.09	0.007081
2546.73	0.006998
2556.38	0.00740731
2566.03	0.0083052
2575.67	0.00939
2585.32	0.01079
2594.96	0.01213
2604.61	0.0139
2614.26	0.01658
2623.9	0.02088
2633.55	0.02705
2643.2	0.03229
2652.84	0.03687
2662.49	0.04283
2672.14	0.04863
2681.78	0.05177
2691.43	0.05413
2701.08	0.05523
2710.72	0.06235
2720.37	0.07488
2730.02	0.09525
2739.66	0.13039
2749.31	0.16557
2758.96	0.18751
2768.6	0.19909
2778.25	0.2285
2787.9	0.28681
2797.54	0.35367
2807.19	0.40292
2816.84	0.40296
2826.48	0.36848
2836.13	0.27848
2845.77	0.1712
2855.42	0.12916
2865.07	0.12543
2874.71	0.13415
2884.36	0.14749
2894.01	0.16097
2903.65	0.18676
2913.3	0.24385
2922.95	0.31016
2932.59	0.35306
2942.24	0.47854
2951.89	0.58607
2961.53	0.26419
2971.18	0.07477
2980.83	0.03333
2990.47	0.0253
3000.12	0.02675
3009.77	0.03685
3019.41	0.06738
3029.06	0.1205
3038.71	0.12353
3048.35	0.0804
3058	0.08747
3067.64	0.15125
3077.29	0.12814
3086.94	0.08114
3096.58	0.05401
3106.23	0.03199
3115.88	0.01924
3125.52	0.00978
3135.17	0.00557
3144.82	0.00417
3154.46	0.004
3164.11	0.00419
3173.76	0.00357
3183.4	0.00254
3193.05	0.00251
3202.7	0.00248
3212.34	0.00223
3221.99	0.00185
3231.64	0.00165
3241.28	0.0012
3250.93	0.00107
3260.58	0.00112
3270.22	0.00097
3279.87	0.00064
3289.52	0.00043
3299.16	0.00021
3308.81	0.00069
3318.45	0.00167
3328.1	0.00238
3337.75	0.00141
3347.39	0.00047
3357.04	0.00047
3366.69	0.00083
3376.33	0.00095
3385.98	0.0008
3395.63	0.00057
3405.27	0.00027
3414.92	0.00036
3424.57	0.00059
3434.21	0.00055
3443.86	0.0004
3453.51	4e-05
3463.15	2e-05
3472.8	0.00014
3482.45	0.00023
3492.09	0.0002
3501.74	0.00043
3511.39	0.00053
3521.03	0.00079
3530.68	0.00079
3540.33	0.0009
3549.97	0.00111
3559.62	0.00123
3569.26	0.00116
3578.91	0.00102
3588.56	0.00122
3598.2	0.00138
3607.85	0.0016
3617.5	0.00169
3627.14	0.00193
3636.79	0.00214
3646.44	0.0026
3656.08	0.00277
3665.73	0.00254
3675.38	0.00237
3685.02	0.00249
3694.67	0.0027
3704.32	0.00255
3713.96	0.00249
3723.61	0.00238
3733.26	0.0022
3742.9	0.00247
3752.55	0.00219
3762.2	0.0023
3771.84	0.00241
3781.49	0.00265
3791.13	0.00293
3800.78	0.00295
3810.43	0.00299
3820.07	0.00303
3829.72	0.00317
3839.37	0.00328
3849.01	0.00343
3858.66	0.00365
3868.31	0.00391
3877.95	0.00426
3887.6	0.00391
3897.25	0.00387
3906.89	0.00387
3916.54	0.00418
3926.19	0.00454
3935.83	0.00485
3945.48	0.0051
3955.13	0.0048
3964.77	0.00443
3974.42	0.00439
3984.07	0.00416
3993.71	0.00421
