Infrared Spectrum: P-METHOXYPROPIONANILIDE
Formula: C10 H13 N O2
CAS: 2760-31-8
State: SOLID (MINERAL OIL MULL)
Class: COBLENTZ
Instrument: Not specified, most likely a prism, grating, or hybrid spectrometer.
Sampling: TRANSMISSION
Resolution: 4
Origin: DOW CHEMICAL COMPANY
MICROMETERS	TRANSMITTANCE
2.027	0.768
2.06812	0.768
2.10924	0.767
2.15035	0.768
2.19147	0.773
2.23259	0.768
2.27371	0.758
2.31483	0.756
2.35594	0.76
2.39706	0.77
2.43818	0.777
2.4793	0.784
2.52042	0.794
2.56153	0.801
2.60265	0.808
2.64377	0.808
2.68489	0.808
2.726	0.808
2.76712	0.808
2.80824	0.808
2.84936	0.808
2.89048	0.804
2.93159	0.785
2.97271	0.643
3.01383	0.294
3.05495	0.565
3.09607	0.69
3.13718	0.717
3.1783	0.726
3.21942	0.72
3.26054	0.696
3.30166	0.676
3.34277	0.561
3.38389	0.159
3.42501	0.035
3.46613	0.143
3.50725	0.226
3.54836	0.715
3.58948	0.772
3.6306	0.784
3.67172	0.782
3.71283	0.804
3.75395	0.799
3.79507	0.806
3.83619	0.818
3.87731	0.825
3.91842	0.832
3.95954	0.839
4.00066	0.842
4.04178	0.844
4.0829	0.849
4.12401	0.849
4.16513	0.854
4.20625	0.854
4.24737	0.854
4.28849	0.852
4.3296	0.852
4.37072	0.856
4.41184	0.859
4.45296	0.866
4.49408	0.863
4.53519	0.866
4.57631	0.869
4.61743	0.866
4.65855	0.866
4.69967	0.869
4.74078	0.871
4.7819	0.868
4.82302	0.869
4.86414	0.861
4.90525	0.863
4.94637	0.869
4.98749	0.871
5.02861	0.866
5.06973	0.876
5.11084	0.875
5.15196	0.873
5.19308	0.871
5.2342	0.871
5.27532	0.861
5.31643	0.847
5.35755	0.849
5.39867	0.873
5.43979	0.871
5.48091	0.875
5.52202	0.875
5.56314	0.871
5.60426	0.869
5.64538	0.864
5.6865	0.863
5.72761	0.856
5.76873	0.844
5.80985	0.837
5.85097	0.82
5.89209	0.768
5.9332	0.705
5.97432	0.549
6.01544	0.272
6.05656	0.111
6.09767	0.458
6.13879	0.589
6.17991	0.559
6.22103	0.515
6.26215	0.659
6.30326	0.756
6.34438	0.739
6.3855	0.676
6.42662	0.458
6.46774	0.256
6.50885	0.195
6.54997	0.282
6.59109	0.282
6.63221	0.407
6.67333	0.657
6.71444	0.667
6.75556	0.604
6.79668	0.416
6.8378	0.258
6.87892	0.378
6.92003	0.462
6.96115	0.595
7.00227	0.625
7.04339	0.541
7.0845	0.465
7.12562	0.585
7.16674	0.633
7.20786	0.571
7.24898	0.488
7.29009	0.462
7.33121	0.542
7.37233	0.636
7.41345	0.664
7.45457	0.674
7.49568	0.686
7.5368	0.7
7.57792	0.66
7.61904	0.623
7.66016	0.532
7.70127	0.53
7.74239	0.654
7.78351	0.667
7.82463	0.636
7.86575	0.64
7.90686	0.594
7.94798	0.482
7.9891	0.335
8.03022	0.261
8.07134	0.453
8.11245	0.534
8.15357	0.643
8.19469	0.7
8.23581	0.717
8.27692	0.686
8.31804	0.703
8.35916	0.741
8.40028	0.676
8.4414	0.595
8.48251	0.587
8.52363	0.635
8.56475	0.76
8.60587	0.772
8.64699	0.772
8.6881	0.765
8.72922	0.782
8.77034	0.787
8.81146	0.789
8.85258	0.791
8.89369	0.789
8.93481	0.772
8.97593	0.722
9.01705	0.616
9.05817	0.683
9.09928	0.777
9.1404	0.787
9.18152	0.785
9.22264	0.775
9.26375	0.743
9.30487	0.662
9.34599	0.66
9.38711	0.748
9.42823	0.77
9.46934	0.78
9.51046	0.78
9.55158	0.767
9.5927	0.729
9.63382	0.616
9.67493	0.421
9.71605	0.328
9.75717	0.587
9.79829	0.659
9.83941	0.683
9.88052	0.715
9.92164	0.765
9.96276	0.789
10.0039	0.808
10.045	0.811
10.0861	0.821
10.1272	0.821
10.1683	0.821
10.2095	0.823
10.2506	0.823
10.2917	0.821
10.3328	0.823
10.3739	0.825
10.4151	0.821
10.4562	0.816
10.4973	0.803
10.5384	0.799
10.5795	0.809
10.6206	0.797
10.6618	0.739
10.7029	0.751
10.744	0.801
10.7851	0.821
10.8262	0.797
10.8674	0.739
10.9085	0.753
10.9496	0.811
10.9907	0.828
11.0318	0.83
11.0729	0.832
11.1141	0.835
11.1552	0.835
11.1963	0.839
11.2374	0.835
11.2785	0.837
11.3197	0.84
11.3608	0.842
11.4019	0.845
11.443	0.845
11.4841	0.842
11.5252	0.837
11.5664	0.83
11.6075	0.821
11.6486	0.816
11.6897	0.809
11.7308	0.808
11.7719	0.806
11.8131	0.796
11.8542	0.779
11.8953	0.767
11.9364	0.738
11.9775	0.693
12.0187	0.575
12.0598	0.388
12.1009	0.19
12.142	0.125
12.1831	0.321
12.2242	0.609
12.2654	0.714
12.3065	0.741
12.3476	0.751
12.3887	0.772
12.4298	0.777
12.471	0.787
12.5121	0.792
12.5532	0.797
12.5943	0.806
12.6354	0.806
12.6765	0.804
12.7177	0.797
12.7588	0.799
12.7999	0.796
12.841	0.789
12.8821	0.787
12.9233	0.779
12.9644	0.773
13.0055	0.76
13.0466	0.746
13.0877	0.717
13.1288	0.705
13.17	0.712
13.2111	0.731
13.2522	0.738
13.2933	0.738
13.3344	0.739
13.3755	0.732
13.4167	0.722
13.4578	0.712
13.4989	0.707
13.54	0.698
13.5811	0.691
13.6223	0.683
13.6634	0.678
13.7045	0.662
13.7456	0.648
13.7867	0.638
13.8278	0.621
13.869	0.611
13.9101	0.607
13.9512	0.599
13.9923	0.592
14.0334	0.582
14.0746	0.57
14.1157	0.558
14.1568	0.539
14.1979	0.527
14.239	0.511
14.2801	0.508
14.3213	0.501
14.3624	0.5
14.4035	0.498
14.4446	0.498
14.4857	0.5
14.5268	0.503
14.568	0.51
14.6091	0.513
14.6502	0.518
14.6913	0.517
14.7324	0.522
14.7736	0.522
14.8147	0.522
14.8558	0.52
14.8969	0.52
14.938	0.513
14.9791	0.513
15.0203	0.517
15.0614	0.517
15.1025	0.508
15.1436	0.508
15.1847	0.503
15.2259	0.5
15.267	0.498
15.3081	0.491
15.3492	0.488
15.3903	0.482
15.4314	0.474
15.4726	0.465
15.5137	0.457
15.5548	0.45
15.5959	0.446
15.637	0.441
15.6782	0.436
15.7193	0.429
15.7604	0.424
15.8015	0.422
15.8426	0.417
15.8837	0.417
