Infrared Spectrum: PROPENOIC ACID, 2-METHYL-, HYDROXYPROPYL ESTER
Formula: C7 H12 O3
CAS: 2761-09-3
State: SOLUTION (5% IN CCl4 FOR 3800-1300, 5% IN CS2 FOR 1300-650, AND 5% IN CCl4 FOR 650-240 CM^-^1) VERSUS SOLVENT
Class: COBLENTZ III
Instrument: PERKIN-ELMER 521 (GRATING)
Instrument parameters: FILTERS AT 3150, 2500, 2000, 1150, 700, 410; GRATING CHANGES AT 2000, 630 CM^-^1
Sampling: TRANSMISSION
Path length: 0.010, 0.010, AND 0.020 CM (CsBr CELL)
Resolution: 4
Origin: DOW CORNING CORP.
1/CM	TRANSMITTANCE
229.442	0.633
238.579	0.627
247.716	0.62
256.853	0.609
265.99	0.604
275.127	0.602
284.264	0.595
293.401	0.593
302.539	0.59
311.676	0.584
320.813	0.587
329.95	0.587
339.087	0.586
348.224	0.595
357.361	0.613
366.498	0.623
375.635	0.638
384.772	0.655
393.909	0.656
403.046	0.634
412.183	0.644
421.32	0.646
430.457	0.628
439.594	0.616
448.732	0.611
457.869	0.6
467.006	0.588
476.143	0.583
485.28	0.602
494.417	0.635
503.554	0.638
512.691	0.638
521.828	0.64
530.965	0.637
540.102	0.64
549.239	0.631
558.376	0.62
567.513	0.642
576.65	0.655
585.788	0.67
594.925	0.693
604.062	0.735
613.199	0.751
622.336	0.761
631.473	0.744
640.61	0.71
649.747	0.668
658.884	0.678
668.021	0.754
677.158	0.793
686.295	0.811
695.432	0.819
704.569	0.827
713.706	0.833
722.843	0.833
731.981	0.834
741.118	0.84
750.255	0.84
759.392	0.84
768.529	0.835
777.666	0.833
786.803	0.823
795.94	0.8
805.077	0.726
814.214	0.4989
823.351	0.711
832.488	0.746
841.625	0.744
850.762	0.742
859.899	0.754
869.037	0.771
878.174	0.758
887.311	0.761
896.448	0.776
905.585	0.737
914.722	0.685
923.859	0.642
932.996	0.513
942.133	0.274
951.27	0.455
960.407	0.6061
969.544	0.743
978.681	0.697
987.818	0.5881
996.955	0.652
1006.09	0.597
1015.23	0.531
1024.37	0.602
1033.5	0.655
1042.64	0.511
1051.78	0.388
1060.91	0.4779
1070.05	0.55
1079.19	0.565
1088.33	0.605
1097.46	0.59
1106.6	0.557
1115.74	0.504
1124.87	0.459
1134.01	0.348
1143.15	0.234
1152.29	0.125
1161.42	0.057
1170.56	0.052
1179.7	0.125
1188.83	0.24
1197.97	0.377
1207.11	0.546
1216.24	0.64
1225.38	0.664
1234.52	0.649
1243.66	0.608
1252.79	0.598
1261.93	0.609
1271.07	0.587
1280.2	0.533
1289.34	0.297
1298.48	0.23
1307.62	0.343
1316.75	0.324
1325.89	0.351
1335.03	0.419
1344.16	0.561
1353.3	0.602
1362.44	0.611
1371.58	0.566
1380.71	0.502
1389.85	0.544
1398.99	0.511
1408.12	0.508
1417.26	0.601
1426.4	0.619
1435.53	0.56
1444.67	0.532
1453.81	0.4
1462.95	0.531
1472.08	0.689
1481.22	0.784
1490.36	0.813
1499.49	0.828
1508.63	0.84
1517.77	0.846
1526.91	0.852
1536.04	0.856
1545.18	0.855
1554.32	0.852
1563.45	0.848
1572.59	0.842
1581.73	0.837
1590.86	0.826
1600	0.811
1609.14	0.779
1618.28	0.731
1627.41	0.617
1636.55	0.486
1645.69	0.7069
1654.82	0.78
1663.96	0.769
1673.1	0.742
1682.24	0.668
1691.37	0.5319
1700.51	0.2861
1709.65	0.1
1718.78	0.04
1727.92	0.044
1737.06	0.315
1746.19	0.651
1755.33	0.761
1764.47	0.795
1773.61	0.815
1782.74	0.823
1791.88	0.831
1801.02	0.835
1810.15	0.838
1819.29	0.845
1828.43	0.851
1837.57	0.855
1846.7	0.855
1855.84	0.852
1864.98	0.846
1874.11	0.835
1883.25	0.824
1892.39	0.833
1901.52	0.845
1910.66	0.853
1919.8	0.853
1928.94	0.856
1938.07	0.855
1947.21	0.855
1956.35	0.853
1965.48	0.852
1974.62	0.852
1983.76	0.852
1992.9	0.856
2002.03	0.863
2011.17	0.86
2020.31	0.86
2029.44	0.863
2038.58	0.859
2047.72	0.86
2056.85	0.863
2065.99	0.864
2075.13	0.8602
2084.27	0.8566
2093.4	0.855
2102.54	0.856
2111.68	0.856
2120.81	0.857
2129.95	0.857
2139.09	0.859
2148.23	0.859
2157.36	0.859
2166.5	0.859
2175.64	0.8567
2184.77	0.856
2193.91	0.856
2203.05	0.856
2212.19	0.856
2221.32	0.857
2230.46	0.857
2239.6	0.857
2248.73	0.856
2257.87	0.856
2267.01	0.8547
2276.14	0.853
2285.28	0.853
2294.42	0.853
2303.56	0.852
2312.69	0.852
2321.83	0.852
2330.97	0.8516
2340.1	0.853
2349.24	0.853
2358.38	0.853
2367.52	0.853
2376.65	0.853
2385.79	0.853
2394.93	0.852
2404.06	0.851
2413.2	0.851
2422.34	0.8501
2431.47	0.848
2440.61	0.846
2449.75	0.8441
2458.89	0.844
2468.02	0.8422
2477.16	0.8414
2486.3	0.842
2495.43	0.841
2504.57	0.841
2513.71	0.8406
2522.85	0.84
2531.98	0.838
2541.12	0.838
2550.26	0.837
2559.39	0.837
2568.53	0.835
2577.67	0.8342
2586.8	0.834
2595.94	0.834
2605.08	0.834
2614.22	0.834
2623.35	0.833
2632.49	0.833
2641.63	0.833
2650.76	0.8316
2659.9	0.831
2669.04	0.831
2678.18	0.831
2687.31	0.831
2696.45	0.831
2705.59	0.83
2714.72	0.827
2723.86	0.824
2733	0.8218
2742.13	0.82
2751.27	0.822
2760.41	0.823
2769.55	0.823
2778.68	0.8195
2787.82	0.816
2796.96	0.8085
2806.09	0.8
2815.23	0.792
2824.37	0.7831
2833.51	0.7746
2842.64	0.7574
2851.78	0.7353
2860.92	0.7034
2870.05	0.6729
2879.19	0.6348
2888.33	0.622
2897.46	0.6258
2906.6	0.6374
2915.74	0.6244
2924.88	0.573
2934.01	0.5148
2943.15	0.535
2952.29	0.5248
2961.42	0.5135
2970.56	0.4813
2979.7	0.4119
2988.84	0.4416
2997.97	0.5378
3007.11	0.734
3016.25	0.7502
3025.38	0.7724
3034.52	0.7906
3043.66	0.7947
3052.8	0.7985
3061.93	0.808
3071.07	0.8122
3080.21	0.813
3089.34	0.809
3098.48	0.8021
3107.62	0.7912
3116.75	0.8078
3125.89	0.8151
3135.03	0.817
3144.17	0.8149
3153.3	0.813
3162.44	0.8131
3171.58	0.8139
3180.71	0.809
3189.85	0.808
3198.99	0.806
3208.13	0.806
3217.26	0.805
3226.4	0.802
3235.54	0.8
3244.67	0.7927
3253.81	0.7881
3262.95	0.7847
3272.08	0.776
3281.22	0.7716
3290.36	0.7651
3299.5	0.7606
3308.63	0.7504
3317.77	0.7437
3326.91	0.736
3336.04	0.7254
3345.18	0.7185
3354.32	0.7094
3363.46	0.7024
3372.59	0.6944
3381.73	0.6857
3390.87	0.6745
3400	0.6583
3409.14	0.6455
3418.28	0.6308
3427.41	0.6186
3436.55	0.6123
3445.69	0.6056
3454.83	0.6013
3463.96	0.5938
3473.1	0.589
3482.24	0.5839
3491.37	0.582
3500.51	0.5834
3509.65	0.5906
3518.79	0.5983
3527.92	0.6162
3537.06	0.6274
3546.2	0.6535
3555.33	0.6843
3564.47	0.7185
3573.61	0.7481
3582.74	0.778
3591.88	0.777
3601.02	0.7631
3610.16	0.7241
3619.29	0.6995
3628.43	0.7599
3637.57	0.7849
3646.7	0.8489
3655.84	0.8541
3664.98	0.855
3674.12	0.871
3683.25	0.8622
3692.39	0.8692
3701.53	0.8679
3710.66	0.8886
3719.8	0.874
3728.94	0.8787
3738.07	0.8875
3747.21	0.8984
3756.35	0.8848
3765.49	0.8747
3774.62	0.873
3783.76	0.871
3792.9	0.87
3802.03	0.868
