Infrared Spectrum: SILANE, PENTYLTRIETHOXY-
Formula: C11 H26 O3 Si
CAS: 2761-24-2
State: SOLUTION (10% CCl4 FOR 3800-1330, 10% CS2 FOR 1330-400 CM^-^1) VS SOLVENT
Class: COBLENTZ II
Instrument: DOW KBr FOREPRISM-GRATING
Instrument parameters: BLAZED AT 3.5, 12.0, 20.0 MICRON AND CHANGED AT 5.0, 7.5, 14.9 MICRON
Sampling: TRANSMISSION
Path length: 0.012 CM, 0.011 CM
Resolution: 2
Origin: DOW CHEMICAL COMPANY
1/CM	TRANSMITTANCE
379	0.7281
388	0.7284
397	0.726
406	0.7221
415	0.7145
424	0.694
433	0.6696
442	0.6415
451	0.6071
460	0.5677
469	0.536
478	0.5264
487	0.5077
496	0.5749
505	0.7078
514	0.831
523	0.8368
532	0.7951
541	0.7921
550	0.8736
559	0.8854
568	0.9001
577	0.8978
586	0.8943
595	0.892
604	0.8887
613	0.8775
622	0.8668
631	0.8704
640	0.8715
649	0.8666
658	0.8763
667	0.8791
676	0.8727
685	0.8596
694	0.8344
703	0.7875
712	0.6682
721	0.5559
730	0.5779
739	0.5629
748	0.4484
757	0.3812
766	0.3001
775	0.0916
784	0.0903
793	0.1039
802	0.1712
811	0.2309
820	0.4197
829	0.5862
838	0.7256
847	0.8301
856	0.8266
865	0.8164
874	0.8042
883	0.7919
892	0.7808
901	0.7576
910	0.6806
919	0.5782
928	0.332
937	0.1869
946	0.0889
955	0.0479
964	0.1968
973	0.4462
982	0.5544
991	0.605
1000	0.5449
1009	0.4482
1018	0.4112
1027	0.378
1036	0.3432
1045	0.2164
1054	0.1528
1063	0.0326
1072	0.0026
1081	0.0039
1090	0.0038
1099	0.0022
1108	0.0041
1117	0.0103
1126	0.0263
1135	0.0839
1144	0.1729
1153	0.1387
1162	0.0743
1171	0.1702
1180	0.4042
1189	0.5168
1198	0.5778
1207	0.5738
1216	0.4308
1225	0.4656
1234	0.6467
1243	0.715
1252	0.7244
1261	0.7075
1270	0.6993
1279	0.6983
1288	0.581
1297	0.5837
1306	0.6669
1315	0.7469
1324	0.7291
1333	0.6832
1342	0.7069
1351	0.7105
1360	0.6543
1369	0.5443
1378	0.4036
1387	0.2361
1396	0.3066
1405	0.5238
1414	0.701
1423	0.6986
1432	0.611
1441	0.4619
1450	0.4842
1459	0.3597
1468	0.4631
1477	0.6478
1486	0.6944
1495	0.7892
1504	0.8364
1513	0.8641
1522	0.8645
1531	0.876
1540	0.8865
1549	0.8827
1558	0.8752
1567	0.8662
1576	0.8518
1585	0.8503
1594	0.8565
1603	0.8567
1612	0.8525
1621	0.8501
1630	0.8567
1639	0.858
1648	0.856
1657	0.8546
1666	0.8547
1675	0.8542
1684	0.8533
1693	0.8524
1702	0.8487
1711	0.8428
1720	0.8401
1729	0.838
1738	0.8384
1747	0.8454
1756	0.8518
1765	0.8578
1774	0.8612
1783	0.8618
1792	0.8599
1801	0.8568
1810	0.8537
1819	0.8496
1828	0.8453
1837	0.8398
1846	0.8335
1855	0.8266
1864	0.8193
1873	0.8154
1882	0.8135
1891	0.8156
1900	0.8227
1909	0.831
1918	0.8403
1927	0.8475
1936	0.8512
1945	0.8527
1954	0.8512
1963	0.8494
1972	0.8498
1981	0.8511
1990	0.8532
1999	0.8916
2008	0.8905
2017	0.8913
2026	0.8918
2035	0.8916
2044	0.8913
2053	0.8909
2062	0.8905
2071	0.89
2080	0.8895
2089	0.8885
2098	0.8875
2107	0.8863
2116	0.885
2125	0.8836
2134	0.8825
2143	0.8825
2152	0.8744
2161	0.8687
2170	0.8692
2179	0.8707
2188	0.8727
2197	0.8753
2206	0.8788
2215	0.8815
2224	0.8828
2233	0.8839
2242	0.8848
2251	0.8858
2260	0.8861
2269	0.8862
2278	0.8868
2287	0.8881
2296	0.8904
2305	0.8971
2314	0.904
2323	0.9059
2332	0.9034
2341	0.9039
2350	0.8992
2359	0.8874
2368	0.8753
2377	0.8688
2386	0.8644
2395	0.8608
2404	0.8571
2413	0.8534
2422	0.8496
2431	0.8459
2440	0.8455
2449	0.8489
2458	0.853
2467	0.8531
2476	0.8521
2485	0.8507
2494	0.8491
2503	0.8468
2512	0.8443
2521	0.8413
2530	0.8377
2539	0.8342
2548	0.8311
2557	0.829
2566	0.8275
2575	0.8224
2584	0.8156
2593	0.8078
2602	0.7985
2611	0.7872
2620	0.788
2629	0.8015
2638	0.8078
2647	0.8088
2656	0.8037
2665	0.8039
2674	0.803
2683	0.7986
2692	0.7889
2701	0.7557
2710	0.745
2719	0.6986
2728	0.6894
2737	0.7338
2746	0.7225
2755	0.7121
2764	0.7351
2773	0.7326
2782	0.7215
2791	0.6922
2800	0.6343
2809	0.6259
2818	0.6014
2827	0.5286
2836	0.4026
2845	0.317
2854	0.1536
2863	0.0911
2872	0.069
2881	0.0801
2890	0.0879
2899	0.0864
2908	0.0761
2917	0.0579
2926	0.0745
2935	0.1378
2944	0.1198
2953	0.0393
2962	0.0161
2971	0.0236
2980	0.1792
2989	0.383
2998	0.5847
3007	0.6688
3016	0.7062
3025	0.7368
3034	0.759
3043	0.7691
3052	0.7751
3061	0.7795
3070	0.783
3079	0.7846
3088	0.7851
3097	0.7868
3106	0.7889
3115	0.7911
3124	0.7924
3133	0.7945
3142	0.7975
3151	0.8018
3160	0.8054
3169	0.8097
3178	0.8133
3187	0.8151
3196	0.8168
3205	0.8185
3214	0.8189
3223	0.8197
3232	0.824
3241	0.8304
3250	0.8357
3259	0.8395
3268	0.8412
3277	0.8418
3286	0.8418
3295	0.8417
3304	0.8413
3313	0.8404
3322	0.8401
3331	0.8394
3340	0.8384
3349	0.8375
3358	0.8366
3367	0.8368
3376	0.8378
3385	0.839
3394	0.8405
3403	0.8421
3412	0.8437
3421	0.8448
3430	0.8459
3439	0.8468
3448	0.8484
3457	0.8499
3466	0.8514
3475	0.8528
3484	0.8546
3493	0.8562
3502	0.8578
3511	0.86
3520	0.8621
3529	0.8645
3538	0.8668
3547	0.8692
3556	0.8724
3565	0.8842
3574	0.877
3583	0.8778
3592	0.8825
3601	0.8765
3610	0.876
3619	0.8756
3628	0.8778
3637	0.8797
3646	0.8793
3655	0.8778
3664	0.8745
3673	0.8721
3682	0.8706
3691	0.8725
3700	0.878
3709	0.8836
3718	0.8866
3727	0.8887
3736	0.8905
3745	0.8914
3754	0.8916
3763	0.8916
3772	0.8917
