Infrared Spectrum: 2,4-Dichloro-6,7-dimethoxyquinazoline
Formula: C 10 H 8 Cl 2 N 2 O 2
CAS: 27631-29-4
State: gas
Origin: EPA-IR VAPOR PHASE LIBRARY
1/CM	ABSORBANCE
549.8	0.021456
559.445	0.008156
569.09	0.003326
578.734	0.002256
588.379	0.001576
598.024	0.002616
607.669	0.002296
617.313	0.002536
626.958	0.004086
636.603	0.007756
646.248	0.006306
655.893	0.007426
665.537	0.018356
675.182	0.021716
684.827	0.008176
694.472	0.003946
704.116	0.002646
713.761	0.003146
723.406	0.005976
733.051	0.016856
742.695	0.029306
752.34	0.013446
761.985	0.005766
771.63	0.006276
781.275	0.006026
790.919	0.005706
800.564	0.011376
810.209	0.025466
819.854	0.038946
829.498	0.035516
839.143	0.028216
848.788	0.040816
858.433	0.059726
868.078	0.065046
877.722	0.050936
887.367	0.025786
897.012	0.010866
906.657	0.006166
916.301	0.004726
925.946	0.004366
935.591	0.004926
945.236	0.006686
954.88	0.010016
964.525	0.017326
974.17	0.025246
983.815	0.034206
993.46	0.022936
1003.1	0.024406
1012.75	0.035606
1022.39	0.039576
1032.04	0.035176
1041.68	0.020656
1051.33	0.008906
1060.97	0.006636
1070.62	0.006666
1080.26	0.007416
1089.91	0.009086
1099.55	0.012526
1109.2	0.016156
1118.84	0.027396
1128.49	0.074936
1138.13	0.161556
1147.78	0.133766
1157.42	0.119406
1167.07	0.144086
1176.71	0.100056
1186.36	0.074216
1196	0.079946
1205.64	0.128146
1215.29	0.140066
1224.93	0.199996
1234.58	0.352396
1244.22	0.220676
1253.87	0.106976
1263.51	0.074696
1273.16	0.063416
1282.8	0.034946
1292.45	0.020956
1302.09	0.015676
1311.74	0.014116
1321.38	0.014716
1331.03	0.018116
1340.67	0.030056
1350.32	0.049866
1359.96	0.039846
1369.61	0.035656
1379.25	0.061786
1388.9	0.116726
1398.54	0.190126
1408.18	0.218986
1417.83	0.105276
1427.47	0.056026
1437.12	0.073886
1446.76	0.106326
1456.41	0.072666
1466.05	0.096916
1475.7	0.101986
1485.34	0.146426
1494.99	0.314236
1504.63	0.282096
1514.28	0.098116
1523.92	0.046906
1533.57	0.057446
1543.21	0.113576
1552.86	0.183986
1562.5	0.161226
1572.15	0.059406
1581.79	0.023736
1591.44	0.017796
1601.08	0.025756
1610.73	0.056156
1620.37	0.059526
1630.01	0.025706
1639.66	0.014756
1649.3	0.009766
1658.95	0.006796
1668.59	0.006116
1678.24	0.006986
1687.88	0.007616
1697.53	0.006226
1707.17	0.005086
1716.82	0.004036
1726.46	0.003736
1736.11	0.003586
1745.75	0.002926
1755.4	0.002866
1765.04	0.002906
1774.69	0.002496
1784.33	0.002436
1793.98	0.002416
1803.62	0.002596
1813.27	0.002816
1822.91	0.002596
1832.55	0.002276
1842.2	0.002266
1851.84	0.002096
1861.49	0.002166
1871.13	0.002606
1880.78	0.002946
1890.42	0.002536
1900.07	0.002426
1909.71	0.002586
1919.36	0.002506
1929	0.002486
1938.65	0.002536
1948.29	0.002626
1957.94	0.002866
1967.58	0.003016
1977.23	0.003336
1986.87	0.003286
1996.52	0.003066
2006.16	0.002976
2015.81	0.003216
2025.45	0.003356
2035.1	0.003486
2044.74	0.003866
2054.38	0.003646
2064.03	0.003116
2073.67	0.002416
2083.32	0.002036
2092.96	0.001916
2102.61	0.001756
2112.25	0.001716
2121.9	0.001876
2131.54	0.001886
2141.19	0.001906
2150.83	0.002076
2160.48	0.001846
2170.12	0.002026
2179.77	0.001906
2189.41	0.002046
2199.06	0.001946
2208.7	0.001986
2218.35	0.002226
2227.99	0.002276
2237.64	0.002436
2247.28	0.002426
2256.92	0.002036
2266.57	0.001646
2276.21	0.001566
2285.86	0.001836
2295.5	0.001806
2305.15	0.001606
2314.79	0.001696
2324.44	0.001546
2334.08	0.001746
2343.73	0.001736
2353.37	0.001736
2363.02	0.001836
2372.66	0.002276
2382.31	0.002636
2391.95	0.002636
2401.6	0.003046
2411.24	0.003186
2420.89	0.002946
2430.53	0.002396
2440.18	0.002066
2449.82	0.002076
2459.47	0.002156
2469.11	0.002436
2478.75	0.002066
2488.4	0.001936
2498.04	0.001706
2507.69	0.001826
2517.33	0.002106
2526.98	0.002006
2536.62	0.002006
2546.27	0.002106
2555.91	0.001936
2565.56	0.001746
2575.2	0.001706
2584.85	0.002016
2594.49	0.002306
2604.14	0.002666
2613.78	0.003056
2623.43	0.003036
2633.07	0.003006
2642.72	0.003026
2652.36	0.002826
2662.01	0.002736
2671.65	0.002186
2681.29	0.002156
2690.94	0.002056
2700.58	0.002386
2710.23	0.002226
2719.87	0.002356
2729.52	0.002626
2739.16	0.002966
2748.81	0.003266
2758.45	0.003346
2768.1	0.003366
2777.74	0.003956
2787.39	0.004526
2797.03	0.004976
2806.68	0.005136
2816.32	0.006416
2825.97	0.008286
2835.61	0.012726
2845.26	0.016076
2854.9	0.014496
2864.55	0.015396
2874.19	0.014786
2883.84	0.011216
2893.48	0.010686
2903.12	0.013216
2912.77	0.016526
2922.41	0.018616
2932.06	0.019186
2941.7	0.030226
2951.35	0.040226
2960.99	0.033486
2970.64	0.030696
2980.28	0.020776
2989.93	0.013216
2999.57	0.013856
3009.22	0.020936
3018.86	0.032266
3028.51	0.014496
3038.15	0.006296
3047.8	0.004816
3057.44	0.004366
3067.09	0.004026
3076.73	0.004556
3086.38	0.005906
3096.02	0.007086
3105.67	0.005476
3115.31	0.003396
3124.95	0.002476
3134.6	0.002136
3144.24	0.001526
3153.89	0.001656
3163.53	0.001596
3173.18	0.001416
3182.82	0.0013215
3192.47	0.0008918
3202.11	0.0009308
3211.76	0.0009863
3221.4	0.0009521
3231.05	0.0009479
3240.69	0.0012904
3250.34	0.0006536
3259.98	0.0005531
3269.63	0.0008277
3279.27	0.00040725
3288.92	0.000108
3298.56	0.00041384
3308.21	0.0003178
3317.85	0.0003332
3327.49	0.0003095
3337.14	0.00038881
3346.78	5.7e-05
3356.43	0.0003361
3366.07	0.000188
3375.72	0.0003548
3385.36	0.00045427
3395.01	0.0003171
3404.65	0
3414.3	0.000197
3423.94	0.0003738
3433.59	0.0005776
3443.23	0.0005348
3452.88	0.0007438
3462.52	0.00044176
3472.17	0.0006749
3481.81	0.0006066
3491.46	0.0005341
3501.1	0.00047055
3510.75	0.0006321
3520.39	0.0003369
3530.04	0.000355
3539.68	0.0003589
3549.32	0.000202
3558.97	0.000273
3568.61	0.00046692
3578.26	0.00039414
3587.9	0.00039048
3597.55	0.0002979
3607.19	0.0005071
3616.84	0.0008527
3626.48	0.00045889
3636.13	0.0008465
3645.77	0.000226
3655.42	0.0006762
3665.06	0.0007432
3674.71	0.0005911
3684.35	0.0006053
3694	0.00041027
3703.64	0.0003095
3713.29	0.000263
3722.93	0.000297
3732.58	0.00043517
3742.22	0.0003742
3751.86	0.00044849
3761.51	0.0007211
3771.15	0.0004856
3780.8	0.0006282
3790.44	0.000605
3800.09	0.0005565
3809.73	0.0005666
3819.38	0.0005242
3829.02	0.0005777
3838.67	0.0006719
3848.31	0.0005883
3857.96	0.0007812
3867.6	0.00026
3877.25	0.0005629
3886.89	0.0003379
3896.54	0.00040622
3906.18	0.0009171
3915.83	0.000183
3925.47	0.0008306
3935.12	0.0005819
3944.76	0.0008012
3954.41	0.0007033
3964.05	0.0008521
3973.69	0.0009597
3983.34	0.000866
3992.98	0.001043
