Infrared Spectrum: Alpha,Alpha-DIPHENYL ACETOPHENONE
Formula: C20 H16 O
CAS: 27644-00-4
State: SOLID (1.0% IN KBr PELLET)
Class: COBLENTZ
Instrument: Not specified, most likely a prism, grating, or hybrid spectrometer.
Sampling: TRANSMISSION
Path length: 0.0355 CM THICK
Resolution: 4
Origin: ANDERSON PHYSICAL LABORATORY
1/CM	TRANSMITTANCE
673.438	0.432
681.876	0.355
690.313	0.2472
698.751	0.3449
707.188	0.6686
715.626	0.896
724.063	0.839
732.501	0.6002
740.938	0.288
749.376	0.48
757.813	0.809
766.251	0.504
774.688	0.9029
783.126	0.935
791.563	0.911
800.001	0.914
808.438	0.917
816.876	0.896
825.314	0.846
833.751	0.77
842.189	0.887
850.626	0.8251
859.064	0.7551
867.501	0.8669
875.939	0.86
884.376	0.9
892.814	0.9
901.251	0.893
909.689	0.836
918.126	0.87
926.564	0.858
935.001	0.842
943.439	0.866
951.877	0.866
960.314	0.86
968.752	0.84
977.189	0.818
985.627	0.776
994.064	0.701
1002.5	0.56
1010.94	0.756
1019.38	0.6499
1027.81	0.8
1036.25	0.63
1044.69	0.8299
1053.13	0.858
1061.56	0.848
1070	0.803
1078.44	0.659
1086.88	0.734
1095.31	0.833
1103.75	0.816
1112.19	0.812
1120.63	0.816
1129.06	0.821
1137.5	0.818
1145.94	0.8
1154.38	0.761
1162.81	0.717
1171.25	0.704
1179.69	0.645
1188.13	0.606
1196.56	0.641
1205	0.4841
1213.44	0.3299
1221.88	0.678
1230.32	0.749
1238.75	0.662
1247.19	0.755
1255.63	0.789
1264.07	0.746
1272.5	0.6571
1280.94	0.587
1289.38	0.651
1297.82	0.629
1306.25	0.642
1314.69	0.678
1323.13	0.707
1331.57	0.765
1340	0.777
1348.44	0.764
1356.88	0.7291
1365.32	0.596
1373.75	0.794
1382.19	0.827
1390.63	0.824
1399.07	0.795
1407.5	0.785
1415.94	0.795
1424.38	0.797
1432.82	0.78
1441.25	0.762
1449.69	0.5881
1458.13	0.4889
1466.57	0.705
1475	0.806
1483.44	0.764
1491.88	0.696
1500.32	0.459
1508.75	0.7101
1517.19	0.812
1525.63	0.831
1534.07	0.827
1542.5	0.809
1550.94	0.798
1559.38	0.788
1567.82	0.759
1576.25	0.716
1584.69	0.578
1593.13	0.644
1601.57	0.5391
1610	0.7339
1618.44	0.765
1626.88	0.758
1635.32	0.738
1643.75	0.708
1652.19	0.686
1660.63	0.609
1669.07	0.509
1677.5	0.325
1685.94	0.2491
1694.38	0.4839
1702.82	0.6919
1711.25	0.846
1719.69	0.86
1728.13	0.873
1736.57	0.869
1745	0.861
1753.44	0.851
1761.88	0.845
1770.32	0.84
1778.75	0.828
1787.19	0.834
1795.63	0.83
1804.07	0.821
1812.5	0.813
1820.94	0.813
1829.38	0.819
1837.82	0.824
1846.25	0.827
1854.69	0.827
1863.13	0.822
1871.57	0.809
1880	0.804
1888.44	0.801
1896.88	0.801
1905.32	0.792
1913.75	0.798
1922.19	0.803
1930.63	0.801
1939.07	0.806
1947.51	0.798
1955.94	0.771
1964.38	0.773
1972.82	0.779
1981.26	0.782
1989.69	0.792
1998.13	0.797
2006.57	0.8
2015.01	0.8
2023.44	0.801
2031.88	0.8005
2040.32	0.8
2048.76	0.7999
2057.19	0.798
2065.63	0.798
2074.07	0.798
2082.51	0.798
2090.94	0.797
2099.38	0.795
2107.82	0.7912
2116.26	0.788
2124.69	0.788
2133.13	0.7868
2141.57	0.7851
2150.01	0.7847
2158.44	0.7826
2166.88	0.782
2175.32	0.78
2183.76	0.7799
2192.19	0.7766
2200.63	0.7733
2209.07	0.7701
2217.51	0.768
2225.94	0.7676
2234.38	0.7656
2242.82	0.7641
2251.26	0.762
2259.69	0.7615
2268.13	0.7583
2276.57	0.756
2285.01	0.755
2293.44	0.753
2301.88	0.7505
2310.32	0.749
2318.76	0.747
2327.19	0.746
2335.63	0.744
2344.07	0.7399
2352.51	0.737
2360.94	0.735
2369.38	0.7324
2377.82	0.732
2386.26	0.7317
2394.69	0.731
2403.13	0.731
2411.57	0.732
2420.01	0.7317
2428.44	0.731
2436.88	0.731
2445.32	0.7308
2453.76	0.729
2462.19	0.7284
2470.63	0.7262
2479.07	0.726
2487.51	0.7256
2495.94	0.725
2504.38	0.7232
2512.82	0.722
2521.26	0.72
2529.69	0.719
2538.13	0.7171
2546.57	0.7156
2555.01	0.7121
2563.44	0.711
2571.88	0.71
2580.32	0.7078
2588.76	0.706
2597.19	0.7043
2605.63	0.704
2614.07	0.702
2622.51	0.701
2630.95	0.6995
2639.38	0.698
2647.82	0.696
2656.26	0.695
2664.7	0.693
2673.13	0.6919
2681.57	0.6897
2690.01	0.689
2698.45	0.687
2706.88	0.686
2715.32	0.6853
2723.76	0.6818
2732.2	0.6801
2740.63	0.678
2749.07	0.677
2757.51	0.6757
2765.95	0.6722
2774.38	0.671
2782.82	0.669
2791.26	0.6683
2799.7	0.6662
2808.13	0.6647
2816.57	0.6626
2825.01	0.6576
2833.45	0.653
2841.88	0.6508
2850.32	0.6476
2858.76	0.6443
2867.2	0.642
2875.63	0.6376
2884.07	0.634
2892.51	0.6323
2900.95	0.624
2909.38	0.6195
2917.82	0.604
2926.26	0.6
2934.7	0.6001
2943.13	0.603
2951.57	0.6071
2960.01	0.6118
2968.45	0.614
2976.88	0.614
2985.32	0.614
2993.76	0.6112
3002.2	0.5995
3010.63	0.5843
3019.07	0.5605
3027.51	0.5392
3035.95	0.537
3044.38	0.5377
3052.82	0.5413
3061.26	0.543
3069.7	0.543
3078.13	0.542
3086.57	0.542
3095.01	0.5448
3103.45	0.5723
3111.88	0.5985
3120.32	0.6105
3128.76	0.6169
3137.2	0.6178
3145.63	0.6161
3154.07	0.615
3162.51	0.614
3170.95	0.612
3179.38	0.612
3187.82	0.612
3196.26	0.612
3204.7	0.614
3213.13	0.614
3221.57	0.612
3230.01	0.609
3238.45	0.609
3246.88	0.609
3255.32	0.608
3263.76	0.606
3272.2	0.6044
3280.63	0.603
3289.07	0.602
3297.51	0.6019
3305.95	0.599
3314.39	0.5964
3322.82	0.596
3331.26	0.5928
3339.7	0.5889
3348.14	0.5858
3356.57	0.5841
3365.01	0.5819
3373.45	0.581
3381.89	0.5797
3390.32	0.579
3398.76	0.5777
3407.2	0.575
3415.64	0.5737
3424.07	0.5721
3432.51	0.572
3440.95	0.57
3449.39	0.569
3457.82	0.569
3466.26	0.566
3474.7	0.5651
3483.14	0.564
3491.57	0.564
3500.01	0.563
3508.45	0.561
3516.89	0.5585
3525.32	0.558
3533.76	0.558
3542.2	0.558
3550.64	0.558
3559.07	0.558
3567.51	0.5577
3575.95	0.5559
3584.39	0.5542
3592.82	0.554
3601.26	0.554
3609.7	0.554
3618.14	0.554
3626.57	0.555
3635.01	0.555
3643.45	0.555
3651.89	0.555
3660.32	0.555
3668.76	0.555
3677.2	0.555
3685.64	0.555
3694.07	0.554
3702.51	0.554
3710.95	0.552
3719.39	0.552
3727.82	0.551
3736.26	0.551
3744.7	0.5496
3753.14	0.549
3761.57	0.5458
3770.01	0.5441
3778.45	0.543
3786.89	0.542
3795.32	0.54
3803.76	0.54
3812.2	0.5392
3820.64	0.539
3829.07	0.5367
3837.51	0.5349
3845.95	0.5332
3854.39	0.531
3862.82	0.531
3871.26	0.531
3879.7	0.53
3888.14	0.53
3896.57	0.5286
3905.01	0.5288
3913.45	0.5272
3921.89	0.5247
3930.32	0.5217
3938.76	0.5198
3947.2	0.519
3955.64	0.519
3964.07	0.519
3972.51	0.519
3980.95	0.518
