Infrared Spectrum: cis,trans,trans-1,5,9-Cyclododecatriene
Formula: C 12 H 18
CAS: 2765-29-9
State: gas
Instrument: HP-GC/MS/IRD
Origin: NIST Mass Spectrometry Data Center
1/CM	ABSORBANCE
550	0.0006188
562	3.92e-05
574	0.0001288
586	0.0003052
598	0.0003948
610	0.000266
622	0.0001932
634	3.36e-05
646	6.44e-05
658	0.0001708
670	0.0003836
682	0.0008092
694	0.0027608
706	0.0045612
718	0.0025732
730	0.0007588
742	0.000378
754	0.0002408
766	0.0003332
778	0.0005572
790	0.0005488
802	0.0005768
814	0.0004396
826	0.0001288
838	0.0003024
850	0.0004872
862	0.0008036
874	0.0006832
886	0.0004284
898	0.0003976
910	0.0004228
922	0.0007168
934	0.0013216
946	0.003276
958	0.0071036
970	0.0107464
982	0.00476
994	0.0018872
1006	0.0018984
1018	0.0016492
1030	0.0009688
1042	0.0006328
1054	0.0004228
1066	0.0004144
1078	0.0005712
1090	0.0003836
1102	0.0001064
1114	5.6e-05
1126	0.00014
1138	0.000196
1150	3.08e-05
1162	5.04e-05
1174	0.0001624
1186	0.0003864
1198	0.0004676
1210	0.000476
1222	0.0003052
1234	8.68e-05
1246	5.32e-05
1258	0.0001708
1270	0.0005152
1282	0.0005712
1294	0.0007392
1306	0.0008204
1318	0.00098
1330	0.000938
1342	0.0009436
1354	0.0003892
1366	0.0003164
1378	0.0003248
1390	0.0005152
1402	0.0006608
1414	0.0008092
1426	0.001232
1438	0.0037268
1450	0.0047936
1462	0.0020804
1474	0.0008624
1486	0.0003864
1498	0.0003528
1510	0.0009072
1522	0.0006132
1534	0.000392
1546	0.0004928
1558	0.0006076
1570	0.00014
1582	4.48e-05
1594	4.48e-05
1606	8.4e-05
1618	0.000154
1630	0.000182
1642	0.0003416
1654	0.0008148
1666	0.0005992
1678	0.0007308
1690	0.0005152
1702	0.0006804
1714	0.0006076
1726	0.0003724
1738	0.0006216
1750	0.0007644
1762	0.0004928
1774	0.0004564
1786	0.0003836
1798	0.0003416
1810	0.000196
1822	0.0002632
1834	0.0002772
1846	0.000378
1858	0.0001568
1870	0.0002688
1882	0.0001232
1894	0.0001428
1906	0.000126
1918	0.0001848
1930	8.68e-05
1942	0.0001876
1954	0.0001148
1966	7.56e-05
1978	5.6e-05
1990	0.000126
2002	5.88e-05
2014	6.72e-05
2026	3.64e-05
2038	2.8e-05
2050	3.08e-05
2062	3.92e-05
2074	4.2e-05
2086	4.48e-05
2098	3.92e-05
2110	6.72e-05
2122	1.96e-05
2134	5.6e-05
2146	5.32e-05
2158	2.52e-05
2170	7e-05
2182	5.32e-05
2194	4.48e-05
2206	5.32e-05
2218	5.32e-05
2230	9.24e-05
2242	3.64e-05
2254	4.76e-05
2266	7.28e-05
2278	3.08e-05
2290	9.52e-05
2302	0.0001036
2314	0.0001708
2326	0.0001904
2338	0.000154
2350	0.0001148
2362	0.0001792
2374	0.0001624
2386	9.8e-05
2398	7.56e-05
2410	5.88e-05
2422	7e-05
2434	2.24e-05
2446	2.8e-05
2458	2.8e-05
2470	3.36e-05
2482	3.64e-05
2494	4.48e-05
2506	6.16e-05
2518	7e-05
2530	6.44e-05
2542	8.4e-05
2554	3.92e-05
2566	4.48e-05
2578	6.44e-05
2590	0.0001036
2602	0.0001316
2614	0.0001764
2626	0.0002604
2638	0.0003332
2650	0.0003556
2662	0.0003164
2674	0.000252
2686	0.0002016
2698	0.0001792
2710	0.0002044
2722	0.0002492
2734	0.00028
2746	0.000294
2758	0.0003444
2770	0.000378
2782	0.0004508
2794	0.0005348
2806	0.0007196
2818	0.0009912
2830	0.0018452
2842	0.0050988
2854	0.0107996
2866	0.0103376
2878	0.0058828
2890	0.0063224
2902	0.0113064
2914	0.0221956
2926	0.0276332
2938	0.0179928
2950	0.0116088
2962	0.00805
2974	0.00602
2986	0.005838
2998	0.0079464
3010	0.0086184
3022	0.0047964
3034	0.003388
3046	0.00189
3058	0.001106
3070	0.0008176
3082	0.0005684
3094	0.0004312
3106	0.0003864
3118	0.0003276
3130	0.000308
3142	0.0002576
3154	0.0002268
3166	0.0002296
3178	0.00021
3190	0.0001932
3202	0.0002156
3214	0.0001848
3226	0.0001652
3238	0.0001736
3250	0.0001848
3262	0.000168
3274	0.000168
3286	0.0001036
3298	0.0001148
3310	0.0001036
3322	0.0001176
3334	8.68e-05
3346	5.6e-05
3358	0.0001092
3370	5.04e-05
3382	7.84e-05
3394	7.56e-05
3406	9.24e-05
3418	0.0001232
3430	0.0001008
3442	0.0001176
3454	8.68e-05
3466	0.0001288
3478	0.000126
3490	7e-05
3502	0.0002016
3514	5.6e-05
3526	0.0002324
3538	9.52e-05
3550	0.0001568
3562	0.0001988
3574	5.32e-05
3586	0.0003864
3598	0.0001176
3610	0.000364
3622	0.0001232
3634	0.0001176
3646	0.0002856
3658	0.0001484
3670	0.0002856
3682	5.88e-05
3694	9.52e-05
3706	0.0001568
3718	0.0001708
3730	0.000336
3742	0.0004396
3754	0.0002352
3766	0.00014
3778	1.12e-05
3790	1.4e-05
3802	0.0001596
3814	7.84e-05
3826	0.000126
3838	0.00028
