Infrared Spectrum: ACETAMIDE, N-(p-HYDROXY-Alpha-METHYLPHENETHYL)-, ACETATE
Formula: C13 H17 N O3
CAS: 27675-97-4
State: SOLID (1 mg / 200 mg KBr DISC) VS KBr
Class: COBLENTZ III
Instrument: PERKIN-ELMER 21 (GRATING)
Instrument parameters: FILTER AT ABOUT 10 MICRONS
Sampling: TRANSMISSION
Resolution: 2
1/CM	TRANSMITTANCE
4000	0.526
3991	0.5269
3982	0.5279
3973	0.5288
3964	0.5298
3955	0.5307
3946	0.5317
3937	0.5326
3928	0.533
3919	0.5335
3910	0.5339
3901	0.5338
3892	0.5335
3883	0.5332
3874	0.5331
3865	0.5338
3856	0.5345
3847	0.5352
3838	0.5359
3829	0.5362
3820	0.5368
3811	0.5372
3802	0.5378
3793	0.5383
3784	0.5386
3775	0.5389
3766	0.5392
3757	0.5395
3748	0.5399
3739	0.5402
3730	0.5404
3721	0.5404
3712	0.5406
3703	0.5408
3694	0.5409
3685	0.5408
3676	0.5408
3667	0.5405
3658	0.5399
3649	0.5391
3640	0.5379
3631	0.5367
3622	0.5355
3613	0.5333
3604	0.5309
3595	0.5285
3586	0.5259
3577	0.5234
3568	0.5207
3559	0.5178
3550	0.5149
3541	0.5118
3532	0.5079
3523	0.5029
3514	0.4966
3505	0.4904
3496	0.4873
3487	0.4871
3478	0.4869
3469	0.4866
3460	0.4862
3451	0.4859
3442	0.4851
3433	0.4835
3424	0.4815
3415	0.4788
3406	0.4749
3397	0.4685
3388	0.4584
3379	0.4467
3370	0.4344
3361	0.4209
3352	0.4053
3343	0.3532
3334	0.3049
3325	0.2562
3316	0.2074
3307	0.2024
3298	0.2027
3289	0.225
3280	0.2878
3271	0.3509
3262	0.4084
3253	0.4297
3244	0.4447
3235	0.4591
3226	0.4769
3217	0.4893
3208	0.4991
3199	0.5051
3190	0.5075
3181	0.5077
3172	0.4999
3163	0.4919
3154	0.4822
3145	0.4718
3136	0.4598
3127	0.4515
3118	0.4505
3109	0.4601
3100	0.4869
3091	0.5048
3082	0.5175
3073	0.5266
3064	0.5342
3055	0.538
3046	0.5392
3037	0.5357
3028	0.5185
3019	0.4924
3010	0.4662
3001	0.4401
2992	0.4226
2983	0.4394
2974	0.4586
2965	0.4597
2956	0.4602
2947	0.4612
2938	0.4832
2929	0.5105
2920	0.5369
2911	0.5425
2902	0.543
2893	0.5395
2884	0.537
2875	0.537
2866	0.5488
2857	0.5667
2848	0.5788
2839	0.5917
2830	0.6009
2821	0.6081
2812	0.6122
2803	0.6154
2794	0.6184
2785	0.621
2776	0.6231
2767	0.6234
2758	0.6228
2749	0.6222
2740	0.6217
2731	0.6217
2722	0.6219
2713	0.6223
2704	0.6242
2695	0.626
2686	0.6276
2677	0.6289
2668	0.6298
2659	0.6297
2650	0.6286
2641	0.6274
2632	0.6272
2623	0.6288
2614	0.6293
2605	0.6295
2596	0.6312
2587	0.6331
2578	0.6353
2569	0.6372
2560	0.638
2551	0.6389
2542	0.6399
2533	0.641
2524	0.6421
2515	0.6434
2506	0.644
2497	0.6447
2488	0.6453
2479	0.646
2470	0.6458
2461	0.6457
2452	0.6455
2443	0.6451
2434	0.6441
2425	0.6431
2416	0.6422
2407	0.6415
2398	0.6422
2389	0.6441
2380	0.6461
2371	0.6485
2362	0.6482
2353	0.6478
2344	0.6482
2335	0.6495
2326	0.6521
2317	0.6548
2308	0.6558
2299	0.6568
2290	0.6574
2281	0.658
2272	0.6585
2263	0.6593
2254	0.6601
2245	0.6611
2236	0.6617
2227	0.6621
2218	0.6626
2209	0.6631
2200	0.6635
2191	0.6639
2182	0.6638
2173	0.6636
2164	0.663
2155	0.6621
2146	0.6601
2137	0.6594
2128	0.6592
2119	0.6615
2110	0.6638
2101	0.6661
2092	0.6668
2083	0.6615
2074	0.6597
2065	0.6586
2056	0.6587
2047	0.6585
2038	0.6583
2029	0.6587
2020	0.6591
2011	0.6594
2002	0.6528
1993	0.651
1984	0.6481
1975	0.6485
1966	0.6498
1957	0.6492
1948	0.6447
1939	0.6379
1930	0.6309
1921	0.6289
1912	0.6353
1903	0.6396
1894	0.6354
1885	0.6309
1876	0.6259
1867	0.6199
1858	0.6115
1849	0.5978
1840	0.5843
1831	0.5782
1822	0.5665
1813	0.5451
1804	0.5076
1795	0.4389
1786	0.3409
1777	0.2742
1768	0.1405
1759	0.1201
1750	0.2767
1741	0.5399
1732	0.5766
1723	0.5841
1714	0.5896
1705	0.5551
1696	0.5033
1687	0.439
1678	0.3666
1669	0.2344
1660	0.1117
1651	0.0623
1642	0.2404
1633	0.4205
1624	0.456
1615	0.4708
1606	0.4547
1597	0.398
1588	0.297
1579	0.1869
1570	0.1467
1561	0.1958
1552	0.2501
1543	0.305
1534	0.3328
1525	0.2534
1516	0.1957
1507	0.2924
1498	0.4308
1489	0.4707
1480	0.4904
1471	0.4748
1462	0.3523
1453	0.3197
1444	0.3184
1435	0.4088
1426	0.4417
1417	0.5415
1408	0.5486
1399	0.5053
1390	0.3336
1381	0.1396
1372	0.3474
1363	0.5792
1354	0.6193
1345	0.6316
1336	0.6455
1327	0.6296
1318	0.514
1309	0.5128
1300	0.5017
1291	0.5389
1282	0.5816
1273	0.5806
1264	0.5054
1255	0.4583
1246	0.4222
1237	0.2747
1228	0.1267
1219	0.0946
1210	0.1237
1201	0.0419
1192	0.1037
1183	0.3172
1174	0.4812
1165	0.3462
1156	0.5648
1147	0.4568
1138	0.4924
1129	0.6098
1120	0.6357
1111	0.4485
1102	0.6451
1093	0.6865
1084	0.7125
1075	0.6576
1066	0.6285
1057	0.6937
1048	0.6439
1039	0.6145
1030	0.655
1021	0.3814
1012	0.393
1003	0.6675
994	0.7275
985	0.6359
976	0.6767
967	0.753
958	0.7607
949	0.7494
940	0.7664
931	0.6417
922	0.511
913	0.3747
904	0.7151
895	0.7051
886	0.7788
877	0.7839
868	0.7397
859	0.7215
850	0.534
841	0.5189
832	0.7111
823	0.7736
814	0.7806
805	0.763
796	0.7436
787	0.705
778	0.6414
769	0.5756
760	0.5004
751	0.5909
742	0.641
733	0.6895
724	0.7374
715	0.7601
706	0.7828
697	0.7941
688	0.7981
679	0.8037
670	0.7918
