Infrared Spectrum: Tin, dimethyldibromo-
Formula: C2 H6 Br2 Sn
CAS: 2767-47-7
State: SOLID (SPLIT MULL), FLUOROLUBE FOR 3800-1330 CM^-^1, NUJOL FOR 1330-460 CM^-^1
Class: COBLENTZ III
Instrument: DOW KBr FOREPRISM-GRATING
Instrument parameters: BLAZED AT 3.5, 12.0, 20.0 MICRON AND CHANGED AT 5.0, 7.5, 14.9 MICRON
Sampling: TRANSMISSION
Resolution: 2
Origin: DOW CHEMICAL COMPANY
1/CM	TRANSMITTANCE
465	0.8308
474	0.8307
483	0.8248
492	0.8151
501	0.7892
510	0.7047
519	0.357
528	0.8115
537	0.8096
546	0.7895
555	0.7486
564	0.3341
573	0.8133
582	0.8273
591	0.8298
600	0.83
609	0.8288
618	0.8271
627	0.8255
636	0.8239
645	0.8214
654	0.8162
663	0.8005
672	0.7828
681	0.7771
690	0.7592
699	0.7214
708	0.6805
717	0.626
726	0.536
735	0.5087
744	0.4532
753	0.3875
762	0.2969
771	0.1926
780	0.1139
789	0.0692
798	0.0591
807	0.0754
816	0.115
825	0.1533
834	0.2396
843	0.3628
852	0.4354
861	0.5072
870	0.6089
879	0.6667
888	0.7075
897	0.7525
906	0.7775
915	0.7914
924	0.7928
933	0.794
942	0.7946
951	0.7938
960	0.7914
969	0.7867
978	0.7911
987	0.8043
996	0.8025
1005	0.7984
1014	0.7948
1023	0.7914
1032	0.7914
1041	0.7908
1050	0.7899
1059	0.7872
1068	0.7806
1077	0.7826
1086	0.7911
1095	0.7941
1104	0.7932
1113	0.7901
1122	0.7854
1131	0.7819
1140	0.7765
1149	0.7603
1158	0.7468
1167	0.7428
1176	0.7471
1185	0.7383
1194	0.7108
1203	0.7207
1212	0.7336
1221	0.7312
1230	0.7249
1239	0.7174
1248	0.7097
1257	0.6999
1266	0.6878
1275	0.6747
1284	0.6604
1293	0.6448
1302	0.6326
1311	0.6277
1320	0.6259
1329	0.6141
1338	0.6348
1347	0.7518
1356	0.7591
1365	0.7593
1374	0.7587
1383	0.7734
1392	0.7582
1401	0.7501
1410	0.7549
1419	0.7645
1428	0.7774
1437	0.7903
1446	0.7978
1455	0.8024
1464	0.8057
1473	0.8085
1482	0.8118
1491	0.8128
1500	0.8134
1509	0.8137
1518	0.8139
1527	0.8141
1536	0.8132
1545	0.8124
1554	0.8119
1563	0.8114
1572	0.81
1581	0.8167
1590	0.8187
1599	0.8195
1608	0.8199
1617	0.8204
1626	0.8145
1635	0.8114
1644	0.8091
1653	0.8075
1662	0.8051
1671	0.8005
1680	0.7912
1689	0.7803
1698	0.7638
1707	0.7575
1716	0.7731
1725	0.773
1734	0.7693
1743	0.7649
1752	0.7604
1761	0.7555
1770	0.7557
1779	0.7593
1788	0.7581
1797	0.7571
1806	0.7568
1815	0.7553
1824	0.7525
1833	0.7496
1842	0.7469
1851	0.7444
1860	0.7419
1869	0.7403
1878	0.7387
1887	0.7374
1896	0.7368
1905	0.7354
1914	0.7334
1923	0.7315
1932	0.7297
1941	0.7268
1950	0.7241
1959	0.7315
1968	0.7168
1977	0.7168
1986	0.7156
1995	0.7133
2004	0.7099
2013	0.7336
2022	0.7368
2031	0.7326
2040	0.7286
2049	0.724
2058	0.7192
2067	0.715
2076	0.7115
2085	0.7078
2094	0.7042
2103	0.7004
2112	0.6967
2121	0.6921
2130	0.6876
2139	0.6832
2148	0.6786
2157	0.6735
2166	0.6685
2175	0.6634
2184	0.6583
2193	0.653
2202	0.6471
2211	0.6411
2220	0.6353
2229	0.6292
2238	0.6222
2247	0.6152
2256	0.6082
2265	0.603
2274	0.5985
2283	0.5939
2292	0.5896
2301	0.5862
2310	0.5829
2319	0.5795
2328	0.5741
2337	0.5747
2346	0.5727
2355	0.5718
2364	0.5724
2373	0.5729
2382	0.5743
2391	0.5758
2400	0.5764
2409	0.5764
2418	0.5753
2427	0.5738
2436	0.5717
2445	0.5695
2454	0.5674
2463	0.5651
2472	0.5632
2481	0.5612
2490	0.5592
2499	0.5571
2508	0.5554
2517	0.5537
2526	0.5521
2535	0.5504
2544	0.5488
2553	0.5469
2562	0.5449
2571	0.5428
2580	0.5408
2589	0.5388
2598	0.5368
2607	0.5348
2616	0.5328
2625	0.5309
2634	0.5289
2643	0.5269
2652	0.5244
2661	0.5219
2670	0.5195
2679	0.517
2688	0.5146
2697	0.5121
2706	0.5097
2715	0.5072
2724	0.5048
2733	0.5023
2742	0.4999
2751	0.4974
2760	0.4948
2769	0.4922
2778	0.4896
2787	0.487
2796	0.4845
2805	0.4818
2814	0.4788
2823	0.4756
2832	0.4725
2841	0.4693
2850	0.4662
2859	0.463
2868	0.4597
2877	0.4562
2886	0.453
2895	0.4495
2904	0.4456
2913	0.4416
2922	0.4377
2931	0.4357
2940	0.434
2949	0.4335
2958	0.4332
2967	0.4327
2976	0.4321
2985	0.4312
2994	0.4297
3003	0.4282
3012	0.4264
3021	0.4243
3030	0.4223
3039	0.4203
3048	0.4183
3057	0.4162
3066	0.4144
3075	0.4125
3084	0.4108
3093	0.4091
3102	0.4075
3111	0.4058
3120	0.4041
3129	0.4025
3138	0.4009
3147	0.3995
3156	0.398
3165	0.3964
3174	0.3947
3183	0.3927
3192	0.3907
3201	0.3886
3210	0.3866
3219	0.3846
3228	0.3826
3237	0.3805
3246	0.3784
3255	0.3764
3264	0.3744
3273	0.3723
3282	0.3703
3291	0.3682
3300	0.3662
3309	0.3643
3318	0.3623
3327	0.3603
3336	0.3584
3345	0.3572
3354	0.3559
3363	0.3547
3372	0.3534
3381	0.3521
3390	0.3509
3399	0.3497
3408	0.3484
3417	0.3473
3426	0.346
3435	0.3448
3444	0.3436
3453	0.3424
3462	0.3412
3471	0.3402
3480	0.3391
3489	0.3379
3498	0.3368
3507	0.3356
3516	0.3343
3525	0.3328
3534	0.3312
3543	0.3298
3552	0.3284
3561	0.3268
3570	0.3255
3579	0.324
3588	0.3226
3597	0.321
3606	0.3197
3615	0.3181
3624	0.3165
3633	0.3149
3642	0.3133
3651	0.3117
3660	0.31
3669	0.3083
3678	0.3067
3687	0.3051
3696	0.3037
3705	0.3023
3714	0.3009
3723	0.2993
3732	0.2976
3741	0.2959
3750	0.2941
3759	0.2923
3768	0.2911
3777	0.2901
3786	0.2896
3795	0.2892
