Infrared Spectrum: Benzyl alcohol, m-chloro-Alpha-dichloromethyl-
Formula: C8 H7 Cl3 O
CAS: 27683-61-0
State: LIQUID (NEAT)
Class: COBLENTZ III
Instrument: BECKMAN IR-9 (GRATING)
Instrument parameters: ORDER CHANGES: 670, 1200, 2000 CM^-^1
Sampling: TRANSMISSION
Path length: CAPILLARY
Resolution: 2
Origin: DOW CHEMICAL COMPANY
1/CM	TRANSMITTANCE
401	0.7038
410	0.64
419	0.5931
428	0.5644
437	0.5653
446	0.5013
455	0.5783
464	0.6341
473	0.647
482	0.6407
491	0.7011
500	0.7204
509	0.7309
518	0.7334
527	0.73
536	0.7209
545	0.7099
554	0.7101
563	0.718
572	0.6683
581	0.7328
590	0.7373
599	0.6671
608	0.5883
617	0.579
626	0.6054
635	0.5678
644	0.3801
653	0.6008
662	0.6909
671	0.6533
680	0.2504
689	0.0932
698	0.2082
707	0.5088
716	0.715
725	0.7378
734	0.6176
743	0.6849
752	0.5121
761	0.3381
770	0.2442
779	0.2855
788	0.2325
797	0.091
806	0.3034
815	0.615
824	0.653
833	0.6875
842	0.7693
851	0.7666
860	0.7024
869	0.5971
878	0.5586
887	0.4606
896	0.5811
905	0.6589
914	0.6706
923	0.8061
932	0.8343
941	0.8171
950	0.7377
959	0.7201
968	0.789
977	0.7975
986	0.7979
995	0.7612
1004	0.6672
1013	0.7212
1022	0.6617
1031	0.6068
1040	0.5261
1049	0.4367
1058	0.4027
1067	0.4432
1076	0.3703
1085	0.4434
1094	0.5558
1103	0.4068
1112	0.4908
1121	0.6587
1130	0.7587
1139	0.7873
1148	0.7902
1157	0.7763
1166	0.6708
1175	0.619
1184	0.3794
1193	0.266
1202	0.4148
1211	0.4179
1220	0.4652
1229	0.5114
1238	0.5623
1247	0.6435
1256	0.6851
1265	0.7026
1274	0.6924
1283	0.6145
1292	0.6282
1301	0.6559
1310	0.6685
1319	0.7019
1328	0.7272
1337	0.7436
1346	0.7648
1355	0.7426
1364	0.693
1373	0.6433
1382	0.5937
1391	0.5793
1400	0.6126
1409	0.6152
1418	0.5665
1427	0.3823
1436	0.4192
1445	0.6989
1454	0.7454
1463	0.7064
1472	0.505
1481	0.5204
1490	0.76
1499	0.8216
1508	0.8475
1517	0.8605
1526	0.8662
1535	0.8644
1544	0.855
1553	0.8366
1562	0.7728
1571	0.5801
1580	0.4834
1589	0.6659
1598	0.5051
1607	0.7591
1616	0.8227
1625	0.8435
1634	0.8556
1643	0.8642
1652	0.8689
1661	0.8683
1670	0.8667
1679	0.8585
1688	0.8238
1697	0.7568
1706	0.7269
1715	0.8325
1724	0.8662
1733	0.876
1742	0.877
1751	0.8729
1760	0.8681
1769	0.8651
1778	0.8669
1787	0.8727
1796	0.8764
1805	0.8731
1814	0.8729
1823	0.8772
1832	0.8847
1841	0.8931
1850	0.8954
1859	0.893
1868	0.8864
1877	0.8766
1886	0.8728
1895	0.8796
1904	0.8909
1913	0.8982
1922	0.9
1931	0.8958
1940	0.8806
1949	0.8722
1958	0.8746
1967	0.8874
1976	0.899
1985	0.9027
1994	0.9034
2003	0.9038
2012	0.9047
2021	0.9052
2030	0.9054
2039	0.9055
2048	0.9055
2057	0.9054
2066	0.9052
2075	0.9047
2084	0.9042
2093	0.9034
2102	0.9028
2111	0.9048
2120	0.9076
2129	0.9076
2138	0.9074
2147	0.9071
2156	0.9065
2165	0.9058
2174	0.9048
2183	0.9038
2192	0.9043
2201	0.9046
2210	0.9051
2219	0.905
2228	0.9041
2237	0.9037
2246	0.9041
2255	0.9043
2264	0.9043
2273	0.9042
2282	0.9041
2291	0.904
2300	0.9039
2309	0.9038
2318	0.9039
2327	0.9035
2336	0.9026
2345	0.901
2354	0.9002
2363	0.9022
2372	0.9031
2381	0.8984
2390	0.8914
2399	0.8903
2408	0.8898
2417	0.8894
2426	0.8891
2435	0.8889
2444	0.8889
2453	0.8877
2462	0.8864
2471	0.8858
2480	0.8854
2489	0.8854
2498	0.8853
2507	0.8852
2516	0.8855
2525	0.8865
2534	0.8876
2543	0.8884
2552	0.8893
2561	0.8894
2570	0.8889
2579	0.8877
2588	0.8859
2597	0.883
2606	0.8808
2615	0.88
2624	0.8813
2633	0.8827
2642	0.8819
2651	0.8808
2660	0.8798
2669	0.8787
2678	0.8777
2687	0.8769
2696	0.8765
2705	0.877
2714	0.8781
2723	0.8788
2732	0.8793
2741	0.8785
2750	0.8776
2759	0.8767
2768	0.8759
2777	0.8751
2786	0.8742
2795	0.8738
2804	0.8736
2813	0.8732
2822	0.872
2831	0.8702
2840	0.8661
2849	0.86
2858	0.8526
2867	0.8436
2876	0.834
2885	0.8221
2894	0.8101
2903	0.8011
2912	0.8007
2921	0.8087
2930	0.8185
2939	0.8313
2948	0.8427
2957	0.8488
2966	0.8512
2975	0.8497
2984	0.8323
2993	0.7916
3002	0.7804
3011	0.7895
3020	0.8096
3029	0.8159
3038	0.8178
3047	0.8202
3056	0.8044
3065	0.7779
3074	0.765
3083	0.7824
3092	0.7998
3101	0.8116
3110	0.8193
3119	0.8234
3128	0.8259
3137	0.8239
3146	0.8209
3155	0.8173
3164	0.8123
3173	0.8063
3182	0.7968
3191	0.7877
3200	0.7788
3209	0.7691
3218	0.7599
3227	0.75
3236	0.7373
3245	0.7239
3254	0.7097
3263	0.6943
3272	0.6783
3281	0.663
3290	0.6476
3299	0.6312
3308	0.611
3317	0.5893
3326	0.5674
3335	0.5518
3344	0.5358
3353	0.5179
3362	0.4991
3371	0.4826
3380	0.4697
3389	0.4607
3398	0.4518
3407	0.445
3416	0.4397
3425	0.4352
3434	0.4318
3443	0.4308
3452	0.4337
3461	0.442
3470	0.4513
3479	0.4612
3488	0.4746
3497	0.4906
3506	0.5064
3515	0.517
3524	0.5204
3533	0.5154
3542	0.5043
3551	0.4962
3560	0.4965
3569	0.5016
3578	0.5432
3587	0.6046
3596	0.6999
3605	0.7499
3614	0.7903
3623	0.819
3632	0.826
3641	0.8294
3650	0.8312
3659	0.8326
3668	0.8386
3677	0.8476
3686	0.8577
3695	0.8663
3704	0.8692
3713	0.8704
3722	0.8704
3731	0.87
3740	0.8707
3749	0.8713
3758	0.8719
3767	0.8716
3776	0.8722
3785	0.8725
3794	0.8729
