Infrared Spectrum: 3-Methoxybutyl acrylate
Formula: C 8 H 14 O 3
CAS: 2768-07-2
State: gas
Origin: EPA-IR VAPOR PHASE LIBRARY
1/CM	ABSORBANCE
549.9	0.0018197
559.547	0.0017998
569.193	0.0014536
578.84	0.0014134
588.486	0.001153
598.133	0.0014378
607.779	0.0015774
617.426	0.0016159
627.072	0.0013931
636.719	0.00146
646.365	0.00156089
656.012	0.0022615
665.658	0.00294
675.305	0.0023113
684.951	0.00146406
694.598	0.00102
704.245	0.001
713.891	0.000939
723.538	0.001
733.184	0.001091
742.831	0.001281
752.477	0.0016767
762.124	0.0024374
771.77	0.00347
781.417	0.00486
791.063	0.00804
800.71	0.01357
810.356	0.01727
820.003	0.01395
829.649	0.0098
839.296	0.00745
848.943	0.00664
858.589	0.00683
868.236	0.00753
877.882	0.0077
887.529	0.00702
897.175	0.00634
906.822	0.00642
916.468	0.00685
926.115	0.00749
935.761	0.00952
945.408	0.01505
955.054	0.02348
964.701	0.02943
974.347	0.03034
983.994	0.02988
993.64	0.02257
1003.29	0.01584
1012.93	0.01478
1022.58	0.01734
1032.23	0.0229
1041.87	0.03121
1051.52	0.05261
1061.17	0.07202
1070.81	0.06123
1080.46	0.05646
1090.11	0.06443
1099.75	0.06855
1109.4	0.06567
1119.05	0.05921
1128.69	0.05878
1138.34	0.0664
1147.99	0.07398
1157.63	0.07452
1167.28	0.08692
1176.92	0.15577
1186.57	0.2358
1196.22	0.1808
1205.86	0.08595
1215.51	0.04511
1225.16	0.03279
1234.8	0.0338
1244.45	0.04794
1254.1	0.08033
1263.74	0.09967
1273.39	0.07608
1283.04	0.05309
1292.68	0.05256
1302.33	0.0429
1311.98	0.02253
1321.62	0.01468
1331.27	0.01203
1340.92	0.01312
1350.56	0.01711
1360.21	0.01964
1369.86	0.0219
1379.5	0.02692
1389.15	0.02702
1398.79	0.03477
1408.44	0.0589
1418.09	0.04042
1427.73	0.01734
1437.38	0.01386
1447.03	0.01486
1456.67	0.01736
1466.32	0.01784
1475.97	0.01386
1485.61	0.009
1495.26	0.00603
1504.91	0.0046
1514.55	0.00388
1524.2	0.00346
1533.85	0.00296
1543.49	0.00268
1553.14	0.00251
1562.79	0.0024478
1572.43	0.00249
1582.08	0.00293
1591.73	0.00366
1601.37	0.00493
1611.02	0.00689
1620.67	0.00943
1630.31	0.012
1639.96	0.01205
1649.6	0.007
1659.25	0.00418
1668.9	0.00377
1678.54	0.00442
1688.19	0.00615
1697.84	0.00932
1707.48	0.01479
1717.13	0.02651
1726.78	0.05418
1736.42	0.10649
1746.07	0.13646
1755.72	0.09313
1765.36	0.0407
1775.01	0.0183
1784.66	0.01005
1794.3	0.00669
1803.95	0.00481
1813.6	0.0035
1823.24	0.00277
1832.89	0.0024374
1842.54	0.0022711
1852.18	0.0021454
1861.83	0.0020966
1871.47	0.0020989
1881.12	0.002152
1890.77	0.0021729
1900.41	0.0024222
1910.06	0.00295
1919.71	0.00374
1929.35	0.00402
1939	0.00321
1948.65	0.00262
1958.29	0.0022093
1967.94	0.0019845
1977.59	0.001924
1987.23	0.0018354
1996.88	0.0019021
2006.53	0.0020563
2016.17	0.0021402
2025.82	0.0021683
2035.47	0.0020481
2045.11	0.0019709
2054.76	0.0019152
2064.41	0.0018365
2074.05	0.0018247
2083.7	0.0017293
2093.35	0.0016719
2102.99	0.0015949
2112.64	0.00153313
2122.28	0.0014235
2131.93	0.001344
2141.58	0.001363
2151.22	0.0014124
2160.87	0.001357
2170.52	0.001363
2180.16	0.001279
2189.81	0.001115
2199.46	0.00099
2209.1	0.000956
2218.75	0.000969
2228.4	0.000886
2238.04	0.000835
2247.69	0.000862
2257.34	0.000801
2266.98	0.000794
2276.63	0.000799
2286.28	0.000861
2295.92	0.000902
2305.57	0.000919
2315.22	0.000925
2324.86	0.000914
2334.51	0.000933
2344.16	0.001048
2353.8	0.001145
2363.45	0.001226
2373.09	0.001167
2382.74	0.001052
2392.39	0.000908
2402.03	0.00077
2411.68	0.000717
2421.33	0.000683
2430.97	0.000643
2440.62	0.000557
2450.27	0.000611
2459.91	0.000682
2469.56	0.000698
2479.21	0.000762
2488.85	0.00068
2498.5	0.000653
2508.15	0.000658
2517.79	0.00073
2527.44	0.000684
2537.09	0.000745
2546.73	0.000718
2556.38	0.000756
2566.03	0.000792
2575.67	0.00089
2585.32	0.000957
2594.96	0.001138
2604.61	0.001217
2614.26	0.001329
2623.9	0.001321
2633.55	0.0014239
2643.2	0.0014548
2652.84	0.001734
2662.49	0.0017489
2672.14	0.0017422
2681.78	0.0015897
2691.43	0.00149388
2701.08	0.0013781
2710.72	0.00148275
2720.37	0.0016016
2730.02	0.0017329
2739.66	0.0018927
2749.31	0.0020754
2758.96	0.002278
2768.6	0.00259
2778.25	0.00332
2787.9	0.0045
2797.54	0.00637
2807.19	0.00968
2816.84	0.01652
2826.48	0.02537
2836.13	0.02428
2845.77	0.01832
2855.42	0.01838
2865.07	0.02192
2874.71	0.02483
2884.36	0.02719
2894.01	0.0284
2903.65	0.03097
2913.3	0.03538
2922.95	0.04126
2932.59	0.04628
2942.24	0.0464
2951.89	0.04257
2961.53	0.04341
2971.18	0.05679
2980.83	0.06846
2990.47	0.05281
3000.12	0.02927
3009.77	0.01565
3019.41	0.00984
3029.06	0.00788
3038.71	0.00783
3048.35	0.00687
3058	0.00469
3067.64	0.00376
3077.29	0.00369
3086.94	0.00328
3096.58	0.00351
3106.23	0.00538
3115.88	0.00468
3125.52	0.0016707
3135.17	0.001053
3144.82	0.000995
3154.46	0.000908
3164.11	0.00053
3173.76	0.000561
3183.4	0.00046
3193.05	0.000494
3202.7	0.00043
3212.34	0.00028
3221.99	0.00017
3231.64	0.00027
3241.28	0.00026
3250.93	9e-05
3260.58	0.00016
3270.22	0.00018
3279.87	0.00018
3289.52	0.0001
3299.16	0.00016
3308.81	0.000492
3318.45	0.00042
3328.1	0.00031
3337.75	0.00045
3347.39	0.00038
3357.04	0.00043
3366.69	0.00023
3376.33	0.00046
3385.98	0.000578
3395.63	0.000536
3405.27	0.00044
3414.92	0.000666
3424.57	0.000569
3434.21	0.000656
3443.86	0.000902
3453.51	0.001219
3463.15	0.0016899
3472.8	0.0021362
3482.45	0.001653
3492.09	0.001188
3501.74	0.000758
3511.39	0.000735
3521.03	0.00067
3530.68	0.000529
3540.33	0.00059
3549.97	0.00027
3559.62	0.00044
3569.26	0.000715
3578.91	0.00044
3588.56	0.000542
3598.2	0.000601
3607.85	0.00044
3617.5	0.000515
3627.14	0.000607
3636.79	0.000611
3646.44	0.000518
3656.08	0.00046
3665.73	0.000614
3675.38	0.000599
3685.02	0.000567
3694.67	0.000493
3704.32	0.000528
3713.96	0.000673
3723.61	0.000504
3733.26	0.00066
3742.9	0.000586
3752.55	0.000616
3762.2	0.000611
3771.84	0.000669
3781.49	0.00037
3791.13	0.000523
3800.78	0.000685
3810.43	0.000686
3820.07	0.00043
3829.72	0.000594
3839.37	0.000558
3849.01	0.00057
3858.66	0.000666
3868.31	0.000638
3877.95	0.000856
3887.6	0.000736
3897.25	0.000803
3906.89	0.000718
3916.54	0.000928
3926.19	0.000811
3935.83	0.000869
3945.48	0.000774
3955.13	0.000957
3964.77	0.000991
3974.42	0.001122
3984.07	0.001115
3993.71	0.001159
