Infrared Spectrum: 2,2'-SULFINYLDI-p-CRESOL
Formula: C14 H14 O3 S
CAS: 27725-15-1
State: SOLID (NUJOL MULL)
Class: COBLENTZ
Instrument: Not specified, most likely a prism, grating, or hybrid spectrometer.
Sampling: TRANSMISSION
Resolution: 4
Origin: TENNESSEE EASTMAN COMPANY, RESEARCH LABORATORIES
MICROMETERS	TRANSMITTANCE
2	0.765
2.04002	0.77
2.08004	0.775
2.12006	0.782
2.16008	0.783
2.2001	0.79
2.24012	0.797
2.28013	0.798
2.32015	0.798
2.36017	0.797
2.40019	0.802
2.44021	0.805
2.48023	0.812
2.52025	0.822
2.56027	0.84
2.60029	0.849
2.64031	0.844
2.68033	0.857
2.72035	0.85
2.76036	0.854
2.80038	0.849
2.8404	0.847
2.88042	0.844
2.92044	0.839
2.96046	0.832
3.00048	0.819
3.0405	0.809
3.08052	0.787
3.12054	0.748
3.16056	0.676
3.20058	0.613
3.24059	0.567
3.28061	0.542
3.32063	0.557
3.36065	0.475
3.40067	0.182
3.44069	0.14
3.48071	0.329
3.52073	0.368
3.56075	0.693
3.60077	0.748
3.64079	0.748
3.68081	0.765
3.72082	0.753
3.76084	0.77
3.80086	0.792
3.84088	0.798
3.8809	0.817
3.92092	0.809
3.96094	0.809
4.00096	0.845
4.04098	0.854
4.081	0.857
4.12102	0.864
4.16104	0.865
4.20105	0.871
4.24107	0.901
4.28109	0.904
4.32111	0.899
4.36113	0.891
4.40115	0.899
4.44117	0.902
4.48119	0.906
4.52121	0.909
4.56123	0.911
4.60125	0.914
4.64127	0.917
4.68128	0.919
4.7213	0.919
4.76132	0.922
4.80134	0.926
4.84136	0.926
4.88138	0.926
4.9214	0.927
4.96142	0.927
5.00144	0.932
5.04146	0.934
5.08148	0.932
5.1215	0.932
5.16151	0.931
5.20153	0.932
5.24155	0.922
5.28157	0.924
5.32159	0.926
5.36161	0.936
5.40163	0.938
5.44165	0.936
5.48167	0.934
5.52169	0.941
5.56171	0.944
5.60173	0.943
5.64174	0.943
5.68176	0.936
5.72178	0.936
5.7618	0.936
5.80182	0.938
5.84184	0.939
5.88186	0.938
5.92188	0.929
5.9619	0.932
6.00192	0.932
6.04194	0.931
6.08196	0.927
6.12197	0.927
6.16199	0.929
6.20201	0.874
6.24203	0.822
6.28205	0.824
6.32207	0.864
6.36209	0.886
6.40211	0.902
6.44213	0.906
6.48215	0.911
6.52217	0.909
6.56219	0.899
6.6022	0.79
6.64222	0.638
6.68224	0.752
6.72226	0.767
6.76228	0.743
6.8023	0.562
6.84232	0.525
6.88234	0.532
6.92236	0.633
6.96238	0.71
7.0024	0.731
7.04242	0.661
7.08243	0.666
7.12245	0.765
7.16247	0.8
7.20249	0.79
7.24251	0.68
7.28253	0.649
7.32255	0.666
7.36257	0.658
7.40259	0.72
7.44261	0.788
7.48263	0.829
7.52265	0.857
7.56266	0.871
7.60268	0.876
7.6427	0.874
7.68272	0.865
7.72274	0.743
7.76276	0.591
7.80278	0.705
7.8428	0.772
7.88282	0.797
7.92284	0.695
7.96286	0.787
8.00288	0.849
8.04289	0.849
8.08291	0.832
8.12293	0.753
8.16295	0.752
8.20297	0.832
8.24299	0.837
8.28301	0.792
8.32303	0.817
8.36305	0.857
8.40307	0.882
8.44309	0.897
8.48311	0.911
8.52312	0.906
8.56314	0.907
8.60316	0.911
8.64318	0.912
8.6832	0.901
8.72322	0.772
8.76324	0.785
8.80326	0.859
8.84328	0.887
8.8833	0.907
8.92332	0.916
8.96334	0.921
9.00335	0.922
9.04337	0.926
9.08339	0.927
9.12341	0.929
9.16343	0.929
9.20345	0.929
9.24347	0.931
9.28349	0.929
9.32351	0.922
9.36353	0.886
9.40355	0.814
9.44357	0.847
9.48358	0.854
9.5236	0.882
9.56362	0.896
9.60364	0.899
9.64366	0.907
9.68368	0.914
9.7237	0.921
9.76372	0.924
9.80374	0.927
9.84376	0.931
9.88378	0.931
9.9238	0.931
9.96381	0.927
10.0038	0.924
10.0439	0.924
10.0839	0.922
10.1239	0.922
10.1639	0.921
10.2039	0.912
10.2439	0.896
10.284	0.857
10.324	0.802
10.364	0.7
10.404	0.609
10.444	0.544
10.4841	0.577
10.5241	0.534
10.5641	0.417
10.6041	0.381
10.6441	0.51
10.6842	0.658
10.7242	0.755
10.7642	0.819
10.8042	0.859
10.8442	0.871
10.8843	0.877
10.9243	0.891
10.9643	0.901
11.0043	0.912
11.0443	0.919
11.0844	0.929
11.1244	0.931
11.1644	0.932
11.2044	0.927
11.2444	0.884
11.2844	0.827
11.3245	0.81
11.3645	0.844
11.4045	0.867
11.4445	0.907
11.4845	0.926
11.5246	0.934
11.5646	0.939
11.6046	0.943
11.6446	0.943
11.6846	0.943
11.7247	0.941
11.7647	0.939
11.8047	0.938
11.8447	0.936
11.8847	0.929
11.9248	0.916
11.9648	0.882
12.0048	0.783
12.0448	0.654
12.0848	0.676
12.1249	0.76
12.1649	0.793
12.2049	0.859
12.2449	0.879
12.2849	0.896
12.3249	0.904
12.365	0.906
12.405	0.906
12.445	0.904
12.485	0.902
12.525	0.897
12.5651	0.887
12.6051	0.874
12.6451	0.857
12.6851	0.842
12.7251	0.825
12.7652	0.829
12.8052	0.849
12.8452	0.859
12.8852	0.864
12.9252	0.86
12.9653	0.854
13.0053	0.847
13.0453	0.837
13.0853	0.824
13.1253	0.819
13.1653	0.819
13.2054	0.82
13.2454	0.819
13.2854	0.82
13.3254	0.82
13.3654	0.82
13.4055	0.817
13.4455	0.81
13.4855	0.805
13.5255	0.798
13.5655	0.793
13.6056	0.79
13.6456	0.788
13.6856	0.79
13.7256	0.793
13.7656	0.792
13.8057	0.775
13.8457	0.763
13.8857	0.757
13.9257	0.745
13.9657	0.743
14.0058	0.747
14.0458	0.752
14.0858	0.76
14.1258	0.768
14.1658	0.775
14.2058	0.78
14.2459	0.785
14.2859	0.787
14.3259	0.788
14.3659	0.792
14.4059	0.792
14.446	0.79
14.486	0.787
14.526	0.78
14.566	0.773
14.606	0.77
14.6461	0.77
14.6861	0.77
14.7261	0.765
14.7661	0.745
14.8061	0.75
14.8462	0.767
14.8862	0.767
14.9262	0.765
14.9662	0.765
15.0062	0.765
15.0462	0.763
15.0863	0.758
15.1263	0.75
15.1663	0.743
15.2063	0.742
15.2463	0.74
15.2864	0.737
15.3264	0.733
15.3664	0.733
15.4064	0.73
15.4464	0.726
15.4865	0.725
15.5265	0.721
15.5665	0.718
15.6065	0.715
15.6465	0.713
15.6866	0.708
15.7266	0.706
15.7666	0.706
15.8066	0.706
15.8466	0.705
15.8867	0.705
15.9267	0.705
15.9667	0.706
