Infrared Spectrum: Benzylidenimine, N-cyclopentyl-,
Formula: C12 H15 N
CAS: 27721-47-7
State: LIQUID (NEAT)
Class: COBLENTZ III
Instrument: PERKIN-ELMER 21 (GRATING)
Instrument parameters: FILTER AT ABOUT 10 MICRONS
Path length: CAPILLARY
Resolution: 2
Origin: ABBOTT LABORATORIES
1/CM	TRANSMITTANCE
666	0.7199
675	0.7437
684	0.6284
693	0.0965
702	0.6948
711	0.8088
720	0.8205
729	0.8088
738	0.735
747	0.447
756	0.1709
765	0.6513
774	0.817
783	0.8522
792	0.8593
801	0.8607
810	0.8625
819	0.8625
828	0.8585
837	0.8393
846	0.8203
855	0.8255
864	0.8318
873	0.8068
882	0.7813
891	0.7388
900	0.7664
909	0.807
918	0.8057
927	0.7805
936	0.7596
945	0.8051
954	0.8149
963	0.6895
972	0.7142
981	0.7843
990	0.7288
999	0.655
1008	0.7409
1017	0.73
1026	0.7403
1035	0.8037
1044	0.7906
1053	0.7382
1062	0.6864
1071	0.7115
1080	0.7797
1089	0.8287
1098	0.848
1107	0.8603
1116	0.864
1125	0.8635
1134	0.855
1143	0.8329
1152	0.7747
1161	0.7154
1170	0.6797
1179	0.703
1188	0.7925
1197	0.7942
1206	0.748
1215	0.6847
1224	0.8007
1233	0.8356
1242	0.8379
1251	0.8337
1260	0.8232
1269	0.8025
1278	0.7526
1287	0.6406
1296	0.6012
1305	0.4693
1314	0.6296
1323	0.6885
1332	0.6269
1341	0.7359
1350	0.8099
1359	0.7981
1368	0.7311
1377	0.5347
1386	0.5666
1395	0.7821
1404	0.8177
1413	0.8191
1422	0.8077
1431	0.7397
1440	0.5745
1449	0.3654
1458	0.7509
1467	0.7594
1476	0.7524
1485	0.7183
1494	0.7569
1503	0.8351
1512	0.8563
1521	0.861
1530	0.8622
1539	0.8631
1548	0.8622
1557	0.856
1566	0.8339
1575	0.733
1584	0.6024
1593	0.8126
1602	0.7991
1611	0.7992
1620	0.7655
1629	0.7024
1638	0.4509
1647	0.1241
1656	0.6808
1665	0.7535
1674	0.8167
1683	0.8454
1692	0.8558
1701	0.8607
1710	0.8655
1719	0.8698
1728	0.8695
1737	0.8674
1746	0.865
1755	0.8643
1764	0.8669
1773	0.8714
1782	0.8778
1791	0.877
1800	0.8653
1809	0.8531
1818	0.8506
1827	0.8627
1836	0.8764
1845	0.8848
1854	0.8836
1863	0.8752
1872	0.8629
1881	0.86
1890	0.8593
1899	0.8648
1908	0.8717
1917	0.8724
1926	0.864
1935	0.8546
1944	0.8479
1953	0.8481
1962	0.853
1971	0.8641
1980	0.8724
1989	0.8787
1998	0.8836
2007	0.8861
2016	0.8874
2025	0.8882
2034	0.8886
2043	0.8885
2052	0.8882
2061	0.8878
2070	0.8875
2079	0.8871
2088	0.8868
2097	0.8864
2106	0.886
2115	0.8856
2124	0.8853
2133	0.8849
2142	0.8845
2151	0.8841
2160	0.8837
2169	0.8832
2178	0.8826
2187	0.8822
2196	0.8817
2205	0.8812
2214	0.8805
2223	0.8798
2232	0.8792
2241	0.8785
2250	0.8779
2259	0.8781
2268	0.8783
2277	0.8786
2286	0.8784
2295	0.8772
2304	0.876
2313	0.8744
2322	0.8728
2331	0.8719
2340	0.8723
2349	0.8727
2358	0.873
2367	0.874
2376	0.8754
2385	0.8768
2394	0.8782
2403	0.8778
2412	0.877
2421	0.8761
2430	0.8751
2439	0.8742
2448	0.8737
2457	0.8732
2466	0.8727
2475	0.8722
2484	0.8717
2493	0.8713
2502	0.8705
2511	0.8683
2520	0.8661
2529	0.8639
2538	0.8619
2547	0.8601
2556	0.8584
2565	0.8568
2574	0.8551
2583	0.8548
2592	0.8556
2601	0.8564
2610	0.8575
2619	0.859
2628	0.8605
2637	0.8611
2646	0.8613
2655	0.8589
2664	0.8563
2673	0.8525
2682	0.848
2691	0.8413
2700	0.8334
2709	0.8242
2718	0.8137
2727	0.8017
2736	0.7914
2745	0.7864
2754	0.7847
2763	0.7843
2772	0.7804
2781	0.767
2790	0.7338
2799	0.7062
2808	0.635
2817	0.5612
2826	0.488
2835	0.4152
2844	0.3429
2853	0.2779
2862	0.2744
2871	0.3212
2880	0.4173
2889	0.4318
2898	0.3935
2907	0.3502
2916	0.3073
2925	0.2646
2934	0.2222
2943	0.1817
2952	0.174
2961	0.1883
2970	0.3318
2979	0.49
2988	0.6376
2997	0.6713
3006	0.673
3015	0.6728
3024	0.6791
3033	0.6974
3042	0.7005
3051	0.701
3060	0.7144
3069	0.7474
3078	0.7803
3087	0.8128
3096	0.8379
3105	0.8559
3114	0.8638
3123	0.867
3132	0.869
3141	0.8698
3150	0.8701
3159	0.8705
3168	0.8709
3177	0.8715
3186	0.8721
3195	0.8727
3204	0.8731
3213	0.8729
3222	0.8719
3231	0.8701
3240	0.8677
3249	0.8659
3258	0.8663
3267	0.8691
3276	0.8714
3285	0.8736
3294	0.8749
3303	0.8754
3312	0.875
3321	0.874
3330	0.8728
3339	0.8718
3348	0.8713
3357	0.8708
3366	0.8703
3375	0.8698
3384	0.8696
3393	0.8694
3402	0.8692
3411	0.869
3420	0.8693
3429	0.8703
3438	0.8714
3447	0.8725
3456	0.8737
3465	0.875
3474	0.8763
3483	0.8776
3492	0.8789
3501	0.8801
3510	0.8804
3519	0.8808
3528	0.881
3537	0.8813
3546	0.8813
3555	0.8812
3564	0.8812
3573	0.8811
3582	0.8811
3591	0.8809
3600	0.8807
3609	0.8804
3618	0.8802
3627	0.88
3636	0.8798
3645	0.8795
3654	0.8794
3663	0.8793
3672	0.8791
3681	0.8791
3690	0.879
3699	0.8789
3708	0.8788
3717	0.8791
3726	0.88
3735	0.8808
3744	0.8817
3753	0.8825
3762	0.8828
3771	0.883
3780	0.8831
3789	0.8833
3798	0.8834
3807	0.8834
3816	0.8833
3825	0.8831
3834	0.883
3843	0.8828
3852	0.8827
3861	0.8825
3870	0.8824
3879	0.8823
3888	0.8822
3897	0.8821
3906	0.882
3915	0.8819
3924	0.8818
3933	0.8816
3942	0.8816
3951	0.8814
3960	0.8813
3969	0.8812
3978	0.8811
3987	0.8811
3996	0.881
