Infrared Spectrum: 3,4-Methylenedioxybenzylideneaniline
Formula: C 14 H 11 N O 2
CAS: 27738-39-2
State: gas
Origin: EPA-IR VAPOR PHASE LIBRARY
1/CM	ABSORBANCE
549.8	0.001548
559.445	0.0010517
569.09	0.0007104
578.734	0.001268
588.379	0.002298
598.024	0.005028
607.669	0.008528
617.313	0.006018
626.958	0.003138
636.603	0.002898
646.248	0.003418
655.893	0.003248
665.537	0.004938
675.182	0.008798
684.827	0.016148
694.472	0.020468
704.116	0.013118
713.761	0.008548
723.406	0.007828
733.051	0.006408
742.695	0.011248
752.34	0.021188
761.985	0.018118
771.63	0.009778
781.275	0.008788
790.919	0.012718
800.564	0.023068
810.209	0.032728
819.854	0.023348
829.498	0.011598
839.143	0.009178
848.788	0.016678
858.433	0.022608
868.078	0.011128
877.722	0.009228
887.367	0.008068
897.012	0.008448
906.657	0.008338
916.301	0.009828
925.946	0.017258
935.591	0.027978
945.236	0.029538
954.88	0.018588
964.525	0.012588
974.17	0.008728
983.815	0.005298
993.46	0.005348
1003.1	0.008028
1012.75	0.012518
1022.39	0.024848
1032.04	0.036798
1041.68	0.061838
1051.33	0.073548
1060.97	0.046968
1070.62	0.024828
1080.26	0.020588
1089.91	0.024928
1099.55	0.026998
1109.2	0.020268
1118.84	0.013498
1128.49	0.010408
1138.13	0.006828
1147.78	0.004288
1157.42	0.004228
1167.07	0.010498
1176.71	0.008108
1186.36	0.011788
1196	0.024788
1205.64	0.085458
1215.29	0.076238
1224.93	0.048708
1234.58	0.064968
1244.22	0.128428
1253.87	0.213448
1263.51	0.082988
1273.16	0.035758
1282.8	0.016308
1292.45	0.011058
1302.09	0.009088
1311.74	0.008798
1321.38	0.010518
1331.03	0.018278
1340.67	0.040808
1350.32	0.023818
1359.96	0.013638
1369.61	0.014128
1379.25	0.014318
1388.9	0.010108
1398.54	0.008008
1408.18	0.009948
1417.83	0.016008
1427.47	0.028098
1437.12	0.077758
1446.76	0.150728
1456.41	0.063668
1466.05	0.033998
1475.7	0.055098
1485.34	0.111778
1494.99	0.127648
1504.63	0.063208
1514.28	0.034308
1523.92	0.011438
1533.57	0.008068
1543.21	0.006698
1552.86	0.006228
1562.5	0.007868
1572.15	0.015798
1581.79	0.044078
1591.44	0.085148
1601.08	0.063888
1610.73	0.047098
1620.37	0.034708
1630.01	0.075978
1639.66	0.064358
1649.3	0.018678
1658.95	0.009738
1668.59	0.006588
1678.24	0.004878
1687.88	0.004688
1697.53	0.005408
1707.17	0.006728
1716.82	0.005768
1726.46	0.004458
1736.11	0.003588
1745.75	0.003628
1755.4	0.003978
1765.04	0.003738
1774.69	0.003978
1784.33	0.003578
1793.98	0.002718
1803.62	0.002528
1813.27	0.002388
1822.91	0.002828
1832.55	0.003328
1842.2	0.003188
1851.84	0.003478
1861.49	0.003968
1871.13	0.004838
1880.78	0.004298
1890.42	0.003168
1900.07	0.002468
1909.71	0.002438
1919.36	0.002968
1929	0.003538
1938.65	0.003328
1948.29	0.003038
1957.94	0.001618
1967.58	0.001228
1977.23	0.001348
1986.87	0.001468
1996.52	0.001568
2006.16	0.001738
2015.81	0.002468
2025.45	0.002918
2035.1	0.002918
2044.74	0.002978
2054.38	0.002878
2064.03	0.002658
2073.67	0.002158
2083.32	0.001618
2092.96	0.001378
2102.61	0.0010718
2112.25	0.0008852
2121.9	0.0008785
2131.54	0.0009035
2141.19	0.0007985
2150.83	0.0008355
2160.48	0.0008803
2170.12	0.0007741
2179.77	0.0010657
2189.41	0.0010264
2199.06	0.001228
2208.7	0.0010247
2218.35	0.0011276
2227.99	0.001248
2237.64	0.0010658
2247.28	0.0009895
2256.92	0.0010857
2266.57	0.0010267
2276.21	0.0009986
2285.86	0.000943
2295.5	0.0011063
2305.15	0.001338
2314.79	0.001268
2324.44	0.0010861
2334.08	0.0010688
2343.73	0.0009717
2353.37	0.0008412
2363.02	0.0009359
2372.66	0.0011283
2382.31	0.0009979
2391.95	0.0009893
2401.6	0.0009953
2411.24	0.0011573
2420.89	0.001288
2430.53	0.001248
2440.18	0.001248
2449.82	0.0011793
2459.47	0.0011064
2469.11	0.0008834
2478.75	0.0009125
2488.4	0.000819
2498.04	0.0008642
2507.69	0.0010877
2517.33	0.0011876
2526.98	0.001468
2536.62	0.001618
2546.27	0.001768
2555.91	0.001788
2565.56	0.001898
2575.2	0.001918
2584.85	0.002218
2594.49	0.002428
2604.14	0.001858
2613.78	0.001658
2623.43	0.001568
2633.07	0.001708
2642.72	0.001538
2652.36	0.001338
2662.01	0.001518
2671.65	0.001788
2681.29	0.002008
2690.94	0.002148
2700.58	0.002158
2710.23	0.001778
2719.87	0.001738
2729.52	0.001848
2739.16	0.002168
2748.81	0.002638
2758.45	0.003658
2768.1	0.005998
2777.74	0.009068
2787.39	0.004978
2797.03	0.003338
2806.68	0.003388
2816.32	0.004048
2825.97	0.005068
2835.61	0.006858
2845.26	0.010078
2854.9	0.015898
2864.55	0.024598
2874.19	0.030508
2883.84	0.029398
2893.48	0.025118
2903.12	0.021628
2912.77	0.021428
2922.41	0.022198
2932.06	0.018398
2941.7	0.015498
2951.35	0.015248
2960.99	0.013108
2970.64	0.009568
2980.28	0.007538
2989.93	0.007228
2999.57	0.008728
3009.22	0.011598
3018.86	0.016768
3028.51	0.018228
3038.15	0.017488
3047.8	0.012228
3057.44	0.013058
3067.09	0.025138
3076.73	0.027338
3086.38	0.020298
3096.02	0.012018
3105.67	0.005688
3115.31	0.002618
3124.95	0.001598
3134.6	0.0010098
3144.24	0.0007441
3153.89	0.0008873
3163.53	0.0007838
3173.18	0.0007501
3182.82	0.0007829
3192.47	0.0007723
3202.11	0.001047
3211.76	0.0011808
3221.4	0.001298
3231.05	0.0010933
3240.69	0.0010827
3250.34	0.001288
3259.98	0.0011594
3269.63	0.0009312
3279.27	0.0003762
3288.92	0.0004705
3298.56	0.00029204
3308.21	0.00029348
3317.85	0.00028662
3327.49	0.000135
3337.14	0.0002392
3346.78	0.0001337
3356.43	0.00023461
3366.07	0.000388
3375.72	0.000223702
3385.36	0.0003298
3395.01	0.00025768
3404.65	4.4e-05
3414.3	9.6e-05
3423.94	0.000119
3433.59	0.00027168
3443.23	0.00023573
3452.88	0.0001383
3462.52	0.00023582
3472.17	0.00023642
3481.81	0.0002345
3491.46	0.00022852
3501.1	0.0002967
3510.75	1e-06
3520.39	0.0003301
3530.04	8.8e-05
3539.68	0.000224198
3549.32	0.0003405
3558.97	0.00021485
3568.61	0.000127
3578.26	1.5e-05
3587.9	0.0003588
3597.55	0.0004075
3607.19	0.00027645
3616.84	0.00025838
3626.48	0.0001678
3636.13	0.000167
3645.77	0.0004125
3655.42	0.0003701
3665.06	0.0003916
3674.71	0.000221874
3684.35	0.00031344
3694	0.0003637
3703.64	0.0004695
3713.29	0.0003415
3722.93	0.000351
3732.58	0.0003273
3742.22	0.0003358
3751.86	0.00029366
3761.51	0.00028538
3771.15	0.0003258
3780.8	0.0003266
3790.44	0.00026374
3800.09	0.0001811
3809.73	0.00028466
3819.38	0.0003432
3829.02	0.0004372
3838.67	0.00030904
3848.31	0.00031785
3857.96	0.000341
3867.6	0.0003618
3877.25	0.0003446
3886.89	0.0004579
3896.54	0.0004244
3906.18	0.0004246
3915.83	0.0004921
3925.47	0.000461
3935.12	0.0006314
3944.76	0.0005149
3954.41	0.0004961
3964.05	0.0003557
3973.69	0.0004831
3983.34	0.000657
3992.98	0.0004245
