Infrared Spectrum: 10-Undecyn-1-ol
Formula: C 11 H 20 O
CAS: 2774-84-7
State: gas
Instrument: HP-GC/MS/IRD
Origin: NIST Mass Spectrometry Data Center
1/CM	ABSORBANCE
550	0.0008077
562	0.0002255
574	0.0001763
586	0.0003075
598	0.0007421
610	0.0022099
622	0.0071135
634	0.0177038
646	0.0072078
658	0.0017917
670	0.0005658
682	0.0002337
694	0.0001845
706	0.0002993
718	0.0004879
730	0.0004674
742	0.0002788
754	0.0002009
766	7.38e-05
778	2.46e-05
790	0.0001107
802	9.84e-05
814	9.02e-05
826	0.0001599
838	0.0001722
850	0.0002173
862	0.0003321
874	0.0003362
886	0.0004182
898	0.0005289
910	0.0005904
922	0.0005986
934	0.0006847
946	0.0008774
958	0.0011685
970	0.001476
982	0.0017917
994	0.0022017
1006	0.0028413
1018	0.0040672
1030	0.0057564
1042	0.0068306
1054	0.0064985
1066	0.0047765
1078	0.0033866
1090	0.0023575
1102	0.0015252
1114	0.0010045
1126	0.0008528
1138	0.0007913
1150	0.0008241
1162	0.00082
1174	0.0008774
1186	0.0010537
1198	0.0011521
1210	0.0013325
1222	0.0017507
1234	0.0028987
1246	0.0054694
1258	0.0038376
1270	0.0021771
1282	0.0017548
1294	0.0016154
1306	0.0016154
1318	0.001722
1330	0.0018532
1342	0.0020254
1354	0.0021976
1366	0.0020418
1378	0.0020254
1390	0.0019516
1402	0.0014022
1414	0.0010988
1426	0.0013735
1438	0.0024067
1450	0.0028864
1462	0.0030545
1474	0.0020049
1486	0.0009676
1498	0.0004551
1510	0.0002911
1522	0.0001804
1534	0.0001353
1546	0.0001066
1558	9.43e-05
1570	5.74e-05
1582	5.33e-05
1594	2.46e-05
1606	1.64e-05
1618	2.87e-05
1630	2.05e-05
1642	0
1654	1.64e-05
1666	2.46e-05
1678	0
1690	4.1e-05
1702	3.28e-05
1714	2.46e-05
1726	3.69e-05
1738	3.69e-05
1750	5.74e-05
1762	4.1e-05
1774	5.74e-05
1786	5.74e-05
1798	3.28e-05
1810	6.15e-05
1822	3.69e-05
1834	4.92e-05
1846	5.33e-05
1858	5.74e-05
1870	6.15e-05
1882	5.74e-05
1894	6.15e-05
1906	5.33e-05
1918	6.15e-05
1930	3.28e-05
1942	8.2e-05
1954	6.56e-05
1966	7.79e-05
1978	6.56e-05
1990	9.02e-05
2002	7.79e-05
2014	0.0001148
2026	0.0001476
2038	0.0001517
2050	0.0001599
2062	0.0001681
2074	0.0001804
2086	0.0002091
2098	0.0004264
2110	0.0007503
2122	0.0008692
2134	0.0003649
2146	0.0001271
2158	0.0001025
2170	8.61e-05
2182	7.38e-05
2194	7.38e-05
2206	6.97e-05
2218	7.79e-05
2230	6.56e-05
2242	3.28e-05
2254	4.51e-05
2266	7.38e-05
2278	4.51e-05
2290	5.74e-05
2302	6.97e-05
2314	7.38e-05
2326	7.79e-05
2338	7.79e-05
2350	7.38e-05
2362	6.97e-05
2374	6.15e-05
2386	7.79e-05
2398	6.56e-05
2410	6.56e-05
2422	8.2e-05
2434	8.2e-05
2446	7.79e-05
2458	6.56e-05
2470	6.15e-05
2482	6.56e-05
2494	8.2e-05
2506	7.38e-05
2518	8.2e-05
2530	0.0001066
2542	0.0001025
2554	0.0001271
2566	0.0001107
2578	0.0001312
2590	0.0001599
2602	0.0002132
2614	0.0002214
2626	0.0002542
2638	0.0003403
2650	0.0003608
2662	0.0004387
2674	0.0005166
2686	0.0005822
2698	0.0005863
2710	0.0005371
2722	0.0005535
2734	0.0006068
2746	0.0006642
2758	0.0007544
2770	0.0008405
2782	0.0009758
2794	0.0011644
2806	0.0014514
2818	0.0019434
2830	0.0027675
2842	0.0047888
2854	0.0102377
2866	0.0155964
2878	0.0131446
2890	0.0105821
2902	0.0124968
2914	0.0194832
2926	0.0322465
2938	0.041
2950	0.0285852
2962	0.0127141
2974	0.0057687
2986	0.0030012
2998	0.0017958
3010	0.0012013
3022	0.0008405
3034	0.0006724
3046	0.0004797
3058	0.0003649
3070	0.000287
3082	0.0002337
3094	0.0002214
3106	0.0001681
3118	0.0001435
3130	0.0001394
3142	0.0001271
3154	0.0001066
3166	9.02e-05
3178	6.56e-05
3190	6.15e-05
3202	4.1e-05
3214	5.74e-05
3226	6.97e-05
3238	0.0001312
3250	0.0001763
3262	0.0002788
3274	0.0004715
3286	0.0010332
3298	0.001722
3310	0.0033333
3322	0.0051783
3334	0.0052767
3346	0.0015662
3358	0.0008159
3370	0.0003198
3382	0.0001353
3394	0.0001353
3406	0.0001025
3418	4.92e-05
3430	7.79e-05
3442	4.92e-05
3454	9.02e-05
3466	6.56e-05
3478	7.79e-05
3490	0.0001312
3502	7.38e-05
3514	7.79e-05
3526	3.69e-05
3538	9.02e-05
3550	3.28e-05
3562	6.15e-05
3574	6.15e-05
3586	9.02e-05
3598	0.0001599
3610	0.0002091
3622	0.0002624
3634	0.0004797
3646	0.0008405
3658	0.0015457
3670	0.0019106
3682	0.001189
3694	0.0005453
3706	0.0002747
3718	0.0002255
3730	0.0001845
3742	0.0001722
3754	0.000123
3766	0.0001148
3778	9.84e-05
3790	0.0001312
3802	0.0001517
3814	0.0001394
3826	0.0001476
3838	0.0001476
