Infrared Spectrum: PHOSPHORAMIDOTHIOIC ACID, O-ETHYL-O-(2,4,5-TRICHLOROPHENYL) ESTER
Formula: C8 H9 Cl3 N O2 P S
CAS: 2775-95-3
State: SOLUTION (10% CCl4 FOR 3800-1333, 10% CS2 FOR 1333-450 CM^-^1)
Class: COBLENTZ III
Instrument: Not specified, most likely a prism, grating, or hybrid spectrometer.
Sampling: TRANSMISSION
Path length: 0.012 CM, 0.010 CM
Resolution: 4
Origin: DOW CHEMICAL COMPANY
1/CM	TRANSMITTANCE
450.913	0.705
460.045	0.755
469.178	0.765
478.31	0.767
487.443	0.822
496.575	0.874
505.708	0.906
514.84	0.911
523.973	0.879
533.105	0.849
542.238	0.849
551.37	0.845
560.503	0.765
569.635	0.856
578.767	0.93
587.9	0.946
597.032	0.95
606.165	0.932
615.297	0.874
624.43	0.781
633.562	0.632
642.695	0.6307
651.827	0.785
660.96	0.831
670.092	0.79
679.224	0.257
688.357	0.4113
697.489	0.8099
706.622	0.7441
715.754	0.39
724.887	0.537
734.019	0.8149
743.152	0.872
752.284	0.868
761.417	0.824
770.549	0.698
779.682	0.4821
788.814	0.397
797.946	0.43
807.079	0.56
816.211	0.57
825.344	0.3282
834.476	0.069
843.609	0.115
852.741	0.313
861.874	0.397
871.006	0.549
880.139	0.1561
889.271	0.4449
898.404	0.712
907.536	0.6399
916.668	0.4202
925.801	0.1801
934.933	0.184
944.066	0.157
953.198	0.021
962.331	0.051
971.463	0.14
980.596	0.106
989.728	0.15
998.861	0.3591
1007.99	0.547
1017.13	0.514
1026.26	0.2461
1035.39	0.035
1044.52	0.06
1053.66	0.2597
1062.79	0.5418
1071.92	0.595
1081.05	0.085
1090.19	0.3901
1099.32	0.608
1108.45	0.7529
1117.58	0.638
1126.71	0.287
1135.85	0.6711
1144.98	0.8379
1154.11	0.794
1163.24	0.721
1172.38	0.858
1181.51	0.925
1190.64	0.96
1199.77	0.962
1208.91	0.953
1218.04	0.902
1227.17	0.7549
1236.3	0.6041
1245.44	0.246
1254.57	0.372
1263.7	0.721
1272.83	0.868
1281.97	0.911
1291.1	0.907
1300.23	0.923
1309.36	0.937
1318.5	0.943
1327.63	0.921
1336.76	0.87
1345.89	0.244
1355.03	0.4041
1364.16	0.874
1373.29	0.874
1382.42	0.87
1391.56	0.707
1400.69	0.89
1409.82	0.898
1418.95	0.895
1428.09	0.877
1437.22	0.769
1446.35	0.5029
1455.48	0.017
1464.62	0.062
1473.75	0.374
1482.88	0.411
1492.01	0.56
1501.15	0.643
1510.28	0.643
1519.41	0.595
1528.54	0.409
1537.68	0.156
1546.81	0.2831
1555.94	0.368
1565.07	0.546
1574.21	0.572
1583.34	0.4571
1592.47	0.7531
1601.6	0.886
1610.74	0.959
1619.87	0.998
1629	1.007
1638.13	1.023
1647.27	1.031
1656.4	1.015
1665.53	1
1674.66	1.001
1683.8	1.007
1692.93	1.014
1702.06	1.014
1711.19	1.012
1720.32	0.994
1729.46	0.976
1738.59	0.968
1747.72	1
1756.85	1.014
1765.99	1.019
1775.12	1.019
1784.25	1.014
1793.38	1.005
1802.52	0.996
1811.65	0.992
1820.78	0.994
1829.91	0.998
1839.05	1
1848.18	1.007
1857.31	1.014
1866.44	1.019
1875.58	1.023
1884.71	1.023
1893.84	1.024
1902.97	1.024
1912.11	1.026
1921.24	1.024
1930.37	1.023
1939.5	1.024
1948.64	1.024
1957.77	1.015
1966.9	1.015
1976.03	1.021
1985.17	1.021
1994.3	1.024
2003.43	1.0135
2012.56	1.005
2021.7	1.01
2030.83	1.011
2039.96	1.019
2049.09	1.015
2058.23	1.016
2067.36	1.012
2076.49	1.0145
2085.62	1.019
2094.76	1.017
2103.89	1.017
2113.02	1.018
2122.15	1.018
2131.29	1.017
2140.42	1.019
2149.55	1.017
2158.68	1.017
2167.82	1.015
2176.95	1.012
2186.08	1.01
2195.21	1.012
2204.35	1.0111
2213.48	1.014
2222.61	1.02
2231.74	1.019
2240.88	1.015
2250.01	1.0145
2259.14	1.01
2268.27	1.003
2277.4	0.998
2286.54	0.9929
2295.67	0.9879
2304.8	0.985
2313.93	0.9881
2323.07	0.9971
2332.2	0.9942
2341.33	1.0005
2350.46	1.001
2359.6	1.0061
2368.73	1.001
2377.86	1.0061
2386.99	1.0146
2396.13	1.0145
2405.26	1.014
2414.39	1.014
2423.52	1.014
2432.66	1.014
2441.79	1.015
2450.92	1.012
2460.05	1.0083
2469.19	1
2478.32	1.001
2487.45	1
2496.58	0.998
2505.72	1.001
2514.85	1.001
2523.98	1.0021
2533.11	1.005
2542.25	1.007
2551.38	1.0111
2560.51	1.015
2569.64	1.015
2578.78	1.012
2587.91	1.012
2597.04	1.01
2606.17	1.0137
2615.31	1.017
2624.44	1.019
2633.57	1.019
2642.7	1.019
2651.84	1.019
2660.97	1.015
2670.1	1.0108
2679.23	1.0058
2688.37	1.005
2697.5	1.008
2706.63	1.008
2715.76	1.008
2724.9	1.007
2734.03	1.007
2743.16	1.007
2752.29	1.007
2761.43	1.003
2770.56	1.001
2779.69	1.001
2788.82	0.998
2797.96	0.9858
2807.09	0.9768
2816.22	0.9792
2825.35	0.984
2834.48	0.985
2843.62	0.9808
2852.75	0.976
2861.88	0.9598
2871.01	0.9497
2880.15	0.9616
2889.28	0.9422
2898.41	0.8878
2907.54	0.8315
2916.68	0.906
2925.81	0.8762
2934.94	0.8404
2944.07	0.8631
2953.21	0.8933
2962.34	0.8422
2971.47	0.7993
2980.6	0.6955
2989.74	0.602
2998.87	0.6697
3008	0.8598
3017.13	0.916
3026.27	0.9408
3035.4	0.952
3044.53	0.9507
3053.66	0.9371
3062.8	0.936
3071.93	0.934
3081.06	0.9307
3090.19	0.8929
3099.33	0.8312
3108.46	0.9276
3117.59	0.9563
3126.72	0.96
3135.86	0.964
3144.99	0.964
3154.12	0.9653
3163.25	0.969
3172.39	0.969
3181.52	0.971
3190.65	0.971
3199.78	0.9697
3208.92	0.9654
3218.05	0.9537
3227.18	0.9487
3236.31	0.9357
3245.45	0.9154
3254.58	0.9021
3263.71	0.882
3272.84	0.8621
3281.98	0.8424
3291.11	0.815
3300.24	0.803
3309.37	0.7977
3318.51	0.797
3327.64	0.797
3336.77	0.799
3345.9	0.7907
3355.04	0.7773
3364.17	0.7334
3373.3	0.6543
3382.43	0.5055
3391.56	0.37
3400.7	0.5919
3409.83	0.8544
3418.96	0.861
3428.09	0.8546
3437.23	0.8309
3446.36	0.7913
3455.49	0.7449
3464.62	0.7009
3473.76	0.6152
3482.89	0.5219
3492.02	0.4687
3501.15	0.5435
3510.29	0.819
3519.42	0.9361
3528.55	0.9715
3537.68	0.978
3546.82	0.985
3555.95	0.9974
3565.08	1
3574.21	1.0024
3583.35	1.003
3592.48	1.003
3601.61	1.003
3610.74	1.0036
3619.88	1.001
3629.01	1.001
3638.14	0.9966
3647.27	0.996
3656.41	0.996
3665.54	0.9946
3674.67	0.992
3683.8	0.992
3692.94	0.992
3702.07	0.992
3711.2	0.9974
3720.33	1
3729.47	1
3738.6	0.998
3747.73	0.994
3756.86	0.994
3766	0.9974
3775.13	1
3784.26	1
