Infrared Spectrum: 10-Undecynoic acid
Formula: C 11 H 18 O 2
CAS: 2777-65-3
State: gas
Instrument: HP-GC/MS/IRD
Origin: NIST Mass Spectrometry Data Center
1/CM	ABSORBANCE
550	0.0015312
562	0.0017457
574	0.0016918
586	0.0018183
598	0.002035
610	0.0024805
622	0.0042427
634	0.0079684
646	0.0036399
658	0.0013519
670	0.0007689
682	0.0005775
694	0.0005412
706	0.0005346
718	0.0006105
730	0.0005192
742	0.0003916
754	0.0002574
766	0.0002376
778	0.0001826
790	0.0001045
802	0.0001001
814	1.87e-05
826	7.7e-05
838	2.86e-05
850	8.36e-05
862	0.0001111
874	8.69e-05
886	0.0001023
898	0.0001045
910	0.0001309
922	0.0001034
934	7.48e-05
946	8.69e-05
958	0.0001144
970	0.0001661
982	0.0002167
994	0.000341
1006	0.0004708
1018	0.0005742
1030	0.0006413
1042	0.0008261
1054	0.0012111
1066	0.0019591
1078	0.0029359
1090	0.0034694
1102	0.0038016
1114	0.0050875
1126	0.0056617
1138	0.0041943
1150	0.0033077
1162	0.0027456
1174	0.0023012
1186	0.0019008
1198	0.0016016
1210	0.0013783
1222	0.0012463
1234	0.001386
1246	0.0022968
1258	0.0018513
1270	0.0012199
1282	0.000968
1294	0.0009185
1306	0.0009119
1318	0.0009548
1330	0.0010483
1342	0.001243
1354	0.0014806
1366	0.0015851
1378	0.0016005
1390	0.001309
1402	0.0008426
1414	0.0006655
1426	0.0008448
1438	0.0011495
1450	0.0012144
1462	0.0012749
1474	0.0006919
1486	0.0002915
1498	0.0001342
1510	0.0001056
1522	6.16e-05
1534	5.5e-05
1546	6.16e-05
1558	0
1570	3.41e-05
1582	6.82e-05
1594	4.4e-05
1606	3.85e-05
1618	1.1e-05
1630	4.84e-05
1642	5.06e-05
1654	3.63e-05
1666	8.91e-05
1678	0.0001672
1690	0.0002134
1702	0.0003267
1714	0.0005819
1726	0.0011517
1738	0.0021461
1750	0.0038962
1762	0.0065934
1774	0.0101717
1786	0.0084898
1798	0.0047091
1810	0.0023386
1822	0.0010175
1834	0.000495
1846	0.0003069
1858	0.0002002
1870	0.0001551
1882	0.0001067
1894	9.46e-05
1906	9.24e-05
1918	9.57e-05
1930	7.59e-05
1942	6.6e-05
1954	6.49e-05
1966	5.61e-05
1978	7.48e-05
1990	4.84e-05
2002	3.74e-05
2014	3.96e-05
2026	5.83e-05
2038	4.95e-05
2050	6.05e-05
2062	4.84e-05
2074	5.72e-05
2086	6.82e-05
2098	0.0001584
2110	0.0002915
2122	0.00033
2134	0.0001397
2146	6.16e-05
2158	5.28e-05
2170	4.18e-05
2182	6.49e-05
2194	5.06e-05
2206	3.52e-05
2218	3.96e-05
2230	4.29e-05
2242	3.41e-05
2254	2.09e-05
2266	3.19e-05
2278	3.19e-05
2290	2.31e-05
2302	3.63e-05
2314	5.94e-05
2326	4.84e-05
2338	3.96e-05
2350	3.52e-05
2362	3.41e-05
2374	3.08e-05
2386	1.43e-05
2398	1.1e-06
2410	2.64e-05
2422	2.31e-05
2434	1.1e-05
2446	1.87e-05
2458	1.87e-05
2470	1.32e-05
2482	1.32e-05
2494	2.53e-05
2506	1.98e-05
2518	3.74e-05
2530	5.17e-05
2542	1.87e-05
2554	1.76e-05
2566	1.54e-05
2578	2.31e-05
2590	2.53e-05
2602	3.85e-05
2614	3.19e-05
2626	6.38e-05
2638	7.59e-05
2650	6.71e-05
2662	0.0001067
2674	0.0001078
2686	0.0001342
2698	0.0001331
2710	0.0001122
2722	0.0001045
2734	8.91e-05
2746	0.0001276
2758	0.0001276
2770	0.0001419
2782	0.0001529
2794	0.0002079
2806	0.000286
2818	0.0003916
2830	0.0005929
2842	0.0010626
2854	0.0023837
2866	0.0039732
2878	0.0030613
2890	0.0021736
2902	0.00264
2914	0.0046475
2926	0.0079937
2938	0.0109714
2950	0.0089914
2962	0.0042592
2974	0.0019635
2986	0.0011132
2998	0.0006325
3010	0.000407
3022	0.0002893
3034	0.0002453
3046	0.0001683
3058	0.0001265
3070	0.0001012
3082	0.0001067
3094	0.0001111
3106	7.92e-05
3118	7.7e-05
3130	7.04e-05
3142	5.61e-05
3154	5.06e-05
3166	2.09e-05
3178	4.95e-05
3190	6.93e-05
3202	4.95e-05
3214	3.3e-05
3226	4.4e-05
3238	7.81e-05
3250	8.58e-05
3262	0.0001936
3274	0.0002277
3286	0.000429
3298	0.0006787
3310	0.0012969
3322	0.001925
3334	0.0019272
3346	0.0005544
3358	0.000297
3370	0.0001738
3382	7.48e-05
3394	5.5e-05
3406	3.19e-05
3418	4.51e-05
3430	1.98e-05
3442	4.18e-05
3454	2.53e-05
3466	2.64e-05
3478	5.61e-05
3490	8.58e-05
3502	7.15e-05
3514	0.0001562
3526	0.0001694
3538	0.0002838
3550	0.0005181
3562	0.0014157
3574	0.0041096
3586	0.0016896
3598	0.0004972
3610	0.0001947
3622	0.0001023
3634	0.0001298
3646	3.63e-05
3658	4.4e-05
3670	2.09e-05
3682	3.96e-05
3694	2.86e-05
3706	4.62e-05
3718	9.35e-05
3730	3.41e-05
3742	2.86e-05
3754	1.1e-06
3766	6.6e-06
3778	5.5e-05
3790	5.72e-05
3802	3.74e-05
3814	2.86e-05
3826	3.96e-05
3838	1.76e-05
