Infrared Spectrum: 17-ETHYLENEDIOXY-3Alpha, 5Alpha-CYCLOANDROSTAN-6-ONE OXIME
Formula: C21 H31 N O3
CAS: 2777-12-0
State: SOLUTION 7% (CHCl3 FOR 2.512.5 microns)
Class: COBLENTZ
Instrument: PERKIN-ELMER 21 (GRATING)
Instrument parameters: FILTER AT ABOUT 10 MICRONS
Path length: 0.01 CM
Resolution: 2
Origin: ABBOTT LABORATORIES
1/CM	TRANSMITTANCE
666	0.8977
675	0.9028
684	0.8968
693	0.9045
702	0.9717
711	0.9757
720	0.9709
729	0.9643
738	0.9585
747	0.9533
756	0.9658
765	0.9527
774	0.9414
783	0.9295
792	0.9005
801	0.8338
810	0.7925
819	0.7646
828	0.7247
837	0.6947
846	0.8039
855	0.7828
864	0.7088
873	0.551
882	0.5143
891	0.5412
900	0.5143
909	0.4225
918	0.5258
927	0.4987
936	0.3971
945	0.4563
954	0.567
963	0.4902
972	0.6914
981	0.6046
990	0.6584
999	0.5439
1008	0.6714
1017	0.6324
1026	0.4437
1035	0.315
1044	0.4481
1053	0.5293
1062	0.5001
1071	0.5839
1080	0.5814
1089	0.4233
1098	0.3213
1107	0.4773
1116	0.6483
1125	0.6215
1134	0.6072
1143	0.5879
1152	0.5149
1161	0.4074
1170	0.3316
1179	0.563
1188	0.6998
1197	0.7374
1206	0.673
1215	0.6568
1224	0.6399
1233	0.62
1242	0.6618
1251	0.6606
1260	0.6329
1269	0.5497
1278	0.5682
1287	0.5595
1296	0.5482
1305	0.3941
1314	0.5389
1323	0.6513
1332	0.6902
1341	0.6032
1350	0.6861
1359	0.6887
1368	0.5866
1377	0.43
1386	0.6113
1395	0.7274
1404	0.7568
1413	0.7618
1422	0.7124
1431	0.6093
1440	0.6179
1449	0.542
1458	0.5588
1467	0.5789
1476	0.632
1485	0.7753
1494	0.8197
1503	0.8507
1512	0.857
1521	0.8577
1530	0.8549
1539	0.8422
1548	0.8306
1557	0.8236
1566	0.8213
1575	0.8165
1584	0.8156
1593	0.8171
1602	0.816
1611	0.8109
1620	0.798
1629	0.7782
1638	0.7619
1647	0.769
1656	0.7751
1665	0.7882
1674	0.8157
1683	0.8235
1692	0.8282
1701	0.8303
1710	0.8304
1719	0.8303
1728	0.8303
1737	0.8306
1746	0.831
1755	0.8314
1764	0.8314
1773	0.8315
1782	0.8315
1791	0.8317
1800	0.8323
1809	0.8329
1818	0.8334
1827	0.834
1836	0.8346
1845	0.8351
1854	0.8372
1863	0.8389
1872	0.8401
1881	0.8412
1890	0.8406
1899	0.8398
1908	0.8374
1917	0.8349
1926	0.8349
1935	0.8355
1944	0.838
1953	0.8397
1962	0.839
1971	0.8383
1980	0.8375
1989	0.8365
1998	0.8365
2007	0.8373
2016	0.8363
2025	0.8353
2034	0.8343
2043	0.8334
2052	0.8342
2061	0.8349
2070	0.836
2079	0.8377
2088	0.8395
2097	0.8427
2106	0.8466
2115	0.8478
2124	0.8478
2133	0.8473
2142	0.8467
2151	0.8461
2160	0.8454
2169	0.8454
2178	0.8455
2187	0.8456
2196	0.8456
2205	0.8457
2214	0.8458
2223	0.8456
2232	0.8454
2241	0.8451
2250	0.8449
2259	0.845
2268	0.8466
2277	0.8482
2286	0.8505
2295	0.8545
2304	0.8594
2313	0.8643
2322	0.8678
2331	0.8695
2340	0.8709
2349	0.8728
2358	0.8749
2367	0.8792
2376	0.8868
2385	0.8891
2394	0.8802
2403	0.8599
2412	0.8479
2421	0.8391
2430	0.8334
2439	0.8304
2448	0.8292
2457	0.8289
2466	0.8288
2475	0.8288
2484	0.8289
2493	0.8285
2502	0.8283
2511	0.8279
2520	0.827
2529	0.826
2538	0.825
2547	0.824
2556	0.8231
2565	0.8221
2574	0.821
2583	0.8197
2592	0.8185
2601	0.8171
2610	0.8156
2619	0.814
2628	0.8125
2637	0.8103
2646	0.8075
2655	0.8048
2664	0.8022
2673	0.7999
2682	0.7983
2691	0.7977
2700	0.796
2709	0.793
2718	0.7885
2727	0.7835
2736	0.7783
2745	0.7712
2754	0.7593
2763	0.7501
2772	0.741
2781	0.7238
2790	0.7087
2799	0.6948
2808	0.679
2817	0.66
2826	0.6207
2835	0.5352
2844	0.4404
2853	0.3463
2862	0.3055
2871	0.3041
2880	0.3036
2889	0.3009
2898	0.2857
2907	0.2573
2916	0.2421
2925	0.2291
2934	0.2238
2943	0.2256
2952	0.2323
2961	0.2579
2970	0.3232
2979	0.3894
2988	0.4552
2997	0.5205
3006	0.5855
3015	0.6359
3024	0.6654
3033	0.6692
3042	0.6718
3051	0.6668
3060	0.6596
3069	0.6507
3078	0.6426
3087	0.6373
3096	0.6336
3105	0.6307
3114	0.628
3123	0.6253
3132	0.6222
3141	0.6189
3150	0.6153
3159	0.6113
3168	0.6045
3177	0.595
3186	0.5849
3195	0.5761
3204	0.5699
3213	0.5649
3222	0.5606
3231	0.5574
3240	0.5555
3249	0.5551
3258	0.5563
3267	0.5583
3276	0.5618
3285	0.5664
3294	0.574
3303	0.5869
3312	0.6002
3321	0.6135
3330	0.6268
3339	0.6399
3348	0.653
3357	0.666
3366	0.679
3375	0.6918
3384	0.7046
3393	0.7174
3402	0.73
3411	0.7427
3420	0.7552
3429	0.7677
3438	0.7801
3447	0.7924
3456	0.8018
3465	0.8065
3474	0.8099
3483	0.812
3492	0.8137
3501	0.8132
3510	0.812
3519	0.804
3528	0.7824
3537	0.7604
3546	0.7386
3555	0.7168
3564	0.7037
3573	0.7034
3582	0.7111
3591	0.7509
3600	0.7907
3609	0.8301
3618	0.8511
3627	0.857
3636	0.8611
3645	0.8647
3654	0.8668
3663	0.8684
3672	0.8697
3681	0.8703
3690	0.8709
3699	0.8712
3708	0.8712
3717	0.8712
3726	0.8713
3735	0.8713
3744	0.8711
3753	0.8711
3762	0.8709
3771	0.8708
3780	0.8707
3789	0.8704
3798	0.87
3807	0.8697
3816	0.8693
3825	0.869
3834	0.8686
3843	0.8682
3852	0.8679
3861	0.8675
3870	0.8671
3879	0.8667
3888	0.8665
3897	0.8662
3906	0.8659
3915	0.8656
3924	0.8653
3933	0.865
3942	0.8647
3951	0.8644
3960	0.8641
3969	0.8638
3978	0.8635
3987	0.8633
3996	0.8631
