Infrared Spectrum: 3',4'-Dichlorophenylacetanilide
Formula: C 14 H 11 Cl 2 N O
CAS: 27816-82-6
State: gas
Origin: EPA-IR VAPOR PHASE LIBRARY
1/CM	ABSORBANCE
549.8	0.0026712
559.445	0.0024012
569.09	0.0019412
578.734	0.0021312
588.379	0.0020612
598.024	0.0028012
607.669	0.0017212
617.313	0.0011312
626.958	0.0011712
636.603	0.0012012
646.248	0.0012812
655.893	0.0012112
665.537	0.0023112
675.182	0.0059812
684.827	0.0064912
694.472	0.0085512
704.116	0.0109212
713.761	0.0061512
723.406	0.0087212
733.051	0.0093312
742.695	0.0032512
752.34	0.0022412
761.985	0.0020812
771.63	0.0016712
781.275	0.0014612
790.919	0.0021012
800.564	0.0043412
810.209	0.0041712
819.854	0.0039712
829.498	0.0025412
839.143	0.0017512
848.788	0.0032512
858.433	0.0034912
868.078	0.0031812
877.722	0.0035312
887.367	0.0029412
897.012	0.0025212
906.657	0.0029912
916.301	0.0022712
925.946	0.0022412
935.591	0.0024012
945.236	0.0030412
954.88	0.0031512
964.525	0.0026712
974.17	0.0016012
983.815	0.0011012
993.46	0.0010443
1003.1	0.0015012
1012.75	0.0017412
1022.39	0.0044112
1032.04	0.0086512
1041.68	0.0036512
1051.33	0.0017312
1060.97	0.0017612
1070.62	0.0020712
1080.26	0.0024012
1089.91	0.0022012
1099.55	0.0039112
1109.2	0.0069512
1118.84	0.0127512
1128.49	0.0228412
1138.13	0.0165712
1147.78	0.0097112
1157.42	0.0067012
1167.07	0.0052512
1176.71	0.0048512
1186.36	0.0058112
1196	0.0064912
1205.64	0.0070112
1215.29	0.0082212
1224.93	0.0092712
1234.58	0.0075012
1244.22	0.0049912
1253.87	0.0052012
1263.51	0.0062312
1273.16	0.0091612
1282.8	0.0172812
1292.45	0.0161812
1302.09	0.0074212
1311.74	0.0050312
1321.38	0.0043412
1331.03	0.0043012
1340.67	0.0044412
1350.32	0.0049412
1359.96	0.0082712
1369.61	0.0173312
1379.25	0.0180412
1388.9	0.0132212
1398.54	0.0058012
1408.18	0.0036612
1417.83	0.0042612
1427.47	0.0060912
1437.12	0.0071812
1446.76	0.0097912
1456.41	0.0162912
1466.05	0.0296712
1475.7	0.0572212
1485.34	0.0499912
1494.99	0.0555612
1504.63	0.0535012
1514.28	0.0318912
1523.92	0.0142212
1533.57	0.0089612
1543.21	0.0072912
1552.86	0.0063812
1562.5	0.0081012
1572.15	0.0165512
1581.79	0.0226312
1591.44	0.0211612
1601.08	0.0141312
1610.73	0.0056312
1620.37	0.0034612
1630.01	0.0025212
1639.66	0.0019612
1649.3	0.0020512
1658.95	0.0021312
1668.59	0.0027612
1678.24	0.0039512
1687.88	0.0057012
1697.53	0.0084112
1707.17	0.0153612
1716.82	0.0348212
1726.46	0.0420012
1736.11	0.0204112
1745.75	0.0098412
1755.4	0.0063812
1765.04	0.0040012
1774.69	0.0024112
1784.33	0.0018912
1793.98	0.0016512
1803.62	0.0016212
1813.27	0.0013212
1822.91	0.0011512
1832.55	0.0009353
1842.2	0.0009173
1851.84	0.0008664
1861.49	0.0009523
1871.13	0.0009232
1880.78	0.0009638
1890.42	0.0009719
1900.07	0.0007907
1909.71	0.0007468
1919.36	0.0006886
1929	0.0006517
1938.65	0.0007812
1948.29	0.000908
1957.94	0.0008438
1967.58	0.0006917
1977.23	0.0005609
1986.87	0.0003867
1996.52	0.0003392
2006.16	0.0003073
2015.81	0.0003238
2025.45	0.0002803
2035.1	0.0003442
2044.74	0.0003703
2054.38	0.0002733
2064.03	0.0002984
2073.67	0.0003478
2083.32	0.0003684
2092.96	0.0003915
2102.61	0.0003979
2112.25	0.0004039
2121.9	0.0003943
2131.54	0.0003918
2141.19	0.0003828
2150.83	0.0005505
2160.48	0.0004428
2170.12	0.0004563
2179.77	0.0004266
2189.41	0.0003873
2199.06	0.0003269
2208.7	0.0003525
2218.35	0.0002588
2227.99	0.0003305
2237.64	0.0002884
2247.28	0.0002366
2256.92	0.000242
2266.57	0.0002949
2276.21	0.000336
2285.86	0.0003651
2295.5	0.00036
2305.15	0.0002594
2314.79	0.0003745
2324.44	0.0002339
2334.08	0.0002703
2343.73	0.000384
2353.37	0.0003212
2363.02	0.000371
2372.66	0.0004201
2382.31	0.0004096
2391.95	0.0004933
2401.6	0.0003135
2411.24	0.0003688
2420.89	0.0004282
2430.53	0.0003295
2440.18	0.0003696
2449.82	0.0003406
2459.47	0.0003212
2469.11	0.0003242
2478.75	0.0002722
2488.4	0.0002839
2498.04	0.0003714
2507.69	0.0002467
2517.33	0.0003144
2526.98	0.0002671
2536.62	0.000375
2546.27	0.0003197
2555.91	0.0002144
2565.56	0.00017279
2575.2	0.000236
2584.85	0.000325
2594.49	0.0002652
2604.14	0.0004358
2613.78	0.0003847
2623.43	0.00016467
2633.07	0.0002416
2642.72	0.0003029
2652.36	0.00018903
2662.01	0.0002975
2671.65	0.0002683
2681.29	0.0002419
2690.94	0.0002814
2700.58	0.0003238
2710.23	0.0004082
2719.87	0.0004208
2729.52	0.000239
2739.16	0.0004098
2748.81	0.00018327
2758.45	0.0002398
2768.1	0.0003471
2777.74	0.0002686
2787.39	0.0003509
2797.03	0.0004061
2806.68	0.0003603
2816.32	0.0003701
2825.97	0.0004713
2835.61	0.0004083
2845.26	0.0004616
2854.9	0.0005115
2864.55	0.0004945
2874.19	0.0005149
2883.84	0.0004298
2893.48	0.0006427
2903.12	0.0009767
2912.77	0.0012012
2922.41	0.0017712
2932.06	0.0018112
2941.7	0.0017412
2951.35	0.0014312
2960.99	0.0011912
2970.64	0.0010722
2980.28	0.0009598
2989.93	0.0006689
2999.57	0.0010648
3009.22	0.0015812
3018.86	0.0025212
3028.51	0.0048712
3038.15	0.0051612
3047.8	0.0029512
3057.44	0.0029312
3067.09	0.0047112
3076.73	0.0056012
3086.38	0.0041212
3096.02	0.0031212
3105.67	0.0021212
3115.31	0.0018312
3124.95	0.0011812
3134.6	0.0005501
3144.24	0.0004877
3153.89	0.0004237
3163.53	0.0005012
3173.18	0.00018667
3182.82	0.0002693
3192.47	0.0003745
3202.11	0.0002753
3211.76	0.0002598
3221.4	0.00016143
3231.05	0.0003554
3240.69	0.00012254
3250.34	0.000245
3259.98	7.92e-05
3269.63	2.57e-05
3279.27	0.0002705
3288.92	0.0001948
3298.56	0.0001608
3308.21	0.000272
3317.85	0.00016583
3327.49	0.00013574
3337.14	0.0002693
3346.78	0.00016923
3356.43	0.0003345
3366.07	0.0004558
3375.72	0.0004683
3385.36	0.0010765
3395.01	0.0012712
3404.65	0.0019612
3414.3	0.0040912
3423.94	0.0084012
3433.59	0.0089612
3443.23	0.0039812
3452.88	0.0022812
3462.52	0.0015812
3472.17	0.0012312
3481.81	0.0007889
3491.46	0.0003657
3501.1	0.0004628
3510.75	0.0002011
3520.39	0.0003867
3530.04	0.00013938
3539.68	0.00014751
3549.32	0.0003245
3558.97	0.0002827
3568.61	0.00016925
3578.26	0.0001248
3587.9	0.00016101
3597.55	0.0003696
3607.19	0.0003149
3616.84	0.0002679
3626.48	0.00016919
3636.13	0.0001242
3645.77	0.0002305
3655.42	0.00018682
3665.06	0.0002534
3674.71	0.0003914
3684.35	0.00010996
3694	7.46e-05
3703.64	0.000198
3713.29	0.0003153
3722.93	4.66e-05
3732.58	0.0001954
3742.22	0.000273
3751.86	0.0002617
3761.51	0.0002245
3771.15	0.0004841
3780.8	0.00014839
3790.44	0.0003215
3800.09	0.000369
3809.73	4.6e-05
3819.38	0.000197
3829.02	0.0002531
3838.67	0.00012996
3848.31	0.0002292
3857.96	0.000222
3867.6	6.71e-05
3877.25	0.0002314
3886.89	6.49e-05
3896.54	0.000222
3906.18	0.0003334
3915.83	0.00010747
3925.47	0.00017116
3935.12	0.00012298
3944.76	0.00013457
3954.41	0.0003628
3964.05	0.0003301
3973.69	0.0002418
3983.34	0.000297
3992.98	0.0005477
