Infrared Spectrum: Ethyl-2-hexenoate
Formula: C 8 H 14 O 2
CAS: 27829-72-7
State: gas
Origin: EPA-IR VAPOR PHASE LIBRARY
1/CM	ABSORBANCE
501.5	0.00048
513.074	0.000237
524.648	0.0006041
536.222	0.0005628
547.796	0.000369
559.37	0.000291
570.944	0.000164
582.518	7.3e-05
594.092	9.1e-05
605.666	0.000222
617.24	0.000379
628.814	0.000335
640.388	0.0005832
651.962	0.0007646
663.536	0.001488
675.11	0.002236
686.684	0.003546
698.258	0.004526
709.832	0.004436
721.406	0.003796
732.98	0.003146
744.554	0.002686
756.128	0.002676
767.702	0.003136
779.276	0.003186
790.85	0.002876
802.423	0.002746
813.997	0.003436
825.571	0.004566
837.145	0.005546
848.719	0.006066
860.293	0.005736
871.867	0.005196
883.441	0.004366
895.015	0.003846
906.589	0.003486
918.163	0.003826
929.737	0.005356
941.311	0.007366
952.885	0.010226
964.459	0.015736
976.033	0.021446
987.607	0.018266
999.181	0.011496
1010.76	0.010566
1022.33	0.017016
1033.9	0.031146
1045.48	0.044126
1057.05	0.040286
1068.63	0.024706
1080.2	0.018396
1091.77	0.020686
1103.35	0.026036
1114.92	0.034856
1126.49	0.033146
1138.07	0.021536
1149.64	0.030216
1161.22	0.070196
1172.79	0.119776
1184.36	0.079266
1195.94	0.038676
1207.51	0.034476
1219.09	0.044566
1230.66	0.049546
1242.23	0.060426
1253.81	0.092246
1265.38	0.085606
1276.96	0.049256
1288.53	0.041356
1300.1	0.046636
1311.68	0.049946
1323.25	0.037096
1334.83	0.023836
1346.4	0.017146
1357.97	0.014086
1369.55	0.021736
1381.12	0.014516
1392.7	0.010886
1404.27	0.008896
1415.84	0.007706
1427.42	0.008386
1438.99	0.010386
1450.57	0.012246
1462.14	0.013536
1473.71	0.012346
1485.29	0.007736
1496.86	0.004846
1508.44	0.003516
1520.01	0.002916
1531.58	0.002586
1543.16	0.002476
1554.73	0.002406
1566.31	0.002366
1577.88	0.002386
1589.45	0.002466
1601.03	0.002706
1612.6	0.003466
1624.18	0.005586
1635.75	0.011246
1647.32	0.024996
1658.9	0.029986
1670.47	0.015666
1682.05	0.010376
1693.62	0.011246
1705.19	0.016486
1716.77	0.034206
1728.34	0.085716
1739.92	0.134026
1751.49	0.082006
1763.06	0.028226
1774.64	0.010836
1786.21	0.006156
1797.79	0.004256
1809.36	0.003316
1820.93	0.002716
1832.51	0.002276
1844.08	0.001976
1855.66	0.001846
1867.23	0.001826
1878.8	0.001856
1890.38	0.001966
1901.95	0.001916
1913.53	0.001676
1925.1	0.0014862
1936.67	0.0013747
1948.25	0.0013006
1959.82	0.0012502
1971.4	0.0012545
1982.97	0.0012535
1994.54	0.001189
2006.12	0.0011338
2017.69	0.0012332
2029.27	0.0013634
2040.84	0.001499
2052.41	0.0014831
2063.99	0.0013082
2075.56	0.0012612
2087.14	0.001303
2098.71	0.0013017
2110.28	0.0012986
2121.86	0.0013335
2133.43	0.001232
2145.01	0.0010833
2156.58	0.0010064
2168.15	0.0010457
2179.73	0.0009816
2191.3	0.0009519
2202.88	0.0009228
2214.45	0.0008968
2226.02	0.0008786
2237.6	0.0009447
2249.17	0.0008928
2260.74	0.0009219
2272.32	0.0009537
2283.89	0.000903
2295.47	0.0008822
2307.04	0.0008621
2318.61	0.0008583
2330.19	0.0009548
2341.76	0.0010073
2353.34	0.0009617
2364.91	0.0008929
2376.48	0.0007827
2388.06	0.0008251
2399.63	0.0008042
2411.21	0.0008517
2422.78	0.0008368
2434.35	0.0007263
2445.93	0.0007862
2457.5	0.0007784
2469.08	0.000763
2480.65	0.0007512
2492.22	0.0007727
2503.8	0.0007844
2515.37	0.0007277
2526.95	0.0007425
2538.52	0.0007801
2550.09	0.0007949
2561.67	0.0007424
2573.24	0.0007538
2584.82	0.0007764
2596.39	0.0008317
2607.96	0.0008373
2619.54	0.0008211
2631.11	0.0007858
2642.69	0.0008393
2654.26	0.0008677
2665.83	0.0009513
2677.41	0.0009982
2688.98	0.0011036
2700.56	0.0011368
2712.13	0.0010389
2723.7	0.0011642
2735.28	0.0013842
2746.85	0.0015682
2758.43	0.001626
2770	0.001766
2781.57	0.002096
2793.15	0.002296
2804.72	0.002626
2816.3	0.003246
2827.87	0.004326
2839.44	0.006206
2851.02	0.008916
2862.59	0.011956
2874.17	0.018636
2885.74	0.024786
2897.31	0.022576
2908.89	0.024606
2920.46	0.029516
2932.04	0.041596
2943.61	0.053086
2955.18	0.045306
2966.76	0.051036
2978.33	0.057536
2989.91	0.041336
3001.48	0.023856
3013.05	0.014726
3024.63	0.009566
3036.2	0.007326
3047.78	0.006606
3059.35	0.006086
3070.92	0.004626
3082.5	0.003216
3094.07	0.002446
3105.65	0.002136
3117.22	0.001906
3128.79	0.001636
3140.37	0.0015785
3151.94	0.0015161
3163.52	0.0013586
3175.09	0.0013246
3186.66	0.0011968
3198.24	0.0011278
3209.81	0.0009921
3221.39	0.0008599
3232.96	0.0008495
3244.53	0.0007188
3256.11	0.00069186
3267.68	0.00060996
3279.26	0.00063774
3290.83	0.0005805
3302.4	0.000551
3313.98	0.0005998
3325.55	0.0005843
3337.13	0.00060644
3348.7	0.00067723
3360.27	0.00065374
3371.85	0.000719
3383.42	0.0008532
3395	0.0008402
3406.57	0.0007556
3418.14	0.00068308
3429.72	0.0007664
3441.29	0.0011582
3452.86	0.0015796
3464.44	0.001806
3476.01	0.0013864
3487.59	0.0009967
3499.16	0.0007749
3510.73	0.0007194
3522.31	0.0005263
3533.88	0.000452
3545.46	0.0005842
3557.03	0.000462
3568.6	0.000464
3580.18	0.0005415
3591.75	0.0005641
3603.33	0.000495
3614.9	0.000471
3626.47	0.000478
3638.05	0.000484
3649.62	0.0005687
3661.2	0.000453
3672.77	0.000501
3684.34	0.0006018
3695.92	0.0005429
3707.49	0.0005798
3719.07	0.0005786
3730.64	0.000486
3742.21	0.00067002
3753.79	0.000620488
3765.36	0.00068003
3776.94	0.00068207
3788.51	0.0007319
3800.08	0.00069992
3811.66	0.00061186
3823.23	0.00063266
3834.81	0.00070812
3846.38	0.0005203
3857.95	0.0005915
3869.53	0.00066463
3881.1	0.00070706
3892.68	0.00065087
3904.25	0.0005725
3915.82	0.000619747
3927.4	0.00063138
3938.97	0.0007508
3950.55	0.00069071
3962.12	0.00067588
3973.69	0.0007562
3985.27	0.0009065
3996.84	0.0008199
