Infrared Spectrum: 1,2-Naphthoquinone, 4-anilino-,
Formula: C16 H11 N O2
CAS: 27828-56-4
State: SOLID (NUJOL MULL)
Class: COBLENTZ III
Instrument: PERKIN-ELMER 21 (GRATING)
Instrument parameters: FILTER AT ABOUT 10 MICRONS
Resolution: 2
Origin: ABBOTT LABORATORIES
1/CM	TRANSMITTANCE
668	0.6509
677	0.5841
686	0.5933
695	0.6422
704	0.4416
713	0.5906
722	0.4081
731	0.6478
740	0.6876
749	0.6709
758	0.431
767	0.609
776	0.7141
785	0.7488
794	0.7488
803	0.7444
812	0.7496
821	0.7381
830	0.6692
839	0.7072
848	0.6887
857	0.6874
866	0.7349
875	0.7305
884	0.7214
893	0.7184
902	0.719
911	0.6836
920	0.691
929	0.6868
938	0.6889
947	0.6753
956	0.6526
965	0.6366
974	0.6116
983	0.6541
992	0.6598
1001	0.6581
1010	0.6547
1019	0.6355
1028	0.6395
1037	0.6321
1046	0.6411
1055	0.6415
1064	0.6227
1073	0.6335
1082	0.6357
1091	0.6374
1100	0.6221
1109	0.6092
1118	0.5925
1127	0.591
1136	0.5836
1145	0.5413
1154	0.5335
1163	0.4682
1172	0.5403
1181	0.5392
1190	0.5166
1199	0.5013
1208	0.511
1217	0.538
1226	0.4694
1235	0.4728
1244	0.443
1253	0.3659
1262	0.4427
1271	0.2631
1280	0.2524
1289	0.4479
1298	0.5728
1307	0.5939
1316	0.6008
1325	0.5554
1334	0.5313
1343	0.5159
1352	0.4433
1361	0.3931
1370	0.2904
1379	0.4242
1388	0.5394
1397	0.5438
1406	0.522
1415	0.4801
1424	0.4128
1433	0.1403
1442	0.1579
1451	0.1722
1460	0.177
1469	0.2168
1478	0.2755
1487	0.299
1496	0.247
1505	0.1426
1514	0.122
1523	0.1755
1532	0.332
1541	0.4455
1550	0.558
1559	0.5546
1568	0.3991
1577	0.1992
1586	0.2371
1595	0.2603
1604	0.411
1613	0.5578
1622	0.6256
1631	0.6629
1640	0.6876
1649	0.7006
1658	0.7042
1667	0.695
1676	0.6472
1685	0.5363
1694	0.4879
1703	0.6458
1712	0.7399
1721	0.748
1730	0.7533
1739	0.7566
1748	0.7591
1757	0.7608
1766	0.7617
1775	0.7592
1784	0.7542
1793	0.7519
1802	0.7525
1811	0.7534
1820	0.7521
1829	0.7439
1838	0.7417
1847	0.7415
1856	0.7413
1865	0.7409
1874	0.7404
1883	0.7394
1892	0.7386
1901	0.7378
1910	0.7368
1919	0.7339
1928	0.7265
1937	0.7245
1946	0.7246
1955	0.726
1964	0.725
1973	0.7237
1982	0.722
1991	0.7201
2000	0.7186
2009	0.717
2018	0.7156
2027	0.7143
2036	0.713
2045	0.712
2054	0.7112
2063	0.71
2072	0.7085
2081	0.707
2090	0.7045
2099	0.701
2108	0.6975
2117	0.6943
2126	0.6911
2135	0.6905
2144	0.6898
2153	0.6889
2162	0.6873
2171	0.6855
2180	0.6838
2189	0.6819
2198	0.6801
2207	0.678
2216	0.6759
2225	0.6737
2234	0.6716
2243	0.6696
2252	0.6676
2261	0.6657
2270	0.6637
2279	0.6616
2288	0.6596
2297	0.6575
2306	0.6555
2315	0.6534
2324	0.6518
2333	0.6502
2342	0.6486
2351	0.647
2360	0.6455
2369	0.6439
2378	0.6424
2387	0.641
2396	0.6394
2405	0.638
2414	0.6365
2423	0.6351
2432	0.6336
2441	0.6329
2450	0.6321
2459	0.6313
2468	0.6301
2477	0.6285
2486	0.6269
2495	0.6249
2504	0.6228
2513	0.6187
2522	0.6124
2531	0.6056
2540	0.5983
2549	0.5907
2558	0.5856
2567	0.5813
2576	0.578
2585	0.5749
2594	0.5717
2603	0.5686
2612	0.5657
2621	0.5628
2630	0.56
2639	0.5573
2648	0.5546
2657	0.5521
2666	0.5496
2675	0.5472
2684	0.5453
2693	0.5437
2702	0.5421
2711	0.5409
2720	0.5391
2729	0.536
2738	0.5278
2747	0.5164
2756	0.5003
2765	0.477
2774	0.4396
2783	0.4057
2792	0.376
2801	0.3455
2810	0.2337
2819	0.1154
2828	0.098
2837	0.0884
2846	0.0843
2855	0.081
2864	0.0784
2873	0.077
2882	0.077
2891	0.0777
2900	0.0793
2909	0.0818
2918	0.0889
2927	0.1234
2936	0.17
2945	0.2078
2954	0.2188
2963	0.2802
2972	0.3614
2981	0.4209
2990	0.4303
2999	0.4332
3008	0.4346
3017	0.4374
3026	0.443
3035	0.4492
3044	0.4592
3053	0.4666
3062	0.4692
3071	0.4691
3080	0.4664
3089	0.4634
3098	0.4599
3107	0.4563
3116	0.452
3125	0.4479
3134	0.4444
3143	0.4409
3152	0.4374
3161	0.4338
3170	0.4278
3179	0.4203
3188	0.4122
3197	0.3983
3206	0.384
3215	0.3697
3224	0.3556
3233	0.3415
3242	0.3275
3251	0.3136
3260	0.2997
3269	0.2872
3278	0.2862
3287	0.3051
3296	0.3678
3305	0.4303
3314	0.4924
3323	0.5139
3332	0.5162
3341	0.517
3350	0.5168
3359	0.5153
3368	0.5128
3377	0.5094
3386	0.5066
3395	0.5047
3404	0.5039
3413	0.5035
3422	0.5033
3431	0.5033
3440	0.5033
3449	0.5033
3458	0.5033
3467	0.5033
3476	0.5034
3485	0.5034
3494	0.5034
3503	0.5035
3512	0.5036
3521	0.5036
3530	0.5037
3539	0.5038
3548	0.5036
3557	0.5034
3566	0.5033
3575	0.503
3584	0.5028
3593	0.5024
3602	0.5018
3611	0.5004
3620	0.4989
3629	0.4972
3638	0.4955
3647	0.4936
3656	0.492
3665	0.4907
3674	0.4892
3683	0.4881
3692	0.4872
3701	0.4863
3710	0.4855
3719	0.4848
3728	0.4844
3737	0.4839
3746	0.4835
3755	0.4825
3764	0.4809
3773	0.4792
3782	0.4773
3791	0.4757
3800	0.4744
3809	0.4731
3818	0.4719
3827	0.4706
3836	0.4693
3845	0.4681
3854	0.4669
3863	0.4657
3872	0.4645
3881	0.4631
3890	0.4615
3899	0.4599
3908	0.4586
3917	0.4573
3926	0.456
3935	0.4547
3944	0.4534
3953	0.4521
3962	0.4508
3971	0.4496
3980	0.4484
3989	0.4471
3998	0.4459
