Infrared Spectrum: DICHLOROCYANURIC ACID
Formula: C3 H Cl2 N3 O3
CAS: 2782-57-2
State: SOLID (OIL MULL)
Class: COBLENTZ
Instrument: Not specified, most likely a prism, grating, or hybrid spectrometer.
Sampling: TRANSMISSION
Resolution: 4
Origin: WYANDOTTE CHEMICALS CORP., WYANDOTTE, MICHIGAN, USA
MICROMETERS	TRANSMITTANCE
2.021	0.484
2.06098	0.494
2.10095	0.502
2.14093	0.504
2.18091	0.502
2.22088	0.517
2.26086	0.524
2.30083	0.532
2.34081	0.535
2.38079	0.544
2.42076	0.554
2.46074	0.56
2.50072	0.577
2.54069	0.584
2.58067	0.602
2.62064	0.603
2.66062	0.608
2.7006	0.622
2.74057	0.632
2.78055	0.62
2.82053	0.597
2.8605	0.572
2.90048	0.579
2.94045	0.608
2.98043	0.657
3.02041	0.584
3.06038	0.329
3.10036	0.179
3.14034	0.252
3.18031	0.251
3.22029	0.312
3.26026	0.377
3.30024	0.397
3.34022	0.231
3.38019	0.073
3.42017	0.069
3.46015	0.134
3.50012	0.131
3.5401	0.366
3.58007	0.509
3.62005	0.594
3.66003	0.605
3.7	0.633
3.73998	0.652
3.77996	0.67
3.81993	0.68
3.85991	0.693
3.89988	0.695
3.93986	0.692
3.97984	0.695
4.01981	0.732
4.05979	0.753
4.09977	0.755
4.13974	0.77
4.17972	0.777
4.21969	0.798
4.25967	0.805
4.29965	0.805
4.33962	0.805
4.3796	0.806
4.41958	0.825
4.45955	0.843
4.49953	0.84
4.5395	0.855
4.57948	0.871
4.61946	0.876
4.65943	0.843
4.69941	0.885
4.73939	0.896
4.77936	0.901
4.81934	0.923
4.85931	0.925
4.89929	0.931
4.93927	0.95
4.97924	0.956
5.01922	0.965
5.0592	0.961
5.09917	0.926
5.13915	0.903
5.17912	0.945
5.2191	0.95
5.25908	0.928
5.29905	0.87
5.33903	0.76
5.37901	0.725
5.41898	0.682
5.45896	0.602
5.49893	0.502
5.53891	0.399
5.57889	0.251
5.61886	0.123
5.65884	0.078
5.69882	0.049
5.73879	0.043
5.77877	0.071
5.81874	0.099
5.85872	0.131
5.8987	0.179
5.93867	0.204
5.97865	0.282
6.01863	0.344
6.0586	0.399
6.09858	0.45
6.13855	0.482
6.17853	0.512
6.21851	0.569
6.25848	0.607
6.29846	0.648
6.33844	0.668
6.37841	0.677
6.41839	0.643
6.45836	0.652
6.49834	0.668
6.53832	0.637
6.57829	0.627
6.61827	0.672
6.65825	0.635
6.69822	0.549
6.7382	0.444
6.77817	0.241
6.81815	0.222
6.85813	0.212
6.8981	0.204
6.93808	0.191
6.97806	0.131
7.01803	0.173
7.05801	0.181
7.09798	0.129
7.13796	0.106
7.17794	0.053
7.21791	0.034
7.25789	0.039
7.29787	0.059
7.33784	0.086
7.37782	0.113
7.41779	0.159
7.45777	0.201
7.49775	0.239
7.53772	0.267
7.5777	0.296
7.61768	0.326
7.65765	0.341
7.69763	0.369
7.7376	0.397
7.77758	0.41
7.81756	0.437
7.85753	0.45
7.89751	0.47
7.93749	0.487
7.97746	0.497
8.01744	0.502
8.05741	0.519
8.09739	0.534
8.13737	0.55
8.17734	0.559
8.21732	0.564
8.2573	0.569
8.29727	0.584
8.33725	0.592
8.37722	0.599
8.4172	0.608
8.45718	0.6
8.49715	0.51
8.53713	0.489
8.57711	0.352
8.61708	0.434
8.65706	0.519
8.69703	0.559
8.73701	0.594
8.77699	0.603
8.81696	0.605
8.85694	0.622
8.89692	0.642
8.93689	0.647
8.97687	0.663
9.01684	0.662
9.05682	0.595
9.0968	0.397
9.13677	0.377
9.17675	0.519
9.21673	0.595
9.2567	0.612
9.29668	0.627
9.33665	0.633
9.37663	0.638
9.41661	0.658
9.45658	0.66
9.49656	0.663
9.53654	0.675
9.57651	0.677
9.61649	0.68
9.65646	0.677
9.69644	0.673
9.73642	0.687
9.77639	0.688
9.81637	0.707
9.85635	0.713
9.89632	0.722
9.9363	0.723
9.97627	0.727
10.0163	0.73
10.0562	0.73
10.0962	0.732
10.1362	0.732
10.1762	0.725
10.2161	0.723
10.2561	0.725
10.2961	0.728
10.3361	0.73
10.376	0.735
10.416	0.733
10.456	0.738
10.496	0.738
10.5359	0.74
10.5759	0.742
10.6159	0.747
10.6559	0.748
10.6958	0.75
10.7358	0.75
10.7758	0.752
10.8158	0.757
10.8558	0.76
10.8957	0.763
10.9357	0.775
10.9757	0.782
11.0157	0.79
11.0556	0.788
11.0956	0.782
11.1356	0.775
11.1756	0.783
11.2155	0.788
11.2555	0.785
11.2955	0.787
11.3355	0.783
11.3754	0.78
11.4154	0.772
11.4554	0.768
11.4954	0.772
11.5353	0.773
11.5753	0.772
11.6153	0.768
11.6553	0.773
11.6953	0.777
11.7352	0.78
11.7752	0.78
11.8152	0.785
11.8552	0.788
11.8951	0.79
11.9351	0.797
11.9751	0.798
12.0151	0.801
12.055	0.801
12.095	0.801
12.135	0.801
12.175	0.801
12.2149	0.803
12.2549	0.8
12.2949	0.795
12.3349	0.792
12.3748	0.782
12.4148	0.767
12.4548	0.752
12.4948	0.718
12.5348	0.628
12.5747	0.507
12.6147	0.402
12.6547	0.362
12.6947	0.407
12.7346	0.519
12.7746	0.569
12.8146	0.595
12.8546	0.599
12.8945	0.59
12.9345	0.55
12.9745	0.502
13.0145	0.452
13.0544	0.397
13.0944	0.341
13.1344	0.302
13.1744	0.272
13.2144	0.246
13.2543	0.239
13.2943	0.232
13.3343	0.237
13.3743	0.259
13.4142	0.307
13.4542	0.381
13.4942	0.435
13.5342	0.489
13.5741	0.519
13.6141	0.534
13.6541	0.569
13.6941	0.608
13.734	0.618
13.774	0.637
13.814	0.69
13.854	0.707
13.8939	0.687
13.9339	0.599
13.9739	0.469
14.0139	0.271
14.0539	0.199
14.0938	0.184
14.1338	0.224
14.1738	0.314
14.2138	0.415
14.2537	0.469
14.2937	0.484
14.3337	0.51
14.3737	0.535
14.4136	0.572
14.4536	0.595
14.4936	0.607
14.5336	0.612
14.5735	0.62
14.6135	0.633
14.6535	0.647
14.6935	0.653
14.7334	0.672
14.7734	0.683
14.8134	0.697
14.8534	0.705
14.8934	0.703
14.9333	0.707
14.9733	0.697
15.0133	0.643
15.0533	0.613
15.0932	0.62
15.1332	0.642
15.1732	0.682
15.2132	0.703
15.2531	0.712
15.2931	0.715
15.3331	0.705
15.3731	0.703
15.413	0.69
15.453	0.678
15.493	0.655
15.533	0.642
15.5729	0.637
15.6129	0.638
15.6529	0.643
15.6929	0.643
15.7329	0.64
15.7728	0.643
15.8128	0.642
15.8528	0.635
15.8928	0.63
15.9327	0.615
15.9727	0.608
