Infrared Spectrum: 3-Ethoxybenzhydrazide
Formula: C 9 H 12 N 2 O 2
CAS: 27830-16-6
State: gas
Origin: EPA-IR VAPOR PHASE LIBRARY
1/CM	ABSORBANCE
549.8	0.00196
559.445	0.00171
569.09	0.00181
578.734	0.00191
588.379	0.0017
598.024	0.00196
607.669	0.00167
617.313	0.0016
626.958	0.00137
636.603	0.00116
646.248	0.00128
655.893	0.00129
665.537	0.00202
675.182	0.00311
684.827	0.00457
694.472	0.00358
704.116	0.00226
713.761	0.00201
723.406	0.00188
733.051	0.00309
742.695	0.00501
752.34	0.0054
761.985	0.00394
771.63	0.00298
781.275	0.00405
790.919	0.00526
800.564	0.00485
810.209	0.00426
819.854	0.00364
829.498	0.00274
839.143	0.00251
848.788	0.00305
858.433	0.00324
868.078	0.00409
877.722	0.00481
887.367	0.0056
897.012	0.00685
906.657	0.00894
916.301	0.01066
925.946	0.01009
935.591	0.00713
945.236	0.0049
954.88	0.00439
964.525	0.00485
974.17	0.0039
983.815	0.00276
993.46	0.00236
1003.1	0.00224
1012.75	0.00258
1022.39	0.00374
1032.04	0.00663
1041.68	0.01032
1051.33	0.01073
1060.97	0.00595
1070.62	0.00395
1080.26	0.00399
1089.91	0.00512
1099.55	0.00432
1109.2	0.00397
1118.84	0.00371
1128.49	0.00304
1138.13	0.00416
1147.78	0.00631
1157.42	0.00695
1167.07	0.00424
1176.71	0.00287
1186.36	0.00283
1196	0.00306
1205.64	0.00425
1215.29	0.00804
1224.93	0.01515
1234.58	0.01764
1244.22	0.01438
1253.87	0.01141
1263.51	0.01415
1273.16	0.0231
1282.8	0.03072
1292.45	0.03049
1302.09	0.01917
1311.74	0.01281
1321.38	0.0093
1331.03	0.00619
1340.67	0.00423
1350.32	0.00323
1359.96	0.00283
1369.61	0.00296
1379.25	0.00379
1388.9	0.00584
1398.54	0.00677
1408.18	0.00629
1417.83	0.00787
1427.47	0.01212
1437.12	0.0182
1446.76	0.02494
1456.41	0.02663
1466.05	0.02132
1475.7	0.01761
1485.34	0.01504
1494.99	0.01138
1504.63	0.00763
1514.28	0.00484
1523.92	0.00359
1533.57	0.00297
1543.21	0.00299
1552.86	0.00347
1562.5	0.00545
1572.15	0.01042
1581.79	0.01665
1591.44	0.01557
1601.08	0.01388
1610.73	0.01095
1620.37	0.00768
1630.01	0.0079
1639.66	0.0077
1649.3	0.0055
1658.95	0.00462
1668.59	0.00543
1678.24	0.00758
1687.88	0.01307
1697.53	0.02587
1707.17	0.02379
1716.82	0.00982
1726.46	0.00666
1736.11	0.0044
1745.75	0.0025
1755.4	0.00178
1765.04	0.00146
1774.69	0.00116
1784.33	0.00113
1793.98	0.00102
1803.62	0.0008793
1813.27	0.0008522
1822.91	0.000776
1832.55	0.0007555
1842.2	0.0007735
1851.84	0.0008024
1861.49	0.0007098
1871.13	0.0006225
1880.78	0.0006557
1890.42	0.0006219
1900.07	0.0006434
1909.71	0.0007695
1919.36	0.00076
1929	0.00084
1938.65	0.0007296
1948.29	0.0006432
1957.94	0.0005185
1967.58	0.0006067
1977.23	0.0005622
1986.87	0.0004796
1996.52	0.0004492
2006.16	0.0005365
2015.81	0.0004587
2025.45	0.0004772
2035.1	0.000525
2044.74	0.0005564
2054.38	0.000495
2064.03	0.0004802
2073.67	0.0004596
2083.32	0.0004504
2092.96	0.0004535
2102.61	0.0004629
2112.25	0.0004414
2121.9	0.0004325
2131.54	0.0003556
2141.19	0.0003331
2150.83	0.0004382
2160.48	0.0003588
2170.12	0.0003284
2179.77	0.000256
2189.41	0.0003647
2199.06	0.0003205
2208.7	0.0002833
2218.35	0.0003083
2227.99	0.0003548
2237.64	0.0002747
2247.28	0.0002658
2256.92	0.0002443
2266.57	9.473e-05
2276.21	5.944e-05
2285.86	7.565e-05
2295.5	0.0002709
2305.15	0.0003659
2314.79	0.0003867
2324.44	0.0003601
2334.08	0.0002832
2343.73	0.0003357
2353.37	0.0002608
2363.02	0.0002534
2372.66	0.0002923
2382.31	0.000353
2391.95	0.000408
2401.6	0.0003409
2411.24	0.0003046
2420.89	0.0004356
2430.53	0.0003577
2440.18	0.000509
2449.82	0.0004878
2459.47	0.0005024
2469.11	0.0003974
2478.75	0.0004527
2488.4	0.0003333
2498.04	0.0004114
2507.69	0.0004715
2517.33	0.0004668
2526.98	0.0003859
2536.62	0.0004989
2546.27	0.0004382
2555.91	0.0005686
2565.56	0.0005674
2575.2	0.0004961
2584.85	0.0006036
2594.49	0.0005011
2604.14	0.0004564
2613.78	0.0004166
2623.43	0.0003831
2633.07	0.0002769
2642.72	0.0004114
2652.36	0.0003763
2662.01	0.0003699
2671.65	0.0003543
2681.29	0.0003857
2690.94	0.0003972
2700.58	0.000371
2710.23	0.0004909
2719.87	0.000563
2729.52	0.0005367
2739.16	0.0006862
2748.81	0.0006857
2758.45	0.0005749
2768.1	0.0005214
2777.74	0.0005079
2787.39	0.0005991
2797.03	0.0006338
2806.68	0.000654
2816.32	0.0007771
2825.97	0.0007191
2835.61	0.0009845
2845.26	0.0008996
2854.9	0.00131
2864.55	0.00166
2874.19	0.00242
2883.84	0.00323
2893.48	0.00343
2903.12	0.0038
2912.77	0.00388
2922.41	0.00387
2932.06	0.00408
2941.7	0.00482
2951.35	0.00432
2960.99	0.00342
2970.64	0.00394
2980.28	0.00622
2989.93	0.00766
2999.57	0.00508
3009.22	0.00276
3018.86	0.00192
3028.51	0.00178
3038.15	0.00208
3047.8	0.00213
3057.44	0.00206
3067.09	0.00284
3076.73	0.00337
3086.38	0.00268
3096.02	0.00166
3105.67	0.000941
3115.31	0.0008019
3124.95	0.0006577
3134.6	0.0004543
3144.24	0.0005677
3153.89	0.0005357
3163.53	0.0005368
3173.18	0.0004878
3182.82	0.0005702
3192.47	0.0006552
3202.11	0.0006548
3211.76	0.0008231
3221.4	0.0006695
3231.05	0.0004408
3240.69	0.0005821
3250.34	0.000261
3259.98	0.0006231
3269.63	0.00031
3279.27	0.0006198
3288.92	0.0005638
3298.56	0.0006068
3308.21	0.0004664
3317.85	0.0006443
3327.49	0.0006518
3337.14	0.0005449
3346.78	0.0007035
3356.43	0.0006544
3366.07	0.0009029
3375.72	0.0008181
3385.36	0.0008447
3395.01	0.0008227
3404.65	0.0009647
3414.3	0.0007526
3423.94	0.0008494
3433.59	0.00135
3443.23	0.00162
3452.88	0.00222
3462.52	0.00329
3472.17	0.00448
3481.81	0.00357
3491.46	0.00205
3501.1	0.00129
3510.75	0.0009646
3520.39	0.0007226
3530.04	0.0005169
3539.68	0.0006229
3549.32	0.0004927
3558.97	0.0004883
3568.61	0.000585
3578.26	0.0005143
3587.9	0.000582
3597.55	0.0006381
3607.19	0.0003988
3616.84	0.0005043
3626.48	0.0003901
3636.13	0.0005537
3645.77	0.0004513
3655.42	0.0003341
3665.06	0.000373
3674.71	0.0004318
3684.35	0.0005456
3694	0.0005399
3703.64	0.0005087
3713.29	0.0004054
3722.93	0.0004915
3732.58	0.0005695
3742.22	0.000467
3751.86	0.0002628
3761.51	0.0004369
3771.15	0.0004754
3780.8	0.0004815
3790.44	0.000496
3800.09	0.0004091
3809.73	0.0003714
3819.38	0.000532
3829.02	0.0004084
3838.67	0.0005014
3848.31	0.0004259
3857.96	0.0004028
3867.6	0.0004599
3877.25	0.0005901
3886.89	0.0005035
3896.54	0.000555
3906.18	0.0005577
3915.83	0.0002921
3925.47	0.0005351
3935.12	0.0005743
3944.76	0.0006137
3954.41	0.0005826
3964.05	0.0005164
3973.69	0.0006061
3983.34	0.0004947
3992.98	0.000666
