Infrared Spectrum: MORPHINE, A-MONOACETYL-
Formula: C19 H21 N O4
CAS: 2784-73-8
State: SOLID (1.3 mg / 300 mg KBr DISC)
Melting point: 185 C
Class: COBLENTZ III
Instrument: PERKIN-ELMER 21 (GRATING)
Instrument parameters: FILTER AT ABOUT 10 MICRONS
Sampling: TRANSMISSION
Resolution: 2
Origin: BUREAU OF CUSTOMS
1/CM	TRANSMITTANCE
4000	0.7262
3991	0.7265
3982	0.7268
3973	0.7271
3964	0.7274
3955	0.7276
3946	0.728
3937	0.7283
3928	0.7285
3919	0.7288
3910	0.7291
3901	0.7294
3892	0.7297
3883	0.73
3874	0.7301
3865	0.7303
3856	0.7306
3847	0.7307
3838	0.7308
3829	0.7311
3820	0.7312
3811	0.7314
3802	0.7317
3793	0.7318
3784	0.7321
3775	0.7325
3766	0.7326
3757	0.733
3748	0.7334
3739	0.7339
3730	0.7345
3721	0.7351
3712	0.7357
3703	0.7364
3694	0.7371
3685	0.7378
3676	0.7387
3667	0.7393
3658	0.7394
3649	0.7395
3640	0.7396
3631	0.7395
3622	0.7387
3613	0.7374
3604	0.7343
3595	0.7311
3586	0.7256
3577	0.7189
3568	0.7124
3559	0.7058
3550	0.6983
3541	0.6886
3532	0.6768
3523	0.6649
3514	0.6528
3505	0.641
3496	0.6289
3487	0.6168
3478	0.6045
3469	0.5923
3460	0.58
3451	0.5676
3442	0.5551
3433	0.5427
3424	0.53
3415	0.5174
3406	0.5047
3397	0.492
3388	0.4841
3379	0.476
3370	0.4712
3361	0.468
3352	0.4664
3343	0.466
3334	0.4675
3325	0.4704
3316	0.4741
3307	0.4793
3298	0.4845
3289	0.4898
3280	0.495
3271	0.5003
3262	0.5057
3253	0.511
3244	0.5158
3235	0.5203
3226	0.5249
3217	0.5288
3208	0.5318
3199	0.5348
3190	0.5379
3181	0.5409
3172	0.5434
3163	0.5451
3154	0.5468
3145	0.5485
3136	0.5493
3127	0.5499
3118	0.5505
3109	0.5512
3100	0.551
3091	0.5504
3082	0.5498
3073	0.5485
3064	0.547
3055	0.5454
3046	0.5415
3037	0.537
3028	0.5308
3019	0.523
3010	0.5149
3001	0.5069
2992	0.4981
2983	0.489
2974	0.4829
2965	0.4825
2956	0.4815
2947	0.4793
2938	0.4723
2929	0.4608
2920	0.4475
2911	0.4241
2902	0.3871
2893	0.3499
2884	0.3125
2875	0.2997
2866	0.2989
2857	0.3051
2848	0.323
2839	0.346
2830	0.363
2821	0.3675
2812	0.3696
2803	0.3737
2794	0.3818
2785	0.3928
2776	0.4038
2767	0.4145
2758	0.4253
2749	0.4381
2740	0.4512
2731	0.463
2722	0.4743
2713	0.4864
2704	0.4951
2695	0.5031
2686	0.5092
2677	0.5124
2668	0.5158
2659	0.5191
2650	0.5224
2641	0.5262
2632	0.5304
2623	0.5344
2614	0.5383
2605	0.5418
2596	0.5453
2587	0.5487
2578	0.5505
2569	0.552
2560	0.5535
2551	0.5547
2542	0.5558
2533	0.557
2524	0.5592
2515	0.5615
2506	0.5657
2497	0.5699
2488	0.5743
2479	0.58
2470	0.5857
2461	0.5914
2452	0.5974
2443	0.6036
2434	0.6099
2425	0.6162
2416	0.6215
2407	0.6267
2398	0.6321
2389	0.6379
2380	0.6439
2371	0.65
2362	0.6561
2353	0.6615
2344	0.6662
2335	0.6684
2326	0.6705
2317	0.6728
2308	0.6753
2299	0.6808
2290	0.6867
2281	0.6925
2272	0.6981
2263	0.7037
2254	0.7093
2245	0.7125
2236	0.7156
2227	0.7187
2218	0.7215
2209	0.7236
2200	0.7257
2191	0.7278
2182	0.7298
2173	0.7319
2164	0.7342
2155	0.7364
2146	0.7386
2137	0.7408
2128	0.7425
2119	0.7446
2110	0.7468
2101	0.749
2092	0.7514
2083	0.7537
2074	0.7562
2065	0.7586
2056	0.7605
2047	0.7624
2038	0.7642
2029	0.7651
2020	0.766
2011	0.7668
2002	0.7675
1993	0.7682
1984	0.7688
1975	0.7693
1966	0.7699
1957	0.7705
1948	0.7711
1939	0.7715
1930	0.7718
1921	0.7721
1912	0.7724
1903	0.7726
1894	0.773
1885	0.7712
1876	0.7669
1867	0.7625
1858	0.7584
1849	0.755
1840	0.7539
1831	0.7515
1822	0.7439
1813	0.7297
1804	0.7251
1795	0.7218
1786	0.7139
1777	0.6968
1768	0.6725
1759	0.6456
1750	0.6058
1741	0.4297
1732	0.123
1723	0.1654
1714	0.288
1705	0.3705
1696	0.4766
1687	0.5838
1678	0.6212
1669	0.6283
1660	0.6264
1651	0.6167
1642	0.5836
1633	0.4855
1624	0.4914
1615	0.4906
1606	0.408
1597	0.409
1588	0.5244
1579	0.6137
1570	0.6342
1561	0.648
1552	0.6607
1543	0.6691
1534	0.6751
1525	0.676
1516	0.6598
1507	0.4988
1498	0.3724
1489	0.431
1480	0.4408
1471	0.4178
1462	0.3689
1453	0.2298
1444	0.1802
1435	0.3456
1426	0.4073
1417	0.4824
1408	0.5558
1399	0.5623
1390	0.5351
1381	0.4359
1372	0.2511
1363	0.2218
1354	0.368
1345	0.3504
1336	0.3454
1327	0.3345
1318	0.4032
1309	0.4003
1300	0.4758
1291	0.4874
1282	0.3439
1273	0.3139
1264	0.1687
1255	0.0826
1246	0.0373
1237	0.0232
1228	0.0475
1219	0.1014
1210	0.1662
1201	0.2873
1192	0.3412
1183	0.421
1174	0.4207
1165	0.3759
1156	0.3802
1147	0.3712
1138	0.3718
1129	0.3814
1120	0.466
1111	0.4583
1102	0.5395
1093	0.4465
1084	0.5217
1075	0.54
1066	0.4239
1057	0.2378
1048	0.2178
1039	0.3147
1030	0.2133
1021	0.5256
1012	0.5832
1003	0.609
994	0.6375
985	0.4574
976	0.477
967	0.5907
958	0.5319
949	0.485
940	0.5006
931	0.6283
922	0.6317
913	0.4887
904	0.4662
895	0.645
886	0.5499
877	0.5949
868	0.6155
859	0.6745
850	0.6518
841	0.4362
832	0.5764
823	0.6628
814	0.6698
805	0.5562
796	0.4014
787	0.3982
778	0.534
769	0.4695
760	0.412
751	0.5915
742	0.6791
733	0.661
724	0.5857
715	0.6969
706	0.6451
697	0.7006
688	0.6956
679	0.6728
670	0.5948
661	0.5515
652	0.6345
