Infrared Spectrum: 4-ETHYL GUAIACOL
Formula: C9 H12 O2
CAS: 2785-89-9
Class: COBLENTZ
Instrument: Not specified, most likely a prism, grating, or hybrid spectrometer.
Sampling: TRANSMISSION
Path length: 0.0026 CM
Resolution: 4
MICROMETERS	TRANSMITTANCE
2.041	0.899
2.08095	0.892
2.12089	0.918
2.16084	0.919
2.20079	0.891
2.24074	0.887
2.28068	0.906
2.32063	0.913
2.36058	0.904
2.40053	0.918
2.44047	0.906
2.48042	0.892
2.52037	0.913
2.56032	0.929
2.60026	0.931
2.64021	0.939
2.68016	0.924
2.72011	0.914
2.76005	0.821
2.8	0.396
2.83995	0.125
2.8799	0.138
2.91984	0.147
2.95979	0.235
2.99974	0.416
3.03968	0.573
3.07963	0.705
3.11958	0.767
3.15953	0.809
3.19947	0.829
3.23942	0.829
3.27937	0.622
3.31932	0.503
3.35926	0.421
3.39921	0.078
3.43916	0.138
3.47911	0.322
3.51905	0.292
3.559	0.563
3.59895	0.829
3.6389	0.867
3.67884	0.874
3.71879	0.887
3.75874	0.918
3.79869	0.903
3.83863	0.887
3.87858	0.901
3.91853	0.904
3.95848	0.896
3.99842	0.889
4.03837	0.892
4.07832	0.901
4.11826	0.928
4.15821	0.913
4.19816	0.924
4.23811	0.934
4.27805	0.934
4.318	0.944
4.35795	0.913
4.3979	0.938
4.43784	0.951
4.47779	0.961
4.51774	0.958
4.55769	0.961
4.59763	0.934
4.63758	0.948
4.67753	0.949
4.71748	0.964
4.75742	0.971
4.79737	0.958
4.83732	0.909
4.87727	0.877
4.91721	0.909
4.95716	0.928
4.99711	0.941
5.03705	0.953
5.077	0.963
5.11695	0.964
5.1569	0.949
5.19684	0.929
5.23679	0.944
5.27674	0.956
5.31669	0.956
5.35663	0.928
5.39658	0.882
5.43653	0.871
5.47648	0.921
5.51642	0.938
5.55637	0.951
5.59632	0.944
5.63627	0.939
5.67621	0.934
5.71616	0.918
5.75611	0.909
5.79606	0.903
5.836	0.899
5.87595	0.862
5.9159	0.844
5.95585	0.852
5.99579	0.874
6.03574	0.876
6.07569	0.866
6.11563	0.801
6.15558	0.698
6.19553	0.352
6.23548	0.19
6.27542	0.463
6.31537	0.722
6.35532	0.78
6.39527	0.775
6.43521	0.717
6.47516	0.665
6.51511	0.501
6.55506	0.215
6.595	0.023
6.63495	0.02
6.6749	0.175
6.71485	0.329
6.75479	0.366
6.79474	0.252
6.83469	0.04
6.87464	0.048
6.91458	0.095
6.95453	0.153
6.99448	0.046
7.03442	0.26
7.07437	0.566
7.11432	0.635
7.15427	0.653
7.19421	0.591
7.23416	0.418
7.27411	0.257
7.31406	0.173
7.354	0.183
7.39395	0.306
7.4339	0.454
7.47385	0.486
7.51379	0.372
7.55374	0.326
7.59369	0.468
7.63364	0.533
7.67358	0.484
7.71353	0.354
7.75348	0.237
7.79343	0.122
7.83337	0.025
7.87332	0.003
7.91327	0.008
7.95321	0.008
7.99316	0.033
8.03311	0.033
8.07306	0.015
8.113	0.011
8.15295	0.011
8.1929	0.028
8.23285	0.046
8.27279	0.043
8.31274	0.04
8.35269	0.046
8.39264	0.076
8.43258	0.122
8.47253	0.122
8.51248	0.157
8.55243	0.207
8.59237	0.252
8.63232	0.177
8.67227	0.038
8.71222	0.033
8.75216	0.22
8.79211	0.396
8.83206	0.316
8.87201	0.09
8.91195	0.041
8.9519	0.183
8.99185	0.488
9.03179	0.648
9.07174	0.72
9.11169	0.74
9.15164	0.742
9.19158	0.74
9.23153	0.73
9.27148	0.74
9.31143	0.742
9.35137	0.71
9.39132	0.625
9.43127	0.553
9.47122	0.596
9.51116	0.602
9.55111	0.436
9.59106	0.217
9.63101	0.06
9.67095	0.031
9.7109	0.051
9.75085	0.16
9.7908	0.301
9.83074	0.468
9.87069	0.57
9.91064	0.647
9.95058	0.71
9.99053	0.74
10.0305	0.762
10.0704	0.772
10.1104	0.775
10.1503	0.76
10.1903	0.747
10.2302	0.76
10.2702	0.78
10.3101	0.812
10.3501	0.832
10.39	0.847
10.43	0.856
10.4699	0.864
10.5098	0.869
10.5498	0.872
10.5897	0.871
10.6297	0.854
10.6696	0.842
10.7096	0.816
10.7495	0.801
10.7895	0.795
10.8294	0.792
10.8694	0.792
10.9093	0.811
10.9493	0.801
10.9892	0.754
11.0292	0.667
11.0691	0.5
11.1091	0.337
11.149	0.384
11.189	0.573
11.2289	0.727
11.2688	0.78
11.3088	0.795
11.3487	0.794
11.3887	0.777
11.4286	0.757
11.4686	0.725
11.5085	0.675
11.5485	0.623
11.5884	0.533
11.6284	0.413
11.6683	0.326
11.7083	0.255
11.7482	0.219
11.7882	0.23
11.8281	0.321
11.8681	0.494
11.908	0.615
11.948	0.658
11.9879	0.645
12.0278	0.568
12.0678	0.451
12.1077	0.321
12.1477	0.202
12.1876	0.142
12.2276	0.098
12.2675	0.105
12.3075	0.153
12.3474	0.27
12.3874	0.424
12.4273	0.486
12.4673	0.459
12.5072	0.332
12.5472	0.209
12.5871	0.153
12.6271	0.167
12.667	0.222
12.707	0.269
12.7469	0.285
12.7869	0.275
12.8268	0.277
12.8667	0.359
12.9067	0.493
12.9466	0.603
12.9866	0.682
13.0265	0.745
13.0665	0.769
13.1064	0.79
13.1464	0.807
13.1863	0.826
13.2263	0.836
13.2662	0.847
13.3062	0.854
13.3461	0.866
13.3861	0.866
13.426	0.862
13.466	0.861
13.5059	0.862
13.5459	0.864
13.5858	0.857
13.6257	0.852
13.6657	0.844
13.7056	0.826
13.7456	0.816
13.7855	0.814
13.8255	0.809
13.8654	0.809
13.9054	0.824
13.9453	0.817
13.9853	0.812
14.0252	0.806
14.0652	0.789
14.1051	0.754
14.1451	0.717
14.185	0.685
14.225	0.663
14.2649	0.693
14.3049	0.744
14.3448	0.775
14.3847	0.787
14.4247	0.799
14.4646	0.801
14.5046	0.804
14.5445	0.807
14.5845	0.802
14.6244	0.79
14.6644	0.785
14.7043	0.78
14.7443	0.772
14.7842	0.762
14.8242	0.767
14.8641	0.76
14.9041	0.752
14.944	0.747
14.984	0.739
15.0239	0.73
15.0639	0.724
15.1038	0.71
15.1437	0.698
15.1837	0.695
15.2236	0.687
15.2636	0.682
15.3035	0.678
15.3435	0.667
15.3834	0.66
15.4234	0.655
15.4633	0.642
15.5033	0.63
15.5432	0.623
15.5832	0.612
15.6231	0.607
15.6631	0.603
15.703	0.591
15.743	0.578
15.7829	0.563
15.8229	0.56
15.8628	0.56
15.9027	0.56
15.9427	0.56
15.9826	0.571
