Infrared Spectrum: 2,5-Dimethoxybenzoic acid
Formula: C 9 H 10 O 4
CAS: 2785-98-0
State: gas
Instrument: HP-GC/MS/IRD
Origin: NIST Mass Spectrometry Data Center
1/CM	ABSORBANCE
550	0.0031023
562	0.004212
574	0.0049977
586	0.006237
598	0.0065853
610	0.0060669
622	0.0047223
634	0.005913
646	0.0067473
658	0.0037827
670	0.0024705
682	0.0024138
694	0.0039852
706	0.0098334
718	0.0128952
730	0.0065286
742	0.0034506
754	0.0041715
766	0.0026325
778	0.0014175
790	0.0016848
802	0.0039528
814	0.0085536
826	0.0073062
838	0.0026082
850	0.0005751
862	0.0005508
874	0.0012393
886	0.0031347
898	0.0056619
910	0.0033372
922	0.0006561
934	0.0001134
946	8.1e-06
958	0.0002997
970	0.001296
982	0.0030375
994	0.0057672
1006	0.0107811
1018	0.0164916
1030	0.0273618
1042	0.0442422
1054	0.0339228
1066	0.0158274
1078	0.010125
1090	0.0063342
1102	0.0054837
1114	0.0074277
1126	0.0115425
1138	0.0134298
1150	0.0190674
1162	0.0287145
1174	0.0266409
1186	0.02025
1198	0.0212868
1210	0.0358668
1222	0.0545211
1234	0.0436833
1246	0.023571
1258	0.0259443
1270	0.0401193
1282	0.0369846
1294	0.0257256
1306	0.0247212
1318	0.0232875
1330	0.0221211
1342	0.0230931
1354	0.0248508
1366	0.0262197
1378	0.0236034
1390	0.017901
1402	0.021708
1414	0.0449226
1426	0.0429057
1438	0.0234738
1450	0.0210438
1462	0.0232389
1474	0.0311445
1486	0.0527148
1498	0.0711261
1510	0.0306099
1522	0.0084159
1534	0.0038637
1546	0.0027459
1558	0.0028674
1570	0.0044874
1582	0.006237
1594	0.0041229
1606	0.0039771
1618	0.0034506
1630	0.0020169
1642	0.001458
1654	0.0013041
1666	0.0012555
1678	0.0013284
1690	0.0017253
1702	0.0028674
1714	0.0051354
1726	0.009963
1738	0.0205173
1750	0.0327807
1762	0.0620622
1774	0.0765045
1786	0.0317358
1798	0.0121743
1810	0.0056943
1822	0.0032562
1834	0.002106
1846	0.001296
1858	0.000891
1870	0.0007695
1882	0.0005832
1894	0.0003564
1906	0.0002592
1918	0.0002673
1930	0.0003321
1942	0.0004131
1954	0.000486
1966	0.0006642
1978	0.0007209
1990	0.0006318
2002	0.0007128
2014	0.0008181
2026	0.0008343
2038	0.0008019
2050	0.0007776
2062	0.0008586
2074	0.0007371
2086	0.0005589
2098	0.0004617
2110	0.0003726
2122	0.0002592
2134	0.000162
2146	4.05e-05
2158	2.43e-05
2170	5.67e-05
2182	2.43e-05
2194	1.62e-05
2206	3.24e-05
2218	1.62e-05
2230	2.43e-05
2242	9.72e-05
2254	6.48e-05
2266	4.05e-05
2278	1.62e-05
2290	1.62e-05
2302	2.43e-05
2314	6.48e-05
2326	7.29e-05
2338	4.05e-05
2350	8.1e-06
2362	2.43e-05
2374	8.1e-06
2386	4.86e-05
2398	8.91e-05
2410	5.67e-05
2422	2.43e-05
2434	3.24e-05
2446	0.0001134
2458	0.0002187
2470	0.0002754
2482	0.0002916
2494	0.0002997
2506	0.0003321
2518	0.0003402
2530	0.0002997
2542	0.0002511
2554	0.0001782
2566	0.0001863
2578	0.0001701
2590	0.0001701
2602	0.0001458
2614	0.0001782
2626	0.0001458
2638	0.0001701
2650	0.0001377
2662	0.0001215
2674	0.0001296
2686	0.0001134
2698	0.0001539
2710	0.0001701
2722	0.0002754
2734	0.0003078
2746	0.0003726
2758	0.0004212
2770	0.0004536
2782	0.0006399
2794	0.0009639
2806	0.0014661
2818	0.0024462
2830	0.0046818
2842	0.0092988
2854	0.0084159
2866	0.0053703
2878	0.0044469
2890	0.0045522
2902	0.0059211
2914	0.0081405
2926	0.0095013
2938	0.0122553
2950	0.016524
2962	0.0149202
2974	0.0098658
2986	0.0071766
2998	0.0086508
3010	0.0130248
3022	0.0077436
3034	0.0037665
3046	0.0033615
3058	0.0032886
3070	0.0031509
3082	0.0033615
3094	0.002511
3106	0.0015552
3118	0.001215
3130	0.0009234
3142	0.0007533
3154	0.0006237
3166	0.0005427
3178	0.0005265
3190	0.0005589
3202	0.0005994
3214	0.0005913
3226	0.0005913
3238	0.0005994
3250	0.0006561
3262	0.0007533
3274	0.0008586
3286	0.0010287
3298	0.001296
3310	0.0015795
3322	0.0020898
3334	0.0028188
3346	0.0038556
3358	0.005346
3370	0.0070713
3382	0.008505
3394	0.0094203
3406	0.0101412
3418	0.0105867
3430	0.0101169
3442	0.0085941
3454	0.006885
3466	0.0053541
3478	0.0040014
3490	0.002916
3502	0.0022356
3514	0.0018954
3526	0.0017577
3538	0.0015309
3550	0.0018144
3562	0.0075411
3574	0.0118827
3586	0.0050949
3598	0.0010773
3610	0.000567
3622	0.0003807
3634	0.0002268
3646	0.0001458
3658	8.91e-05
3670	4.86e-05
3682	3.24e-05
3694	1.62e-05
3706	4.05e-05
3718	3.24e-05
3730	5.67e-05
3742	5.67e-05
3754	8.1e-06
3766	0
3778	8.1e-06
3790	4.86e-05
3802	0
3814	0
3826	4.86e-05
3838	0
