Infrared Spectrum: 2-Benzothiazolinone, N-methyl-
Formula: C8 H7 N O S
CAS: 2786-62-1
State: SOLUTION (10% CCl4 FOR 3800-1330, 10% CS2 FOR 1330-400 CM^-^1)
Melting point: 75 C
Class: COBLENTZ III
Instrument: BECKMAN IR-9 (GRATING)
Instrument parameters: ORDER CHANGES: 670, 1200, 2000 CM^-^1
Sampling: TRANSMISSION
Path length: 0.010 CM, 0.010 CM
Resolution: 2
Origin: DOW CHEMICAL COMPANY
1/CM	TRANSMITTANCE
3800	0.8534
3791	0.8543
3782	0.8534
3773	0.857
3764	0.8596
3755	0.8612
3746	0.861
3737	0.8611
3728	0.8603
3719	0.8591
3710	0.8604
3701	0.8614
3692	0.8603
3683	0.8594
3674	0.8596
3665	0.8599
3656	0.8599
3647	0.8598
3638	0.8601
3629	0.8604
3620	0.8619
3611	0.862
3602	0.8589
3593	0.8528
3584	0.8539
3575	0.855
3566	0.8546
3557	0.8543
3548	0.8561
3539	0.8563
3530	0.8573
3521	0.8565
3512	0.857
3503	0.8578
3494	0.8587
3485	0.8596
3476	0.8601
3467	0.8605
3458	0.8583
3449	0.8561
3440	0.8539
3431	0.8513
3422	0.8485
3413	0.8448
3404	0.8396
3395	0.8316
3386	0.8184
3377	0.7959
3368	0.7759
3359	0.7793
3350	0.7972
3341	0.8169
3332	0.8328
3323	0.841
3314	0.8478
3305	0.8508
3296	0.8474
3287	0.8454
3278	0.8462
3269	0.8484
3260	0.8516
3251	0.8542
3242	0.8559
3233	0.8562
3224	0.8565
3215	0.8559
3206	0.8535
3197	0.8517
3188	0.849
3179	0.8455
3170	0.8445
3161	0.8442
3152	0.8441
3143	0.8421
3134	0.842
3125	0.8394
3116	0.8368
3107	0.8284
3098	0.7832
3089	0.7594
3080	0.679
3071	0.714
3062	0.738
3053	0.7385
3044	0.7528
3035	0.7956
3026	0.7941
3017	0.8035
3008	0.8108
2999	0.8013
2990	0.7747
2981	0.6968
2972	0.7226
2963	0.7244
2954	0.6532
2945	0.6374
2936	0.6797
2927	0.7558
2918	0.7499
2909	0.7736
2900	0.7647
2891	0.7162
2882	0.8112
2873	0.8236
2864	0.8481
2855	0.8573
2846	0.8591
2837	0.849
2828	0.8339
2819	0.8492
2810	0.8564
2801	0.8614
2792	0.8642
2783	0.8659
2774	0.8667
2765	0.8667
2756	0.8676
2747	0.869
2738	0.8692
2729	0.8679
2720	0.8645
2711	0.8592
2702	0.8534
2693	0.8516
2684	0.856
2675	0.8588
2666	0.8589
2657	0.8481
2648	0.8448
2639	0.8501
2630	0.8597
2621	0.8639
2612	0.8622
2603	0.8582
2594	0.8592
2585	0.8626
2576	0.8644
2567	0.8628
2558	0.8622
2549	0.8656
2540	0.8611
2531	0.8644
2522	0.8715
2513	0.8739
2504	0.8758
2495	0.876
2486	0.8726
2477	0.8733
2468	0.8722
2459	0.8712
2450	0.873
2441	0.8782
2432	0.8784
2423	0.8774
2414	0.8755
2405	0.875
2396	0.8733
2387	0.8733
2378	0.8752
2369	0.8747
2360	0.8733
2351	0.8715
2342	0.8652
2333	0.8583
2324	0.8615
2315	0.8659
2306	0.8679
2297	0.871
2288	0.8725
2279	0.8732
2270	0.8719
2261	0.8679
2252	0.856
2243	0.8621
2234	0.8702
2225	0.8759
2216	0.8775
2207	0.8772
2198	0.8755
2189	0.8721
2180	0.8702
2171	0.8713
2162	0.8763
2153	0.8739
2144	0.8668
2135	0.8675
2126	0.8736
2117	0.8796
2108	0.8836
2099	0.8813
2090	0.876
2081	0.8723
2072	0.8728
2063	0.8755
2054	0.8742
2045	0.8675
2036	0.8618
2027	0.8554
2018	0.8409
2009	0.828
2000	0.8356
1991	0.8488
1982	0.8574
1973	0.8601
1964	0.8622
1955	0.866
1946	0.8638
1937	0.8382
1928	0.8198
1919	0.8522
1910	0.8567
1901	0.8468
1892	0.8161
1883	0.7417
1874	0.7875
1865	0.836
1856	0.8324
1847	0.8232
1838	0.838
1829	0.8242
1820	0.8186
1811	0.8135
1802	0.828
1793	0.8423
1784	0.8354
1775	0.7972
1766	0.7238
1757	0.6921
1748	0.4865
1739	0.5406
1730	0.284
1721	0.3135
1712	0.2456
1703	0.0135
1694	0.0102
1685	0.01
1676	0.0107
1667	0.0726
1658	0.4092
1649	0.5578
1640	0.6658
1631	0.755
1622	0.7634
1613	0.7324
1604	0.5997
1595	0.0748
1586	0.2347
1577	0.5799
1568	0.6252
1559	0.6249
1550	0.6887
1541	0.694
1532	0.7334
1523	0.753
1514	0.7189
1505	0.7266
1496	0.6973
1487	0.5161
1478	0.0106
1469	0.1638
1460	0.4402
1451	0.4272
1442	0.67
1433	0.7247
1424	0.6793
1415	0.5035
1406	0.7222
1397	0.7451
1388	0.7504
1379	0.7461
1370	0.7402
1361	0.6052
1352	0.4089
1343	0.4679
1334	0.5035
1325	0.0819
1316	0.3776
1307	0.3597
1298	0.3748
1289	0.6624
1280	0.7403
1271	0.7421
1262	0.6425
1253	0.5242
1244	0.1025
1235	0.3693
1226	0.7037
1217	0.7405
1208	0.7504
1199	0.7493
1190	0.7424
1181	0.7244
1172	0.6544
1163	0.5653
1154	0.6637
1145	0.629
1136	0.3876
1127	0.1247
1118	0.4077
1109	0.7043
1100	0.7517
1091	0.7482
1082	0.7653
1073	0.7585
1064	0.6959
1055	0.5949
1046	0.742
1037	0.6684
1028	0.2674
1019	0.6894
1010	0.5653
1001	0.4035
992	0.7283
983	0.7429
974	0.7704
965	0.7696
956	0.7802
947	0.7862
938	0.7851
929	0.7583
920	0.6886
911	0.7901
902	0.7903
893	0.7773
884	0.6902
875	0.3313
866	0.6534
857	0.7109
848	0.7095
839	0.7264
830	0.7884
821	0.7978
812	0.7996
803	0.801
794	0.7987
785	0.796
776	0.7864
767	0.7558
758	0.6362
749	0.1608
740	0.0183
731	0.6907
722	0.4797
713	0.7204
704	0.7758
695	0.737
686	0.6365
677	0.7944
668	0.7894
659	0.7091
650	0.5221
641	0.7596
632	0.7879
623	0.7952
614	0.8033
605	0.8094
596	0.8145
587	0.8137
578	0.8117
569	0.8075
560	0.8006
551	0.7839
542	0.7184
533	0.1696
524	0.6888
515	0.7567
506	0.6716
497	0.7182
488	0.7144
479	0.6397
470	0.7109
461	0.6802
452	0.6332
443	0.3174
434	0.4898
425	0.3703
416	0.3018
407	0.2808
