Infrared Spectrum: trans-3-Methyl-1,3-pentadiene
Formula: C 6 H 10
CAS: 2787-43-1
State: gas
Instrument: HP-GC/MS/IRD
Origin: NIST Mass Spectrometry Data Center
1/CM	ABSORBANCE
550	0.0004536
562	0.0001596
574	8.4e-06
586	0.0002121
598	0.0001659
610	0.0001554
622	0.0002709
634	0.0002016
646	0.0003969
658	0.0003297
670	0.0005292
682	0.0005817
694	0.0005733
706	0.0005754
718	0.0006615
730	0.0008421
742	0.0011088
754	0.0013818
766	0.0015204
778	0.0012117
790	0.0015771
802	0.0029106
814	0.0049917
826	0.0081669
838	0.006699
850	0.0050169
862	0.0046095
874	0.0072597
886	0.0110943
898	0.0183519
910	0.0129696
922	0.0082047
934	0.0043722
946	0.0032025
958	0.0040509
970	0.0059661
982	0.0084588
994	0.0080766
1006	0.0063651
1018	0.0041307
1030	0.0029274
1042	0.0025326
1054	0.0028035
1066	0.0044436
1078	0.0055566
1090	0.0045381
1102	0.0023583
1114	0.0012306
1126	0.0009618
1138	0.0008442
1150	0.0007098
1162	0.0006657
1174	0.0005985
1186	0.0006027
1198	0.0007371
1210	0.0008568
1222	0.0009366
1234	0.0009198
1246	0.0008169
1258	0.0008757
1270	0.0009177
1282	0.0011823
1294	0.0012999
1306	0.0013713
1318	0.0014805
1330	0.0017976
1342	0.002394
1354	0.0028161
1366	0.003549
1378	0.0046368
1390	0.0053508
1402	0.0052248
1414	0.0049602
1426	0.0046578
1438	0.0043176
1450	0.0039312
1462	0.0033411
1474	0.0028266
1486	0.0024549
1498	0.0022869
1510	0.0022176
1522	0.0021756
1534	0.0022953
1546	0.0025851
1558	0.0026166
1570	0.0026103
1582	0.0028581
1594	0.0052899
1606	0.0073437
1618	0.0079863
1630	0.0062832
1642	0.0062286
1654	0.0053088
1666	0.0028938
1678	0.0014448
1690	0.0010122
1702	0.0008127
1714	0.0006363
1726	0.0005313
1738	0.0004389
1750	0.0004788
1762	0.0005733
1774	0.0009555
1786	0.0021294
1798	0.0026187
1810	0.0023877
1822	0.0013734
1834	0.0011487
1846	0.0011382
1858	0.0010626
1870	0.0008274
1882	0.0004956
1894	0.0003276
1906	0.0002961
1918	0.0002478
1930	0.0002457
1942	0.0002751
1954	0.000336
1966	0.0003969
1978	0.0003465
1990	0.0002835
2002	0.0001911
2014	0.0001638
2026	0.0001911
2038	0.0001491
2050	0.0001323
2062	0.0001407
2074	0.0001302
2086	0.0001554
2098	0.0001344
2110	0.0001596
2122	0.0001092
2134	8.61e-05
2146	0.0001008
2158	0.0001197
2170	5.04e-05
2182	7.35e-05
2194	6.3e-05
2206	3.15e-05
2218	1.26e-05
2230	1.47e-05
2242	1.47e-05
2254	2.73e-05
2266	5.25e-05
2278	6.3e-05
2290	2.94e-05
2302	7.56e-05
2314	0.0001008
2326	6.72e-05
2338	5.88e-05
2350	0.0001344
2362	0.0001323
2374	0.0002058
2386	0.0001869
2398	0.0002373
2410	0.0002163
2422	0.000231
2434	0.0002205
2446	0.0002268
2458	0.0002079
2470	0.0002205
2482	0.0001722
2494	0.0001302
2506	0.000105
2518	0.0001365
2530	0.000105
2542	0.0001113
2554	9.66e-05
2566	0.000105
2578	9.87e-05
2590	8.19e-05
2602	9.66e-05
2614	0.0001134
2626	0.0001155
2638	0.0001113
2650	0.0001197
2662	0.0001764
2674	0.0002184
2686	0.000231
2698	0.0003423
2710	0.0004977
2722	0.0007119
2734	0.0007938
2746	0.0008652
2758	0.000966
2770	0.0008799
2782	0.0007812
2794	0.0009429
2806	0.0011865
2818	0.0016317
2830	0.0024192
2842	0.0038829
2854	0.0068754
2866	0.0106197
2878	0.0121401
2890	0.0119196
2902	0.0127575
2914	0.0172767
2926	0.0207585
2938	0.0203952
2950	0.0155631
2962	0.0126252
2974	0.0126798
2986	0.0144732
2998	0.0171108
3010	0.0180516
3022	0.0172032
3034	0.0147882
3046	0.0120624
3058	0.0093009
3070	0.0074235
3082	0.008211
3094	0.0082992
3106	0.0071883
3118	0.0032949
3130	0.0015876
3142	0.0009135
3154	0.0006363
3166	0.0004536
3178	0.0004704
3190	0.0003906
3202	0.0003444
3214	0.0003129
3226	0.0002625
3238	0.0002457
3250	0.0002352
3262	0.0002184
3274	0.0001995
3286	0.0001953
3298	0.0001701
3310	0.0001554
3322	0.0002058
3334	0.000189
3346	0.0001554
3358	0.0001449
3370	0.0001239
3382	0.0001491
3394	0.0001134
3406	0.0001512
3418	0.0001428
3430	0.0001407
3442	0.0001008
3454	4.83e-05
3466	6.09e-05
3478	6.93e-05
3490	0.0001659
3502	0.0001722
3514	0.0001113
3526	0.0001302
3538	0.000126
3550	9.87e-05
3562	0.0001134
3574	0.0001302
3586	8.19e-05
3598	3.15e-05
3610	8.4e-05
3622	0.0001239
3634	7.77e-05
3646	6.51e-05
3658	5.04e-05
3670	0.0001113
3682	0.0001407
3694	6.93e-05
3706	7.56e-05
3718	0.0001008
3730	7.77e-05
3742	7.35e-05
3754	8.19e-05
3766	4.62e-05
3778	9.45e-05
3790	0.0001134
3802	5.25e-05
3814	1.89e-05
3826	0.0001533
3838	0.0001344
