Infrared Spectrum: cis-3-Methyl-1,3-pentadiene
Formula: C 6 H 10
CAS: 2787-45-3
State: gas
Instrument: HP-GC/MS/IRD
Origin: NIST Mass Spectrometry Data Center
1/CM	ABSORBANCE
550	0.0004032
562	0.0005019
574	0.0003213
586	0.0003234
598	0.0001659
610	0.0001533
622	6.72e-05
634	6.3e-06
646	0.0002688
658	0.0002121
670	0.0004935
682	0.0010395
694	0.0013251
706	0.0013419
718	0.00126
730	0.0013377
742	0.0013272
754	0.0008967
766	0.0005964
778	0.0008358
790	0.0015813
802	0.0028224
814	0.0048573
826	0.0031899
838	0.0019446
850	0.0011172
862	0.0012768
874	0.0031353
886	0.0066864
898	0.0118398
910	0.0136857
922	0.0100863
934	0.0055419
946	0.0027594
958	0.0026796
970	0.0038115
982	0.005901
994	0.0054369
1006	0.0041559
1018	0.0028728
1030	0.0027321
1042	0.0027846
1054	0.0027993
1066	0.002604
1078	0.0026733
1090	0.0037338
1102	0.003738
1114	0.0028623
1126	0.0010101
1138	0.0003738
1150	0.000252
1162	0.0001974
1174	0.0002499
1186	0.0002331
1198	0.0002562
1210	0.0003822
1222	0.0007329
1234	0.0010332
1246	0.001092
1258	0.0007602
1270	0.0006132
1282	0.0007287
1294	0.0007602
1306	0.000714
1318	0.0007518
1330	0.0008736
1342	0.0011529
1354	0.0018123
1366	0.0030555
1378	0.0038073
1390	0.0043218
1402	0.0032487
1414	0.0039522
1426	0.0048447
1438	0.0052311
1450	0.0051513
1462	0.0042042
1474	0.0034608
1486	0.0022617
1498	0.0016569
1510	0.0014133
1522	0.0013356
1534	0.0012936
1546	0.0012285
1558	0.001323
1570	0.0020475
1582	0.0035973
1594	0.0048888
1606	0.0049686
1618	0.0035322
1630	0.0028371
1642	0.0027825
1654	0.0022743
1666	0.0013293
1678	0.0006846
1690	0.0005292
1702	0.000336
1714	0.0002961
1726	0.0003255
1738	0.0002709
1750	0.000231
1762	0.0002163
1774	0.0002772
1786	0.0006468
1798	0.0015162
1810	0.0023037
1822	0.0024507
1834	0.0018648
1846	0.001218
1858	0.0008568
1870	0.0004998
1882	0.0003234
1894	0.0002268
1906	0.0001596
1918	0.0001323
1930	0.0001491
1942	0.0001491
1954	0.0002394
1966	0.0002394
1978	0.0001764
1990	9.66e-05
2002	7.14e-05
2014	7.35e-05
2026	0.0001008
2038	6.72e-05
2050	0.000105
2062	0.000105
2074	9.45e-05
2086	8.19e-05
2098	7.77e-05
2110	7.56e-05
2122	3.78e-05
2134	1.05e-05
2146	5.25e-05
2158	6.3e-06
2170	1.89e-05
2182	2.94e-05
2194	5.88e-05
2206	2.52e-05
2218	5.25e-05
2230	3.36e-05
2242	2.94e-05
2254	2.1e-05
2266	5.25e-05
2278	7.35e-05
2290	5.04e-05
2302	6.72e-05
2314	7.98e-05
2326	7.77e-05
2338	0.0001071
2350	0.0001029
2362	0.0001239
2374	0.0001365
2386	0.0002079
2398	0.0002058
2410	0.0002268
2422	0.0002142
2434	0.0001911
2446	0.0002079
2458	0.0002352
2470	0.0002037
2482	0.0002016
2494	0.0001743
2506	0.0001344
2518	0.000126
2530	0.0001638
2542	0.0001407
2554	0.0001155
2566	0.0001386
2578	0.0001722
2590	0.0001197
2602	0.0001344
2614	0.0001785
2626	0.0001911
2638	0.0002331
2650	0.0001806
2662	0.000231
2674	0.0002709
2686	0.000336
2698	0.0004515
2710	0.0005166
2722	0.0007098
2734	0.001008
2746	0.0010962
2758	0.0010227
2770	0.0008211
2782	0.0008337
2794	0.0010605
2806	0.001323
2818	0.0015813
2830	0.0021714
2842	0.0032424
2854	0.0061551
2866	0.0098112
2878	0.011424
2890	0.0119133
2902	0.0128289
2914	0.0163884
2926	0.0202335
2938	0.021
2950	0.0191415
2962	0.0153867
2974	0.016254
2986	0.0158781
2998	0.0145593
3010	0.0143178
3022	0.0143913
3034	0.0124908
3046	0.0086751
3058	0.0060039
3070	0.0056532
3082	0.00735
3094	0.0079569
3106	0.0073668
3118	0.0035721
3130	0.0017598
3142	0.0011718
3154	0.0009576
3166	0.0007371
3178	0.0006573
3190	0.0005943
3202	0.000504
3214	0.0004683
3226	0.0003969
3238	0.0003633
3250	0.0003675
3262	0.0002751
3274	0.000252
3286	0.0002268
3298	0.0001701
3310	0.0002583
3322	0.0001911
3334	0.00021
3346	0.0001302
3358	0.0001281
3370	0.0001974
3382	0.0001344
3394	0.000168
3406	0.000105
3418	0.0001512
3430	0.0001113
3442	0.0001302
3454	0.0001323
3466	7.14e-05
3478	9.87e-05
3490	0.0001113
3502	9.87e-05
3514	0.0001428
3526	0.0001092
3538	0.0001344
3550	8.19e-05
3562	4.41e-05
3574	0.0001134
3586	0.0001239
3598	0.0001071
3610	7.14e-05
3622	0.0001344
3634	2.94e-05
3646	0
3658	0.000126
3670	0.0001281
3682	9.66e-05
3694	6.93e-05
3706	4.41e-05
3718	0.0001071
3730	0.000126
3742	6.51e-05
3754	7.14e-05
3766	9.24e-05
3778	0.0002583
3790	0.0001071
3802	0.0001155
3814	0.0001008
3826	0.0001323
3838	0.0001239
