Infrared Spectrum: 9-Nitrosocarbazole
Formula: C 12 H 8 N 2 O
CAS: 2788-23-0
State: gas
Instrument: HP-GC/MS/IRD
Origin: NIST Mass Spectrometry Data Center
1/CM	ABSORBANCE
550	0.0013216
562	0.0010536
574	0.000492
586	0.0002816
598	0.0002448
610	0.0004744
622	0.000876
634	0.000528
646	0.0004728
658	0.000344
670	0.0003384
682	0.000608
694	0.0010072
706	0.0025736
718	0.0062016
730	0.006476
742	0.0067392
754	0.0046896
766	0.0014496
778	0.0006
790	0.0004008
802	0.0003416
814	0.0002712
826	0.0002864
838	0.0004312
850	0.0002968
862	0.0003552
874	0.0002104
886	0.0002264
898	0.0002264
910	0.0002152
922	0.0002392
934	0.0001568
946	0.0001152
958	9.12e-05
970	0.0001256
982	0.0002392
994	0.0005312
1006	0.0010464
1018	0.0004504
1030	0.0002328
1042	0.0001152
1054	0.0001168
1066	7.6e-05
1078	0.000132
1090	0.0001056
1102	0.000316
1114	0.0010816
1126	0.0007768
1138	0.000348
1150	0.000616
1162	0.0005088
1174	0.0003136
1186	0.0004544
1198	0.0004896
1210	0.0009904
1222	0.0040024
1234	0.0079792
1246	0.0016288
1258	0.0004752
1270	0.000376
1282	0.0003744
1294	0.0003048
1306	0.001296
1318	0.0044424
1330	0.0026112
1342	0.00106
1354	0.0006504
1366	0.000484
1378	0.0012824
1390	0.0015624
1402	0.0005128
1414	0.0001712
1426	0.000312
1438	0.0013608
1450	0.0031072
1462	0.0038296
1474	0.001332
1486	0.0027576
1498	0.0027824
1510	0.0005528
1522	0.0001848
1534	0.0001504
1546	0.0001552
1558	0.0003008
1570	0.0006008
1582	0.0010336
1594	0.0011816
1606	0.0021432
1618	0.0014168
1630	0.0004824
1642	0.0004336
1654	0.0003488
1666	0.0002416
1678	0.0002248
1690	0.0001488
1702	7.76e-05
1714	5.28e-05
1726	8.96e-05
1738	9.2e-05
1750	0.0001464
1762	0.0002824
1774	0.0001512
1786	0.0001376
1798	0.0002
1810	0.0001072
1822	4.32e-05
1834	0.0001432
1846	0.0002512
1858	0.0001416
1870	0.000244
1882	0.0003968
1894	0.000212
1906	0.0002536
1918	0.0004536
1930	0.0001368
1942	3.2e-05
1954	3.92e-05
1966	2.8e-05
1978	4.16e-05
1990	2.64e-05
2002	8e-07
2014	3.52e-05
2026	1.36e-05
2038	4e-05
2050	2.24e-05
2062	2.16e-05
2074	4.4e-05
2086	4.4e-05
2098	3.6e-05
2110	7.6e-05
2122	7.36e-05
2134	7.12e-05
2146	4.56e-05
2158	2.24e-05
2170	5.44e-05
2182	2.24e-05
2194	3.12e-05
2206	6.08e-05
2218	3.28e-05
2230	6.48e-05
2242	7.84e-05
2254	4.72e-05
2266	6.96e-05
2278	4.4e-05
2290	6.24e-05
2302	7.44e-05
2314	6.08e-05
2326	5.68e-05
2338	5.84e-05
2350	4.88e-05
2362	2.48e-05
2374	5.52e-05
2386	7.92e-05
2398	4.08e-05
2410	7.44e-05
2422	6.48e-05
2434	9.28e-05
2446	9.84e-05
2458	0.0001032
2470	0.0001184
2482	0.0002064
2494	0.0001944
2506	0.0001376
2518	8e-05
2530	8.08e-05
2542	6.88e-05
2554	9.84e-05
2566	7.6e-05
2578	4.56e-05
2590	0.000136
2602	0.0001712
2614	0.0001136
2626	0.0001248
2638	0.0001608
2650	0.0001424
2662	0.0001816
2674	9.76e-05
2686	3.76e-05
2698	9.04e-05
2710	8.88e-05
2722	6.32e-05
2734	3.04e-05
2746	8.88e-05
2758	8.72e-05
2770	0.0001168
2782	7.12e-05
2794	7.2e-05
2806	0.0001104
2818	0.0001136
2830	0.0001128
2842	6.4e-05
2854	0.0001024
2866	9.12e-05
2878	3.52e-05
2890	0.000176
2902	0.0001968
2914	0.0001576
2926	0.0001256
2938	0.0001632
2950	0.0001072
2962	0.0001064
2974	0.0001096
2986	0.000168
2998	0.0001648
3010	0.0004472
3022	0.001032
3034	0.001616
3046	0.0020912
3058	0.0030792
3070	0.0046736
3082	0.0029912
3094	0.0013752
3106	0.0005624
3118	0.0002064
3130	0.0001416
3142	0.0001368
3154	0.0001528
3166	0.0001832
3178	0.0001536
3190	0.000132
3202	8.4e-05
3214	0.000108
3226	0.0001016
3238	0.0001552
3250	1.44e-05
3262	5.12e-05
3274	8.8e-06
3286	0.0001032
3298	0.0001128
3310	4.4e-05
3322	3.12e-05
3334	9.52e-05
3346	0.0001096
3358	6.32e-05
3370	0.0001304
3382	7.44e-05
3394	9.52e-05
3406	0.0001344
3418	0.0001344
3430	0.0001536
3442	0.0002224
3454	0.0002504
3466	0.0005112
3478	0.001032
3490	0.0018584
3502	0.0021784
3514	0.00152
3526	0.0006016
3538	0.0003496
3550	0.0001568
3562	0.0001488
3574	0.00018
3586	0.0001296
3598	0.0001344
3610	8.24e-05
3622	0.0001128
3634	0.0001512
3646	8.88e-05
3658	0.0001472
3670	9.84e-05
3682	0.0001048
3694	8.16e-05
3706	6.72e-05
3718	0.0002496
3730	8.4e-05
3742	7.2e-06
3754	0.0001592
3766	0.0001152
3778	7.92e-05
3790	0.0001816
3802	0.000168
3814	0.0002112
3826	0.0001968
3838	8.96e-05
