Infrared Spectrum: 5-Isobutyl-5-methylhydantoin
Formula: C 8 H 14 N 2 O 2
CAS: 27886-67-5
State: gas
Origin: EPA-IR VAPOR PHASE LIBRARY
1/CM	ABSORBANCE
549.8	0.015381
559.445	0.023471
569.09	0.022161
578.734	0.015811
588.379	0.011921
598.024	0.008441
607.669	0.005681
617.313	0.005081
626.958	0.004661
636.603	0.004391
646.248	0.003171
655.893	0.001941
665.537	0.001341
675.182	0.001381
684.827	0.001421
694.472	0.001561
704.116	0.001721
713.761	0.002011
723.406	0.002631
733.051	0.003981
742.695	0.005301
752.34	0.006791
761.985	0.006551
771.63	0.004281
781.275	0.002761
790.919	0.001811
800.564	0.001401
810.209	0.001351
819.854	0.001281
829.498	0.001251
839.143	0.0009759
848.788	0.0009708
858.433	0.0010291
868.078	0.0010295
877.722	0.001641
887.367	0.001331
897.012	0.001351
906.657	0.001431
916.301	0.001521
925.946	0.001521
935.591	0.001651
945.236	0.002731
954.88	0.004531
964.525	0.006621
974.17	0.008261
983.815	0.008911
993.46	0.006331
1003.1	0.003261
1012.75	0.001701
1022.39	0.001381
1032.04	0.001631
1041.68	0.002311
1051.33	0.002801
1060.97	0.003751
1070.62	0.004351
1080.26	0.003981
1089.91	0.003781
1099.55	0.004931
1109.2	0.005661
1118.84	0.006221
1128.49	0.006211
1138.13	0.005201
1147.78	0.004811
1157.42	0.004891
1167.07	0.005321
1176.71	0.005581
1186.36	0.005711
1196	0.005811
1205.64	0.006011
1215.29	0.006281
1224.93	0.007051
1234.58	0.005601
1244.22	0.004691
1253.87	0.004541
1263.51	0.005741
1273.16	0.008521
1282.8	0.011101
1292.45	0.013111
1302.09	0.012881
1311.74	0.011021
1321.38	0.011131
1331.03	0.013261
1340.67	0.014411
1350.32	0.017621
1359.96	0.026911
1369.61	0.032511
1379.25	0.027181
1388.9	0.020891
1398.54	0.012251
1408.18	0.005701
1417.83	0.003251
1427.47	0.002751
1437.12	0.003061
1446.76	0.003831
1456.41	0.005231
1466.05	0.005501
1475.7	0.004481
1485.34	0.003141
1494.99	0.002381
1504.63	0.001961
1514.28	0.001821
1523.92	0.001591
1533.57	0.001261
1543.21	0.0010896
1552.86	0.000906
1562.5	0.0008664
1572.15	0.0009003
1581.79	0.0008129
1591.44	0.0008535
1601.08	0.0009222
1610.73	0.0008685
1620.37	0.0008869
1630.01	0.0008646
1639.66	0.0009335
1649.3	0.0010917
1658.95	0.001351
1668.59	0.001471
1678.24	0.001761
1687.88	0.002151
1697.53	0.002961
1707.17	0.004131
1716.82	0.005641
1726.46	0.008371
1736.11	0.013861
1745.75	0.026031
1755.4	0.065751
1765.04	0.167081
1774.69	0.205531
1784.33	0.099631
1793.98	0.048851
1803.62	0.072951
1813.27	0.064271
1822.91	0.023601
1832.55	0.009401
1842.2	0.005691
1851.84	0.004081
1861.49	0.003221
1871.13	0.002581
1880.78	0.002131
1890.42	0.001941
1900.07	0.001801
1909.71	0.001781
1919.36	0.001851
1929	0.002081
1938.65	0.002311
1948.29	0.002371
1957.94	0.002061
1967.58	0.001681
1977.23	0.001361
1986.87	0.0010753
1996.52	0.0009619
2006.16	0.0008439
2015.81	0.0007978
2025.45	0.0007314
2035.1	0.0006696
2044.74	0.0006312
2054.38	0.0005208
2064.03	0.0004975
2073.67	0.0005997
2083.32	0.0005111
2092.96	0.0005726
2102.61	0.0005361
2112.25	0.0005145
2121.9	0.0004407
2131.54	0.0004317
2141.19	0.0004361
2150.83	0.000336
2160.48	0.0003369
2170.12	0.000434
2179.77	0.0003861
2189.41	0.0003884
2199.06	0.0004097
2208.7	0.0003849
2218.35	0.0004068
2227.99	0.0003513
2237.64	0.0003721
2247.28	0.0005363
2256.92	0.0004819
2266.57	0.0004186
2276.21	0.0004127
2285.86	0.0004574
2295.5	0.0005084
2305.15	0.0004896
2314.79	0.0004365
2324.44	0.0005326
2334.08	0.0004899
2343.73	0.000361
2353.37	0.0003786
2363.02	0.0004931
2372.66	0.000472
2382.31	0.0005247
2391.95	0.0006582
2401.6	0.0006832
2411.24	0.0006963
2420.89	0.000618
2430.53	0.0006255
2440.18	0.0006134
2449.82	0.0006369
2459.47	0.0005792
2469.11	0.0004528
2478.75	0.0004512
2488.4	0.0005691
2498.04	0.000529
2507.69	0.000485
2517.33	0.0004719
2526.98	0.0003771
2536.62	0.0003944
2546.27	0.00032067
2555.91	0.00032312
2565.56	0.0004607
2575.2	0.0006202
2584.85	0.0004931
2594.49	0.0004055
2604.14	0.0005812
2613.78	0.0004931
2623.43	0.0005674
2633.07	0.0005894
2642.72	0.0005394
2652.36	0.0006459
2662.01	0.0006355
2671.65	0.0006844
2681.29	0.0006265
2690.94	0.0006622
2700.58	0.0006154
2710.23	0.0006977
2719.87	0.0007264
2729.52	0.0008195
2739.16	0.0007577
2748.81	0.000841
2758.45	0.0006561
2768.1	0.0007588
2777.74	0.0008203
2787.39	0.0006674
2797.03	0.0007758
2806.68	0.0009343
2816.32	0.0010769
2825.97	0.001391
2835.61	0.001631
2845.26	0.002311
2854.9	0.002851
2864.55	0.003781
2874.19	0.006171
2883.84	0.008651
2893.48	0.008501
2903.12	0.009651
2912.77	0.010651
2922.41	0.011191
2932.06	0.013611
2941.7	0.015021
2951.35	0.013891
2960.99	0.018611
2970.64	0.024771
2980.28	0.019391
2989.93	0.011141
2999.57	0.005891
3009.22	0.002561
3018.86	0.001431
3028.51	0.0010076
3038.15	0.0008147
3047.8	0.0008422
3057.44	0.0007547
3067.09	0.0007795
3076.73	0.0007936
3086.38	0.0008505
3096.02	0.0009372
3105.67	0.0008565
3115.31	0.0008168
3124.95	0.0008594
3134.6	0.0009189
3144.24	0.0008975
3153.89	0.001011
3163.53	0.0009443
3173.18	0.0006745
3182.82	0.000763
3192.47	0.0007231
3202.11	0.0005821
3211.76	0.0005417
3221.4	0.0005615
3231.05	0.0004875
3240.69	0.0004314
3250.34	0.0004193
3259.98	0.00030347
3269.63	0.00026428
3279.27	0.0004092
3288.92	0.00030721
3298.56	0.0002151
3308.21	0.0003416
3317.85	0.0003552
3327.49	0.0003507
3337.14	0.0004589
3346.78	0.0004177
3356.43	0.0004205
3366.07	0.00031237
3375.72	0.0003327
3385.36	0.00025962
3395.01	0.0004005
3404.65	0.0004206
3414.3	0.0003751
3423.94	0.0006114
3433.59	0.0009072
3443.23	0.001591
3452.88	0.003381
3462.52	0.008851
3472.17	0.019481
3481.81	0.026531
3491.46	0.016371
3501.1	0.004351
3510.75	0.001561
3520.39	0.001251
3530.04	0.001291
3539.68	0.001521
3549.32	0.001461
3558.97	0.001641
3568.61	0.001481
3578.26	0.001271
3587.9	0.0007377
3597.55	0.0007713
3607.19	0.0007203
3616.84	0.0006034
3626.48	0.0006393
3636.13	0.0004421
3645.77	0.00030575
3655.42	0.0001667
3665.06	0.00024874
3674.71	0.00022572
3684.35	0.000121
3694	0.0001809
3703.64	0.0001339
3713.29	0.0002842
3722.93	0
3732.58	3.8e-05
3742.22	0.00022805
3751.86	9.4e-05
3761.51	0.000433
3771.15	0.0001751
3780.8	0.00029639
3790.44	0.0003557
3800.09	0.00025448
3809.73	0.0003844
3819.38	0.0004643
3829.02	0.0003988
3838.67	0.000230642
3848.31	0.00026241
3857.96	0.00031499
3867.6	0.0001912
3877.25	0.00032378
3886.89	0.0002124
3896.54	0.0002023
3906.18	0.0002091
3915.83	0.0002582
3925.47	0.000233488
3935.12	0.00012
3944.76	0.000111
3954.41	0.000117
3964.05	0.0001759
3973.69	0.00026566
3983.34	0.0003513
3992.98	0.0003537
