Infrared Spectrum: N-VERATRYLIDENE ANILINE
Formula: C15 H15 N O2
CAS: 27895-67-6
State: SOLUTION (10% CCl4 FOR 5000-1300, 10% CS2 FOR 1300-625 CM^-^1)
Class: COBLENTZ
Instrument: Not specified, most likely a prism, grating, or hybrid spectrometer.
Sampling: TRANSMISSION
Path length: 0.011 CM, 0.011 CM
Resolution: 4
Origin: DOW CHEMICAL COMPANY
MICROMETERS	TRANSMITTANCE
2.027	0.839
2.06772	0.839
2.10844	0.84
2.14915	0.837
2.18987	0.84
2.23059	0.835
2.27131	0.835
2.31202	0.842
2.35274	0.846
2.39346	0.852
2.43418	0.849
2.47489	0.847
2.51561	0.859
2.55633	0.861
2.59705	0.861
2.63776	0.861
2.67848	0.864
2.7192	0.861
2.75992	0.854
2.80063	0.835
2.84135	0.818
2.88207	0.805
2.92279	0.79
2.9635	0.791
3.00422	0.8
3.04494	0.807
3.08566	0.798
3.12637	0.796
3.16709	0.8
3.20781	0.781
3.24853	0.675
3.28924	0.607
3.32996	0.556
3.37068	0.539
3.4114	0.443
3.45211	0.561
3.49283	0.578
3.53355	0.637
3.57427	0.82
3.61498	0.839
3.6557	0.834
3.69642	0.854
3.73714	0.857
3.77785	0.851
3.81857	0.83
3.85929	0.82
3.90001	0.847
3.94072	0.864
3.98144	0.873
4.02216	0.874
4.06288	0.876
4.10359	0.869
4.14431	0.879
4.18503	0.883
4.22575	0.871
4.26646	0.868
4.30718	0.861
4.3479	0.857
4.38862	0.856
4.42933	0.874
4.47005	0.883
4.51077	0.89
4.55149	0.89
4.5922	0.883
4.63292	0.89
4.67364	0.896
4.71436	0.886
4.75507	0.884
4.79579	0.884
4.83651	0.859
4.87723	0.835
4.91794	0.84
4.95866	0.84
4.99938	0.84
5.0401	0.873
5.08081	0.874
5.12153	0.859
5.16225	0.844
5.20297	0.868
5.24368	0.878
5.2844	0.873
5.32512	0.861
5.36584	0.856
5.40655	0.866
5.44727	0.864
5.48799	0.857
5.52871	0.862
5.56942	0.857
5.61014	0.854
5.65086	0.869
5.69158	0.869
5.73229	0.849
5.77301	0.82
5.81373	0.82
5.85445	0.82
5.89516	0.79
5.93588	0.786
5.9766	0.793
6.01732	0.774
6.05803	0.724
6.09875	0.49
6.13947	0.142
6.18019	0.382
6.2209	0.28
6.26162	0.096
6.30234	0.028
6.34306	0.175
6.38377	0.358
6.42449	0.38
6.46521	0.375
6.50593	0.377
6.54664	0.329
6.58736	0.155
6.62808	0.076
6.6688	0.257
6.70951	0.309
6.75023	0.409
6.79095	0.299
6.83167	0.111
6.87238	0.274
6.9131	0.321
6.95382	0.419
6.99454	0.336
7.03525	0.179
7.07597	0.554
7.11669	0.678
7.15741	0.688
7.19812	0.598
7.23884	0.51
7.27956	0.57
7.32028	0.681
7.36099	0.708
7.40171	0.648
7.44243	0.514
7.48315	0.37
7.52386	0.576
7.56458	0.612
7.6053	0.588
7.64602	0.583
7.68673	0.546
7.72745	0.416
7.76817	0.204
7.80889	0.064
7.8496	0.011
7.89032	0.013
7.93104	0.128
7.97176	0.223
8.01247	0.106
8.05319	0.037
8.09391	0.16
8.13463	0.324
8.17534	0.284
8.21606	0.13
8.25678	0.434
8.2975	0.62
8.33821	0.61
8.37893	0.526
8.41965	0.571
8.46037	0.631
8.50108	0.604
8.5418	0.461
8.58252	0.285
8.62324	0.099
8.66395	0.05
8.70467	0.169
8.74539	0.15
8.78611	0.064
8.82682	0.16
8.86754	0.252
8.90826	0.485
8.94898	0.609
8.9897	0.695
9.03041	0.758
9.07113	0.785
9.11185	0.8
9.15257	0.808
9.19328	0.805
9.234	0.786
9.27472	0.719
9.31544	0.639
9.35615	0.729
9.39687	0.78
9.43759	0.786
9.47831	0.752
9.51902	0.659
9.55974	0.504
9.60046	0.397
9.64118	0.27
9.68189	0.082
9.72261	0.052
9.76333	0.223
9.80405	0.458
9.84476	0.59
9.88548	0.636
9.9262	0.708
9.96692	0.752
10.0076	0.781
10.0484	0.808
10.0891	0.818
10.1298	0.813
10.1705	0.796
10.2112	0.727
10.2519	0.604
10.2927	0.505
10.3334	0.639
10.3741	0.759
10.4148	0.786
10.4555	0.796
10.4962	0.803
10.537	0.812
10.5777	0.827
10.6184	0.83
10.6591	0.829
10.6998	0.822
10.7405	0.82
10.7813	0.822
10.822	0.813
10.8627	0.8
10.9034	0.768
10.9441	0.751
10.9849	0.729
11.0256	0.626
11.0663	0.5
11.107	0.478
11.1477	0.651
11.1884	0.715
11.2292	0.734
11.2699	0.72
11.3106	0.68
11.3513	0.627
11.392	0.531
11.4327	0.394
11.4735	0.316
11.5142	0.346
11.5549	0.419
11.5956	0.429
11.6363	0.47
11.6771	0.482
11.7178	0.411
11.7585	0.27
11.7992	0.279
11.8399	0.529
11.8806	0.629
11.9214	0.664
11.9621	0.671
12.0028	0.668
12.0435	0.658
12.0842	0.648
12.1249	0.631
12.1657	0.617
12.2064	0.58
12.2471	0.504
12.2878	0.429
12.3285	0.397
12.3692	0.331
12.41	0.177
12.4507	0.16
12.4914	0.37
12.5321	0.568
12.5728	0.629
12.6136	0.658
12.6543	0.664
12.695	0.659
12.7357	0.639
12.7764	0.595
12.8171	0.495
12.8579	0.399
12.8986	0.351
12.9393	0.412
12.98	0.409
13.0207	0.26
13.0614	0.157
13.1022	0.172
13.1429	0.285
13.1836	0.355
13.2243	0.372
13.265	0.372
13.3058	0.429
13.3465	0.487
13.3872	0.5
13.4279	0.46
13.4686	0.399
13.5093	0.351
13.5501	0.372
13.5908	0.448
13.6315	0.505
13.6722	0.549
13.7129	0.59
13.7536	0.629
13.7944	0.653
13.8351	0.661
13.8758	0.67
13.9165	0.671
13.9572	0.67
13.9979	0.663
14.0387	0.656
14.0794	0.648
14.1201	0.627
14.1608	0.598
14.2015	0.544
14.2423	0.497
14.283	0.395
14.3237	0.265
14.3644	0.145
14.4051	0.081
14.4458	0.108
14.4866	0.23
14.5273	0.367
14.568	0.46
14.6087	0.519
14.6494	0.541
14.6901	0.551
14.7309	0.553
14.7716	0.554
14.8123	0.551
14.853	0.548
14.8937	0.538
14.9345	0.527
14.9752	0.522
15.0159	0.51
15.0566	0.502
15.0973	0.497
15.138	0.485
15.1788	0.477
15.2195	0.463
15.2602	0.451
15.3009	0.446
15.3416	0.441
15.3823	0.438
15.4231	0.431
15.4638	0.421
15.5045	0.411
15.5452	0.395
15.5859	0.373
15.6266	0.35
15.6674	0.321
15.7081	0.302
15.7488	0.291
15.7895	0.289
15.8302	0.289
15.871	0.285
