Infrared Spectrum: Bicyclo[2.2.1]heptane
Formula: C 7 H 12
CAS: 279-23-2
State: gas
Instrument: HP-GC/MS/IRD
Origin: NIST Mass Spectrometry Data Center
1/CM	ABSORBANCE
550	0.0002867
562	0.0002745
574	0.0001586
586	0.0001281
598	0.000244
610	0.0001342
622	0.0001952
634	0.0001708
646	4.88e-05
658	1.22e-05
670	0.0001586
682	0.0001647
694	0.0001464
706	0.0001159
718	0.0001281
730	0.0001952
742	0.0002196
754	0.000305
766	0.0001586
778	0.000183
790	0.000244
802	0.0003477
814	0.0004331
826	0.0002684
838	0.000183
850	0.0001952
862	0.0002379
874	0.0004819
886	0.0005185
898	0.0003355
910	0.0002379
922	0.0002745
934	0.0002928
946	0.0002501
958	0.0002013
970	9.76e-05
982	9.76e-05
994	7.93e-05
1006	0.0001159
1018	0.0001342
1030	0.0001098
1042	0.0001037
1054	8.54e-05
1066	0.0001647
1078	0.0001403
1090	0.0001281
1102	0.0001647
1114	0.0001464
1126	0.0002501
1138	0.0002928
1150	0.000244
1162	0.0002135
1174	0.0001952
1186	0.0002196
1198	0.000366
1210	0.0006527
1222	0.0005917
1234	0.0004331
1246	0.0003843
1258	0.0003843
1270	0.0002135
1282	0.0002501
1294	0.0004514
1306	0.000671
1318	0.0005978
1330	0.0004087
1342	0.0001891
1354	0.0001037
1366	7.93e-05
1378	0.0001159
1390	0.0001281
1402	0.0001586
1414	0.000244
1426	0.0004697
1438	0.0011956
1450	0.0021899
1462	0.0022936
1474	0.0016409
1486	0.0007686
1498	0.0003355
1510	0.0002013
1522	0.000122
1534	0.0001037
1546	9.15e-05
1558	7.32e-05
1570	9.15e-05
1582	9.15e-05
1594	7.93e-05
1606	0.0001098
1618	9.15e-05
1630	9.76e-05
1642	0.0001037
1654	7.32e-05
1666	5.49e-05
1678	4.88e-05
1690	8.54e-05
1702	9.15e-05
1714	9.15e-05
1726	6.1e-05
1738	7.32e-05
1750	8.54e-05
1762	8.54e-05
1774	8.54e-05
1786	9.15e-05
1798	6.1e-05
1810	6.1e-05
1822	6.71e-05
1834	6.1e-05
1846	7.93e-05
1858	8.54e-05
1870	8.54e-05
1882	7.93e-05
1894	9.76e-05
1906	9.76e-05
1918	9.15e-05
1930	9.15e-05
1942	7.93e-05
1954	7.93e-05
1966	5.49e-05
1978	6.71e-05
1990	7.32e-05
2002	8.54e-05
2014	0.0001037
2026	7.93e-05
2038	0.0001342
2050	0.0001464
2062	0.0002135
2074	0.0001708
2086	0.0001586
2098	0.0001403
2110	0.0001281
2122	0.0001037
2134	9.76e-05
2146	0.0001098
2158	0.0001281
2170	0.0001403
2182	0.0001464
2194	0.0001464
2206	0.0001342
2218	0.0001342
2230	0.0001342
2242	0.0001159
2254	0.0001342
2266	9.15e-05
2278	7.93e-05
2290	0.0001037
2302	8.54e-05
2314	9.15e-05
2326	5.49e-05
2338	7.93e-05
2350	6.1e-05
2362	7.32e-05
2374	8.54e-05
2386	9.76e-05
2398	6.1e-05
2410	9.76e-05
2422	7.32e-05
2434	7.32e-05
2446	4.88e-05
2458	5.49e-05
2470	6.71e-05
2482	2.44e-05
2494	2.44e-05
2506	3.66e-05
2518	3.66e-05
2530	6.1e-05
2542	6.71e-05
2554	7.32e-05
2566	0.0001098
2578	0.0001281
2590	0.0001464
2602	0.0001037
2614	7.32e-05
2626	3.66e-05
2638	3.66e-05
2650	1.83e-05
2662	4.88e-05
2674	4.27e-05
2686	7.93e-05
2698	0.0001037
2710	0.0001098
2722	0.0001403
2734	0.0001647
2746	0.0001891
2758	0.0001769
2770	0.0002623
2782	0.0002989
2794	0.0002745
2806	0.0002989
2818	0.0003538
2830	0.0005917
2842	0.0012566
2854	0.004514
2866	0.0106445
2878	0.0166896
2890	0.0125843
2902	0.0100833
2914	0.0099674
2926	0.0142862
2938	0.0290909
2950	0.0435784
2962	0.0587918
2974	0.0357033
2986	0.012993
2998	0.0026962
3010	0.0010126
3022	0.0006344
3034	0.0004514
3046	0.000305
3058	0.000244
3070	0.0002806
3082	0.0003721
3094	0.0004209
3106	0.0003904
3118	0.0002928
3130	0.0001769
3142	4.88e-05
3154	6.1e-06
3166	3.66e-05
3178	5.49e-05
3190	6.1e-06
3202	3.66e-05
3214	3.05e-05
3226	3.66e-05
3238	6.1e-05
3250	1.83e-05
3262	0.0001098
3274	0.0001098
3286	0.0001281
3298	7.32e-05
3310	1.22e-05
3322	3.66e-05
3334	2.44e-05
3346	8.54e-05
3358	8.54e-05
3370	7.93e-05
3382	7.32e-05
3394	9.15e-05
3406	0.000183
3418	0.0001098
3430	5.49e-05
3442	5.49e-05
3454	1.22e-05
3466	6.1e-05
3478	6.71e-05
3490	7.93e-05
3502	4.88e-05
3514	0
3526	6.1e-06
3538	1.83e-05
3550	6.1e-05
3562	6.1e-06
3574	7.32e-05
3586	6.1e-05
3598	6.1e-05
3610	4.27e-05
3622	5.49e-05
3634	8.54e-05
3646	7.93e-05
3658	7.32e-05
3670	6.1e-05
3682	4.27e-05
3694	0.000122
3706	0.0002013
3718	0.0001952
3730	0.0002196
3742	8.54e-05
3754	0.000122
3766	0.0001708
3778	9.76e-05
3790	0.0001159
3802	7.93e-05
3814	0.000122
3826	0.000122
3838	0.0001037
