Infrared Spectrum: TRICYCLO[2.2.1.0^2^,^6]HEPTANE
Formula: C7 H10
CAS: 279-19-6
State: SOLUTION (20% IN CCl4 FOR 4000-1320, 20% IN CS2 FOR 1320-450 CM^-^1) VS. SOLVENT
Class: COBLENTZ III
Instrument: CARY 90 (GRATING)
Instrument parameters: GRATING CHANGES AT 3000, 2000, 1200 CM^-^1
Sampling: TRANSMISSION
Path length: 0.010, 0.010 CM
Resolution: 4
Origin: WESTERN REGIONAL RES. USDA
1/CM	TRANSMITTANCE
453.454	0.805
462.514	0.802
471.574	0.796
480.634	0.788
489.694	0.775
498.754	0.778
507.814	0.798
516.874	0.815
525.934	0.834
534.994	0.841
544.055	0.845
553.115	0.85
562.175	0.856
571.235	0.861
580.295	0.868
589.355	0.877
598.415	0.881
607.475	0.886
616.535	0.89
625.595	0.892
634.655	0.893
643.715	0.893
652.775	0.901
661.835	0.911
670.895	0.91
679.955	0.908
689.015	0.91
698.075	0.912
707.135	0.912
716.195	0.912
725.256	0.911
734.316	0.91
743.376	0.909
752.436	0.899
761.496	0.885
770.556	0.864
779.616	0.816
788.676	0.651
797.736	0.035
806.796	0.066
815.856	0.387
824.916	0.609
833.976	0.747
843.036	0.815
852.096	0.864
861.156	0.878
870.216	0.858
879.276	0.856
888.336	0.833
897.397	0.6898
906.457	0.579
915.517	0.77
924.577	0.747
933.637	0.855
942.697	0.848
951.757	0.7459
960.817	0.742
969.877	0.823
978.937	0.795
987.997	0.767
997.057	0.815
1006.12	0.831
1015.18	0.835
1024.24	0.824
1033.3	0.809
1042.36	0.801
1051.42	0.776
1060.48	0.728
1069.54	0.75
1078.6	0.793
1087.66	0.826
1096.72	0.85
1105.78	0.844
1114.84	0.833
1123.9	0.795
1132.96	0.71
1142.02	0.756
1151.08	0.814
1160.14	0.852
1169.2	0.864
1178.26	0.873
1187.32	0.874
1196.38	0.873
1205.44	0.866
1214.5	0.841
1223.56	0.768
1232.62	0.4861
1241.68	0.762
1250.74	0.6719
1259.8	0.3211
1268.86	0.736
1277.92	0.798
1286.98	0.698
1296.04	0.785
1305.1	0.028
1314.16	0.5741
1323.22	0.79
1332.28	0.845
1341.34	0.858
1350.4	0.845
1359.46	0.787
1368.52	0.864
1377.58	0.881
1386.64	0.885
1395.7	0.89
1404.76	0.887
1413.82	0.883
1422.88	0.868
1431.94	0.851
1441	0.788
1450.06	0.532
1459.12	0.801
1468.18	0.79
1477.24	0.831
1486.3	0.847
1495.36	0.86
1504.42	0.862
1513.48	0.861
1522.54	0.858
1531.6	0.848
1540.66	0.834
1549.72	0.822
1558.78	0.812
1567.84	0.851
1576.9	0.858
1585.96	0.859
1595.02	0.861
1604.08	0.859
1613.14	0.867
1622.2	0.875
1631.26	0.885
1640.32	0.885
1649.38	0.885
1658.44	0.889
1667.5	0.882
1676.56	0.878
1685.62	0.882
1694.68	0.876
1703.74	0.879
1712.8	0.876
1721.86	0.862
1730.92	0.877
1739.98	0.881
1749.04	0.882
1758.1	0.882
1767.16	0.877
1776.22	0.868
1785.28	0.857
1794.34	0.873
1803.4	0.876
1812.46	0.866
1821.52	0.858
1830.58	0.813
1839.64	0.843
1848.7	0.855
1857.76	0.83
1866.82	0.856
1875.88	0.851
1884.94	0.861
1894	0.858
1903.06	0.867
1912.12	0.865
1921.18	0.858
1930.24	0.842
1939.3	0.856
1948.36	0.861
1957.42	0.86
1966.48	0.844
1975.54	0.87
1984.6	0.876
1993.66	0.852
2002.72	0.864
2011.78	0.8515
2020.84	0.8528
2029.9	0.8801
2038.96	0.8761
2048.02	0.8888
2057.08	0.9008
2066.14	0.8864
2075.2	0.8993
2084.26	0.9083
2093.32	0.8753
2102.38	0.9031
2111.44	0.8878
2120.5	0.8843
2129.56	0.8958
2138.62	0.9056
2147.68	0.8677
2156.74	0.878
2165.8	0.8999
2174.86	0.895
2183.92	0.917
2192.98	0.8891
2202.04	0.9109
2211.1	0.913
2220.16	0.9061
2229.22	0.8931
2238.28	0.887
2247.34	0.9081
2256.4	0.912
2265.46	0.912
2274.52	0.9127
2283.58	0.9017
2292.64	0.897
2301.7	0.9127
2310.76	0.8982
2319.82	0.912
2328.88	0.9146
2337.94	0.9096
2347	0.8922
2356.06	0.913
2365.12	0.9082
2374.18	0.8975
2383.24	0.9086
2392.3	0.9163
2401.37	0.918
2410.43	0.917
2419.49	0.915
2428.55	0.9126
2437.61	0.9049
2446.67	0.9124
2455.73	0.9185
2464.79	0.9255
2473.85	0.9285
2482.91	0.929
2491.97	0.927
2501.03	0.9173
2510.09	0.9173
2519.15	0.9216
2528.21	0.925
2537.27	0.9244
2546.33	0.921
2555.39	0.9143
2564.45	0.9245
2573.51	0.9243
2582.57	0.9145
2591.63	0.921
2600.69	0.9164
2609.75	0.8908
2618.81	0.9206
2627.87	0.9278
2636.93	0.9317
2645.99	0.9339
2655.05	0.933
2664.11	0.9262
2673.17	0.9161
2682.23	0.9238
2691.29	0.9261
2700.35	0.8992
2709.41	0.926
2718.47	0.926
2727.53	0.9171
2736.59	0.927
2745.65	0.9257
2754.71	0.9125
2763.77	0.9211
2772.83	0.924
2781.89	0.922
2790.95	0.921
2800.01	0.9184
2809.07	0.8956
2818.13	0.8878
2827.19	0.8557
2836.25	0.808
2845.31	0.7087
2854.37	0.4271
2863.43	0.0628
2872.49	0.0271
2881.55	0.4829
2890.61	0.5533
2899.67	0.149
2908.73	0.3351
2917.79	0.1221
2926.85	0.1141
2935.91	0.0321
2944.97	0.0025
2954.03	0.0126
2963.09	0.1563
2972.15	0.2662
2981.21	0.1747
2990.27	0.093
2999.33	0.341
3008.39	0.5312
3017.45	0.6636
3026.51	0.7417
3035.57	0.754
3044.63	0.6613
3053.69	0.4024
3062.75	0.2209
3071.81	0.2458
3080.87	0.3696
3089.93	0.6391
3098.99	0.7868
3108.05	0.8627
3117.11	0.8982
3126.17	0.9178
3135.23	0.9279
3144.29	0.9359
3153.35	0.9419
3162.41	0.944
3171.47	0.946
3180.53	0.949
3189.59	0.949
3198.65	0.947
3207.71	0.946
3216.77	0.945
3225.83	0.945
3234.89	0.946
3243.95	0.9461
3253.01	0.949
3262.07	0.95
3271.13	0.952
3280.19	0.9522
3289.25	0.953
3298.31	0.954
3307.37	0.953
3316.43	0.952
3325.49	0.951
3334.55	0.9467
3343.61	0.9423
3352.67	0.9289
3361.73	0.9042
3370.79	0.8951
3379.85	0.9197
3388.91	0.9339
3397.97	0.9415
3407.03	0.944
3416.09	0.946
3425.15	0.946
3434.21	0.944
3443.27	0.943
3452.33	0.9456
3461.39	0.946
3470.45	0.947
3479.51	0.949
3488.57	0.95
3497.63	0.951
3506.69	0.9517
3515.75	0.952
3524.81	0.953
3533.87	0.954
3542.93	0.955
3551.99	0.9542
3561.05	0.952
3570.11	0.9442
3579.17	0.942
3588.23	0.943
3597.29	0.944
3606.35	0.945
3615.41	0.946
3624.47	0.949
3633.53	0.95
3642.59	0.95
3651.65	0.952
3660.71	0.955
3669.77	0.955
3678.83	0.952
3687.89	0.945
3696.95	0.9419
3706.01	0.9393
3715.07	0.9421
3724.13	0.9442
3733.19	0.947
3742.25	0.947
3751.31	0.9438
3760.37	0.941
3769.43	0.9395
3778.49	0.9443
3787.55	0.9476
3796.61	0.947
3805.67	0.9437
3814.73	0.9376
3823.79	0.9326
3832.85	0.9256
3841.91	0.9182
3850.97	0.9101
3860.03	0.9035
3869.09	0.903
3878.15	0.9075
3887.21	0.9115
3896.27	0.9165
3905.33	0.9205
3914.39	0.9266
3923.45	0.932
3932.51	0.936
3941.57	0.9344
3950.63	0.9307
3959.69	0.9273
3968.75	0.9243
3977.81	0.9193
