Infrared Spectrum: 4,4',4"-(Ethylidene)trisphenol
Formula: C 20 H 18 O 3
CAS: 27955-94-8
State: gas
Origin: EPA-IR VAPOR PHASE LIBRARY
1/CM	ABSORBANCE
549.8	0.001805
559.445	0.003515
569.09	0.007105
578.734	0.002375
588.379	0.0015662
598.024	0.0013324
607.669	0.0013119
617.313	0.0011388
626.958	0.0012946
636.603	0.0011512
646.248	0.0013036
655.893	0.0011025
665.537	0.0011594
675.182	0.0010311
684.827	0.0011927
694.472	0.0012748
704.116	0.0014126
713.761	0.0012196
723.406	0.0016179
733.051	0.0012941
742.695	0.0012712
752.34	0.001131
761.985	0.0011087
771.63	0.0013855
781.275	0.0014949
790.919	0.0017715
800.564	0.002525
810.209	0.003425
819.854	0.004815
829.498	0.008055
839.143	0.004215
848.788	0.002005
858.433	0.001718
868.078	0.0014919
877.722	0.0014117
887.367	0.0014313
897.012	0.0013078
906.657	0.0012353
916.301	0.0013008
925.946	0.0011004
935.591	0.0012807
945.236	0.0010655
954.88	0.0011522
964.525	0.0009741
974.17	0.000797683
983.815	0.0011874
993.46	0.00121
1003.1	0.0015166
1012.75	0.002585
1022.39	0.0016177
1032.04	0.001573
1041.68	0.0015497
1051.33	0.0017776
1060.97	0.002135
1070.62	0.002055
1080.26	0.002205
1089.91	0.002135
1099.55	0.002515
1109.2	0.003135
1118.84	0.002445
1128.49	0.002555
1138.13	0.003025
1147.78	0.003115
1157.42	0.005685
1167.07	0.017885
1176.71	0.026465
1186.36	0.008265
1196	0.005245
1205.64	0.003495
1215.29	0.003235
1224.93	0.002615
1234.58	0.002425
1244.22	0.003095
1253.87	0.009455
1263.51	0.010325
1273.16	0.002835
1282.8	0.0016972
1292.45	0.0015484
1302.09	0.0012819
1311.74	0.0015504
1321.38	0.002405
1331.03	0.003375
1340.67	0.002425
1350.32	0.0017805
1359.96	0.0015726
1369.61	0.0017087
1379.25	0.002045
1388.9	0.0012256
1398.54	0.0012248
1408.18	0.0015448
1417.83	0.002515
1427.47	0.002825
1437.12	0.0015734
1446.76	0.001419
1456.41	0.001132
1466.05	0.0015637
1475.7	0.0015282
1485.34	0.002455
1494.99	0.005175
1504.63	0.012095
1514.28	0.013985
1523.92	0.003415
1533.57	0.001805
1543.21	0.0013829
1552.86	0.0013844
1562.5	0.0015479
1572.15	0.001885
1581.79	0.002725
1591.44	0.004145
1601.08	0.004305
1610.73	0.005315
1620.37	0.003335
1630.01	0.0017525
1639.66	0.0015752
1649.3	0.0012387
1658.95	0.0015009
1668.59	0.0011158
1678.24	0.0013495
1687.88	0.0013058
1697.53	0.00082684
1707.17	0.0011112
1716.82	0.00084451
1726.46	0.0012482
1736.11	0.0010475
1745.75	0.001205
1755.4	0.0013403
1765.04	0.0012817
1774.69	0.0011029
1784.33	0.0012888
1793.98	0.0009997
1803.62	0.001206
1813.27	0.0011403
1822.91	0.0010997
1832.55	0.0010911
1842.2	0.0010751
1851.84	0.0011317
1861.49	0.0012373
1871.13	0.001207
1880.78	0.0013825
1890.42	0.001251
1900.07	0.0012199
1909.71	0.0011752
1919.36	0.0010866
1929	0.0010766
1938.65	0.0010719
1948.29	0.0010985
1957.94	0.0010836
1967.58	0.0010947
1977.23	0.0011373
1986.87	0.0010918
1996.52	0.0011308
2006.16	0.0012066
2015.81	0.0011284
2025.45	0.0011455
2035.1	0.0011184
2044.74	0.0011737
2054.38	0.0011409
2064.03	0.0010947
2073.67	0.0011303
2083.32	0.0011547
2092.96	0.0011514
2102.61	0.0011108
2112.25	0.0011204
2121.9	0.001131
2131.54	0.0010693
2141.19	0.0010547
2150.83	0.0010524
2160.48	0.001077
2170.12	0.001087
2179.77	0.0010802
2189.41	0.001105
2199.06	0.0010872
2208.7	0.0010873
2218.35	0.0011071
2227.99	0.0011698
2237.64	0.0011258
2247.28	0.0011256
2256.92	0.0011823
2266.57	0.0010992
2276.21	0.0011237
2285.86	0.001254
2295.5	0.0013226
2305.15	0.0013148
2314.79	0.0013644
2324.44	0.0015432
2334.08	0.0015475
2343.73	0.001639
2353.37	0.0015972
2363.02	0.0016995
2372.66	0.0015213
2382.31	0.0012532
2391.95	0.0012588
2401.6	0.0012313
2411.24	0.0011731
2420.89	0.0012621
2430.53	0.0013798
2440.18	0.0013272
2449.82	0.0011752
2459.47	0.0011618
2469.11	0.0011862
2478.75	0.0011164
2488.4	0.0010403
2498.04	0.0011291
2507.69	0.001161
2517.33	0.0011871
2526.98	0.0011376
2536.62	0.0011426
2546.27	0.0011196
2555.91	0.0011248
2565.56	0.0010104
2575.2	0.0011004
2584.85	0.0011712
2594.49	0.0010825
2604.14	0.0011242
2613.78	0.0011118
2623.43	0.0010075
2633.07	0.0010586
2642.72	0.0010965
2652.36	0.0010747
2662.01	0.0010569
2671.65	0.0011567
2681.29	0.0011657
2690.94	0.0011097
2700.58	0.0010692
2710.23	0.0010913
2719.87	0.001009
2729.52	0.0010201
2739.16	0.0011
2748.81	0.0010713
2758.45	0.0011345
2768.1	0.0011373
2777.74	0.0010893
2787.39	0.0011361
2797.03	0.0010068
2806.68	0.0011305
2816.32	0.0010663
2825.97	0.0010971
2835.61	0.0011889
2845.26	0.001145
2854.9	0.0010478
2864.55	0.0010578
2874.19	0.0011961
2883.84	0.0012454
2893.48	0.0013154
2903.12	0.0010954
2912.77	0.0013094
2922.41	0.0012548
2932.06	0.0012327
2941.7	0.0014567
2951.35	0.0015413
2960.99	0.0013344
2970.64	0.0015444
2980.28	0.002725
2989.93	0.003655
2999.57	0.001995
3009.22	0.002035
3018.86	0.002195
3028.51	0.002845
3038.15	0.002865
3047.8	0.001885
3057.44	0.001845
3067.09	0.002255
3076.73	0.001965
3086.38	0.0015882
3096.02	0.0015738
3105.67	0.0015779
3115.31	0.0014448
3124.95	0.0015148
3134.6	0.0014783
3144.24	0.0015185
3153.89	0.0013217
3163.53	0.0014387
3173.18	0.0013223
3182.82	0.0014997
3192.47	0.001317
3202.11	0.0014154
3211.76	0.0013897
3221.4	0.0014723
3231.05	0.0015697
3240.69	0.0013525
3250.34	0.0013867
3259.98	0.0014371
3269.63	0.0013652
3279.27	0.0012638
3288.92	0.0012824
3298.56	0.0012068
3308.21	0.0011984
3317.85	0.0012198
3327.49	0.0010524
3337.14	0.0011786
3346.78	0.0012498
3356.43	0.0010647
3366.07	0.001134
3375.72	0.0011234
3385.36	0.0010006
3395.01	0.0011042
3404.65	0.00088725
3414.3	0.0011276
3423.94	0.0009879
3433.59	0.0009586
3443.23	0.0009187
3452.88	0.00086833
3462.52	0.0009401
3472.17	0.0009479
3481.81	0.000868
3491.46	0.00084841
3501.1	0.0008964
3510.75	0.0007259
3520.39	0.00082118
3530.04	0.0007768
3539.68	0.0009048
3549.32	0.000792
3558.97	0.00081303
3568.61	0.0010566
3578.26	0.00080735
3587.9	0.0009145
3597.55	0.00084075
3607.19	0.000800207
3616.84	0.00086447
3626.48	0.0010452
3636.13	0.002095
3645.77	0.007805
3655.42	0.008335
3665.06	0.0014639
3674.71	0.000518
3684.35	0.0009183
3694	0.00082055
3703.64	0.000677
3713.29	0.000639
3722.93	0.000739
3732.58	0.000462
3742.22	0.000531
3751.86	8.2e-05
3761.51	0.000578
3771.15	0.000587
3780.8	0.000654
3790.44	0.00082503
3800.09	0.000255
3809.73	0.000641
3819.38	0.000498
3829.02	0.000616
3838.67	9.6e-05
3848.31	0.000601
3857.96	0.000691
3867.6	0.000593
3877.25	0.0007473
3886.89	0.00064
3896.54	0.000654
3906.18	0.00079348
3915.83	0.00080704
3925.47	0.0007711
3935.12	0.0007535
3944.76	0.0007809
3954.41	0.00079367
3964.05	0.0006998
3973.69	0.000479
3983.34	0.000524
3992.98	0.0007494
