Infrared Spectrum: 2-Amino-3-chloro-1,4-naphthoquinone
Formula: C 10 H 6 Cl N O 2
CAS: 2797-51-5
State: gas
Origin: EPA-IR VAPOR PHASE LIBRARY
1/CM	ABSORBANCE
549.8	0.001692
559.445	0.001382
569.09	0.001412
578.734	0.001592
588.379	0.002022
598.024	0.001962
607.669	0.001372
617.313	0.001342
626.958	0.001352
636.603	0.002022
646.248	0.002192
655.893	0.003572
665.537	0.003052
675.182	0.003202
684.827	0.005052
694.472	0.003682
704.116	0.004142
713.761	0.007652
723.406	0.007752
733.051	0.003582
742.695	0.002372
752.34	0.002312
761.985	0.002812
771.63	0.003112
781.275	0.004782
790.919	0.004572
800.564	0.004072
810.209	0.005542
819.854	0.005872
829.498	0.005862
839.143	0.006882
848.788	0.009332
858.433	0.005202
868.078	0.002182
877.722	0.002362
887.367	0.002292
897.012	0.002532
906.657	0.002302
916.301	0.002012
925.946	0.002642
935.591	0.002212
945.236	0.002312
954.88	0.002372
964.525	0.002522
974.17	0.002452
983.815	0.002822
993.46	0.004432
1003.1	0.005962
1012.75	0.004642
1022.39	0.002062
1032.04	0.001762
1041.68	0.002042
1051.33	0.001472
1060.97	0.001322
1070.62	0.001842
1080.26	0.002222
1089.91	0.002292
1099.55	0.002872
1109.2	0.005322
1118.84	0.005402
1128.49	0.004482
1138.13	0.002502
1147.78	0.001772
1157.42	0.002342
1167.07	0.001422
1176.71	0.001462
1186.36	0.001762
1196	0.001962
1205.64	0.003382
1215.29	0.004982
1224.93	0.003912
1234.58	0.003662
1244.22	0.003582
1253.87	0.005992
1263.51	0.014942
1273.16	0.025312
1282.8	0.011692
1292.45	0.009302
1302.09	0.008172
1311.74	0.009622
1321.38	0.008772
1331.03	0.004282
1340.67	0.003812
1350.32	0.006192
1359.96	0.012472
1369.61	0.014862
1379.25	0.009422
1388.9	0.005392
1398.54	0.003552
1408.18	0.002362
1417.83	0.001602
1427.47	0.001312
1437.12	0.0009328
1446.76	0.0011615
1456.41	0.001612
1466.05	0.001362
1475.7	0.0011834
1485.34	0.0012007
1494.99	0.0010711
1504.63	0.0008685
1514.28	0.0012512
1523.92	0.0012266
1533.57	0.001642
1543.21	0.002402
1552.86	0.004302
1562.5	0.005382
1572.15	0.006562
1581.79	0.010172
1591.44	0.011682
1601.08	0.013772
1610.73	0.022782
1620.37	0.050022
1630.01	0.046462
1639.66	0.013892
1649.3	0.006232
1658.95	0.006922
1668.59	0.011762
1678.24	0.018822
1687.88	0.024532
1697.53	0.015982
1707.17	0.005702
1716.82	0.002632
1726.46	0.001922
1736.11	0.001502
1745.75	0.0012253
1755.4	0.0011543
1765.04	0.0008895
1774.69	0.0008587
1784.33	0.0008531
1793.98	0.0007471
1803.62	0.0009104
1813.27	0.0007837
1822.91	0.0008407
1832.55	0.0007841
1842.2	0.0007045
1851.84	0.0007724
1861.49	0.0008896
1871.13	0.0008848
1880.78	0.0008361
1890.42	0.0007444
1900.07	0.0006288
1909.71	0.0006454
1919.36	0.0006346
1929	0.0007089
1938.65	0.0007281
1948.29	0.0008047
1957.94	0.0007877
1967.58	0.0008656
1977.23	0.0008207
1986.87	0.0007846
1996.52	0.0006314
2006.16	0.0006702
2015.81	0.0006168
2025.45	0.0006257
2035.1	0.0005071
2044.74	0.0005435
2054.38	0.0004954
2064.03	0.0005886
2073.67	0.0005794
2083.32	0.0005371
2092.96	0.0005005
2102.61	0.0006157
2112.25	0.0005841
2121.9	0.000568
2131.54	0.000598
2141.19	0.0005258
2150.83	0.0005393
2160.48	0.0005259
2170.12	0.0005871
2179.77	0.0005085
2189.41	0.0005576
2199.06	0.0004077
2208.7	0.0005622
2218.35	0.0005642
2227.99	0.00034761
2237.64	0.0005223
2247.28	0.0004643
2256.92	0.0005781
2266.57	0.0004786
2276.21	0.0005538
2285.86	0.0006004
2295.5	0.0004703
2305.15	0.0004716
2314.79	0.0005064
2324.44	0.000385
2334.08	0.0004622
2343.73	0.0004349
2353.37	0.000542
2363.02	0.0004955
2372.66	0.0005989
2382.31	0.0005142
2391.95	0.0004964
2401.6	0.0005813
2411.24	0.0003913
2420.89	0.0005181
2430.53	0.000408
2440.18	0.0005142
2449.82	0.0004206
2459.47	0.0004474
2469.11	0.0005102
2478.75	0.00033661
2488.4	0.0004532
2498.04	0.00035486
2507.69	0.000385
2517.33	0.000451
2526.98	0.0003639
2536.62	0.0003803
2546.27	0.0005157
2555.91	0.00034898
2565.56	0.0004173
2575.2	0.00031328
2584.85	0.0004465
2594.49	0.0004963
2604.14	0.000425
2613.78	0.0004819
2623.43	0.0004523
2633.07	0.0005033
2642.72	0.0004238
2652.36	0.00036085
2662.01	0.000388
2671.65	0.00035966
2681.29	0.000396
2690.94	0.0004962
2700.58	0.0006042
2710.23	0.0004965
2719.87	0.00030403
2729.52	0.0004115
2739.16	0.0003926
2748.81	0.0004484
2758.45	0.0003757
2768.1	0.0003787
2777.74	0.0003897
2787.39	0.0004049
2797.03	0.000481
2806.68	0.0004533
2816.32	0.0005302
2825.97	0.00033514
2835.61	0.00034338
2845.26	0.000366
2854.9	0.0003817
2864.55	0.00033183
2874.19	0.0003971
2883.84	0.0004412
2893.48	0.0004708
2903.12	0.0004503
2912.77	0.0001731
2922.41	0.00032409
2932.06	0.0002101
2941.7	0.0004771
2951.35	0.0004942
2960.99	0.0004906
2970.64	0.00035589
2980.28	0.0006101
2989.93	0.0005451
2999.57	0.0006158
3009.22	0.0006684
3018.86	0.000628
3028.51	0.0007104
3038.15	0.0006166
3047.8	0.0004854
3057.44	0.0006489
3067.09	0.001362
3076.73	0.002932
3086.38	0.002472
3096.02	0.0008649
3105.67	0.0006032
3115.31	0.000366
3124.95	0.0002332
3134.6	0.00035757
3144.24	0.00035947
3153.89	0.0002429
3163.53	0.0003963
3173.18	0.0002408
3182.82	0.00028366
3192.47	0.0004885
3202.11	0.00033675
3211.76	0.000372
3221.4	0.0004605
3231.05	0.0005539
3240.69	0.0005456
3250.34	0.0004711
3259.98	0.0003837
3269.63	0.0004798
3279.27	0.0004961
3288.92	0.0004267
3298.56	0.0006467
3308.21	0.0004833
3317.85	0.0006985
3327.49	0.00096
3337.14	0.0007615
3346.78	0.0007475
3356.43	0.0006776
3366.07	0.0008761
3375.72	0.0011179
3385.36	0.002262
3395.01	0.004252
3404.65	0.007172
3414.3	0.007362
3423.94	0.004082
3433.59	0.0012279
3443.23	0.0007676
3452.88	0.0008417
3462.52	0.000731
3472.17	0.0007835
3481.81	0.0011439
3491.46	0.001282
3501.1	0.002402
3510.75	0.003472
3520.39	0.004232
3530.04	0.004722
3539.68	0.003112
3549.32	0.0010539
3558.97	0.0006685
3568.61	0.0004787
3578.26	0.0003811
3587.9	0.0002418
3597.55	0.0005027
3607.19	0.00029133
3616.84	0.00029158
3626.48	9e-05
3636.13	0.00034996
3645.77	0.0001791
3655.42	0.000262481
3665.06	0.0004078
3674.71	5.1e-05
3684.35	0.0002174
3694	0.0003832
3703.64	1.4e-05
3713.29	0.000138
3722.93	0.000156
3732.58	0.00035723
3742.22	0.00014
3751.86	0.0001827
3761.51	0.0002517
3771.15	0.00034991
3780.8	0.00030063
3790.44	7.7e-05
3800.09	0.00025265
3809.73	0.00035688
3819.38	0.000151
3829.02	0.0003798
3838.67	0.000145
3848.31	0.00035585
3857.96	0.0003655
3867.6	0.000103
3877.25	0.00033177
3886.89	0.0001941
3896.54	0.000448
3906.18	0.00030536
3915.83	0.00027474
3925.47	0.0002098
3935.12	0.00034654
3944.76	0.000179
3954.41	0.000183
3964.05	0.000270132
3973.69	0.0002167
3983.34	0.00035803
3992.98	0.0002317
