Infrared Spectrum: 2-Chloroethyl phenyl sulphoxide
Formula: C 8 H 9 Cl O S
CAS: 27998-60-3
State: gas
Origin: EPA-IR VAPOR PHASE LIBRARY
1/CM	ABSORBANCE
549.8	0.00123073
559.445	0.000382234
569.09	0.000490134
578.735	0.000801934
588.38	0.00290073
598.025	0.00334073
607.67	0.00141073
617.315	0.00220073
626.96	0.00108073
636.605	0.00110073
646.251	0.00132073
655.896	0.00169073
665.541	0.00263073
675.186	0.00428073
684.831	0.00725073
694.476	0.00862073
704.121	0.00709073
713.766	0.00599073
723.411	0.00733073
733.056	0.0112807
742.701	0.0120007
752.346	0.00762073
761.991	0.00428073
771.636	0.00245073
781.281	0.00145073
790.926	0.000899234
800.571	0.000626834
810.216	0.000583834
819.861	0.000764734
829.507	0.000513634
839.152	0.000748434
848.797	0.000916434
858.442	0.00147073
868.087	0.00173073
877.732	0.00186073
887.377	0.00182073
897.022	0.00394073
906.667	0.00227073
916.312	0.00245073
925.957	0.00240073
935.602	0.00265073
945.247	0.00234073
954.892	0.00191073
964.537	0.00184073
974.182	0.00162073
983.827	0.00158073
993.472	0.00173073
1003.12	0.00211073
1012.76	0.00316073
1022.41	0.00404073
1032.05	0.00292073
1041.7	0.00290073
1051.34	0.00420073
1060.99	0.00522073
1070.63	0.00537073
1080.28	0.00770073
1089.92	0.0108607
1099.57	0.00941073
1109.21	0.00455073
1118.86	0.00286073
1128.5	0.00192073
1138.15	0.00148073
1147.79	0.00246073
1157.44	0.00345073
1167.08	0.00238073
1176.73	0.00210073
1186.37	0.00163073
1196.02	0.00102073
1205.66	0.000869934
1215.31	0.000743234
1224.95	0.000805334
1234.6	0.000643534
1244.24	0.000915334
1253.89	0.00125073
1263.53	0.00181073
1273.18	0.00164073
1282.82	0.00152073
1292.47	0.00274073
1302.11	0.00274073
1311.76	0.00181073
1321.4	0.00185073
1331.05	0.00242073
1340.69	0.00279073
1350.34	0.00314073
1359.98	0.00371073
1369.63	0.00257073
1379.27	0.00276073
1388.92	0.00201073
1398.56	0.00130073
1408.21	0.00109073
1417.85	0.00128073
1427.5	0.00139073
1437.14	0.00257073
1446.79	0.00289073
1456.43	0.00198073
1466.08	0.00187073
1475.73	0.00293073
1485.37	0.00245073
1495.02	0.00135073
1504.66	0.000957334
1514.31	0.000685234
1523.95	0.000752134
1533.6	0.000720334
1543.24	0.000739834
1552.89	0.000645934
1562.53	0.00114073
1572.18	0.00225073
1581.82	0.00400073
1591.47	0.00476073
1601.11	0.00406073
1610.76	0.00351073
1620.4	0.00440073
1630.05	0.00278073
1639.69	0.00103073
1649.34	0.000697934
1658.98	0.000589234
1668.63	0.000658434
1678.27	0.000494134
1687.92	0.000515834
1697.56	0.000618134
1707.21	0.000546834
1716.85	0.000635634
1726.5	0.000534334
1736.14	0.000630134
1745.79	0.000600034
1755.43	0.000610134
1765.08	0.000522534
1774.72	0.000631034
1784.37	0.000721634
1794.01	0.000877534
1803.66	0.000906834
1813.3	0.000780834
1822.95	0.000672034
1832.59	0.000546134
1842.24	0.000617134
1851.88	0.000611734
1861.53	0.000589634
1871.17	0.000717634
1880.82	0.000784534
1890.46	0.000710534
1900.11	0.000607934
1909.75	0.000491634
1919.4	0.000500034
1929.04	0.000542934
1938.69	0.000678034
1948.33	0.000742234
1957.98	0.000723334
1967.62	0.000642934
1977.27	0.000491334
1986.91	0.000437934
1996.56	0.000376334
2006.2	0.000368434
2015.85	0.000380734
2025.49	0.000353534
2035.14	0.000341034
2044.78	0.000373034
2054.43	0.000393034
2064.07	0.000434934
2073.72	0.000406034
2083.36	0.000361434
2093.01	0.000413134
2102.65	0.000350334
2112.3	0.000509334
2121.94	0.000435934
2131.59	0.000480834
2141.23	0.000561534
2150.88	0.000539934
2160.52	0.000523934
2170.17	0.000468434
2179.81	0.000431034
2189.46	0.000427034
2199.1	0.000438634
2208.75	0.000374634
2218.39	0.000445734
2228.04	0.000406034
2237.68	0.000460534
2247.33	0.000465534
2256.97	0.000455334
2266.62	0.000455334
2276.26	0.000413234
2285.91	0.000463334
2295.55	0.000465134
2305.2	0.000508134
2314.84	0.000656334
2324.49	0.000626434
2334.13	0.000631234
2343.78	0.000607534
2353.42	0.000565634
2363.07	0.000581834
2372.72	0.000441234
2382.36	0.000465634
2392.01	0.000469634
2401.65	0.000380334
2411.3	0.000432434
2420.94	0.000532534
2430.59	0.000486734
2440.23	0.000426334
2449.88	0.000426334
2459.52	0.000422634
2469.17	0.000445934
2478.81	0.000483234
2488.46	0.000488634
2498.1	0.000457734
2507.75	0.000471734
2517.39	0.000509234
2527.04	0.000475034
2536.68	0.000397934
2546.33	0.000458234
2555.97	0.000437934
2565.62	0.000422634
2575.26	0.000466334
2584.91	0.000544434
2594.55	0.000492834
2604.2	0.000484034
2613.84	0.000436134
2623.49	0.000542834
2633.13	0.000504434
2642.78	0.000452034
2652.42	0.000519734
2662.07	0.000416034
2671.71	0.000387234
2681.36	0.000478434
2691	0.000486734
2700.65	0.000480634
2710.29	0.000435934
2719.94	0.000360934
2729.58	0.000465434
2739.23	0.000421534
2748.87	0.000496034
2758.52	0.000434034
2768.16	0.000431934
2777.81	0.000432534
2787.45	0.000461934
2797.1	0.000456534
2806.74	0.000500534
2816.39	0.000438834
2826.03	0.000436034
2835.68	0.000403934
2845.32	0.000509334
2854.97	0.000382334
2864.61	0.000557934
2874.26	0.000473934
2883.9	0.000495934
2893.55	0.000497734
2903.19	0.000494334
2912.84	0.000604834
2922.48	0.000716834
2932.13	0.000632434
2941.77	0.000646434
2951.42	0.000686334
2961.06	0.000720034
2970.71	0.00100013
2980.35	0.000992534
2990	0.000761934
2999.64	0.00110073
3009.29	0.00132073
3018.93	0.00165073
3028.58	0.00157073
3038.22	0.00135073
3047.87	0.00190073
3057.51	0.00358073
3067.16	0.00612073
3076.8	0.00617073
3086.45	0.00420073
3096.09	0.00221073
3105.74	0.00127073
3115.38	0.000738634
3125.03	0.000620434
3134.67	0.000698834
3144.32	0.000546234
3153.96	0.000502034
3163.61	0.000508834
3173.25	0.000455934
3182.9	0.000419334
3192.54	0.000257334
3202.19	0.000310834
3211.83	0.000308534
3221.48	0.000374434
3231.12	0.000325434
3240.77	0.000234434
3250.41	0.000173134
3260.06	0.000263434
3269.7	0.000235334
3279.35	0.000409034
3289	0.000232834
3298.64	0.000196234
3308.29	0.000243234
3317.93	0.000155234
3327.58	0.000170934
3337.22	0.000244934
3346.87	0.000355934
3356.51	0.000242634
3366.16	0.000163434
3375.8	0.000109634
3385.45	0.000221734
3395.09	0.000345434
3404.74	0.000187034
3414.38	0.000293234
3424.03	0.000201034
3433.67	0.000353634
3443.32	0.000161434
3452.96	0.000300734
3462.61	0.000239034
3472.25	0.000124534
3481.9	0.000390434
3491.54	0.000388434
3501.19	0.000237434
3510.83	0.000291434
3520.48	0.000261134
3530.12	0.000310634
3539.77	0.000312034
3549.41	0.000392034
3559.06	0.000254934
3568.7	0.000568934
3578.35	0.000748234
3587.99	0.00131073
3597.64	0.00135073
3607.28	0.00115073
3616.93	0.000737934
3626.57	0.000527734
3636.22	0.000632234
3645.86	0.000398334
3655.51	0.000310634
3665.15	0.000164034
3674.8	0.000387934
3684.44	0.000196834
3694.09	0.000500634
3703.73	0.000163334
3713.38	0.000272234
3723.02	0.000326634
3732.67	0.000370634
3742.31	0.000368634
3751.96	0.000366134
3761.6	0.000305234
3771.25	0.000241934
3780.89	0.000204134
3790.54	0.000187634
3800.18	0.000322534
3809.83	0.000265234
3819.47	0.000194634
3829.12	0.000199734
3838.76	0.000303634
3848.41	0.000368534
3858.05	0.000126734
3867.7	0.000294734
3877.34	0.000285234
3886.99	0.000335834
3896.63	0.000315834
3906.28	0.000222434
3915.92	0.000198334
3925.57	0.000445534
3935.21	0.000235334
3944.86	0.000261234
3954.5	8.5734e-05
3964.15	0.000286834
3973.79	0.000345934
3983.44	0.000336634
3993.08	0.000179434
