Infrared Spectrum: 3-Chloropropyl isothiocyanate
Formula: C 4 H 6 Cl N S
CAS: 2799-72-6
State: gas
Origin: EPA-IR VAPOR PHASE LIBRARY
1/CM	ABSORBANCE
549.8	0.014283
559.445	0.013313
569.09	0.011073
578.734	0.008993
588.379	0.006743
598.024	0.005833
607.669	0.004803
617.313	0.004723
626.958	0.004773
636.603	0.006463
646.248	0.009123
655.893	0.011673
665.537	0.013003
675.182	0.011523
684.827	0.010163
694.472	0.010023
704.116	0.008333
713.761	0.006483
723.406	0.005923
733.051	0.006383
742.695	0.006823
752.34	0.005403
761.985	0.004403
771.63	0.006233
781.275	0.009733
790.919	0.011783
800.564	0.013833
810.209	0.010333
819.854	0.006423
829.498	0.005133
839.143	0.004913
848.788	0.005383
858.433	0.005743
868.078	0.006143
877.722	0.005093
887.367	0.003173
897.012	0.002493
906.657	0.002953
916.301	0.003013
925.946	0.003233
935.591	0.004123
945.236	0.005763
954.88	0.007673
964.525	0.009113
974.17	0.008833
983.815	0.008063
993.46	0.006973
1003.1	0.005903
1012.75	0.005923
1022.39	0.006643
1032.04	0.006973
1041.68	0.006063
1051.33	0.005793
1060.97	0.005473
1070.62	0.005323
1080.26	0.004353
1089.91	0.003573
1099.55	0.004123
1109.2	0.004113
1118.84	0.004743
1128.49	0.005063
1138.13	0.004713
1147.78	0.003683
1157.42	0.004283
1167.07	0.004523
1176.71	0.004423
1186.36	0.004453
1196	0.004833
1205.64	0.005193
1215.29	0.006643
1224.93	0.005773
1234.58	0.005803
1244.22	0.007013
1253.87	0.006973
1263.51	0.008823
1273.16	0.014063
1282.8	0.023523
1292.45	0.037813
1302.09	0.041213
1311.74	0.026483
1321.38	0.018253
1331.03	0.022703
1340.67	0.040123
1350.32	0.063023
1359.96	0.057473
1369.61	0.035263
1379.25	0.022333
1388.9	0.010473
1398.54	0.007163
1408.18	0.006133
1417.83	0.006913
1427.47	0.009683
1437.12	0.013873
1446.76	0.022563
1456.41	0.035203
1466.05	0.030633
1475.7	0.010973
1485.34	0.004693
1494.99	0.003153
1504.63	0.002353
1514.28	0.001973
1523.92	0.001693
1533.57	0.0014831
1543.21	0.00138
1552.86	0.0011525
1562.5	0.0010709
1572.15	0.0010871
1581.79	0.0012148
1591.44	0.0011951
1601.08	0.0011574
1610.73	0.0011608
1620.37	0.0011607
1630.01	0.0010726
1639.66	0.0010726
1649.3	0.0010014
1658.95	0.0010401
1668.59	0.0009461
1678.24	0.0010044
1687.88	0.0009864
1697.53	0.0009925
1707.17	0.0009499
1716.82	0.000866
1726.46	0.0009991
1736.11	0.001092
1745.75	0.0010449
1755.4	0.001144
1765.04	0.0011415
1774.69	0.0012034
1784.33	0.0011513
1793.98	0.0013508
1803.62	0.0014711
1813.27	0.001613
1822.91	0.001913
1832.55	0.002093
1842.2	0.002413
1851.84	0.002913
1861.49	0.003513
1871.13	0.004373
1880.78	0.005663
1890.42	0.007213
1900.07	0.009103
1909.71	0.011453
1919.36	0.014343
1929	0.018003
1938.65	0.022503
1948.29	0.028263
1957.94	0.035723
1967.58	0.045823
1977.23	0.060543
1986.87	0.082683
1996.52	0.115403
2006.16	0.161453
2015.81	0.223433
2025.45	0.300813
2035.1	0.382733
2044.74	0.445163
2054.38	0.466123
2064.03	0.440463
2073.67	0.373423
2083.32	0.280253
2092.96	0.190323
2102.61	0.132803
2112.25	0.106293
2121.9	0.093833
2131.54	0.083963
2141.19	0.075133
2150.83	0.067853
2160.48	0.062053
2170.12	0.058083
2179.77	0.055913
2189.41	0.053603
2199.06	0.050593
2208.7	0.045453
2218.35	0.038093
2227.99	0.029683
2237.64	0.021453
2247.28	0.015733
2256.92	0.012643
2266.57	0.010833
2276.21	0.009343
2285.86	0.007833
2295.5	0.006483
2305.15	0.005403
2314.79	0.004403
2324.44	0.003713
2334.08	0.003173
2343.73	0.002633
2353.37	0.002413
2363.02	0.002043
2372.66	0.001903
2382.31	0.001633
2391.95	0.0014547
2401.6	0.0014355
2411.24	0.0012635
2420.89	0.0013378
2430.53	0.0013836
2440.18	0.0014025
2449.82	0.0012413
2459.47	0.0013348
2469.11	0.0014341
2478.75	0.0014813
2488.4	0.0015502
2498.04	0.001763
2507.69	0.001803
2517.33	0.001793
2526.98	0.001803
2536.62	0.001903
2546.27	0.002003
2555.91	0.002133
2565.56	0.002323
2575.2	0.002483
2584.85	0.002203
2594.49	0.002073
2604.14	0.001673
2613.78	0.0015193
2623.43	0.0015291
2633.07	0.0014861
2642.72	0.001563
2652.36	0.001593
2662.01	0.001973
2671.65	0.002413
2681.29	0.003103
2690.94	0.003963
2700.58	0.004533
2710.23	0.005213
2719.87	0.005933
2729.52	0.006863
2739.16	0.007323
2748.81	0.006913
2758.45	0.005983
2768.1	0.004853
2777.74	0.004233
2787.39	0.003463
2797.03	0.003033
2806.68	0.002823
2816.32	0.002903
2825.97	0.003103
2835.61	0.003513
2845.26	0.004123
2854.9	0.004863
2864.55	0.006483
2874.19	0.010043
2883.84	0.014593
2893.48	0.015623
2903.12	0.013213
2912.77	0.012213
2922.41	0.013873
2932.06	0.017573
2941.7	0.023103
2951.35	0.034383
2960.99	0.041543
2970.64	0.036723
2980.28	0.025323
2989.93	0.016223
2999.57	0.012723
3009.22	0.010813
3018.86	0.006493
3028.51	0.003193
3038.15	0.002123
3047.8	0.001643
3057.44	0.0013676
3067.09	0.0010386
3076.73	0.000873
3086.38	0.0008127
3096.02	0.00065482
3105.67	0.0006852
3115.31	0.0005491
3124.95	0.0004876
3134.6	0.00061867
3144.24	0.0005192
3153.89	0.00055787
3163.53	0.000425
3173.18	0.00039
3182.82	0.00056943
3192.47	0.000301
3202.11	0.000214
3211.76	0.000377
3221.4	0.000251
3231.05	0.000275
3240.69	0.00037
3250.34	0.000252
3259.98	0.000252
3269.63	0.000224
3279.27	0.00017
3288.92	0.000239
3298.56	0.000248
3308.21	0.000285
3317.85	0.000323
3327.49	0.000103
3337.14	0.000289
3346.78	8.7e-05
3356.43	0.000269
3366.07	0.000398
3375.72	0.000172
3385.36	0.000261
3395.01	0
3404.65	0.000228
3414.3	0.00041
3423.94	0.000291
3433.59	0.00043
3443.23	0.000245
3452.88	0.00045
3462.52	0.000194
3472.17	0.000302
3481.81	0.000312
3491.46	0.000233
3501.1	0.000339
3510.75	0.000358
3520.39	0.000317
3530.04	0.000472
3539.68	0.000332
3549.32	0.000353
3558.97	0.000296
3568.61	0.000275
3578.26	0.000362
3587.9	0.0004788
3597.55	0.000365
3607.19	0.0005496
3616.84	0.00065801
3626.48	0.000224
3636.13	0.00060267
3645.77	0.0006917
3655.42	0.0005367
3665.06	0.00036
3674.71	0.0005285
3684.35	0.0004922
3694	0.000572265
3703.64	0.00062644
3713.29	0.000381
3722.93	0.00055366
3732.58	0.00043
3742.22	0.000407
3751.86	0.0005509
3761.51	0.000441
3771.15	0.000377
3780.8	0.00038
3790.44	0.00062238
3800.09	0.0007108
3809.73	0.0006683
3819.38	0.00055782
3829.02	0.0004762
3838.67	0.0008193
3848.31	0.00060775
3857.96	0.0007281
3867.6	0.0008736
3877.25	0.0008382
3886.89	0.0008096
3896.54	0.00060219
3906.18	0.0010899
3915.83	0.0011177
3925.47	0.0009606
3935.12	0.0012118
3944.76	0.0010878
3954.41	0.0013271
3964.05	0.0015207
3973.69	0.001563
3983.34	0.001663
3992.98	0.001873
