Infrared Spectrum: 3-Bromopropyl isothiocyanate
Formula: C 4 H 6 Br N S
CAS: 2799-73-7
State: gas
Origin: EPA-IR VAPOR PHASE LIBRARY
1/CM	ABSORBANCE
549.8	0.011428
559.445	0.011398
569.09	0.011768
578.734	0.010388
588.379	0.007288
598.024	0.004908
607.669	0.003658
617.313	0.003058
626.958	0.003178
636.603	0.003608
646.248	0.004328
655.893	0.004888
665.537	0.004838
675.182	0.003738
684.827	0.002978
694.472	0.002828
704.116	0.002988
713.761	0.002868
723.406	0.002028
733.051	0.001828
742.695	0.001808
752.34	0.002498
761.985	0.004058
771.63	0.006688
781.275	0.010008
790.919	0.008318
800.564	0.004758
810.209	0.003588
819.854	0.002848
829.498	0.003048
839.143	0.002678
848.788	0.002848
858.433	0.003158
868.078	0.002728
877.722	0.002088
887.367	0.001638
897.012	0.001668
906.657	0.002168
916.301	0.002648
925.946	0.003158
935.591	0.004598
945.236	0.005128
954.88	0.004778
964.525	0.004098
974.17	0.004358
983.815	0.003968
993.46	0.003178
1003.1	0.003668
1012.75	0.004628
1022.39	0.004548
1032.04	0.003618
1041.68	0.003408
1051.33	0.003158
1060.97	0.003438
1070.62	0.003398
1080.26	0.003078
1089.91	0.003088
1099.55	0.003288
1109.2	0.003518
1118.84	0.004398
1128.49	0.003778
1138.13	0.003348
1147.78	0.003758
1157.42	0.003608
1167.07	0.003828
1176.71	0.004308
1186.36	0.005978
1196	0.008498
1205.64	0.009918
1215.29	0.010408
1224.93	0.008858
1234.58	0.007248
1244.22	0.009668
1253.87	0.021068
1263.51	0.025988
1273.16	0.017288
1282.8	0.018798
1292.45	0.018248
1302.09	0.012048
1311.74	0.009628
1321.38	0.010678
1331.03	0.016698
1340.67	0.032738
1350.32	0.049238
1359.96	0.040088
1369.61	0.024128
1379.25	0.013738
1388.9	0.006478
1398.54	0.004868
1408.18	0.004288
1417.83	0.005038
1427.47	0.007918
1437.12	0.013218
1446.76	0.017598
1456.41	0.023528
1466.05	0.020818
1475.7	0.006788
1485.34	0.003028
1494.99	0.002118
1504.63	0.001578
1514.28	0.001309
1523.92	0.0012098
1533.57	0.0011122
1543.21	0.0010233
1552.86	0.0009552
1562.5	0.0009617
1572.15	0.0008625
1581.79	0.0009448
1591.44	0.0008386
1601.08	0.0008911
1610.73	0.0008009
1620.37	0.0008336
1630.01	0.0008731
1639.66	0.0008644
1649.3	0.0007158
1658.95	0.0008234
1668.59	0.0007231
1678.24	0.0007569
1687.88	0.0007862
1697.53	0.0008321
1707.17	0.0007859
1716.82	0.0008198
1726.46	0.0007814
1736.11	0.0008291
1745.75	0.0007555
1755.4	0.0008346
1765.04	0.0008768
1774.69	0.0009012
1784.33	0.0009908
1793.98	0.0010649
1803.62	0.0012019
1813.27	0.0012865
1822.91	0.001518
1832.55	0.001718
1842.2	0.001828
1851.84	0.002298
1861.49	0.002818
1871.13	0.003398
1880.78	0.004128
1890.42	0.005088
1900.07	0.006398
1909.71	0.008038
1919.36	0.010158
1929	0.012848
1938.65	0.016178
1948.29	0.020318
1957.94	0.025828
1967.58	0.033608
1977.23	0.044898
1986.87	0.061638
1996.52	0.085598
2006.16	0.118208
2015.81	0.159878
2025.45	0.210428
2035.1	0.266388
2044.74	0.316868
2054.38	0.344058
2064.03	0.331098
2073.67	0.271208
2083.32	0.186868
2092.96	0.122318
2102.61	0.088368
2112.25	0.072248
2121.9	0.064968
2131.54	0.058748
2141.19	0.053198
2150.83	0.049558
2160.48	0.047668
2170.12	0.044638
2179.77	0.040288
2189.41	0.037068
2199.06	0.034208
2208.7	0.030248
2218.35	0.025408
2227.99	0.020088
2237.64	0.015688
2247.28	0.012518
2256.92	0.010128
2266.57	0.008118
2276.21	0.006698
2285.86	0.005588
2295.5	0.004588
2305.15	0.003698
2314.79	0.003188
2324.44	0.002638
2334.08	0.002058
2343.73	0.001898
2353.37	0.001408
2363.02	0.001352
2372.66	0.001224
2382.31	0.0012273
2391.95	0.0010976
2401.6	0.0010423
2411.24	0.0010949
2420.89	0.0009874
2430.53	0.0009909
2440.18	0.0010677
2449.82	0.0010743
2459.47	0.0011602
2469.11	0.0011141
2478.75	0.0012262
2488.4	0.0011964
2498.04	0.0011378
2507.69	0.0013134
2517.33	0.0013288
2526.98	0.0013425
2536.62	0.0013724
2546.27	0.001558
2555.91	0.001648
2565.56	0.001758
2575.2	0.001738
2584.85	0.001658
2594.49	0.001478
2604.14	0.0011586
2613.78	0.0012097
2623.43	0.0011759
2633.07	0.0012046
2642.72	0.0012445
2652.36	0.0013563
2662.01	0.001568
2671.65	0.001718
2681.29	0.002118
2690.94	0.002618
2700.58	0.003188
2710.23	0.003728
2719.87	0.004408
2729.52	0.005198
2739.16	0.005428
2748.81	0.004878
2758.45	0.004078
2768.1	0.003178
2777.74	0.002668
2787.39	0.002348
2797.03	0.002188
2806.68	0.002158
2816.32	0.002178
2825.97	0.002298
2835.61	0.002758
2845.26	0.003158
2854.9	0.003628
2864.55	0.004748
2874.19	0.007048
2883.84	0.009328
2893.48	0.009988
2903.12	0.008858
2912.77	0.008948
2922.41	0.009708
2932.06	0.011118
2941.7	0.015038
2951.35	0.022988
2960.99	0.026738
2970.64	0.021928
2980.28	0.015218
2989.93	0.008988
2999.57	0.005378
3009.22	0.004258
3018.86	0.004538
3028.51	0.003388
3038.15	0.001878
3047.8	0.0011575
3057.44	0.0008743
3067.09	0.0006994
3076.73	0.0007061
3086.38	0.0006376
3096.02	0.00042862
3105.67	0.0005161
3115.31	0.0003129
3124.95	0.0003356
3134.6	0.0005972
3144.24	0.00040839
3153.89	0.0003419
3163.53	0.0004898
3173.18	0.0003617
3182.82	0.000212
3192.47	0.000168
3202.11	0.0003381
3211.76	0.000213
3221.4	9e-05
3231.05	0.000142
3240.69	0.000231
3250.34	8.2e-05
3259.98	0.000252
3269.63	0.000217
3279.27	0.000141
3288.92	0.00013
3298.56	0.0002
3308.21	0.000134
3317.85	0.00012
3327.49	0.000154
3337.14	0.00033
3346.78	0.00040719
3356.43	0.000367
3366.07	0.0003735
3375.72	0.000289
3385.36	0.0003511
3395.01	0.0003188
3404.65	0.000274
3414.3	0.000264
3423.94	0.000194
3433.59	0.0003253
3443.23	0.0003011
3452.88	0.00040288
3462.52	0.00047876
3472.17	0.00043779
3481.81	0.0004151
3491.46	0.0003341
3501.1	0.0003286
3510.75	0.0003538
3520.39	0.0005886
3530.04	0.00045694
3539.68	0.0003145
3549.32	0.00040125
3558.97	0.0003511
3568.61	0.00043043
3578.26	0.0005101
3587.9	0.00046033
3597.55	0.00044144
3607.19	0.0003672
3616.84	0.0005186
3626.48	0.000266
3636.13	0.0005639
3645.77	0.0003542
3655.42	0.00047307
3665.06	0.000316
3674.71	0.00037906
3684.35	0.0002987
3694	0.00040198
3703.64	0.00040404
3713.29	0.00046117
3722.93	0.0005371
3732.58	0.0005576
3742.22	0.0005275
3751.86	0.0006556
3761.51	0.0003779
3771.15	0.00046422
3780.8	0.0003579
3790.44	0.0006144
3800.09	0.0006429
3809.73	0.000391001
3819.38	0.0005896
3829.02	0.0006276
3838.67	0.000389662
3848.31	0.00048567
3857.96	0.0006014
3867.6	0.0005762
3877.25	0.0005016
3886.89	0.000736
3896.54	0.0007823
3906.18	0.0006361
3915.83	0.000784
3925.47	0.0006623
3935.12	0.0011288
3944.76	0.0008578
3954.41	0.000887
3964.05	0.0009169
3973.69	0.0012102
3983.34	0.001232
3992.98	0.001237
