Infrared Spectrum: BICYCLO[2.2.2]OCTANE, 1,4-DIAZA-
Formula: C6 H12 N2
CAS: 280-57-9
State: SOLUTION (10% CCl4 FOR 4000-1200, 10% CS2 FOR 1200-450 CM^-^1) VS SOLVENT
Class: COBLENTZ III
Instrument: CARY 90 (GRATING)
Instrument parameters: ORDER CHANGES: 3000, 2000, 1200 CM^-^1
Sampling: TRANSMISSION
Path length: 0.010 CM, AND 0.011 CM
Resolution: 2
Origin: WESTERN REGIONAL RES. USDA
1/CM	TRANSMITTANCE
3942	0.894
3933	0.8947
3924	0.8955
3915	0.8963
3906	0.8971
3897	0.8971
3888	0.8971
3879	0.897
3870	0.8974
3861	0.8977
3852	0.8981
3843	0.8989
3834	0.9001
3825	0.9012
3816	0.9023
3807	0.9031
3798	0.9027
3789	0.9017
3780	0.9
3771	0.8975
3762	0.8939
3753	0.8925
3744	0.8941
3735	0.8953
3726	0.8959
3717	0.8951
3708	0.8933
3699	0.883
3690	0.8605
3681	0.8318
3672	0.8453
3663	0.8701
3654	0.885
3645	0.8937
3636	0.899
3627	0.9004
3618	0.9018
3609	0.9027
3600	0.9024
3591	0.902
3582	0.9008
3573	0.8996
3564	0.8985
3555	0.8952
3546	0.8915
3537	0.8875
3528	0.8837
3519	0.8817
3510	0.8804
3501	0.879
3492	0.8778
3483	0.8766
3474	0.8747
3465	0.8727
3456	0.8705
3447	0.8675
3438	0.8645
3429	0.8615
3420	0.8561
3411	0.8493
3402	0.8437
3393	0.8365
3384	0.8283
3375	0.822
3366	0.8191
3357	0.8239
3348	0.8268
3339	0.8292
3330	0.8306
3321	0.8278
3312	0.8252
3303	0.8228
3294	0.8196
3285	0.8142
3276	0.8064
3267	0.7997
3258	0.8044
3249	0.8183
3240	0.8346
3231	0.845
3222	0.8448
3213	0.842
3204	0.8393
3195	0.8345
3186	0.828
3177	0.8247
3168	0.8243
3159	0.8259
3150	0.8278
3141	0.8298
3132	0.832
3123	0.8339
3114	0.8356
3105	0.8371
3096	0.8382
3087	0.8381
3078	0.8381
3069	0.8334
3060	0.826
3051	0.8178
3042	0.803
3033	0.7892
3024	0.7758
3015	0.7604
3006	0.7425
2997	0.7133
2988	0.6694
2979	0.5953
2970	0.4371
2961	0.2359
2952	0.0347
2943	0.0084
2934	0.008
2925	0.0077
2916	0.0249
2907	0.0788
2898	0.1862
2889	0.2664
2880	0.1794
2871	0.0572
2862	0.0054
2853	0.1178
2844	0.441
2835	0.6876
2826	0.7342
2817	0.7899
2808	0.8205
2799	0.8453
2790	0.8541
2781	0.857
2772	0.858
2763	0.8604
2754	0.8661
2745	0.876
2736	0.8863
2727	0.897
2718	0.9025
2709	0.9025
2700	0.9011
2691	0.8961
2682	0.8893
2673	0.8821
2664	0.8764
2655	0.8725
2646	0.8692
2637	0.8661
2628	0.8633
2619	0.8621
2610	0.8625
2601	0.8631
2592	0.8663
2583	0.8818
2574	0.8956
2565	0.8998
2556	0.9038
2547	0.9057
2538	0.9075
2529	0.906
2520	0.9043
2511	0.903
2502	0.902
2493	0.9017
2484	0.9021
2475	0.9025
2466	0.9028
2457	0.9028
2448	0.9028
2439	0.903
2430	0.9028
2421	0.9032
2412	0.9031
2403	0.9028
2394	0.9001
2385	0.8944
2376	0.8854
2367	0.873
2358	0.8727
2349	0.8736
2340	0.874
2331	0.8721
2322	0.872
2313	0.8718
2304	0.8709
2295	0.8709
2286	0.8766
2277	0.8866
2268	0.8921
2259	0.8933
2250	0.8928
2241	0.8931
2232	0.8924
2223	0.888
2214	0.8768
2205	0.8775
2196	0.8862
2187	0.8913
2178	0.8963
2169	0.9001
2160	0.9015
2151	0.9011
2142	0.8971
2133	0.8849
2124	0.8638
2115	0.8677
2106	0.8831
2097	0.8892
2088	0.8824
2079	0.8671
2070	0.871
2061	0.875
2052	0.8743
2043	0.8735
2034	0.8737
2025	0.8744
2016	0.8768
2007	0.8823
1998	0.8974
1989	0.9058
1980	0.9125
1971	0.9121
1962	0.9077
1953	0.9041
1944	0.9021
1935	0.9015
1926	0.9031
1917	0.9036
1908	0.9039
1899	0.904
1890	0.9025
1881	0.8998
1872	0.8898
1863	0.8584
1854	0.8799
1845	0.8948
1836	0.9013
1827	0.9028
1818	0.9011
1809	0.8964
1800	0.8823
1791	0.8585
1782	0.8605
1773	0.8735
1764	0.8911
1755	0.9
1746	0.9008
1737	0.8975
1728	0.8986
1719	0.8978
1710	0.8954
1701	0.8933
1692	0.8913
1683	0.8892
1674	0.8861
1665	0.8821
1656	0.8783
1647	0.8748
1638	0.8711
1629	0.8715
1620	0.8718
1611	0.8723
1602	0.8728
1593	0.8732
1584	0.8725
1575	0.8724
1566	0.8754
1557	0.8783
1548	0.8736
1539	0.8678
1530	0.8647
1521	0.8662
1512	0.8607
1503	0.8532
1494	0.8456
1485	0.8352
1476	0.8188
1467	0.7376
1458	0.2602
1449	0.2465
1440	0.6641
1431	0.7962
1422	0.8284
1413	0.8434
1404	0.8482
1395	0.849
1386	0.8427
1377	0.845
1368	0.8403
1359	0.8086
1350	0.4912
1341	0.7621
1332	0.7222
1323	0.406
1314	0.063
1305	0.6412
1296	0.6725
1287	0.7375
1278	0.7936
1269	0.8275
1260	0.8461
1251	0.8385
1242	0.832
1233	0.8286
1224	0.8354
1215	0.8341
1206	0.8275
1197	0.8411
1188	0.8345
1179	0.8154
1170	0.8261
1161	0.8342
1152	0.8191
1143	0.8516
1134	0.8588
1125	0.861
1116	0.8618
1107	0.8578
1098	0.8492
1089	0.8311
1080	0.7724
1071	0.6892
1062	0.1565
1053	0.0017
1044	0.5268
1035	0.6835
1026	0.7399
1017	0.7728
1008	0.7771
999	0.7217
990	0.4771
981	0.3492
972	0.7667
963	0.8183
954	0.8257
945	0.8382
936	0.8418
927	0.8405
918	0.836
909	0.8252
900	0.7836
891	0.4091
882	0.6701
873	0.8076
864	0.828
855	0.8345
846	0.8268
837	0.8036
828	0.7312
819	0.461
810	0.7575
801	0.7778
792	0.7736
783	0.7394
774	0.6148
765	0.0353
756	0.2498
747	0.049
738	0.4671
729	0.6844
720	0.7455
711	0.7731
702	0.7849
693	0.7861
684	0.7899
675	0.7918
666	0.785
657	0.7592
648	0.7558
639	0.7686
630	0.7721
621	0.7692
612	0.7619
603	0.7511
594	0.7414
585	0.7322
576	0.7196
567	0.706
558	0.6924
549	0.6807
540	0.6697
531	0.6583
522	0.6465
513	0.6334
504	0.6203
495	0.6051
486	0.5912
477	0.5771
