Infrared Spectrum: Bicyclo[2.2.2]octane
Formula: C 8 H 14
CAS: 280-33-1
State: gas
Instrument: HP-GC/MS/IRD
Origin: NIST Mass Spectrometry Data Center
1/CM	ABSORBANCE
550	0.0004032
562	0.0001152
574	0.0001896
586	0.0002616
598	0.0002184
610	0.000168
622	6.72e-05
634	0.0001392
646	2.16e-05
658	8.4e-05
670	0.0001584
682	0.0001104
694	0.000144
706	0.0001176
718	0.00012
730	7.44e-05
742	7.68e-05
754	0.0001056
766	7.92e-05
778	7.92e-05
790	0.0001704
802	0.0001152
814	0.0001104
826	0.0002184
838	0.0001176
850	0.0001584
862	0.0002808
874	0.0001992
886	8.88e-05
898	4.08e-05
910	2.4e-05
922	4.56e-05
934	6.48e-05
946	8.88e-05
958	8.64e-05
970	9.84e-05
982	9.12e-05
994	0.0001152
1006	7.68e-05
1018	9.84e-05
1030	0.0001584
1042	7.68e-05
1054	9.6e-05
1066	0.0001056
1078	0.0001152
1090	0.0001368
1102	0.0001536
1114	0.0001608
1126	0.0002256
1138	0.0001272
1150	8.64e-05
1162	0.0001128
1174	9.36e-05
1186	0.0001296
1198	0.0001392
1210	0.0001392
1222	0.0001224
1234	0.0001728
1246	0.0001824
1258	0.00036
1270	0.0003816
1282	0.0002328
1294	0.0001008
1306	6.72e-05
1318	6e-05
1330	5.76e-05
1342	4.8e-05
1354	5.52e-05
1366	9.84e-05
1378	7.92e-05
1390	6.96e-05
1402	9.6e-05
1414	0.00012
1426	0.0001584
1438	0.0004464
1450	0.0009768
1462	0.001428
1474	0.0008544
1486	0.0003144
1498	0.0001512
1510	0.0001032
1522	9.36e-05
1534	9.6e-05
1546	6.96e-05
1558	0.000132
1570	7.44e-05
1582	6.48e-05
1594	4.32e-05
1606	8.88e-05
1618	9.84e-05
1630	6.96e-05
1642	7.2e-05
1654	0.0001056
1666	4.8e-05
1678	7.44e-05
1690	5.76e-05
1702	7.44e-05
1714	7.2e-05
1726	6.24e-05
1738	8.64e-05
1750	5.04e-05
1762	1.92e-05
1774	6.72e-05
1786	1.68e-05
1798	4.08e-05
1810	5.04e-05
1822	4.8e-05
1834	3.36e-05
1846	2.88e-05
1858	4.56e-05
1870	4.56e-05
1882	3.12e-05
1894	2.16e-05
1906	3.36e-05
1918	2.4e-05
1930	2.4e-05
1942	2.64e-05
1954	4.32e-05
1966	4.32e-05
1978	3.36e-05
1990	2.64e-05
2002	2.88e-05
2014	4.8e-06
2026	3.84e-05
2038	3.36e-05
2050	3.36e-05
2062	3.36e-05
2074	2.4e-05
2086	3.84e-05
2098	4.8e-05
2110	5.76e-05
2122	5.76e-05
2134	5.04e-05
2146	3.84e-05
2158	4.08e-05
2170	5.52e-05
2182	5.76e-05
2194	4.8e-05
2206	5.52e-05
2218	1.92e-05
2230	4.32e-05
2242	6e-05
2254	3.84e-05
2266	3.12e-05
2278	3.84e-05
2290	1.68e-05
2302	4.08e-05
2314	3.12e-05
2326	5.76e-05
2338	6.72e-05
2350	8.4e-05
2362	8.4e-05
2374	3.36e-05
2386	3.36e-05
2398	2.4e-05
2410	4.32e-05
2422	1.68e-05
2434	5.76e-05
2446	2.16e-05
2458	2.88e-05
2470	6e-05
2482	1.44e-05
2494	4.8e-05
2506	4.56e-05
2518	5.28e-05
2530	4.8e-05
2542	5.52e-05
2554	8.16e-05
2566	8.16e-05
2578	0.0001008
2590	7.68e-05
2602	7.92e-05
2614	7.2e-05
2626	0.0001416
2638	0.000228
2650	0.0002472
2662	0.0001848
2674	0.0001368
2686	6.96e-05
2698	3.84e-05
2710	6.24e-05
2722	4.8e-05
2734	4.56e-05
2746	9.12e-05
2758	0.0001392
2770	0.000192
2782	0.0002352
2794	0.0002592
2806	0.0003048
2818	0.000336
2830	0.0004536
2842	0.0008712
2854	0.0032184
2866	0.0059016
2878	0.006348
2890	0.0044808
2902	0.0049392
2914	0.0101352
2926	0.019488
2938	0.0231456
2950	0.014604
2962	0.0062616
2974	0.0016344
2986	0.0007728
2998	0.0005136
3010	0.00042
3022	0.0003384
3034	0.000276
3046	0.0001944
3058	0.0001176
3070	9.36e-05
3082	7.68e-05
3094	3.12e-05
3106	7.68e-05
3118	8.16e-05
3130	2.16e-05
3142	6.72e-05
3154	6.72e-05
3166	5.52e-05
3178	7.44e-05
3190	0.0001224
3202	0.0001728
3214	0.0001224
3226	9.84e-05
3238	0.0001176
3250	8.16e-05
3262	7.68e-05
3274	9.12e-05
3286	6.24e-05
3298	0.0001032
3310	0.0001608
3322	0.0001032
3334	0.0001248
3346	0.0001128
3358	8.16e-05
3370	9.12e-05
3382	9.6e-05
3394	0.0001584
3406	0.0001488
3418	0.0001368
3430	0.0001464
3442	7.68e-05
3454	8.4e-05
3466	0.0001008
3478	0.000132
3490	0.0001488
3502	0.0001152
3514	0.0001392
3526	0.0001464
3538	0.0001464
3550	8.88e-05
3562	0.0001536
3574	0.000156
3586	0.00018
3598	0.0001512
3610	0.0001344
3622	0.0001704
3634	0.0001632
3646	0.0001656
3658	0.0001944
3670	0.0001944
3682	0.000192
3694	0.00018
3706	0.0001728
3718	0.0001944
3730	0.0002424
3742	0.0002112
3754	0.0002208
3766	0.0002256
3778	0.0002136
3790	0.0001944
3802	0.0002136
3814	0.0002112
3826	0.000216
3838	0.0002592
