Infrared Spectrum: 2-AMINO-4-METHYL PENTENOIC ACID
Formula: C6 H11 N O2
CAS: 28024-78-4
State: SOLID (KBr PELLET)
Class: COBLENTZ
Instrument: PERKIN-ELMER
Sampling: TRANSMISSION
Resolution: 4
Origin: ABBOTT LABORATORIES - WASHBURN
MICROMETERS	TRANSMITTANCE
2.072	0.746
2.11147	0.744
2.15095	0.741
2.19042	0.7409
2.2299	0.746
2.26937	0.7422
2.30884	0.739
2.34832	0.747
2.38779	0.747
2.42727	0.749
2.46674	0.744
2.50621	0.7508
2.54569	0.747
2.58516	0.7519
2.62463	0.7511
2.66411	0.746
2.70358	0.737
2.74306	0.7041
2.78253	0.6484
2.822	0.5804
2.86148	0.5359
2.90095	0.5118
2.94043	0.5364
2.9799	0.5767
3.01937	0.565
3.05885	0.5243
3.09832	0.4215
3.1378	0.3059
3.17727	0.2205
3.21674	0.1991
3.25622	0.1938
3.29569	0.1873
3.33516	0.167
3.37464	0.159
3.41411	0.1918
3.45359	0.2247
3.49306	0.2567
3.53253	0.2854
3.57201	0.3157
3.61148	0.3247
3.65096	0.321
3.69043	0.3379
3.7299	0.351
3.76938	0.3381
3.80885	0.325
3.84833	0.318
3.8878	0.3082
3.92727	0.313
3.96675	0.33
4.00622	0.341
4.0457	0.354
4.08517	0.3784
4.12464	0.4158
4.16412	0.4515
4.20359	0.4654
4.24306	0.502
4.28254	0.533
4.32201	0.5528
4.36149	0.56
4.40096	0.5649
4.44043	0.567
4.47991	0.5602
4.51938	0.5474
4.55886	0.4901
4.59833	0.479
4.6378	0.5117
4.67728	0.5611
4.71675	0.5845
4.75623	0.6128
4.7957	0.6298
4.83517	0.6409
4.87465	0.6509
4.91412	0.658
4.95359	0.663
4.99307	0.669
5.03254	0.678
5.07202	0.6755
5.11149	0.683
5.15096	0.686
5.19044	0.691
5.22991	0.693
5.26939	0.698
5.30886	0.699
5.34833	0.704
5.38781	0.703
5.42728	0.7036
5.46676	0.696
5.50623	0.689
5.5457	0.6854
5.58518	0.6863
5.62465	0.6876
5.66413	0.6829
5.7036	0.665
5.74307	0.6504
5.78255	0.6331
5.82202	0.6118
5.86149	0.5837
5.90097	0.5166
5.94044	0.425
5.97992	0.304
6.01939	0.1863
6.05886	0.1097
6.09834	0.0865
6.13781	0.056
6.17729	0.066
6.21676	0.0924
6.25623	0.0479
6.29571	0.0527
6.33518	0.1619
6.37466	0.2501
6.41413	0.3029
6.4536	0.3195
6.49308	0.2774
6.53255	0.1832
6.57202	0.1039
6.6115	0.0538
6.65097	0.046
6.69045	0.1146
6.72992	0.2212
6.76939	0.2829
6.80887	0.339
6.84834	0.346
6.88782	0.3367
6.92729	0.2746
6.96676	0.3031
7.00624	0.286
7.04571	0.1568
7.08519	0.1097
7.12466	0.1844
7.16413	0.2508
7.20361	0.269
7.24308	0.3414
7.28256	0.4181
7.32203	0.4283
7.3615	0.3217
7.40098	0.232
7.44045	0.3001
7.47992	0.3303
7.5194	0.2664
7.55887	0.2097
7.59835	0.1505
7.63782	0.2887
7.67729	0.4811
7.71677	0.5182
7.75624	0.533
7.79572	0.5127
7.83519	0.4885
7.87466	0.5779
7.91414	0.615
7.95361	0.6258
7.99309	0.6323
8.03256	0.63
8.07203	0.6304
8.11151	0.631
8.15098	0.6358
8.19045	0.627
8.22993	0.5877
8.2694	0.5362
8.30888	0.571
8.34835	0.6132
8.38782	0.6365
8.4273	0.658
8.46677	0.663
8.50625	0.6598
8.54572	0.643
8.58519	0.6124
8.62467	0.5488
8.66414	0.4439
8.70362	0.4774
8.74309	0.5667
8.78256	0.59
8.82204	0.587
8.86151	0.587
8.90099	0.6157
8.94046	0.63
8.97993	0.6443
9.01941	0.6521
9.05888	0.658
9.09835	0.6596
9.13783	0.656
9.1773	0.656
9.21678	0.6483
9.25625	0.6452
9.29572	0.643
9.3352	0.64
9.37467	0.6117
9.41415	0.5584
9.45362	0.5777
9.49309	0.6393
9.53257	0.6677
9.57204	0.665
9.61152	0.651
9.65099	0.6471
9.69046	0.6668
9.72994	0.6681
9.76941	0.6596
9.80888	0.661
9.84836	0.66
9.88783	0.6645
9.92731	0.669
9.96678	0.6585
10.0063	0.6418
10.0457	0.6503
10.0852	0.6652
10.1247	0.6742
10.1641	0.6809
10.2036	0.6881
10.2431	0.68
10.2826	0.6686
10.322	0.6387
10.3615	0.6075
10.401	0.6169
10.4405	0.6382
10.4799	0.643
10.5194	0.6313
10.5589	0.63
10.5984	0.653
10.6378	0.672
10.6773	0.676
10.7168	0.676
10.7563	0.674
10.7957	0.6631
10.8352	0.6506
10.8747	0.6258
10.9142	0.5918
10.9536	0.559
10.9931	0.5372
11.0326	0.4937
11.072	0.4339
11.1115	0.3736
11.151	0.3434
11.1905	0.2765
11.2299	0.2638
11.2694	0.3758
11.3089	0.5361
11.3484	0.6043
11.3878	0.6217
11.4273	0.635
11.4668	0.6428
11.5063	0.6402
11.5457	0.6029
11.5852	0.5429
11.6247	0.4713
11.6642	0.5294
11.7036	0.6184
11.7431	0.6383
11.7826	0.658
11.8221	0.6514
11.8615	0.6294
11.901	0.6306
11.9405	0.653
11.9799	0.679
12.0194	0.6949
12.0589	0.708
12.0984	0.716
12.1378	0.716
12.1773	0.7146
12.2168	0.714
12.2563	0.714
12.2957	0.716
12.3352	0.718
12.3747	0.724
12.4142	0.726
12.4536	0.7276
12.4931	0.726
12.5326	0.724
12.5721	0.721
12.6115	0.721
12.651	0.718
12.6905	0.709
12.73	0.7009
12.7694	0.6744
12.8089	0.6502
12.8484	0.5989
12.8878	0.5559
12.9273	0.6045
12.9668	0.6557
13.0063	0.6884
13.0457	0.699
13.0852	0.7039
13.1247	0.7088
13.1642	0.709
13.2036	0.711
13.2431	0.708
13.2826	0.713
13.3221	0.7112
13.3615	0.716
13.401	0.7189
13.4405	0.726
13.48	0.7233
13.5194	0.724
13.5589	0.726
13.5984	0.726
13.6379	0.721
13.6773	0.714
13.7168	0.713
13.7563	0.7045
13.7957	0.701
13.8352	0.6919
13.8747	0.686
13.9142	0.6804
13.9536	0.676
13.9931	0.6689
14.0326	0.665
14.0721	0.6582
14.1115	0.6502
14.151	0.6419
14.1905	0.6418
14.23	0.6526
14.2694	0.6732
14.3089	0.6781
14.3484	0.676
14.3879	0.676
14.4273	0.6732
14.4668	0.6637
14.5063	0.653
14.5458	0.6251
14.5852	0.581
14.6247	0.5414
14.6642	0.4951
14.7036	0.4885
14.7431	0.5215
14.7826	0.5712
14.8221	0.6007
14.8615	0.616
14.901	0.625
14.9405	0.6282
14.98	0.6549
15.0194	0.658
15.0589	0.6603
15.0984	0.661
15.1379	0.667
15.1773	0.668
15.2168	0.666
15.2563	0.669
15.2958	0.669
15.3352	0.669
15.3747	0.671
