Infrared Spectrum: p-CHLOROBENZHYDRYLAMINE
Formula: C13 H12 Cl N
CAS: 28022-43-7
State: LIQUID
Class: COBLENTZ
Instrument: PERKIN-ELMER
Sampling: TRANSMISSION
Path length: CAPILLARY
Resolution: 4
Origin: ABBOTT LABORATORIES - WASHBURN
MICROMETERS	TRANSMITTANCE
1.996	0.909
2.03006	0.905
2.06412	0.907
2.09818	0.909
2.13224	0.9089
2.1663	0.898
2.20036	0.904
2.23442	0.91
2.26848	0.909
2.30254	0.9117
2.3366	0.8982
2.37066	0.8981
2.40472	0.902
2.43878	0.8931
2.47284	0.8919
2.5069	0.9069
2.54096	0.905
2.57502	0.905
2.60908	0.909
2.64314	0.905
2.6772	0.902
2.71126	0.892
2.74532	0.89
2.77938	0.8898
2.81344	0.89
2.8475	0.885
2.88156	0.8778
2.91562	0.848
2.94968	0.7704
2.98374	0.8078
3.0178	0.7891
3.05186	0.8177
3.08592	0.837
3.11998	0.844
3.15404	0.852
3.1881	0.845
3.22216	0.7546
3.25622	0.71
3.29028	0.7291
3.32434	0.8452
3.3584	0.868
3.39246	0.8639
3.42652	0.8468
3.46058	0.8105
3.49464	0.7889
3.5287	0.8314
3.56276	0.8709
3.59682	0.8858
3.63088	0.893
3.66494	0.9019
3.699	0.902
3.73306	0.902
3.76712	0.902
3.80118	0.902
3.83524	0.9051
3.8693	0.904
3.90336	0.904
3.93742	0.904
3.97148	0.909
4.00554	0.9092
4.0396	0.9071
4.07366	0.9099
4.10772	0.91
4.14178	0.9099
4.17584	0.909
4.2099	0.9069
4.24396	0.907
4.27802	0.909
4.31208	0.909
4.34614	0.907
4.3802	0.9039
4.41426	0.909
4.44832	0.91
4.48238	0.909
4.51644	0.91
4.5505	0.9091
4.58456	0.9102
4.61862	0.912
4.65268	0.912
4.68674	0.914
4.7208	0.914
4.75486	0.912
4.78892	0.909
4.82298	0.912
4.85704	0.912
4.8911	0.912
4.92516	0.91
4.95922	0.909
4.99328	0.9
5.02734	0.8971
5.0614	0.8785
5.09546	0.868
5.12952	0.8807
5.16358	0.8869
5.19764	0.8702
5.2317	0.8438
5.26576	0.8526
5.29982	0.8733
5.33388	0.8901
5.36794	0.9
5.402	0.905
5.43606	0.8908
5.47012	0.8841
5.50418	0.8768
5.53824	0.8805
5.5723	0.881
5.60636	0.8765
5.64042	0.8764
5.67448	0.8812
5.70854	0.89
5.7426	0.89
5.77666	0.885
5.81072	0.8906
5.84478	0.8835
5.87884	0.8818
5.9129	0.8677
5.94696	0.839
5.98102	0.8194
6.01508	0.809
6.04914	0.8109
6.0832	0.7942
6.11726	0.7564
6.15132	0.7062
6.18538	0.6444
6.21944	0.557
6.2535	0.597
6.28756	0.6308
6.32162	0.6837
6.35568	0.7293
6.38974	0.7553
6.4238	0.784
6.45786	0.796
6.49192	0.8125
6.52598	0.8277
6.56004	0.8324
6.5941	0.8252
6.62816	0.7784
6.66222	0.5596
6.69628	0.2431
6.73034	0.2204
6.7644	0.62
6.79846	0.7607
6.83252	0.777
6.86658	0.5654
6.90064	0.6095
6.9347	0.7762
6.96876	0.8219
7.00282	0.8259
7.03688	0.8194
7.07094	0.7312
7.105	0.594
7.13906	0.6656
7.17312	0.7582
7.20718	0.8097
7.24124	0.8191
7.2753	0.821
7.30936	0.8075
7.34342	0.7952
7.37748	0.7863
7.41154	0.7815
7.4456	0.7698
7.47966	0.751
7.51372	0.7479
7.54778	0.7641
7.58184	0.7845
7.6159	0.7828
7.64996	0.7613
7.68402	0.7649
7.71808	0.777
7.75214	0.7712
7.7862	0.7705
7.82026	0.8012
7.85432	0.7919
7.88838	0.787
7.92244	0.8056
7.9565	0.8144
7.99056	0.82
8.02462	0.823
8.05868	0.8312
8.09274	0.839
8.1268	0.8425
8.16086	0.8512
8.19492	0.8593
8.22898	0.8609
8.26304	0.8573
8.2971	0.8497
8.33116	0.8356
8.36522	0.8185
8.39928	0.7855
8.43334	0.7475
8.4674	0.761
8.50146	0.7705
8.53552	0.7704
8.56958	0.8007
8.60364	0.8227
8.6377	0.8166
8.67176	0.806
8.70582	0.8147
8.73988	0.8259
8.77394	0.83
8.808	0.8343
8.84206	0.8314
8.87612	0.828
8.91018	0.8229
8.94424	0.8201
8.9783	0.8035
9.01236	0.7415
9.04642	0.6566
9.08048	0.5944
9.11454	0.5757
9.1486	0.4345
9.18266	0.2425
9.21672	0.3438
9.25078	0.5143
9.28484	0.6313
9.3189	0.686
9.35296	0.7281
9.38702	0.7639
9.42108	0.779
9.45514	0.769
9.4892	0.7515
9.52326	0.7347
9.55732	0.7349
9.59138	0.754
9.62544	0.7804
9.6595	0.7968
9.69356	0.7965
9.72762	0.6935
9.76168	0.643
9.79574	0.7116
9.8298	0.6728
9.86386	0.2436
9.89792	0.4446
9.93198	0.7007
9.96604	0.7481
10.0001	0.755
10.0342	0.7986
10.0682	0.8248
10.1023	0.8284
10.1363	0.8154
10.1704	0.813
10.2045	0.813
10.2385	0.8156
10.2726	0.8052
10.3066	0.792
10.3407	0.78
10.3748	0.772
10.4088	0.7634
10.4429	0.7639
10.4769	0.7587
10.511	0.7488
10.5451	0.7295
10.5791	0.716
10.6132	0.7065
10.6472	0.703
10.6813	0.6909
10.7154	0.6736
10.7494	0.6472
10.7835	0.6284
10.8175	0.5968
10.8516	0.5856
10.8857	0.5593
10.9197	0.5402
10.9538	0.5284
10.9878	0.5214
11.0219	0.5093
11.056	0.493
11.09	0.4772
11.1241	0.4722
11.1581	0.469
11.1922	0.467
11.2263	0.4695
11.2603	0.474
11.2944	0.4802
11.3284	0.5011
11.3625	0.5163
11.3966	0.5354
11.4306	0.558
11.4647	0.5848
11.4987	0.612
11.5328	0.6324
11.5669	0.648
11.6009	0.6701
11.635	0.678
11.669	0.678
11.7031	0.6646
11.7372	0.6285
11.7712	0.55
11.8053	0.4672
11.8393	0.3606
11.8734	0.3015
11.9075	0.284
11.9415	0.2963
11.9756	0.3437
12.0096	0.3642
12.0437	0.3771
12.0778	0.3884
12.1118	0.3983
12.1459	0.404
12.1799	0.4204
12.214	0.4449
12.2481	0.4635
12.2821	0.4823
12.3162	0.5014
12.3502	0.5169
12.3843	0.525
12.4184	0.5328
12.4524	0.539
12.4865	0.534
12.5205	0.522
12.5546	0.509
12.5887	0.4915
12.6227	0.4768
12.6568	0.4513
12.6908	0.4371
12.7249	0.4177
12.759	0.409
12.793	0.4092
12.8271	0.4224
12.8611	0.4451
12.8952	0.4579
12.9293	0.4813
12.9633	0.4923
12.9974	0.5023
13.0314	0.4892
13.0655	0.4443
13.0996	0.3929
13.1336	0.3213
13.1677	0.2839
13.2017	0.2498
13.2358	0.2359
13.2699	0.2262
13.3039	0.2387
13.338	0.2702
13.372	0.3262
13.4061	0.3786
13.4402	0.405
13.4742	0.4486
13.5083	0.5084
13.5423	0.5582
13.5764	0.6306
13.6105	0.6697
13.6445	0.6893
13.6786	0.6994
13.7126	0.7076
13.7467	0.71
13.7808	0.703
13.8148	0.6678
13.8489	0.5848
13.8829	0.4584
13.917	0.3638
13.9511	0.3765
13.9851	0.4647
14.0192	0.5245
14.0532	0.5681
14.0873	0.561
14.1214	0.5029
14.1554	0.4225
14.1895	0.3096
14.2235	0.2124
14.2576	0.1509
14.2917	0.125
14.3257	0.1385
14.3598	0.2297
14.3938	0.3612
14.4279	0.4689
14.462	0.5564
14.496	0.5994
14.5301	0.6253
14.5641	0.642
14.5982	0.647
14.6323	0.6418
14.6663	0.6301
14.7004	0.6173
14.7344	0.6028
14.7685	0.5779
14.8026	0.5684
14.8366	0.5536
14.8707	0.547
14.9047	0.553
14.9388	0.5662
14.9729	0.5801
15.0069	0.606
15.041	0.6205
15.075	0.63
15.1091	0.638
15.1432	0.6488
15.1772	0.656
15.2113	0.6595
15.2453	0.664
15.2794	0.666
15.3135	0.6672
