Infrared Spectrum: 2,2,4-Trimethylcyclopentanone
Formula: C 8 H 14 O
CAS: 28056-54-4
State: gas
Instrument: HP-GC/MS/IRD
Origin: NIST Mass Spectrometry Data Center
1/CM	ABSORBANCE
550	6.44e-05
562	0.0002208
574	0.0004646
586	0.0003726
598	0.0003588
610	0.0003864
622	0.0002806
634	0.0002024
646	9.66e-05
658	0.0001288
670	0.0001978
682	0.000529
694	0.0008372
706	0.0006624
718	0.0002714
730	0.0001012
742	2.3e-05
754	4.6e-06
766	5.98e-05
778	5.98e-05
790	0.000115
802	0.0002254
814	0.0004462
826	0.0009982
838	0.0013984
850	0.0009016
862	0.0004186
874	0.0003404
886	0.0003542
898	0.0006808
910	0.0011822
922	0.0010948
934	0.000598
946	0.0005244
958	0.0004646
970	0.0004968
982	0.0005474
994	0.0006716
1006	0.000851
1018	0.0013202
1030	0.001909
1042	0.0020792
1054	0.002553
1066	0.0048576
1078	0.0073922
1090	0.006601
1102	0.0039744
1114	0.002461
1126	0.002553
1138	0.0048254
1150	0.0055568
1162	0.0030268
1174	0.0016652
1186	0.0018124
1198	0.0020516
1210	0.0024242
1222	0.002277
1234	0.0023276
1246	0.002461
1258	0.0016836
1270	0.0011546
1282	0.0011868
1294	0.0018032
1306	0.002047
1318	0.00161
1330	0.0013662
1342	0.002116
1354	0.0028934
1366	0.0037306
1378	0.0046322
1390	0.004462
1402	0.0032016
1414	0.0033948
1426	0.0028566
1438	0.0027232
1450	0.0049772
1462	0.006946
1474	0.0053222
1486	0.0025162
1498	0.0009614
1510	0.000575
1522	0.0004554
1534	0.0003772
1546	0.0003082
1558	0.0003588
1570	0.0002668
1582	0.0002806
1594	0.0002852
1606	0.0002852
1618	0.0003358
1630	0.0003634
1642	0.0004278
1654	0.0006302
1666	0.0007222
1678	0.000943
1690	0.0012972
1702	0.0019734
1714	0.0030682
1726	0.006486
1738	0.0202492
1750	0.0426558
1762	0.0407606
1774	0.0139978
1786	0.0035374
1798	0.0017802
1810	0.00138
1822	0.0010856
1834	0.0007544
1846	0.0004646
1858	0.0003128
1870	0.0003128
1882	0.0002852
1894	0.0002944
1906	0.0002392
1918	0.0002208
1930	0.0002162
1942	0.0002024
1954	0.0001702
1966	0.0001242
1978	0.0001518
1990	0.0001656
2002	0.0001288
2014	0.0001012
2026	9.2e-05
2038	0.0001104
2050	0.0001012
2062	8.74e-05
2074	8.28e-05
2086	7.82e-05
2098	6.44e-05
2110	5.52e-05
2122	5.98e-05
2134	5.98e-05
2146	5.52e-05
2158	4.6e-05
2170	5.06e-05
2182	6.9e-05
2194	5.98e-05
2206	6.9e-05
2218	6.9e-05
2230	6.9e-05
2242	6.9e-05
2254	5.52e-05
2266	5.52e-05
2278	6.44e-05
2290	6.44e-05
2302	8.28e-05
2314	5.06e-05
2326	5.98e-05
2338	0.0001058
2350	8.74e-05
2362	9.2e-05
2374	9.2e-05
2386	4.14e-05
2398	5.98e-05
2410	5.06e-05
2422	6.9e-05
2434	7.36e-05
2446	9.2e-05
2458	7.36e-05
2470	4.14e-05
2482	0
2494	2.76e-05
2506	1.38e-05
2518	5.06e-05
2530	2.76e-05
2542	5.52e-05
2554	8.74e-05
2566	9.2e-05
2578	0.0001104
2590	0.0001242
2602	0.000161
2614	0.0001472
2626	0.0001518
2638	0.0001334
2650	0.0001656
2662	0.000184
2674	0.0001932
2686	0.0002208
2698	0.0002254
2710	0.0002254
2722	0.0003634
2734	0.0005428
2746	0.0006302
2758	0.000598
2770	0.0005658
2782	0.0005796
2794	0.0007452
2806	0.0010718
2818	0.00138
2830	0.0017572
2842	0.0028014
2854	0.0053176
2866	0.009591
2878	0.0131836
2890	0.012006
2902	0.0114356
2914	0.014536
2926	0.0203366
2938	0.0256588
2950	0.0293066
2962	0.038364
2974	0.0330648
2986	0.014306
2998	0.0040296
3010	0.001909
3022	0.001403
3034	0.0010902
3046	0.0008556
3058	0.0007038
3070	0.000667
3082	0.0006348
3094	0.0006072
3106	0.0005336
3118	0.0005106
3130	0.0005014
3142	0.0004784
3154	0.0005198
3166	0.0005612
3178	0.0005566
3190	0.0004968
3202	0.0004232
3214	0.0003266
3226	0.0002208
3238	0.0001978
3250	0.000184
3262	9.66e-05
3274	8.74e-05
3286	8.28e-05
3298	0.0001012
3310	0.0001242
3322	0.0001104
3334	0.000115
3346	0.000115
3358	9.2e-05
3370	8.74e-05
3382	8.28e-05
3394	0.0001012
3406	6.9e-05
3418	6.44e-05
3430	9.2e-05
3442	6.9e-05
3454	0.0002162
3466	0.0004232
3478	0.0007544
3490	0.0009522
3502	0.0007222
3514	0.0003358
3526	0.0001978
3538	0.0001288
3550	6.9e-05
3562	5.06e-05
3574	5.06e-05
3586	2.76e-05
3598	4.6e-05
3610	1.84e-05
3622	1.84e-05
3634	4.14e-05
3646	4.6e-05
3658	5.52e-05
3670	6.44e-05
3682	4.14e-05
3694	6.44e-05
3706	5.52e-05
3718	5.98e-05
3730	7.82e-05
3742	9.2e-05
3754	0.0001242
3766	8.28e-05
3778	0.0001058
3790	0.0001058
3802	0.0001748
3814	0.0001702
3826	0.0001472
3838	0.0001656
