Infrared Spectrum: ISONICOTINIC ACID, 2-AMINO-6-CHLORO-, HYDRAZIDE
Formula: C6 H7 Cl N4 O
CAS: 28056-06-6
State: SOLID (1.0 mg / 650 mg KBr DISC)
Class: COBLENTZ III
Instrument: PERKIN-ELMER 521 (GRATING)
Instrument parameters: FILTERS AT 3150, 2500, 2000, 1150, 700, 410 AND GRATING CHANGES: 2000, 630 CM^-^1
Sampling: TRANSMISSION
Resolution: 4
Origin: SOUTHERN RESEARCH INSTITUTE
1/CM	TRANSMITTANCE
252.79	0.297
262.602	0.3575
272.414	0.4095
282.226	0.4734
292.038	0.5325
301.85	0.5875
311.662	0.6254
321.474	0.6434
331.286	0.6639
341.098	0.6774
350.909	0.6716
360.721	0.6848
370.533	0.7158
380.345	0.807
390.157	0.823
399.969	0.8334
409.781	0.8386
419.593	0.839
429.405	0.8366
439.217	0.8313
449.029	0.8218
458.841	0.827
468.653	0.8199
478.465	0.804
488.277	0.7784
498.089	0.7431
507.901	0.7323
517.713	0.7957
527.525	0.787
537.337	0.7398
547.148	0.683
556.96	0.7136
566.772	0.7204
576.584	0.715
586.396	0.71
596.208	0.6883
606.02	0.6366
615.832	0.6744
625.644	0.7467
635.456	0.7504
645.268	0.7235
655.08	0.7073
664.892	0.7003
674.704	0.7062
684.516	0.7234
694.328	0.7342
704.14	0.7709
713.952	0.8037
723.764	0.812
733.576	0.7827
743.387	0.7196
753.199	0.5438
763.011	0.8361
772.823	0.8654
782.635	0.867
792.447	0.87
802.259	0.864
812.071	0.8579
821.883	0.8124
831.695	0.7484
841.507	0.839
851.319	0.8413
861.131	0.8036
870.943	0.668
880.755	0.7188
890.567	0.6766
900.379	0.787
910.191	0.7926
920.003	0.7495
929.814	0.6237
939.626	0.8523
949.438	0.8556
959.25	0.8196
969.062	0.6458
978.874	0.747
988.686	0.8358
998.498	0.7947
1008.31	0.7879
1018.12	0.822
1027.93	0.8199
1037.75	0.805
1047.56	0.7843
1057.37	0.7434
1067.18	0.6963
1076.99	0.7122
1086.81	0.7899
1096.62	0.7921
1106.43	0.7448
1116.24	0.7808
1126.05	0.7982
1135.87	0.7979
1145.68	0.7868
1155.49	0.77
1165.3	0.766
1175.11	0.7519
1184.93	0.7097
1194.74	0.6139
1204.55	0.6676
1214.36	0.7456
1224.17	0.778
1233.98	0.7692
1243.8	0.7548
1253.61	0.7288
1263.42	0.702
1273.23	0.7416
1283.04	0.7394
1292.86	0.7048
1302.67	0.7101
1312.48	0.6646
1322.29	0.5788
1332.1	0.5186
1341.92	0.5206
1351.73	0.6648
1361.54	0.7134
1371.35	0.718
1381.16	0.709
1390.98	0.6933
1400.79	0.6561
1410.6	0.6041
1420.41	0.5084
1430.22	0.4731
1440.04	0.5961
1449.85	0.5452
1459.66	0.5875
1469.47	0.6778
1479.28	0.6456
1489.1	0.6011
1498.91	0.5436
1508.72	0.4449
1518.53	0.3213
1528.34	0.2136
1538.16	0.2289
1547.97	0.3592
1557.78	0.5627
1567.59	0.7129
1577.4	0.7334
1587.22	0.619
1597.03	0.4444
1606.84	0.474
1616.65	0.4023
1626.46	0.4059
1636.27	0.4556
1646.09	0.4306
1655.9	0.4125
1665.71	0.3989
1675.52	0.6685
1685.33	0.7922
1695.15	0.8589
1704.96	0.902
1714.77	0.9179
1724.58	0.926
1734.39	0.93
1744.21	0.93
1754.02	0.9339
1763.83	0.9451
1773.64	0.948
1783.45	0.949
1793.27	0.9477
1803.08	0.947
1812.89	0.944
1822.7	0.943
1832.51	0.9401
1842.33	0.938
1852.14	0.94
1861.95	0.936
1871.76	0.9304
1881.57	0.927
1891.39	0.9254
1901.2	0.924
1911.01	0.924
1920.82	0.922
1930.63	0.9239
1940.45	0.922
1950.26	0.9191
1960.07	0.914
1969.88	0.9124
1979.69	0.9094
1989.5	0.907
1999.32	0.9036
2009.13	0.903
2018.94	0.9009
2028.75	0.8996
2038.56	0.898
2048.38	0.8936
2058.19	0.892
2068	0.889
2077.81	0.8876
2087.62	0.8864
2097.44	0.885
2107.25	0.885
2117.06	0.882
2126.87	0.88
2136.68	0.8766
2146.5	0.874
2156.31	0.872
2166.12	0.871
2175.93	0.87
2185.74	0.8696
2195.56	0.867
2205.37	0.867
2215.18	0.867
2224.99	0.8666
2234.8	0.866
2244.62	0.864
2254.43	0.864
2264.24	0.86
2274.05	0.858
2283.86	0.858
2293.68	0.858
2303.49	0.856
2313.3	0.856
2323.11	0.856
2332.92	0.854
2342.74	0.852
2352.55	0.8496
2362.36	0.848
2372.17	0.8461
2381.98	0.844
2391.79	0.843
2401.61	0.842
2411.42	0.841
2421.23	0.839
2431.04	0.839
2440.85	0.837
2450.67	0.8366
2460.48	0.826
2470.29	0.8321
2480.1	0.828
2489.91	0.8241
2499.73	0.822
2509.54	0.82
2519.35	0.816
2529.16	0.8146
2538.97	0.8114
2548.79	0.8114
2558.6	0.8131
2568.41	0.8086
2578.22	0.808
2588.03	0.806
2597.85	0.801
2607.66	0.8006
2617.47	0.797
2627.28	0.797
2637.09	0.7911
2646.91	0.79
2656.72	0.7886
2666.53	0.7851
2676.34	0.7771
2686.15	0.768
2695.97	0.764
2705.78	0.7644
2715.59	0.7674
2725.4	0.7724
2735.21	0.776
2745.03	0.777
2754.84	0.7726
2764.65	0.771
2774.46	0.768
2784.27	0.7664
2794.08	0.7606
2803.9	0.7556
2813.71	0.751
2823.52	0.7396
2833.33	0.7316
2843.14	0.724
2852.96	0.723
2862.77	0.7226
2872.58	0.72
2882.39	0.7156
2892.2	0.7116
2902.02	0.7066
2911.83	0.702
2921.64	0.7
2931.45	0.698
2941.26	0.694
2951.08	0.691
2960.89	0.689
2970.7	0.6876
2980.51	0.6811
2990.32	0.674
3000.14	0.666
3009.95	0.6556
3019.76	0.6417
3029.57	0.6281
3039.38	0.6053
3049.2	0.5877
3059.01	0.5796
3068.82	0.5761
3078.63	0.564
3088.44	0.5684
3098.26	0.573
3108.07	0.5651
3117.88	0.5456
3127.69	0.5256
3137.5	0.4961
3147.31	0.4458
3157.13	0.3982
3166.94	0.3595
3176.75	0.3384
3186.56	0.3567
3196.37	0.4009
3206.19	0.4563
3216	0.5208
3225.81	0.534
3235.62	0.5246
3245.43	0.4944
3255.25	0.4618
3265.06	0.4389
3274.87	0.4008
3284.68	0.3448
3294.49	0.3402
3304.31	0.3923
3314.12	0.436
3323.93	0.5024
3333.74	0.5459
3343.55	0.5476
3353.37	0.5225
3363.18	0.4679
3372.99	0.3935
3382.8	0.326
3392.61	0.3535
3402.43	0.4452
3412.24	0.5388
3422.05	0.6092
3431.86	0.6532
3441.67	0.6783
3451.49	0.6994
3461.3	0.7064
3471.11	0.7124
3480.92	0.717
3490.73	0.723
3500.55	0.728
3510.36	0.7324
3520.17	0.739
3529.98	0.745
3539.79	0.751
3549.6	0.7594
3559.42	0.7629
3569.23	0.7689
3579.04	0.775
3588.85	0.778
3598.66	0.7834
3608.48	0.7913
3618.29	0.797
3628.1	0.7984
3637.91	0.8
3647.72	0.7996
3657.54	0.7994
3667.35	0.7986
3677.16	0.7961
3686.97	0.798
3696.78	0.801
3706.6	0.8019
3716.41	0.803
3726.22	0.801
3736.03	0.799
3745.84	0.798
3755.66	0.7986
3765.47	0.797
3775.28	0.797
3785.09	0.797
3794.9	0.794
3804.72	0.794
3814.53	0.793
3824.34	0.7926
3834.15	0.7886
3843.96	0.786
3853.78	0.7851
3863.59	0.7824
3873.4	0.782
3883.21	0.779
3893.02	0.778
3902.84	0.776
3912.65	0.776
