Infrared Spectrum: 4-PYRIDINECARBOXLYLIC ACID, 2-AMINO-6-CHLORO-, ETHYL ESTER
Formula: C8 H9 Cl N2 O2
CAS: 28056-05-5
State: SOLID (1 mg / 650 mg KBr DISC)
Class: COBLENTZ III
Instrument: PERKIN-ELMER 521 (GRATING)
Instrument parameters: FILTERS AT 3130, 2475, 2000, 1150, 700, 410. GRATING CHANGES: 2000, 620 CM^-^1
Sampling: TRANSMISSION
Resolution: 2
Origin: SOUTHERN RESEARCH INSTITUTE
1/CM	TRANSMITTANCE
250	0.2632
260.04	0.2903
270.08	0.3371
280.12	0.4065
290.16	0.4912
300.2	0.5388
310.24	0.546
320.28	0.4832
330.32	0.61
340.36	0.6889
350.4	0.7024
360.44	0.6764
370.48	0.6564
380.52	0.7676
390.56	0.7751
400.6	0.7415
410.64	0.775
420.68	0.7856
430.72	0.7736
440.76	0.7519
450.8	0.6974
460.84	0.689
470.88	0.6569
480.92	0.5932
490.96	0.5296
501	0.4664
511.04	0.4714
521.08	0.4989
531.12	0.5988
541.16	0.682
551.2	0.694
561.24	0.6686
571.28	0.7044
581.32	0.7909
591.36	0.8144
601.4	0.8104
611.44	0.7687
621.48	0.669
631.52	0.8367
641.56	0.8288
651.6	0.7909
661.64	0.7253
671.68	0.7216
681.72	0.7731
691.76	0.8433
701.8	0.8588
711.84	0.8526
721.88	0.8135
731.92	0.6824
741.96	0.4226
752	0.7201
762.04	0.4132
772.08	0.7271
782.12	0.9031
792.16	0.9017
802.2	0.8895
812.24	0.8841
822.28	0.8201
832.32	0.8703
842.36	0.8604
852.4	0.8274
862.44	0.6695
872.48	0.6912
882.52	0.5201
892.56	0.8404
902.6	0.8476
912.64	0.838
922.68	0.8193
932.72	0.7949
942.76	0.7514
952.8	0.6027
962.84	0.695
972.88	0.6303
982.92	0.4504
992.96	0.4044
1003	0.6261
1013.04	0.4054
1023.08	0.3184
1033.12	0.6591
1043.16	0.757
1053.2	0.7205
1063.24	0.7182
1073.28	0.7715
1083.32	0.7767
1093.36	0.7459
1103.4	0.6254
1113.44	0.5845
1123.48	0.6185
1133.52	0.6607
1143.56	0.6453
1153.6	0.5928
1163.64	0.5826
1173.68	0.4348
1183.72	0.3397
1193.76	0.6165
1203.8	0.7387
1213.84	0.7015
1223.88	0.6299
1233.92	0.4451
1243.96	0.2675
1254	0.1357
1264.04	0.1007
1274.08	0.1941
1284.12	0.4206
1294.16	0.6272
1304.2	0.4996
1314.24	0.2183
1324.28	0.4959
1334.32	0.6443
1344.36	0.7372
1354.4	0.7827
1364.44	0.4675
1374.48	0.6516
1384.52	0.5634
1394.56	0.4666
1404.6	0.6752
1414.64	0.627
1424.68	0.3815
1434.72	0.1282
1444.76	0.2179
1454.8	0.5025
1464.84	0.2825
1474.88	0.4978
1484.92	0.7257
1494.96	0.8004
1505	0.8055
1515.04	0.7493
1525.08	0.6079
1535.12	0.3454
1545.16	0.2343
1555.2	0.5463
1565.24	0.7519
1575.28	0.7967
1585.32	0.6575
1595.36	0.5897
1605.4	0.3771
1615.44	0.5963
1625.48	0.4245
1635.52	0.2405
1645.56	0.1669
1655.6	0.468
1665.64	0.6709
1675.68	0.7157
1685.72	0.7015
1695.76	0.5778
1705.8	0.2443
1715.84	0.0787
1725.88	0.3596
1735.92	0.6554
1745.96	0.7599
1756	0.8509
1766.04	0.9007
1776.08	0.925
1786.12	0.9424
1796.16	0.9474
1806.2	0.9489
1816.24	0.9502
1826.28	0.9559
1836.32	0.9664
1846.36	0.9747
1856.4	0.9733
1866.44	0.9722
1876.48	0.9696
1886.52	0.9678
1896.56	0.9674
1906.6	0.9679
1916.64	0.9684
1926.68	0.9681
1936.72	0.9679
1946.76	0.9676
1956.8	0.9675
1966.84	0.9674
1976.88	0.967
1986.92	0.9664
1996.96	0.9651
2007	0.9638
2017.04	0.9625
2027.08	0.9613
2037.12	0.9602
2047.16	0.9587
2057.2	0.9561
2067.24	0.9528
2077.28	0.9489
2087.32	0.9449
2097.36	0.941
2107.4	0.9371
2117.44	0.9339
2127.48	0.9322
2137.52	0.9318
2147.56	0.9323
2157.6	0.9347
2167.64	0.9311
2177.68	0.9267
2187.72	0.9224
2197.76	0.9214
2207.8	0.9212
2217.84	0.9212
2227.88	0.9214
2237.92	0.9223
2247.96	0.9235
2258	0.9256
2268.04	0.9269
2278.08	0.9256
2288.12	0.9237
2298.16	0.9188
2308.2	0.9135
2318.24	0.9097
2328.28	0.9073
2338.32	0.9057
2348.36	0.9044
2358.4	0.9039
2368.44	0.9036
2378.48	0.9037
2388.52	0.9037
2398.56	0.9037
2408.6	0.9037
2418.64	0.9038
2428.68	0.904
2438.72	0.9033
2448.76	0.9015
2458.8	0.8991
2468.84	0.8945
2478.88	0.8903
2488.92	0.8872
2498.96	0.8843
2509	0.8814
2519.04	0.8781
2529.08	0.8768
2539.12	0.8756
2549.16	0.8734
2559.2	0.8704
2569.24	0.8657
2579.28	0.8648
2589.32	0.8647
2599.36	0.8661
2609.4	0.8666
2619.44	0.8638
2629.48	0.8591
2639.52	0.8528
2649.56	0.8445
2659.6	0.8357
2669.64	0.8284
2679.68	0.8206
2689.72	0.8116
2699.76	0.8086
2709.8	0.8148
2719.84	0.8327
2729.88	0.839
2739.92	0.8345
2749.96	0.8282
2760	0.825
2770.04	0.8244
2780.08	0.8241
2790.12	0.8216
2800.16	0.8158
2810.2	0.8058
2820.24	0.7895
2830.28	0.7767
2840.32	0.7754
2850.36	0.7646
2860.4	0.7417
2870.44	0.7533
2880.48	0.7483
2890.52	0.7223
2900.56	0.7021
2910.6	0.7024
2920.64	0.6809
2930.68	0.6908
2940.72	0.7445
2950.76	0.7127
2960.8	0.6372
2970.84	0.5902
2980.88	0.6064
2990.92	0.6601
3000.96	0.7386
3011	0.7318
3021.04	0.7194
3031.08	0.6989
3041.12	0.6754
3051.16	0.6508
3061.2	0.625
3071.24	0.5986
3081.28	0.5717
3091.32	0.5367
3101.36	0.5658
3111.4	0.5398
3121.44	0.5273
3131.48	0.5035
3141.52	0.459
3151.56	0.3994
3161.6	0.3309
3171.64	0.2592
3181.68	0.2231
3191.72	0.2467
3201.76	0.3316
3211.8	0.4216
3221.84	0.5115
3231.88	0.5986
3241.92	0.6145
3251.96	0.5889
3262	0.5625
3272.04	0.5966
3282.08	0.564
3292.12	0.4924
3302.16	0.4201
3312.2	0.3606
3322.24	0.408
3332.28	0.5508
3342.32	0.6618
3352.36	0.6956
3362.4	0.6965
3372.44	0.689
3382.48	0.6704
3392.52	0.6362
3402.56	0.5811
3412.6	0.519
3422.64	0.3232
3432.68	0.1522
3442.72	0.1643
3452.76	0.3183
3462.8	0.5679
3472.84	0.7232
3482.88	0.7813
3492.92	0.8116
3502.96	0.8264
3513	0.8378
3523.04	0.8448
3533.08	0.8475
3543.12	0.8495
3553.16	0.8518
3563.2	0.8572
3573.24	0.8602
3583.28	0.8631
3593.32	0.8649
3603.36	0.8668
3613.4	0.8686
3623.44	0.8695
3633.48	0.8699
3643.52	0.8702
3653.56	0.8691
3663.6	0.868
3673.64	0.8668
3683.68	0.8655
3693.72	0.8642
3703.76	0.8629
3713.8	0.8607
3723.84	0.8586
3733.88	0.8564
3743.92	0.8548
3753.96	0.8534
3764	0.8519
3774.04	0.8505
3784.08	0.8493
3794.12	0.848
3804.16	0.8468
3814.2	0.8456
3824.24	0.8445
3834.28	0.8426
3844.32	0.8405
3854.36	0.8384
3864.4	0.8369
3874.44	0.8357
3884.48	0.8344
3894.52	0.834
3904.56	0.834
3914.6	0.8337
3924.64	0.8329
3934.68	0.832
3944.72	0.8297
3954.76	0.8273
3964.8	0.8251
3974.84	0.8229
3984.88	0.8208
3994.92	0.819
4004.96	0.8175
4015	0.8162
