Infrared Spectrum: 2-Butyn-1-al diethyl acetal
Formula: C 8 H 14 O 2
CAS: 2806-97-5
State: gas
Origin: EPA-IR VAPOR PHASE LIBRARY
1/CM	ABSORBANCE
549.8	0.00218
559.445	0.00119
569.09	0.0012
578.734	0.0009326
588.379	0.00118
598.024	0.0009065
607.669	0.00156
617.313	0.0015
626.958	0.00177
636.603	0.00198
646.248	0.00202
655.893	0.00195
665.537	0.00205
675.182	0.00221
684.827	0.00221
694.472	0.00189
704.116	0.00168
713.761	0.00192
723.406	0.00188
733.051	0.00141
742.695	0.00194
752.34	0.0019
761.985	0.00228
771.63	0.00278
781.275	0.00363
790.919	0.00468
800.564	0.00538
810.209	0.00748
819.854	0.01004
829.498	0.00984
839.143	0.00947
848.788	0.01033
858.433	0.01029
868.078	0.00914
877.722	0.00828
887.367	0.00932
897.012	0.01253
906.657	0.01667
916.301	0.01639
925.946	0.01182
935.591	0.00945
945.236	0.01017
954.88	0.0142
964.525	0.02265
974.17	0.03808
983.815	0.06016
993.46	0.0787
1003.1	0.08548
1012.75	0.0777
1022.39	0.06496
1032.04	0.07305
1041.68	0.12878
1051.33	0.22242
1060.97	0.27172
1070.62	0.23609
1080.26	0.18786
1089.91	0.15511
1099.55	0.14214
1109.2	0.12829
1118.84	0.09515
1128.49	0.07515
1138.13	0.08378
1147.78	0.1272
1157.42	0.15253
1167.07	0.1094
1176.71	0.05913
1186.36	0.0379
1196	0.02468
1205.64	0.01683
1215.29	0.01218
1224.93	0.01012
1234.58	0.00918
1244.22	0.0091
1253.87	0.00847
1263.51	0.00869
1273.16	0.00994
1282.8	0.01206
1292.45	0.01474
1302.09	0.01763
1311.74	0.0223
1321.38	0.03925
1331.03	0.06525
1340.67	0.07555
1350.32	0.07915
1359.96	0.06654
1369.61	0.0451
1379.25	0.03381
1388.9	0.02782
1398.54	0.02478
1408.18	0.01878
1417.83	0.01509
1427.47	0.01197
1437.12	0.01225
1446.76	0.01439
1456.41	0.01419
1466.05	0.0119
1475.7	0.01096
1485.34	0.01023
1494.99	0.00834
1504.63	0.007
1514.28	0.00524
1523.92	0.00457
1533.57	0.00426
1543.21	0.00425
1552.86	0.00342
1562.5	0.00282
1572.15	0.00307
1581.79	0.00266
1591.44	0.00224
1601.08	0.00226
1610.73	0.00202
1620.37	0.00196
1630.01	0.00175
1639.66	0.00184
1649.3	0.00181
1658.95	0.00178
1668.59	0.00154
1678.24	0.00146
1687.88	0.00129
1697.53	0.0012
1707.17	0.00131
1716.82	0.00113
1726.46	0.00105
1736.11	0.00104
1745.75	0.0009769
1755.4	0.0009663
1765.04	0.00103
1774.69	0.0007772
1784.33	0.0008151
1793.98	0.0008426
1803.62	0.0008703
1813.27	0.0009139
1822.91	0.00104
1832.55	0.001
1842.2	0.0011
1851.84	0.0012
1861.49	0.00154
1871.13	0.00165
1880.78	0.002
1890.42	0.00224
1900.07	0.00238
1909.71	0.00234
1919.36	0.00227
1929	0.00226
1938.65	0.00222
1948.29	0.00252
1957.94	0.00259
1967.58	0.00272
1977.23	0.00267
1986.87	0.00264
1996.52	0.00252
2006.16	0.00222
2015.81	0.002
2025.45	0.00182
2035.1	0.00174
2044.74	0.00199
2054.38	0.00215
2064.03	0.00193
2073.67	0.00157
2083.32	0.00151
2092.96	0.00144
2102.61	0.00146
2112.25	0.00138
2121.9	0.00142
2131.54	0.00165
2141.19	0.00177
2150.83	0.00204
2160.48	0.00233
2170.12	0.00268
2179.77	0.00311
2189.41	0.00385
2199.06	0.00517
2208.7	0.00705
2218.35	0.00971
2227.99	0.0121
2237.64	0.01295
2247.28	0.01237
2256.92	0.01049
2266.57	0.00853
2276.21	0.00711
2285.86	0.00557
2295.5	0.00486
2305.15	0.00481
2314.79	0.00475
2324.44	0.00377
2334.08	0.00235
2343.73	0.00135
2353.37	0.00109
2363.02	0.00104
2372.66	0.00103
2382.31	0.00116
2391.95	0.00126
2401.6	0.00104
2411.24	0.00105
2420.89	0.00124
2430.53	0.00118
2440.18	0.00122
2449.82	0.00103
2459.47	0.00102
2469.11	0.0009624
2478.75	0.00118
2488.4	0.001
2498.04	0.000876
2507.69	0.000929
2517.33	0.0007157
2526.98	0.0008748
2536.62	0.0007725
2546.27	0.0007605
2555.91	0.0007426
2565.56	0.0007452
2575.2	0.0007135
2584.85	0.00105
2594.49	0.00132
2604.14	0.00147
2613.78	0.00173
2623.43	0.0022
2633.07	0.00228
2642.72	0.00228
2652.36	0.00207
2662.01	0.00182
2671.65	0.0021
2681.29	0.00228
2690.94	0.00235
2700.58	0.00262
2710.23	0.00296
2719.87	0.00355
2729.52	0.00431
2739.16	0.00516
2748.81	0.00597
2758.45	0.0063
2768.1	0.00633
2777.74	0.00656
2787.39	0.00708
2797.03	0.00756
2806.68	0.00839
2816.32	0.0098
2825.97	0.01246
2835.61	0.0159
2845.26	0.02023
2854.9	0.02722
2864.55	0.03925
2874.19	0.0546
2883.84	0.063
2893.48	0.07076
2903.12	0.07561
2912.77	0.06932
2922.41	0.07068
2932.06	0.091
2941.7	0.08866
2951.35	0.06202
2960.99	0.0534
2970.64	0.07228
2980.28	0.10183
2989.93	0.08537
2999.57	0.04472
3009.22	0.02768
3018.86	0.01943
3028.51	0.01434
3038.15	0.01163
3047.8	0.00862
3057.44	0.00719
3067.09	0.00667
3076.73	0.00506
3086.38	0.00402
3096.02	0.00362
3105.67	0.00303
3115.31	0.00277
3124.95	0.00241
3134.6	0.00244
3144.24	0.00209
3153.89	0.00188
3163.53	0.00175
3173.18	0.00175
3182.82	0.00188
3192.47	0.00189
3202.11	0.00176
3211.76	0.00148
3221.4	0.00132
3231.05	0.00115
3240.69	0.0009455
3250.34	0.0007312
3259.98	0.0008007
3269.63	0.0007845
3279.27	0.0006323
3288.92	0.0008703
3298.56	0.0005407
3308.21	0.0005786
3317.85	0.0006524
3327.49	0.0005086
3337.14	0.000879
3346.78	0.0007484
3356.43	0.0007425
3366.07	0.0005008
3375.72	0.0006615
3385.36	0.0006139
3395.01	0.0007075
3404.65	0.0004204
3414.3	0.0004569
3423.94	0.0002695
3433.59	0.0004103
3443.23	0.0003658
3452.88	0.0004942
3462.52	0.0003554
3472.17	0.0003539
3481.81	0.0003842
3491.46	0.0005949
3501.1	0.0002208
3510.75	0.0004417
3520.39	0.0001607
3530.04	0.0002441
3539.68	0.0004841
3549.32	0.0004132
3558.97	0.0002822
3568.61	0.0005353
3578.26	0.0003506
3587.9	0.0003834
3597.55	0.0007267
3607.19	0.0002131
3616.84	0.0004402
3626.48	0.0001384
3636.13	0.0003019
3645.77	0.0003077
3655.42	0.0005114
3665.06	0.0003224
3674.71	0.0003815
3684.35	0.0006786
3694	0.0005505
3703.64	0.0002384
3713.29	0.0006753
3722.93	0.0007297
3732.58	0.0005546
3742.22	0.0004805
3751.86	0.0007434
3761.51	0.0006444
3771.15	0.0006755
3780.8	0.000627
3790.44	0.0005937
3800.09	0.0005218
3809.73	0.0003738
3819.38	0.0007811
3829.02	0.0007635
3838.67	0.0005886
3848.31	0.0005081
3857.96	0.0005509
3867.6	0.0004631
3877.25	0.0006882
3886.89	0.0006553
3896.54	0.0007213
3906.18	0.001
3915.83	0.00102
3925.47	0.0009325
3935.12	0.0009712
3944.76	0.000853
3954.41	0.00134
3964.05	0.00123
3973.69	0.00113
3983.34	0.00133
3992.98	0.00149
