Infrared Spectrum: CYCLOHEXANE, 1-METHYL-4-METHYLENE-
Formula: C8 H14
CAS: 2808-80-2
State: LIQUID
Boiling point: 122-124 C
Class: COBLENTZ
Instrument: Not specified, most likely a prism, grating, or hybrid spectrometer.
Sampling: TRANSMISSION
Path length: FILM
Resolution: 4
Origin: TENNESSEE EASTMAN COMPANY, RESEARCH LABORATORIES
MICROMETERS	TRANSMITTANCE
2.06	0.886
2.09994	0.883
2.13988	0.885
2.17983	0.885
2.21977	0.883
2.25971	0.838
2.29965	0.753
2.33959	0.753
2.37953	0.786
2.41948	0.813
2.45942	0.826
2.49936	0.836
2.5393	0.843
2.57924	0.851
2.61918	0.855
2.65913	0.863
2.69907	0.873
2.73901	0.868
2.77895	0.866
2.81889	0.861
2.85883	0.863
2.89878	0.858
2.93872	0.851
2.97866	0.838
3.0186	0.821
3.05854	0.83
3.09848	0.841
3.13843	0.835
3.17837	0.801
3.21831	0.773
3.25825	0.611
3.29819	0.436
3.33813	0.218
3.37808	0.016
3.41802	0.026
3.45796	0.026
3.4979	0.026
3.53784	0.131
3.57778	0.523
3.61773	0.701
3.65767	0.64
3.69761	0.67
3.73755	0.78
3.77749	0.745
3.81743	0.761
3.85738	0.815
3.89732	0.846
3.93726	0.883
3.9772	0.89
4.01714	0.891
4.05708	0.901
4.09703	0.891
4.13697	0.908
4.17691	0.91
4.21685	0.903
4.25679	0.923
4.29673	0.916
4.33668	0.926
4.37662	0.941
4.41656	0.941
4.4565	0.938
4.49644	0.946
4.53638	0.946
4.57633	0.95
4.61627	0.951
4.65621	0.953
4.69615	0.95
4.73609	0.953
4.77603	0.956
4.81598	0.956
4.85592	0.948
4.89586	0.948
4.9358	0.955
4.97574	0.965
5.01568	0.975
5.05563	0.958
5.09557	0.951
5.13551	0.941
5.17545	0.951
5.21539	0.956
5.25533	0.95
5.29528	0.945
5.33522	0.935
5.37516	0.951
5.4151	0.951
5.45504	0.953
5.49498	0.951
5.53493	0.943
5.57487	0.928
5.61481	0.871
5.65475	0.923
5.69469	0.925
5.73463	0.905
5.77458	0.883
5.81452	0.875
5.85446	0.868
5.8944	0.84
5.93434	0.798
5.97428	0.685
6.01423	0.741
6.05417	0.461
6.09411	0.758
6.13405	0.846
6.17399	0.853
6.21393	0.856
6.25388	0.85
6.29382	0.846
6.33376	0.851
6.3737	0.87
6.41364	0.873
6.45358	0.868
6.49353	0.876
6.53347	0.861
6.57341	0.85
6.61335	0.825
6.65329	0.793
6.69323	0.721
6.73318	0.601
6.77312	0.34
6.81306	0.11
6.853	0.041
6.89294	0.04
6.93288	0.045
6.97283	0.186
7.01277	0.501
7.05271	0.603
7.09265	0.626
7.13259	0.641
7.17253	0.623
7.21248	0.386
7.25242	0.113
7.29236	0.318
7.3323	0.53
7.37224	0.641
7.41218	0.596
7.45213	0.606
7.49207	0.701
7.53201	0.733
7.57195	0.711
7.61189	0.61
7.65183	0.685
7.69178	0.7
7.73172	0.665
7.77166	0.728
7.8116	0.783
7.85154	0.78
7.89148	0.753
7.93143	0.67
7.97137	0.59
8.01131	0.733
8.05125	0.756
8.09119	0.716
8.13113	0.64
8.17108	0.763
8.21102	0.771
8.25096	0.75
8.2909	0.75
8.33084	0.786
8.37078	0.79
8.41073	0.795
8.45067	0.776
8.49061	0.735
8.53055	0.671
8.57049	0.6
8.61043	0.473
8.65038	0.425
8.69032	0.528
8.73026	0.381
8.7702	0.563
8.81014	0.701
8.85008	0.738
8.89003	0.736
8.92997	0.705
8.96991	0.678
9.00985	0.703
9.04979	0.705
9.08973	0.666
9.12968	0.581
9.16962	0.461
9.20956	0.55
9.2495	0.611
9.28944	0.668
9.32938	0.686
9.36933	0.675
9.40927	0.64
9.44921	0.533
9.48915	0.28
9.52909	0.263
9.56903	0.485
9.60898	0.54
9.64892	0.573
9.68886	0.503
9.7288	0.381
9.76874	0.498
9.80868	0.625
9.84863	0.686
9.88857	0.703
9.92851	0.731
9.96845	0.74
10.0084	0.728
10.0483	0.738
10.0883	0.761
10.1282	0.751
10.1682	0.72
10.2081	0.753
10.248	0.785
10.288	0.795
10.3279	0.78
10.3679	0.786
10.4078	0.775
10.4478	0.731
10.4877	0.671
10.5276	0.601
10.5676	0.63
10.6075	0.671
10.6475	0.673
10.6874	0.615
10.7273	0.608
10.7673	0.711
10.8072	0.763
10.8472	0.771
10.8871	0.751
10.9271	0.751
10.967	0.728
11.0069	0.69
11.0469	0.576
11.0868	0.368
11.1268	0.203
11.1667	0.17
11.2066	0.081
11.2466	0.061
11.2865	0.183
11.3265	0.378
11.3664	0.525
11.4064	0.643
11.4463	0.731
11.4862	0.77
11.5262	0.795
11.5661	0.811
11.6061	0.82
11.646	0.823
11.6859	0.828
11.7259	0.841
11.7658	0.841
11.8058	0.831
11.8457	0.815
11.8857	0.811
11.9256	0.811
11.9655	0.818
12.0055	0.831
12.0454	0.836
12.0854	0.83
12.1253	0.806
12.1652	0.781
12.2052	0.765
12.2451	0.725
12.2851	0.663
12.325	0.565
12.365	0.418
12.4049	0.291
12.4448	0.243
12.4848	0.325
12.5247	0.408
12.5647	0.471
12.6046	0.426
12.6445	0.27
12.6845	0.216
12.7244	0.405
12.7644	0.603
12.8043	0.671
12.8443	0.741
12.8842	0.783
12.9241	0.813
12.9641	0.836
13.004	0.838
13.044	0.813
13.0839	0.765
13.1238	0.69
13.1638	0.64
13.2037	0.708
13.2437	0.791
13.2836	0.833
13.3236	0.846
13.3635	0.86
13.4034	0.861
13.4434	0.865
13.4833	0.868
13.5233	0.871
13.5632	0.871
13.6031	0.858
13.6431	0.845
13.683	0.82
13.723	0.831
13.7629	0.846
13.8029	0.856
13.8428	0.863
13.8827	0.861
13.9227	0.856
13.9626	0.855
14.0026	0.85
14.0425	0.843
14.0824	0.83
14.1224	0.818
14.1623	0.811
14.2023	0.811
14.2422	0.813
14.2822	0.81
14.3221	0.803
14.362	0.788
14.402	0.765
14.4419	0.753
14.4819	0.735
14.5218	0.716
14.5617	0.71
14.6017	0.701
14.6416	0.7
14.6816	0.705
14.7215	0.723
14.7615	0.74
14.8014	0.748
14.8413	0.755
14.8813	0.753
14.9212	0.728
14.9612	0.728
15.0011	0.745
15.041	0.743
15.081	0.713
15.1209	0.675
15.1609	0.631
15.2008	0.588
15.2408	0.581
15.2807	0.586
15.3206	0.633
15.3606	0.66
15.4005	0.681
15.4405	0.695
15.4804	0.703
15.5203	0.706
15.5603	0.71
15.6002	0.708
15.6402	0.701
15.6801	0.701
15.7201	0.701
15.76	0.696
15.7999	0.696
15.8399	0.695
15.8798	0.691
15.9198	0.685
15.9597	0.68
15.9996	0.678
