Infrared Spectrum: 1-Methyl-2-methylenecyclohexane
Formula: C 8 H 14
CAS: 2808-75-5
State: gas
Instrument: HP-GC/MS/IRD
Origin: NIST Mass Spectrometry Data Center
1/CM	ABSORBANCE
550	0.0002279
562	0.0001484
574	0.0002438
586	0.0002597
598	0.0002226
610	0.0004187
622	0.001007
634	0.0007738
646	0.0004028
658	0.0002014
670	9.54e-05
682	4.24e-05
694	4.24e-05
706	7.42e-05
718	0.0001166
730	0.0001431
742	0.000106
754	8.48e-05
766	8.48e-05
778	0.000106
790	0.0002279
802	0.0003922
814	0.0006254
826	0.0006519
838	0.0006254
850	0.000689
862	0.001113
874	0.0038902
886	0.008321
898	0.007579
910	0.0035245
922	0.0010123
934	0.0006837
946	0.0006466
958	0.0005883
970	0.0004823
982	0.0005671
994	0.0007791
1006	0.0006625
1018	0.0004081
1030	0.0003074
1042	0.0002438
1054	0.0002385
1066	0.0003922
1078	0.0005512
1090	0.0004823
1102	0.0003127
1114	0.0002226
1126	0.0002014
1138	0.0002491
1150	0.0004028
1162	0.0005035
1174	0.0003657
1186	0.0001484
1198	0.0001431
1210	0.0001643
1222	0.0003551
1234	0.0007208
1246	0.0008586
1258	0.0005618
1270	0.0002915
1282	0.0002226
1294	0.000265
1306	0.000371
1318	0.0004346
1330	0.0005141
1342	0.0006466
1354	0.0008109
1366	0.0013568
1378	0.0019239
1390	0.0017119
1402	0.0012561
1414	0.0012084
1426	0.0020193
1438	0.0042612
1450	0.0059625
1462	0.0050986
1474	0.0026129
1486	0.0010335
1498	0.0003657
1510	0.0002226
1522	0.0001802
1534	0.0001802
1546	0.0001431
1558	0.000159
1570	0.0001643
1582	0.0002173
1594	0.0002968
1606	0.00053
1618	0.0012349
1630	0.0029839
1642	0.004399
1654	0.0034768
1666	0.0012614
1678	0.0004505
1690	0.0002544
1702	0.0001749
1714	0.0001484
1726	0.0001166
1738	9.54e-05
1750	0.000106
1762	0.0001908
1774	0.0004558
1786	0.0006784
1798	0.0006148
1810	0.0002862
1822	9.54e-05
1834	2.65e-05
1846	1.59e-05
1858	5.3e-06
1870	1.59e-05
1882	1.06e-05
1894	1.06e-05
1906	3.18e-05
1918	5.3e-06
1930	1.06e-05
1942	2.12e-05
1954	5.3e-06
1966	5.3e-06
1978	1.06e-05
1990	0
2002	1.06e-05
2014	5.3e-06
2026	5.3e-06
2038	1.06e-05
2050	0
2062	1.59e-05
2074	1.06e-05
2086	3.71e-05
2098	4.24e-05
2110	2.12e-05
2122	2.12e-05
2134	2.65e-05
2146	3.71e-05
2158	3.71e-05
2170	4.24e-05
2182	4.77e-05
2194	5.3e-05
2206	4.24e-05
2218	2.65e-05
2230	2.12e-05
2242	4.24e-05
2254	4.77e-05
2266	7.42e-05
2278	7.42e-05
2290	7.42e-05
2302	0.0001007
2314	6.89e-05
2326	6.36e-05
2338	5.83e-05
2350	4.77e-05
2362	7.42e-05
2374	6.36e-05
2386	6.89e-05
2398	7.95e-05
2410	8.48e-05
2422	6.36e-05
2434	7.95e-05
2446	7.42e-05
2458	6.89e-05
2470	7.42e-05
2482	6.89e-05
2494	7.42e-05
2506	6.89e-05
2518	6.89e-05
2530	0.0001007
2542	0.0001484
2554	0.0001802
2566	0.0002067
2578	0.0002226
2590	0.0002597
2602	0.0002438
2614	0.0002703
2626	0.0003127
2638	0.000371
2650	0.0004558
2662	0.0005565
2674	0.0005353
2686	0.0004452
2698	0.0003922
2710	0.0003445
2722	0.0003551
2734	0.0003551
2746	0.0004134
2758	0.0005141
2770	0.0006466
2782	0.0007791
2794	0.0009169
2806	0.0010335
2818	0.0014469
2830	0.0028726
2842	0.0068635
2854	0.0140927
2866	0.0164353
2878	0.0134355
2890	0.0106159
2902	0.0130645
2914	0.0228218
2926	0.040492
2938	0.0510973
2950	0.0360029
2962	0.019557
2974	0.0144266
2986	0.0088298
2998	0.0044149
3010	0.0024062
3022	0.0013727
3034	0.0011713
3046	0.0012508
3058	0.0018815
3070	0.0029998
3082	0.0039538
3094	0.0030793
3106	0.001431
3118	0.0004717
3130	0.0002862
3142	0.0002332
3154	0.0002438
3166	0.000265
3178	0.0002226
3190	0.0001908
3202	0.000212
3214	0.0002544
3226	0.0002385
3238	0.0002067
3250	0.0001272
3262	0.0001325
3274	0.0001272
3286	0.0001378
3298	0.0001325
3310	7.95e-05
3322	8.48e-05
3334	7.95e-05
3346	0.0001007
3358	0.0001007
3370	7.42e-05
3382	0.0001166
3394	0.0001007
3406	7.42e-05
3418	4.24e-05
3430	3.71e-05
3442	5.3e-05
3454	8.48e-05
3466	7.42e-05
3478	8.48e-05
3490	2.65e-05
3502	6.89e-05
3514	3.71e-05
3526	4.77e-05
3538	4.77e-05
3550	0.000106
3562	0.000106
3574	8.48e-05
3586	6.89e-05
3598	5.3e-05
3610	5.83e-05
3622	4.77e-05
3634	3.71e-05
3646	9.01e-05
3658	0.0001166
3670	7.42e-05
3682	7.95e-05
3694	6.36e-05
3706	9.54e-05
3718	0.0001113
3730	8.48e-05
3742	9.54e-05
3754	9.54e-05
3766	0.0001219
3778	0.0001484
3790	0.0001272
3802	0.0001166
3814	0.0001272
3826	0.0001378
3838	0.0001378
