Infrared Spectrum: 1,3-Dimethylcyclohexene
Formula: C 8 H 14
CAS: 2808-76-6
State: gas
Instrument: HP-GC/MS/IRD
Origin: NIST Mass Spectrometry Data Center
1/CM	ABSORBANCE
550	0.0001372
562	0.000182
574	0.0001736
586	0.000126
598	0.0001344
610	0.000126
622	8.4e-05
634	0.0001232
646	5.32e-05
658	0.000182
670	0.000168
682	0.0001148
694	0.0001176
706	0.0001372
718	0.0001484
730	0.0001512
742	0.0002044
754	0.0001792
766	0.0001988
778	0.0002016
790	0.0004508
802	0.0007868
814	0.0009996
826	0.000938
838	0.0009968
850	0.000924
862	0.0009632
874	0.0008764
886	0.000532
898	0.0003052
910	0.0002212
922	0.0002996
934	0.0004424
946	0.0006328
958	0.000616
970	0.0007588
982	0.0007896
994	0.0006104
1006	0.0003752
1018	0.0002632
1030	0.0003332
1042	0.0003388
1054	0.0003164
1066	0.0002408
1078	0.000238
1090	0.0002296
1102	0.0002576
1114	0.0003836
1126	0.0006356
1138	0.0007588
1150	0.0005712
1162	0.0004648
1174	0.0003976
1186	0.0003892
1198	0.0003024
1210	0.0002352
1222	0.0002744
1234	0.0002716
1246	0.0003892
1258	0.0004984
1270	0.0005236
1282	0.000644
1294	0.0008512
1306	0.0007812
1318	0.0008624
1330	0.0009156
1342	0.0008064
1354	0.0007728
1366	0.00112
1378	0.0016548
1390	0.0013244
1402	0.0006076
1414	0.0006524
1426	0.0013188
1438	0.0023688
1450	0.0033768
1462	0.0030408
1474	0.001792
1486	0.000728
1498	0.00035
1510	0.0002436
1522	0.0002156
1534	0.0002044
1546	0.0002016
1558	0.0002184
1570	0.0002044
1582	0.0002212
1594	0.0002072
1606	0.0002352
1618	0.0002716
1630	0.0002464
1642	0.0002688
1654	0.0003556
1666	0.0004144
1678	0.0003444
1690	0.0001988
1702	0.0001624
1714	0.0001372
1726	0.0001232
1738	0.0001148
1750	9.24e-05
1762	8.96e-05
1774	7.28e-05
1786	8.68e-05
1798	8.4e-05
1810	8.4e-05
1822	6.72e-05
1834	9.52e-05
1846	9.52e-05
1858	8.4e-05
1870	5.32e-05
1882	5.04e-05
1894	7.56e-05
1906	8.4e-05
1918	6.72e-05
1930	6.72e-05
1942	5.04e-05
1954	6.44e-05
1966	5.04e-05
1978	6.72e-05
1990	4.48e-05
2002	4.48e-05
2014	1.68e-05
2026	1.96e-05
2038	5.04e-05
2050	4.2e-05
2062	4.76e-05
2074	2.52e-05
2086	4.2e-05
2098	4.2e-05
2110	3.08e-05
2122	4.48e-05
2134	2.8e-05
2146	5.6e-05
2158	4.48e-05
2170	5.88e-05
2182	4.48e-05
2194	4.48e-05
2206	4.76e-05
2218	4.2e-05
2230	1.68e-05
2242	2.24e-05
2254	2.24e-05
2266	3.36e-05
2278	3.64e-05
2290	2.24e-05
2302	5.04e-05
2314	7.28e-05
2326	8.12e-05
2338	7.56e-05
2350	7e-05
2362	5.88e-05
2374	6.16e-05
2386	5.04e-05
2398	6.72e-05
2410	8.96e-05
2422	8.68e-05
2434	8.12e-05
2446	8.4e-05
2458	7e-05
2470	8.68e-05
2482	9.8e-05
2494	7.84e-05
2506	9.8e-05
2518	0.0001092
2530	0.0001036
2542	0.00014
2554	0.0001428
2566	0.0001652
2578	0.0001708
2590	0.0001876
2602	0.0002296
2614	0.0002408
2626	0.0002576
2638	0.0002884
2650	0.0003136
2662	0.000336
2674	0.0003164
2686	0.0003192
2698	0.0003612
2710	0.0003696
2722	0.000476
2734	0.0005796
2746	0.0005992
2758	0.0004564
2770	0.000532
2782	0.0006412
2794	0.000868
2806	0.0011004
2818	0.0017052
2830	0.0038136
2842	0.0067816
2854	0.0098868
2866	0.0120064
2878	0.0130564
2890	0.011704
2902	0.0126616
2914	0.017696
2926	0.0253232
2938	0.0267344
2950	0.0206612
2962	0.0166488
2974	0.0113288
2986	0.0057932
2998	0.0034608
3010	0.0024024
3022	0.001694
3034	0.0014616
3046	0.0012712
3058	0.0009744
3070	0.0008176
3082	0.000686
3094	0.0005824
3106	0.0004844
3118	0.0004116
3130	0.0003556
3142	0.0003192
3154	0.0002856
3166	0.0002744
3178	0.0002828
3190	0.0002576
3202	0.0001932
3214	0.0001652
3226	0.0001316
3238	0.0001484
3250	0.0001204
3262	0.0001148
3274	0.000126
3286	0.0001148
3298	0.0001316
3310	0.0001092
3322	0.0001036
3334	0.0001064
3346	0.0001512
3358	0.0001036
3370	9.52e-05
3382	0.0001064
3394	0.0001064
3406	8.12e-05
3418	9.52e-05
3430	5.88e-05
3442	6.72e-05
3454	8.4e-05
3466	0.0001036
3478	8.12e-05
3490	7.56e-05
3502	7.84e-05
3514	4.76e-05
3526	8.12e-05
3538	8.4e-05
3550	5.04e-05
3562	5.32e-05
3574	3.92e-05
3586	8.96e-05
3598	5.32e-05
3610	3.08e-05
3622	4.48e-05
3634	3.64e-05
3646	6.44e-05
3658	6.16e-05
3670	0.0001204
3682	9.52e-05
3694	0.0001008
3706	7.84e-05
3718	0.0001064
3730	7.28e-05
3742	0.0001288
3754	0.0001064
3766	9.8e-05
3778	0.0001148
3790	0.000112
3802	0.0001288
3814	0.0001148
3826	0.0001456
3838	0.0001232
