Infrared Spectrum: 2-Octyne
Formula: C 8 H 14
CAS: 2809-67-8
State: gas
Instrument: HP-GC/MS/IRD
Origin: NIST Mass Spectrometry Data Center
1/CM	ABSORBANCE
550	0.0004284
562	0.0002478
574	0.0001764
586	0.0001134
598	0.0001932
610	1.68e-05
622	0
634	3.78e-05
646	0.0001512
658	3.78e-05
670	9.66e-05
682	0.0001218
694	0.0001008
706	0.0002184
718	0.0003276
730	0.0005502
742	0.000462
754	0.0004158
766	0.0003276
778	0.000294
790	0.0001974
802	0.0001092
814	7.14e-05
826	3.78e-05
838	0.000105
850	0.0001008
862	7.56e-05
874	0.000147
886	0.00021
898	0.000168
910	0.0001554
922	0.0001302
934	0.000105
946	0.0001386
958	0.0002394
970	0.0003276
982	0.0003738
994	0.0002898
1006	0.0002058
1018	0.0001638
1030	0.0001974
1042	0.000168
1054	0.0001596
1066	0.000168
1078	0.0002142
1090	0.0002394
1102	0.0002898
1114	0.0002772
1126	0.0001386
1138	8.4e-05
1150	9.24e-05
1162	0.0001386
1174	0.000126
1186	0.0001806
1198	0.000231
1210	0.0002604
1222	0.0002982
1234	0.0003906
1246	0.0004326
1258	0.0004242
1270	0.00063
1282	0.000987
1294	0.001218
1306	0.001323
1318	0.0018522
1330	0.0026964
1342	0.0025788
1354	0.0021336
1366	0.0020412
1378	0.00252
1390	0.0021126
1402	0.0013356
1414	0.0014322
1426	0.0020076
1438	0.0032172
1450	0.003969
1462	0.0041832
1474	0.0031248
1486	0.0019278
1498	0.001407
1510	0.0009828
1522	0.0007728
1534	0.000693
1546	0.0006006
1558	0.0004704
1570	0.0004368
1582	0.0004032
1594	0.0002814
1606	0.0002268
1618	0.0001932
1630	0.0001512
1642	0.0001638
1654	0.0001302
1666	0.000105
1678	0.000105
1690	8.82e-05
1702	6.3e-05
1714	7.14e-05
1726	3.78e-05
1738	2.1e-05
1750	0
1762	8.4e-06
1774	4.2e-05
1786	3.36e-05
1798	3.78e-05
1810	2.52e-05
1822	3.36e-05
1834	3.36e-05
1846	1.68e-05
1858	2.1e-05
1870	2.52e-05
1882	2.1e-05
1894	8.4e-06
1906	3.78e-05
1918	2.94e-05
1930	2.52e-05
1942	4.62e-05
1954	4.2e-05
1966	4.2e-05
1978	3.36e-05
1990	2.52e-05
2002	0
2014	3.78e-05
2026	4.62e-05
2038	0.0001008
2050	0.0001722
2062	0.0001722
2074	9.66e-05
2086	7.98e-05
2098	5.46e-05
2110	2.1e-05
2122	5.04e-05
2134	7.14e-05
2146	6.3e-05
2158	3.36e-05
2170	8.4e-06
2182	5.46e-05
2194	2.94e-05
2206	3.36e-05
2218	7.14e-05
2230	3.78e-05
2242	5.46e-05
2254	4.2e-05
2266	4.62e-05
2278	4.62e-05
2290	5.46e-05
2302	6.72e-05
2314	4.2e-06
2326	7.98e-05
2338	6.72e-05
2350	4.2e-05
2362	7.14e-05
2374	5.88e-05
2386	7.14e-05
2398	6.72e-05
2410	0.0001218
2422	0.0001386
2434	0.0001092
2446	0.0001176
2458	0.0001176
2470	0.0001092
2482	0.0001176
2494	0.0001218
2506	9.66e-05
2518	0.000147
2530	0.0001638
2542	0.0001974
2554	0.000126
2566	0.0001722
2578	0.0001932
2590	0.0001806
2602	0.0001596
2614	0.0001722
2626	0.0002184
2638	0.0003276
2650	0.000357
2662	0.0003738
2674	0.0004242
2686	0.000399
2698	0.000378
2710	0.0004242
2722	0.0004956
2734	0.0007518
2746	0.0009744
2758	0.0009198
2770	0.0008064
2782	0.000882
2794	0.001134
2806	0.0014238
2818	0.0019068
2830	0.0028182
2842	0.0049224
2854	0.0091896
2866	0.01428
2878	0.0159054
2890	0.01344
2902	0.0131796
2914	0.0195384
2926	0.0332052
2938	0.042
2950	0.0321468
2962	0.024675
2974	0.019488
2986	0.0095046
2998	0.0051324
3010	0.0035868
3022	0.0026418
3034	0.0023814
3046	0.0016086
3058	0.0013062
3070	0.0010626
3082	0.0008526
3094	0.0007644
3106	0.0006174
3118	0.0005418
3130	0.0004242
3142	0.0004116
3154	0.0003402
3166	0.000336
3178	0.0003612
3190	0.0002856
3202	0.0002898
3214	0.0002604
3226	0.0001848
3238	0.0001386
3250	0.0001092
3262	0.0001386
3274	0.0001386
3286	0.0001218
3298	0.0001344
3310	0.0001512
3322	0.0001596
3334	0.000189
3346	0.0001386
3358	0.0001806
3370	0.0001092
3382	5.88e-05
3394	6.72e-05
3406	9.66e-05
3418	0.0001176
3430	0.0001386
3442	0.000231
3454	0.000189
3466	0.0001344
3478	8.4e-05
3490	7.98e-05
3502	7.56e-05
3514	5.46e-05
3526	4.2e-05
3538	4.2e-06
3550	3.36e-05
3562	8.82e-05
3574	0.0001134
3586	0
3598	3.36e-05
3610	7.98e-05
3622	0.0001092
3634	0.0001302
3646	7.98e-05
3658	0.0001722
3670	0.0001218
3682	8.4e-05
3694	0.0001134
3706	0.0001008
3718	7.14e-05
3730	0.0001554
3742	0.0001134
3754	0.0001512
3766	0.0001512
3778	7.98e-05
3790	0.0001596
3802	0.0001806
3814	0.000231
3826	0.0001806
3838	0.0002142
