Infrared Spectrum: 1-Ethynyl-1-cycloheptanol
Formula: C 9 H 14 O
CAS: 2809-78-1
State: gas
Instrument: HP-GC/MS/IRD
Origin: NIST Mass Spectrometry Data Center
1/CM	ABSORBANCE
550	0.0015336
562	0.000846
574	0.0005796
586	0.0003744
598	0.0004536
610	0.0014508
622	0.005274
634	0.0095292
646	0.0095328
658	0.0066312
670	0.0020232
682	0.0003528
694	0.0001224
706	6.12e-05
718	9e-05
730	0.0001188
742	0.0001548
754	0.0002448
766	0.0005328
778	0.0006768
790	0.0005112
802	0.0002772
814	0.0002052
826	0.0002916
838	0.0007596
850	0.0012204
862	0.0010944
874	0.0007884
886	0.0010944
898	0.0018036
910	0.0023796
922	0.0024372
934	0.0017316
946	0.0013536
958	0.0013104
970	0.0014256
982	0.002106
994	0.0029556
1006	0.0053748
1018	0.0096624
1030	0.0100512
1042	0.0061776
1054	0.0034956
1066	0.0018396
1078	0.0012132
1090	0.0010188
1102	0.0011916
1114	0.0016596
1126	0.001566
1138	0.001242
1150	0.0011952
1162	0.001368
1174	0.0018324
1186	0.0026748
1198	0.0033408
1210	0.0031752
1222	0.0027288
1234	0.0029844
1246	0.0048924
1258	0.0055044
1270	0.0039456
1282	0.0033012
1294	0.0030888
1306	0.0033048
1318	0.0034704
1330	0.0032436
1342	0.0027936
1354	0.0023328
1366	0.0021348
1378	0.0019152
1390	0.0014004
1402	0.0010044
1414	0.0009216
1426	0.0012924
1438	0.00252
1450	0.0040464
1462	0.0040968
1474	0.0024192
1486	0.001008
1498	0.0004536
1510	0.0002376
1522	0.0001476
1534	0.0001296
1546	9.72e-05
1558	1.08e-05
1570	7.56e-05
1582	9.72e-05
1594	7.2e-05
1606	9.36e-05
1618	4.68e-05
1630	7.2e-05
1642	5.4e-05
1654	0
1666	5.4e-05
1678	1.8e-05
1690	5.76e-05
1702	1.8e-05
1714	3.24e-05
1726	6.84e-05
1738	2.52e-05
1750	5.04e-05
1762	4.68e-05
1774	2.88e-05
1786	2.52e-05
1798	4.32e-05
1810	5.04e-05
1822	4.68e-05
1834	5.04e-05
1846	6.12e-05
1858	6.12e-05
1870	4.32e-05
1882	5.76e-05
1894	5.76e-05
1906	5.04e-05
1918	5.4e-05
1930	6.12e-05
1942	5.76e-05
1954	5.76e-05
1966	5.4e-05
1978	5.4e-05
1990	5.04e-05
2002	4.68e-05
2014	3.96e-05
2026	4.68e-05
2038	6.48e-05
2050	5.04e-05
2062	4.68e-05
2074	6.12e-05
2086	7.56e-05
2098	0.0001152
2110	0.0001332
2122	6.84e-05
2134	7.56e-05
2146	4.32e-05
2158	3.96e-05
2170	5.76e-05
2182	4.68e-05
2194	8.28e-05
2206	7.92e-05
2218	8.28e-05
2230	0.0001008
2242	7.2e-05
2254	7.2e-05
2266	5.4e-05
2278	6.12e-05
2290	3.6e-05
2302	3.96e-05
2314	1.44e-05
2326	7.2e-06
2338	0
2350	2.88e-05
2362	7.2e-06
2374	1.8e-05
2386	3.6e-05
2398	4.68e-05
2410	5.76e-05
2422	4.32e-05
2434	3.6e-05
2446	4.68e-05
2458	2.52e-05
2470	6.12e-05
2482	5.76e-05
2494	3.6e-05
2506	5.4e-05
2518	6.84e-05
2530	6.48e-05
2542	7.92e-05
2554	0.000108
2566	0.0001044
2578	7.56e-05
2590	9.72e-05
2602	0.0001044
2614	0.0001296
2626	0.000144
2638	0.0002124
2650	0.0002988
2662	0.0003564
2674	0.0004788
2686	0.0005148
2698	0.000486
2710	0.000396
2722	0.0003204
2734	0.0002664
2746	0.000234
2758	0.0002592
2770	0.0003132
2782	0.0004356
2794	0.00054
2806	0.0007416
2818	0.0008856
2830	0.001116
2842	0.0020304
2854	0.00522
2866	0.0090396
2878	0.0083988
2890	0.0060624
2902	0.007038
2914	0.0129348
2926	0.0263952
2938	0.036
2950	0.0262512
2962	0.0110268
2974	0.003672
2986	0.00153
2998	0.0008748
3010	0.0005616
3022	0.000378
3034	0.0002628
3046	0.0002052
3058	0.000162
3070	0.0001368
3082	0.0001152
3094	0.0001044
3106	0.0001188
3118	9.72e-05
3130	8.64e-05
3142	0.0001008
3154	7.92e-05
3166	7.56e-05
3178	9e-05
3190	0.0001404
3202	0.0001044
3214	0.0001008
3226	0.0001188
3238	0.0001224
3250	0.0001476
3262	0.0002952
3274	0.0005976
3286	0.0011376
3298	0.0024588
3310	0.004392
3322	0.0073152
3334	0.004968
3346	0.0010476
3358	0.0004104
3370	0.0002196
3382	0.0001692
3394	0.0001404
3406	0.0001296
3418	0.0001224
3430	0.0001152
3442	9.72e-05
3454	8.28e-05
3466	0.0001224
3478	6.48e-05
3490	0.000108
3502	1.8e-05
3514	7.2e-05
3526	6.12e-05
3538	6.84e-05
3550	3.96e-05
3562	2.16e-05
3574	3.24e-05
3586	5.4e-05
3598	0.0001044
3610	0.0002808
3622	0.0011304
3634	0.0030312
3646	0.0023256
3658	0.0005508
3670	0.0001404
3682	9.36e-05
3694	6.12e-05
3706	5.04e-05
3718	5.4e-05
3730	1.8e-05
3742	0
3754	1.8e-05
3766	3.6e-05
3778	9e-05
3790	0.0001044
3802	8.64e-05
3814	0.0001224
3826	7.92e-05
3838	4.68e-05
