Infrared Spectrum: 5-Methyl-1,2,3,4-Tetrahydronaphthalene
Formula: C 11 H 14
CAS: 2809-64-5
State: gas
Origin: EPA-IR VAPOR PHASE LIBRARY
1/CM	ABSORBANCE
551.7	0.0006472
563.274	0.0005147
574.848	0.0006409
586.421	0.0009127
597.995	0.0009927
609.569	0.000598
621.143	0.0006319
632.717	0.0006266
644.291	0.0007628
655.864	0.0006294
667.438	0.0007433
679.012	0.0013272
690.586	0.0051372
702.16	0.0128472
713.734	0.0109372
725.307	0.0074672
736.881	0.0117372
748.455	0.0413772
760.029	0.0983972
771.603	0.0644172
783.177	0.0220672
794.75	0.0100472
806.324	0.0053872
817.898	0.0049972
829.472	0.0056272
841.046	0.0041872
852.619	0.0061572
864.193	0.0066272
875.767	0.0049272
887.341	0.0035072
898.915	0.0030472
910.489	0.0034172
922.062	0.0026272
933.636	0.0025472
945.21	0.0040872
956.784	0.0051972
968.358	0.0038372
979.932	0.0024172
991.505	0.0020272
1003.08	0.0018772
1014.65	0.0024172
1026.23	0.0036572
1037.8	0.0036572
1049.37	0.0024472
1060.95	0.0029272
1072.52	0.0042872
1084.1	0.0102572
1095.67	0.0110972
1107.24	0.0040972
1118.82	0.0021372
1130.39	0.0025772
1141.97	0.0033472
1153.54	0.0042272
1165.11	0.0045672
1176.69	0.0036072
1188.26	0.0028972
1199.83	0.0027272
1211.41	0.0033172
1222.98	0.0041172
1234.56	0.0057272
1246.13	0.0113772
1257.7	0.0115872
1269.28	0.0081572
1280.85	0.0078872
1292.42	0.0056872
1304	0.0037872
1315.57	0.0051472
1327.15	0.0081472
1338.72	0.0091372
1350.29	0.0090272
1361.87	0.0076472
1373.44	0.0061172
1385.02	0.0075772
1396.59	0.0066772
1408.16	0.0067272
1419.74	0.0113972
1431.31	0.0249072
1442.88	0.0454972
1454.46	0.0648372
1466.03	0.0705572
1477.61	0.0552772
1489.18	0.0246372
1500.75	0.0100572
1512.33	0.0077472
1523.9	0.0074272
1535.48	0.0064272
1547.05	0.0055672
1558.62	0.0061672
1570.2	0.0107972
1581.77	0.0206572
1593.34	0.0197672
1604.92	0.0070172
1616.49	0.0029772
1628.07	0.0024472
1639.64	0.0035572
1651.21	0.0041372
1662.79	0.0031972
1674.36	0.0022972
1685.93	0.0016372
1697.51	0.0015372
1709.08	0.0019272
1720.66	0.0020172
1732.23	0.0014772
1743.8	0.0012672
1755.38	0.0019772
1766.95	0.0032872
1778.53	0.0032972
1790.1	0.0023072
1801.67	0.0017672
1813.25	0.0014072
1824.82	0.0019072
1836.39	0.0037172
1847.97	0.0043672
1859.54	0.0028272
1871.12	0.0016972
1882.69	0.0013472
1894.26	0.0018272
1905.84	0.0037472
1917.41	0.0056372
1928.99	0.0038772
1940.56	0.0013172
1952.13	0.000743
1963.71	0.0005916
1975.28	0.0005477
1986.85	0.0005367
1998.43	0.0004408
2010	0.0003275
2021.58	0.0004473
2033.15	0.0004641
2044.72	0.0004565
2056.3	0.0004848
2067.87	0.0004497
2079.44	0.0004151
2091.02	0.0004032
2102.59	0.000409
2114.17	0.0003853
2125.74	0.0004392
2137.31	0.0003537
2148.89	0.0004057
2160.46	0.0004713
2172.04	0.0005267
2183.61	0.0005201
2195.18	0.0005042
2206.76	0.0005812
2218.33	0.0006881
2229.9	0.0008097
2241.48	0.0008499
2253.05	0.000813
2264.63	0.0006943
2276.2	0.0006165
2287.77	0.0006565
2299.35	0.0007967
2310.92	0.0011272
2322.5	0.0015872
2334.07	0.0015972
2345.64	0.000986
2357.22	0.0007324
2368.79	0.0007358
2380.36	0.0008315
2391.94	0.0009964
2403.51	0.0010972
2415.09	0.0011072
2426.66	0.0009998
2438.23	0.0009507
2449.81	0.0010061
2461.38	0.0010872
2472.96	0.0011172
2484.53	0.0010372
2496.1	0.0010103
2507.68	0.0010372
2519.25	0.0010472
2530.82	0.0010036
2542.4	0.0009331
2553.97	0.0009631
2565.55	0.0010099
2577.12	0.0011272
2588.69	0.0013072
2600.27	0.0014272
2611.84	0.0016872
2623.41	0.0020872
2634.99	0.0023072
2646.56	0.0029372
2658.14	0.0046372
2669.71	0.0052372
2681.28	0.0042172
2692.86	0.0033072
2704.43	0.0026672
2716.01	0.0025372
2727.58	0.0029772
2739.15	0.0040972
2750.73	0.0049172
2762.3	0.0052472
2773.87	0.0060872
2785.45	0.0074872
2797.02	0.0095872
2808.6	0.0128972
2820.17	0.0181572
2831.74	0.0327872
2843.32	0.0651772
2854.89	0.0947772
2866.47	0.129737
2878.04	0.127717
2889.61	0.105957
2901.19	0.0980172
2912.76	0.127077
2924.33	0.248537
2935.91	0.404817
2947.48	0.358497
2959.06	0.166597
2970.63	0.0731872
2982.2	0.0546572
2993.78	0.0366072
3005.35	0.0363372
3016.92	0.0586772
3028.5	0.0703372
3040.07	0.0621772
3051.65	0.0596172
3063.22	0.0615372
3074.79	0.0523772
3086.37	0.0267072
3097.94	0.0099272
3109.52	0.0057772
3121.09	0.0041272
3132.66	0.0032372
3144.24	0.0028772
3155.81	0.0029772
3167.38	0.0030372
3178.96	0.0027372
3190.53	0.0020872
3202.11	0.0015872
3213.68	0.0012772
3225.25	0.0011472
3236.83	0.0010772
3248.4	0.0007355
3259.98	0.0005558
3271.55	0.0004141
3283.12	0.0002512
3294.7	0.0002664
3306.27	0.0002849
3317.84	0.000228
3329.42	0.0002226
3340.99	0.0002477
3352.57	0.0004074
3364.14	0.0004275
3375.71	0.0004352
3387.29	0.0003418
3398.86	0.0004044
3410.43	0.0002407
3422.01	0.0002459
3433.58	0.0003904
3445.16	0.0003682
3456.73	0.0002824
3468.3	0.0002413
3479.88	0.0002702
3491.45	0.0003157
3503.03	0.0002273
3514.6	0.000361
3526.17	0.0004415
3537.75	0.0004777
3549.32	0.000373
3560.89	0.0002132
3572.47	0.0002012
3584.04	0.0002084
3595.62	0.0001279
3607.19	0.0001935
3618.76	4.087e-05
3630.34	3.74e-05
3641.91	0.0001845
3653.49	0.0002313
3665.06	0.0001701
3676.63	0.0002233
3688.21	0.0001318
3699.78	0.0002883
3711.35	0.0003828
3722.93	0.0003381
3734.5	0.0004527
3746.08	0.0004362
3757.65	0.000486
3769.22	0.0005145
3780.8	0.0006765
3792.37	0.0009813
3803.94	0.0013772
3815.52	0.0012872
3827.09	0.0009717
3838.67	0.0008166
3850.24	0.0007468
3861.81	0.0009555
3873.39	0.0010042
3884.96	0.0009571
3896.54	0.0008633
3908.11	0.0007908
3919.68	0.0008943
3931.26	0.0010272
3942.83	0.0009197
3954.4	0.000935
3965.98	0.000872
3977.55	0.0010118
3989.13	0.0009443
4000.7	0.0011372
