Infrared Spectrum: Adamantane
Formula: C 10 H 16
CAS: 281-23-2
State: gas
Instrument: HP-GC/MS/IRD
Origin: NIST Mass Spectrometry Data Center
1/CM	ABSORBANCE
550	8.72e-05
562	7.63e-05
574	0
586	0.0001199
598	8.72e-05
610	9.81e-05
622	0.000109
634	0.0001199
646	0.000109
658	7.63e-05
670	7.63e-05
682	8.72e-05
694	7.63e-05
706	0.000109
718	0.000109
730	8.72e-05
742	9.81e-05
754	8.72e-05
766	0.0001199
778	0.0001635
790	0.0002943
802	0.000218
814	0.0001417
826	0.0001417
838	7.63e-05
850	6.54e-05
862	5.45e-05
874	0.000109
886	0.000109
898	6.54e-05
910	6.54e-05
922	8.72e-05
934	9.81e-05
946	0.0003161
958	0.000654
970	0.0007412
982	0.0003052
994	0.0001199
1006	0.000109
1018	9.81e-05
1030	9.81e-05
1042	5.45e-05
1054	8.72e-05
1066	0.000109
1078	0.0003052
1090	0.001526
1102	0.0018203
1114	0.0007739
1126	0.0001526
1138	7.63e-05
1150	7.63e-05
1162	5.45e-05
1174	6.54e-05
1186	7.63e-05
1198	8.72e-05
1210	8.72e-05
1222	6.54e-05
1234	5.45e-05
1246	6.54e-05
1258	7.63e-05
1270	5.45e-05
1282	9.81e-05
1294	8.72e-05
1306	0.000218
1318	0.0001308
1330	0.0001308
1342	0.0003052
1354	0.0005668
1366	0.0002834
1378	0.0001199
1390	0.0001635
1402	0.0003161
1414	0.0004578
1426	0.0006649
1438	0.0024198
1450	0.0045453
1462	0.0041747
1474	0.0020383
1486	0.0003161
1498	0.0001962
1510	0.0001962
1522	0.0001417
1534	0.0001308
1546	7.63e-05
1558	2.18e-05
1570	2.18e-05
1582	4.36e-05
1594	5.45e-05
1606	4.36e-05
1618	3.27e-05
1630	5.45e-05
1642	2.18e-05
1654	1.09e-05
1666	3.27e-05
1678	3.27e-05
1690	1.09e-05
1702	1.09e-05
1714	2.18e-05
1726	4.36e-05
1738	3.27e-05
1750	0.000109
1762	9.81e-05
1774	6.54e-05
1786	3.27e-05
1798	6.54e-05
1810	5.45e-05
1822	5.45e-05
1834	3.27e-05
1846	5.45e-05
1858	6.54e-05
1870	2.18e-05
1882	2.18e-05
1894	7.63e-05
1906	7.63e-05
1918	8.72e-05
1930	8.72e-05
1942	5.45e-05
1954	1.09e-05
1966	3.27e-05
1978	3.27e-05
1990	5.45e-05
2002	0.000109
2014	7.63e-05
2026	4.36e-05
2038	2.18e-05
2050	2.18e-05
2062	5.45e-05
2074	7.63e-05
2086	0.000109
2098	0.0001199
2110	0.0001308
2122	0.0001308
2134	5.45e-05
2146	4.36e-05
2158	4.36e-05
2170	2.18e-05
2182	3.27e-05
2194	1.09e-05
2206	5.45e-05
2218	0.000109
2230	4.36e-05
2242	3.27e-05
2254	2.18e-05
2266	2.18e-05
2278	2.18e-05
2290	3.27e-05
2302	5.45e-05
2314	7.63e-05
2326	5.45e-05
2338	3.27e-05
2350	3.27e-05
2362	0
2374	0
2386	6.54e-05
2398	0.000109
2410	0.0001417
2422	0.0001635
2434	0.0001744
2446	0.0001308
2458	8.72e-05
2470	6.54e-05
2482	3.27e-05
2494	4.36e-05
2506	1.09e-05
2518	5.45e-05
2530	8.72e-05
2542	0.0001744
2554	0.0003488
2566	0.0004469
2578	0.0003597
2590	0.0002943
2602	0.0002834
2614	0.0003488
2626	0.0005995
2638	0.0010682
2650	0.0016023
2662	0.0018966
2674	0.0014061
2686	0.0006213
2698	0.0003706
2710	0.0002943
2722	0.0002725
2734	0.0003924
2746	0.0004687
2758	0.000436
2770	0.0003924
2782	0.0005777
2794	0.0009156
2806	0.0012426
2818	0.0016241
2830	0.0029212
2842	0.0103659
2854	0.0217019
2866	0.0189987
2878	0.0104422
2890	0.0202849
2902	0.0682122
2914	0.109
2926	0.0726267
2938	0.0269339
2950	0.0104531
2962	0.0030847
2974	0.0013516
2986	0.000763
2998	0.0005123
3010	0.000327
3022	0.0002507
3034	0.0001744
3046	0.0001417
3058	0.0001199
3070	0.0001308
3082	0.000109
3094	8.72e-05
3106	6.54e-05
3118	4.36e-05
3130	6.54e-05
3142	4.36e-05
3154	4.36e-05
3166	4.36e-05
3178	9.81e-05
3190	8.72e-05
3202	7.63e-05
3214	0.0002289
3226	0.000436
3238	0.0002725
3250	9.81e-05
3262	1.09e-05
3274	5.45e-05
3286	1.09e-05
3298	0.000109
3310	0.000109
3322	7.63e-05
3334	5.45e-05
3346	0.0002725
3358	0.0004033
3370	0.0002834
3382	7.63e-05
3394	2.18e-05
3406	6.54e-05
3418	6.54e-05
3430	3.27e-05
3442	1.09e-05
3454	3.27e-05
3466	1.09e-05
3478	3.27e-05
3490	6.54e-05
3502	8.72e-05
3514	5.45e-05
3526	9.81e-05
3538	0.0001526
3550	0.0002289
3562	0.0001417
3574	9.81e-05
3586	5.45e-05
3598	5.45e-05
3610	6.54e-05
3622	9.81e-05
3634	5.45e-05
3646	8.72e-05
3658	0.000109
3670	8.72e-05
3682	9.81e-05
3694	0.000109
3706	0.0001417
3718	0.0001635
3730	0.0001635
3742	0.0001635
3754	9.81e-05
3766	9.81e-05
3778	0.000109
3790	0.0001308
3802	0.0001635
3814	0.000218
3826	0.000218
3838	0.0001199
