Infrared Spectrum: Ethyl thiophene-2-carboxylate
Formula: C 7 H 8 O 2 S
CAS: 2810-04-0
State: gas
Origin: EPA-IR VAPOR PHASE LIBRARY
1/CM	ABSORBANCE
549.9	0.0065971
559.547	0.0063922
569.193	0.005954
578.84	0.005472
588.486	0.005123
598.133	0.005
607.779	0.00505
617.426	0.005787
627.072	0.00732
636.719	0.0104
646.365	0.01363
656.012	0.01447
665.658	0.01188
675.305	0.01015
684.951	0.01767
694.598	0.06282
704.245	0.15412
713.891	0.24331
723.538	0.13395
733.184	0.06642
742.831	0.08944
752.477	0.14385
762.124	0.10118
771.77	0.04894
781.417	0.02823
791.063	0.02195
800.71	0.02264
810.356	0.02717
820.003	0.02889
829.649	0.02902
839.296	0.0344
848.943	0.05025
858.589	0.06005
868.236	0.056
877.882	0.02708
887.529	0.01154
897.175	0.01008
906.822	0.01037
916.468	0.01021
926.115	0.00988
935.761	0.00913
945.408	0.00937
955.054	0.01011
964.701	0.01209
974.347	0.01565
983.994	0.02153
993.64	0.03024
1003.29	0.04015
1012.93	0.04291
1022.58	0.03981
1032.23	0.05128
1041.87	0.06366
1051.52	0.07004
1061.17	0.14702
1070.81	0.34172
1080.46	0.49231
1090.11	0.67821
1099.75	0.65049
1109.4	0.24676
1119.05	0.08603
1128.69	0.05673
1138.34	0.04362
1147.99	0.03972
1157.63	0.04311
1167.28	0.05092
1176.92	0.05418
1186.57	0.05311
1196.22	0.06647
1205.86	0.10627
1215.51	0.1855
1225.16	0.25575
1234.8	0.28502
1244.45	0.56027
1254.1	1.15184
1263.74	1.1552
1273.39	0.67909
1283.04	0.32475
1292.68	0.13787
1302.33	0.09822
1311.98	0.0848
1321.62	0.05926
1331.27	0.03833
1340.92	0.04044
1350.56	0.08894
1360.21	0.13208
1369.86	0.1292
1379.5	0.08544
1389.15	0.05046
1398.79	0.06115
1408.44	0.11462
1418.09	0.23778
1427.73	0.22069
1437.38	0.07626
1447.03	0.04468
1456.67	0.04594
1466.32	0.05209
1475.97	0.04934
1485.61	0.03568
1495.26	0.03081
1504.91	0.04005
1514.55	0.08597
1524.2	0.15063
1533.85	0.10733
1543.49	0.02886
1553.14	0.02978
1562.79	0.02999
1572.43	0.02248
1582.08	0.02012
1591.73	0.02142
1601.37	0.0204
1611.02	0.01837
1620.67	0.01629
1630.31	0.01407
1639.96	0.01319
1649.6	0.01479
1659.25	0.01802
1668.9	0.02286
1678.54	0.03099
1688.19	0.04397
1697.84	0.0618
1707.48	0.10329
1717.13	0.24545
1726.78	0.56348
1736.42	0.77067
1746.07	0.57961
1755.72	0.21318
1765.36	0.06601
1775.01	0.02777
1784.66	0.02136
1794.3	0.02265
1803.95	0.0233
1813.6	0.0215
1823.24	0.0174
1832.89	0.01368
1842.54	0.0124
1852.18	0.01171
1861.83	0.01118
1871.47	0.01013
1881.12	0.00882
1890.77	0.00834
1900.41	0.008
1910.06	0.00722
1919.71	0.0069178
1929.35	0.00756
1939	0.009
1948.65	0.00939
1958.29	0.00831
1967.94	0.0072
1977.59	0.005815
1987.23	0.005316
1996.88	0.005183
2006.53	0.005189
2016.17	0.005225
2025.82	0.00519
2035.47	0.005216
2045.11	0.0056
2054.76	0.00616585
2064.41	0.0068324
2074.05	0.00742
2083.7	0.00742
2093.35	0.0069093
2102.99	0.0063523
2112.64	0.005908
2122.28	0.005619
2131.93	0.005354
2141.58	0.00492
2151.22	0.0047
2160.87	0.00468
2170.52	0.00475
2180.16	0.00445
2189.81	0.00379
2199.46	0.00353
2209.1	0.00369
2218.75	0.0039
2228.4	0.00404
2238.04	0.00414
2247.69	0.00427
2257.34	0.00449
2266.98	0.00476
2276.63	0.0049
2286.28	0.00468
2295.92	0.00412
2305.57	0.00382
2315.22	0.00392
2324.86	0.00401
2334.51	0.00401
2344.16	0.00409
2353.8	0.00399
2363.45	0.00378
2373.09	0.0038
2382.74	0.00395
2392.39	0.00404
2402.03	0.00398
2411.68	0.00396
2421.33	0.00424
2430.97	0.00456
2440.62	0.00471
2450.27	0.00484
2459.91	0.00464
2469.56	0.00382
2479.21	0.00327
2488.85	0.00324
2498.5	0.00323
2508.15	0.00314
2517.79	0.00302
2527.44	0.00279
2537.09	0.00273
2546.73	0.00261
2556.38	0.00245
2566.03	0.00232
2575.67	0.0024
2585.32	0.00252
2594.96	0.00251
2604.61	0.003
2614.26	0.00343
2623.9	0.00342
2633.55	0.00304
2643.2	0.00266
2652.84	0.00246
2662.49	0.00263
2672.14	0.00301
2681.78	0.00302
2691.43	0.00256
2701.08	0.00199
2710.72	0.00188
2720.37	0.00233
2730.02	0.00286
2739.66	0.0033
2749.31	0.0036
2758.96	0.0038
2768.6	0.00443
2778.25	0.00492
2787.9	0.00466
2797.54	0.00465
2807.19	0.005376
2816.84	0.0067306
2826.48	0.00781
2836.13	0.0077
2845.77	0.007035
2855.42	0.00769
2865.07	0.01008
2874.71	0.01655
2884.36	0.02474
2894.01	0.02698
2903.65	0.0289
2913.3	0.03371
2922.95	0.03524
2932.59	0.04568
2942.24	0.06797
2951.89	0.06949
2961.53	0.06375
2971.18	0.08197
2980.83	0.12555
2990.47	0.13312
3000.12	0.08923
3009.77	0.0562
3019.41	0.03266
3029.06	0.01864
3038.71	0.0116
3048.35	0.00784
3058	0.005894
3067.64	0.0063271
3077.29	0.01259
3086.94	0.02008
3096.58	0.01634
3106.23	0.00976
3115.88	0.00844
3125.52	0.00499
3135.17	0.00247
3144.82	0.00252
3154.46	0.00279
3164.11	0.00247
3173.76	0.00179
3183.4	0.00121
3193.05	0.00106
3202.7	0.0006
3212.34	0.00047
3221.99	0.00016
3231.64	0.00017
3241.28	0
3250.93	0.00038
3260.58	0.00064
3270.22	0.00029
3279.87	3e-05
3289.52	8e-05
3299.16	0.0002
3308.81	0.00054
3318.45	0.00043
3328.1	0.00043
3337.75	0.0008
3347.39	0.0009
3357.04	0.00093
3366.69	0.00108
3376.33	0.0014
3385.98	0.00143
3395.63	0.0015
3405.27	0.00171
3414.92	0.00258
3424.57	0.00329
3434.21	0.00509
3443.86	0.00713
3453.51	0.00802
3463.15	0.0065231
3472.8	0.00412
3482.45	0.00285
3492.09	0.00244
3501.74	0.00205
3511.39	0.00193
3521.03	0.00206
3530.68	0.00196
3540.33	0.00193
3549.97	0.00215
3559.62	0.00202
3569.26	0.00213
3578.91	0.00227
3588.56	0.00223
3598.2	0.00227
3607.85	0.00232
3617.5	0.00224
3627.14	0.00245
3636.79	0.00249
3646.44	0.00234
3656.08	0.00245
3665.73	0.00234
3675.38	0.00241
3685.02	0.0024
3694.67	0.00256
3704.32	0.00252
3713.96	0.0027
3723.61	0.00292
3733.26	0.00331
3742.9	0.00357
3752.55	0.00371
3762.2	0.00346
3771.84	0.00329
3781.49	0.00294
3791.13	0.00306
3800.78	0.00322
3810.43	0.0031
3820.07	0.00323
3829.72	0.00373
3839.37	0.00432
3849.01	0.00445
3858.66	0.00394
3868.31	0.00367
3877.95	0.00308
3887.6	0.00302
3897.25	0.00293
3906.89	0.0029
3916.54	0.00298
3926.19	0.00319
3935.83	0.00403
3945.48	0.00472
3955.13	0.00483
3964.77	0.00463
3974.42	0.00421
3984.07	0.00367
3993.71	0.00346
