Infrared Spectrum: 2-Methylbenzoyl isothiocyanate
Formula: C 9 H 7 N O S
CAS: 28115-85-7
State: gas
Origin: EPA-IR VAPOR PHASE LIBRARY
1/CM	ABSORBANCE
549.8	0.003614
559.445	0.002274
569.09	0.002354
578.734	0.002264
588.379	0.002534
598.024	0.002574
607.669	0.003584
617.313	0.005564
626.958	0.011354
636.603	0.023084
646.248	0.039464
655.893	0.052534
665.537	0.057374
675.182	0.042434
684.827	0.024504
694.472	0.015404
704.116	0.013424
713.761	0.022884
723.406	0.052124
733.051	0.061414
742.695	0.034714
752.34	0.021464
761.985	0.030424
771.63	0.077104
781.275	0.076104
790.919	0.031884
800.564	0.017724
810.209	0.007884
819.854	0.007184
829.498	0.011314
839.143	0.020804
848.788	0.038704
858.433	0.095514
868.078	0.161334
877.722	0.108004
887.367	0.051324
897.012	0.033474
906.657	0.027614
916.301	0.023854
925.946	0.021924
935.591	0.021204
945.236	0.020564
954.88	0.020794
964.525	0.021084
974.17	0.019184
983.815	0.015434
993.46	0.012934
1003.1	0.011344
1012.75	0.010224
1022.39	0.011564
1032.04	0.016814
1041.68	0.029424
1051.33	0.055464
1060.97	0.079364
1070.62	0.059454
1080.26	0.032144
1089.91	0.020554
1099.55	0.015244
1109.2	0.015804
1118.84	0.025544
1128.49	0.045064
1138.13	0.049324
1147.78	0.020034
1157.42	0.018944
1167.07	0.021324
1176.71	0.016464
1186.36	0.026494
1196	0.055194
1205.64	0.115904
1215.29	0.242624
1224.93	0.324994
1234.58	0.212044
1244.22	0.097154
1253.87	0.060584
1263.51	0.041554
1273.16	0.035274
1282.8	0.057574
1292.45	0.048434
1302.09	0.020394
1311.74	0.008354
1321.38	0.005464
1331.03	0.004614
1340.67	0.004494
1350.32	0.004634
1359.96	0.004344
1369.61	0.004294
1379.25	0.005944
1388.9	0.008324
1398.54	0.007554
1408.18	0.006544
1417.83	0.008224
1427.47	0.012024
1437.12	0.016924
1446.76	0.019374
1456.41	0.023884
1466.05	0.023884
1475.7	0.023324
1485.34	0.026084
1494.99	0.016564
1504.63	0.009834
1514.28	0.007994
1523.92	0.007004
1533.57	0.006644
1543.21	0.007064
1552.86	0.008664
1562.5	0.014014
1572.15	0.020054
1581.79	0.017964
1591.44	0.016294
1601.08	0.017774
1610.73	0.012724
1620.37	0.007544
1630.01	0.006654
1639.66	0.007414
1649.3	0.007984
1658.95	0.009124
1668.59	0.012154
1678.24	0.018084
1687.88	0.028814
1697.53	0.053554
1707.17	0.111244
1716.82	0.195164
1726.46	0.224764
1736.11	0.177304
1745.75	0.118494
1755.4	0.068484
1765.04	0.037144
1774.69	0.021874
1784.33	0.014384
1793.98	0.010674
1803.62	0.009404
1813.27	0.009464
1822.91	0.009754
1832.55	0.011964
1842.2	0.014304
1851.84	0.015284
1861.49	0.018884
1871.13	0.026244
1880.78	0.036634
1890.42	0.051094
1900.07	0.073794
1909.71	0.109264
1919.36	0.158644
1929	0.197954
1938.65	0.212754
1948.29	0.246614
1957.94	0.324514
1967.58	0.472664
1977.23	0.638474
1986.87	0.604644
1996.52	0.440634
2006.16	0.352714
2015.81	0.329114
2025.45	0.313444
2035.1	0.240174
2044.74	0.155124
2054.38	0.105974
2064.03	0.078244
2073.67	0.063864
2083.32	0.059984
2092.96	0.059934
2102.61	0.057414
2112.25	0.053364
2121.9	0.048144
2131.54	0.038614
2141.19	0.027034
2150.83	0.019534
2160.48	0.015404
2170.12	0.012884
2179.77	0.011524
2189.41	0.011274
2199.06	0.011094
2208.7	0.009464
2218.35	0.007304
2227.99	0.006074
2237.64	0.005654
2247.28	0.005684
2256.92	0.006104
2266.57	0.006714
2276.21	0.006724
2285.86	0.006174
2295.5	0.005204
2305.15	0.004324
2314.79	0.003944
2324.44	0.003644
2334.08	0.003234
2343.73	0.002884
2353.37	0.002614
2363.02	0.002304
2372.66	0.002124
2382.31	0.002044
2391.95	0.002014
2401.6	0.002234
2411.24	0.002214
2420.89	0.002424
2430.53	0.002294
2440.18	0.002484
2449.82	0.002484
2459.47	0.002514
2469.11	0.002404
2478.75	0.002444
2488.4	0.002554
2498.04	0.002804
2507.69	0.002924
2517.33	0.003174
2526.98	0.003294
2536.62	0.003504
2546.27	0.003354
2555.91	0.003194
2565.56	0.002784
2575.2	0.002874
2584.85	0.002824
2594.49	0.002714
2604.14	0.002724
2613.78	0.003084
2623.43	0.003534
2633.07	0.003884
2642.72	0.004014
2652.36	0.004294
2662.01	0.004694
2671.65	0.004934
2681.29	0.004914
2690.94	0.004804
2700.58	0.004424
2710.23	0.003494
2719.87	0.002504
2729.52	0.002274
2739.16	0.002344
2748.81	0.002634
2758.45	0.002574
2768.1	0.002494
2777.74	0.002314
2787.39	0.002344
2797.03	0.002234
2806.68	0.002124
2816.32	0.002204
2825.97	0.002454
2835.61	0.002694
2845.26	0.003134
2854.9	0.003694
2864.55	0.004284
2874.19	0.005044
2883.84	0.005144
2893.48	0.004994
2903.12	0.004854
2912.77	0.005224
2922.41	0.006614
2932.06	0.009804
2941.7	0.013104
2951.35	0.011584
2960.99	0.008894
2970.64	0.009444
2980.28	0.012074
2989.93	0.012014
2999.57	0.008294
3009.22	0.006624
3018.86	0.008414
3028.51	0.012224
3038.15	0.011784
3047.8	0.009104
3057.44	0.011524
3067.09	0.018354
3076.73	0.020414
3086.38	0.013064
3096.02	0.007104
3105.67	0.004914
3115.31	0.002734
3124.95	0.001764
3134.6	0.001524
3144.24	0.001252
3153.89	0.0011928
3163.53	0.0008166
3173.18	0.0006632
3182.82	0.0006813
3192.47	0.0007028
3202.11	0.0006203
3211.76	0.000216
3221.4	0.000262
3231.05	4.1e-05
3240.69	0.000136
3250.34	0.000266
3259.98	0.000124
3269.63	0.000198
3279.27	0.00052904
3288.92	0.0002
3298.56	0.000169
3308.21	0.0003465
3317.85	0.0003921
3327.49	0.000192
3337.14	0.000281
3346.78	0.000144
3356.43	0.0003748
3366.07	0.00051756
3375.72	0.0006736
3385.36	0.0008445
3395.01	0.0010527
3404.65	0.001554
3414.3	0.002434
3423.94	0.002684
3433.59	0.002444
3443.23	0.002024
3452.88	0.001854
3462.52	0.0014013
3472.17	0.0012554
3481.81	0.0010017
3491.46	0.0008223
3501.1	0.00047144
3510.75	0.0005866
3520.39	0.000321
3530.04	0.0005475
3539.68	0.000281
3549.32	0.00043798
3558.97	0.0005438
3568.61	0.00051377
3578.26	0.000296
3587.9	0.00047681
3597.55	0.000450369
3607.19	0.000327
3616.84	0.0005139
3626.48	0.000251
3636.13	0.000262
3645.77	0.000324
3655.42	0.000215
3665.06	0.00023
3674.71	0.000277
3684.35	0.000234
3694	0.000304
3703.64	0.000295
3713.29	0.00048171
3722.93	0.000211
3732.58	0.00044178
3742.22	0.00044072
3751.86	0.00051802
3761.51	0.0006444
3771.15	0.0007271
3780.8	0.0008139
3790.44	0.0010231
3800.09	0.0009543
3809.73	0.0010804
3819.38	0.0011344
3829.02	0.0014223
3838.67	0.001554
3848.31	0.001654
3857.96	0.001834
3867.6	0.001824
3877.25	0.002064
3886.89	0.002244
3896.54	0.002374
3906.18	0.002534
3915.83	0.002504
3925.47	0.002654
3935.12	0.002634
3944.76	0.002774
3954.41	0.002834
3964.05	0.002654
3973.69	0.002504
3983.34	0.002604
3992.98	0.002434
