Infrared Spectrum: 4-Nitrobenzoyl isothiocyanate
Formula: C 8 H 4 N 2 O 3 S
CAS: 28115-92-6
State: gas
Origin: EPA-IR VAPOR PHASE LIBRARY
1/CM	ABSORBANCE
549.8	0.0015843
559.445	0.001599
569.09	0.0010574
578.734	0.0015971
588.379	0.0013791
598.024	0.0011732
607.669	0.0013886
617.313	0.0011071
626.958	0.0015876
636.603	0.0015522
646.248	0.00279
655.893	0.00512
665.537	0.0083
675.182	0.01222
684.827	0.01741
694.472	0.02538
704.116	0.03792
713.761	0.03949
723.406	0.02141
733.051	0.00919
742.695	0.00451
752.34	0.00296
761.985	0.00317
771.63	0.00382
781.275	0.00403
790.919	0.00449
800.564	0.00575
810.209	0.00912
819.854	0.01999
829.498	0.07939
839.143	0.16277
848.788	0.05144
858.433	0.0248
868.078	0.03843
877.722	0.03791
887.367	0.02256
897.012	0.01517
906.657	0.01282
916.301	0.01173
925.946	0.00976
935.591	0.00824
945.236	0.00726
954.88	0.00757
964.525	0.00922
974.17	0.01059
983.815	0.00895
993.46	0.0068
1003.1	0.00675
1012.75	0.01709
1022.39	0.00666
1032.04	0.00309
1041.68	0.00362
1051.33	0.00435
1060.97	0.00747
1070.62	0.01381
1080.26	0.03034
1089.91	0.04603
1099.55	0.026
1109.2	0.01063
1118.84	0.00655
1128.49	0.00464
1138.13	0.00414
1147.78	0.00398
1157.42	0.00551
1167.07	0.01089
1176.71	0.01468
1186.36	0.00911
1196	0.01372
1205.64	0.02796
1215.29	0.06298
1224.93	0.13205
1234.58	0.17312
1244.22	0.20833
1253.87	0.1812
1263.51	0.07779
1273.16	0.03023
1282.8	0.01569
1292.45	0.01388
1302.09	0.01427
1311.74	0.01511
1321.38	0.0155
1331.03	0.0238
1340.67	0.04975
1350.32	0.06273
1359.96	0.03446
1369.61	0.01983
1379.25	0.01408
1388.9	0.01124
1398.54	0.00882
1408.18	0.01222
1417.83	0.00736
1427.47	0.00376
1437.12	0.00273
1446.76	0.00245
1456.41	0.00256
1466.05	0.00353
1475.7	0.00535
1485.34	0.00824
1494.99	0.01103
1504.63	0.01237
1514.28	0.01589
1523.92	0.02364
1533.57	0.04459
1543.21	0.08459
1552.86	0.07277
1562.5	0.03028
1572.15	0.01922
1581.79	0.01653
1591.44	0.02002
1601.08	0.0259
1610.73	0.02077
1620.37	0.01076
1630.01	0.00604
1639.66	0.00502
1649.3	0.00477
1658.95	0.00515
1668.59	0.00653
1678.24	0.00879
1687.88	0.01282
1697.53	0.02277
1707.17	0.04659
1716.82	0.09824
1726.46	0.12694
1736.11	0.0863
1745.75	0.04297
1755.4	0.02367
1765.04	0.01284
1774.69	0.00875
1784.33	0.00773
1793.98	0.00762
1803.62	0.00736
1813.27	0.00593
1822.91	0.00531
1832.55	0.00621
1842.2	0.00768
1851.84	0.01013
1861.49	0.01444
1871.13	0.02123
1880.78	0.0313
1890.42	0.04642
1900.07	0.07037
1909.71	0.10159
1919.36	0.13177
1929	0.15238
1938.65	0.17978
1948.29	0.23585
1957.94	0.24856
1967.58	0.23013
1977.23	0.21453
1986.87	0.206
1996.52	0.21935
2006.16	0.21887
2015.81	0.18158
2025.45	0.12846
2035.1	0.08731
2044.74	0.06282
2054.38	0.04681
2064.03	0.03597
2073.67	0.02872
2083.32	0.02314
2092.96	0.0194
2102.61	0.01679
2112.25	0.01388
2121.9	0.01186
2131.54	0.01004
2141.19	0.00884
2150.83	0.00856
2160.48	0.00904
2170.12	0.0099
2179.77	0.00984
2189.41	0.00769
2199.06	0.00575
2208.7	0.00464
2218.35	0.00373
2227.99	0.00332
2237.64	0.00295
2247.28	0.00267
2256.92	0.00262
2266.57	0.00224
2276.21	0.00224
2285.86	0.00235
2295.5	0.00251
2305.15	0.00278
2314.79	0.00326
2324.44	0.00314
2334.08	0.00296
2343.73	0.00273
2353.37	0.00232
2363.02	0.00207
2372.66	0.00204
2382.31	0.00189
2391.95	0.00179
2401.6	0.00172
2411.24	0.0019
2420.89	0.00197
2430.53	0.0018
2440.18	0.00177
2449.82	0.00175
2459.47	0.0016661
2469.11	0.0015353
2478.75	0.0014533
2488.4	0.0015204
2498.04	0.0014949
2507.69	0.0014877
2517.33	0.0014383
2526.98	0.0016191
2536.62	0.00151
2546.27	0.0014933
2555.91	0.0014448
2565.56	0.0014593
2575.2	0.0014286
2584.85	0.0015613
2594.49	0.0016566
2604.14	0.00173
2613.78	0.0019
2623.43	0.00203
2633.07	0.00224
2642.72	0.00276
2652.36	0.00286
2662.01	0.0031
2671.65	0.00315
2681.29	0.00339
2690.94	0.0031
2700.58	0.00289
2710.23	0.00261
2719.87	0.00217
2729.52	0.00185
2739.16	0.0016386
2748.81	0.0015398
2758.45	0.0013048
2768.1	0.0010773
2777.74	0.001333
2787.39	0.0012271
2797.03	0.0013572
2806.68	0.0013841
2816.32	0.0014556
2825.97	0.00172
2835.61	0.00174
2845.26	0.00199
2854.9	0.00191
2864.55	0.00207
2874.19	0.00237
2883.84	0.00263
2893.48	0.0023
2903.12	0.0018
2912.77	0.00185
2922.41	0.0015668
2932.06	0.0014897
2941.7	0.0013369
2951.35	0.0012911
2960.99	0.0011964
2970.64	0.0010931
2980.28	0.00073551
2989.93	0.0007657
2999.57	0.00077014
3009.22	0.0008189
3018.86	0.00073753
3028.51	0.00070186
3038.15	0.0008503
3047.8	0.0011731
3057.44	0.0011758
3067.09	0.0011506
3076.73	0.0016709
3086.38	0.0014626
3096.02	0.001278
3105.67	0.00071723
3115.31	0.00073166
3124.95	0.000497
3134.6	0.000487
3144.24	0.000312
3153.89	0.000523
3163.53	0.000436
3173.18	0.000273
3182.82	0.000164
3192.47	0.00019
3202.11	0.000299
3211.76	0.000286
3221.4	0.000491
3231.05	0.000248
3240.69	0.000168
3250.34	0.000246
3259.98	0.000295
3269.63	0.000382
3279.27	0.000178
3288.92	0.000236
3298.56	0.000337
3308.21	0.000307
3317.85	0.000253
3327.49	0.000327
3337.14	0.000515
3346.78	0.000389
3356.43	0.000363
3366.07	0.000408
3375.72	0.000406
3385.36	0.000302
3395.01	0.00072881
3404.65	0.0011184
3414.3	0.0014071
3423.94	0.001598
3433.59	0.00176
3443.23	0.0015444
3452.88	0.0011881
3462.52	0.00101
3472.17	0.000587
3481.81	0.00048
3491.46	0.0008636
3501.1	0.000442
3510.75	0.00034
3520.39	0.000444
3530.04	0.000543
3539.68	0.00071609
3549.32	0.000483
3558.97	0.000585
3568.61	0.000364
3578.26	0.000255
3587.9	0.000243
3597.55	0.000173
3607.19	0.000455
3616.84	0.0006793
3626.48	0.000391
3636.13	0.000322
3645.77	0.000298
3655.42	0.00053
3665.06	0.000587
3674.71	0.000433
3684.35	0.000582
3694	0.000269
3703.64	0.000461
3713.29	0.000341
3722.93	0.0006513
3732.58	0.0006019
3742.22	0.000535
3751.86	0.000575
3761.51	0.000524
3771.15	0.00073593
3780.8	0.0008743
3790.44	0.0010607
3800.09	0.0010478
3809.73	0.0009299
3819.38	0.0012882
3829.02	0.0012303
3838.67	0.0015945
3848.31	0.001217
3857.96	0.0014602
3867.6	0.001497
3877.25	0.0012956
3886.89	0.0014544
3896.54	0.0016118
3906.18	0.00176
3915.83	0.001494
3925.47	0.00174
3935.12	0.00171
3944.76	0.0017
3954.41	0.0015554
3964.05	0.0014385
3973.69	0.0012653
3983.34	0.0013958
3992.98	0.0013599
