Infrared Spectrum: 3-Methylbenzoyl isothiocyanate
Formula: C 9 H 7 N O S
CAS: 28115-86-8
State: gas
Origin: EPA-IR VAPOR PHASE LIBRARY
1/CM	ABSORBANCE
549.8	0.0013148
559.445	0.0010566
569.09	0.001543
578.734	0.001573
588.379	0.001081
598.024	0.001743
607.669	0.002043
617.313	0.003193
626.958	0.006383
636.603	0.014913
646.248	0.026753
655.893	0.036923
665.537	0.043193
675.182	0.041113
684.827	0.025833
694.472	0.014603
704.116	0.015253
713.761	0.034103
723.406	0.064343
733.051	0.045333
742.695	0.024253
752.34	0.019043
761.985	0.023673
771.63	0.059053
781.275	0.100403
790.919	0.079843
800.564	0.089593
810.209	0.101783
819.854	0.051953
829.498	0.016483
839.143	0.007443
848.788	0.004963
858.433	0.004923
868.078	0.005143
877.722	0.006023
887.367	0.008303
897.012	0.011783
906.657	0.021463
916.301	0.035733
925.946	0.042673
935.591	0.037703
945.236	0.029163
954.88	0.023783
964.525	0.021313
974.17	0.018783
983.815	0.017193
993.46	0.015493
1003.1	0.013043
1012.75	0.008673
1022.39	0.007643
1032.04	0.008253
1041.68	0.010833
1051.33	0.016923
1060.97	0.033563
1070.62	0.056323
1080.26	0.059303
1089.91	0.051673
1099.55	0.025743
1109.2	0.011943
1118.84	0.010023
1128.49	0.012873
1138.13	0.017903
1147.78	0.028153
1157.42	0.055203
1167.07	0.143563
1176.71	0.234753
1186.36	0.182513
1196	0.059603
1205.64	0.024053
1215.29	0.022883
1224.93	0.023213
1234.58	0.035583
1244.22	0.103563
1253.87	0.254213
1263.51	0.271643
1273.16	0.133743
1282.8	0.058583
1292.45	0.037933
1302.09	0.022393
1311.74	0.012553
1321.38	0.008543
1331.03	0.006693
1340.67	0.006583
1350.32	0.006423
1359.96	0.005743
1369.61	0.005173
1379.25	0.006383
1388.9	0.008303
1398.54	0.007683
1408.18	0.009033
1417.83	0.013103
1427.47	0.018963
1437.12	0.020843
1446.76	0.013623
1456.41	0.009703
1466.05	0.009703
1475.7	0.012333
1485.34	0.015623
1494.99	0.010643
1504.63	0.006673
1514.28	0.006593
1523.92	0.007193
1533.57	0.007043
1543.21	0.006333
1552.86	0.006073
1562.5	0.006693
1572.15	0.010033
1581.79	0.017943
1591.44	0.019493
1601.08	0.015823
1610.73	0.014243
1620.37	0.010393
1630.01	0.007673
1639.66	0.006983
1649.3	0.007163
1658.95	0.007603
1668.59	0.008773
1678.24	0.012813
1687.88	0.020453
1697.53	0.036853
1707.17	0.089193
1716.82	0.207303
1726.46	0.253803
1736.11	0.155993
1745.75	0.076103
1755.4	0.047373
1765.04	0.026613
1774.69	0.016133
1784.33	0.011293
1793.98	0.009383
1803.62	0.008973
1813.27	0.008913
1822.91	0.009073
1832.55	0.010183
1842.2	0.012553
1851.84	0.016153
1861.49	0.022113
1871.13	0.030433
1880.78	0.039573
1890.42	0.051173
1900.07	0.066733
1909.71	0.090343
1919.36	0.121503
1929	0.155033
1938.65	0.199303
1948.29	0.273413
1957.94	0.401923
1967.58	0.536683
1977.23	0.514463
1986.87	0.398863
1996.52	0.347543
2006.16	0.351693
2015.81	0.374133
2025.45	0.355933
2035.1	0.265803
2044.74	0.170913
2054.38	0.116683
2064.03	0.090863
2073.67	0.076823
2083.32	0.065633
2092.96	0.057133
2102.61	0.049163
2112.25	0.038613
2121.9	0.029833
2131.54	0.026023
2141.19	0.025053
2150.83	0.023323
2160.48	0.020443
2170.12	0.018203
2179.77	0.016063
2189.41	0.012303
2199.06	0.008883
2208.7	0.006973
2218.35	0.006333
2227.99	0.006213
2237.64	0.006603
2247.28	0.007503
2256.92	0.008163
2266.57	0.007543
2276.21	0.005763
2285.86	0.004403
2295.5	0.003653
2305.15	0.003493
2314.79	0.003513
2324.44	0.003753
2334.08	0.004133
2343.73	0.004033
2353.37	0.003543
2363.02	0.002833
2372.66	0.002453
2382.31	0.002243
2391.95	0.002183
2401.6	0.002233
2411.24	0.002243
2420.89	0.002463
2430.53	0.002493
2440.18	0.002673
2449.82	0.002853
2459.47	0.002983
2469.11	0.002923
2478.75	0.002833
2488.4	0.002973
2498.04	0.003183
2507.69	0.003463
2517.33	0.003683
2526.98	0.003673
2536.62	0.003643
2546.27	0.003473
2555.91	0.003223
2565.56	0.003123
2575.2	0.002823
2584.85	0.002733
2594.49	0.002733
2604.14	0.002843
2613.78	0.003003
2623.43	0.003323
2633.07	0.003493
2642.72	0.003963
2652.36	0.004553
2662.01	0.005073
2671.65	0.005063
2681.29	0.004673
2690.94	0.004033
2700.58	0.003523
2710.23	0.003083
2719.87	0.002683
2729.52	0.002703
2739.16	0.002783
2748.81	0.003223
2758.45	0.002903
2768.1	0.002603
2777.74	0.002353
2787.39	0.002253
2797.03	0.002183
2806.68	0.002283
2816.32	0.002393
2825.97	0.002613
2835.61	0.002833
2845.26	0.003403
2854.9	0.004243
2864.55	0.005903
2874.19	0.007953
2883.84	0.007953
2893.48	0.007213
2903.12	0.007433
2912.77	0.009063
2922.41	0.012313
2932.06	0.017173
2941.7	0.015153
2951.35	0.010483
2960.99	0.007693
2970.64	0.006073
2980.28	0.005543
2989.93	0.006193
2999.57	0.007573
3009.22	0.008333
3018.86	0.008863
3028.51	0.011483
3038.15	0.013273
3047.8	0.012403
3057.44	0.012583
3067.09	0.013643
3076.73	0.011573
3086.38	0.007443
3096.02	0.005503
3105.67	0.003983
3115.31	0.002533
3124.95	0.0013377
3134.6	0.0008261
3144.24	0.00053749
3153.89	0.00054348
3163.53	0.000306
3173.18	0.0006157
3182.82	0.0007528
3192.47	0.0007099
3202.11	0.00056598
3211.76	0.000427
3221.4	0.000267
3231.05	0.000319
3240.69	0.000265
3250.34	0.000239
3259.98	0
3269.63	0.000329
3279.27	0.000187
3288.92	0.0004285
3298.56	0.0004902
3308.21	0.000354
3317.85	0.000395
3327.49	0.0006194
3337.14	0.0004652
3346.78	0.0004679
3356.43	0.000521407
3366.07	0.0004538
3375.72	0.00061213
3385.36	0.00059001
3395.01	0.0007984
3404.65	0.001603
3414.3	0.002513
3423.94	0.003253
3433.59	0.003193
3443.23	0.002313
3452.88	0.001613
3462.52	0.0011181
3472.17	0.0009327
3481.81	0.0010235
3491.46	0.0004257
3501.1	0.0004283
3510.75	0.00038
3520.39	0.000252
3530.04	0.000381
3539.68	0.0004292
3549.32	0.000274
3558.97	0.000263
3568.61	0.000244
3578.26	0.000301
3587.9	0.000332
3597.55	0.000207
3607.19	0.000371
3616.84	0.000227
3626.48	0.000279
3636.13	0.000323
3645.77	0.000139
3655.42	0.0004779
3665.06	0.000336
3674.71	0.0004692
3684.35	0.0004663
3694	0.000274
3703.64	0.000373
3713.29	0.00037
3722.93	0.000358
3732.58	0.0004309
3742.22	0.0006597
3751.86	0.0007932
3761.51	0.0007338
3771.15	0.0006467
3780.8	0.0007384
3790.44	0.0010291
3800.09	0.0008048
3809.73	0.0010646
3819.38	0.0011471
3829.02	0.0012313
3838.67	0.0012283
3848.31	0.001733
3857.96	0.001663
3867.6	0.001763
3877.25	0.001993
3886.89	0.001963
3896.54	0.002383
3906.18	0.002373
3915.83	0.002373
3925.47	0.002383
3935.12	0.002533
3944.76	0.002403
3954.41	0.002533
3964.05	0.002483
3973.69	0.002463
3983.34	0.002383
3992.98	0.002233
