Infrared Spectrum: 3-(3,4-Methylendioxyphenyl)propionic acid
Formula: C 10 H 10 O 4
CAS: 2815-95-4
State: gas
Origin: EPA-IR VAPOR PHASE LIBRARY
1/CM	ABSORBANCE
549.8	0.016851
559.445	0.016251
569.09	0.016491
578.734	0.018811
588.379	0.022581
598.024	0.026671
607.669	0.025811
617.313	0.020841
626.958	0.018691
636.603	0.018801
646.248	0.016791
655.893	0.012301
665.537	0.009051
675.182	0.007591
684.827	0.007181
694.472	0.005961
704.116	0.005271
713.761	0.005681
723.406	0.004721
733.051	0.004241
742.695	0.005561
752.34	0.004781
761.985	0.004411
771.63	0.005011
781.275	0.006701
790.919	0.011211
800.564	0.022031
810.209	0.030121
819.854	0.017591
829.498	0.009071
839.143	0.007971
848.788	0.009801
858.433	0.011091
868.078	0.008121
877.722	0.005821
887.367	0.006741
897.012	0.009321
906.657	0.010471
916.301	0.012611
925.946	0.019471
935.591	0.029421
945.236	0.034301
954.88	0.023861
964.525	0.012671
974.17	0.008771
983.815	0.007901
993.46	0.008621
1003.1	0.010971
1012.75	0.015741
1022.39	0.024591
1032.04	0.039691
1041.68	0.060441
1051.33	0.068581
1060.97	0.050461
1070.62	0.032101
1080.26	0.029751
1089.91	0.041571
1099.55	0.059061
1109.2	0.085901
1118.84	0.109281
1128.49	0.083011
1138.13	0.051291
1147.78	0.036551
1157.42	0.028281
1167.07	0.026501
1176.71	0.033801
1186.36	0.055081
1196	0.057711
1205.64	0.042701
1215.29	0.042101
1224.93	0.052361
1234.58	0.088201
1244.22	0.145331
1253.87	0.099301
1263.51	0.043431
1273.16	0.023371
1282.8	0.018271
1292.45	0.016491
1302.09	0.015031
1311.74	0.014751
1321.38	0.015791
1331.03	0.017301
1340.67	0.019831
1350.32	0.026011
1359.96	0.030151
1369.61	0.027991
1379.25	0.025471
1388.9	0.020731
1398.54	0.015651
1408.18	0.013151
1417.83	0.015831
1427.47	0.026201
1437.12	0.049501
1446.76	0.062161
1456.41	0.035231
1466.05	0.024261
1475.7	0.038871
1485.34	0.106791
1494.99	0.128471
1504.63	0.061731
1514.28	0.031911
1523.92	0.012401
1533.57	0.007781
1543.21	0.005061
1552.86	0.004071
1562.5	0.003451
1572.15	0.003371
1581.79	0.003581
1591.44	0.004441
1601.08	0.005791
1610.73	0.006131
1620.37	0.004701
1630.01	0.003471
1639.66	0.002791
1649.3	0.002241
1658.95	0.002251
1668.59	0.002101
1678.24	0.002531
1687.88	0.003291
1697.53	0.004731
1707.17	0.006701
1716.82	0.009241
1726.46	0.013371
1736.11	0.020931
1745.75	0.032741
1755.4	0.049501
1765.04	0.080201
1774.69	0.117011
1784.33	0.108051
1793.98	0.064311
1803.62	0.037691
1813.27	0.022811
1822.91	0.013571
1832.55	0.009211
1842.2	0.006441
1851.84	0.004901
1861.49	0.004191
1871.13	0.003891
1880.78	0.003561
1890.42	0.003021
1900.07	0.002411
1909.71	0.002111
1919.36	0.001831
1929	0.001641
1938.65	0.001511
1948.29	0.001461
1957.94	0.001581
1967.58	0.001551
1977.23	0.001591
1986.87	0.001741
1996.52	0.001981
2006.16	0.001851
2015.81	0.001631
2025.45	0.001681
2035.1	0.001871
2044.74	0.001941
2054.38	0.001891
2064.03	0.001631
2073.67	0.001591
2083.32	0.001461
2092.96	0.0013102
2102.61	0.001164
2112.25	0.0010696
2121.9	0.0011359
2131.54	0.0011795
2141.19	0.0011788
2150.83	0.0011211
2160.48	0.0010652
2170.12	0.0011039
2179.77	0.0011313
2189.41	0.0011552
2199.06	0.0012377
2208.7	0.001317
2218.35	0.001361
2227.99	0.001361
2237.64	0.001341
2247.28	0.0013101
2256.92	0.0011919
2266.57	0.0011034
2276.21	0.0010969
2285.86	0.0011826
2295.5	0.0013
2305.15	0.001381
2314.79	0.0012706
2324.44	0.0010764
2334.08	0.0009596
2343.73	0.0011091
2353.37	0.0010725
2363.02	0.0010748
2372.66	0.0010711
2382.31	0.0010613
2391.95	0.0009229
2401.6	0.0008133
2411.24	0.0008371
2420.89	0.0009421
2430.53	0.0007915
2440.18	0.0008543
2449.82	0.0008048
2459.47	0.0008556
2469.11	0.0009262
2478.75	0.0008145
2488.4	0.0008179
2498.04	0.0008462
2507.69	0.000985
2517.33	0.0008672
2526.98	0.000932
2536.62	0.0011509
2546.27	0.0012006
2555.91	0.0011648
2565.56	0.0012686
2575.2	0.0012496
2584.85	0.001351
2594.49	0.001341
2604.14	0.001361
2613.78	0.0011696
2623.43	0.0008194
2633.07	0.0008911
2642.72	0.0009169
2652.36	0.0009784
2662.01	0.0011475
2671.65	0.001351
2681.29	0.001591
2690.94	0.001501
2700.58	0.001401
2710.23	0.001381
2719.87	0.001481
2729.52	0.001551
2739.16	0.001721
2748.81	0.002291
2758.45	0.003351
2768.1	0.006621
2777.74	0.007881
2787.39	0.003931
2797.03	0.003051
2806.68	0.003111
2816.32	0.003831
2825.97	0.004731
2835.61	0.006671
2845.26	0.008851
2854.9	0.011891
2864.55	0.018101
2874.19	0.024881
2883.84	0.025631
2893.48	0.021831
2903.12	0.021031
2912.77	0.023021
2922.41	0.025451
2932.06	0.026891
2941.7	0.026791
2951.35	0.023091
2960.99	0.018541
2970.64	0.015051
2980.28	0.011781
2989.93	0.010001
2999.57	0.009311
3009.22	0.009531
3018.86	0.011521
3028.51	0.010601
3038.15	0.010191
3047.8	0.007991
3057.44	0.006201
3067.09	0.005541
3076.73	0.005221
3086.38	0.003721
3096.02	0.002551
3105.67	0.001951
3115.31	0.001314
3124.95	0.0010989
3134.6	0.0007503
3144.24	0.00038861
3153.89	0.0004339
3163.53	0.00039735
3173.18	0.00034089
3182.82	0.00035058
3192.47	0.0002891
3202.11	0.0002298
3211.76	0.0002633
3221.4	0.00033747
3231.05	6.6e-05
3240.69	0.000125
3250.34	0.0003576
3259.98	0.0002687
3269.63	0.0002895
3279.27	0.000193
3288.92	0.00034127
3298.56	0.0002879
3308.21	0.0002933
3317.85	0.00034689
3327.49	0.0002734
3337.14	0.0001
3346.78	7.1e-05
3356.43	4e-05
3366.07	0.0002484
3375.72	0.000296
3385.36	0.000208
3395.01	0.000212
3404.65	0.000143
3414.3	0.0003916
3423.94	0.00033463
3433.59	0.0004589
3443.23	0.00037535
3452.88	0.0004387
3462.52	0.000219
3472.17	0.00033505
3481.81	0.0006632
3491.46	0.0006723
3501.1	0.0009004
3510.75	0.001421
3520.39	0.001761
3530.04	0.002361
3539.68	0.002971
3549.32	0.004321
3558.97	0.009651
3568.61	0.038501
3578.26	0.050621
3587.9	0.011611
3597.55	0.004211
3607.19	0.002301
3616.84	0.001531
3626.48	0.001341
3636.13	0.0009379
3645.77	0.0006913
3655.42	0.00037106
3665.06	0.0005014
3674.71	0.0003714
3684.35	0.00036311
3694	0.0002626
3703.64	0.0002466
3713.29	0.0003007
3722.93	0.00037965
3732.58	0.0004306
3742.22	0.00038212
3751.86	0.00036374
3761.51	0.000256
3771.15	0.0004332
3780.8	0.0004387
3790.44	0.000128
3800.09	0.00033162
3809.73	0.000287
3819.38	0.00016
3829.02	0.00038175
3838.67	0.0005328
3848.31	0.0002249
3857.96	0.000174
3867.6	0.0005644
3877.25	0.0004946
3886.89	0.0004774
3896.54	0.0002231
3906.18	0.0005646
3915.83	0.0004406
3925.47	0.0008151
3935.12	0.00037837
3944.76	0.0006237
3954.41	0.0006555
3964.05	0.0004531
3973.69	0.0005071
3983.34	0.0005333
3992.98	0.0005716
