Infrared Spectrum: 2-Chloro-4-nitrobenzonitrile
Formula: C 7 H 3 Cl N 2 O 2
CAS: 28163-00-0
State: gas
Origin: EPA-IR VAPOR PHASE LIBRARY
1/CM	ABSORBANCE
549.8	0.005342
559.445	0.0051
569.09	0.00602033
578.734	0.00453
588.379	0.00988
598.024	0.01048
607.669	0.00776
617.313	0.0071
626.958	0.005522
636.603	0.00524
646.248	0.00602757
655.893	0.00607697
665.537	0.0067914
675.182	0.0066561
684.827	0.01083
694.472	0.01533
704.116	0.01372
713.761	0.00894
723.406	0.00865
733.051	0.01339
742.695	0.01854
752.34	0.0129
761.985	0.0088
771.63	0.01112
781.275	0.02999
790.919	0.03443
800.564	0.01275
810.209	0.00794
819.854	0.005064
829.498	0.01352
839.143	0.01822
848.788	0.01191
858.433	0.00828
868.078	0.00861
877.722	0.01202
887.367	0.02388
897.012	0.02765
906.657	0.01643
916.301	0.00898
925.946	0.00776
935.591	0.006942
945.236	0.00734
954.88	0.0063697
964.525	0.0064112
974.17	0.0070084
983.815	0.0063775
993.46	0.0067723
1003.1	0.0071
1012.75	0.0069009
1022.39	0.00738
1032.04	0.00745
1041.68	0.01057
1051.33	0.01543
1060.97	0.01203
1070.62	0.00728
1080.26	0.0067184
1089.91	0.0063137
1099.55	0.005778
1109.2	0.00963
1118.84	0.01011
1128.49	0.00878
1138.13	0.01498
1147.78	0.01128
1157.42	0.0061539
1167.07	0.00416
1176.71	0.005128
1186.36	0.00417
1196	0.00338
1205.64	0.00257
1215.29	0
1224.93	0.00153
1234.58	0.00271
1244.22	0.005482
1253.87	0.0065928
1263.51	0.00999
1273.16	0.01357
1282.8	0.01429
1292.45	0.01146
1302.09	0.00903
1311.74	0.01052
1321.38	0.01375
1331.03	0.02725
1340.67	0.07674
1350.32	0.09891
1359.96	0.04026
1369.61	0.02138
1379.25	0.01945
1388.9	0.01958
1398.54	0.01497
1408.18	0.00936
1417.83	0.00912
1427.47	0.00971
1437.12	0.01093
1446.76	0.01159
1456.41	0.01154
1466.05	0.01863
1475.7	0.02337
1485.34	0.01473
1494.99	0.01381
1504.63	0.01884
1514.28	0.02582
1523.92	0.03115
1533.57	0.05183
1543.21	0.0946
1552.86	0.08938
1562.5	0.04283
1572.15	0.03082
1581.79	0.03385
1591.44	0.03033
1601.08	0.0202
1610.73	0.01369
1620.37	0.01021
1630.01	0.00943
1639.66	0.00865
1649.3	0.00816
1658.95	0.00763
1668.59	0.00732
1678.24	0.00705
1687.88	0.0063573
1697.53	0.00608535
1707.17	0.0062546
1716.82	0.00606337
1726.46	0.0061753
1736.11	0.005917
1745.75	0.00605134
1755.4	0.005769
1765.04	0.00572
1774.69	0.00604991
1784.33	0.0065469
1793.98	0.00732
1803.62	0.0065783
1813.27	0.005833
1822.91	0.0059979
1832.55	0.005757
1842.2	0.005902
1851.84	0.00595
1861.49	0.005736
1871.13	0.005799
1880.78	0.0059549
1890.42	0.0059797
1900.07	0.00606216
1909.71	0.0066918
1919.36	0.00704
1929	0.0065249
1938.65	0.0062225
1948.29	0.005995
1957.94	0.00591
1967.58	0.00583
1977.23	0.00611151
1986.87	0.0061913
1996.52	0.0061769
2006.16	0.00608596
2015.81	0.00602633
2025.45	0.00611403
2035.1	0.0059617
2044.74	0.0059384
2054.38	0.005967
2064.03	0.0061661
2073.67	0.0062614
2083.32	0.0059643
2092.96	0.0062154
2102.61	0.005999
2112.25	0.0062181
2121.9	0.0062109
2131.54	0.0062517
2141.19	0.0062838
2150.83	0.00602691
2160.48	0.00605759
2170.12	0.0061219
2179.77	0.006182
2189.41	0.005865
2199.06	0.006149
2208.7	0.005881
2218.35	0.0062667
2227.99	0.006082
2237.64	0.0063405
2247.28	0.0064928
2256.92	0.0065295
2266.57	0.0065167
2276.21	0.0062712
2285.86	0.0062999
2295.5	0.0064594
2305.15	0.0065655
2314.79	0.0064528
2324.44	0.006514
2334.08	0.0063729
2343.73	0.0062649
2353.37	0.0064466
2363.02	0.006519
2372.66	0.0067268
2382.31	0.0064798
2391.95	0.0067451
2401.6	0.0062024
2411.24	0.0064136
2420.89	0.0063071
2430.53	0.006425
2440.18	0.0064262
2449.82	0.00646
2459.47	0.0066384
2469.11	0.0061387
2478.75	0.0063501
2488.4	0.0064388
2498.04	0.0063396
2507.69	0.0063897
2517.33	0.0063899
2526.98	0.0065214
2536.62	0.0062997
2546.27	0.006729
2555.91	0.0062636
2565.56	0.0062433
2575.2	0.006383
2584.85	0.0062868
2594.49	0.00687
2604.14	0.0061612
2613.78	0.0065159
2623.43	0.0062933
2633.07	0.006506
2642.72	0.0065907
2652.36	0.0065328
2662.01	0.0067578
2671.65	0.0069467
2681.29	0.00744
2690.94	0.00741
2700.58	0.00742
2710.23	0.00714
2719.87	0.00729
2729.52	0.0069129
2739.16	0.0064044
2748.81	0.0071
2758.45	0.0066061
2768.1	0.0063216
2777.74	0.0065221
2787.39	0.0064069
2797.03	0.0064965
2806.68	0.0066753
2816.32	0.0065183
2825.97	0.00709
2835.61	0.0068506
2845.26	0.00754
2854.9	0.00748
2864.55	0.0069535
2874.19	0.00773
2883.84	0.00765
2893.48	0.00763
2903.12	0.00757
2912.77	0.0069194
2922.41	0.00752
2932.06	0.0071
2941.7	0.0067779
2951.35	0.00718
2960.99	0.0070088
2970.64	0.0065906
2980.28	0.0067607
2989.93	0.0067052
2999.57	0.0070053
3009.22	0.00609358
3018.86	0.0068077
3028.51	0.0066489
3038.15	0.0065628
3047.8	0.0067099
3057.44	0.006733
3067.09	0.0067403
3076.73	0.00753
3086.38	0.00836
3096.02	0.0112
3105.67	0.01125
3115.31	0.00948
3124.95	0.00738
3134.6	0.0064168
3144.24	0.0063172
3153.89	0.0062364
3163.53	0.006481
3173.18	0.0065989
3182.82	0.0064355
3192.47	0.0064671
3202.11	0.00606536
3211.76	0.0063396
3221.4	0.0067473
3231.05	0.00601266
3240.69	0.0061742
3250.34	0.0068076
3259.98	0.0066905
3269.63	0.005784
3279.27	0.005683
3288.92	0.006098
3298.56	0.0063159
3308.21	0.0063032
3317.85	0.005835
3327.49	0.0061948
3337.14	0.0064803
3346.78	0.0063191
3356.43	0.0065503
3366.07	0.0062995
3375.72	0.005692
3385.36	0.0064019
3395.01	0.0061598
3404.65	0.0064106
3414.3	0.0069629
3423.94	0.0065529
3433.59	0.0059664
3443.23	0.005567
3452.88	0.0067545
3462.52	0.005887
3472.17	0.0067368
3481.81	0.005874
3491.46	0.0061834
3501.1	0.0059283
3510.75	0.0063155
3520.39	0.0059993
3530.04	0.0065836
3539.68	0.00603768
3549.32	0.005911
3558.97	0.0064708
3568.61	0.0059
3578.26	0.00611785
3587.9	0.00604873
3597.55	0.005716
3607.19	0.0065636
3616.84	0.0062024
3626.48	0.0061918
3636.13	0.005484
3645.77	0.005845
3655.42	0.0064414
3665.06	0.005521
3674.71	0.006248
3684.35	0.00606694
3694	0.00574
3703.64	0.005658
3713.29	0.006227
3722.93	0.005788
3732.58	0.00602966
3742.22	0.00601679
3751.86	0.00716
3761.51	0.005559
3771.15	0.0064298
3780.8	0.0061604
3790.44	0.0059491
3800.09	0.00604676
3809.73	0.0067276
3819.38	0.0062802
3829.02	0.0066444
3838.67	0.0062664
3848.31	0.00588
3857.96	0.0059846
3867.6	0.00606855
3877.25	0.006702
3886.89	0.005722
3896.54	0.0069431
3906.18	0.0067641
3915.83	0.0065401
3925.47	0.006582
3935.12	0.00607101
3944.76	0.00728
3954.41	0.005821
3964.05	0.0064449
3973.69	0.0061626
3983.34	0.0068368
3992.98	0.0065564
