Infrared Spectrum: 2,6-Dimethylcyclohexanone
Formula: C 8 H 14 O
CAS: 2816-57-1
State: gas
Instrument: HP-GC/MS/IRD
Origin: NIST Mass Spectrometry Data Center
1/CM	ABSORBANCE
550	0.00014
562	8.5e-05
574	0.0002075
586	0.0002325
598	0.0002625
610	9.75e-05
622	8.25e-05
634	6.25e-05
646	0.00013
658	0.0001125
670	0.0001175
682	8.75e-05
694	5.5e-05
706	7.5e-05
718	0.0001
730	0.000165
742	0.0002975
754	0.00044
766	0.0003225
778	8.75e-05
790	9.75e-05
802	9.5e-05
814	0.00015
826	0.0001575
838	0.0005425
850	0.0013375
862	0.0013
874	0.0003575
886	0.0001825
898	0.000195
910	0.000215
922	0.0002875
934	0.00056
946	0.0011225
958	0.0016975
970	0.002675
982	0.0030725
994	0.0019325
1006	0.0009275
1018	0.0004025
1030	0.00042
1042	0.0005475
1054	0.00063
1066	0.0007925
1078	0.0008725
1090	0.000745
1102	0.0012025
1114	0.0026725
1126	0.00399
1138	0.0029775
1150	0.00108
1162	0.00043
1174	0.0003
1186	0.0002
1198	0.00022
1210	0.000395
1222	0.0004475
1234	0.0002875
1246	0.0002675
1258	0.00026
1270	0.000305
1282	0.000365
1294	0.0005575
1306	0.00099
1318	0.0012025
1330	0.000865
1342	0.00084
1354	0.0012775
1366	0.001745
1378	0.00235
1390	0.00206
1402	0.0008525
1414	0.000545
1426	0.00075
1438	0.001905
1450	0.00381
1462	0.0040025
1474	0.002225
1486	0.0007825
1498	0.000375
1510	0.0002575
1522	0.00022
1534	0.0002075
1546	0.0001925
1558	0.0001925
1570	0.00017
1582	0.00019
1594	0.00016
1606	0.000185
1618	0.00022
1630	0.0002625
1642	0.00033
1654	0.0004575
1666	0.0005225
1678	0.00078
1690	0.0014325
1702	0.0035975
1714	0.01088
1726	0.0173225
1738	0.01195
1750	0.0024525
1762	0.0007925
1774	0.0005325
1786	0.0003975
1798	0.0003025
1810	0.000215
1822	0.000165
1834	0.0001675
1846	0.000145
1858	0.000115
1870	8.5e-05
1882	7.25e-05
1894	4e-05
1906	7e-05
1918	6e-05
1930	4e-05
1942	7e-05
1954	4.25e-05
1966	6e-05
1978	5.25e-05
1990	8.5e-05
2002	4.75e-05
2014	2.5e-05
2026	5.75e-05
2038	5.5e-05
2050	6e-05
2062	6e-05
2074	5.5e-05
2086	5.25e-05
2098	4.75e-05
2110	7.25e-05
2122	6e-05
2134	4.75e-05
2146	2.5e-05
2158	2.25e-05
2170	5e-06
2182	2e-05
2194	6.75e-05
2206	4.25e-05
2218	5e-05
2230	1.5e-05
2242	4.5e-05
2254	5.25e-05
2266	4.5e-05
2278	5e-05
2290	5.75e-05
2302	9.25e-05
2314	6.5e-05
2326	8e-05
2338	9.5e-05
2350	9e-05
2362	7.25e-05
2374	8.5e-05
2386	8.5e-05
2398	7.5e-05
2410	5.5e-05
2422	6.5e-05
2434	5.25e-05
2446	8e-05
2458	5.5e-05
2470	8.75e-05
2482	9.25e-05
2494	8.25e-05
2506	8.5e-05
2518	6e-05
2530	8e-05
2542	8.25e-05
2554	0.00012
2566	0.0001025
2578	0.0001
2590	0.0001275
2602	9e-05
2614	0.000145
2626	0.0001325
2638	0.00018
2650	0.0002075
2662	0.00024
2674	0.0002425
2686	0.00022
2698	0.000185
2710	0.00018
2722	0.0001975
2734	0.0002575
2746	0.0003775
2758	0.00029
2770	0.0003325
2782	0.0003925
2794	0.0005125
2806	0.0006375
2818	0.0007325
2830	0.000905
2842	0.00158
2854	0.004625
2866	0.009325
2878	0.01045
2890	0.00654
2902	0.00506
2914	0.007575
2926	0.0167125
2938	0.025
2950	0.01702
2962	0.0075325
2974	0.009285
2986	0.0083325
2998	0.003815
3010	0.00116
3022	0.0005625
3034	0.0004325
3046	0.0004725
3058	0.00043
3070	0.0004275
3082	0.00039
3094	0.00036
3106	0.00033
3118	0.0002875
3130	0.0001975
3142	0.0002175
3154	0.0002375
3166	0.000225
3178	0.00025
3190	0.0001925
3202	0.0001225
3214	0.00013
3226	0.0001175
3238	8.75e-05
3250	0.0001525
3262	0.0001375
3274	0.0001225
3286	8.25e-05
3298	7e-05
3310	6.25e-05
3322	6e-05
3334	7.5e-05
3346	5.25e-05
3358	7e-05
3370	7.5e-05
3382	8.75e-05
3394	0.0001225
3406	0.0001825
3418	0.0002525
3430	0.00036
3442	0.0003175
3454	0.0001675
3466	0.0001025
3478	0.0001
3490	9e-05
3502	7.75e-05
3514	1e-05
3526	8.25e-05
3538	4.5e-05
3550	7e-05
3562	0
3574	5.5e-05
3586	6.25e-05
3598	3.75e-05
3610	4.5e-05
3622	3.25e-05
3634	4.25e-05
3646	2.75e-05
3658	5.25e-05
3670	3.75e-05
3682	2.5e-05
3694	8.75e-05
3706	7e-05
3718	0.000115
3730	8e-05
3742	3.75e-05
3754	7.5e-05
3766	0.0001
3778	9e-05
3790	8.75e-05
3802	8.75e-05
3814	6.5e-05
3826	8e-05
3838	8.75e-05
