Infrared Spectrum: 2,6-Difluorophenol
Formula: C 6 H 4 F 2 O
CAS: 28177-48-2
State: gas
Origin: EPA-IR VAPOR PHASE LIBRARY
1/CM	ABSORBANCE
549.9	0.00331
559.547	0.00379
569.193	0.00668
578.84	0.00715
588.486	0.00629
598.133	0.00407
607.779	0.00322
617.426	0.00281
627.072	0.0025978
636.719	0.00276
646.365	0.00304
656.012	0.00333
665.658	0.00364
675.305	0.00662
684.951	0.01691
694.598	0.02149
704.245	0.03037
713.891	0.01361
723.538	0.00934
733.184	0.00396
742.831	0.00532
752.477	0.0142
762.124	0.0226
771.77	0.03147
781.417	0.01858
791.063	0.00721
800.71	0.00355
810.356	0.00388
820.003	0.00606
829.649	0.0075
839.296	0.00863
848.943	0.00656
858.589	0.00373
868.236	0.0020878
877.882	0.00184247
887.529	0.0020223
897.175	0.0021983
906.822	0.0023074
916.468	0.0024123
926.115	0.00288
935.761	0.0036
945.408	0.00546
955.054	0.00798
964.701	0.02267
974.347	0.05331
983.994	0.07309
993.64	0.06268
1003.29	0.02688
1012.93	0.01145
1022.58	0.00681
1032.23	0.00536
1041.87	0.0074
1051.52	0.01028
1061.17	0.01065
1070.81	0.00671
1080.46	0.00347
1090.11	0.0025117
1099.75	0.0023368
1109.4	0.002607
1119.05	0.003
1128.69	0.00383
1138.34	0.00539
1147.99	0.00516
1157.63	0.00434
1167.28	0.0038
1176.92	0.006
1186.57	0.00968
1196.22	0.02162
1205.86	0.06618
1215.51	0.08957
1225.16	0.08857
1234.8	0.04321
1244.45	0.0485
1254.1	0.04629
1263.74	0.03768
1273.39	0.03632
1283.04	0.05369
1292.68	0.05405
1302.33	0.03663
1311.98	0.021
1321.62	0.01747
1331.27	0.01706
1340.92	0.01836
1350.56	0.01497
1360.21	0.00676
1369.86	0.0027083
1379.5	0.0020779
1389.15	0.0020341
1398.79	0.0020544
1408.44	0.0023113
1418.09	0.0026825
1427.73	0.003
1437.38	0.00369
1447.03	0.00542
1456.67	0.0122
1466.32	0.03338
1475.97	0.05758
1485.61	0.06002
1495.26	0.0568
1504.91	0.07782
1514.55	0.08256
1524.2	0.06635
1533.85	0.02006
1543.49	0.01206
1553.14	0.01223
1562.79	0.01153
1572.43	0.01061
1582.08	0.0103
1591.73	0.01527
1601.37	0.02735
1611.02	0.03457
1620.67	0.02927
1630.31	0.01448
1639.96	0.00833
1649.6	0.00497
1659.25	0.00405
1668.9	0.00325
1678.54	0.0021665
1688.19	0.00176843
1697.84	0.0019462
1707.48	0.0018964
1717.13	0.0019443
1726.78	0.0021047
1736.42	0.0023734
1746.07	0.0021558
1755.72	0.00178175
1765.36	0.001559
1775.01	0.001602
1784.66	0.001645
1794.3	0.0019646
1803.95	0.0025466
1813.6	0.00279
1823.24	0.0024843
1832.89	0.00174575
1842.54	0.00138
1852.18	0.001328
1861.83	0.001421
1871.47	0.0019216
1881.12	0.0026721
1890.77	0.0027175
1900.41	0.0023929
1910.06	0.0018855
1919.71	0.0016936
1929.35	0.001489
1939	0.001484
1948.65	0.001371
1958.29	0.001344
1967.94	0.001428
1977.59	0.001551
1987.23	0.001531
1996.88	0.001339
2006.53	0.001248
2016.17	0.001234
2025.82	0.001272
2035.47	0.001401
2045.11	0.001494
2054.76	0.001609
2064.41	0.0016
2074.05	0.001543
2083.7	0.001476
2093.35	0.001423
2102.99	0.001301
2112.64	0.001198
2122.28	0.001132
2131.93	0.001124
2141.58	0.001135
2151.22	0.001164
2160.87	0.001266
2170.52	0.001366
2180.16	0.001527
2189.81	0.00181117
2199.46	0.0020062
2209.1	0.001898
2218.75	0.001649
2228.4	0.001451
2238.04	0.001427
2247.69	0.001281
2257.34	0.001291
2266.98	0.001403
2276.63	0.001532
2286.28	0.001552
2295.92	0.001531
2305.57	0.001463
2315.22	0.001446
2324.86	0.001402
2334.51	0.001339
2344.16	0.001277
2353.8	0.001201
2363.45	0.001155
2373.09	0.001022
2382.74	0.000998
2392.39	0.00098
2402.03	0.001013
2411.68	0.001058
2421.33	0.001189
2430.97	0.001372
2440.62	0.001725
2450.27	0.0021284
2459.91	0.0024637
2469.56	0.0027392
2479.21	0.0025708
2488.85	0.00235
2498.5	0.0022929
2508.15	0.0019074
2517.79	0.001478
2527.44	0.001311
2537.09	0.00135
2546.73	0.001306
2556.38	0.001132
2566.03	0.001081
2575.67	0.000998
2585.32	0.001132
2594.96	0.001047
2604.61	0.000921
2614.26	0.000861
2623.9	0.00086
2633.55	0.000837
2643.2	0.00078
2652.84	0.00074
2662.49	0.000903
2672.14	0.000994
2681.78	0.001145
2691.43	0.001003
2701.08	0.000918
2710.72	0.000883
2720.37	0.000938
2730.02	0.000987
2739.66	0.000913
2749.31	0.000833
2758.96	0.00072
2768.6	0.00073
2778.25	0.00064
2787.9	0.00044
2797.54	0.0005
2807.19	0.00046
2816.84	0.00043
2826.48	0.00045
2836.13	0.00039
2845.77	0.00035
2855.42	0.00034
2865.07	0.00032
2874.71	0.00024
2884.36	0.00027
2894.01	0.00034
2903.65	0.00018
2913.3	0.0002
2922.95	6e-05
2932.59	0.0001
2942.24	6e-05
2951.89	7e-05
2961.53	0.00015
2971.18	5e-05
2980.83	0.00021
2990.47	0.00028
3000.12	0.00024
3009.77	0.00025
3019.41	0.00016
3029.06	0.00029
3038.71	0.00045
3048.35	0.001134
3058	0.0017336
3067.64	0.00226
3077.29	0.0027165
3086.94	0.00287
3096.58	0.0021292
3106.23	0.001427
3115.88	0.001073
3125.52	0.00045
3135.17	0.00038
3144.82	0.00028
3154.46	0.00018
3164.11	0.00031
3173.76	8e-05
3183.4	0.00033
3193.05	0.00024
3202.7	0.00014
3212.34	0.00026
3221.99	0.00029
3231.64	0.00029
3241.28	0.00048
3250.93	0.00044
3260.58	0.00061
3270.22	0.001038
3279.87	0.00067
3289.52	0.00074
3299.16	0.000824
3308.81	0.000804
3318.45	0.00072
3328.1	0.000882
3337.75	0.001111
3347.39	0.001207
3357.04	0.000947
3366.69	0.000829
3376.33	0.00094
3385.98	0.000889
3395.63	0.000786
3405.27	0.000849
3414.92	0.000867
3424.57	0.000785
3434.21	0.00071
3443.86	0.000991
3453.51	0.000948
3463.15	0.000998
3472.8	0.000966
3482.45	0.00083
3492.09	0.00078
3501.74	0.001151
3511.39	0.001033
3521.03	0.001011
3530.68	0.001131
3540.33	0.001111
3549.97	0.001303
3559.62	0.001361
3569.26	0.001436
3578.91	0.001532
3588.56	0.00199
3598.2	0.00326
3607.85	0.01026
3617.5	0.04319
3627.14	0.06006
3636.79	0.05729
3646.44	0.01568
3656.08	0.00391
3665.73	0.0022023
3675.38	0.0019211
3685.02	0.001522
3694.67	0.001487
3704.32	0.001325
3713.96	0.00136
3723.61	0.001162
3733.26	0.0014
3742.9	0.001248
3752.55	0.001352
3762.2	0.001406
3771.84	0.001213
3781.49	0.001246
3791.13	0.00127
3800.78	0.001361
3810.43	0.001222
3820.07	0.001247
3829.72	0.00138
3839.37	0.001309
3849.01	0.001336
3858.66	0.001355
3868.31	0.001513
3877.95	0.001479
3887.6	0.001528
3897.25	0.001616
3906.89	0.00183771
3916.54	0.0019566
3926.19	0.0018175
3935.83	0.001583
3945.48	0.001479
3955.13	0.001443
3964.77	0.001354
3974.42	0.001295
3984.07	0.001331
3993.71	0.001318
