Infrared Spectrum: 5-Chloro-1-ethyl-2-methylbenzimidazole
Formula: C10 H11 Cl N2
CAS: 2818-76-0
State: SOLID (SPLIT MULL)
Class: COBLENTZ III
Instrument: BECKMAN IR-9 (GRATING)
Instrument parameters: ORDER CHANGES: 670, 1200, 2000 CM^-^1
Sampling: TRANSMISSION
Resolution: 2
Origin: DOW CHEMICAL COMPANY
1/CM	TRANSMITTANCE
402	0.759
411	0.7395
420	0.7367
429	0.715
438	0.8095
447	0.8119
456	0.9049
465	0.9247
474	0.9475
483	0.9646
492	0.9763
501	0.9797
510	0.9885
519	0.9741
528	0.8285
537	0.9882
546	0.993
555	0.9845
564	0.929
573	0.9875
582	0.9995
591	0.9868
600	0.5973
609	0.9492
618	0.8802
627	0.9732
636	0.9821
645	0.9807
654	0.9755
663	0.7958
672	0.9625
681	0.9511
690	0.7518
699	0.9466
708	0.9334
717	0.877
726	0.7857
735	0.6076
744	0.8493
753	0.9097
762	0.9061
771	0.912
780	0.8048
789	0.789
798	0.4295
807	0.8491
816	0.8768
825	0.8831
834	0.8745
843	0.8735
852	0.87
861	0.849
870	0.8157
879	0.7543
888	0.7562
897	0.469
906	0.4797
915	0.4722
924	0.5733
933	0.8225
942	0.8375
951	0.8332
960	0.7918
969	0.6045
978	0.8278
987	0.8338
996	0.7941
1005	0.5519
1014	0.8198
1023	0.8234
1032	0.8058
1041	0.6489
1050	0.7249
1059	0.4414
1068	0.6891
1077	0.8325
1086	0.7072
1095	0.7974
1104	0.7486
1113	0.7848
1122	0.8083
1131	0.7989
1140	0.6969
1149	0.7654
1158	0.7554
1167	0.548
1176	0.7604
1185	0.7465
1194	0.7608
1203	0.7551
1212	0.7488
1221	0.7196
1230	0.6031
1239	0.6889
1248	0.7203
1257	0.7131
1266	0.7011
1275	0.6546
1284	0.6722
1293	0.6711
1302	0.6335
1311	0.5785
1320	0.2997
1329	0.5336
1338	0.571
1347	0.5
1356	0.5201
1365	0.5992
1374	0.6084
1383	0.5132
1392	0.4655
1401	0.3366
1410	0.5076
1419	0.6632
1428	0.596
1437	0.6109
1446	0.5287
1455	0.5249
1464	0.365
1473	0.7353
1482	0.6745
1491	0.9048
1500	0.838
1509	0.539
1518	0.5466
1527	0.8775
1536	0.9796
1545	0.974
1554	0.952
1563	0.9378
1572	0.9163
1581	0.8935
1590	0.8664
1599	0.8706
1608	0.8737
1617	0.8111
1626	0.8899
1635	0.8854
1644	0.8764
1653	0.865
1662	0.853
1671	0.8551
1680	0.8467
1689	0.8425
1698	0.8411
1707	0.8305
1716	0.8232
1725	0.8196
1734	0.8292
1743	0.8301
1752	0.8251
1761	0.8197
1770	0.8142
1779	0.8085
1788	0.8024
1797	0.7958
1806	0.79
1815	0.7954
1824	0.7921
1833	0.7861
1842	0.7793
1851	0.7832
1860	0.7953
1869	0.793
1878	0.7889
1887	0.7848
1896	0.7808
1905	0.7775
1914	0.7742
1923	0.7714
1932	0.7684
1941	0.7653
1950	0.7621
1959	0.7601
1968	0.7584
1977	0.7564
1986	0.7542
1995	0.75
2004	0.7375
2013	0.7472
2022	0.7475
2031	0.7453
2040	0.7424
2049	0.7386
2058	0.7348
2067	0.7308
2076	0.7268
2085	0.7236
2094	0.7204
2103	0.7161
2112	0.7119
2121	0.7076
2130	0.7033
2139	0.699
2148	0.6946
2157	0.6901
2166	0.6857
2175	0.6812
2184	0.6765
2193	0.671
2202	0.6655
2211	0.6601
2220	0.6544
2229	0.6486
2238	0.6428
2247	0.6377
2256	0.6326
2265	0.6276
2274	0.6235
2283	0.6194
2292	0.6154
2301	0.6112
2310	0.6085
2319	0.6064
2328	0.6069
2337	0.6073
2346	0.6077
2355	0.6085
2364	0.6105
2373	0.6138
2382	0.6156
2391	0.6021
2400	0.5959
2409	0.5948
2418	0.5937
2427	0.5926
2436	0.5912
2445	0.5895
2454	0.5879
2463	0.5862
2472	0.5845
2481	0.5827
2490	0.581
2499	0.5793
2508	0.5779
2517	0.5764
2526	0.575
2535	0.5729
2544	0.571
2553	0.5689
2562	0.567
2571	0.5649
2580	0.563
2589	0.5609
2598	0.5589
2607	0.5569
2616	0.555
2625	0.5533
2634	0.5515
2643	0.5498
2652	0.5481
2661	0.5462
2670	0.544
2679	0.5416
2688	0.5394
2697	0.537
2706	0.5346
2715	0.5322
2724	0.5298
2733	0.5273
2742	0.5249
2751	0.522
2760	0.5191
2769	0.516
2778	0.5131
2787	0.5101
2796	0.5072
2805	0.5044
2814	0.5016
2823	0.4988
2832	0.4959
2841	0.4925
2850	0.4891
2859	0.4838
2868	0.477
2877	0.4655
2886	0.4583
2895	0.468
2904	0.4683
2913	0.4624
2922	0.4551
2931	0.445
2940	0.4377
2949	0.4503
2958	0.4653
2967	0.4484
2976	0.4247
2985	0.4197
2994	0.4783
3003	0.4779
3012	0.4756
3021	0.4633
3030	0.4509
3039	0.4418
3048	0.448
3057	0.4521
3066	0.466
3075	0.4768
3084	0.4754
3093	0.4728
3102	0.4704
3111	0.4685
3120	0.4668
3129	0.4651
3138	0.4633
3147	0.4612
3156	0.459
3165	0.4566
3174	0.4543
3183	0.4517
3192	0.449
3201	0.4462
3210	0.4436
3219	0.4409
3228	0.4389
3237	0.437
3246	0.435
3255	0.4331
3264	0.431
3273	0.4294
3282	0.4279
3291	0.4262
3300	0.4248
3309	0.4232
3318	0.4217
3327	0.4202
3336	0.4188
3345	0.4174
3354	0.416
3363	0.4146
3372	0.4133
3381	0.4118
3390	0.4105
3399	0.4089
3408	0.4072
3417	0.4054
3426	0.4037
3435	0.4018
3444	0.4002
3453	0.3984
3462	0.3966
3471	0.395
3480	0.3937
3489	0.3923
3498	0.3909
3507	0.3897
3516	0.3884
3525	0.387
3534	0.3859
3543	0.3848
3552	0.3838
3561	0.3828
3570	0.3818
3579	0.3807
3588	0.3797
3597	0.3786
3606	0.3776
3615	0.3762
3624	0.3749
3633	0.3734
3642	0.3722
3651	0.3709
3660	0.3696
3669	0.3686
3678	0.3676
3687	0.3666
3696	0.3657
3705	0.3648
3714	0.3638
3723	0.3625
3732	0.3612
3741	0.3599
3750	0.3587
3759	0.3572
3768	0.3556
3777	0.354
3786	0.3524
3795	0.3508
