Infrared Spectrum: m-Cyanobenzyl bromide
Formula: C 8 H 6 Br N
CAS: 28188-41-2
State: gas
Origin: EPA-IR VAPOR PHASE LIBRARY
1/CM	ABSORBANCE
551.7	0.0040203
563.274	0.0068903
574.848	0.0158103
586.421	0.0081303
597.995	0.0027503
609.569	0.0020903
621.143	0.0021503
632.717	0.0026003
644.291	0.0063403
655.864	0.0091003
667.438	0.0072403
679.012	0.0172403
690.586	0.0279703
702.16	0.0129203
713.734	0.0071603
725.307	0.0041303
736.881	0.0020603
748.455	0.0018603
760.029	0.0022303
771.603	0.0046003
783.177	0.0124903
794.75	0.0165003
806.324	0.0067003
817.898	0.0021503
829.472	0.0012503
841.046	0.0010172
852.619	0.0009462
864.193	0.0011303
875.767	0.0017703
887.341	0.0033703
898.915	0.0066903
910.489	0.0058203
922.062	0.0035703
933.636	0.0018803
945.21	0.001048
956.784	0.0006121
968.358	0.0004595
979.932	0.0005797
991.505	0.0007102
1003.08	0.0006906
1014.65	0.000651
1026.23	0.0005018
1037.8	0.0006625
1049.37	0.0007324
1060.95	0.0012903
1072.52	0.0016303
1084.1	0.0029803
1095.67	0.0029403
1107.24	0.0016203
1118.82	0.0017203
1130.39	0.0015503
1141.97	0.0022003
1153.54	0.0028903
1165.11	0.0020603
1176.69	0.0025803
1188.26	0.0029703
1199.83	0.0083303
1211.41	0.0224503
1222.98	0.0139203
1234.56	0.0075903
1246.13	0.0085403
1257.7	0.0068903
1269.28	0.0045103
1280.85	0.0034603
1292.42	0.0029203
1304	0.0021703
1315.57	0.0017203
1327.15	0.0008648
1338.72	0.0006966
1350.29	0.0007538
1361.87	0.0007232
1373.44	0.0006294
1385.02	0.0007593
1396.59	0.0012603
1408.16	0.0023303
1419.74	0.0040903
1431.31	0.0062003
1442.88	0.0053203
1454.46	0.0035403
1466.03	0.0036103
1477.61	0.0083903
1489.18	0.0083903
1500.75	0.0019003
1512.33	0.0009126
1523.9	0.0006903
1535.48	0.0007539
1547.05	0.0008654
1558.62	0.0012903
1570.2	0.0024303
1581.77	0.0041403
1593.34	0.0042703
1604.92	0.0036503
1616.49	0.0021503
1628.07	0.001013
1639.64	0.0006226
1651.21	0.0004779
1662.79	0.0004828
1674.36	0.0004682
1685.93	0.0006409
1697.51	0.0014203
1709.08	0.0019803
1720.66	0.0009755
1732.23	0.0006477
1743.8	0.0006421
1755.38	0.0007718
1766.95	0.0009462
1778.53	0.0011403
1790.1	0.0012403
1801.67	0.0011603
1813.25	0.0011103
1824.82	0.0012103
1836.39	0.0011203
1847.97	0.0007333
1859.54	0.0005819
1871.12	0.0007454
1882.69	0.0015503
1894.26	0.0016503
1905.84	0.0006118
1917.41	0.0004259
1928.99	0.0005216
1940.56	0.0010903
1952.13	0.0013903
1963.71	0.0007046
1975.28	0.000432
1986.85	0.0004036
1998.43	0.0003549
2010	0.0003141
2021.58	0.0002637
2033.15	0.0002274
2044.72	0.0002661
2056.3	0.0002118
2067.87	0.0002119
2079.44	0.0002299
2091.02	0.0002928
2102.59	0.0002507
2114.17	0.0001865
2125.74	0.0002178
2137.31	0.0001806
2148.89	0.0002236
2160.46	0.0002165
2172.04	0.0002619
2183.61	0.0002591
2195.18	0.000282
2206.76	0.0004923
2218.33	0.0013103
2229.9	0.0044003
2241.48	0.0045803
2253.05	0.0010088
2264.63	0.0005321
2276.2	0.0004206
2287.77	0.0004976
2299.35	0.000476
2310.92	0.0004599
2322.5	0.0004105
2334.07	0.0004295
2345.64	0.0004942
2357.22	0.0004288
2368.79	0.0004286
2380.36	0.0003992
2391.94	0.0003903
2403.51	0.0004043
2415.09	0.0004282
2426.66	0.0003894
2438.23	0.0003084
2449.81	0.0002704
2461.38	0.0002678
2472.96	0.0002871
2484.53	0.0002641
2496.1	0.0002388
2507.68	0.0002756
2519.25	0.0002313
2530.82	0.0002109
2542.4	0.0002397
2553.97	0.0002003
2565.55	0.000259
2577.12	0.0002787
2588.69	0.0002758
2600.27	0.0003708
2611.84	0.0003642
2623.41	0.000206
2634.99	0.0002785
2646.56	0.0003281
2658.14	0.0004312
2669.71	0.0004285
2681.28	0.0003624
2692.86	0.0003306
2704.43	0.0002643
2716.01	0.0001758
2727.58	0.00010854
2739.15	0.0001686
2750.73	0.00011248
2762.3	0.00013337
2773.87	0.0002022
2785.45	0.0002117
2797.02	0.0002098
2808.6	0.0003098
2820.17	0.0003045
2831.74	0.0004089
2843.32	0.0005581
2854.89	0.0006129
2866.47	0.0006817
2878.04	0.0005545
2889.61	0.0004797
2901.19	0.0003796
2912.76	0.000309
2924.33	0.0003048
2935.91	0.0005295
2947.48	0.0011203
2959.06	0.0017803
2970.63	0.0030903
2982.2	0.0041403
2993.78	0.0023803
3005.35	0.0014703
3016.92	0.0016403
3028.5	0.0023803
3040.07	0.0032503
3051.65	0.0036603
3063.22	0.0041303
3074.79	0.0046603
3086.37	0.0042003
3097.94	0.0026003
3109.52	0.0017703
3121.09	0.000792
3132.66	0.0003424
3144.24	0.0002462
3155.81	0.0002592
3167.38	0.0003208
3178.96	0.000287
3190.53	0.0002612
3202.11	0.00014983
3213.68	2.98e-05
3225.25	5.9827e-05
3236.83	6.156e-05
3248.4	5.9494e-05
3259.98	0.0001793
3271.55	0.00010355
3283.12	0
3294.7	1.98e-05
3306.27	4.02e-05
3317.84	4.9919e-05
3329.42	0.00010118
3340.99	0.0001745
3352.57	0.0001804
3364.14	0.0001659
3375.71	0.000258
3387.29	0.0002118
3398.86	0.0001584
3410.43	0.00011643
3422.01	5.3424e-05
3433.58	0.0001635
3445.16	0.0002788
3456.73	0.0002454
3468.3	0.0001934
3479.88	0.0002629
3491.45	0.0002818
3503.03	0.0002119
3514.6	9.82e-05
3526.17	0.0001556
3537.75	0.0001565
3549.32	0.00012595
3560.89	8.505e-05
3572.47	9.321e-05
3584.04	0.00012278
3595.62	0.0001594
3607.19	0.0001754
3618.76	0.0002396
3630.34	0.0001885
3641.91	0.00014299
3653.49	0.00014362
3665.06	0.0001744
3676.63	0.00012471
3688.21	0.0002143
3699.78	0.0001809
3711.35	0.00010616
3722.93	0.0001875
3734.5	0.00011211
3746.08	0.00013904
3757.65	0.00013463
3769.22	0.000232
3780.8	0.000229
3792.37	0.0001903
3803.94	0.0001227
3815.52	0.0001616
3827.09	0.0002243
3838.67	0.0002085
3850.24	0.0002749
3861.81	0.0001547
3873.39	0.0001903
3884.96	0.00013874
3896.54	0.0001634
3908.11	0.0001596
3919.68	0.0002313
3931.26	0.0001791
3942.83	0.00012568
3954.4	8.698e-05
3965.98	0.00014518
3977.55	0.0001531
3989.13	0.0001788
4000.7	0.00012563
