Infrared Spectrum: 2,5-Dimethylbenzselenazole
Formula: C 9 H 9 N Se
CAS: 2818-89-5
State: gas
Origin: EPA-IR VAPOR PHASE LIBRARY
1/CM	ABSORBANCE
549.8	0.020552
559.445	0.020912
569.09	0.012232
578.734	0.008952
588.379	0.011532
598.024	0.014642
607.669	0.012392
617.313	0.006392
626.958	0.002112
636.603	0.0010393
646.248	0.0010289
655.893	0.001922
665.537	0.010322
675.182	0.011562
684.827	0.002412
694.472	0.001712
704.116	0.002352
713.761	0.002152
723.406	0.001952
733.051	0.002282
742.695	0.002962
752.34	0.007552
761.985	0.010692
771.63	0.009252
781.275	0.021322
790.919	0.050122
800.564	0.040072
810.209	0.015322
819.854	0.003492
829.498	0.002572
839.143	0.003102
848.788	0.003442
858.433	0.004992
868.078	0.012502
877.722	0.022802
887.367	0.011262
897.012	0.005312
906.657	0.007622
916.301	0.013592
925.946	0.017292
935.591	0.011182
945.236	0.006192
954.88	0.007742
964.525	0.010742
974.17	0.014192
983.815	0.014602
993.46	0.012462
1003.1	0.013152
1012.75	0.011972
1022.39	0.010922
1032.04	0.020272
1041.68	0.035142
1051.33	0.022442
1060.97	0.011042
1070.62	0.007272
1080.26	0.008102
1089.91	0.007782
1099.55	0.008902
1109.2	0.010682
1118.84	0.013512
1128.49	0.024572
1138.13	0.062282
1147.78	0.123392
1157.42	0.116392
1167.07	0.050022
1176.71	0.016202
1186.36	0.007792
1196	0.004992
1205.64	0.003752
1215.29	0.004232
1224.93	0.004492
1234.58	0.005822
1244.22	0.012992
1253.87	0.010872
1263.51	0.008202
1273.16	0.011932
1282.8	0.017792
1292.45	0.020632
1302.09	0.014302
1311.74	0.007272
1321.38	0.005822
1331.03	0.005552
1340.67	0.005962
1350.32	0.006882
1359.96	0.008702
1369.61	0.011742
1379.25	0.013182
1388.9	0.010882
1398.54	0.013992
1408.18	0.026352
1417.83	0.032122
1427.47	0.025442
1437.12	0.032752
1446.76	0.054252
1456.41	0.051462
1466.05	0.022402
1475.7	0.014522
1485.34	0.013572
1494.99	0.014782
1504.63	0.018742
1514.28	0.026492
1523.92	0.038632
1533.57	0.057852
1543.21	0.082902
1552.86	0.106302
1562.5	0.079342
1572.15	0.028962
1581.79	0.016232
1591.44	0.012322
1601.08	0.009192
1610.73	0.005222
1620.37	0.004052
1630.01	0.002912
1639.66	0.002622
1649.3	0.002732
1658.95	0.002862
1668.59	0.002552
1678.24	0.002522
1687.88	0.002152
1697.53	0.002172
1707.17	0.002342
1716.82	0.004152
1726.46	0.005622
1736.11	0.004602
1745.75	0.004152
1755.4	0.003562
1765.04	0.002212
1774.69	0.0013862
1784.33	0.0014771
1793.98	0.001692
1803.62	0.002292
1813.27	0.002912
1822.91	0.002752
1832.55	0.001942
1842.2	0.002052
1851.84	0.002422
1861.49	0.003822
1871.13	0.004762
1880.78	0.003582
1890.42	0.002002
1900.07	0.0016164
1909.71	0.0015877
1919.36	0.0015061
1929	0.0014008
1938.65	0.0011259
1948.29	0.0013057
1957.94	0.0011844
1967.58	0.0012899
1977.23	0.0014245
1986.87	0.0014498
1996.52	0.0013805
2006.16	0.0015204
2015.81	0.0011875
2025.45	0.0012878
2035.1	0.0012277
2044.74	0.0010979
2054.38	0.0012079
2064.03	0.0012288
2073.67	0.0011709
2083.32	0.001268
2092.96	0.0011766
2102.61	0.0012429
2112.25	0.0013217
2121.9	0.0012783
2131.54	0.0015409
2141.19	0.0013723
2150.83	0.0014702
2160.48	0.0011698
2170.12	0.0012358
2179.77	0.0011628
2189.41	0.001355
2199.06	0.0013003
2208.7	0.0011783
2218.35	0.0011684
2227.99	0.0009536
2237.64	0.0008074
2247.28	0.0010175
2256.92	0.0010299
2266.57	0.0009832
2276.21	0.0012992
2285.86	0.001722
2295.5	0.001842
2305.15	0.001892
2314.79	0.001692
2324.44	0.0013959
2334.08	0.0014034
2343.73	0.0012545
2353.37	0.0015106
2363.02	0.0016443
2372.66	0.001712
2382.31	0.0016357
2391.95	0.002002
2401.6	0.002092
2411.24	0.002012
2420.89	0.002372
2430.53	0.002152
2440.18	0.001902
2449.82	0.001872
2459.47	0.002202
2469.11	0.001932
2478.75	0.001862
2488.4	0.002152
2498.04	0.001852
2507.69	0.002122
2517.33	0.002382
2526.98	0.002412
2536.62	0.002362
2546.27	0.001842
2555.91	0.001732
2565.56	0.001942
2575.2	0.001872
2584.85	0.001732
2594.49	0.001802
2604.14	0.0016564
2613.78	0.0016528
2623.43	0.0013689
2633.07	0.0015119
2642.72	0.0012337
2652.36	0.0015511
2662.01	0.0014748
2671.65	0.0016522
2681.29	0.001692
2690.94	0.001892
2700.58	0.001852
2710.23	0.0015502
2719.87	0.002102
2729.52	0.002442
2739.16	0.003082
2748.81	0.003152
2758.45	0.002212
2768.1	0.001842
2777.74	0.002022
2787.39	0.0016611
2797.03	0.002432
2806.68	0.002572
2816.32	0.003602
2825.97	0.004132
2835.61	0.005602
2845.26	0.008322
2854.9	0.014062
2864.55	0.019402
2874.19	0.023562
2883.84	0.022232
2893.48	0.020202
2903.12	0.019802
2912.77	0.023962
2922.41	0.040792
2932.06	0.069802
2941.7	0.052902
2951.35	0.023312
2960.99	0.017592
2970.64	0.017442
2980.28	0.016272
2989.93	0.016472
2999.57	0.018862
3009.22	0.020692
3018.86	0.019552
3028.51	0.023262
3038.15	0.025642
3047.8	0.028452
3057.44	0.032082
3067.09	0.027282
3076.73	0.021222
3086.38	0.015292
3096.02	0.008462
3105.67	0.004872
3115.31	0.003892
3124.95	0.002722
3134.6	0.002062
3144.24	0.001812
3153.89	0.002332
3163.53	0.001772
3173.18	0.001852
3182.82	0.0015462
3192.47	0.0013697
3202.11	0.0013366
3211.76	0.0011181
3221.4	0.001446
3231.05	0.0014023
3240.69	0.0010815
3250.34	0.0011671
3259.98	0.0012892
3269.63	0.0009766
3279.27	0.0013959
3288.92	0.0013312
3298.56	0.0005826
3308.21	0.0008868
3317.85	0.000502
3327.49	0.0011031
3337.14	0.0013237
3346.78	0.0009492
3356.43	0.0008328
3366.07	0.0012109
3375.72	0.0013187
3385.36	0.0015816
3395.01	0.001341
3404.65	0.000497
3414.3	0.0010151
3423.94	0.0008964
3433.59	0.0012506
3443.23	0.00076382
3452.88	0.0015233
3462.52	0.0011613
3472.17	0.0008169
3481.81	0.000412
3491.46	0.0008624
3501.1	0.0011249
3510.75	0.000374
3520.39	0.0011023
3530.04	0.000395
3539.68	0.000959
3549.32	0.00077429
3558.97	0.0010907
3568.61	0.0010658
3578.26	0.0011726
3587.9	0.0006314
3597.55	0.0011783
3607.19	0.0005824
3616.84	0.000604
3626.48	0.00070767
3636.13	0.0011514
3645.77	0.0011573
3655.42	0.0008497
3665.06	0.00073554
3674.71	0.0011598
3684.35	0.0014098
3694	0.0011405
3703.64	0.0009952
3713.29	0.0010805
3722.93	0.0010214
3732.58	0.0009881
3742.22	0.0011135
3751.86	0.0013853
3761.51	0.0012903
3771.15	0.0012612
3780.8	0.0012133
3790.44	0.0010407
3800.09	0.0006311
3809.73	0.0013814
3819.38	0.0013051
3829.02	0.0008911
3838.67	0.001812
3848.31	0.00075491
3857.96	0.0013421
3867.6	0.0008741
3877.25	0.0009436
3886.89	0.0009286
3896.54	0.0010529
3906.18	0.0014634
3915.83	0.0012447
3925.47	0.0009949
3935.12	0.0011408
3944.76	0.001151
3954.41	0.0015745
3964.05	0.0014149
3973.69	0.001832
3983.34	0.001155
3992.98	0.0015208
