Infrared Spectrum: 5-AMINO-2-BENZIMIDAZOLETHIOL
Formula: C7 H7 N3 S
CAS: 2818-66-8
State: SOLID (OIL MULL)
Melting point: 243.5-244.5 C
Class: COBLENTZ
Instrument: Not specified, most likely a prism, grating, or hybrid spectrometer.
Sampling: TRANSMISSION
Resolution: 4
Origin: WYANDOTTE CHEMICALS CORP., WYANDOTTE, MICHIGAN, USA
MICROMETERS	TRANSMITTANCE
2.031	0.24
2.07081	0.243
2.11063	0.251
2.15044	0.256
2.19026	0.261
2.23007	0.263
2.26989	0.266
2.3097	0.27
2.34951	0.271
2.38933	0.283
2.42914	0.291
2.46896	0.3
2.50877	0.311
2.54859	0.318
2.5884	0.333
2.62821	0.345
2.66803	0.36
2.70784	0.368
2.74766	0.385
2.78747	0.398
2.82729	0.4
2.8671	0.415
2.90692	0.43
2.94673	0.431
2.98654	0.328
3.02636	0.203
3.06617	0.165
3.10599	0.093
3.1458	0.05
3.18562	0.051
3.22543	0.063
3.26524	0.068
3.30506	0.065
3.34487	0.026
3.38469	0.018
3.4245	0.013
3.46432	0.016
3.50413	0.025
3.54394	0.07
3.58376	0.116
3.62357	0.111
3.66339	0.123
3.7032	0.123
3.74302	0.138
3.78283	0.153
3.82264	0.171
3.86246	0.18
3.90227	0.181
3.94209	0.198
3.9819	0.228
4.02172	0.266
4.06153	0.28
4.10134	0.285
4.14116	0.3
4.18097	0.326
4.22079	0.353
4.2606	0.356
4.30042	0.363
4.34023	0.373
4.38005	0.411
4.41986	0.448
4.45967	0.465
4.49949	0.473
4.5393	0.48
4.57912	0.495
4.61893	0.505
4.65875	0.518
4.69856	0.525
4.73837	0.541
4.77819	0.546
4.818	0.561
4.85782	0.571
4.89763	0.58
4.93745	0.583
4.97726	0.588
5.01707	0.595
5.05689	0.603
5.0967	0.613
5.13652	0.631
5.17633	0.643
5.21615	0.645
5.25596	0.648
5.29577	0.671
5.33559	0.685
5.3754	0.69
5.41522	0.678
5.45503	0.666
5.49485	0.666
5.53466	0.713
5.57448	0.726
5.61429	0.74
5.6541	0.741
5.69392	0.731
5.73373	0.725
5.77355	0.75
5.81336	0.753
5.85318	0.758
5.89299	0.771
5.9328	0.79
5.97262	0.813
6.01243	0.833
6.05225	0.603
6.09206	0.228
6.13188	0.205
6.17169	0.366
6.2115	0.478
6.25132	0.57
6.29113	0.66
6.33095	0.738
6.37076	0.783
6.41058	0.86
6.45039	0.856
6.4902	0.625
6.53002	0.548
6.56983	0.598
6.60965	0.28
6.64946	0.038
6.68928	0.14
6.72909	0.166
6.7689	0.011
6.80872	0.03
6.84853	0.036
6.88835	0.093
6.92816	0.193
6.96798	0.371
7.00779	0.445
7.04761	0.526
7.08742	0.485
7.12723	0.251
7.16705	0.098
7.20686	0.168
7.24668	0.153
7.28649	0.075
7.32631	0.03
7.36612	0.045
7.40593	0.121
7.44575	0.2
7.48556	0.285
7.52538	0.35
7.56519	0.396
7.60501	0.416
7.64482	0.391
7.68463	0.398
7.72445	0.491
7.76426	0.561
7.80408	0.506
7.84389	0.398
7.88371	0.546
7.92352	0.628
7.96333	0.685
8.00315	0.72
8.04296	0.733
8.08278	0.723
8.12259	0.545
8.16241	0.423
8.20222	0.596
8.24203	0.586
8.28185	0.348
8.32166	0.061
8.36148	0.048
8.40129	0.116
8.44111	0.176
8.48092	0.215
8.52074	0.075
8.56055	0.128
8.60036	0.228
8.64018	0.328
8.67999	0.438
8.71981	0.518
8.75962	0.548
8.79944	0.39
8.83925	0.415
8.87906	0.491
8.91888	0.463
8.95869	0.515
8.99851	0.585
9.03832	0.655
9.07814	0.698
9.11795	0.711
9.15776	0.731
9.19758	0.746
9.23739	0.756
9.27721	0.771
9.31702	0.778
9.35684	0.785
9.39665	0.783
9.43646	0.781
9.47628	0.791
9.51609	0.806
9.55591	0.821
9.59572	0.84
9.63554	0.856
9.67535	0.868
9.71516	0.878
9.75498	0.893
9.79479	0.901
9.83461	0.913
9.87442	0.926
9.91424	0.931
9.95405	0.943
9.99387	0.95
10.0337	0.956
10.0735	0.966
10.1133	0.948
10.1531	0.871
10.1929	0.776
10.2328	0.738
10.2726	0.753
10.3124	0.808
10.3522	0.833
10.392	0.833
10.4318	0.783
10.4716	0.665
10.5115	0.571
10.5513	0.69
10.5911	0.775
10.6309	0.805
10.6707	0.815
10.7105	0.783
10.7503	0.75
10.7902	0.655
10.83	0.565
10.8698	0.448
10.9096	0.56
10.9494	0.595
10.9892	0.556
11.029	0.468
11.0689	0.393
11.1087	0.34
11.1485	0.293
11.1883	0.256
11.2281	0.245
11.2679	0.223
11.3077	0.2
11.3476	0.191
11.3874	0.171
11.4272	0.148
11.467	0.146
11.5068	0.146
11.5466	0.163
11.5864	0.173
11.6263	0.178
11.6661	0.151
11.7059	0.113
11.7457	0.096
11.7855	0.121
11.8253	0.155
11.8651	0.188
11.905	0.171
11.9448	0.146
11.9846	0.173
12.0244	0.258
12.0642	0.321
12.104	0.346
12.1438	0.345
12.1837	0.338
12.2235	0.33
12.2633	0.31
12.3031	0.266
12.3429	0.201
12.3827	0.158
12.4225	0.128
12.4624	0.116
12.5022	0.143
12.542	0.255
12.5818	0.375
12.6216	0.423
12.6614	0.453
12.7012	0.458
12.7411	0.441
12.7809	0.45
12.8207	0.495
12.8605	0.541
12.9003	0.561
12.9401	0.498
12.9799	0.37
13.0198	0.316
13.0596	0.331
13.0994	0.405
13.1392	0.455
13.179	0.465
13.2188	0.463
13.2586	0.46
13.2985	0.431
13.3383	0.401
13.3781	0.376
13.4179	0.36
13.4577	0.38
13.4975	0.428
13.5373	0.475
13.5772	0.476
13.617	0.436
13.6568	0.398
13.6966	0.363
13.7364	0.341
13.7762	0.331
13.816	0.331
13.8559	0.333
13.8957	0.34
13.9355	0.348
13.9753	0.366
14.0151	0.383
14.0549	0.395
14.0947	0.403
14.1346	0.418
14.1744	0.426
14.2142	0.428
14.254	0.428
14.2938	0.428
14.3336	0.428
14.3734	0.428
14.4133	0.428
14.4531	0.43
14.4929	0.435
14.5327	0.438
14.5725	0.441
14.6123	0.446
14.6521	0.453
14.692	0.458
14.7318	0.481
14.7716	0.513
14.8114	0.54
14.8512	0.57
14.891	0.575
14.9308	0.543
14.9707	0.5
15.0105	0.475
15.0503	0.45
15.0901	0.433
15.1299	0.426
15.1697	0.418
15.2095	0.411
15.2494	0.395
15.2892	0.385
15.329	0.373
15.3688	0.363
15.4086	0.363
15.4484	0.361
15.4882	0.356
15.5281	0.351
15.5679	0.345
15.6077	0.341
15.6475	0.336
15.6873	0.333
15.7271	0.328
15.7669	0.326
15.8068	0.333
15.8466	0.335
15.8864	0.353
15.9262	0.366
15.966	0.366
16.0058	0.356
