Infrared Spectrum: BENZHYDRYL PYRAZINE
Formula: C17 H14 N2
CAS: 28217-87-0
State: SOLID (MINERAL OIL MULL)
Melting point: 109-110 C
Class: COBLENTZ
Instrument: Not specified, most likely a prism, grating, or hybrid spectrometer.
Sampling: TRANSMISSION
Resolution: 4
Origin: WYANDOTTE CHEMICALS CORP., WYANDOTTE, MICHIGAN, USA
MICROMETERS	TRANSMITTANCE
2.102	0.353
2.14296	0.341
2.18391	0.353
2.22487	0.352
2.26583	0.367
2.30678	0.37
2.34774	0.381
2.3887	0.388
2.42965	0.381
2.47061	0.411
2.51157	0.411
2.55252	0.423
2.59348	0.43
2.63444	0.437
2.67539	0.451
2.71635	0.451
2.75731	0.459
2.79827	0.466
2.83922	0.464
2.88018	0.461
2.92114	0.461
2.96209	0.459
3.00305	0.463
3.04401	0.463
3.08496	0.478
3.12592	0.478
3.16688	0.476
3.20783	0.461
3.24879	0.423
3.28975	0.309
3.3307	0.285
3.37166	0.177
3.41262	0.044
3.45357	0.046
3.49453	0.15
3.53549	0.133
3.57644	0.589
3.6174	0.62
3.65836	0.637
3.69931	0.634
3.74027	0.639
3.78123	0.641
3.82218	0.642
3.86314	0.659
3.9041	0.663
3.94506	0.678
3.98601	0.682
4.02697	0.687
4.06793	0.692
4.10888	0.694
4.14984	0.702
4.1908	0.7
4.23175	0.714
4.27271	0.697
4.31367	0.685
4.35462	0.699
4.39558	0.731
4.43654	0.748
4.47749	0.745
4.51845	0.748
4.55941	0.758
4.60036	0.757
4.64132	0.767
4.68228	0.769
4.72323	0.781
4.76419	0.782
4.80515	0.791
4.8461	0.791
4.88706	0.798
4.92802	0.798
4.96897	0.8
5.00993	0.8
5.05089	0.803
5.09184	0.8
5.1328	0.772
5.17376	0.726
5.21472	0.75
5.25567	0.798
5.29663	0.762
5.33759	0.76
5.37854	0.798
5.4195	0.815
5.46046	0.801
5.50141	0.805
5.54237	0.786
5.58333	0.788
5.62428	0.813
5.66524	0.788
5.7062	0.805
5.74715	0.829
5.78811	0.844
5.82907	0.827
5.87002	0.835
5.91098	0.844
5.95194	0.822
5.99289	0.815
6.03385	0.793
6.07481	0.818
6.11576	0.82
6.15672	0.8
6.19768	0.757
6.23863	0.545
6.27959	0.682
6.32055	0.76
6.3615	0.829
6.40246	0.822
6.44342	0.793
6.48438	0.798
6.52533	0.782
6.56629	0.641
6.60725	0.758
6.6482	0.482
6.68916	0.181
6.73012	0.523
6.77107	0.287
6.81203	0.285
6.85299	0.208
6.89394	0.252
6.9349	0.547
6.97586	0.702
7.01681	0.76
7.05777	0.664
7.09873	0.423
7.13968	0.076
7.18064	0.432
7.2216	0.519
7.26255	0.43
7.30351	0.606
7.34447	0.711
7.38542	0.758
7.42638	0.702
7.46734	0.75
7.50829	0.782
7.54925	0.731
7.59021	0.524
7.63117	0.724
7.67212	0.75
7.71308	0.765
7.75404	0.8
7.79499	0.815
7.83595	0.832
7.87691	0.842
7.91786	0.788
7.95882	0.796
7.99978	0.786
8.04073	0.656
8.08169	0.675
8.12265	0.808
8.1636	0.801
8.20456	0.608
8.24552	0.516
8.28647	0.789
8.32743	0.815
8.36839	0.796
8.40934	0.692
8.4503	0.731
8.49126	0.719
8.53221	0.683
8.57317	0.692
8.61413	0.562
8.65508	0.588
8.69604	0.649
8.737	0.61
8.77795	0.314
8.81891	0.386
8.85987	0.647
8.90083	0.743
8.94178	0.758
8.98274	0.77
9.0237	0.779
9.06465	0.784
9.10561	0.782
9.14657	0.753
9.18752	0.687
9.22848	0.543
9.26944	0.473
9.31039	0.668
9.35135	0.748
9.39231	0.731
9.43326	0.437
9.47422	0.249
9.51518	0.623
9.55613	0.726
9.59709	0.767
9.63805	0.755
9.679	0.526
9.71996	0.517
9.76092	0.639
9.80187	0.442
9.84283	0.124
9.88379	0.576
9.92474	0.724
9.9657	0.687
10.0067	0.76
10.0476	0.852
10.0886	0.851
10.1295	0.864
10.1705	0.868
10.2114	0.849
10.2524	0.835
10.2934	0.726
10.3343	0.83
10.3753	0.846
10.4162	0.892
10.4572	0.897
10.4981	0.904
10.5391	0.907
10.5801	0.882
10.621	0.852
10.662	0.899
10.7029	0.911
10.7439	0.909
10.7848	0.904
10.8258	0.83
10.8668	0.81
10.9077	0.842
10.9487	0.885
10.9896	0.924
11.0306	0.931
11.0715	0.94
11.1125	0.948
11.1534	0.952
11.1944	0.957
11.2354	0.957
11.2763	0.953
11.3173	0.928
11.3582	0.805
11.3992	0.777
11.4401	0.897
11.4811	0.87
11.5221	0.649
11.563	0.794
11.604	0.897
11.6449	0.916
11.6859	0.859
11.7268	0.796
11.7678	0.863
11.8088	0.777
11.8497	0.606
11.8907	0.6
11.9316	0.502
11.9726	0.728
12.0135	0.873
12.0545	0.916
12.0955	0.926
12.1364	0.929
12.1774	0.916
12.2183	0.852
12.2593	0.755
12.3002	0.685
12.3412	0.647
12.3822	0.711
12.4231	0.794
12.4641	0.849
12.505	0.887
12.546	0.911
12.5869	0.923
12.6279	0.929
12.6688	0.936
12.7098	0.933
12.7508	0.926
12.7917	0.924
12.8327	0.905
12.8736	0.887
12.9146	0.823
12.9555	0.704
12.9965	0.685
13.0375	0.729
13.0784	0.673
13.1194	0.538
13.1603	0.312
13.2013	0.148
13.2422	0.109
13.2832	0.266
13.3242	0.449
13.3651	0.54
13.4061	0.499
13.447	0.323
13.488	0.167
13.5289	0.21
13.5699	0.468
13.6109	0.67
13.6518	0.764
13.6928	0.817
13.7337	0.847
13.7747	0.854
13.8156	0.866
13.8566	0.856
13.8976	0.839
13.9385	0.83
13.9795	0.813
14.0204	0.767
14.0614	0.683
14.1023	0.56
14.1433	0.389
14.1842	0.229
14.2252	0.131
14.2662	0.109
14.3071	0.104
14.3481	0.104
14.389	0.107
14.43	0.165
14.4709	0.282
14.5119	0.435
14.5529	0.545
14.5938	0.617
14.6348	0.637
14.6757	0.615
14.7167	0.547
14.7576	0.47
14.7986	0.446
14.8396	0.528
14.8805	0.627
14.9215	0.697
14.9624	0.729
15.0034	0.723
15.0443	0.705
15.0853	0.719
15.1263	0.769
15.1672	0.796
15.2082	0.801
15.2491	0.8
15.2901	0.784
15.331	0.774
15.372	0.774
15.413	0.765
15.4539	0.748
15.4949	0.738
15.5358	0.721
15.5768	0.709
15.6177	0.69
15.6587	0.629
15.6997	0.564
15.7406	0.524
15.7816	0.528
15.8225	0.569
15.8635	0.581
15.9044	0.6
15.9454	0.596
15.9863	0.584
