Infrared Spectrum: BENZYL PYRAZINE
Formula: C11 H10 N2
CAS: 28217-95-0
State: LIQUID
Class: COBLENTZ
Instrument: Not specified, most likely a prism, grating, or hybrid spectrometer.
Sampling: TRANSMISSION
Path length: 0.0015 CM
Resolution: 4
Origin: WYANDOTTE CHEMICALS CORP., WYANDOTTE, MICHIGAN, USA
MICROMETERS	TRANSMITTANCE
2	0.948
2.04086	0.937
2.08171	0.943
2.12257	0.948
2.16342	0.935
2.20428	0.938
2.24513	0.93
2.28599	0.926
2.32685	0.901
2.3677	0.911
2.40856	0.937
2.44941	0.938
2.49027	0.945
2.53112	0.943
2.57198	0.94
2.61284	0.937
2.65369	0.913
2.69455	0.896
2.7354	0.884
2.77626	0.85
2.81712	0.818
2.85797	0.797
2.89883	0.792
2.93968	0.795
2.98054	0.812
3.02139	0.812
3.06225	0.821
3.10311	0.824
3.14396	0.816
3.18482	0.714
3.22567	0.319
3.26653	0.379
3.30738	0.639
3.34824	0.598
3.3891	0.607
3.42995	0.79
3.47081	0.792
3.51166	0.84
3.55252	0.877
3.59337	0.886
3.63423	0.889
3.67509	0.897
3.71594	0.906
3.7568	0.904
3.79765	0.899
3.83851	0.911
3.87937	0.911
3.92022	0.916
3.96108	0.916
4.00193	0.913
4.04279	0.916
4.08364	0.916
4.1245	0.918
4.16536	0.909
4.20621	0.916
4.24707	0.911
4.28792	0.906
4.32878	0.899
4.36963	0.908
4.41049	0.914
4.45135	0.918
4.4922	0.911
4.53306	0.916
4.57391	0.916
4.61477	0.921
4.65562	0.92
4.69648	0.918
4.73734	0.918
4.77819	0.911
4.81905	0.911
4.8599	0.909
4.90076	0.911
4.94162	0.911
4.98247	0.908
5.02333	0.897
5.06418	0.87
5.10504	0.831
5.14589	0.787
5.18675	0.818
5.22761	0.848
5.26846	0.833
5.30932	0.826
5.35017	0.845
5.39103	0.86
5.43188	0.865
5.47274	0.835
5.5136	0.799
5.55445	0.823
5.59531	0.84
5.63616	0.829
5.67702	0.836
5.71787	0.843
5.75873	0.848
5.79959	0.826
5.84044	0.787
5.8813	0.789
5.92215	0.797
5.96301	0.784
6.00387	0.789
6.04472	0.782
6.08558	0.772
6.12643	0.738
6.16729	0.506
6.20814	0.637
6.249	0.61
6.28986	0.625
6.33071	0.76
6.37157	0.768
6.41242	0.741
6.45328	0.673
6.49413	0.45
6.53499	0.552
6.57585	0.641
6.6167	0.307
6.65756	0.341
6.69841	0.282
6.73927	0.193
6.78012	0.471
6.82098	0.219
6.86184	0.399
6.90269	0.409
6.94355	0.302
6.9844	0.452
7.02526	0.357
7.06612	0.096
7.10697	0.051
7.14783	0.297
7.18868	0.494
7.22954	0.545
7.27039	0.661
7.31125	0.719
7.35211	0.722
7.39296	0.593
7.43382	0.459
7.47467	0.501
7.51553	0.562
7.55638	0.515
7.59724	0.469
7.6381	0.552
7.67895	0.63
7.71981	0.663
7.76066	0.678
7.80152	0.647
7.84237	0.585
7.88323	0.454
7.92409	0.379
7.96494	0.522
8.0058	0.668
8.04665	0.612
8.08751	0.437
8.12836	0.564
8.16922	0.692
8.21008	0.714
8.25093	0.714
8.29179	0.673
8.33264	0.605
8.3735	0.539
8.41436	0.51
8.45521	0.549
8.49607	0.445
8.53692	0.403
8.57778	0.369
8.61863	0.358
8.65949	0.437
8.70035	0.494
8.7412	0.474
8.78206	0.377
8.82291	0.277
8.86377	0.243
8.90462	0.277
8.94548	0.447
8.98634	0.503
9.02719	0.518
9.06805	0.491
9.1089	0.467
9.14976	0.437
9.19061	0.382
9.23147	0.256
9.27233	0.198
9.31318	0.256
9.35404	0.261
9.39489	0.153
9.43575	0.064
9.47661	0.192
9.51746	0.263
9.55832	0.285
9.59917	0.284
9.64003	0.205
9.68088	0.137
9.72174	0.202
9.7626	0.11
9.80345	0.03
9.84431	0.258
9.88516	0.455
9.92602	0.545
9.96687	0.588
10.0077	0.62
10.0486	0.67
10.0894	0.671
10.1303	0.668
10.1712	0.678
10.212	0.692
10.2529	0.698
10.2937	0.709
10.3346	0.721
10.3754	0.738
10.4163	0.751
10.4571	0.755
10.498	0.751
10.5389	0.743
10.5797	0.721
10.6206	0.7
10.6614	0.678
10.7023	0.671
10.7431	0.67
10.784	0.658
10.8248	0.644
10.8657	0.632
10.9066	0.627
10.9474	0.627
10.9883	0.617
11.0291	0.619
11.07	0.617
11.1108	0.603
11.1517	0.605
11.1925	0.63
11.2334	0.675
11.2743	0.704
11.3151	0.717
11.356	0.719
11.3968	0.702
11.4377	0.668
11.4785	0.613
11.5194	0.556
11.5602	0.486
11.6011	0.431
11.642	0.425
11.6828	0.455
11.7237	0.489
11.7645	0.501
11.8054	0.479
11.8462	0.433
11.8871	0.38
11.928	0.345
11.9688	0.331
12.0097	0.324
12.0505	0.331
12.0914	0.372
12.1322	0.433
12.1731	0.46
12.2139	0.464
12.2548	0.433
12.2957	0.38
12.3365	0.331
12.3774	0.302
12.4182	0.263
12.4591	0.229
12.4999	0.212
12.5408	0.231
12.5816	0.26
12.6225	0.301
12.6634	0.348
12.7042	0.369
12.7451	0.343
12.7859	0.335
12.8268	0.479
12.8676	0.588
12.9085	0.634
12.9493	0.649
12.9902	0.644
13.0311	0.598
13.0719	0.527
13.1128	0.416
13.1536	0.352
13.1945	0.289
13.2353	0.188
13.2762	0.112
13.317	0.066
13.3579	0.049
13.3988	0.044
13.4396	0.071
13.4805	0.11
13.5213	0.149
13.5622	0.183
13.603	0.209
13.6439	0.239
13.6847	0.265
13.7256	0.306
13.7665	0.367
13.8073	0.44
13.8482	0.496
13.889	0.525
13.9299	0.552
13.9707	0.549
14.0116	0.484
14.0525	0.447
14.0933	0.414
14.1342	0.345
14.175	0.246
14.2159	0.159
14.2567	0.105
14.2976	0.081
14.3384	0.076
14.3793	0.078
14.4202	0.105
14.461	0.149
14.5019	0.221
14.5427	0.336
14.5836	0.445
14.6244	0.537
14.6653	0.595
14.7061	0.632
14.747	0.654
14.7879	0.663
14.8287	0.675
14.8696	0.675
14.9104	0.673
14.9513	0.668
14.9921	0.651
15.033	0.641
15.0738	0.644
15.1147	0.654
15.1556	0.658
15.1964	0.664
15.2373	0.651
15.2781	0.63
15.319	0.598
15.3598	0.573
15.4007	0.544
15.4415	0.518
15.4824	0.515
15.5233	0.539
15.5641	0.576
15.605	0.612
15.6458	0.654
15.6867	0.666
15.7275	0.678
15.7684	0.683
15.8092	0.688
15.8501	0.69
15.891	0.69
15.9318	0.688
15.9727	0.68
