Infrared Spectrum: 2,3,4-Trifluorophenol
Formula: C 6 H 3 F 3 O
CAS: 2822-41-5
State: gas
Origin: EPA-IR VAPOR PHASE LIBRARY
1/CM	ABSORBANCE
549.8	0.0003161
559.445	0.00038064
569.09	0.00041899
578.735	0.0005481
588.38	0.0010185
598.025	0.001572
607.67	0.0012029
617.315	0.0006185
626.96	0.0002829
636.605	0.000387101
646.251	0.00041819
655.896	0.0005694
665.541	0.0010719
675.186	0.001402
684.831	0.001612
694.476	0.0007472
704.121	0.00048148
713.766	0.0005262
723.411	0.00043196
733.056	0.0006434
742.701	0.0012444
752.346	0.001422
761.991	0.0009792
771.636	0.0006556
781.281	0.0009333
790.926	0.001682
800.571	0.003042
810.216	0.001782
819.861	0.0009181
829.507	0.00044349
839.152	0.0004748
848.797	0.0003375
858.442	0.00041568
868.087	0.00040937
877.732	0.00046081
887.377	0.0003406
897.022	0.00041977
906.667	0.00040066
916.312	0.00045352
925.957	0.00040711
935.602	0.0005329
945.247	0.0008418
954.892	0.0011973
964.537	0.001682
974.182	0.003942
983.827	0.008532
993.472	0.008242
1003.12	0.002292
1012.76	0.0011785
1022.41	0.001722
1032.05	0.003592
1041.7	0.004102
1051.34	0.002992
1060.99	0.0012199
1070.63	0.0007715
1080.28	0.0007006
1089.92	0.0006022
1099.57	0.0005559
1109.21	0.00048183
1118.86	0.0005489
1128.5	0.0006136
1138.15	0.0009106
1147.79	0.001992
1157.44	0.002402
1167.08	0.002222
1176.73	0.004582
1186.37	0.007982
1196.02	0.007302
1205.66	0.002702
1215.31	0.0012969
1224.95	0.0009408
1234.6	0.0013529
1244.24	0.001782
1253.89	0.002772
1263.53	0.003992
1273.18	0.003432
1282.82	0.0013251
1292.47	0.0012977
1302.11	0.001492
1311.76	0.001422
1321.4	0.001286
1331.05	0.0012501
1340.69	0.0011251
1350.34	0.001188
1359.98	0.002292
1369.63	0.003032
1379.27	0.002392
1388.92	0.0007424
1398.56	0.0005211
1408.21	0.00048085
1417.85	0.00039782
1427.5	0.0004915
1437.14	0.0004883
1446.79	0.0006088
1456.43	0.0006869
1466.08	0.0011842
1475.73	0.001932
1485.37	0.004402
1495.02	0.009332
1504.66	0.014892
1514.31	0.016262
1523.95	0.013632
1533.6	0.009792
1543.24	0.003222
1552.89	0.0010899
1562.53	0.000746
1572.18	0.0005972
1581.82	0.0006027
1591.47	0.0007293
1601.11	0.0009783
1610.76	0.001382
1620.4	0.001722
1630.05	0.0013201
1639.69	0.0007855
1649.34	0.0006788
1658.98	0.0005456
1668.63	0.0003877
1678.27	0.0003379
1687.92	0.0003715
1697.56	0.00027
1707.21	0.0003715
1716.85	0.0002876
1726.5	0.0003709
1736.14	0.000307
1745.79	0.0002944
1755.43	0.0003318
1765.08	0.0003312
1774.72	0.0003604
1784.37	0.00037284
1794.01	0.00037829
1803.66	0.00039363
1813.3	0.00037749
1822.95	0.000387083
1832.59	0.00047641
1842.24	0.00044501
1851.88	0.00040618
1861.53	0.0003524
1871.17	0.0003456
1880.82	0.0003636
1890.46	0.0003571
1900.11	0.0003612
1909.75	0.0003304
1919.4	0.0003461
1929.04	0.00041842
1938.69	0.0003534
1948.33	0.00039794
1957.98	0.00038461
1967.62	0.0003432
1977.27	0.0003512
1986.91	0.0003417
1996.56	0.0003567
2006.2	0.000337
2015.85	0.0003681
2025.49	0.000333
2035.14	0.0003416
2044.78	0.0003418
2054.43	0.0003661
2064.07	0.0003292
2073.72	0.00037704
2083.36	0.0003612
2093.01	0.0003356
2102.65	0.00039701
2112.3	0.0003406
2121.94	0.00037843
2131.59	0.0003203
2141.23	0.0003349
2150.88	0.0003215
2160.52	0.0003508
2170.17	0.00037536
2179.81	0.000389018
2189.46	0.00039813
2199.1	0.00042416
2208.75	0.000388455
2218.39	0.00037729
2228.04	0.00037293
2237.68	0.0003465
2247.33	0.0003726
2256.97	0.0003597
2266.62	0.00037
2276.26	0.000347
2285.91	0.00041573
2295.55	0.00044038
2305.2	0.00041358
2314.84	0.0003555
2324.49	0.00037611
2334.13	0.0003634
2343.78	0.0003449
2353.42	0.000381538
2363.07	0.0003121
2372.72	0.0003047
2382.36	0.0003575
2392.01	0.0003583
2401.65	0.000386084
2411.3	0.00040792
2420.94	0.000391026
2430.59	0.0003659
2440.23	0.00046364
2449.88	0.00041757
2459.52	0.0003632
2469.17	0.00040549
2478.81	0.0003504
2488.46	0.0004086
2498.1	0.00040048
2507.75	0.0003786
2517.39	0.00039203
2527.04	0.00040473
2536.68	0.00040526
2546.33	0.00047746
2555.97	0.00046214
2565.62	0.00037471
2575.26	0.00043218
2584.91	0.0003704
2594.55	0.0003586
2604.2	0.0003567
2613.84	0.0003132
2623.49	0.0003357
2633.13	0.000366
2642.78	0.0003407
2652.42	0.0003326
2662.07	0.0003391
2671.71	0.0003533
2681.36	0.0003276
2691	0.0003354
2700.65	0.0003644
2710.29	0.00039979
2719.94	0.0003346
2729.58	0.000342
2739.23	0.0003313
2748.87	0.0003053
2758.52	0.0003258
2768.16	0.000282
2777.81	0.0002855
2787.45	0.000328
2797.1	0.000359
2806.74	0.0003253
2816.39	0.0002987
2826.03	0.0003037
2835.68	0.0003008
2845.32	0.000274
2854.97	0.0002834
2864.61	0.0003561
2874.26	0.0003024
2883.9	0.0003167
2893.55	0.000251
2903.19	0.000229
2912.84	0.000232
2922.48	0.0002881
2932.13	0.000251
2941.77	0.000264
2951.42	0.000206
2961.06	0.000253
2970.71	0.00026
2980.35	0.000248
2990	0.000227
2999.64	0.000255
3009.29	0.0003191
3018.93	0.0003306
3028.58	0.000247
3038.22	0.000225
3047.87	0.000272
3057.51	0.000267
3067.16	0.0003115
3076.8	0.0003341
3086.45	0.00022
3096.09	0.000227
3105.74	0.000187
3115.38	0.0003024
3125.03	0.000184
3134.67	0.000195
3144.32	0.000143
3153.96	0.000212
3163.61	0.000185
3173.25	0.000199
3182.9	0.000218
3192.54	0.000154
3202.19	0.000211
3211.83	0.000148
3221.48	0.000114
3231.12	8.3e-05
3240.77	0.000141
3250.41	0.000113
3260.06	0.000188
3269.7	0.000185
3279.35	0.000126
3289	0.000251
3298.64	0.000159
3308.29	0.000253
3317.93	0.000113
3327.58	0.000195
3337.22	0.000204
3346.87	9.9e-05
3356.51	0.000212
3366.16	0.000152
3375.8	1e-05
3385.45	0.000121
3395.09	9e-05
3404.74	0.000259
3414.38	0.00018
3424.03	0.00021
3433.67	0.000194
3443.32	0.00014
3452.96	0.000166
3462.61	0.000132
3472.25	0.000146
3481.9	0.000134
3491.54	0.000151
3501.19	0.000231
3510.83	7.6e-05
3520.48	2e-06
3530.12	0.000211
3539.77	0.000224
3549.41	0.000127
3559.06	0.000141
3568.7	0.000225
3578.35	9.4e-05
3587.99	7.6e-05
3597.64	0.000169
3607.28	0.000506
3616.93	0.002052
3626.57	0.004932
3636.22	0.004572
3645.86	0.001602
3655.51	0.0006773
3665.15	0.0005121
3674.8	0.000154
3684.44	0.000141
3694.09	0.000212
3703.73	0.000176
3713.38	0.000175
3723.02	0.00018
3732.67	0.000108
3742.31	0.000106
3751.96	7.8e-05
3761.6	0.000126
3771.25	0.000106
3780.89	0.000187
3790.54	0.000124
3800.18	6.8e-05
3809.83	0.000165
3819.47	0.000158
3829.12	0.000242
3838.76	0.0001
3848.41	7.7e-05
3858.05	0.000148
3867.7	0.000187
3877.34	0.000106
3886.99	0.00021
3896.63	0.000147
3906.28	0.000171
3915.92	0.000167
3925.57	0.000154
3935.21	0.000228
3944.86	0.000194
3954.5	0.000187
3964.15	0.000177
3973.79	0.000202
3983.44	0.000207
3993.08	0.000132
