Infrared Spectrum: Thiobencarb
Formula: C 12 H 16 Cl N O S
CAS: 28249-77-6
State: gas
Instrument: HP-GC/MS/IRD
Origin: NIST Mass Spectrometry Data Center
1/CM	ABSORBANCE
550	0.0005712
562	0
574	0.000252
586	0.0005376
598	0.0004872
610	0.0010248
622	0.0021336
634	0.0073752
646	0.0095088
658	0.0139608
670	0.0124488
682	0.0043848
694	0.0025872
706	0.0017304
718	0.0028896
730	0.0064008
742	0.0052248
754	0.0031584
766	0.003024
778	0.0057288
790	0.0088536
802	0.0115416
814	0.0166824
826	0.0218736
838	0.0167328
850	0.0229488
862	0.0290136
874	0.0134736
886	0.0054432
898	0.0026376
910	0.0016632
922	0.001596
934	0.0034944
946	0.00378
958	0.0021168
970	0.0019488
982	0.002352
994	0.0035952
1006	0.0086352
1018	0.0250992
1030	0.0055944
1042	0.0061992
1054	0.0105336
1066	0.0202608
1078	0.029568
1090	0.071148
1102	0.0856632
1114	0.0820176
1126	0.0336336
1138	0.0138264
1150	0.0082488
1162	0.0065352
1174	0.0071232
1186	0.0101472
1198	0.0166824
1210	0.0320712
1222	0.049812
1234	0.0725928
1246	0.0950544
1258	0.04788
1270	0.0178416
1282	0.011004
1294	0.0127008
1306	0.020664
1318	0.0152544
1330	0.0104664
1342	0.0127344
1354	0.0209328
1366	0.0334992
1378	0.0450576
1390	0.0609336
1402	0.0608664
1414	0.0379344
1426	0.0216888
1438	0.0175392
1450	0.01848
1462	0.022344
1474	0.0236208
1486	0.0395808
1498	0.0348432
1510	0.0097104
1522	0.0048384
1534	0.0031248
1546	0.0025872
1558	0.0026376
1570	0.0030744
1582	0.004032
1594	0.0059472
1606	0.0054264
1618	0.0057456
1630	0.0099792
1642	0.0183624
1654	0.0429744
1666	0.135828
1678	0.133711
1690	0.0346752
1702	0.013608
1714	0.0074928
1726	0.0047712
1738	0.0034272
1750	0.0029232
1762	0.0028728
1774	0.0026208
1786	0.0014784
1798	0.000924
1810	0.0006384
1822	0.0004872
1834	0.0004704
1846	0.0004368
1858	0.0006048
1870	0.0009576
1882	0.0015624
1894	0.0018648
1906	0.00126
1918	0.0006552
1930	0.000336
1942	0.0002184
1954	0.0002184
1966	0.0002016
1978	0.0001512
1990	0.0001512
2002	0.0001848
2014	0.0002016
2026	0.0002856
2038	0.000336
2050	0.0003024
2062	0.000336
2074	0.0003528
2086	0.0003024
2098	0.0002184
2110	0.0001008
2122	1.68e-05
2134	0
2146	0
2158	3.36e-05
2170	3.36e-05
2182	3.36e-05
2194	0
2206	1.68e-05
2218	3.36e-05
2230	0.0001176
2242	0.0001176
2254	3.36e-05
2266	5.04e-05
2278	0.000168
2290	0.000252
2302	0.000252
2314	0.0003864
2326	0.00042
2338	0.0003192
2350	0.000252
2362	0.0001848
2374	0.0001344
2386	0.0001176
2398	0.0002016
2410	0.0002016
2422	0.000168
2434	0.0001848
2446	0.000252
2458	0.0002352
2470	0.0002856
2482	0.0002856
2494	0.0003528
2506	0.000336
2518	0.0003024
2530	0.0002688
2542	0.0002184
2554	0.0001176
2566	0.0001512
2578	0.000252
2590	0.0001848
2602	0.0002016
2614	0.0002352
2626	0.0002184
2638	0.0003192
2650	0.0004704
2662	0.0005544
2674	0.0005208
2686	0.0006888
2698	0.0006216
2710	0.0005208
2722	0.0005712
2734	0.0007056
2746	0.0009072
2758	0.0009912
2770	0.001176
2782	0.0014616
2794	0.0017808
2806	0.0019824
2818	0.0023184
2830	0.0028056
2842	0.0034272
2854	0.0045528
2866	0.007056
2878	0.0126504
2890	0.0161784
2902	0.0150696
2914	0.015792
2926	0.0212184
2938	0.03402
2950	0.0350112
2962	0.0255192
2974	0.0347088
2986	0.0435624
2998	0.0244776
3010	0.0104832
3022	0.0072912
3034	0.0076776
3046	0.0059136
3058	0.004368
3070	0.0039144
3082	0.004452
3094	0.0045192
3106	0.0032088
3118	0.0017304
3130	0.0013272
3142	0.0012096
3154	0.0009912
3166	0.0009408
3178	0.0007224
3190	0.0006216
3202	0.0004704
3214	0.0002856
3226	0.000252
3238	0.0002352
3250	0.000252
3262	0.0003024
3274	0.000252
3286	0.0002856
3298	0.0004536
3310	0.000756
3322	0.0011928
3334	0.0010248
3346	0.0006888
3358	0.0003528
3370	0.000252
3382	0.0001848
3394	0.000168
3406	0.0002016
3418	0.000168
3430	0.0001008
3442	0.0001512
3454	0.000168
3466	8.4e-05
3478	0.0001008
3490	0.0001008
3502	3.36e-05
3514	5.04e-05
3526	1.68e-05
3538	0
3550	8.4e-05
3562	6.72e-05
3574	6.72e-05
3586	8.4e-05
3598	3.36e-05
3610	6.72e-05
3622	5.04e-05
3634	8.4e-05
3646	8.4e-05
3658	0.0001008
3670	0.0001008
3682	0.0001512
3694	0.0002016
3706	0.0002016
3718	0.0003024
3730	0.0002352
3742	0.000252
3754	0.000252
3766	0.0001848
3778	0.0002016
3790	0.0001512
3802	0.0001848
3814	0.0002016
3826	0.0001512
3838	0.0002352
