Infrared Spectrum: 3',4'-Methylenedioxypropiophenone
Formula: C 10 H 10 O 3
CAS: 28281-49-4
State: gas
Origin: EPA-IR VAPOR PHASE LIBRARY
1/CM	ABSORBANCE
549.8	0.005173
559.445	0.007243
569.09	0.008423
578.734	0.005463
588.379	0.002393
598.024	0.001703
607.669	0.002763
617.313	0.003153
626.958	0.003123
636.603	0.003173
646.248	0.003113
655.893	0.002693
665.537	0.002403
675.182	0.001693
684.827	0.001713
694.472	0.001543
704.116	0.001953
713.761	0.003623
723.406	0.004633
733.051	0.003253
742.695	0.003523
752.34	0.003643
761.985	0.003503
771.63	0.004813
781.275	0.009253
790.919	0.017703
800.564	0.025333
810.209	0.022553
819.854	0.015893
829.498	0.012823
839.143	0.008513
848.788	0.006383
858.433	0.008603
868.078	0.013973
877.722	0.020483
887.367	0.016753
897.012	0.009293
906.657	0.006143
916.301	0.007423
925.946	0.013693
935.591	0.025963
945.236	0.036073
954.88	0.031323
964.525	0.019383
974.17	0.009853
983.815	0.006203
993.46	0.007213
1003.1	0.011203
1012.75	0.015513
1022.39	0.019723
1032.04	0.035873
1041.68	0.064043
1051.33	0.074813
1060.97	0.055393
1070.62	0.031813
1080.26	0.021163
1089.91	0.021803
1099.55	0.030133
1109.2	0.032043
1118.84	0.024803
1128.49	0.020253
1138.13	0.018933
1147.78	0.013403
1157.42	0.006973
1167.07	0.004563
1176.71	0.005273
1186.36	0.006913
1196	0.012293
1205.64	0.019283
1215.29	0.026123
1224.93	0.050303
1234.58	0.136653
1244.22	0.236223
1253.87	0.173353
1263.51	0.072443
1273.16	0.046403
1282.8	0.033883
1292.45	0.020803
1302.09	0.017793
1311.74	0.019573
1321.38	0.020433
1331.03	0.027193
1340.67	0.044503
1350.32	0.053963
1359.96	0.037793
1369.61	0.019283
1379.25	0.015093
1388.9	0.013023
1398.54	0.012323
1408.18	0.016563
1417.83	0.031523
1427.47	0.070533
1437.12	0.102173
1446.76	0.073143
1456.41	0.043253
1466.05	0.042273
1475.7	0.062453
1485.34	0.096143
1494.99	0.066873
1504.63	0.037373
1514.28	0.026143
1523.92	0.009293
1533.57	0.005573
1543.21	0.004433
1552.86	0.003913
1562.5	0.003873
1572.15	0.004543
1581.79	0.006473
1591.44	0.010653
1601.08	0.017553
1610.73	0.025223
1620.37	0.023463
1630.01	0.012593
1639.66	0.007893
1649.3	0.007263
1658.95	0.008753
1668.59	0.012113
1678.24	0.022843
1687.88	0.055993
1697.53	0.098013
1707.17	0.071363
1716.82	0.022433
1726.46	0.009983
1736.11	0.007563
1745.75	0.006143
1755.4	0.004833
1765.04	0.004143
1774.69	0.003633
1784.33	0.002903
1793.98	0.002213
1803.62	0.002033
1813.27	0.002053
1822.91	0.002473
1832.55	0.002853
1842.2	0.002833
1851.84	0.002243
1861.49	0.002143
1871.13	0.002513
1880.78	0.002863
1890.42	0.002443
1900.07	0.001563
1909.71	0.001113
1919.36	0.0010632
1929	0.0010509
1938.65	0.0010847
1948.29	0.0011022
1957.94	0.001133
1967.58	0.001283
1977.23	0.001503
1986.87	0.001643
1996.52	0.001463
2006.16	0.001473
2015.81	0.001503
2025.45	0.001613
2035.1	0.001673
2044.74	0.001723
2054.38	0.001683
2064.03	0.001573
2073.67	0.001453
2083.32	0.001353
2092.96	0.0010934
2102.61	0.0007755
2112.25	0.0006148
2121.9	0.0006317
2131.54	0.0005909
2141.19	0.0006415
2150.83	0.0006627
2160.48	0.0006483
2170.12	0.0006559
2179.77	0.000619
2189.41	0.000565
2199.06	0.0007454
2208.7	0.0007392
2218.35	0.0007528
2227.99	0.0009405
2237.64	0.0009603
2247.28	0.0009479
2256.92	0.0008853
2266.57	0.000921
2276.21	0.001036
2285.86	0.001103
2295.5	0.0010814
2305.15	0.001065
2314.79	0.0010131
2324.44	0.0008868
2334.08	0.0007484
2343.73	0.0006726
2353.37	0.00062
2363.02	0.0006246
2372.66	0.0005973
2382.31	0.0005314
2391.95	0.00056
2401.6	0.0006166
2411.24	0.0006868
2420.89	0.0006401
2430.53	0.0006159
2440.18	0.0006745
2449.82	0.0007396
2459.47	0.0008164
2469.11	0.0009726
2478.75	0.001113
2488.4	0.001293
2498.04	0.0010367
2507.69	0.0008353
2517.33	0.0006827
2526.98	0.0006524
2536.62	0.0009262
2546.27	0.0009549
2555.91	0.001123
2565.56	0.001333
2575.2	0.001413
2584.85	0.001923
2594.49	0.002253
2604.14	0.002093
2613.78	0.001463
2623.43	0.001213
2633.07	0.0010157
2642.72	0.0009258
2652.36	0.001113
2662.01	0.001433
2671.65	0.001773
2681.29	0.001913
2690.94	0.001953
2700.58	0.001933
2710.23	0.001863
2719.87	0.001593
2729.52	0.001583
2739.16	0.002033
2748.81	0.002433
2758.45	0.003053
2768.1	0.004893
2777.74	0.007603
2787.39	0.005423
2797.03	0.003203
2806.68	0.003203
2816.32	0.003793
2825.97	0.005083
2835.61	0.006083
2845.26	0.007293
2854.9	0.009973
2864.55	0.014713
2874.19	0.020703
2883.84	0.025453
2893.48	0.027113
2903.12	0.027323
2912.77	0.030633
2922.41	0.030763
2932.06	0.027203
2941.7	0.030183
2951.35	0.033043
2960.99	0.023273
2970.64	0.020643
2980.28	0.026643
2989.93	0.026253
2999.57	0.017093
3009.22	0.012353
3018.86	0.012303
3028.51	0.009963
3038.15	0.007073
3047.8	0.005573
3057.44	0.004513
3067.09	0.004453
3076.73	0.006163
3086.38	0.007803
3096.02	0.004263
3105.67	0.002863
3115.31	0.001953
3124.95	0.001383
3134.6	0.0008283
3144.24	0.0007609
3153.89	0.0007722
3163.53	0.0006198
3173.18	0.0005051
3182.82	0.0004859
3192.47	0.0005196
3202.11	0.0004601
3211.76	0.0007216
3221.4	0.0005934
3231.05	0.0005127
3240.69	0.0006222
3250.34	0.0004272
3259.98	0.0002171
3269.63	0.0002904
3279.27	0.0003843
3288.92	0.0004238
3298.56	0.0003348
3308.21	0.0003632
3317.85	0.0002987
3327.49	0.0004148
3337.14	0.0003957
3346.78	0.0004443
3356.43	0.0008336
3366.07	0.0010852
3375.72	0.001523
3385.36	0.001693
3395.01	0.001273
3404.65	0.0005943
3414.3	0.0003929
3423.94	0.000314
3433.59	0.0004108
3443.23	0.0002525
3452.88	0.00017468
3462.52	0.0002945
3472.17	0.0002541
3481.81	0.000107662
3491.46	0.000103795
3501.1	0.0003178
3510.75	0.00020007
3520.39	0.0002042
3530.04	0.000110895
3539.68	0.0002247
3549.32	0.0002779
3558.97	2e-06
3568.61	0.00012347
3578.26	0.00012738
3587.9	0.00018797
3597.55	0.0003692
3607.19	8.2e-06
3616.84	0.0001558
3626.48	0.0003731
3636.13	0.0002991
3645.77	0.0002375
3655.42	0.0002766
3665.06	0.0002586
3674.71	0.0003492
3684.35	0.0003648
3694	4.87e-05
3703.64	0.00015148
3713.29	0.0001266
3722.93	0.0002684
3732.58	0.0003881
3742.22	0.00017254
3751.86	0.0002744
3761.51	0.0002048
3771.15	0.0002657
3780.8	0.0003671
3790.44	0.0004742
3800.09	0.0002912
3809.73	0.0002168
3819.38	0.0003983
3829.02	0.0003644
3838.67	0.0005188
3848.31	0.0004035
3857.96	0.0004387
3867.6	0.0002949
3877.25	0.00014626
3886.89	0.0004575
3896.54	0.0003138
3906.18	0.0004798
3915.83	0.0003724
3925.47	0.0005091
3935.12	0.0005362
3944.76	0.0006233
3954.41	0.0006853
3964.05	0.0008959
3973.69	0.0008726
3983.34	0.0007513
3992.98	0.0005914
