Infrared Spectrum: 3-Aminoheptane
Formula: C 7 H 17 N
CAS: 28292-42-4
State: gas
Instrument: HP-GC/MS/IRD
Origin: NIST Mass Spectrometry Data Center
1/CM	ABSORBANCE
550	0.0008877
562	0.0003201
574	0.0003894
586	0.0002112
598	0.0001089
610	0.0001419
622	0.0001914
634	0.000297
646	0.0003234
658	0.0004587
670	0.0005742
682	0.0007557
694	0.0010164
706	0.0014619
718	0.0020394
730	0.0028941
742	0.0039501
754	0.0051876
766	0.006072
778	0.0060951
790	0.0057453
802	0.0047619
814	0.0031746
826	0.0021318
838	0.0016302
850	0.0012969
862	0.0010296
874	0.0008217
886	0.0006765
898	0.0006765
910	0.0005577
922	0.0005082
934	0.0005445
946	0.0006072
958	0.0006831
970	0.0007788
982	0.0009636
994	0.0009273
1006	0.0007953
1018	0.0007557
1030	0.0007128
1042	0.0005841
1054	0.0004092
1066	0.0003168
1078	0.0003399
1090	0.00033
1102	0.000429
1114	0.0006105
1126	0.0008745
1138	0.0011022
1150	0.000924
1162	0.0005148
1174	0.0002409
1186	0.0001584
1198	0.0002277
1210	0.0002442
1222	0.0002805
1234	0.0002706
1246	0.0002871
1258	0.0003267
1270	0.000363
1282	0.0004323
1294	0.0005742
1306	0.0006864
1318	0.0007293
1330	0.0009768
1342	0.0014223
1354	0.0019569
1366	0.0023595
1378	0.0027654
1390	0.002409
1402	0.001221
1414	0.0007854
1426	0.0009669
1438	0.0017424
1450	0.0031218
1462	0.003993
1474	0.003135
1486	0.0015873
1498	0.0007986
1510	0.0004884
1522	0.0004158
1534	0.0003894
1546	0.0003927
1558	0.0004554
1570	0.0006072
1582	0.0008415
1594	0.0014058
1606	0.0022902
1618	0.0028512
1630	0.0022968
1642	0.001287
1654	0.0006336
1666	0.0003135
1678	0.0001947
1690	0.0001056
1702	8.25e-05
1714	3.63e-05
1726	3.63e-05
1738	3.96e-05
1750	9.9e-06
1762	0
1774	4.62e-05
1786	2.31e-05
1798	4.95e-05
1810	2.97e-05
1822	2.31e-05
1834	2.64e-05
1846	4.62e-05
1858	1.32e-05
1870	9.9e-06
1882	0
1894	1.98e-05
1906	2.97e-05
1918	1.32e-05
1930	9.9e-06
1942	1.65e-05
1954	1.98e-05
1966	1.32e-05
1978	9.9e-06
1990	3.63e-05
2002	1.98e-05
2014	5.94e-05
2026	4.62e-05
2038	8.25e-05
2050	8.91e-05
2062	9.24e-05
2074	9.57e-05
2086	0.0001122
2098	0.0001254
2110	0.0001287
2122	0.0001188
2134	0.0001023
2146	0.0001386
2158	0.0001419
2170	0.0001188
2182	0.0001452
2194	0.0001386
2206	0.0001056
2218	0.0001386
2230	0.0001353
2242	0.0001518
2254	0.0001683
2266	0.0001419
2278	0.0001518
2290	0.0001485
2302	0.0001617
2314	0.0001617
2326	0.0001551
2338	0.0001518
2350	0.0001782
2362	0.0001848
2374	0.0001716
2386	0.0002013
2398	0.0001848
2410	0.0001452
2422	0.0001881
2434	0.0001848
2446	0.0001518
2458	0.0001386
2470	0.0001815
2482	0.0001617
2494	0.0001617
2506	0.0001782
2518	0.0002013
2530	0.0002112
2542	0.0002046
2554	0.0002508
2566	0.000297
2578	0.0003564
2590	0.0003993
2602	0.0004488
2614	0.000429
2626	0.0004653
2638	0.0005148
2650	0.0005676
2662	0.000627
2674	0.0006402
2686	0.0006699
2698	0.0007161
2710	0.0007194
2722	0.0007755
2734	0.0009207
2746	0.0010065
2758	0.0010461
2770	0.0010692
2782	0.0012408
2794	0.0015312
2806	0.0020361
2818	0.0027753
2830	0.0041184
2842	0.0063393
2854	0.0098835
2866	0.0135267
2878	0.0159819
2890	0.015642
2902	0.0158697
2914	0.0221364
2926	0.0305679
2938	0.0324357
2950	0.0266211
2962	0.027192
2974	0.0248325
2986	0.0118305
2998	0.0051612
3010	0.0030327
3022	0.0022077
3034	0.0017028
3046	0.001386
3058	0.0011715
3070	0.00099
3082	0.0009273
3094	0.0008514
3106	0.0007194
3118	0.0006171
3130	0.0005082
3142	0.0004851
3154	0.0004422
3166	0.0004224
3178	0.0004125
3190	0.0003498
3202	0.0003102
3214	0.0002541
3226	0.0002541
3238	0.0002244
3250	0.000165
3262	0.0002178
3274	0.0002112
3286	0.0001881
3298	0.0001584
3310	0.0002178
3322	0.0003498
3334	0.0004224
3346	0.0003399
3358	0.000264
3370	0.0001749
3382	0.000198
3394	0.0001584
3406	0.0001815
3418	0.0002145
3430	0.0002013
3442	0.0001716
3454	0.0002013
3466	0.0001584
3478	0.000165
3490	0.0001188
3502	0.0001617
3514	0.0001848
3526	0.0001716
3538	0.0001716
3550	0.0001617
3562	0.0001617
3574	0.0001947
3586	0.0001287
3598	0.000132
3610	0.0001419
3622	0.0001881
3634	0.0002112
3646	0.0002046
3658	0.0002013
3670	0.0001947
3682	0.0001914
3694	0.0002046
3706	0.0001683
3718	0.0001353
3730	0.0001815
3742	0.0001881
3754	0.0002112
3766	0.0002046
3778	0.0002112
3790	0.0002079
3802	0.0002244
3814	0.0001815
3826	0.0001419
3838	0.0002112
