Infrared Spectrum: 2,4,6-Trifluorobenzoic acid
Formula: C 7 H 3 F 3 O 2
CAS: 28314-80-9
State: gas
Origin: EPA-IR VAPOR PHASE LIBRARY
1/CM	ABSORBANCE
549.8	0.010484
559.445	0.013704
569.09	0.020034
578.734	0.021024
588.379	0.017304
598.024	0.007724
607.669	0.008164
617.313	0.009974
626.958	0.008694
636.603	0.004174
646.248	0.002984
655.893	0.002754
665.537	0.002104
675.182	0.002414
684.827	0.001714
694.472	0.002444
704.116	0.003854
713.761	0.005444
723.406	0.005764
733.051	0.006354
742.695	0.003974
752.34	0.001774
761.985	0.002144
771.63	0.0012177
781.275	0.002004
790.919	0.002624
800.564	0.001794
810.209	0.001804
819.854	0.002234
829.498	0.005664
839.143	0.014934
848.788	0.018644
858.433	0.008484
868.078	0.002354
877.722	0.001406
887.367	0.0012373
897.012	0.0012153
906.657	0.0007726
916.301	0.0008376
925.946	0.0009063
935.591	0.0010264
945.236	0.0011725
954.88	0.0012475
964.525	0.0010698
974.17	0.001614
983.815	0.002664
993.46	0.007704
1003.1	0.013494
1012.75	0.007624
1022.39	0.005684
1032.04	0.011634
1041.68	0.028274
1051.33	0.038724
1060.97	0.027584
1070.62	0.018184
1080.26	0.024054
1089.91	0.024354
1099.55	0.012174
1109.2	0.009114
1118.84	0.027514
1128.49	0.055114
1138.13	0.034564
1147.78	0.012094
1157.42	0.014494
1167.07	0.028224
1176.71	0.036654
1186.36	0.033004
1196	0.023194
1205.64	0.015784
1215.29	0.011724
1224.93	0.010194
1234.58	0.008864
1244.22	0.008044
1253.87	0.007204
1263.51	0.007024
1273.16	0.007354
1282.8	0.006804
1292.45	0.008194
1302.09	0.011274
1311.74	0.014944
1321.38	0.016844
1331.03	0.016404
1340.67	0.014434
1350.32	0.014214
1359.96	0.011224
1369.61	0.007544
1379.25	0.005154
1388.9	0.003594
1398.54	0.003334
1408.18	0.004284
1417.83	0.006894
1427.47	0.012224
1437.12	0.023404
1446.76	0.029884
1456.41	0.021614
1466.05	0.009884
1475.7	0.005814
1485.34	0.006114
1494.99	0.008714
1504.63	0.008044
1514.28	0.004974
1523.92	0.003434
1533.57	0.002834
1543.21	0.003424
1552.86	0.004474
1562.5	0.006764
1572.15	0.009214
1581.79	0.013764
1591.44	0.025974
1601.08	0.043324
1610.73	0.045754
1620.37	0.038244
1630.01	0.056664
1639.66	0.058354
1649.3	0.026874
1658.95	0.011934
1668.59	0.008074
1678.24	0.005374
1687.88	0.004214
1697.53	0.004024
1707.17	0.004434
1716.82	0.004734
1726.46	0.006394
1736.11	0.010834
1745.75	0.016374
1755.4	0.023374
1765.04	0.045954
1774.69	0.081094
1784.33	0.064254
1793.98	0.028014
1803.62	0.016924
1813.27	0.010084
1822.91	0.005744
1832.55	0.003194
1842.2	0.002314
1851.84	0.002254
1861.49	0.001674
1871.13	0.0015217
1880.78	0.0013051
1890.42	0.0011153
1900.07	0.0013953
1909.71	0.0012923
1919.36	0.0012424
1929	0.0013364
1938.65	0.0012963
1948.29	0.0010457
1957.94	0.0011043
1967.58	0.0011464
1977.23	0.0008829
1986.87	0.0010848
1996.52	0.000963
2006.16	0.0011639
2015.81	0.0008659
2025.45	0.0010235
2035.1	0.0009545
2044.74	0.0006421
2054.38	0.0008337
2064.03	0.000838
2073.67	0.0009582
2083.32	0.0009046
2092.96	0.0010454
2102.61	0.0008065
2112.25	0.00091
2121.9	0.001
2131.54	0.0010939
2141.19	0.0009428
2150.83	0.0011082
2160.48	0.0013618
2170.12	0.0013291
2179.77	0.001544
2189.41	0.0012909
2199.06	0.0012044
2208.7	0.0012116
2218.35	0.0010124
2227.99	0.0012097
2237.64	0.0009581
2247.28	0.0009478
2256.92	0.0009751
2266.57	0.0009338
2276.21	0.0006574
2285.86	0.0011085
2295.5	0.0008878
2305.15	0.0011556
2314.79	0.0012297
2324.44	0.0013808
2334.08	0.0011163
2343.73	0.0012669
2353.37	0.001764
2363.02	0.001534
2372.66	0.001714
2382.31	0.0011737
2391.95	0.001163
2401.6	0.0014434
2411.24	0.001554
2420.89	0.001448
2430.53	0.0010716
2440.18	0.0011089
2449.82	0.0008692
2459.47	0.000983
2469.11	0.0011435
2478.75	0.0014912
2488.4	0.001564
2498.04	0.0011602
2507.69	0.0009879
2517.33	0.001058
2526.98	0.0012121
2536.62	0.0008283
2546.27	0.0011362
2555.91	0.0010372
2565.56	0.0008601
2575.2	0.0013059
2584.85	0.0011328
2594.49	0.0008564
2604.14	0.0008448
2613.78	0.0009061
2623.43	0.0010858
2633.07	0.0008206
2642.72	0.0009882
2652.36	0.0009616
2662.01	0.0011212
2671.65	0.0006681
2681.29	0.0006898
2690.94	0.0008441
2700.58	0.00111
2710.23	0.0006691
2719.87	0.0009545
2729.52	0.0010098
2739.16	0.0010935
2748.81	0.0008987
2758.45	0.0008449
2768.1	0.0006609
2777.74	0.0010361
2787.39	0.0004336
2797.03	0.0008082
2806.68	0.0008368
2816.32	0.0006364
2825.97	0.0010756
2835.61	0.0011619
2845.26	0.0009581
2854.9	0.0010397
2864.55	0.0009907
2874.19	0.0009137
2883.84	0.00056578
2893.48	0.000843
2903.12	0.0010511
2912.77	0.0007128
2922.41	0.0004992
2932.06	0.00057054
2941.7	0.0006533
2951.35	0.0009862
2960.99	0.00056675
2970.64	0.0008296
2980.28	0.000415
2989.93	0.000328
2999.57	0.0006649
3009.22	0.000382
3018.86	0.0008692
3028.51	0.0008461
3038.15	0.0006401
3047.8	0.0012499
3057.44	0.000422
3067.09	0.001133
3076.73	0.001275
3086.38	0.0011119
3096.02	0.001534
3105.67	0.0010813
3115.31	0.0011187
3124.95	0.001221
3134.6	0.000943
3144.24	0.0008999
3153.89	0.0010175
3163.53	0.0008993
3173.18	0.0006963
3182.82	0.0008909
3192.47	0.001008
3202.11	0.0010203
3211.76	0.000351
3221.4	0.0008554
3231.05	0.000821
3240.69	0.0007522
3250.34	0.000904
3259.98	0.0009306
3269.63	0.0010056
3279.27	0.0008509
3288.92	0.000311
3298.56	0.00061397
3308.21	0.00057828
3317.85	0.00061047
3327.49	0.0010681
3337.14	0.0010028
3346.78	0.000384
3356.43	0.000361
3366.07	0.0010678
3375.72	0.0008506
3385.36	0.0003
3395.01	0.0008782
3404.65	0.0006385
3414.3	0.0009078
3423.94	0.00060394
3433.59	0.000711
3443.23	0.00013
3452.88	0.001544
3462.52	0.001085
3472.17	0.0008976
3481.81	0.0008438
3491.46	0.0010577
3501.1	0.00056783
3510.75	0.0011669
3520.39	0.001824
3530.04	0.0010604
3539.68	0.002414
3549.32	0.003214
3558.97	0.013194
3568.61	0.029984
3578.26	0.019544
3587.9	0.003024
3597.55	0.0014978
3607.19	0.0013897
3616.84	0.0012759
3626.48	0.001914
3636.13	0.0013395
3645.77	0.001644
3655.42	0.000847
3665.06	0.0007114
3674.71	0.0007662
3684.35	0.000761
3694	0.00058212
3703.64	0.0007492
3713.29	0.0011977
3722.93	0.0009234
3732.58	0.00061044
3742.22	0.0008498
3751.86	0.00062011
3761.51	0.00062014
3771.15	0.00038
3780.8	0.00039
3790.44	0.0012158
3800.09	0.0010167
3809.73	0.0007824
3819.38	0.0004847
3829.02	0.0005188
3838.67	0.0011407
3848.31	0.000362
3857.96	0.0008867
3867.6	0.00060372
3877.25	0.0006538
3886.89	0.0007832
3896.54	0.0005655
3906.18	0.0009252
3915.83	0.000424
3925.47	0
3935.12	0.0014342
3944.76	0.00034
3954.41	0.0011677
3964.05	0.0007547
3973.69	0.0005719
3983.34	0.0006529
3992.98	0.000819
