Infrared Spectrum: 5-Hydroxy-1-tetralone
Formula: C 10 H 10 O 2
CAS: 28315-93-7
State: gas
Origin: EPA-IR VAPOR PHASE LIBRARY
1/CM	ABSORBANCE
549.8	0.002149
559.445	0.002869
569.09	0.003419
578.734	0.0017417
588.379	0.0012256
598.024	0.002039
607.669	0.0017244
617.313	0.0015509
626.958	0.0015554
636.603	0.00102042
646.248	0.0011742
655.893	0.000829
665.537	0.000374
675.182	0.0015698
684.827	0.0017993
694.472	0.000475
704.116	0.0017412
713.761	0.002439
723.406	0.003579
733.051	0.003769
742.695	0.0011166
752.34	0.00103899
761.985	0.0013945
771.63	0.001883
781.275	0.003469
790.919	0.004469
800.564	0.003719
810.209	0.002179
819.854	0.002749
829.498	0.0013296
839.143	0.0011771
848.788	0.000806
858.433	0.0018728
868.078	0.0014688
877.722	0.0015552
887.367	0.002889
897.012	0.003999
906.657	0.003509
916.301	0.002639
925.946	0.003239
935.591	0.002119
945.236	0.0014032
954.88	0.0013987
964.525	0.00101329
974.17	0.0010724
983.815	0.0016667
993.46	0.0012024
1003.1	0.001754
1012.75	0.0017125
1022.39	0.0012495
1032.04	0.002039
1041.68	0.001871
1051.33	0.0013237
1060.97	0.0019118
1070.62	0.002839
1080.26	0.0014149
1089.91	0.002499
1099.55	0.007079
1109.2	0.004989
1118.84	0.00152
1128.49	0.002259
1138.13	0.002679
1147.78	0.003329
1157.42	0.004439
1167.07	0.004349
1176.71	0.006989
1186.36	0.010119
1196	0.010799
1205.64	0.009479
1215.29	0.005649
1224.93	0.003439
1234.58	0.002829
1244.22	0.003339
1253.87	0.006129
1263.51	0.010819
1273.16	0.015649
1282.8	0.014419
1292.45	0.009209
1302.09	0.005199
1311.74	0.004869
1321.38	0.006309
1331.03	0.004979
1340.67	0.002879
1350.32	0.002839
1359.96	0.0018972
1369.61	0.0014082
1379.25	0.0015463
1388.9	0.0012235
1398.54	0.0015206
1408.18	0.0014775
1417.83	0.002169
1427.47	0.002479
1437.12	0.002619
1446.76	0.003229
1456.41	0.004929
1466.05	0.005819
1475.7	0.004019
1485.34	0.002579
1494.99	0.0016457
1504.63	0.0013848
1514.28	0.0012999
1523.92	0.001342
1533.57	0.0013485
1543.21	0.0013308
1552.86	0.0015181
1562.5	0.002039
1572.15	0.003629
1581.79	0.005319
1591.44	0.004779
1601.08	0.003739
1610.73	0.003529
1620.37	0.002349
1630.01	0.0014203
1639.66	0.0015981
1649.3	0.0018034
1658.95	0.0016322
1668.59	0.001979
1678.24	0.002419
1687.88	0.004749
1697.53	0.011579
1707.17	0.018079
1716.82	0.013999
1726.46	0.005609
1736.11	0.002579
1745.75	0.001959
1755.4	0.0018329
1765.04	0.001677
1774.69	0.0018725
1784.33	0.0016412
1793.98	0.0012961
1803.62	0.001354
1813.27	0.0013827
1822.91	0.0011931
1832.55	0.0011092
1842.2	0.0012386
1851.84	0.0015074
1861.49	0.0011128
1871.13	0.0011253
1880.78	0.00098537
1890.42	0.00102077
1900.07	0.0012338
1909.71	0.0011434
1919.36	0.00102939
1929	0.0012448
1938.65	0.0013536
1948.29	0.0012903
1957.94	0.0010808
1967.58	0.001226
1977.23	0.0009318
1986.87	0.00098641
1996.52	0.00102729
2006.16	0.000815
2015.81	0.00102457
2025.45	0.0011044
2035.1	0.0011769
2044.74	0.00104351
2054.38	0.00100166
2064.03	0.0009307
2073.67	0.00103805
2083.32	0.0012584
2092.96	0.00104453
2102.61	0.0008941
2112.25	0.00096981
2121.9	0.0010603
2131.54	0.00103206
2141.19	0.0011373
2150.83	0.0011219
2160.48	0.0009229
2170.12	0.0011274
2179.77	0.00100817
2189.41	0.00094409
2199.06	0.0008695
2208.7	0.0009258
2218.35	0.0010772
2227.99	0.0010978
2237.64	0.0009158
2247.28	0.00083
2256.92	0.0008789
2266.57	0.00094568
2276.21	0.0010682
2285.86	0.0012351
2295.5	0.00094774
2305.15	0.0011778
2314.79	0.0010607
2324.44	0.00100616
2334.08	0.00103137
2343.73	0.0011214
2353.37	0.0012503
2363.02	0.0009361
2372.66	0.0011509
2382.31	0.0011461
2391.95	0.000788
2401.6	0.000715
2411.24	0.0009168
2420.89	0.00099935
2430.53	0.00098171
2440.18	0.00100233
2449.82	0.00104599
2459.47	0.0010721
2469.11	0.0012986
2478.75	0.00101567
2488.4	0.0010639
2498.04	0.000798
2507.69	0.0011124
2517.33	0.0008726
2526.98	0.0009327
2536.62	0.0008803
2546.27	0.0011855
2555.91	0.00099181
2565.56	0.000846
2575.2	0.000798
2584.85	0.0010596
2594.49	0.000795
2604.14	0.0012601
2613.78	0.0009103
2623.43	0.00100945
2633.07	0.0011752
2642.72	0.0008804
2652.36	0.00101433
2662.01	0.0009264
2671.65	0.000595
2681.29	0.000765
2690.94	0.0010939
2700.58	0.000427
2710.23	0.00078
2719.87	0.000689
2729.52	0.001131
2739.16	0.0009153
2748.81	0.000839
2758.45	0.000833
2768.1	0.000497
2777.74	0.000657
2787.39	0.0014085
2797.03	0.001108
2806.68	0.000807
2816.32	0.000835
2825.97	0.00069
2835.61	0.0016821
2845.26	0.002019
2854.9	0.0016453
2864.55	0.0019283
2874.19	0.002729
2883.84	0.002759
2893.48	0.003199
2903.12	0.003359
2912.77	0.002959
2922.41	0.002539
2932.06	0.003249
2941.7	0.004889
2951.35	0.006519
2960.99	0.006149
2970.64	0.003899
2980.28	0.0018807
2989.93	0.00094131
2999.57	0.00103513
3009.22	0.0016745
3018.86	0.0017155
3028.51	0.0013903
3038.15	0.0013525
3047.8	0.0011486
3057.44	0.0019145
3067.09	0.0018246
3076.73	0.002019
3086.38	0.002369
3096.02	0.0014213
3105.67	0.0014956
3115.31	0.000487
3124.95	0.0009349
3134.6	0.00101182
3144.24	0.000736
3153.89	0.0014252
3163.53	0.0010776
3173.18	0.000764
3182.82	0.0011328
3192.47	0.0013622
3202.11	0.0010782
3211.76	0.0014012
3221.4	0.0015845
3231.05	0.000884
3240.69	0.000459
3250.34	0.000666
3259.98	0.000845
3269.63	0.000464
3279.27	0.000784
3288.92	0.000741
3298.56	0.0008534
3308.21	0.0012028
3317.85	0.0013116
3327.49	0.000439
3337.14	0.0015322
3346.78	0.0010711
3356.43	0.0015146
3366.07	0.000489
3375.72	0.000718
3385.36	0.0011834
3395.01	0.0015699
3404.65	0.00081
3414.3	0.0010988
3423.94	0.00068
3433.59	0.0012908
3443.23	0.00099392
3452.88	0.0013166
3462.52	0.000828
3472.17	0.000834
3481.81	0.0012831
3491.46	0.000769
3501.1	0.0011213
3510.75	0.000751
3520.39	0.0012704
3530.04	0.0011063
3539.68	0.000844
3549.32	0.00101191
3558.97	0.000805
3568.61	0.001206
3578.26	0.0009291
3587.9	0.0008
3597.55	0.0008786
3607.19	0.0010894
3616.84	0.0013216
3626.48	0.0017453
3636.13	0.002039
3645.77	0.006489
3655.42	0.006439
3665.06	0.002459
3674.71	0.001979
3684.35	0.0008637
3694	0.000688
3703.64	0.000691
3713.29	0.000466
3722.93	0.000815
3732.58	0.0009107
3742.22	0.000465
3751.86	0.000728
3761.51	0.0009376
3771.15	0.0010959
3780.8	0.0010844
3790.44	0.00052
3800.09	0.000421
3809.73	0.00096386
3819.38	0.0015983
3829.02	0.0011619
3838.67	0.000839
3848.31	8.5e-05
3857.96	0.0009072
3867.6	0.001168
3877.25	0.0008712
3886.89	0.0009094
3896.54	0.000203
3906.18	0.000751
3915.83	0.000554
3925.47	0.00078
3935.12	0.00077
3944.76	0.0013029
3954.41	0.000729
3964.05	0.0009005
3973.69	0.000809
3983.34	0.0012352
3992.98	0.000584
