Infrared Spectrum: RHODANINE, 5,5'-METHYLIDYNEDI-
Formula: C7 H4 N2 O2 S4
CAS: 28320-43-6
State: SOLID (KBr PELLET)
Melting point: MORE THAN 380 C
Class: COBLENTZ
Instrument: Not specified, most likely a prism, grating, or hybrid spectrometer.
Sampling: TRANSMISSION
Resolution: 4
Origin: TENNESSEE EASTMAN COMPANY, RESEARCH LABORATORIES
MICROMETERS	TRANSMITTANCE
2	0.906
2.04112	0.906
2.08223	0.906
2.12335	0.906
2.16447	0.907
2.20558	0.909
2.2467	0.912
2.28781	0.918
2.32893	0.919
2.37005	0.923
2.41116	0.924
2.45228	0.928
2.4934	0.928
2.53451	0.928
2.57563	0.926
2.61674	0.926
2.65786	0.93
2.69898	0.921
2.74009	0.769
2.78121	0.568
2.82233	0.443
2.86344	0.378
2.90456	0.329
2.94568	0.356
2.98679	0.441
3.02791	0.525
3.06902	0.554
3.11014	0.552
3.15126	0.525
3.19237	0.477
3.23349	0.438
3.27461	0.428
3.31572	0.431
3.35684	0.54
3.39796	0.576
3.43907	0.631
3.48019	0.605
3.5213	0.583
3.56242	0.665
3.60354	0.706
3.64465	0.738
3.68577	0.766
3.72689	0.786
3.768	0.8
3.80912	0.815
3.85023	0.837
3.89135	0.851
3.93247	0.861
3.97358	0.87
4.0147	0.872
4.05582	0.87
4.09693	0.88
4.13805	0.892
4.17917	0.897
4.22028	0.912
4.2614	0.912
4.30251	0.912
4.34363	0.923
4.38475	0.943
4.42586	0.948
4.46698	0.953
4.5081	0.96
4.54921	0.96
4.59033	0.965
4.63145	0.965
4.67256	0.964
4.71368	0.962
4.75479	0.96
4.79591	0.96
4.83703	0.96
4.87814	0.962
4.91926	0.96
4.96038	0.964
5.00149	0.967
5.04261	0.969
5.08372	0.969
5.12484	0.969
5.16596	0.969
5.20707	0.97
5.24819	0.97
5.28931	0.972
5.33042	0.974
5.37154	0.974
5.41266	0.97
5.45377	0.969
5.49489	0.965
5.536	0.953
5.57712	0.936
5.61824	0.909
5.65935	0.854
5.70047	0.75
5.74159	0.619
5.7827	0.561
5.82382	0.525
5.86494	0.5
5.90605	0.5
5.94717	0.508
5.98828	0.489
6.0294	0.435
6.07052	0.414
6.11163	0.44
6.15275	0.47
6.19387	0.535
6.23498	0.576
6.2761	0.43
6.31721	0.25
6.35833	0.213
6.39945	0.31
6.44056	0.431
6.48168	0.438
6.5228	0.406
6.56391	0.414
6.60503	0.5
6.64615	0.558
6.68726	0.576
6.72838	0.597
6.76949	0.609
6.81061	0.614
6.85173	0.578
6.89284	0.445
6.93396	0.308
6.97508	0.298
7.01619	0.327
7.05731	0.298
7.09843	0.313
7.13954	0.433
7.18066	0.593
7.22177	0.67
7.26289	0.704
7.30401	0.716
7.34512	0.696
7.38624	0.638
7.42736	0.595
7.46847	0.605
7.50959	0.617
7.5507	0.597
7.59182	0.558
7.63294	0.534
7.67405	0.517
7.71517	0.525
7.75629	0.597
7.7974	0.655
7.83852	0.674
7.87964	0.674
7.92075	0.67
7.96187	0.662
8.00298	0.646
8.0441	0.616
8.08522	0.568
8.12633	0.47
8.16745	0.341
8.20857	0.213
8.24968	0.141
8.2908	0.107
8.33192	0.085
8.37303	0.081
8.41415	0.09
8.45526	0.133
8.49638	0.203
8.5375	0.31
8.57861	0.414
8.61973	0.554
8.66085	0.665
8.70196	0.72
8.74308	0.759
8.78419	0.774
8.82531	0.79
8.86643	0.793
8.90754	0.796
8.94866	0.798
8.98978	0.762
9.03089	0.682
9.07201	0.597
9.11313	0.598
9.15424	0.66
9.19536	0.692
9.23647	0.704
9.27759	0.691
9.31871	0.677
9.35982	0.672
9.40094	0.672
9.44206	0.686
9.48317	0.711
9.52429	0.732
9.56541	0.754
9.60652	0.791
9.64764	0.802
9.68875	0.819
9.72987	0.832
9.77099	0.837
9.8121	0.839
9.85322	0.843
9.89434	0.848
9.93545	0.853
9.97657	0.858
10.0177	0.86
10.0588	0.861
10.0999	0.866
10.141	0.868
10.1821	0.872
10.2233	0.877
10.2644	0.883
10.3055	0.89
10.3466	0.895
10.3877	0.901
10.4288	0.904
10.47	0.904
10.5111	0.907
10.5522	0.909
10.5933	0.909
10.6344	0.909
10.6755	0.911
10.7167	0.911
10.7578	0.912
10.7989	0.912
10.84	0.912
10.8811	0.912
10.9222	0.911
10.9634	0.906
11.0045	0.901
11.0456	0.895
11.0867	0.894
11.1278	0.892
11.1689	0.894
11.2101	0.895
11.2512	0.895
11.2923	0.897
11.3334	0.897
11.3745	0.897
11.4156	0.897
11.4568	0.897
11.4979	0.897
11.539	0.899
11.5801	0.899
11.6212	0.897
11.6623	0.899
11.7035	0.899
11.7446	0.899
11.7857	0.899
11.8268	0.899
11.8679	0.899
11.909	0.899
11.9502	0.899
11.9913	0.899
12.0324	0.899
12.0735	0.897
12.1146	0.897
12.1557	0.89
12.1969	0.887
12.238	0.885
12.2791	0.88
12.3202	0.872
12.3613	0.865
12.4024	0.861
12.4435	0.854
12.4847	0.844
12.5258	0.834
12.5669	0.824
12.608	0.812
12.6491	0.798
12.6902	0.779
12.7314	0.755
12.7725	0.732
12.8136	0.723
12.8547	0.725
12.8958	0.74
12.9369	0.752
12.9781	0.762
13.0192	0.767
13.0603	0.773
13.1014	0.776
13.1425	0.779
13.1836	0.783
13.2248	0.783
13.2659	0.783
13.307	0.783
13.3481	0.784
13.3892	0.784
13.4303	0.786
13.4715	0.786
13.5126	0.786
13.5537	0.788
13.5948	0.79
13.6359	0.79
13.677	0.796
13.7182	0.803
13.7593	0.808
13.8004	0.813
13.8415	0.817
13.8826	0.819
13.9237	0.82
13.9649	0.822
14.006	0.824
14.0471	0.822
14.0882	0.817
14.1293	0.8
14.1704	0.778
14.2116	0.767
14.2527	0.749
14.2938	0.728
14.3349	0.703
14.376	0.679
14.4171	0.643
14.4582	0.609
14.4994	0.58
14.5405	0.564
14.5816	0.559
14.6227	0.563
14.6638	0.575
14.7049	0.597
14.7461	0.621
14.7872	0.641
14.8283	0.662
14.8694	0.677
14.9105	0.699
14.9516	0.703
14.9928	0.713
15.0339	0.723
15.075	0.747
15.1161	0.764
15.1572	0.771
15.1983	0.771
15.2395	0.769
15.2806	0.769
15.3217	0.769
15.3628	0.761
15.4039	0.754
15.445	0.744
15.4862	0.742
15.5273	0.738
15.5684	0.74
15.6095	0.738
15.6506	0.735
15.6917	0.733
15.7329	0.732
15.774	0.726
15.8151	0.718
15.8562	0.708
15.8973	0.699
15.9384	0.691
