Infrared Spectrum: Disperse yellow 3
Formula: C 15 H 15 N 3 O 2
CAS: 2832-40-8
State: solid
Instrument: Bruker Tensor 37 FTIR
Resolution: 0.96450084
Origin: Pacific Northwest National Laboratory Under IARPA Contract
1/cm	Reflectance
7498.99	0.53192
7481.63	0.529775
7464.27	0.531986
7446.91	0.527813
7429.55	0.529332
7412.19	0.526253
7394.84	0.521738
7377.48	0.519696
7360.12	0.521418
7342.76	0.520239
7325.4	0.514664
7308.04	0.510547
7290.68	0.50147
7273.32	0.500136
7255.96	0.498414
7238.6	0.501045
7221.24	0.508736
7203.88	0.50699
7186.52	0.510148
7169.16	0.512806
7151.8	0.512149
7134.44	0.519467
7117.08	0.517267
7099.72	0.518954
7082.36	0.516747
7065	0.514216
7047.64	0.509002
7030.28	0.517293
7012.92	0.525558
6995.56	0.53101
6978.2	0.531365
6960.84	0.530986
6943.48	0.532499
6926.12	0.537207
6908.76	0.537233
6891.4	0.538804
6874.04	0.536801
6856.68	0.535545
6839.32	0.531446
6821.96	0.522441
6804.6	0.499987
6787.24	0.471273
6769.88	0.45324
6752.52	0.435533
6735.16	0.411709
6717.8	0.418372
6700.44	0.434463
6683.08	0.437489
6665.72	0.463444
6648.36	0.459173
6631	0.459049
6613.64	0.4557
6596.28	0.464523
6578.92	0.464288
6561.56	0.472569
6544.2	0.490171
6526.85	0.495265
6509.49	0.496576
6492.13	0.495756
6474.77	0.493374
6457.41	0.489918
6440.05	0.487226
6422.69	0.476047
6405.33	0.461343
6387.97	0.407771
6370.61	0.351923
6353.25	0.340441
6335.89	0.345333
6318.53	0.356327
6301.17	0.36935
6283.81	0.381809
6266.45	0.389807
6249.09	0.403493
6231.73	0.36273
6214.37	0.400075
6197.01	0.332391
6179.65	0.410576
6162.29	0.414609
6144.93	0.395729
6127.57	0.38632
6110.21	0.359645
6092.85	0.321559
6075.49	0.312404
6058.13	0.298665
6040.77	0.315728
6023.41	0.343334
6006.05	0.333289
5988.69	0.331135
5971.33	0.2987
5953.97	0.256034
5936.61	0.252106
5919.25	0.230397
5901.89	0.227885
5884.53	0.24851
5867.17	0.251264
5849.81	0.245427
5832.45	0.256439
5815.09	0.262928
5797.73	0.225864
5780.37	0.220615
5763.01	0.21027
5745.65	0.211491
5728.29	0.219686
5710.93	0.227145
5693.57	0.241153
5676.21	0.245092
5658.86	0.242761
5641.5	0.243483
5624.14	0.223943
5606.78	0.194205
5589.42	0.121773
5572.06	0.0624236
5554.7	0.0483562
5537.34	0.042773
5519.98	0.0391178
5502.62	0.036852
5485.26	0.035009
5467.9	0.0346673
5450.54	0.0349583
5433.18	0.0302908
5415.82	0.035358
5398.46	0.0377172
5381.1	0.0432954
5363.74	0.0456198
5346.38	0.0491563
5329.02	0.0588989
5311.66	0.0550387
5294.3	0.0553006
5276.94	0.0449952
5259.58	0.0496182
5242.22	0.0543881
5224.86	0.0434816
5207.5	0.0377811
5190.14	0.0503704
5172.78	0.0525576
5155.42	0.0735347
5138.06	0.0722876
5120.7	0.0694406
5103.34	0.0809081
5085.98	0.0767685
5068.62	0.0738851
5051.26	0.0846092
5033.9	0.084333
5016.54	0.0906099
4999.18	0.0969085
4981.82	0.10778
4964.46	0.111309
4947.1	0.108138
4929.74	0.12277
4912.38	0.129282
4895.02	0.128733
4877.66	0.124315
4860.3	0.12813
4842.94	0.129651
4825.58	0.136328
4808.22	0.142989
4790.86	0.135604
4773.51	0.149956
4756.15	0.156133
4738.79	0.15798
4721.43	0.135844
4704.07	0.0924248
4686.71	0.132408
4669.35	0.12574
4651.99	0.109202
4634.63	0.085557
4617.27	0.0881135
4599.91	0.0236047
4582.55	0.0337201
4565.19	0.0284134
4547.83	0.0271098
4530.47	0.0307232
4513.11	0.028855
4495.75	0.0302956
4478.39	0.032609
4461.03	0.0253667
4443.67	0.0294363
4426.31	0.0298997
4408.95	0.027077
4391.59	0.0264167
4374.23	0.0248103
4356.87	0.0258518
4339.51	0.0301053
4322.15	0.0316903
4304.79	0.0328486
4287.43	0.0334172
4270.07	0.0286954
4252.71	0.033384
4235.35	0.0584145
4217.99	0.0675421
4200.63	0.0386815
4183.27	0.0424825
4165.91	0.028037
4148.55	0.0386177
4131.19	0.0382792
4113.83	0.0372107
4096.47	0.0282018
4079.11	0.0267977
4061.75	0.0287767
4044.39	0.533077
4027.03	0.530865
4009.67	0.52935
3992.31	0.527616
3974.95	0.528275
3957.59	0.523309
3940.23	0.523076
3922.87	0.52297
3905.52	0.520526
3888.16	0.511213
3870.8	0.510977
3853.44	0.506099
3836.08	0.497381
3818.72	0.494738
3801.36	0.497363
3784	0.497869
3766.64	0.502544
3749.28	0.503024
3731.92	0.508698
3714.56	0.508878
3697.2	0.511752
3679.84	0.516094
3662.48	0.51538
3645.12	0.519047
3627.76	0.513989
3610.4	0.513048
3593.04	0.513971
3575.68	0.518751
3558.32	0.52874
3540.96	0.528344
3523.6	0.529614
3506.24	0.531553
3488.88	0.535002
3471.52	0.536728
3454.16	0.538834
3436.8	0.539339
3419.44	0.536627
3402.08	0.53707
3384.72	0.53116
3367.36	0.520125
3350	0.493781
3332.64	0.477709
3315.28	0.447535
3297.92	0.433179
3280.56	0.416208
3263.2	0.428407
3245.84	0.446826
3228.48	0.450631
3211.12	0.469605
3193.76	0.459732
3176.4	0.463276
3159.04	0.461873
3141.68	0.469382
3124.32	0.465505
3106.96	0.483582
3089.6	0.494168
3072.24	0.497581
3054.88	0.496828
3037.53	0.497526
3020.17	0.494287
3002.81	0.49148
2985.45	0.486761
2968.09	0.474421
2950.73	0.449524
2933.37	0.381971
2916.01	0.338213
2898.65	0.333192
2881.29	0.339328
2863.93	0.350946
2846.57	0.3675
2829.21	0.378505
2811.85	0.394545
2794.49	0.397718
2777.13	0.374605
2759.77	0.393494
2742.41	0.374988
2725.05	0.411743
2707.69	0.412226
2690.33	0.385975
2672.97	0.380201
2655.61	0.349928
2638.25	0.322786
2620.89	0.307056
2603.53	0.310559
2586.17	0.333308
2568.81	0.347771
2551.45	0.33681
2534.09	0.328695
2516.73	0.28653
2499.37	0.256187
2482.01	0.254653
2464.65	0.228407
2447.29	0.248224
2429.93	0.250139
2412.57	0.261037
2395.21	0.247988
2377.85	0.263247
2360.49	0.259892
2343.13	0.209447
2325.77	0.215429
2308.41	0.203428
2291.05	0.215932
2273.69	0.218759
2256.33	0.233126
2238.97	0.243457
2221.61	0.247168
2204.25	0.241749
2186.89	0.24015
2169.53	0.213338
2152.18	0.177783
2134.82	0.090155
2117.46	0.0527063
2100.1	0.0438912
2082.74	0.0390356
2065.38	0.0354442
2048.02	0.0341987
2030.66	0.0334012
2013.3	0.0331402
1995.94	0.0333242
1978.58	0.0274864
1961.22	0.0354105
1943.86	0.0373474
1926.5	0.0432499
1909.14	0.0454978
1891.78	0.0513513
1874.42	0.0566018
1857.06	0.0518435
1839.7	0.0524647
1822.34	0.0469276
1804.98	0.0523807
1787.62	0.0479314
1770.26	0.0421091
1752.9	0.0432886
1735.54	0.0459379
1718.18	0.0620566
1700.82	0.0734375
1683.46	0.0746096
1666.1	0.0726217
1648.74	0.0808027
1631.38	0.0751787
1614.02	0.0747917
1596.66	0.0870484
1579.3	0.0834385
1561.94	0.092895
1544.58	0.0980168
1527.22	0.108434
1509.86	0.111548
1492.5	0.112992
1475.14	0.129381
1457.78	0.12796
1440.42	0.1218
1423.06	0.126969
1405.7	0.129246
1388.34	0.130162
1370.98	0.136373
1353.62	0.139035
1336.26	0.137374
1318.9	0.15257
1301.54	0.153905
1284.19	0.147799
1266.83	0.129293
1249.47	0.0971013
1232.11	0.130374
1214.75	0.129986
1197.39	0.0980101
1180.03	0.0882227
1162.67	0.0688805
1145.31	0.0275569
1127.95	0.0314765
1110.59	0.0248466
1093.23	0.0273832
1075.87	0.0247433
1058.51	0.0284509
1041.15	0.0308214
1023.79	0.0277107
1006.43	0.0281577
989.068	0.0245785
971.709	0.0290652
954.349	0.0252502
936.989	0.023525
919.629	0.0244586
902.269	0.0257036
884.91	0.0290221
867.55	0.0316984
850.19	0.0318806
832.83	0.0292032
815.47	0.0299193
798.111	0.0368873
780.751	0.0515763
763.391	0.0648113
746.031	0.0434766
728.671	0.0295168
711.312	0.0222084
693.952	0.0260036
676.592	0.0337405
659.232	0.0295777
641.872	0.0246256
624.513	0.0253587
607.153	0.0297727
