Infrared Spectrum: 2-AMINO-4-(4-BIPHENYL)THIAZOLE
Formula: C15 H12 N2 S
CAS: 2834-79-9
State: SOLID (OIL MULL)
Melting point: 206-208 C
Class: COBLENTZ
Instrument: Not specified, most likely a prism, grating, or hybrid spectrometer.
Sampling: TRANSMISSION
Resolution: 4
Origin: WYANDOTTE CHEMICALS CORP., WYANDOTTE, MICHIGAN, USA
MICROMETERS	TRANSMITTANCE
2.031	0.103
2.07081	0.093
2.11063	0.086
2.15044	0.098
2.19026	0.096
2.23007	0.096
2.26989	0.101
2.3097	0.1
2.34951	0.101
2.38933	0.096
2.42914	0.098
2.46896	0.103
2.50877	0.111
2.54859	0.125
2.5884	0.13
2.62821	0.133
2.66803	0.14
2.70784	0.143
2.74766	0.148
2.78747	0.158
2.82728	0.166
2.8671	0.166
2.90691	0.121
2.94673	0.086
2.98654	0.105
3.02636	0.101
3.06617	0.066
3.10598	0.101
3.1458	0.045
3.18561	0.023
3.22543	0.021
3.26524	0.031
3.30506	0.035
3.34487	0.02
3.38468	0.008
3.4245	0.02
3.46431	0.021
3.50413	0.023
3.54394	0.123
3.58376	0.212
3.62357	0.233
3.66338	0.213
3.7032	0.248
3.74301	0.253
3.78283	0.255
3.82264	0.283
3.86246	0.292
3.90227	0.307
3.94208	0.325
3.9819	0.338
4.02171	0.347
4.06153	0.358
4.10134	0.365
4.14115	0.368
4.18097	0.377
4.22078	0.375
4.2606	0.36
4.30041	0.368
4.34023	0.383
4.38004	0.415
4.41985	0.425
4.45967	0.429
4.49948	0.435
4.5393	0.449
4.57911	0.452
4.61893	0.457
4.65874	0.47
4.69855	0.475
4.73837	0.487
4.77818	0.499
4.818	0.504
4.85781	0.504
4.89763	0.52
4.93744	0.534
4.97725	0.539
5.01707	0.554
5.05688	0.55
5.0967	0.539
5.13651	0.537
5.17633	0.547
5.21614	0.567
5.25595	0.555
5.29577	0.567
5.33558	0.58
5.3754	0.602
5.41521	0.632
5.45503	0.627
5.49484	0.614
5.53465	0.622
5.57447	0.627
5.61428	0.661
5.6541	0.632
5.69391	0.654
5.73372	0.662
5.77354	0.704
5.81335	0.699
5.85317	0.669
5.89298	0.652
5.9328	0.654
5.97261	0.652
6.01242	0.575
6.05224	0.352
6.09205	0.028
6.13187	0.121
6.17168	0.308
6.2115	0.322
6.25131	0.519
6.29112	0.537
6.33094	0.58
6.37075	0.47
6.41057	0.303
6.45038	0.128
6.4902	0.058
6.53001	0.043
6.56982	0.086
6.60964	0.185
6.64945	0.268
6.68927	0.202
6.72908	0.041
6.7689	0.066
6.80871	0.056
6.84852	0.096
6.88834	0.158
6.92815	0.302
6.96797	0.502
7.00778	0.527
7.04759	0.373
7.08741	0.163
7.12722	0.245
7.16704	0.325
7.20685	0.213
7.24667	0.156
7.28648	0.273
7.32629	0.365
7.36611	0.368
7.40592	0.308
7.44574	0.19
7.48555	0.02
7.52537	0.121
7.56518	0.268
7.60499	0.263
7.64481	0.131
7.68462	0.305
7.72444	0.263
7.76425	0.268
7.80407	0.385
7.84388	0.424
7.88369	0.43
7.92351	0.502
7.96332	0.55
8.00314	0.604
8.04295	0.624
8.08277	0.646
8.12258	0.664
8.16239	0.672
8.20221	0.667
8.24202	0.644
8.28184	0.611
8.32165	0.342
8.36146	0.485
8.40128	0.529
8.44109	0.617
8.48091	0.592
8.52072	0.626
8.56054	0.647
8.60035	0.636
8.64016	0.587
8.67998	0.661
8.71979	0.666
8.75961	0.649
8.79942	0.649
8.83924	0.606
8.87905	0.47
8.91886	0.469
8.95868	0.419
8.99849	0.534
9.03831	0.719
9.07812	0.776
9.11794	0.791
9.15775	0.792
9.19756	0.784
9.23738	0.634
9.27719	0.711
9.31701	0.779
9.35682	0.791
9.39664	0.782
9.43645	0.747
9.47626	0.674
9.51608	0.414
9.55589	0.232
9.59571	0.38
9.63552	0.275
9.67534	0.322
9.71515	0.535
9.75496	0.587
9.79478	0.36
9.83459	0.522
9.87441	0.59
9.91422	0.362
9.95403	0.555
9.99385	0.661
10.0337	0.704
10.0735	0.722
10.1133	0.739
10.1531	0.751
10.1929	0.747
10.2327	0.704
10.2725	0.619
10.3124	0.661
10.3522	0.729
10.392	0.747
10.4318	0.751
10.4716	0.731
10.5114	0.744
10.5512	0.769
10.5911	0.777
10.6309	0.779
10.6707	0.792
10.7105	0.801
10.7503	0.806
10.7901	0.806
10.8299	0.767
10.8698	0.572
10.9096	0.626
10.9494	0.746
10.9892	0.764
11.029	0.676
11.0688	0.534
11.1086	0.666
11.1485	0.769
11.1883	0.803
11.2281	0.834
11.2679	0.854
11.3077	0.878
11.3475	0.883
11.3873	0.884
11.4272	0.891
11.467	0.888
11.5068	0.878
11.5466	0.856
11.5864	0.823
11.6262	0.722
11.666	0.388
11.7059	0.141
11.7457	0.075
11.7855	0.183
11.8253	0.43
11.8651	0.477
11.9049	0.387
11.9447	0.472
11.9846	0.467
12.0244	0.265
12.0642	0.283
12.104	0.494
12.1438	0.636
12.1836	0.732
12.2234	0.799
12.2633	0.834
12.3031	0.849
12.3429	0.878
12.3827	0.899
12.4225	0.911
12.4623	0.914
12.5021	0.924
12.542	0.934
12.5818	0.928
12.6216	0.943
12.6614	0.948
12.7012	0.954
12.741	0.949
12.7808	0.929
12.8207	0.878
12.8605	0.786
12.9003	0.524
12.9401	0.108
12.9799	0.025
13.0197	0.11
13.0595	0.377
13.0994	0.602
13.1392	0.717
13.179	0.772
13.2188	0.792
13.2586	0.777
13.2984	0.679
13.3382	0.447
13.3781	0.29
13.4179	0.383
13.4577	0.383
13.4975	0.217
13.5373	0.028
13.5771	0.011
13.6169	0.058
13.6568	0.176
13.6966	0.363
13.7364	0.477
13.7762	0.524
13.816	0.554
13.8558	0.572
13.8956	0.574
13.9355	0.575
13.9753	0.572
14.0151	0.539
14.0549	0.46
14.0947	0.333
14.1345	0.18
14.1743	0.063
14.2142	0.031
14.254	0.028
14.2938	0.025
14.3336	0.025
14.3734	0.048
14.4132	0.126
14.453	0.22
14.4929	0.32
14.5327	0.398
14.5725	0.46
14.6123	0.51
14.6521	0.529
14.6919	0.55
14.7317	0.539
14.7716	0.47
14.8114	0.398
14.8512	0.352
14.891	0.385
14.9308	0.477
14.9706	0.562
15.0104	0.58
15.0503	0.575
15.0901	0.585
15.1299	0.622
15.1697	0.649
15.2095	0.669
15.2493	0.662
15.2891	0.667
15.329	0.659
15.3688	0.649
15.4086	0.637
15.4484	0.621
15.4882	0.611
15.528	0.607
15.5678	0.594
15.6077	0.577
15.6475	0.565
15.6873	0.535
15.7271	0.507
15.7669	0.485
15.8067	0.469
15.8465	0.454
15.8864	0.449
15.9262	0.437
15.966	0.432
16.0058	0.422
