Infrared Spectrum: 11-Bromoundecanoic acid
Formula: C 11 H 21 Br O 2
CAS: 2834-05-1
State: gas
Instrument: HP-GC/MS/IRD
Origin: NIST Mass Spectrometry Data Center
1/CM	ABSORBANCE
550	0.009478
562	0.018438
574	0.018844
586	0.01764
598	0.018144
610	0.018242
622	0.01736
634	0.016156
646	0.014196
658	0.010318
670	0.006342
682	0.005138
694	0.004956
706	0.005642
718	0.006762
730	0.006636
742	0.005614
754	0.004298
766	0.002744
778	0.001806
790	0.001134
802	0.000882
814	0.000728
826	0.000518
838	0.000658
850	0.000924
862	0.001134
874	0.00133
886	0.001218
898	0.001064
910	0.00091
922	0.000896
934	0.00105
946	0.001218
958	0.001442
970	0.001694
982	0.002058
994	0.002744
1006	0.003906
1018	0.005474
1030	0.007322
1042	0.00938
1054	0.01281
1066	0.018942
1078	0.027342
1090	0.035098
1102	0.042532
1114	0.052052
1126	0.051898
1138	0.044534
1150	0.035924
1162	0.028182
1174	0.023156
1186	0.019894
1198	0.018004
1210	0.017304
1222	0.017066
1234	0.016534
1246	0.017332
1258	0.018662
1270	0.017066
1282	0.01484
1294	0.012866
1306	0.011074
1318	0.009506
1330	0.009492
1342	0.012222
1354	0.015484
1366	0.016338
1378	0.01624
1390	0.012936
1402	0.008148
1414	0.006566
1426	0.00833
1438	0.01204
1450	0.014574
1462	0.015736
1474	0.008176
1486	0.002954
1498	0.001386
1510	0.000714
1522	0.000406
1534	0.000196
1546	0.000112
1558	7e-05
1570	4.2e-05
1582	0
1594	1.4e-05
1606	4.2e-05
1618	9.8e-05
1630	0.000168
1642	0.000252
1654	0.000448
1666	0.0007
1678	0.001106
1690	0.001834
1702	0.003164
1714	0.005684
1726	0.01092
1738	0.02128
1750	0.039088
1762	0.067004
1774	0.104426
1786	0.085344
1798	0.047796
1810	0.02345
1822	0.010024
1834	0.004718
1846	0.002646
1858	0.001708
1870	0.001204
1882	0.000966
1894	0.000826
1906	0.0007
1918	0.000672
1930	0.000616
1942	0.000588
1954	0.000546
1966	0.000518
1978	0.00049
1990	0.000518
2002	0.00049
2014	0.000532
2026	0.000574
2038	0.000574
2050	0.000588
2062	0.00056
2074	0.000504
2086	0.000532
2098	0.000518
2110	0.000546
2122	0.000546
2134	0.000588
2146	0.000644
2158	0.000658
2170	0.000728
2182	0.000756
2194	0.000742
2206	0.000784
2218	0.00077
2230	0.000756
2242	0.000742
2254	0.000728
2266	0.000686
2278	0.00063
2290	0.000616
2302	0.000602
2314	0.000602
2326	0.000588
2338	0.000602
2350	0.000588
2362	0.000616
2374	0.00063
2386	0.000658
2398	0.000616
2410	0.000602
2422	0.000588
2434	0.000574
2446	0.000574
2458	0.000588
2470	0.000532
2482	0.000588
2494	0.000588
2506	0.000602
2518	0.000616
2530	0.000672
2542	0.000714
2554	0.000672
2566	0.000672
2578	0.0007
2590	0.00077
2602	0.000868
2614	0.000952
2626	0.001092
2638	0.001274
2650	0.0014
2662	0.001554
2674	0.001778
2686	0.001904
2698	0.001862
2710	0.00168
2722	0.001624
2734	0.001638
2746	0.001694
2758	0.00189
2770	0.002086
2782	0.00252
2794	0.003192
2806	0.004102
2818	0.0056
2830	0.008288
2842	0.01421
2854	0.032452
2866	0.055062
2878	0.037422
2890	0.028126
2902	0.034888
2914	0.057246
2926	0.107996
2938	0.14
2950	0.092036
2962	0.047754
2974	0.030548
2986	0.016954
2998	0.010766
3010	0.010136
3022	0.006944
3034	0.003948
3046	0.002828
3058	0.002184
3070	0.001806
3082	0.001512
3094	0.001288
3106	0.001134
3118	0.001064
3130	0.000938
3142	0.000966
3154	0.000952
3166	0.000882
3178	0.000868
3190	0.000798
3202	0.000714
3214	0.000672
3226	0.000616
3238	0.000588
3250	0.000574
3262	0.00056
3274	0.000588
3286	0.000588
3298	0.000588
3310	0.000574
3322	0.00056
3334	0.000588
3346	0.000616
3358	0.000616
3370	0.000672
3382	0.000658
3394	0.000756
3406	0.000728
3418	0.000756
3430	0.000784
3442	0.000812
3454	0.000882
3466	0.000938
3478	0.001064
3490	0.001218
3502	0.001428
3514	0.001834
3526	0.002352
3538	0.003472
3550	0.0056
3562	0.014616
3574	0.043582
3586	0.017864
3598	0.005418
3610	0.00273
3622	0.001918
3634	0.001624
3646	0.00133
3658	0.001176
3670	0.001134
3682	0.00098
3694	0.001008
3706	0.000924
3718	0.000966
3730	0.000882
3742	0.00091
3754	0.000994
3766	0.000938
3778	0.000896
3790	0.000966
3802	0.000938
3814	0.000952
3826	0.000994
3838	0.001008
