Infrared Spectrum: Methyl 4-(p-nitrophenoxy)butyrate
Formula: C 11 H 13 N O 5
CAS: 28341-53-9
State: gas
Origin: EPA-IR VAPOR PHASE LIBRARY
1/CM	ABSORBANCE
549.8	0.0005211
559.445	0.0006732
569.09	0.0006162
578.734	0.0010853
588.379	0.001452
598.024	0.002702
607.669	0.004262
617.313	0.006632
626.958	0.006222
636.603	0.007702
646.248	0.011152
655.893	0.010122
665.537	0.004892
675.182	0.005252
684.827	0.006572
694.472	0.005132
704.116	0.003492
713.761	0.002072
723.406	0.002002
733.051	0.002972
742.695	0.007282
752.34	0.010672
761.985	0.005222
771.63	0.002872
781.275	0.002562
790.919	0.002952
800.564	0.003512
810.209	0.004232
819.854	0.006542
829.498	0.012112
839.143	0.022372
848.788	0.030752
858.433	0.038632
868.078	0.017112
877.722	0.009192
887.367	0.006272
897.012	0.004572
906.657	0.003792
916.301	0.003902
925.946	0.005682
935.591	0.009902
945.236	0.013782
954.88	0.011122
964.525	0.007922
974.17	0.008182
983.815	0.009412
993.46	0.011992
1003.1	0.015882
1012.75	0.018192
1022.39	0.023142
1032.04	0.031682
1041.68	0.037292
1051.33	0.032852
1060.97	0.021752
1070.62	0.016612
1080.26	0.016712
1089.91	0.019292
1099.55	0.023222
1109.2	0.038142
1118.84	0.025052
1128.49	0.013682
1138.13	0.015442
1147.78	0.025272
1157.42	0.049142
1167.07	0.096252
1176.71	0.086682
1186.36	0.065432
1196	0.058162
1205.64	0.054642
1215.29	0.056072
1224.93	0.066562
1234.58	0.089432
1244.22	0.123722
1253.87	0.153292
1263.51	0.104262
1273.16	0.052912
1282.8	0.038012
1292.45	0.043742
1302.09	0.037322
1311.74	0.032192
1321.38	0.041762
1331.03	0.052602
1340.67	0.095522
1350.32	0.137472
1359.96	0.071202
1369.61	0.039322
1379.25	0.024242
1388.9	0.017322
1398.54	0.012242
1408.18	0.009812
1417.83	0.011222
1427.47	0.016262
1437.12	0.026372
1446.76	0.024832
1456.41	0.018962
1466.05	0.022162
1475.7	0.033632
1485.34	0.033532
1494.99	0.076272
1504.63	0.051372
1514.28	0.032362
1523.92	0.053692
1533.57	0.084712
1543.21	0.065372
1552.86	0.032062
1562.5	0.020352
1572.15	0.020852
1581.79	0.038882
1591.44	0.083672
1601.08	0.073732
1610.73	0.042522
1620.37	0.021342
1630.01	0.009032
1639.66	0.005782
1649.3	0.004642
1658.95	0.003842
1668.59	0.003352
1678.24	0.003082
1687.88	0.003452
1697.53	0.004262
1707.17	0.006202
1716.82	0.009792
1726.46	0.016872
1736.11	0.029192
1745.75	0.049872
1755.4	0.073232
1765.04	0.067772
1774.69	0.042112
1784.33	0.022942
1793.98	0.010962
1803.62	0.005542
1813.27	0.003412
1822.91	0.002362
1832.55	0.001832
1842.2	0.001622
1851.84	0.001592
1861.49	0.001622
1871.13	0.001952
1880.78	0.002132
1890.42	0.002382
1900.07	0.002602
1909.71	0.002552
1919.36	0.002102
1929	0.001642
1938.65	0.001562
1948.29	0.001542
1957.94	0.001692
1967.58	0.001782
1977.23	0.001922
1986.87	0.001842
1996.52	0.001952
2006.16	0.002042
2015.81	0.002232
2025.45	0.002192
2035.1	0.002152
2044.74	0.002182
2054.38	0.002052
2064.03	0.001972
2073.67	0.001872
2083.32	0.001682
2092.96	0.001472
2102.61	0.001482
2112.25	0.001412
2121.9	0.0011928
2131.54	0.0009949
2141.19	0.0008937
2150.83	0.0007866
2160.48	0.0006667
2170.12	0.0006564
2179.77	0.000533
2189.41	0.0005967
2199.06	0.0006403
2208.7	0.0006955
2218.35	0.0007758
2227.99	0.0007661
2237.64	0.0005732
2247.28	0.0006333
2256.92	0.0006319
2266.57	0.0007702
2276.21	0.0008108
2285.86	0.0008058
2295.5	0.0007002
2305.15	0.0007932
2314.79	0.0007406
2324.44	0.0007229
2334.08	0.0007421
2343.73	0.0006979
2353.37	0.0008424
2363.02	0.0009473
2372.66	0.0008805
2382.31	0.0009738
2391.95	0.0010052
2401.6	0.0010059
2411.24	0.0010046
2420.89	0.0011312
2430.53	0.0011669
2440.18	0.001352
2449.82	0.001792
2459.47	0.001892
2469.11	0.001632
2478.75	0.001412
2488.4	0.001262
2498.04	0.001362
2507.69	0.0012349
2517.33	0.0011526
2526.98	0.0011521
2536.62	0.001282
2546.27	0.001422
2555.91	0.001512
2565.56	0.001402
2575.2	0.001512
2584.85	0.001542
2594.49	0.001332
2604.14	0.001382
2613.78	0.001352
2623.43	0.0012482
2633.07	0.0011274
2642.72	0.0011094
2652.36	0.0009893
2662.01	0.0009702
2671.65	0.0009128
2681.29	0.0008918
2690.94	0.0008698
2700.58	0.0010554
2710.23	0.0011147
2719.87	0.0008894
2729.52	0.0009506
2739.16	0.0010526
2748.81	0.0011906
2758.45	0.001177
2768.1	0.0012196
2777.74	0.0012018
2787.39	0.0012341
2797.03	0.001272
2806.68	0.0012411
2816.32	0.001602
2825.97	0.002082
2835.61	0.003052
2845.26	0.004912
2854.9	0.006352
2864.55	0.006392
2874.19	0.007482
2883.84	0.009102
2893.48	0.010182
2903.12	0.010662
2912.77	0.010702
2922.41	0.011782
2932.06	0.015092
2941.7	0.019632
2951.35	0.024332
2960.99	0.031692
2970.64	0.024092
2980.28	0.016252
2989.93	0.010842
2999.57	0.008302
3009.22	0.006522
3018.86	0.005482
3028.51	0.004502
3038.15	0.003852
3047.8	0.003162
3057.44	0.002862
3067.09	0.002862
3076.73	0.003592
3086.38	0.005072
3096.02	0.004332
3105.67	0.001862
3115.31	0.001532
3124.95	0.001262
3134.6	0.0008406
3144.24	0.0005158
3153.89	0.0005008
3163.53	0.0005906
3173.18	0.0005064
3182.82	0.0005239
3192.47	0.0005528
3202.11	0.0009085
3211.76	0.0008025
3221.4	0.0006672
3231.05	0.0004414
3240.69	0.00024331
3250.34	0.0002268
3259.98	0.0002292
3269.63	0.0001628
3279.27	0.0002193
3288.92	0.0002017
3298.56	0.00028119
3308.21	0.0003762
3317.85	0.00030328
3327.49	0.0001904
3337.14	0.00014
3346.78	0.000126
3356.43	0.0002263
3366.07	0.00029696
3375.72	0.00030342
3385.36	0.0001534
3395.01	0.0001873
3404.65	0.0001936
3414.3	0.0001566
3423.94	0.0002233
3433.59	0.0001653
3443.23	0.0003781
3452.88	0.0003723
3462.52	0.00033623
3472.17	0.0005685
3481.81	0.0007971
3491.46	0.0008927
3501.1	0.0010736
3510.75	0.000884
3520.39	0.0005196
3530.04	0.0005265
3539.68	0.0003716
3549.32	0.0004001
3558.97	0.000256552
3568.61	0.000138
3578.26	0.0003648
3587.9	0.00024432
3597.55	0.0002094
3607.19	0.0002014
3616.84	6.1e-05
3626.48	0.00029651
3636.13	0.000271
3645.77	0.0001
3655.42	0.0001577
3665.06	0.00027604
3674.71	0.0001531
3684.35	0.0001985
3694	0.00033109
3703.64	0.00013
3713.29	0.000379
3722.93	0.000256658
3732.58	0.000146
3742.22	0.000149
3751.86	0.000259542
3761.51	0.000373
3771.15	0.0004059
3780.8	0.0003284
3790.44	0.00024438
3800.09	0.00033857
3809.73	0.000353
3819.38	0.0002154
3829.02	0.0003673
3838.67	0.00027159
3848.31	0.00029201
3857.96	0.0001854
3867.6	0.000132
3877.25	0.0003902
3886.89	0.0001984
3896.54	0.00029232
3906.18	0.00029129
3915.83	0.0004949
3925.47	0.0004246
3935.12	0.0005011
3944.76	0.00027435
3954.41	0.0005459
3964.05	0.0004745
3973.69	0.0004857
3983.34	0.0005354
3992.98	0.0003754
