Infrared Spectrum: Glycine, 2-phenyl-, dL-
Formula: C8 H9 N O2
CAS: 2835-06-5
State: SOLID (OIL MULL)
Melting point: 292 C DECOMP.
Class: COBLENTZ III
Instrument: BAIRD (GRATING)
Instrument parameters: NaCl PRISM
Sampling: TRANSMISSION
Resolution: 2
Origin: WYANDOTTE CHEMICALS CORP..
1/CM	TRANSMITTANCE
626	0.6143
635	0.6497
644	0.6761
653	0.6415
662	0.52
671	0.5164
680	0.6821
689	0.3994
698	0.58
707	0.8763
716	0.763
725	0.2921
734	0.4991
743	0.9406
752	0.9796
761	0.984
770	0.9794
779	0.9885
788	0.9928
797	0.9908
806	0.9888
815	0.9867
824	0.9813
833	0.9715
842	0.9253
851	0.9253
860	0.9374
869	0.9172
878	0.8779
887	0.7922
896	0.5644
905	0.8476
914	0.6461
923	0.6038
932	0.8963
941	0.9147
950	0.8999
959	0.8885
968	0.876
977	0.8909
986	0.8802
995	0.898
1004	0.8813
1013	0.8416
1022	0.7755
1031	0.8211
1040	0.7516
1049	0.6284
1058	0.8341
1067	0.7998
1076	0.6191
1085	0.8405
1094	0.8713
1103	0.8351
1112	0.8331
1121	0.8114
1130	0.7543
1139	0.5829
1148	0.4708
1157	0.6877
1166	0.7106
1175	0.7533
1184	0.7494
1193	0.6785
1202	0.5448
1211	0.7615
1220	0.7571
1229	0.7462
1238	0.7235
1247	0.7014
1256	0.6813
1265	0.6436
1274	0.5972
1283	0.5213
1292	0.4363
1301	0.4133
1310	0.4111
1319	0.346
1328	0.3276
1337	0.2678
1346	0.2226
1355	0.1238
1364	0.1035
1373	0.0847
1382	0.1466
1391	0.3252
1400	0.2474
1409	0.2559
1418	0.4162
1427	0.5786
1436	0.5257
1445	0.3234
1454	0.1236
1463	0.1231
1472	0.1371
1481	0.3994
1490	0.4378
1499	0.3817
1508	0.3306
1517	0.214
1526	0.1826
1535	0.2676
1544	0.3939
1553	0.3987
1562	0.3529
1571	0.245
1580	0.1899
1589	0.0955
1598	0.0953
1607	0.1283
1616	0.1794
1625	0.164
1634	0.1596
1643	0.2082
1652	0.2378
1661	0.2094
1670	0.3353
1679	0.5482
1688	0.7017
1697	0.8302
1706	0.8713
1715	0.9092
1724	0.9467
1733	0.9561
1742	0.9627
1751	0.9695
1760	0.9792
1769	0.9883
1778	0.9914
1787	0.991
1796	0.9884
1805	0.9832
1814	0.9825
1823	0.9861
1832	0.983
1841	0.9771
1850	0.9708
1859	0.9635
1868	0.9558
1877	0.954
1886	0.9604
1895	0.9568
1904	0.941
1913	0.9178
1922	0.9016
1931	0.9245
1940	0.9284
1949	0.9275
1958	0.92
1967	0.9096
1976	0.9031
1985	0.8777
1994	0.8631
2003	0.8496
2012	0.8373
2021	0.8273
2030	0.8216
2039	0.8175
2048	0.8057
2057	0.8009
2066	0.7987
2075	0.8013
2084	0.8092
2093	0.8179
2102	0.8296
2111	0.844
2120	0.8496
2129	0.844
2138	0.8401
2147	0.8374
2156	0.8278
2165	0.8172
2174	0.8122
2183	0.811
2192	0.8102
2201	0.8074
2210	0.7994
2219	0.787
2228	0.7742
2237	0.7598
2246	0.7491
2255	0.7475
2264	0.7487
2273	0.752
2282	0.7533
2291	0.7471
2300	0.739
2309	0.7305
2318	0.7203
2327	0.7082
2336	0.6958
2345	0.6847
2354	0.6729
2363	0.6624
2372	0.6521
2381	0.6436
2390	0.6353
2399	0.6283
2408	0.6249
2417	0.6216
2426	0.6177
2435	0.6099
2444	0.6009
2453	0.5913
2462	0.5814
2471	0.5691
2480	0.5574
2489	0.5519
2498	0.5414
2507	0.5283
2516	0.5153
2525	0.5004
2534	0.4846
2543	0.4671
2552	0.4487
2561	0.4268
2570	0.4017
2579	0.38
2588	0.3641
2597	0.3419
2606	0.3055
2615	0.266
2624	0.2355
2633	0.2304
2642	0.2411
2651	0.27
2660	0.2987
2669	0.3098
2678	0.3077
2687	0.2984
2696	0.2876
2705	0.2797
2714	0.2743
2723	0.2675
2732	0.258
2741	0.2442
2750	0.2289
2759	0.2133
2768	0.1968
2777	0.1791
2786	0.1594
2795	0.133
2804	0.1045
2813	0.0655
2822	0.0314
2831	0.0202
2840	0.0183
2849	0.0167
2858	0.0154
2867	0.0147
2876	0.0142
2885	0.0138
2894	0.0137
2903	0.0136
2912	0.0136
2921	0.0145
2930	0.0154
2939	0.0165
2948	0.02
2957	0.0378
2966	0.0833
2975	0.129
2984	0.1767
2993	0.197
3002	0.2121
3011	0.2257
3020	0.2359
3029	0.2632
3038	0.3049
3047	0.3423
3056	0.3795
3065	0.4164
3074	0.453
3083	0.4953
3092	0.5182
3101	0.545
3110	0.5641
3119	0.5843
3128	0.6044
3137	0.6178
3146	0.6302
3155	0.6423
3164	0.6533
3173	0.6623
3182	0.6714
3191	0.6816
3200	0.6908
3209	0.6967
3218	0.6978
3227	0.6989
3236	0.6991
3245	0.6985
3254	0.6979
3263	0.6964
3272	0.6939
3281	0.6924
3290	0.6914
3299	0.6916
3308	0.6927
3317	0.6941
3326	0.6955
3335	0.697
3344	0.6985
3353	0.701
3362	0.7038
3371	0.7066
3380	0.7093
3389	0.7121
3398	0.715
3407	0.7187
3416	0.7225
3425	0.7263
3434	0.73
3443	0.7338
3452	0.7375
3461	0.741
3470	0.7444
3479	0.7478
3488	0.7511
3497	0.7544
3506	0.7577
3515	0.7609
3524	0.7639
3533	0.7668
3542	0.769
3551	0.7689
3560	0.7688
3569	0.7687
3578	0.7685
3587	0.7679
3596	0.7674
3605	0.7668
3614	0.7663
3623	0.7658
3632	0.7652
3641	0.7646
3650	0.7641
3659	0.7633
3668	0.7621
3677	0.761
3686	0.7598
3695	0.7587
3704	0.7575
3713	0.7555
3722	0.7529
3731	0.7502
3740	0.7481
3749	0.7467
3758	0.7454
3767	0.7442
3776	0.743
3785	0.7418
3794	0.7407
3803	0.7391
3812	0.7376
3821	0.736
3830	0.7345
3839	0.7326
3848	0.7297
3857	0.7268
3866	0.7239
3875	0.7213
3884	0.7191
3893	0.717
3902	0.7149
3911	0.7129
3920	0.7108
3929	0.7087
3938	0.7066
3947	0.7044
3956	0.7024
3965	0.7002
3974	0.6981
3983	0.6959
3992	0.6936
