Infrared Spectrum: 3-Aminobenzophenone
Formula: C 13 H 11 N O
CAS: 2835-78-1
State: gas
Instrument: HP-GC/MS/IRD
Origin: NIST Mass Spectrometry Data Center
1/CM	ABSORBANCE
550	0.0012441
562	0.00117
574	0.0015054
586	0.0022815
598	0.002184
610	0.0020241
622	0.0028431
634	0.0054795
646	0.0144222
658	0.0111384
670	0.0098514
682	0.0109005
694	0.0156156
706	0.0194376
718	0.0175266
730	0.0115167
742	0.0052416
754	0.003822
766	0.005616
778	0.0069459
790	0.0055653
802	0.0049179
814	0.0031395
826	0.0041457
838	0.0094575
850	0.0069888
862	0.0062712
874	0.0051051
886	0.0028782
898	0.0011856
910	0.000546
922	0.0006396
934	0.0006201
946	0.0009867
958	0.0034281
970	0.0062283
982	0.0052338
994	0.0020085
1006	0.0008931
1018	0.0002652
1030	0.0006708
1042	2.34e-05
1054	0.0002964
1066	0.0010725
1078	0.0010218
1090	0.0009243
1102	0.0016068
1114	0.0015639
1126	0.00195
1138	0.0028821
1150	0.0015171
1162	0.0013572
1174	0.0029367
1186	0.0038181
1198	0.0018135
1210	0.0046215
1222	0.0119925
1234	0.0184821
1246	0.013221
1258	0.0072579
1270	0.0085839
1282	0.0241722
1294	0.032955
1306	0.039
1318	0.0276939
1330	0.0091494
1342	0.002886
1354	0.0010725
1366	0.0006903
1378	0.000663
1390	0.0006357
1402	0.000507
1414	0.0007878
1426	0.0021099
1438	0.0065169
1450	0.0142545
1462	0.0068289
1474	0.0035919
1486	0.0049179
1498	0.0031746
1510	0.0015795
1522	0.001443
1534	0.0017394
1546	0.0019578
1558	0.0030381
1570	0.0059124
1582	0.0118053
1594	0.015132
1606	0.0149526
1618	0.0211575
1630	0.02028
1642	0.0085371
1654	0.0069771
1666	0.0141102
1678	0.030147
1690	0.0232908
1702	0.0079989
1714	0.0034983
1726	0.0023205
1738	0.0016029
1750	0.0011661
1762	0.0009789
1774	0.0006942
1786	0.0003705
1798	0.0004641
1810	0.0007098
1822	0.0004758
1834	0.0004368
1846	0.0003861
1858	0.000234
1870	0.0001248
1882	0.0002613
1894	0.0004446
1906	0.0005655
1918	0.000546
1930	0.0004446
1942	0.0003861
1954	0.0005538
1966	0.0004641
1978	0.0001521
1990	7.8e-05
2002	4.29e-05
2014	5.46e-05
2026	2.34e-05
2038	3.12e-05
2050	2.73e-05
2062	7.41e-05
2074	5.85e-05
2086	8.97e-05
2098	6.63e-05
2110	5.07e-05
2122	1.95e-05
2134	3.12e-05
2146	6.24e-05
2158	5.07e-05
2170	5.85e-05
2182	5.07e-05
2194	3.12e-05
2206	3.12e-05
2218	1.17e-05
2230	3.9e-05
2242	2.73e-05
2254	7.8e-05
2266	0.0001209
2278	0.0001248
2290	0.0001131
2302	0.0001014
2314	0.0001248
2326	0.0001482
2338	0.0001794
2350	0.0001209
2362	0.0001092
2374	0.0001209
2386	0.0001248
2398	8.97e-05
2410	0.000117
2422	0.0001287
2434	0.0001209
2446	9.75e-05
2458	7.02e-05
2470	7.8e-05
2482	1.95e-05
2494	7.8e-06
2506	0
2518	2.73e-05
2530	6.63e-05
2542	5.07e-05
2554	9.75e-05
2566	0.000117
2578	0.0001716
2590	0.0002496
2602	0.0002886
2614	0.0002457
2626	0.0002184
2638	0.0001287
2650	6.24e-05
2662	5.07e-05
2674	7.8e-05
2686	6.63e-05
2698	7.41e-05
2710	0.0001287
2722	0.0002028
2734	0.0002028
2746	0.0001521
2758	0.0001209
2770	7.02e-05
2782	6.63e-05
2794	2.73e-05
2806	3.51e-05
2818	3.51e-05
2830	0.0001209
2842	0.0001521
2854	0.0001677
2866	0.0002379
2878	0.0003315
2890	0.0004056
2902	0.0003432
2914	0.0002925
2926	0.0002262
2938	0.0001989
2950	0.0002028
2962	0.0002613
2974	0.0003549
2986	0.000429
2998	0.0008385
3010	0.0018759
3022	0.0036777
3034	0.0055107
3046	0.0061425
3058	0.0078819
3070	0.0099021
3082	0.0069888
3094	0.0045942
3106	0.0023127
3118	0.0008541
3130	0.0004056
3142	0.0003003
3154	0.0003276
3166	0.0002652
3178	0.0001911
3190	0.0001989
3202	0.0002028
3214	0.0003666
3226	0.0004095
3238	0.0003198
3250	0.0002028
3262	0.0001599
3274	0.0001404
3286	0.0001131
3298	0.0001287
3310	0.0001365
3322	0.0002457
3334	0.0004836
3346	0.0005811
3358	0.0004407
3370	0.0004485
3382	0.0005811
3394	0.0012324
3406	0.0024609
3418	0.0028899
3430	0.0014703
3442	0.0005577
3454	0.0003939
3466	0.000507
3478	0.0009399
3490	0.0016926
3502	0.0019149
3514	0.0011934
3526	0.0004329
3538	0.000195
3550	0.0001131
3562	8.58e-05
3574	7.02e-05
3586	3.12e-05
3598	5.46e-05
3610	8.58e-05
3622	8.58e-05
3634	4.68e-05
3646	3.51e-05
3658	9.75e-05
3670	4.68e-05
3682	8.97e-05
3694	8.58e-05
3706	0.0001092
3718	0.0001287
3730	8.97e-05
3742	7.8e-05
3754	0.0001404
3766	0.0001209
3778	0.0001209
3790	0.0001482
3802	7.41e-05
3814	0.0001209
3826	7.02e-05
3838	0.0001326
