Infrared Spectrum: 4-AMINO-3-METHYL PHENOL
Formula: C7 H9 N O
CAS: 2835-99-6
State: SOLID (MINERAL OIL MULL)
Melting point: 178 C
Class: COBLENTZ
Instrument: Not specified, most likely a prism, grating, or hybrid spectrometer.
Sampling: TRANSMISSION
Resolution: 4
Origin: WYANDOTTE CHEMICALS CORP., WYANDOTTE, MICHIGAN, USA
MICROMETERS	TRANSMITTANCE
2.02	0.619
2.06092	0.62
2.10183	0.631
2.14275	0.641
2.18367	0.641
2.22459	0.627
2.2655	0.639
2.30642	0.658
2.34734	0.67
2.38825	0.686
2.42917	0.695
2.47009	0.698
2.511	0.72
2.55192	0.759
2.59284	0.732
2.63376	0.781
2.67467	0.776
2.71559	0.764
2.75651	0.759
2.79742	0.763
2.83834	0.764
2.87926	0.763
2.92018	0.72
2.96109	0.423
3.00201	0.604
3.04293	0.321
3.08384	0.397
3.12476	0.336
3.16568	0.285
3.2066	0.26
3.24751	0.209
3.28843	0.155
3.32935	0.047
3.37026	0.025
3.41118	0.038
3.4521	0.045
3.49301	0.064
3.53393	0.225
3.57485	0.274
3.61577	0.284
3.65668	0.297
3.6976	0.262
3.73852	0.241
3.77943	0.272
3.82035	0.28
3.86127	0.272
3.90219	0.289
3.9431	0.35
3.98402	0.358
4.02494	0.389
4.06585	0.434
4.10677	0.456
4.14769	0.497
4.1886	0.524
4.22952	0.512
4.27044	0.532
4.31136	0.593
4.35227	0.666
4.39319	0.69
4.43411	0.675
4.47502	0.707
4.51594	0.71
4.55686	0.736
4.59778	0.747
4.63869	0.763
4.67961	0.778
4.72053	0.798
4.76144	0.805
4.80236	0.829
4.84328	0.83
4.8842	0.834
4.92511	0.834
4.96603	0.834
5.00695	0.835
5.04786	0.851
5.08878	0.868
5.1297	0.878
5.17061	0.89
5.21153	0.903
5.25245	0.912
5.29337	0.898
5.33428	0.898
5.3752	0.92
5.41612	0.873
5.45703	0.884
5.49795	0.918
5.53887	0.917
5.57979	0.937
5.6207	0.913
5.66162	0.944
5.70254	0.908
5.74345	0.9
5.78437	0.851
5.82529	0.818
5.8662	0.871
5.90712	0.84
5.94804	0.869
5.98896	0.82
6.02987	0.83
6.07079	0.759
6.11171	0.651
6.15262	0.6
6.19354	0.446
6.23446	0.51
6.27538	0.588
6.31629	0.68
6.35721	0.739
6.39813	0.791
6.43904	0.788
6.47996	0.703
6.52088	0.472
6.5618	0.164
6.60271	0.069
6.64363	0.094
6.68455	0.14
6.72546	0.17
6.76638	0.137
6.8073	0.165
6.84821	0.238
6.88913	0.253
6.93005	0.389
6.97097	0.602
7.01188	0.69
7.0528	0.737
7.09372	0.747
7.13463	0.719
7.17555	0.598
7.21647	0.368
7.25739	0.301
7.2983	0.27
7.33922	0.199
7.38014	0.137
7.42105	0.174
7.46197	0.318
7.50289	0.446
7.5438	0.483
7.58472	0.529
7.62564	0.399
7.66656	0.368
7.70747	0.299
7.74839	0.225
7.78931	0.489
7.83022	0.639
7.87114	0.72
7.91206	0.72
7.95298	0.685
7.99389	0.612
8.03481	0.341
8.07573	0.284
8.11664	0.253
8.15756	0.196
8.19848	0.238
8.2394	0.37
8.28031	0.489
8.32123	0.583
8.36215	0.67
8.40306	0.741
8.44398	0.776
8.4849	0.754
8.52581	0.554
8.56673	0.211
8.60765	0.363
8.64857	0.514
8.68948	0.519
8.7304	0.62
8.77132	0.698
8.81223	0.747
8.85315	0.778
8.89407	0.785
8.93499	0.791
8.9759	0.795
9.01682	0.81
9.05774	0.818
9.09865	0.817
9.13957	0.805
9.18049	0.766
9.2214	0.681
9.26232	0.615
9.30324	0.752
9.34416	0.817
9.38507	0.839
9.42599	0.866
9.46691	0.874
9.50782	0.871
9.54874	0.871
9.58966	0.856
9.63058	0.81
9.67149	0.659
9.71241	0.742
9.75333	0.807
9.79424	0.807
9.83516	0.791
9.87608	0.752
9.917	0.622
9.95791	0.335
9.99883	0.397
10.0397	0.592
10.0807	0.648
10.1216	0.664
10.1625	0.666
10.2034	0.653
10.2443	0.631
10.2852	0.615
10.3262	0.597
10.3671	0.568
10.408	0.526
10.4489	0.465
10.4898	0.335
10.5308	0.373
10.5717	0.451
10.6126	0.446
10.6535	0.429
10.6944	0.389
10.7353	0.355
10.7763	0.343
10.8172	0.323
10.8581	0.296
10.899	0.27
10.9399	0.262
10.9808	0.241
11.0218	0.226
11.0627	0.213
11.1036	0.211
11.1445	0.211
11.1854	0.213
11.2263	0.223
11.2673	0.236
11.3082	0.263
11.3491	0.28
11.39	0.304
11.4309	0.329
11.4718	0.36
11.5128	0.389
11.5537	0.421
11.5946	0.429
11.6355	0.343
11.6764	0.172
11.7173	0.106
11.7583	0.142
11.7992	0.187
11.8401	0.214
11.881	0.231
11.9219	0.238
11.9628	0.245
12.0038	0.241
12.0447	0.238
12.0856	0.233
12.1265	0.231
12.1674	0.243
12.2084	0.252
12.2493	0.277
12.2902	0.301
12.3311	0.329
12.372	0.365
12.4129	0.395
12.4539	0.409
12.4948	0.404
12.5357	0.414
12.5766	0.461
12.6175	0.519
12.6584	0.551
12.6994	0.578
12.7403	0.597
12.7812	0.607
12.8221	0.614
12.863	0.614
12.9039	0.619
12.9449	0.609
12.9858	0.576
13.0267	0.546
13.0676	0.512
13.1085	0.465
13.1494	0.436
13.1904	0.377
13.2313	0.313
13.2722	0.265
13.3131	0.274
13.354	0.309
13.3949	0.373
13.4359	0.436
13.4768	0.492
13.5177	0.526
13.5586	0.563
13.5995	0.585
13.6404	0.587
13.6814	0.487
13.7223	0.365
13.7632	0.329
13.8041	0.343
13.845	0.458
13.886	0.526
13.9269	0.588
13.9678	0.637
14.0087	0.676
14.0496	0.707
14.0905	0.739
14.1315	0.736
14.1724	0.695
14.2133	0.598
14.2542	0.514
14.2951	0.526
14.336	0.58
14.377	0.626
14.4179	0.663
14.4588	0.685
14.4997	0.698
14.5406	0.712
14.5815	0.717
14.6225	0.72
14.6634	0.72
14.7043	0.72
14.7452	0.72
14.7861	0.719
14.827	0.71
14.868	0.71
14.9089	0.71
14.9498	0.707
14.9907	0.675
15.0316	0.604
15.0725	0.554
15.1135	0.544
15.1544	0.597
15.1953	0.644
15.2362	0.67
15.2771	0.678
15.318	0.673
15.359	0.675
15.3999	0.681
15.4408	0.671
15.4817	0.673
15.5226	0.663
15.5636	0.656
15.6045	0.651
15.6454	0.644
15.6863	0.636
15.7272	0.631
15.7681	0.619
15.8091	0.609
15.85	0.595
15.8909	0.595
15.9318	0.582
15.9727	0.576
