Infrared Spectrum: ISOVALERIC ACID, ALLYL ESTER-
Formula: C8 H14 O2
CAS: 2835-39-4
State: SOLUTION (10% CCl4 FOR 3800-1330, 10% CS2 FOR 1330-460 CM^-^1)
Class: COBLENTZ III
Instrument: DOW KBr FOREPRISM-GRATING
Instrument parameters: BLAZED AT 3.5, 12.0, 20.0 MICRON AND CHANGED AT 5.0, 7.5, 14.9 MICRON
Sampling: TRANSMISSION
Path length: 0.011 CM, 0.011 CM
Resolution: 2
Origin: DOW CHEMICAL COMPANY
1/CM	TRANSMITTANCE
459	0.7312
468	0.741
477	0.7527
486	0.7642
495	0.7724
504	0.777
513	0.7778
522	0.7798
531	0.776
540	0.764
549	0.742
558	0.7502
567	0.7765
576	0.777
585	0.7686
594	0.7644
603	0.763
612	0.7537
621	0.7484
630	0.7492
639	0.7465
648	0.7407
657	0.7512
666	0.7781
675	0.8247
684	0.8357
693	0.8382
702	0.8349
711	0.8282
720	0.8268
729	0.8281
738	0.825
747	0.8107
756	0.8268
765	0.8486
774	0.8475
783	0.8371
792	0.8213
801	0.8266
810	0.8245
819	0.8122
828	0.7479
837	0.7724
846	0.7484
855	0.6701
864	0.6698
873	0.6964
882	0.7092
891	0.7528
900	0.7375
909	0.6571
918	0.3751
927	0.2369
936	0.5186
945	0.6924
954	0.6625
963	0.6598
972	0.6014
981	0.4152
990	0.2471
999	0.3916
1008	0.3737
1017	0.5001
1026	0.6386
1035	0.7394
1044	0.7675
1053	0.7592
1062	0.718
1071	0.654
1080	0.5447
1089	0.3995
1098	0.3736
1107	0.3746
1116	0.2535
1125	0.3779
1134	0.4495
1143	0.2864
1152	0.24
1161	0.1751
1170	0.1321
1179	0.0603
1188	0.1506
1197	0.2818
1206	0.3472
1215	0.5309
1224	0.5557
1233	0.433
1242	0.3687
1251	0.3527
1260	0.4242
1269	0.4534
1278	0.4909
1287	0.3018
1296	0.2322
1305	0.6042
1314	0.6811
1323	0.6933
1332	0.5944
1341	0.5412
1350	0.5229
1359	0.4846
1368	0.349
1377	0.32
1386	0.4118
1395	0.6106
1404	0.6747
1413	0.5138
1422	0.5129
1431	0.578
1440	0.5559
1449	0.4538
1458	0.3572
1467	0.276
1476	0.5814
1485	0.7391
1494	0.7429
1503	0.7127
1512	0.6753
1521	0.6378
1530	0.5914
1539	0.5182
1548	0.4537
1557	0.4697
1566	0.5386
1575	0.5834
1584	0.5974
1593	0.6318
1602	0.7114
1611	0.7625
1620	0.7801
1629	0.7857
1638	0.7721
1647	0.6199
1656	0.7223
1665	0.7709
1674	0.7549
1683	0.7185
1692	0.6458
1701	0.543
1710	0.4015
1719	0.2444
1728	0.0544
1737	0
1746	0.016
1755	0.2742
1764	0.5305
1773	0.6679
1782	0.7366
1791	0.7677
1800	0.7897
1809	0.805
1818	0.8186
1827	0.8276
1836	0.83
1845	0.8304
1854	0.8314
1863	0.8284
1872	0.8337
1881	0.8471
1890	0.855
1899	0.8599
1908	0.8624
1917	0.8642
1926	0.8649
1935	0.8652
1944	0.8658
1953	0.8682
1962	0.8608
1971	0.8603
1980	0.8593
1989	0.8581
1998	0.8726
2007	0.8802
2016	0.8836
2025	0.8857
2034	0.888
2043	0.8901
2052	0.8915
2061	0.8928
2070	0.8941
2079	0.8954
2088	0.8969
2097	0.8983
2106	0.8997
2115	0.9012
2124	0.9027
2133	0.9041
2142	0.9055
2151	0.9061
2160	0.9068
2169	0.9075
2178	0.9082
2187	0.9089
2196	0.9086
2205	0.9079
2214	0.9073
2223	0.9065
2232	0.9052
2241	0.9039
2250	0.9016
2259	0.8984
2268	0.8936
2277	0.8893
2286	0.8857
2295	0.8823
2304	0.8828
2313	0.8872
2322	0.8922
2331	0.8945
2340	0.8955
2349	0.8983
2358	0.9008
2367	0.9014
2376	0.9017
2385	0.9008
2394	0.8997
2403	0.8991
2412	0.8987
2421	0.8984
2430	0.8983
2439	0.8982
2448	0.8977
2457	0.897
2466	0.8973
2475	0.898
2484	0.9017
2493	0.902
2502	0.9016
2511	0.9006
2520	0.8992
2529	0.8975
2538	0.8957
2547	0.8935
2556	0.8913
2565	0.8889
2574	0.8864
2583	0.884
2592	0.882
2601	0.88
2610	0.8791
2619	0.8781
2628	0.8773
2637	0.877
2646	0.8769
2655	0.8765
2664	0.8761
2673	0.8755
2682	0.8747
2691	0.8737
2700	0.869
2709	0.8629
2718	0.8564
2727	0.8499
2736	0.8486
2745	0.851
2754	0.8548
2763	0.8583
2772	0.8562
2781	0.8513
2790	0.8455
2799	0.8371
2808	0.8228
2817	0.8074
2826	0.794
2835	0.7819
2844	0.7674
2853	0.7316
2862	0.6623
2871	0.4488
2880	0.3441
2889	0.4715
2898	0.5231
2907	0.476
2916	0.4156
2925	0.3421
2934	0.2271
2943	0.2411
2952	0.1748
2961	0.0622
2970	0.0853
2979	0.2053
2988	0.3616
2997	0.5422
3006	0.6701
3015	0.7008
3024	0.6907
3033	0.7296
3042	0.7719
3051	0.7785
3060	0.778
3069	0.7613
3078	0.7149
3087	0.6765
3096	0.6792
3105	0.7515
3114	0.7964
3123	0.8028
3132	0.8023
3141	0.8014
3150	0.8006
3159	0.8003
3168	0.7999
3177	0.7999
3186	0.8
3195	0.8015
3204	0.8033
3213	0.8081
3222	0.8119
3231	0.8133
3240	0.8132
3249	0.8135
3258	0.8155
3267	0.8146
3276	0.8153
3285	0.8152
3294	0.8152
3303	0.8152
3312	0.8154
3321	0.8155
3330	0.8156
3339	0.8152
3348	0.8149
3357	0.8145
3366	0.8141
3375	0.8137
3384	0.8133
3393	0.8126
3402	0.8118
3411	0.811
3420	0.8085
3429	0.8013
3438	0.7954
3447	0.7905
3456	0.79
3465	0.797
3474	0.8083
3483	0.8172
3492	0.8203
3501	0.8218
3510	0.8229
3519	0.8238
3528	0.8248
3537	0.8268
3546	0.8303
3555	0.8351
3564	0.8418
3573	0.8474
3582	0.8525
3591	0.8569
3600	0.8602
3609	0.8627
3618	0.8643
3627	0.8657
3636	0.8672
3645	0.8683
3654	0.8686
3663	0.8674
3672	0.8627
3681	0.8608
3690	0.8658
3699	0.8718
3708	0.875
3717	0.8766
3726	0.877
3735	0.8765
3744	0.8762
3753	0.8757
3762	0.8753
3771	0.8748
3780	0.8745
3789	0.8734
3798	0.8724
