Infrared Spectrum: BENZENESULFONIC ACID, 5-AMINO-2-HYDROXY-
Formula: C6 H7 N O4 S
CAS: 2835-04-3
State: SOLID (SPLIT MULL)
Class: COBLENTZ III
Instrument: BECKMAN IR-9 (GRATING)
Instrument parameters: ORDER CHANGES: 670, 1200, 2000 CM^-^1
Sampling: TRANSMISSION
Resolution: 2
Origin: DOW CHEMICAL COMPANY
1/CM	TRANSMITTANCE
401	0.7972
410	0.7878
419	0.7818
428	0.8068
437	0.8409
446	0.8852
455	0.9261
464	0.9374
473	0.8649
482	0.5854
491	0.9174
500	0.8161
509	0.7682
518	0.8347
527	0.6894
536	0.7494
545	0.484
554	0.9055
563	0.6647
572	0.8646
581	0.8247
590	0.7522
599	0.9625
608	0.9688
617	0.8695
626	0.4117
635	0.4421
644	0.7267
653	0.7533
662	0.8071
671	0.8564
680	0.8721
689	0.7867
698	0.5106
707	0.3318
716	0.4972
725	0.623
734	0.7911
743	0.8724
752	0.9151
761	0.9315
770	0.9333
779	0.9238
788	0.8648
797	0.8956
806	0.8849
815	0.7957
824	0.6799
833	0.6962
842	0.7445
851	0.7608
860	0.7794
869	0.857
878	0.8478
887	0.9097
896	0.7603
905	0.9156
914	0.9562
923	0.9704
932	0.9759
941	0.9644
950	0.9671
959	0.8942
968	0.9452
977	0.9542
986	0.9616
995	0.9541
1004	0.9191
1013	0.8374
1022	0.4171
1031	0.1815
1040	0.8728
1049	0.8913
1058	0.8571
1067	0.8071
1076	0.5383
1085	0.1434
1094	0.3391
1103	0.3839
1112	0.7075
1121	0.766
1130	0.6771
1139	0.2234
1148	0.3666
1157	0.4647
1166	0.2515
1175	0.0759
1184	0.0427
1193	0.1338
1202	0.1879
1211	0.093
1220	0.0749
1229	0.0689
1238	0.4598
1247	0.4662
1256	0.7418
1265	0.7642
1274	0.5646
1283	0.3766
1292	0.621
1301	0.3524
1310	0.6236
1319	0.8511
1328	0.8892
1337	0.7693
1346	0.7265
1355	0.7358
1364	0.6251
1373	0.6357
1382	0.6704
1391	0.7998
1400	0.8407
1409	0.849
1418	0.8381
1427	0.7937
1436	0.6515
1445	0.1646
1454	0.3776
1463	0.7201
1472	0.7762
1481	0.7815
1490	0.7834
1499	0.7211
1508	0.527
1517	0.2956
1526	0.7785
1535	0.8149
1544	0.55
1553	0.669
1562	0.8488
1571	0.8748
1580	0.8308
1589	0.764
1598	0.7897
1607	0.7572
1616	0.6738
1625	0.7088
1634	0.7125
1643	0.7314
1652	0.881
1661	0.936
1670	0.9416
1679	0.9467
1688	0.9534
1697	0.9598
1706	0.9675
1715	0.9731
1724	0.9778
1733	0.9821
1742	0.9817
1751	0.9633
1760	0.9531
1769	0.9738
1778	0.9733
1787	0.9639
1796	0.9678
1805	0.9724
1814	0.9721
1823	0.9694
1832	0.9666
1841	0.9653
1850	0.9624
1859	0.9549
1868	0.9485
1877	0.9423
1886	0.9348
1895	0.9378
1904	0.9377
1913	0.9287
1922	0.93
1931	0.9344
1940	0.9345
1949	0.9328
1958	0.9295
1967	0.9255
1976	0.9217
1985	0.9171
1994	0.9038
2003	0.9045
2012	0.9059
2021	0.9063
2030	0.9071
2039	0.9131
2048	0.9175
2057	0.9188
2066	0.9197
2075	0.9246
2084	0.9301
2093	0.9325
2102	0.9327
2111	0.9318
2120	0.9306
2129	0.9287
2138	0.9268
2147	0.923
2156	0.9175
2165	0.9103
2174	0.9
2183	0.8905
2192	0.8836
2201	0.88
2210	0.8791
2219	0.8813
2228	0.8821
2237	0.875
2246	0.8703
2255	0.8668
2264	0.8632
2273	0.8593
2282	0.8556
2291	0.8515
2300	0.8474
2309	0.8434
2318	0.8402
2327	0.837
2336	0.835
2345	0.8343
2354	0.8349
2363	0.8356
2372	0.8365
2381	0.8365
2390	0.8357
2399	0.8339
2408	0.8288
2417	0.8264
2426	0.8249
2435	0.8239
2444	0.8228
2453	0.8218
2462	0.8204
2471	0.8167
2480	0.8124
2489	0.8065
2498	0.8004
2507	0.7946
2516	0.7864
2525	0.7778
2534	0.7682
2543	0.758
2552	0.7451
2561	0.729
2570	0.7092
2579	0.6865
2588	0.6628
2597	0.6316
2606	0.5706
2615	0.5215
2624	0.5216
2633	0.524
2642	0.5255
2651	0.4837
2660	0.4654
2669	0.4726
2678	0.4997
2687	0.531
2696	0.5554
2705	0.5641
2714	0.564
2723	0.5596
2732	0.5505
2741	0.5418
2750	0.5434
2759	0.5479
2768	0.5486
2777	0.544
2786	0.536
2795	0.5265
2804	0.5147
2813	0.501
2822	0.4862
2831	0.4672
2840	0.4474
2849	0.4266
2858	0.404
2867	0.3802
2876	0.3554
2885	0.3305
2894	0.3029
2903	0.2712
2912	0.2432
2921	0.2158
2930	0.1862
2939	0.1589
2948	0.1346
2957	0.1175
2966	0.1101
2975	0.1083
2984	0.1084
2993	0.1119
3002	0.1194
3011	0.1356
3020	0.1564
3029	0.1823
3038	0.2071
3047	0.2277
3056	0.2438
3065	0.2554
3074	0.2629
3083	0.2587
3092	0.2634
3101	0.2909
3110	0.3129
3119	0.328
3128	0.3392
3137	0.3512
3146	0.3616
3155	0.3709
3164	0.3798
3173	0.3871
3182	0.3939
3191	0.3997
3200	0.4045
3209	0.408
3218	0.409
3227	0.4078
3236	0.4039
3245	0.3918
3254	0.3746
3263	0.3536
3272	0.3264
3281	0.2892
3290	0.2443
3299	0.1793
3308	0.1359
3317	0.1861
3326	0.2568
3335	0.299
3344	0.33
3353	0.3526
3362	0.3821
3371	0.421
3380	0.449
3389	0.4762
3398	0.5058
3407	0.537
3416	0.6086
3425	0.6475
3434	0.6897
3443	0.7211
3452	0.7441
3461	0.7628
3470	0.783
3479	0.7999
3488	0.8107
3497	0.8191
3506	0.8263
3515	0.8323
3524	0.8382
3533	0.8446
3542	0.851
3551	0.856
3560	0.861
3569	0.8648
3578	0.8678
3587	0.8705
3596	0.8727
3605	0.8748
3614	0.8768
3623	0.8789
3632	0.8809
3641	0.8821
3650	0.8833
3659	0.8856
3668	0.8878
3677	0.889
3686	0.8899
3695	0.8906
3704	0.8894
3713	0.8882
3722	0.8864
3731	0.8842
3740	0.8821
3749	0.8803
3758	0.8784
3767	0.8757
3776	0.8728
3785	0.87
3794	0.8671
