Infrared Spectrum: BUTYRIC ACID, DL-2-AMINO-, Beta-FORM
Formula: C4 H9 N O2
CAS: 2835-81-6
State: SOLID (MULL, KBr DISC)
Class: COBLENTZ III
Instrument: PERKIN-ELMER 521 (GRATING)
Instrument parameters: ORDER CHANGES: 1999, 690 CM^-^1
Sampling: TRANSMISSION
Resolution: 2
Origin: SMITH KLINE & FRENCH LABS.
1/CM	TRANSMITTANCE
4010	0.8212
4000	0.8256
3990	0.8318
3980	0.8344
3970	0.8357
3960	0.8354
3950	0.8368
3940	0.8386
3930	0.8403
3920	0.8409
3910	0.8415
3900	0.8425
3890	0.8441
3880	0.8494
3870	0.8497
3860	0.844
3850	0.8462
3840	0.847
3830	0.8473
3820	0.8475
3810	0.8481
3800	0.8488
3790	0.8527
3780	0.8521
3770	0.8531
3760	0.856
3750	0.8588
3740	0.8591
3730	0.8587
3720	0.8586
3710	0.8593
3700	0.86
3690	0.8607
3680	0.8613
3670	0.8616
3660	0.862
3650	0.8623
3640	0.8623
3630	0.8621
3620	0.8618
3610	0.8616
3600	0.8611
3590	0.8606
3580	0.8601
3570	0.8592
3560	0.8583
3550	0.8578
3540	0.8582
3530	0.8584
3520	0.8581
3510	0.8554
3500	0.8504
3490	0.847
3480	0.844
3470	0.8402
3460	0.8286
3450	0.8323
3440	0.836
3430	0.839
3420	0.8395
3410	0.84
3400	0.8409
3390	0.8418
3380	0.8423
3370	0.8421
3360	0.8418
3350	0.841
3340	0.8375
3330	0.8301
3320	0.8214
3310	0.8147
3300	0.8091
3290	0.8035
3280	0.7978
3270	0.7807
3260	0.7746
3250	0.7568
3240	0.7434
3230	0.7356
3220	0.7122
3210	0.6857
3200	0.6626
3190	0.6415
3180	0.6137
3170	0.588
3160	0.5592
3150	0.5212
3140	0.4722
3130	0.4346
3120	0.363
3110	0.32
3100	0.2554
3090	0.2211
3080	0.2032
3070	0.2145
3060	0.2398
3050	0.2695
3040	0.2853
3030	0.2913
3020	0.2857
3010	0.2584
3000	0.197
2990	0.147
2980	0.1167
2970	0.0661
2960	0.0339
2950	0.0185
2940	0.0089
2930	0.006
2920	0.0066
2910	0.0054
2900	0.0102
2890	0.0263
2880	0.038
2870	0.0341
2860	0.0307
2850	0.0374
2840	0.1051
2830	0.1818
2820	0.2109
2810	0.2363
2800	0.2474
2790	0.2422
2780	0.229
2770	0.217
2760	0.2119
2750	0.2273
2740	0.2342
2730	0.2481
2720	0.2651
2710	0.2857
2700	0.305
2690	0.3204
2680	0.3272
2670	0.3299
2660	0.3209
2650	0.2428
2640	0.2348
2630	0.234
2620	0.2565
2610	0.2856
2600	0.3205
2590	0.3316
2580	0.3314
2570	0.3324
2560	0.346
2550	0.3859
2540	0.4119
2530	0.4314
2520	0.4545
2510	0.4772
2500	0.5068
2490	0.5351
2480	0.5564
2470	0.5716
2460	0.581
2450	0.5921
2440	0.6046
2430	0.6171
2420	0.6291
2410	0.6405
2400	0.6569
2390	0.6804
2380	0.6878
2370	0.7067
2360	0.718
2350	0.7222
2340	0.7275
2330	0.725
2320	0.7217
2310	0.7182
2300	0.725
2290	0.7391
2280	0.7484
2270	0.7575
2260	0.768
2250	0.7764
2240	0.7821
2230	0.7845
2220	0.7855
2210	0.7826
2200	0.7792
2190	0.7753
2180	0.7647
2170	0.7253
2160	0.6761
2150	0.6505
2140	0.6475
2130	0.6793
2120	0.72
2110	0.7425
2100	0.7678
2090	0.7803
2080	0.7915
2070	0.8062
2060	0.8165
2050	0.8225
2040	0.8248
2030	0.8275
2020	0.8316
2010	0.8421
2000	0.8496
1990	0.8488
1980	0.85
1970	0.8531
1960	0.8564
1950	0.8594
1940	0.8593
1930	0.8583
1920	0.871
1910	0.8728
1900	0.874
1890	0.8745
1880	0.8736
1870	0.8724
1860	0.869
1850	0.8689
1840	0.8736
1830	0.8782
1820	0.8805
1810	0.8816
1800	0.8812
1790	0.8809
1780	0.879
1770	0.8733
1760	0.865
1750	0.8591
1740	0.8411
1730	0.8214
1720	0.8183
1710	0.8064
1700	0.8033
1690	0.7654
1680	0.6988
1670	0.6346
1660	0.4959
1650	0.4249
1640	0.4057
1630	0.1987
1620	0.0715
1610	0.0388
1600	0.0197
1590	0.0499
1580	0.152
1570	0.2042
1560	0.2953
1550	0.4152
1540	0.4362
1530	0.2574
1520	0.3494
1510	0.5099
1500	0.6203
1490	0.651
1480	0.4858
1470	0.3182
1460	0.2338
1450	0.3034
1440	0.4169
1430	0.5719
1420	0.2733
1410	0.5093
1400	0.7015
1390	0.6565
1380	0.3237
1370	0.478
1360	0.2414
1350	0.2656
1340	0.5404
1330	0.6101
1320	0.2046
1310	0.1155
1300	0.4176
1290	0.5869
1280	0.6704
1270	0.6818
1260	0.6834
1250	0.7575
1240	0.7765
1230	0.7869
1220	0.8018
1210	0.7998
1200	0.81
1190	0.8198
1180	0.8302
1170	0.8189
1160	0.7308
1150	0.6217
1140	0.7525
1130	0.8176
1120	0.825
1110	0.7294
1100	0.828
1090	0.8477
1080	0.8574
1070	0.8402
1060	0.7075
1050	0.8283
1040	0.694
1030	0.8317
1020	0.5946
1010	0.7758
1000	0.8108
990	0.8303
980	0.8375
970	0.8489
960	0.8617
950	0.8725
940	0.878
930	0.6384
920	0.815
910	0.8824
900	0.9033
890	0.9139
880	0.8693
870	0.8145
860	0.8975
850	0.913
840	0.9114
830	0.9159
820	0.8955
810	0.2751
800	0.8068
790	0.8898
780	0.9013
770	0.8955
760	0.7675
750	0.8305
740	0.8916
730	0.8952
720	0.8911
710	0.9225
700	0.9334
690	0.9383
680	0.9289
670	0.842
660	0.7769
650	0.9149
640	0.9411
630	0.9518
620	0.9158
610	0.9077
600	0.9043
590	0.8986
580	0.8832
570	0.8528
560	0.796
550	0.3862
540	0.4253
530	0.726
520	0.7961
510	0.7968
500	0.7886
490	0.8331
480	0.8435
470	0.8397
460	0.8236
450	0.8005
440	0.7771
430	0.6482
420	0.4525
410	0.5651
400	0.6439
390	0.6257
380	0.5838
370	0.5491
360	0.4517
350	0.4095
340	0.2852
330	0.2547
320	0.1899
310	0.1204
300	0.1129
290	0.1005
280	0.1062
270	0.1038
260	0.1033
250	0.11
240	0.1117
230	0.1168
220	0.1419
210	0.1644
