Infrared Spectrum: 2-Aminobenzophenone
Formula: C 13 H 11 N O
CAS: 2835-77-0
State: gas
Instrument: HP-GC/MS/IRD
Origin: NIST Mass Spectrometry Data Center
1/CM	ABSORBANCE
550	0.0022008
562	0.001785
574	0.0019488
586	0.0020286
598	0.0024234
610	0.002583
622	0.002772
634	0.0075726
646	0.0191856
658	0.0060018
670	0.0051492
682	0.0081144
694	0.0175518
706	0.0164892
718	0.0075642
730	0.0064176
742	0.0153594
754	0.017913
766	0.0060228
778	0.0031626
790	0.002877
802	0.0028476
814	0.0028182
826	0.0030366
838	0.001491
850	0.0015204
862	0.0012264
874	0.0011928
886	0.001449
898	0.0022428
910	0.0070938
922	0.012306
934	0.0189714
946	0.0076776
958	0.0013146
970	0.000504
982	0.0001806
994	0.0003612
1006	0.0004662
1018	0.0008022
1030	0.001869
1042	0.0007434
1054	0.0006846
1066	0.0014196
1078	0.001197
1090	0.0006804
1102	0.000756
1114	0.0010458
1126	0.0018312
1138	0.0034524
1150	0.0080052
1162	0.015036
1174	0.0060102
1186	0.003318
1198	0.0016926
1210	0.0027762
1222	0.0065184
1234	0.0180222
1246	0.0388038
1258	0.0288834
1270	0.0132636
1282	0.0158676
1294	0.0267078
1306	0.0200382
1318	0.0140196
1330	0.0072702
1342	0.0024612
1354	0.0010878
1366	0.0007056
1378	0.000525
1390	0.0002772
1402	0.0002604
1414	0.000399
1426	0.0011508
1438	0.0041664
1450	0.0096684
1462	0.0057834
1474	0.006342
1486	0.0082698
1498	0.005103
1510	0.0033726
1522	0.003549
1534	0.00504
1546	0.0084798
1558	0.012936
1570	0.0139314
1582	0.0221508
1594	0.0322056
1606	0.0361872
1618	0.0413406
1630	0.0220122
1642	0.020034
1654	0.0338058
1666	0.0197442
1678	0.0088662
1690	0.004977
1702	0.0029526
1714	0.0019656
1726	0.0013902
1738	0.0010164
1750	0.000735
1762	0.000672
1774	0.000651
1786	0.0006762
1798	0.000798
1810	0.0007812
1822	0.000336
1834	0.000147
1846	0.0001218
1858	0.000189
1870	0.000231
1882	0.0004158
1894	0.000672
1906	0.0009576
1918	0.0007518
1930	0.0006258
1942	0.0005922
1954	0.0005922
1966	0.0004452
1978	0.0001302
1990	4.62e-05
2002	2.52e-05
2014	1.26e-05
2026	2.94e-05
2038	2.1e-05
2050	3.78e-05
2062	2.52e-05
2074	5.46e-05
2086	5.04e-05
2098	6.3e-05
2110	7.56e-05
2122	9.66e-05
2134	0.0001302
2146	0.000147
2158	0.0001134
2170	0.0001092
2182	0.000168
2194	0.0001848
2206	0.000126
2218	0.0001176
2230	0.0001302
2242	0.000126
2254	0.0001554
2266	0.000189
2278	0.0002058
2290	0.0001974
2302	0.0001932
2314	0.0003108
2326	0.0002898
2338	0.0002772
2350	0.0002772
2362	0.0002856
2374	0.0002814
2386	0.000336
2398	0.000336
2410	0.0002898
2422	0.000294
2434	0.0003108
2446	0.0002856
2458	0.0002016
2470	0.000168
2482	0.0001554
2494	0.0001386
2506	0.0001134
2518	0.0001302
2530	0.0001596
2542	0.0001848
2554	0.0001932
2566	0.0001764
2578	0.00021
2590	0.0002142
2602	0.0002268
2614	0.0002688
2626	0.0003738
2638	0.0004242
2650	0.0004032
2662	0.0002898
2674	0.0002226
2686	0.0002142
2698	0.0002352
2710	0.00021
2722	0.0002058
2734	0.0002394
2746	0.0002352
2758	0.0002646
2770	0.0002688
2782	0.0002604
2794	0.0001932
2806	0.0002016
2818	0.000147
2830	0.0001764
2842	0.0002016
2854	0.0002604
2866	0.000273
2878	0.000315
2890	0.0003528
2902	0.0003486
2914	0.0004074
2926	0.0004662
2938	0.0004074
2950	0.0002898
2962	0.000252
2974	0.000336
2986	0.0004578
2998	0.0007182
3010	0.0014952
3022	0.0041202
3034	0.0064344
3046	0.0057834
3058	0.0081942
3070	0.0109914
3082	0.008988
3094	0.0056742
3106	0.0028644
3118	0.0012558
3130	0.0006888
3142	0.000546
3154	0.0005208
3166	0.0004704
3178	0.0003738
3190	0.0003234
3202	0.0003486
3214	0.0003402
3226	0.0003738
3238	0.0004452
3250	0.0004704
3262	0.0004494
3274	0.0004704
3286	0.000525
3298	0.00063
3310	0.0008442
3322	0.0011802
3334	0.0021504
3346	0.0030156
3358	0.0041622
3370	0.0072408
3382	0.0055398
3394	0.0030576
3406	0.002037
3418	0.0012264
3430	0.0008148
3442	0.0005838
3454	0.0007182
3466	0.00105
3478	0.0018228
3490	0.0033726
3502	0.0061278
3514	0.007707
3526	0.0040278
3538	0.0014784
3550	0.0006888
3562	0.0004536
3574	0.0003696
3586	0.00021
3598	0.0002226
3610	0.0001512
3622	0.000189
3634	0.0001638
3646	0.0001722
3658	0.0001932
3670	0.0001554
3682	0.0001344
3694	0.0001218
3706	0.0001512
3718	0.0001302
3730	5.46e-05
3742	8.82e-05
3754	0.0001218
3766	0.000147
3778	0.0001722
3790	9.66e-05
3802	0.0001596
3814	0.0001428
3826	0.0001134
3838	7.14e-05
