Infrared Spectrum: 3-Amino-4-methoxybenzoic acid
Formula: C 8 H 9 N O 3
CAS: 2840-76-8
State: gas
Instrument: HP-GC/MS/IRD
Origin: NIST Mass Spectrometry Data Center
1/CM	ABSORBANCE
550	0.0033245
562	0.0036722
574	0.004209
586	0.0051972
598	0.0072651
610	0.0129076
622	0.0080276
634	0.0026291
646	0.0022204
658	0.0024156
670	0.0025071
682	0.0025132
694	0.0031476
706	0.0051362
718	0.0045079
730	0.0034953
742	0.0045079
754	0.0095282
766	0.0120414
778	0.0056974
790	0.0019764
802	0.0012078
814	0.00122
826	0.000793
838	0.0002318
850	0.000122
862	0.0005124
874	0.001647
886	0.0021655
898	0.0012383
910	0.0009882
922	0.0019215
934	0.0017385
946	0.0002928
958	0
970	0.0002562
982	0.0006832
994	0.0011285
1006	0.0024095
1018	0.00549
1030	0.0076189
1042	0.0050264
1054	0.0044347
1066	0.0096807
1078	0.0159027
1090	0.0139446
1102	0.0102785
1114	0.0073444
1126	0.0089731
1138	0.0241133
1150	0.0386618
1162	0.0359473
1174	0.0204533
1186	0.0126636
1198	0.0094062
1210	0.0087901
1222	0.0161711
1234	0.0201544
1246	0.0085339
1258	0.0063501
1270	0.0127734
1282	0.0185745
1294	0.0152805
1306	0.0094367
1318	0.0064965
1330	0.0086254
1342	0.0129991
1354	0.0135664
1366	0.0099674
1378	0.0054961
1390	0.0018971
1402	0.001586
1414	0.0029219
1426	0.0062891
1438	0.0112179
1450	0.0111203
1462	0.0057035
1474	0.0042517
1486	0.0039345
1498	0.0081923
1510	0.0174338
1522	0.0131028
1534	0.0044164
1546	0.001891
1558	0.0016043
1570	0.0027938
1582	0.0061061
1594	0.012078
1606	0.0148108
1618	0.0154452
1630	0.0103212
1642	0.003965
1654	0.0017629
1666	0.0011163
1678	0.0011224
1690	0.0017507
1702	0.0025742
1714	0.0029097
1726	0.0040382
1738	0.0141642
1750	0.0535275
1762	0.0489647
1774	0.0103578
1786	0.003416
1798	0.0022082
1810	0.0021228
1822	0.0012322
1834	0.0005368
1846	0.0004453
1858	0.0003904
1870	0.0002562
1882	0.0001098
1894	0.0001098
1906	0.000122
1918	0.0001342
1930	0.0001647
1942	0.0001342
1954	3.66e-05
1966	4.88e-05
1978	0.000122
1990	0.0001708
2002	0.0001159
2014	0.0001464
2026	0.0002196
2038	0.0002501
2050	0.0002196
2062	0.0002135
2074	0.0002013
2086	0.0001647
2098	0.0001281
2110	9.15e-05
2122	6.71e-05
2134	3.05e-05
2146	4.27e-05
2158	1.83e-05
2170	6.1e-06
2182	6.1e-06
2194	4.27e-05
2206	6.71e-05
2218	9.15e-05
2230	8.54e-05
2242	0.0001098
2254	0.0001281
2266	0.0001647
2278	0.0001159
2290	7.93e-05
2302	8.54e-05
2314	4.88e-05
2326	3.66e-05
2338	3.05e-05
2350	6.71e-05
2362	7.93e-05
2374	3.66e-05
2386	6.1e-06
2398	0
2410	3.66e-05
2422	8.54e-05
2434	7.32e-05
2446	9.76e-05
2458	9.76e-05
2470	9.76e-05
2482	6.71e-05
2494	0.0001342
2506	0.0001708
2518	0.0001464
2530	0.0001647
2542	0.000244
2554	0.0002867
2566	0.0002684
2578	0.0002074
2590	0.0001525
2602	0.0001037
2614	0.000122
2626	0.0001647
2638	0.000183
2650	0.0002318
2662	0.0002379
2674	0.0002501
2686	0.000244
2698	0.0001769
2710	0.000122
2722	0.0001464
2734	0.0001891
2746	0.000183
2758	0.0001281
2770	0.0001342
2782	0.000183
2794	0.0002867
2806	0.0003782
2818	0.0006039
2830	0.0010736
2842	0.0026047
2854	0.0029097
2866	0.0013847
2878	0.0009882
2890	0.0010614
2902	0.0015128
2914	0.0023485
2926	0.0026718
2938	0.0035136
2950	0.0048617
2962	0.0042944
2974	0.0029768
2986	0.0019337
2998	0.0024217
3010	0.0037027
3022	0.0018544
3034	0.0010858
3046	0.0012139
3058	0.0013359
3070	0.0012871
3082	0.0011468
3094	0.0009394
3106	0.0006954
3118	0.0004453
3130	0.0003294
3142	0.0002135
3154	0.000183
3166	0.0002196
3178	0.000305
3190	0.0003355
3202	0.0002745
3214	0.0002501
3226	0.0001647
3238	0.0001464
3250	0.0001281
3262	7.32e-05
3274	3.66e-05
3286	9.76e-05
3298	6.71e-05
3310	5.49e-05
3322	3.66e-05
3334	4.88e-05
3346	0.0001098
3358	0.0001586
3370	0.0002318
3382	0.0003904
3394	0.0008845
3406	0.0024522
3418	0.0027938
3430	0.0012322
3442	0.000549
3454	0.000427
3466	0.0005368
3478	0.0010065
3490	0.0020313
3502	0.0031232
3514	0.0026108
3526	0.001281
3538	0.0006893
3550	0.0005795
3562	0.0010248
3574	0.0067893
3586	0.0183183
3598	0.0043005
3610	0.0006161
3622	0.0003111
3634	0.0002318
3646	0.0001708
3658	0.0002074
3670	0.000122
3682	0.000122
3694	0.0001281
3706	2.44e-05
3718	0.0001281
3730	0.0001403
3742	0.0001281
3754	0.0001037
3766	0.0001464
3778	0.0001281
3790	0.000122
3802	0.0001098
3814	0.0001586
3826	0.0001403
3838	0.0001281
