Infrared Spectrum: 3-AMINO-4-CHLOROBENZOIC ACID
Formula: C7 H6 Cl N O2
CAS: 2840-28-0
State: SOLID (SPLIT MULL), FLUOROLUBE FOR 3800-1340 CM^-^1, NUJOL FOR 1340-465 CM^-^1
Melting point: 214 C
Class: COBLENTZ III
Instrument: DOW KBr FOREPRISM-GRATING
Instrument parameters: BLAZED AT 3.5, 12.0, 20.0 MICRON AND CHANGED AT 5.0, 7.5, 14.9 MICRON
Sampling: TRANSMISSION
Resolution: 2
Origin: DOW CHEMICAL COMPANY
1/CM	TRANSMITTANCE
474.725	0.928
483.516	0.928
492.307	0.928
501.099	0.927
509.89	0.909
518.681	0.857
527.472	0.79
536.263	0.886
545.055	0.873
553.846	0.795
562.637	0.839
571.428	0.819
580.22	0.891
589.011	0.853
597.802	0.861
606.593	0.876
615.384	0.864
624.176	0.847
632.967	0.819
641.758	0.797
650.549	0.75
659.34	0.724
668.132	0.704
676.923	0.708
685.714	0.723
694.505	0.752
703.296	0.787
712.088	0.75
720.879	0.7
729.67	0.724
738.461	0.76
747.253	0.795
756.044	0.693
764.835	0.409
773.626	0.773
782.417	0.88
791.209	0.905
800	0.916
808.791	0.926
817.582	0.926
826.373	0.894
835.165	0.741
843.956	0.935
852.747	0.932
861.538	0.928
870.329	0.923
879.121	0.768
887.912	0.821
896.703	0.894
905.494	0.873
914.285	0.815
923.077	0.693
931.868	0.689
940.659	0.749
949.45	0.834
958.242	0.786
967.033	0.9
975.824	0.932
984.615	0.954
993.406	0.958
1002.2	0.964
1010.99	0.965
1019.78	0.954
1028.57	0.876
1037.36	0.591
1046.15	0.816
1054.94	0.926
1063.74	0.956
1072.53	0.963
1081.32	0.956
1090.11	0.934
1098.9	0.883
1107.69	0.913
1116.48	0.858
1125.27	0.917
1134.07	0.978
1142.86	0.956
1151.65	0.789
1160.44	0.912
1169.23	0.968
1178.02	0.972
1186.81	0.979
1195.6	0.973
1204.4	0.965
1213.19	0.957
1221.98	0.949
1230.77	0.934
1239.56	0.906
1248.35	0.815
1257.14	0.691
1265.93	0.721
1274.73	0.663
1283.52	0.634
1292.31	0.8
1301.1	0.601
1309.89	0.26
1318.68	0.364
1327.47	0.345
1336.26	0.563
1345.05	0.746
1353.85	0.817
1362.64	0.831
1371.43	0.824
1380.22	0.815
1389.01	0.813
1397.8	0.752
1406.59	0.6789
1415.38	0.538
1424.18	0.635
1432.97	0.628
1441.76	0.5299
1450.55	0.289
1459.34	0.563
1468.13	0.826
1476.92	0.85
1485.71	0.812
1494.51	0.626
1503.3	0.843
1512.09	0.86
1520.88	0.846
1529.67	0.835
1538.46	0.826
1547.25	0.813
1556.04	0.793
1564.84	0.749
1573.63	0.646
1582.42	0.349
1591.21	0.661
1600	0.558
1608.79	0.515
1617.58	0.621
1626.37	0.55
1635.16	0.426
1643.96	0.4541
1652.75	0.567
1661.54	0.489
1670.33	0.339
1679.12	0.153
1687.91	0.12
1696.7	0.191
1705.49	0.276
1714.29	0.53
1723.08	0.808
1731.87	0.963
1740.66	1.002
1749.45	1.001
1758.24	0.989
1767.03	0.957
1775.82	0.942
1784.62	0.935
1793.41	0.932
1802.2	0.931
1810.99	0.926
1819.78	0.924
1828.57	0.921
1837.36	0.917
1846.15	0.912
1854.94	0.906
1863.74	0.904
1872.53	0.902
1881.32	0.9
1890.11	0.897
1898.9	0.893
1907.69	0.882
1916.48	0.893
1925.27	0.908
1934.07	0.91
1942.86	0.912
1951.65	0.912
1960.44	0.913
1969.23	0.905
1978.02	0.901
1986.81	0.895
1995.6	0.894
2004.4	0.892
2013.19	0.8865
2021.98	0.8774
2030.77	0.872
2039.56	0.868
2048.35	0.8634
2057.14	0.861
2065.93	0.86
2074.73	0.854
2083.52	0.852
2092.31	0.8508
2101.1	0.8478
2109.89	0.8437
2118.68	0.838
2127.47	0.8313
2136.26	0.8263
2145.05	0.8203
2153.85	0.813
2162.64	0.808
2171.43	0.802
2180.22	0.797
2189.01	0.7893
2197.8	0.7823
2206.59	0.7765
2215.38	0.769
2224.18	0.7642
2232.97	0.7572
2241.76	0.7504
2250.55	0.7434
2259.34	0.7382
2268.13	0.7312
2276.92	0.724
2285.71	0.717
2294.51	0.7133
2303.3	0.7091
2312.09	0.7022
2320.88	0.6952
2329.67	0.69
2338.46	0.6872
2347.25	0.6831
2356.04	0.68
2364.84	0.678
2373.63	0.675
2382.42	0.672
2391.21	0.668
2400	0.664
2408.79	0.663
2417.58	0.661
2426.37	0.6559
2435.16	0.649
2443.96	0.6459
2452.75	0.6409
2461.54	0.6319
2470.33	0.6238
2479.12	0.615
2487.91	0.6078
2496.7	0.5996
2505.49	0.5887
2514.29	0.5786
2523.08	0.5666
2531.87	0.5553
2540.66	0.539
2549.45	0.536
2558.24	0.536
2567.03	0.5434
2575.82	0.5524
2584.62	0.556
2593.41	0.5483
2602.2	0.549
2610.99	0.5485
2619.78	0.5307
2628.57	0.5273
2637.36	0.534
2646.15	0.5317
2654.95	0.5254
2663.74	0.5167
2672.53	0.5214
2681.32	0.5354
2690.11	0.5441
2698.9	0.546
2707.69	0.5568
2716.48	0.561
2725.27	0.5634
2734.07	0.565
2742.86	0.564
2751.65	0.563
2760.44	0.564
2769.23	0.5635
2778.02	0.5531
2786.81	0.5396
2795.6	0.5255
2804.4	0.51
2813.19	0.4949
2821.98	0.4795
2830.77	0.476
2839.56	0.478
2848.35	0.479
2857.14	0.482
2865.93	0.4906
2874.73	0.491
2883.52	0.491
2892.31	0.493
2901.1	0.494
2909.89	0.497
2918.68	0.497
2927.47	0.491
2936.26	0.4863
2945.05	0.4823
2953.85	0.479
2962.64	0.475
2971.43	0.473
2980.22	0.4744
2989.01	0.478
2997.8	0.4827
3006.59	0.4908
3015.38	0.4995
3024.18	0.5113
3032.97	0.517
3041.76	0.5162
3050.55	0.5116
3059.34	0.5235
3068.13	0.5278
3076.92	0.5344
3085.71	0.5486
3094.51	0.5438
3103.3	0.532
3112.09	0.559
3120.88	0.5973
3129.67	0.6145
3138.46	0.6258
3147.25	0.63
3156.04	0.634
3164.84	0.638
3173.63	0.6449
3182.42	0.645
3191.21	0.645
3200	0.642
3208.79	0.632
3217.58	0.639
3226.37	0.647
3235.16	0.653
3243.96	0.66
3252.75	0.661
3261.54	0.66
3270.33	0.6539
3279.12	0.6459
3287.91	0.631
3296.7	0.628
3305.49	0.6113
3314.29	0.5634
3323.08	0.5097
3331.87	0.4774
3340.66	0.4401
3349.45	0.5615
3358.24	0.6894
3367.03	0.7026
3375.82	0.706
3384.62	0.7035
3393.41	0.6925
3402.2	0.6765
3410.99	0.6139
3419.78	0.4935
3428.57	0.3501
3437.36	0.7027
3446.15	0.746
3454.95	0.743
3463.74	0.739
3472.53	0.7357
3481.32	0.7317
3490.11	0.73
3498.9	0.7266
3507.69	0.7236
3516.48	0.72
3525.27	0.7182
3534.07	0.716
3542.86	0.713
3551.65	0.7111
3560.44	0.709
3569.23	0.7071
3578.02	0.706
3586.81	0.706
3595.6	0.7045
3604.4	0.7015
3613.19	0.698
3621.98	0.697
3630.77	0.6945
3639.56	0.6919
3648.35	0.6894
3657.14	0.686
3665.93	0.6834
3674.73	0.682
3683.52	0.679
3692.31	0.676
3701.1	0.6737
3709.89	0.6714
3718.68	0.6684
3727.47	0.6657
3736.26	0.664
3745.06	0.6616
3753.85	0.66
3762.64	0.658
3771.43	0.6563
3780.22	0.6533
3789.01	0.652
3797.8	0.6505
3806.59	0.65
