Infrared Spectrum: 4-n-Butoxyphenyl isocyanate
Formula: C 11 H 13 N O 2
CAS: 28439-86-3
State: gas
Origin: EPA-IR VAPOR PHASE LIBRARY
1/CM	ABSORBANCE
549.8	0.003936
559.445	0.005406
569.09	0.006456
578.734	0.007446
588.379	0.008606
598.024	0.009686
607.669	0.009236
617.313	0.008986
626.958	0.009616
636.603	0.009046
646.248	0.008866
655.893	0.007506
665.537	0.006806
675.182	0.005846
684.827	0.005506
694.472	0.005836
704.116	0.006186
713.761	0.006846
723.406	0.005346
733.051	0.005466
742.695	0.004666
752.34	0.003776
761.985	0.003016
771.63	0.002826
781.275	0.003256
790.919	0.004296
800.564	0.006136
810.209	0.009126
819.854	0.020036
829.498	0.031026
839.143	0.025006
848.788	0.013416
858.433	0.007766
868.078	0.006116
877.722	0.006356
887.367	0.004066
897.012	0.003046
906.657	0.002876
916.301	0.002846
925.946	0.002806
935.591	0.003006
945.236	0.003696
954.88	0.006726
964.525	0.009176
974.17	0.011866
983.815	0.010226
993.46	0.010496
1003.1	0.016896
1012.75	0.025086
1022.39	0.026026
1032.04	0.023896
1041.68	0.016086
1051.33	0.012406
1060.97	0.015226
1070.62	0.017096
1080.26	0.010506
1089.91	0.010606
1099.55	0.016276
1109.2	0.023096
1118.84	0.019116
1128.49	0.008956
1138.13	0.008526
1147.78	0.009216
1157.42	0.011766
1167.07	0.032776
1176.71	0.021426
1186.36	0.010816
1196	0.013216
1205.64	0.021696
1215.29	0.043996
1224.93	0.074616
1234.58	0.121026
1244.22	0.138896
1253.87	0.067326
1263.51	0.043676
1273.16	0.046816
1282.8	0.043226
1292.45	0.025306
1302.09	0.018476
1311.74	0.013176
1321.38	0.007756
1331.03	0.005536
1340.67	0.004696
1350.32	0.004276
1359.96	0.003906
1369.61	0.004846
1379.25	0.009486
1388.9	0.014216
1398.54	0.007946
1408.18	0.005046
1417.83	0.005806
1427.47	0.008886
1437.12	0.012716
1446.76	0.016246
1456.41	0.020966
1466.05	0.026166
1475.7	0.029716
1485.34	0.025306
1494.99	0.036756
1504.63	0.068896
1514.28	0.110186
1523.92	0.127426
1533.57	0.087166
1543.21	0.037236
1552.86	0.015436
1562.5	0.009546
1572.15	0.010206
1581.79	0.011326
1591.44	0.007056
1601.08	0.005366
1610.73	0.005426
1620.37	0.005206
1630.01	0.004146
1639.66	0.002986
1649.3	0.002426
1658.95	0.001966
1668.59	0.001356
1678.24	0.001306
1687.88	0.0010607
1697.53	0.0010462
1707.17	0.0008959
1716.82	0.0008081
1726.46	0.001226
1736.11	0.001466
1745.75	0.001126
1755.4	0.0006897
1765.04	0.0008777
1774.69	0.0008942
1784.33	0.0010314
1793.98	0.0008869
1803.62	0.0010557
1813.27	0.001206
1822.91	0.001416
1832.55	0.001616
1842.2	0.001946
1851.84	0.002476
1861.49	0.002846
1871.13	0.002906
1880.78	0.002426
1890.42	0.002026
1900.07	0.001466
1909.71	0.001396
1919.36	0.001396
1929	0.001466
1938.65	0.001526
1948.29	0.001416
1957.94	0.001866
1967.58	0.001856
1977.23	0.001876
1986.87	0.001946
1996.52	0.002106
2006.16	0.002276
2015.81	0.002576
2025.45	0.002666
2035.1	0.002686
2044.74	0.003116
2054.38	0.003306
2064.03	0.003826
2073.67	0.004346
2083.32	0.004476
2092.96	0.004516
2102.61	0.004656
2112.25	0.005206
2121.9	0.006056
2131.54	0.007676
2141.19	0.010346
2150.83	0.013546
2160.48	0.016796
2170.12	0.019946
2179.77	0.023666
2189.41	0.029986
2199.06	0.040136
2208.7	0.054786
2218.35	0.072956
2227.99	0.096456
2237.64	0.128306
2247.28	0.175156
2256.92	0.251246
2266.57	0.386946
2276.21	0.563536
2285.86	0.483126
2295.5	0.237636
2305.15	0.127006
2314.79	0.084566
2324.44	0.065416
2334.08	0.057416
2343.73	0.055366
2353.37	0.053626
2363.02	0.045826
2372.66	0.031636
2382.31	0.019766
2391.95	0.013286
2401.6	0.009986
2411.24	0.007746
2420.89	0.006366
2430.53	0.005306
2440.18	0.004756
2449.82	0.003986
2459.47	0.003426
2469.11	0.003116
2478.75	0.002686
2488.4	0.002196
2498.04	0.002466
2507.69	0.002186
2517.33	0.002356
2526.98	0.002506
2536.62	0.002016
2546.27	0.002096
2555.91	0.001726
2565.56	0.001636
2575.2	0.001886
2584.85	0.001586
2594.49	0.001826
2604.14	0.001876
2613.78	0.001606
2623.43	0.001776
2633.07	0.001606
2642.72	0.001596
2652.36	0.001326
2662.01	0.001946
2671.65	0.001966
2681.29	0.001866
2690.94	0.002176
2700.58	0.001966
2710.23	0.002126
2719.87	0.001846
2729.52	0.002366
2739.16	0.002596
2748.81	0.002976
2758.45	0.002526
2768.1	0.002526
2777.74	0.002416
2787.39	0.002606
2797.03	0.002926
2806.68	0.003216
2816.32	0.003966
2825.97	0.004726
2835.61	0.005676
2845.26	0.007756
2854.9	0.011126
2864.55	0.015236
2874.19	0.022376
2883.84	0.028286
2893.48	0.025896
2903.12	0.024586
2912.77	0.028136
2922.41	0.032156
2932.06	0.037976
2941.7	0.046946
2951.35	0.047936
2960.99	0.050796
2970.64	0.054046
2980.28	0.035376
2989.93	0.019446
2999.57	0.012186
3009.22	0.009166
3018.86	0.007266
3028.51	0.007556
3038.15	0.007876
3047.8	0.008286
3057.44	0.007836
3067.09	0.007896
3076.73	0.007166
3086.38	0.005686
3096.02	0.004646
3105.67	0.004296
3115.31	0.002786
3124.95	0.002366
3134.6	0.001666
3144.24	0.001406
3153.89	0.0010695
3163.53	0.001506
3173.18	0.0008704
3182.82	0.001146
3192.47	0.0011065
3202.11	0.001196
3211.76	0.0009844
3221.4	0.0008209
3231.05	0.0006554
3240.69	0.0006472
3250.34	0.0003017
3259.98	0.00016532
3269.63	0.0002889
3279.27	0.0008305
3288.92	0.0006171
3298.56	0.000635
3308.21	0.0007283
3317.85	0.0002658
3327.49	0.0008066
3337.14	0.0007419
3346.78	0.001156
3356.43	0.001596
3366.07	0.002256
3375.72	0.002686
3385.36	0.003066
3395.01	0.004196
3404.65	0.003566
3414.3	0.003966
3423.94	0.002626
3433.59	0.002266
3443.23	0.001716
3452.88	0.0010769
3462.52	0.0010957
3472.17	0.001126
3481.81	0.001246
3491.46	0.0010035
3501.1	0.0009753
3510.75	0.0010598
3520.39	0.0007197
3530.04	0.001306
3539.68	0.0007404
3549.32	0.0008162
3558.97	0.0009833
3568.61	0.0006484
3578.26	0.0007324
3587.9	0.0009524
3597.55	0.001286
3607.19	0.001246
3616.84	0.0011034
3626.48	0.0007779
3636.13	0.001216
3645.77	0.001626
3655.42	0.001726
3665.06	0.002346
3674.71	0.002546
3684.35	0.002656
3694	0.003086
3703.64	0.003186
3713.29	0.003276
3722.93	0.002856
3732.58	0.002516
3742.22	0.001706
3751.86	0.001776
3761.51	0.001656
3771.15	0.001696
3780.8	0.001386
3790.44	0.001526
3800.09	0.001746
3809.73	0.001376
3819.38	0.001806
3829.02	0.001136
3838.67	0.000922
3848.31	0.0010428
3857.96	0.0009389
3867.6	0.0007873
3877.25	0.0010082
3886.89	0.0011124
3896.54	0.0007662
3906.18	0.0010037
3915.83	0.0008086
3925.47	0.0002917
3935.12	0.0005923
3944.76	0.0005215
3954.41	0.0005585
3964.05	0.0005503
3973.69	0.0006938
3983.34	0.0008944
3992.98	0.0004296
