Infrared Spectrum: 4-Methoxycinnamonitrile
Formula: C 10 H 9 N O
CAS: 28446-68-6
State: gas
Origin: EPA-IR VAPOR PHASE LIBRARY
1/CM	ABSORBANCE
549.9	0.001841
559.547	0.002361
569.193	0.003121
578.84	0.002891
588.486	0.002031
598.133	0.0013034
607.779	0.0011676
617.426	0.0010503
627.072	0.0010534
636.719	0.001114
646.365	0.0008749
656.012	0.0007736
665.658	0.0010914
675.305	0.001831
684.951	0.002241
694.598	0.002041
704.245	0.002181
713.891	0.002241
723.538	0.002241
733.184	0.002631
742.831	0.002731
752.477	0.002731
762.124	0.001881
771.77	0.0014867
781.417	0.001661
791.063	0.002071
800.71	0.002711
810.356	0.003551
820.003	0.006041
829.649	0.011751
839.296	0.015021
848.943	0.009101
858.589	0.004181
868.236	0.002161
877.882	0.001303
887.529	0.0011588
897.175	0.0012806
906.822	0.0013602
916.468	0.0014288
926.115	0.0013044
935.761	0.0014428
945.408	0.0015052
955.054	0.001801
964.701	0.001741
974.347	0.0015895
983.994	0.001671
993.64	0.001761
1003.29	0.002271
1012.93	0.003671
1022.58	0.007211
1032.23	0.013181
1041.87	0.013771
1051.52	0.006701
1061.17	0.002951
1070.81	0.002011
1080.46	0.0015703
1090.11	0.0015078
1099.75	0.001691
1109.4	0.002071
1119.05	0.002481
1128.69	0.002281
1138.34	0.001921
1147.99	0.002671
1157.63	0.005541
1167.28	0.018841
1176.92	0.028561
1186.57	0.013471
1196.22	0.005091
1205.86	0.003931
1215.51	0.004801
1225.16	0.006861
1234.8	0.010661
1244.45	0.020701
1254.1	0.047761
1263.74	0.056721
1273.39	0.025061
1283.04	0.013321
1292.68	0.014921
1302.33	0.016551
1311.98	0.011071
1321.62	0.006981
1331.27	0.005151
1340.92	0.002931
1350.56	0.002381
1360.21	0.001981
1369.86	0.001771
1379.5	0.001801
1389.15	0.002491
1398.79	0.003831
1408.44	0.003411
1418.09	0.003351
1427.73	0.003431
1437.38	0.003861
1447.03	0.005501
1456.67	0.005831
1466.32	0.007451
1475.97	0.006361
1485.61	0.005101
1495.26	0.010201
1504.91	0.029331
1514.55	0.034871
1524.2	0.011681
1533.85	0.004491
1543.49	0.003301
1553.14	0.003241
1562.79	0.004331
1572.43	0.005961
1582.08	0.009161
1591.73	0.019611
1601.37	0.033531
1611.02	0.032351
1620.67	0.015181
1630.31	0.004871
1639.96	0.002751
1649.6	0.001991
1659.25	0.001671
1668.9	0.001691
1678.54	0.0015093
1688.19	0.0013966
1697.84	0.0013618
1707.48	0.0015363
1717.13	0.0013235
1726.78	0.0009459
1736.42	0.0007639
1746.07	0.0008639
1755.72	0.0009314
1765.36	0.0008756
1775.01	0.00063262
1784.66	0.00063296
1794.3	0.00066525
1803.95	0.00067541
1813.6	0.000622687
1823.24	0.000609
1832.89	0.0005746
1842.54	0.00067168
1852.18	0.00071406
1861.83	0.000787
1871.47	0.0009046
1881.12	0.0010456
1890.77	0.0010053
1900.41	0.000887
1910.06	0.0008884
1919.71	0.0009727
1929.35	0.0010082
1939	0.000939
1948.65	0.000875
1958.29	0.0007753
1967.94	0.0007785
1977.59	0.0008129
1987.23	0.0008324
1996.88	0.0008835
2006.53	0.0009205
2016.17	0.000964
2025.82	0.0009638
2035.47	0.0009357
2045.11	0.0010295
2054.76	0.0011313
2064.41	0.0012402
2074.05	0.0012587
2083.7	0.0010407
2093.35	0.0008119
2102.99	0.00064881
2112.64	0.00061538
2122.28	0.0005337
2131.93	0.000512
2141.58	0.000509
2151.22	0.000444
2160.87	0.000479
2170.52	0.00054
2180.16	0.000562
2189.81	0.000630361
2199.46	0.0009043
2209.1	0.002191
2218.75	0.003661
2228.4	0.001861
2238.04	0.0006995
2247.69	0.0005789
2257.34	0.000517
2266.98	0.0005242
2276.63	0.0005864
2286.28	0.0005905
2295.92	0.00063465
2305.57	0.0005899
2315.22	0.0005372
2324.86	0.000479
2334.51	0.0005629
2344.16	0.0005308
2353.8	0.0005308
2363.45	0.000436
2373.09	0.000498
2382.74	0.000486
2392.39	0.000481
2402.03	0.00052
2411.68	0.0005566
2421.33	0.00065433
2430.97	0.00071505
2440.62	0.00067933
2450.27	0.00065327
2459.91	0.0006018
2469.56	0.00061154
2479.21	0.000625841
2488.85	0.00069099
2498.5	0.00071271
2508.15	0.0008718
2517.79	0.0009725
2527.44	0.0010967
2537.09	0.0009492
2546.73	0.0009893
2556.38	0.0010531
2566.03	0.0010384
2575.67	0.0008898
2585.32	0.00066648
2594.96	0.00069839
2604.61	0.0006517
2614.26	0.0005214
2623.9	0.000487
2633.55	0.000629553
2643.2	0.000487
2652.84	0.000361
2662.49	0.000405
2672.14	0.000419
2681.78	0.00037
2691.43	0.000356
2701.08	0.000436
2710.72	0.00035
2720.37	0.000375
2730.02	0.000508
2739.66	0.000511
2749.31	0.0005506
2758.96	0.00065659
2768.6	0.00068603
2778.25	0.00067903
2787.9	0.0007732
2797.54	0.0007563
2807.19	0.0008327
2816.84	0.0011804
2826.48	0.0015998
2836.13	0.002861
2845.77	0.005421
2855.42	0.004461
2865.07	0.002361
2874.71	0.001691
2884.36	0.001701
2894.01	0.002041
2903.65	0.002701
2913.3	0.003931
2922.95	0.004401
2932.59	0.004771
2942.24	0.006711
2951.89	0.007401
2961.53	0.006701
2971.18	0.005551
2980.83	0.003951
2990.47	0.003141
3000.12	0.004171
3009.77	0.006841
3019.41	0.006051
3029.06	0.004661
3038.71	0.005941
3048.35	0.004671
3058	0.002471
3067.64	0.002351
3077.29	0.002621
3086.94	0.002261
3096.58	0.0016105
3106.23	0.001567
3115.88	0.0010343
3125.52	0.0008973
3135.17	0.00066715
3144.82	0.0005559
3154.46	0.000419
3164.11	0.000511
3173.76	0.0005294
3183.4	0.000630252
3193.05	0.000429
3202.7	0.000336
3212.34	0.000479
3221.99	0.000298
3231.64	0.000328
3241.28	0
3250.93	0.000174
3260.58	0.000251
3270.22	0.000149
3279.87	0.000354
3289.52	0.000207
3299.16	0.000242
3308.81	0.000253
3318.45	0.000127
3328.1	0.000211
3337.75	0.000158
3347.39	0.000302
3357.04	6.7e-05
3366.69	0.000409
3376.33	0.000155
3385.98	0.000216
3395.63	0.000195
3405.27	0.000356
3414.92	0.000265
3424.57	0.000252
3434.21	0.000258
3443.86	0.0003
3453.51	0.000301
3463.15	0.0004
3472.8	0.000257
3482.45	0.000247
3492.09	0.000152
3501.74	0.00041
3511.39	0.000292
3521.03	0.00021
3530.68	0.000357
3540.33	0.000173
3549.97	0.000325
3559.62	0.000311
3569.26	0.000413
3578.91	0.000294
3588.56	0.000394
3598.2	0.000385
3607.85	0.000207
3617.5	0.000356
3627.14	0.000196
3636.79	0.000236
3646.44	0.000202
3656.08	0.000298
3665.73	0.000369
3675.38	0.000295
3685.02	0.000348
3694.67	0.000291
3704.32	0.00027
3713.96	0.000423
3723.61	0.000335
3733.26	0.000329
3742.9	0.000278
3752.55	0.000292
3762.2	0.000383
3771.84	0.000385
3781.49	0.000443
3791.13	0.000466
3800.78	0.000339
3810.43	0.000462
3820.07	0.000429
3829.72	0.000442
3839.37	0.000343
3849.01	0.000433
3858.66	0.000439
3868.31	0.000472
3877.95	0.000485
3887.6	0.000308
3897.25	0.000414
3906.89	0.000438
3916.54	0.000365
3926.19	0.000397
3935.83	0.000349
3945.48	0.000386
3955.13	0.000346
3964.77	0.000412
3974.42	0.000467
3984.07	0.0005423
3993.71	0.0005248
