Infrared Spectrum: Dimethyl phthalimidomethylphosphonate
Formula: C11 H12 N O5 P
CAS: 28447-26-9
State: gas
Origin: EPA-IR VAPOR PHASE LIBRARY
1/CM	ABSORBANCE
549.9	0.0007757
559.547	0.0005768
569.193	0.000472
578.84	0.000363
588.486	0.000335
598.133	0.0005408
607.779	0.0005908
617.426	0.0005958
627.072	0.000513
636.719	0.0005307
646.365	0.0005315
656.012	0.0005382
665.658	0.000488
675.305	0.0005503
684.951	0.0005703
694.598	0.0007348
704.245	0.0009966
713.891	0.0014085
723.538	0.00119
733.184	0.0007817
742.831	0.00067931
752.477	0.000621711
762.124	0.00063445
771.77	0.0007475
781.417	0.0009636
791.063	0.0012466
800.71	0.0011956
810.356	0.0009325
820.003	0.0009856
829.649	0.0011183
839.296	0.0010987
848.943	0.0009116
858.589	0.00071678
868.236	0.00065324
877.882	0.00065337
887.529	0.0007554
897.175	0.0011168
906.822	0.0015934
916.468	0.0009968
926.115	0.00072067
935.761	0.00064414
945.408	0.00064106
955.054	0.0007337
964.701	0.0007943
974.347	0.0010615
983.994	0.0008956
993.64	0.0007812
1003.29	0.0008449
1012.93	0.0010875
1022.58	0.0014409
1032.23	0.002341
1041.87	0.003471
1051.52	0.003301
1061.17	0.003271
1070.81	0.002961
1080.46	0.001851
1090.11	0.0013813
1099.75	0.0011822
1109.4	0.0010666
1119.05	0.0009647
1128.69	0.0009065
1138.34	0.000917
1147.99	0.0009282
1157.63	0.0009197
1167.28	0.0010281
1176.92	0.0010928
1186.57	0.0012157
1196.22	0.0012037
1205.86	0.0010527
1215.51	0.0010868
1225.16	0.001015
1234.8	0.0009514
1244.45	0.0010224
1254.1	0.0011687
1263.74	0.0014487
1273.39	0.0015879
1283.04	0.0014607
1292.68	0.0012952
1302.33	0.0014458
1311.98	0.0014838
1321.62	0.001212
1331.27	0.0009655
1340.92	0.0009457
1350.56	0.0009346
1360.21	0.0012249
1369.86	0.001931
1379.5	0.002921
1389.15	0.002161
1398.79	0.001761
1408.44	0.002181
1418.09	0.0014123
1427.73	0.0009888
1437.38	0.0008311
1447.03	0.0008416
1456.67	0.0008145
1466.32	0.000907
1475.97	0.0008373
1485.61	0.00071717
1495.26	0.0007246
1504.91	0.00067715
1514.55	0.000744
1524.2	0.00071318
1533.85	0.00069493
1543.49	0.0007165
1553.14	0.0007573
1562.79	0.000769
1572.43	0.0007576
1582.08	0.0007609
1591.73	0.000806
1601.37	0.0007601
1611.02	0.0007941
1620.67	0.0007338
1630.31	0.0007191
1639.96	0.0007419
1649.6	0.00067916
1659.25	0.00069539
1668.9	0.00071868
1678.54	0.0007678
1688.19	0.0007777
1697.84	0.000856
1707.48	0.0009421
1717.13	0.0011028
1726.78	0.002401
1736.42	0.006471
1746.07	0.004451
1755.72	0.001603
1765.36	0.001155
1775.01	0.0011404
1784.66	0.0014265
1794.3	0.0011121
1803.95	0.0008318
1813.6	0.0008571
1823.24	0.0007233
1832.89	0.0007798
1842.54	0.00070551
1852.18	0.0007257
1861.83	0.00067133
1871.47	0.0007607
1881.12	0.00070971
1890.77	0.0007228
1900.41	0.00067607
1910.06	0.00069131
1919.71	0.00065331
1929.35	0.00068268
1939	0.00065852
1948.65	0.00069449
1958.29	0.000625064
1967.94	0.00063766
1977.59	0.0005902
1987.23	0.00062355
1996.88	0.0005981
2006.53	0.000602
2016.17	0.0005745
2025.82	0.0006028
2035.47	0.000583
2045.11	0.0005725
2054.76	0.0005562
2064.41	0.0005315
2074.05	0.0005339
2083.7	0.0005578
2093.35	0.00058
2102.99	0.0005658
2112.64	0.000569
2122.28	0.0005684
2131.93	0.0005867
2141.58	0.0005524
2151.22	0.0005539
2160.87	0.0005321
2170.52	0.0005661
2180.16	0.0005667
2189.81	0.00054
2199.46	0.0005486
2209.1	0.0005237
2218.75	0.000511
2228.4	0.000517
2238.04	0.0005475
2247.69	0.0005605
2257.34	0.000503
2266.98	0.0005339
2276.63	0.000514
2286.28	0.0005658
2295.92	0.0005238
2305.57	0.000502
2315.22	0.000505
2324.86	0.00052
2334.51	0.000502
2344.16	0.000476
2353.8	0.000441
2363.45	0.00045
2373.09	0.000434
2382.74	0.000464
2392.39	0.000506
2402.03	0.000478
2411.68	0.000451
2421.33	0.000459
2430.97	0.000472
2440.62	0.000473
2450.27	0.000501
2459.91	0.000429
2469.56	0.000395
2479.21	0.000425
2488.85	0.000431
2498.5	0.000355
2508.15	0.000416
2517.79	0.000415
2527.44	0.000413
2537.09	0.000429
2546.73	0.000333
2556.38	0.00041
2566.03	0.000412
2575.67	0.000393
2585.32	0.000348
2594.96	0.00037
2604.61	0.000394
2614.26	0.000355
2623.9	0.000307
2633.55	0.000383
2643.2	0.000391
2652.84	0.000262
2662.49	0.000329
2672.14	0.000293
2681.78	0.000282
2691.43	0.000291
2701.08	0.000356
2710.72	0.000302
2720.37	0.000262
2730.02	0.000268
2739.66	0.000284
2749.31	0.000256
2758.96	0.000264
2768.6	0.000212
2778.25	0.000216
2787.9	0.000283
2797.54	0.000164
2807.19	0.00021
2816.84	0.00024
2826.48	0.000176
2836.13	0.000145
2845.77	0.00021
2855.42	0.000278
2865.07	0.000341
2874.71	0.000275
2884.36	0.000228
2894.01	7.8e-05
2903.65	0.000109
2913.3	0.000269
2922.95	0.000157
2932.59	0.000277
2942.24	0.000328
2951.89	0.000447
2961.53	0.00065447
2971.18	0.000477
2980.83	0.000346
2990.47	0.000286
3000.12	0.000282
3009.77	0.000246
3019.41	0.000249
3029.06	0.000243
3038.71	0.000264
3048.35	0.000125
3058	0.000219
3067.64	0.000294
3077.29	0.000204
3086.94	0.000354
3096.58	0.00024
3106.23	0.000101
3115.88	0.000147
3125.52	0.000249
3135.17	1.7e-05
3144.82	0.000106
3154.46	5.1e-05
3164.11	0.000167
3173.76	0.000207
3183.4	5e-06
3193.05	0.00022
3202.7	0.000145
3212.34	0.000102
3221.99	6.4e-05
3231.64	0.000261
3241.28	0.000172
3250.93	0.000101
3260.58	8.4e-05
3270.22	1.7e-05
3279.87	0.00016
3289.52	0.00011
3299.16	0.000295
3308.81	0.000186
3318.45	0.000286
3328.1	0.000358
3337.75	0.000109
3347.39	0.000138
3357.04	0.000365
3366.69	0.000121
3376.33	0.00023
3385.98	0.00024
3395.63	0.000236
3405.27	0.000237
3414.92	0.000258
3424.57	0.000288
3434.21	9.5e-05
3443.86	0.000201
3453.51	0.000346
3463.15	0.00029
3472.8	0.000162
3482.45	0.000349
3492.09	0.000383
3501.74	0.000263
3511.39	0.000393
3521.03	0.000429
3530.68	0.000203
3540.33	0.000303
3549.97	0.000338
3559.62	0.000338
3569.26	0.000309
3578.91	0.000348
3588.56	0.000306
3598.2	0.000398
3607.85	0.000286
3617.5	0.000371
3627.14	0.000299
3636.79	0.000287
3646.44	0.000349
3656.08	0.000332
3665.73	0.000359
3675.38	0.000276
3685.02	0.000185
3694.67	0.000315
3704.32	0.000258
3713.96	0.000387
3723.61	0.000315
3733.26	0.000295
3742.9	0.000273
3752.55	0.000264
3762.2	0.000316
3771.84	0.000362
3781.49	0.000296
3791.13	0.000319
3800.78	0.000262
3810.43	0.000299
3820.07	0.000277
3829.72	0.000383
3839.37	0.000283
3849.01	0.000226
3858.66	0.000221
3868.31	0.000376
3877.95	0.000333
3887.6	0.000241
3897.25	0.000317
3906.89	0.000273
3916.54	0.00027
3926.19	0.000311
3935.83	0.000375
3945.48	0.000313
3955.13	0.000302
3964.77	0.000254
3974.42	0.000267
3984.07	0.000233
3993.71	0.000297
