Infrared Spectrum: Hydrazine, 1,2-bis(3,4-dichloro benzoyl)-,
Formula: C14 H8 Cl4 N2 O2
CAS: 28455-14-3
State: SOLID (SPLIT MULL), FLUOROLUBE FOR 3800-1330 CM^-^1, NUJOL FOR 1330-460 CM^-^1
Class: COBLENTZ III
Instrument: DOW KBr FOREPRISM-GRATING
Instrument parameters: BLAZED AT 3.5, 12.0, 20.0 MICRON AND CHANGED AT 5.0, 7.5, 14.9 MICRON
Sampling: TRANSMISSION
Resolution: 2
Origin: DOW CHEMICAL COMPANY
1/CM	TRANSMITTANCE
3800	0.7361
3791	0.7384
3782	0.741
3773	0.7408
3764	0.7405
3755	0.7399
3746	0.7401
3737	0.7442
3728	0.7474
3719	0.7491
3710	0.7505
3701	0.7514
3692	0.7498
3683	0.7433
3674	0.7489
3665	0.7562
3656	0.7584
3647	0.7561
3638	0.7544
3629	0.7543
3620	0.7545
3611	0.7549
3602	0.7561
3593	0.7575
3584	0.7576
3575	0.7545
3566	0.7538
3557	0.7568
3548	0.7562
3539	0.7553
3530	0.7551
3521	0.7551
3512	0.755
3503	0.755
3494	0.7551
3485	0.7551
3476	0.7555
3467	0.7561
3458	0.7568
3449	0.7574
3440	0.7575
3431	0.7576
3422	0.7576
3413	0.7575
3404	0.7575
3395	0.7564
3386	0.7542
3377	0.7515
3368	0.7456
3359	0.739
3350	0.7291
3341	0.7181
3332	0.7043
3323	0.688
3314	0.6674
3305	0.6441
3296	0.6196
3287	0.5916
3278	0.5552
3269	0.5226
3260	0.4884
3251	0.4384
3242	0.3879
3233	0.3421
3224	0.3175
3215	0.3116
3206	0.3119
3197	0.324
3188	0.3426
3179	0.3472
3170	0.3344
3161	0.332
3152	0.3599
3143	0.3966
3134	0.4283
3125	0.4555
3116	0.4782
3107	0.5009
3098	0.5077
3089	0.5069
3080	0.499
3071	0.4814
3062	0.47
3053	0.4544
3044	0.4107
3035	0.3947
3026	0.39
3017	0.407
3008	0.4219
2999	0.4171
2990	0.4112
2981	0.432
2972	0.4753
2963	0.507
2954	0.5414
2945	0.5637
2936	0.5812
2927	0.5985
2918	0.6137
2909	0.6341
2900	0.6493
2891	0.6547
2882	0.6578
2873	0.6628
2864	0.673
2855	0.6849
2846	0.6912
2837	0.6984
2828	0.7065
2819	0.7161
2810	0.7258
2801	0.7353
2792	0.7442
2783	0.7511
2774	0.7581
2765	0.7649
2756	0.7718
2747	0.7799
2738	0.7844
2729	0.7878
2720	0.7896
2711	0.7911
2702	0.7925
2693	0.7941
2684	0.7957
2675	0.7972
2666	0.7989
2657	0.8006
2648	0.8022
2639	0.8043
2630	0.8065
2621	0.8087
2612	0.8108
2603	0.8119
2594	0.8131
2585	0.8141
2576	0.8146
2567	0.8149
2558	0.8146
2549	0.8141
2540	0.8165
2531	0.8236
2522	0.8288
2513	0.8299
2504	0.8302
2495	0.8312
2486	0.8325
2477	0.8332
2468	0.834
2459	0.8347
2450	0.8354
2441	0.836
2432	0.8368
2423	0.8378
2414	0.839
2405	0.8392
2396	0.8394
2387	0.8393
2378	0.839
2369	0.8388
2360	0.8386
2351	0.8383
2342	0.8384
2333	0.8393
2324	0.8402
2315	0.8411
2306	0.842
2297	0.843
2288	0.844
2279	0.8453
2270	0.8471
2261	0.8489
2252	0.8521
2243	0.8559
2234	0.8593
2225	0.8625
2216	0.8647
2207	0.8661
2198	0.8675
2189	0.869
2180	0.8703
2171	0.8714
2162	0.8725
2153	0.8735
2144	0.8745
2135	0.8754
2126	0.8763
2117	0.8775
2108	0.8789
2099	0.8801
2090	0.8812
2081	0.8823
2072	0.8835
2063	0.8847
2054	0.8864
2045	0.8878
2036	0.8891
2027	0.8903
2018	0.8912
2009	0.8923
2000	0.8892
1991	0.8645
1982	0.8677
1973	0.8703
1964	0.8716
1955	0.872
1946	0.8725
1937	0.8635
1928	0.852
1919	0.8545
1910	0.8613
1901	0.864
1892	0.868
1883	0.8706
1874	0.871
1865	0.8701
1856	0.8688
1847	0.8698
1838	0.8702
1829	0.8694
1820	0.8584
1811	0.8553
1802	0.8584
1793	0.8566
1784	0.858
1775	0.8605
1766	0.8637
1757	0.8663
1748	0.8616
1739	0.8552
1730	0.8463
1721	0.8346
1712	0.8184
1703	0.7791
1694	0.6277
1685	0.3675
1676	0.4353
1667	0.5257
1658	0.3449
1649	0.0657
1640	0.0896
1631	0.3971
1622	0.5467
1613	0.6166
1604	0.6259
1595	0.4109
1586	0.5112
1577	0.6525
1568	0.6362
1559	0.3612
1550	0.2731
1541	0.2041
1532	0.274
1523	0.3664
1514	0.4588
1505	0.5512
1496	0.6186
1487	0.631
1478	0.6231
1469	0.2496
1460	0.3959
1451	0.5851
1442	0.6538
1433	0.6789
1424	0.6895
1415	0.6954
1406	0.6969
1397	0.689
1388	0.6385
1379	0.62
1370	0.6718
1361	0.6798
1352	0.6491
1343	0.5886
1334	0.5997
1325	0.5953
1316	0.5098
1307	0.2947
1298	0.1388
1289	0.3384
1280	0.468
1271	0.4146
1262	0.561
1253	0.636
1244	0.4192
1235	0.5574
1226	0.7078
1217	0.7398
1208	0.7369
1199	0.7338
1190	0.7484
1181	0.7461
1172	0.7231
1163	0.6984
1154	0.698
1145	0.5534
1136	0.6148
1127	0.6582
1118	0.6188
1109	0.6237
1100	0.7465
1091	0.7775
1082	0.7784
1073	0.7665
1064	0.7569
1055	0.7814
1046	0.7838
1037	0.6018
1028	0.488
1019	0.7607
1010	0.7897
1001	0.7937
992	0.7992
983	0.7991
974	0.7962
965	0.7915
956	0.7875
947	0.7849
938	0.7693
929	0.602
920	0.5772
911	0.5339
902	0.6317
893	0.6862
884	0.6978
875	0.8
866	0.8086
857	0.8106
848	0.8051
839	0.6565
830	0.6262
821	0.7925
812	0.8118
803	0.769
794	0.6701
785	0.7421
776	0.6478
767	0.6901
758	0.6935
749	0.5458
740	0.7074
731	0.7399
722	0.7251
713	0.7339
704	0.7395
695	0.7257
686	0.7811
677	0.561
668	0.6649
659	0.7011
650	0.7071
641	0.6981
632	0.6591
623	0.6289
614	0.5986
605	0.5721
596	0.5649
587	0.5992
578	0.534
569	0.5618
560	0.6057
551	0.6072
542	0.615
533	0.6504
524	0.6154
515	0.5804
506	0.6158
497	0.6575
488	0.6769
479	0.6865
470	0.6904
461	0.6828
