Infrared Spectrum: Benzenesulphonyl isocyanate
Formula: C 7 H 5 N O 3 S
CAS: 2845-62-7
State: gas
Origin: EPA-IR VAPOR PHASE LIBRARY
1/CM	ABSORBANCE
549.8	0.008853
559.445	0.026633
569.09	0.108423
578.734	0.124283
588.379	0.052853
598.024	0.059233
607.669	0.117153
617.313	0.278763
626.958	0.261383
636.603	0.094493
646.248	0.042133
655.893	0.026083
665.537	0.027323
675.182	0.043803
684.827	0.060523
694.472	0.052693
704.116	0.048953
713.761	0.067943
723.406	0.124253
733.051	0.224953
742.695	0.209693
752.34	0.086653
761.985	0.041323
771.63	0.021343
781.275	0.015933
790.919	0.011103
800.564	0.007573
810.209	0.005383
819.854	0.003773
829.498	0.003123
839.143	0.003323
848.788	0.002573
858.433	0.002263
868.078	0.002073
877.722	0.002173
887.367	0.002083
897.012	0.001513
906.657	0.001293
916.301	0.001293
925.946	0.0009861
935.591	0.001124
945.236	0.0011554
954.88	0.0011619
964.525	0.001423
974.17	0.001263
983.815	0.0011985
993.46	0.003633
1003.1	0.003783
1012.75	0.003883
1022.39	0.005913
1032.04	0.004423
1041.68	0.003883
1051.33	0.003153
1060.97	0.005983
1070.62	0.007463
1080.26	0.018783
1089.91	0.044003
1099.55	0.036923
1109.2	0.011353
1118.84	0.005213
1128.49	0.002673
1138.13	0.004143
1147.78	0.006233
1157.42	0.010723
1167.07	0.032263
1176.71	0.106863
1186.36	0.229713
1196	0.220153
1205.64	0.086653
1215.29	0.028803
1224.93	0.015203
1234.58	0.012033
1244.22	0.009253
1253.87	0.008033
1263.51	0.007783
1273.16	0.008923
1282.8	0.010543
1292.45	0.012823
1302.09	0.014913
1311.74	0.018613
1321.38	0.024323
1331.03	0.033413
1340.67	0.045033
1350.32	0.070253
1359.96	0.092523
1369.61	0.092803
1379.25	0.115483
1388.9	0.185973
1398.54	0.192343
1408.18	0.089863
1417.83	0.032403
1427.47	0.021383
1437.12	0.024983
1446.76	0.035863
1456.41	0.030903
1466.05	0.018013
1475.7	0.016973
1485.34	0.015213
1494.99	0.009233
1504.63	0.006333
1514.28	0.004023
1523.92	0.002653
1533.57	0.002083
1543.21	0.001703
1552.86	0.0011411
1562.5	0.001333
1572.15	0.001883
1581.79	0.003423
1591.44	0.003273
1601.08	0.002043
1610.73	0.001623
1620.37	0.001483
1630.01	0.0011792
1639.66	0.0010908
1649.3	0.0008919
1658.95	0.0011135
1668.59	0.001883
1678.24	0.002443
1687.88	0.001453
1697.53	0.000934
1707.17	0.0007698
1716.82	0.0005305
1726.46	0.0010734
1736.11	0.0012132
1745.75	0.001383
1755.4	0.001843
1765.04	0.001933
1774.69	0.002023
1784.33	0.001883
1793.98	0.002993
1803.62	0.004283
1813.27	0.003583
1822.91	0.002253
1832.55	0.001723
1842.2	0.001212
1851.84	0.001081
1861.49	0.0011334
1871.13	0.0011796
1880.78	0.002093
1890.42	0.002993
1900.07	0.003383
1909.71	0.003183
1919.36	0.002503
1929	0.001693
1938.65	0.001793
1948.29	0.002463
1957.94	0.003313
1967.58	0.003833
1977.23	0.003793
1986.87	0.002913
1996.52	0.001863
2006.16	0.001533
2015.81	0.001513
2025.45	0.001403
2035.1	0.001883
2044.74	0.002353
2054.38	0.002903
2064.03	0.003663
2073.67	0.004013
2083.32	0.004273
2092.96	0.004433
2102.61	0.004643
2112.25	0.005303
2121.9	0.005553
2131.54	0.006553
2141.19	0.008213
2150.83	0.011433
2160.48	0.016823
2170.12	0.026193
2179.77	0.040983
2189.41	0.056823
2199.06	0.083603
2208.7	0.141323
2218.35	0.259253
2227.99	0.526433
2237.64	1.01175
2247.28	1.13263
2256.92	0.614323
2266.57	0.205373
2276.21	0.081513
2285.86	0.034263
2295.5	0.020403
2305.15	0.016333
2314.79	0.016483
2324.44	0.019263
2334.08	0.021993
2343.73	0.021793
2353.37	0.017043
2363.02	0.012913
2372.66	0.009723
2382.31	0.006603
2391.95	0.004053
2401.6	0.002643
2411.24	0.001973
2420.89	0.001423
2430.53	0.001343
2440.18	0.001253
2449.82	0.001273
2459.47	0.001433
2469.11	0.001191
2478.75	0.001403
2488.4	0.001573
2498.04	0.001393
2507.69	0.001333
2517.33	0.001563
2526.98	0.001303
2536.62	0.0011862
2546.27	0.001453
2555.91	0.001803
2565.56	0.002353
2575.2	0.002613
2584.85	0.002183
2594.49	0.002093
2604.14	0.001473
2613.78	0.001333
2623.43	0.001243
2633.07	0.001283
2642.72	0.001423
2652.36	0.001393
2662.01	0.001803
2671.65	0.002373
2681.29	0.002623
2690.94	0.002673
2700.58	0.002463
2710.23	0.002333
2719.87	0.002283
2729.52	0.001823
2739.16	0.001993
2748.81	0.001653
2758.45	0.001463
2768.1	0.001673
2777.74	0.0010945
2787.39	0.001333
2797.03	0.0009109
2806.68	0.0008786
2816.32	0.0008522
2825.97	0.0009717
2835.61	0.0010116
2845.26	0.0008919
2854.9	0.0009579
2864.55	0.0008401
2874.19	0.0011245
2883.84	0.001273
2893.48	0.001683
2903.12	0.001513
2912.77	0.001453
2922.41	0.001933
2932.06	0.002553
2941.7	0.002933
2951.35	0.003593
2960.99	0.003623
2970.64	0.003733
2980.28	0.003533
2989.93	0.003203
2999.57	0.002673
3009.22	0.002323
3018.86	0.002503
3028.51	0.002523
3038.15	0.002983
3047.8	0.003413
3057.44	0.006113
3067.09	0.013713
3076.73	0.023313
3086.38	0.016693
3096.02	0.006683
3105.67	0.003693
3115.31	0.001923
3124.95	0.0010068
3134.6	0.0011199
3144.24	0.0007577
3153.89	0.000801
3163.53	0.0010904
3173.18	0.001323
3182.82	0.0010325
3192.47	0.0010106
3202.11	0.0004169
3211.76	0.000467
3221.4	0.0005888
3231.05	0.0005185
3240.69	0.00030593
3250.34	0.0005852
3259.98	0.0004146
3269.63	0.0005253
3279.27	0.0003377
3288.92	0.0003768
3298.56	0.000224338
3308.21	0.0007237
3317.85	0.0003322
3327.49	0.0005395
3337.14	0.0006303
3346.78	0.0007317
3356.43	0.0010723
3366.07	0.00028393
3375.72	0.0001903
3385.36	0.0005865
3395.01	0.000978
3404.65	0.0009009
3414.3	0.0006949
3423.94	0.001283
3433.59	0.0009206
3443.23	0.001353
3452.88	0.001243
3462.52	0.0012209
3472.17	0.001563
3481.81	0.001603
3491.46	0.001633
3501.1	0.001953
3510.75	0.002263
3520.39	0.002923
3530.04	0.003473
3539.68	0.004563
3549.32	0.005363
3558.97	0.007613
3568.61	0.010353
3578.26	0.012653
3587.9	0.012433
3597.55	0.009083
3607.19	0.005443
3616.84	0.003783
3626.48	0.002103
3636.13	0.002023
3645.77	0.002073
3655.42	0.001593
3665.06	0.001463
3674.71	0.001983
3684.35	0.002513
3694	0.002283
3703.64	0.002793
3713.29	0.002033
3722.93	0.001803
3732.58	0.002093
3742.22	0.0008897
3751.86	0.001283
3761.51	0.0007621
3771.15	0.0008413
3780.8	0.00103
3790.44	0.0006202
3800.09	0.0009244
3809.73	0.0004771
3819.38	0.0008027
3829.02	0.0006885
3838.67	0.0009544
3848.31	0.0005293
3857.96	0
3867.6	0.0007414
3877.25	0.0006
3886.89	0.0006606
3896.54	0.0006655
3906.18	0.0006953
3915.83	0.0006383
3925.47	0.0004415
3935.12	0.0006362
3944.76	0.0007301
3954.41	0.0009858
3964.05	0.0004943
3973.69	0.0007205
3983.34	0.0004744
3992.98	0.0003333
