Infrared Spectrum: 3-Chloroanisole
Formula: C 7 H 7 Cl O
CAS: 2845-89-8
State: gas
Instrument: HP-GC/MS/IRD
Origin: NIST Mass Spectrometry Data Center
1/CM	ABSORBANCE
550	0.00082
562	0.0009799
574	0.0005248
586	0.0001968
598	0.0001271
610	9.02e-05
622	0.0002501
634	0.0003977
646	0.0005453
658	0.0013202
670	0.0037433
682	0.0063222
694	0.0034563
706	0.0010414
718	0.0003772
730	0.000369
742	0.0011849
754	0.0038581
766	0.0079827
778	0.0071217
790	0.002706
802	0.0010455
814	0.0012956
826	0.0025051
838	0.0071832
850	0.0147272
862	0.0164492
874	0.0075932
886	0.0020418
898	0.0009307
910	0.000574
922	0.0004387
934	0.0003649
946	0.0003198
958	0.0004018
970	0.0007216
982	0.0013612
994	0.0021648
1006	0.002706
1018	0.0053054
1030	0.0119679
1042	0.0178637
1054	0.0150962
1066	0.0101803
1078	0.009635
1090	0.0094177
1102	0.0070889
1114	0.0021607
1126	0.0010209
1138	0.0010988
1150	0.0018655
1162	0.0022222
1174	0.0022755
1186	0.0027224
1198	0.002829
1210	0.0049733
1222	0.0117383
1234	0.0185156
1246	0.0213528
1258	0.0181507
1270	0.01189
1282	0.0136079
1294	0.0116071
1306	0.0070971
1318	0.0046945
1330	0.003485
1342	0.0017794
1354	0.0010496
1366	0.000861
1378	0.000984
1390	0.0016236
1402	0.0028003
1414	0.0050635
1426	0.008159
1438	0.0097949
1450	0.0097006
1462	0.0127715
1474	0.0233987
1486	0.0250592
1498	0.0093111
1510	0.0028946
1522	0.0026855
1534	0.0031119
1546	0.0035465
1558	0.0057031
1570	0.0135013
1582	0.0309632
1594	0.0390238
1606	0.0184336
1618	0.0048831
1630	0.002296
1642	0.0015662
1654	0.0009922
1666	0.0008487
1678	0.0007872
1690	0.0006519
1702	0.000574
1714	0.0006232
1726	0.0007175
1738	0.0005781
1750	0.0005412
1762	0.0004797
1774	0.0003977
1786	0.0003772
1798	0.0003444
1810	0.0003895
1822	0.0004305
1834	0.000492
1846	0.0004305
1858	0.0003239
1870	0.0002378
1882	0.0002665
1894	0.0004141
1906	0.0006027
1918	0.0006109
1930	0.0004469
1942	0.0002009
1954	0.0001312
1966	0.0001312
1978	0.0001599
1990	0.0001722
2002	0.000164
2014	0.0001599
2026	0.0002337
2038	0.0002993
2050	0.0003649
2062	0.0005289
2074	0.0006601
2086	0.0006314
2098	0.0005576
2110	0.0005658
2122	0.0004059
2134	0.0003034
2146	0.0002091
2158	0.0001599
2170	0.0001189
2182	9.43e-05
2194	4.51e-05
2206	2.87e-05
2218	4.1e-05
2230	4.92e-05
2242	6.56e-05
2254	8.61e-05
2266	0.0001681
2278	0.0002378
2290	0.0002009
2302	0.0001763
2314	0.0002296
2326	0.000246
2338	0.0001845
2350	0.0001271
2362	0.0001066
2374	0.0001107
2386	0.0001107
2398	0.0001312
2410	0.0001558
2422	0.0001558
2434	0.0001886
2446	0.0002583
2458	0.0002706
2470	0.000246
2482	0.0003444
2494	0.0004141
2506	0.0004346
2518	0.000369
2530	0.0002911
2542	0.0002132
2554	0.0002583
2566	0.0002296
2578	0.0002214
2590	0.0002214
2602	0.0002132
2614	0.0001927
2626	0.0001681
2638	0.0002296
2650	0.0002542
2662	0.0002337
2674	0.0002542
2686	0.0002665
2698	0.000246
2710	0.0002665
2722	0.0002788
2734	0.0002911
2746	0.0002624
2758	0.0002665
2770	0.0003116
2782	0.0003649
2794	0.000533
2806	0.0007093
2818	0.0010742
2830	0.0020418
2842	0.0039032
2854	0.0037351
2866	0.0022386
2878	0.0020418
2890	0.0022263
2902	0.0027839
2914	0.0036449
2926	0.0039524
2938	0.005412
2950	0.0073472
2962	0.0065313
2974	0.004182
2986	0.0030012
2998	0.0038622
3010	0.0056867
3022	0.0041984
3034	0.0022017
3046	0.0017466
3058	0.001599
3070	0.0022304
3082	0.0030463
3094	0.0024477
3106	0.0012546
3118	0.000656
3130	0.0004387
3142	0.000328
3154	0.0002706
3166	0.0002911
3178	0.0002952
3190	0.0002624
3202	0.0001804
3214	0.0001517
3226	0.0001353
3238	7.38e-05
3250	8.2e-05
3262	0.0001271
3274	1.64e-05
3286	2.05e-05
3298	0.0001394
3310	0.0001394
3322	0.0001189
3334	9.43e-05
3346	7.38e-05
3358	4.1e-05
3370	4.51e-05
3382	8.2e-05
3394	8.61e-05
3406	4.92e-05
3418	6.15e-05
3430	0.0001476
3442	3.69e-05
3454	8.61e-05
3466	9.02e-05
3478	4.51e-05
3490	0.0001517
3502	0.0001271
3514	9.43e-05
3526	9.43e-05
3538	0.0001353
3550	0.0001353
3562	2.46e-05
3574	7.79e-05
3586	8.2e-05
3598	8.2e-06
3610	7.79e-05
3622	5.74e-05
3634	0.0001025
3646	3.69e-05
3658	1.23e-05
3670	3.28e-05
3682	9.84e-05
3694	0.0001148
3706	8.61e-05
3718	0.0001353
3730	0.0001353
3742	4.1e-06
3754	2.46e-05
3766	0.0001722
3778	0.000164
3790	0.0001189
3802	9.02e-05
3814	3.69e-05
3826	7.38e-05
3838	4.92e-05
