Infrared Spectrum: Diethyl methylthiomethylphosphonate
Formula: C 6 H 15 O 3 P S
CAS: 28460-01-7
State: gas
Origin: EPA-IR VAPOR PHASE LIBRARY
1/CM	ABSORBANCE
501.5	0.01658
513.074	0.02461
524.648	0.02895
536.222	0.01826
547.796	0.00792
559.37	0.00387
570.944	0.00243
582.518	0.00185
594.092	0.00157
605.666	0.00143
617.24	0.00148
628.814	0.00176
640.388	0.00239
651.962	0.00391
663.536	0.00623
675.11	0.00829
686.684	0.00784
698.258	0.00648
709.832	0.00813
721.406	0.00936
732.98	0.01338
744.554	0.01181
756.128	0.01243
767.702	0.01786
779.276	0.02008
790.85	0.02685
802.423	0.04347
813.997	0.05324
825.571	0.04013
837.145	0.01777
848.719	0.0093
860.293	0.00687
871.867	0.00639
883.441	0.007
895.015	0.00888
906.589	0.01305
918.163	0.02248
929.737	0.04556
941.311	0.08656
952.885	0.10627
964.459	0.08829
976.033	0.05915
987.607	0.03663
999.181	0.03551
1010.76	0.05968
1022.33	0.12842
1033.9	0.206
1045.48	0.19258
1057.05	0.16038
1068.63	0.12456
1080.2	0.07258
1091.77	0.05609
1103.35	0.04675
1114.92	0.0307
1126.49	0.02385
1138.07	0.02107
1149.64	0.02004
1161.22	0.01879
1172.79	0.01878
1184.36	0.02284
1195.94	0.01788
1207.51	0.00961
1219.09	0.00805
1230.66	0.00893
1242.23	0.01319
1253.81	0.0311
1265.38	0.07401
1276.96	0.08194
1288.53	0.04481
1300.1	0.02228
1311.68	0.01331
1323.25	0.01032
1334.83	0.00699
1346.4	0.00524
1357.97	0.00661
1369.55	0.01176
1381.12	0.01817
1392.7	0.02206
1404.27	0.01515
1415.84	0.00908
1427.42	0.00927
1438.99	0.01022
1450.57	0.00948
1462.14	0.00668
1473.71	0.00536
1485.29	0.00459
1496.86	0.00355
1508.44	0.00278
1520.01	0.00221
1531.58	0.00185
1543.16	0.00161
1554.73	0.00143
1566.31	0.00132
1577.88	0.00124
1589.45	0.00123
1601.03	0.00119
1612.6	0.00115
1624.18	0.00115
1635.75	0.00121
1647.32	0.00124
1658.9	0.00127
1670.47	0.00133
1682.05	0.00141
1693.62	0.00147
1705.19	0.00155
1716.77	0.0016
1728.34	0.0017
1739.92	0.00189
1751.49	0.00201
1763.06	0.00213
1774.64	0.0021
1786.21	0.00196
1797.79	0.00192
1809.36	0.00184
1820.93	0.00181
1832.51	0.00185
1844.08	0.00193
1855.66	0.00199
1867.23	0.00189
1878.8	0.00166
1890.38	0.00132
1901.95	0.000999
1913.53	0.0007859
1925.1	0.0006266
1936.67	0.0005013
1948.25	0.000415
1959.82	0.0003955
1971.4	0.0004253
1982.97	0.0004638
1994.54	0.000472
2006.12	0.0004205
2017.69	0.0003508
2029.27	0.0003227
2040.84	0.0003243
2052.41	0.0002919
2063.99	0.0003098
2075.56	0.0003445
2087.14	0.0003516
2098.71	0.0004004
2110.28	0.0003666
2121.86	0.0003255
2133.43	0.0003247
2145.01	0.0003537
2156.58	0.0003332
2168.15	0.0003609
2179.73	0.0003344
2191.3	0.0003013
2202.88	0.0002985
2214.45	0.0002823
2226.02	0.000272
2237.6	0.0002662
2249.17	0.0002518
2260.74	0.0002631
2272.32	0.0002991
2283.89	0.0003678
2295.47	0.0003411
2307.04	0.0003249
2318.61	0.0003275
2330.19	0.0003624
2341.76	0.000354
2353.34	0.0003192
2364.91	0.0002681
2376.48	0.0002884
2388.06	0.0002374
2399.63	0.0002838
2411.21	0.0002904
2422.78	0.0003306
2434.35	0.0003334
2445.93	0.0003495
2457.5	0.0003672
2469.08	0.0003081
2480.65	0.0002239
2492.22	0.0001561
2503.8	0.0001599
2515.37	0.0001913
2526.95	0.0002254
2538.52	0.0002361
2550.09	0.0002377
2561.67	0.000282
2573.24	0.0003155
2584.82	0.0002066
2596.39	0.000172
2607.96	0.0001709
2619.54	0.0001821
2631.11	0.0001583
2642.69	0.000162
2654.26	0.0001871
2665.83	0.000168
2677.41	0.0001782
2688.98	0.0002122
2700.56	0.0002893
2712.13	0.0004546
2723.7	0.0007561
2735.28	0.00107
2746.85	0.00116
2758.43	0.00125
2770	0.00151
2781.57	0.00164
2793.15	0.00159
2804.72	0.00178
2816.3	0.00223
2827.87	0.00314
2839.44	0.00471
2851.02	0.00573
2862.59	0.00657
2874.17	0.00977
2885.74	0.01248
2897.31	0.01501
2908.89	0.02212
2920.46	0.03186
2932.04	0.04146
2943.61	0.03637
2955.18	0.02666
2966.76	0.02857
2978.33	0.0415
2989.91	0.04744
3001.48	0.03149
3013.05	0.0184
3024.63	0.0109
3036.2	0.00644
3047.78	0.00412
3059.35	0.00288
3070.92	0.00222
3082.5	0.00185
3094.07	0.00164
3105.65	0.00151
3117.22	0.00139
3128.79	0.0013
3140.37	0.00126
3151.94	0.00113
3163.52	0.00102
3175.09	0.0008638
3186.66	0.0008327
3198.24	0.0007592
3209.81	0.0006829
3221.39	0.0006697
3232.96	0.0005915
3244.53	0.0004958
3256.11	0.0004155
3267.68	0.0003281
3279.26	0.0003173
3290.83	0.0002509
3302.4	0.0002786
3313.98	0.0002404
3325.55	0.0001773
3337.13	0.0001502
3348.7	0.0001897
3360.27	0.0001473
3371.85	0.0001763
3383.42	0.000162
3395	0.0001544
3406.57	0.0001596
3418.14	0.00013
3429.72	8.963e-05
3441.29	0.0001072
3452.86	0.00014
3464.44	7.879e-05
3476.01	9.5e-05
3487.59	0.0001243
3499.16	0.000127
3510.73	9.591e-05
3522.31	0.0001121
3533.88	0.0001086
3545.46	8.441e-05
3557.03	3.671e-05
3568.6	4.106e-05
3580.18	0.0001179
3591.75	0.0001065
3603.33	7.36e-05
3614.9	8.774e-05
3626.47	6.563e-05
3638.05	0.00012
3649.62	0.0001283
3661.2	0.0001108
3672.77	8.546e-05
3684.34	0.0001628
3695.92	0.0002381
3707.49	0.000246
3719.07	0.0002504
3730.64	0.0003019
3742.21	0.00025
3753.79	0.0002118
3765.36	0.000241
3776.94	0.0002579
3788.51	0.0002044
3800.08	0.0001977
3811.66	0.0002102
3823.23	0.0001598
3834.81	0.0001299
3846.38	0.0001261
3857.95	0.0001373
3869.53	0.0001893
3881.1	0.0003244
3892.68	0.0003389
3904.25	0.0003054
3915.82	0.0003101
3927.4	0.0003789
3938.97	0.000339
3950.55	0.0003833
3962.12	0.0004861
3973.69	0.0005003
3985.27	0.0003284
3996.84	0.0004309
