Infrared Spectrum: 4-Pyrimidinethiol, 5,6-diamino-
Formula: C4 H6 N4 S
CAS: 2846-89-1
State: SOLID (SPLIT MULL), FLUOROLUBE FOR 3800-1330 CM^-^1, NUJOL FOR 1330-460 CM^-^1
Class: COBLENTZ III
Instrument: DOW KBr FOREPRISM-GRATING
Instrument parameters: BLAZED AT 3.5, 12.0, 20.0 MICRON AND CHANGED AT 5.0, 7.5, 14.9 MICRON
Sampling: TRANSMISSION
Resolution: 2
Origin: DOW CHEMICAL COMPANY
1/CM	TRANSMITTANCE
463	0.9099
472	0.9097
481	0.9066
490	0.9023
499	0.8947
508	0.8805
517	0.8587
526	0.814
535	0.8871
544	0.9699
553	0.9385
562	0.8279
571	0.9544
580	0.9255
589	0.8861
598	0.7937
607	0.756
616	0.8219
625	0.694
634	0.596
643	0.4996
652	0.4201
661	0.3508
670	0.2821
679	0.4635
688	0.551
697	0.604
706	0.5956
715	0.5626
724	0.5269
733	0.5524
742	0.5614
751	0.561
760	0.6401
769	0.7467
778	0.7364
787	0.7174
796	0.6939
805	0.6621
814	0.6044
823	0.4328
832	0.1789
841	0.1992
850	0.0969
859	0.5112
868	0.6618
877	0.5958
886	0.4978
895	0.3022
904	0.1186
913	0.1587
922	0.3442
931	0.4792
940	0.5802
949	0.5797
958	0.5942
967	0.4669
976	0.369
985	0.6147
994	0.7204
1003	0.7335
1012	0.7292
1021	0.712
1030	0.6759
1039	0.6174
1048	0.587
1057	0.613
1066	0.6459
1075	0.637
1084	0.6225
1093	0.5959
1102	0.5614
1111	0.5266
1120	0.4765
1129	0.4104
1138	0.3381
1147	0.214
1156	0.0548
1165	0.1947
1174	0.2438
1183	0.5972
1192	0.8314
1201	0.8018
1210	0.7587
1219	0.7006
1228	0.6052
1237	0.5017
1246	0.5211
1255	0.4674
1264	0.301
1273	0.4339
1282	0.4961
1291	0.4777
1300	0.4647
1309	0.4552
1318	0.4446
1327	0.4325
1336	0.4501
1345	0.3977
1354	0.4095
1363	0.4566
1372	0.3768
1381	0.3832
1390	0.5703
1399	0.5559
1408	0.5297
1417	0.4977
1426	0.4662
1435	0.4296
1444	0.3881
1453	0.3318
1462	0.2658
1471	0.1997
1480	0.3596
1489	0.5198
1498	0.4462
1507	0.2456
1516	0.2449
1525	0.4623
1534	0.4307
1543	0.3557
1552	0.2226
1561	0.0605
1570	0.2178
1579	0.1663
1588	0.0951
1597	0.0524
1606	0.0631
1615	0.2615
1624	0.5032
1633	0.4894
1642	0.3236
1651	0.1052
1660	0.1668
1669	0.408
1678	0.7283
1687	0.8068
1696	0.8485
1705	0.8627
1714	0.8739
1723	0.8748
1732	0.873
1741	0.8641
1750	0.8529
1759	0.8459
1768	0.844
1777	0.836
1786	0.825
1795	0.8122
1804	0.7996
1813	0.7915
1822	0.7875
1831	0.7839
1840	0.7769
1849	0.7701
1858	0.7613
1867	0.7505
1876	0.7345
1885	0.7049
1894	0.7315
1903	0.7347
1912	0.7302
1921	0.7241
1930	0.7178
1939	0.711
1948	0.7049
1957	0.7047
1966	0.693
1975	0.6852
1984	0.6797
1993	0.6756
2002	0.6955
2011	0.693
2020	0.6912
2029	0.6902
2038	0.6863
2047	0.6805
2056	0.6756
2065	0.6702
2074	0.6638
2083	0.6567
2092	0.6506
2101	0.6454
2110	0.6411
2119	0.6373
2128	0.6336
2137	0.6295
2146	0.625
2155	0.6201
2164	0.615
2173	0.6099
2182	0.6048
2191	0.6
2200	0.5955
2209	0.5912
2218	0.5874
2227	0.5835
2236	0.5796
2245	0.5757
2254	0.5718
2263	0.5675
2272	0.563
2281	0.5585
2290	0.5538
2299	0.549
2308	0.5449
2317	0.5408
2326	0.5367
2335	0.5329
2344	0.5292
2353	0.5254
2362	0.5221
2371	0.5191
2380	0.5159
2389	0.5124
2398	0.5091
2407	0.506
2416	0.5032
2425	0.5009
2434	0.4984
2443	0.495
2452	0.4916
2461	0.4882
2470	0.4844
2479	0.4797
2488	0.4751
2497	0.4704
2506	0.4651
2515	0.4598
2524	0.4544
2533	0.4487
2542	0.4429
2551	0.4371
2560	0.4314
2569	0.4257
2578	0.4202
2587	0.414
2596	0.4077
2605	0.4005
2614	0.394
2623	0.3923
2632	0.391
2641	0.3886
2650	0.3836
2659	0.3779
2668	0.3705
2677	0.3603
2686	0.3479
2695	0.3379
2704	0.3291
2713	0.3231
2722	0.3204
2731	0.3183
2740	0.3148
2749	0.3073
2758	0.296
2767	0.2858
2776	0.2773
2785	0.2703
2794	0.2666
2803	0.2592
2812	0.2484
2821	0.237
2830	0.2247
2839	0.2115
2848	0.1992
2857	0.1846
2866	0.1671
2875	0.1526
2884	0.1397
2893	0.1291
2902	0.1258
2911	0.1463
2920	0.2103
2929	0.2198
2938	0.2059
2947	0.1839
2956	0.1572
2965	0.142
2974	0.1339
2983	0.1348
2992	0.1455
3001	0.1621
3010	0.1776
3019	0.1805
3028	0.1745
3037	0.1845
3046	0.194
3055	0.1928
3064	0.18
3073	0.1635
3082	0.1426
3091	0.1185
3100	0.0945
3109	0.0742
3118	0.0656
3127	0.0664
3136	0.0704
3145	0.0804
3154	0.0928
3163	0.0954
3172	0.1042
3181	0.1226
3190	0.1673
3199	0.2124
3208	0.2567
3217	0.3064
3226	0.3325
3235	0.3321
3244	0.3226
3253	0.3051
3262	0.286
3271	0.2581
3280	0.2216
3289	0.1363
3298	0.1051
3307	0.2184
3316	0.242
3325	0.2632
3334	0.3113
3343	0.4267
3352	0.4682
3361	0.4967
3370	0.517
3379	0.5288
3388	0.5298
3397	0.5272
3406	0.5248
3415	0.5221
3424	0.519
3433	0.513
3442	0.5068
3451	0.5002
3460	0.4932
3469	0.4861
3478	0.4795
3487	0.473
3496	0.4667
3505	0.4611
3514	0.4555
3523	0.4499
3532	0.4447
3541	0.4396
3550	0.4345
3559	0.4307
3568	0.427
3577	0.4255
3586	0.4245
3595	0.4196
3604	0.4148
3613	0.4102
3622	0.4065
3631	0.403
3640	0.4008
3649	0.3984
3658	0.396
3667	0.3934
3676	0.3908
3685	0.3883
3694	0.386
3703	0.3837
3712	0.3814
3721	0.3791
3730	0.3769
3739	0.3746
3748	0.3721
3757	0.369
3766	0.366
3775	0.3629
3784	0.36
3793	0.357
3802	0.3546
