Infrared Spectrum: 4-Amino-1,3,5-trimethylpyrazole
Formula: C 6 H 11 N 3
CAS: 28466-21-9
State: gas
Origin: EPA-IR VAPOR PHASE LIBRARY
1/CM	ABSORBANCE
549.8	0.00532
559.445	0.00647
569.09	0.00603
578.735	0.00539
588.38	0.00603
598.025	0.00694
607.67	0.00769
617.315	0.00748
626.96	0.0069
636.605	0.00658
646.251	0.00677
655.896	0.00708
665.541	0.00775
675.186	0.00785
684.831	0.00782
694.476	0.00729
704.121	0.00695
713.766	0.00686
723.411	0.00781
733.056	0.00805
742.701	0.00745
752.346	0.00588
761.991	0.00504
771.636	0.00429
781.281	0.00396
790.926	0.00358
800.571	0.00318
810.216	0.00292
819.861	0.00281
829.507	0.0026
839.152	0.00264
848.797	0.00248
858.442	0.00212
868.087	0.00181
877.732	0.00171
887.377	0.00155
897.022	0.00169
906.667	0.00171
916.312	0.00175
925.957	0.00175
935.602	0.00187
945.247	0.00217
954.892	0.00252
964.537	0.00327
974.182	0.00395
983.827	0.00416
993.472	0.00366
1003.12	0.00286
1012.76	0.00242
1022.41	0.00247
1032.05	0.00268
1041.7	0.00244
1051.34	0.00206
1060.99	0.00189
1070.63	0.00189
1080.28	0.00183
1089.92	0.00177
1099.57	0.00177
1109.21	0.0019
1118.86	0.00205
1128.5	0.00234
1138.15	0.00287
1147.79	0.00352
1157.44	0.00381
1167.08	0.0036
1176.73	0.00315
1186.37	0.00264
1196.02	0.0026
1205.66	0.00295
1215.31	0.00422
1224.95	0.00558
1234.6	0.00584
1244.24	0.00469
1253.89	0.00376
1263.53	0.00372
1273.18	0.00448
1282.82	0.00651
1292.47	0.00997
1302.11	0.01362
1311.76	0.01404
1321.4	0.01062
1331.05	0.00651
1340.69	0.00561
1350.34	0.00721
1359.98	0.01127
1369.63	0.01563
1379.27	0.01855
1388.92	0.01511
1398.56	0.00873
1408.21	0.00431
1417.85	0.004
1427.5	0.00491
1437.14	0.00682
1446.79	0.00933
1456.43	0.01218
1466.08	0.01605
1475.73	0.01866
1485.37	0.01635
1495.02	0.01034
1504.66	0.00642
1514.31	0.00451
1523.95	0.00363
1533.6	0.00331
1543.24	0.00317
1552.89	0.00313
1562.53	0.00332
1572.18	0.00392
1581.82	0.00513
1591.47	0.0062
1601.11	0.00683
1610.76	0.00703
1620.4	0.00663
1630.05	0.00537
1639.69	0.00365
1649.34	0.00254
1658.98	0.0019
1668.63	0.0017
1678.27	0.00143
1687.92	0.0012311
1697.56	0.0012098
1707.21	0.0011913
1716.85	0.0011075
1726.5	0.0009759
1736.14	0.000887
1745.79	0.0008088
1755.43	0.0007921
1765.08	0.000574
1774.72	0.0006207
1784.37	0.0006261
1794.01	0.0006072
1803.66	0.0004994
1813.3	0.000385
1822.95	0.0004136
1832.59	0.00033514
1842.24	0.000392
1851.88	0.00035948
1861.53	0.00036363
1871.17	0.0004079
1880.82	0.00035344
1890.46	0.00031631
1900.11	0.00034611
1909.75	0.0004024
1919.4	0.00035554
1929.04	0.00030543
1938.69	0.00034133
1948.33	0.0002381
1957.98	0.0002362
1967.62	0.0001998
1977.27	0.000161
1986.91	0.000134
1996.56	0.0001926
2006.2	0.00013
2015.85	0.000163
2025.49	0.000141
2035.14	0.000147
2044.78	0.000164
2054.43	0.000145
2064.07	0.00029282
2073.72	0.000172
2083.36	0.0002588
2093.01	0.000178
2102.65	0.0002287
2112.3	0.000173
2121.94	0.0001891
2131.59	5.6e-05
2141.23	0.000112
2150.88	0.00016
2160.52	0.00018
2170.17	4.3e-05
2179.81	6.5e-05
2189.46	0.000149
2199.1	5.9e-05
2208.75	8e-05
2218.39	0.00014
2228.04	0.000122
2237.68	9.4e-05
2247.33	0.000169
2256.97	0.000112
2266.62	6.7e-05
2276.26	0.000108
2285.91	0.000105
2295.55	0.000146
2305.2	0.000148
2314.84	0.0001843
2324.49	0.0002117
2334.13	0.000127
2343.78	0.0002197
2353.42	0.0001989
2363.07	0.0002049
2372.72	0.000116
2382.36	0.000134
2392.01	7.7e-05
2401.65	2.4e-05
2411.3	7e-05
2420.94	9.1e-05
2430.59	8e-05
2440.23	3.4e-05
2449.88	5.5e-05
2459.52	0.000116
2469.17	5.1e-05
2478.81	0.0001808
2488.46	0.000109
2498.1	0.000101
2507.75	0.000113
2517.39	0.000144
2527.04	0.000164
2536.68	0.000161
2546.33	0.0002017
2555.97	0.00015
2565.62	0.0001845
2575.26	0.000177
2584.91	0.000159
2594.55	0.000145
2604.2	0.00030078
2613.84	0.000136
2623.49	0.0002006
2633.13	0.000144
2642.78	0.000196
2652.42	0.000156
2662.07	0.0002526
2671.71	0.0002427
2681.36	0.00030543
2691	0.0002621
2700.65	0.00037873
2710.29	0.0003982
2719.94	0.0004664
2729.58	0.000817
2739.23	0.001074
2748.87	0.0012114
2758.52	0.0010947
2768.16	0.0010558
2777.81	0.0012456
2787.45	0.00149
2797.1	0.00187
2806.74	0.0021
2816.39	0.00253
2826.03	0.00339
2835.68	0.00415
2845.32	0.00486
2854.97	0.00619
2864.61	0.00848
2874.26	0.01034
2883.9	0.01118
2893.55	0.01124
2903.19	0.01175
2912.84	0.01505
2922.48	0.02234
2932.13	0.02759
2941.77	0.02783
2951.42	0.0232
2961.06	0.01622
2970.71	0.01012
2980.35	0.00728
2990	0.00613
2999.64	0.00525
3009.29	0.00432
3018.93	0.00415
3028.58	0.00452
3038.22	0.00469
3047.87	0.00426
3057.51	0.00368
3067.16	0.00275
3076.8	0.00213
3086.45	0.00185
3096.09	0.00148
3105.74	0.0010123
3115.38	0.0008419
3125.03	0.000654
3134.67	0.0004948
3144.32	0.000289421
3153.96	0.0004206
3163.61	0.00028438
3173.25	0.0002634
3182.9	0.0003948
3192.54	0.00030803
3202.19	0.0002437
3211.83	0.000269
3221.48	0.000283825
3231.12	0.00032218
3240.77	0.00037377
3250.41	0.0004074
3260.06	0.00031346
3269.7	0.0003832
3279.35	0.00034682
3289	0.00035755
3298.64	0.00037009
3308.29	0.0001908
3317.93	0.000469
3327.58	0.0004208
3337.22	0.00037862
3346.87	0.0005046
3356.51	0.0005824
3366.16	0.0006075
3375.8	0.0006744
3385.45	0.0005616
3395.09	0.0005679
3404.74	0.0006641
3414.38	0.0007768
3424.03	0.0005692
3433.67	0.0005146
3443.32	0.0006959
3452.96	0.000517
3462.61	0.0007338
3472.25	0.0006328
3481.9	0.0005754
3491.54	0.000604
3501.19	0.0007078
3510.83	0.0005617
3520.48	0.00032501
3530.12	0.0005662
3539.77	0.0004525
3549.41	0.0004908
3559.06	0.00035058
3568.7	0.0004454
3578.35	0.0004742
3587.99	0.0003855
3597.64	0.0002398
3607.28	0.00030499
3616.93	0.00030328
3626.57	0.0003922
3636.22	0.0002612
3645.86	0.000283692
3655.51	0.0003944
3665.15	0.0003068
3674.8	0.00034665
3684.44	0.0002106
3694.09	0.00032137
3703.73	7.1e-05
3713.38	0.000209
3723.02	0.0002705
3732.67	0.0004282
3742.31	0.0004834
3751.96	0.0002603
3761.6	0.0002511
3771.25	0.000402
3780.89	0.00032645
3790.54	0.00018
3800.18	0.00031016
3809.83	0.0003157
3819.47	0.0002453
3829.12	0.00031702
3838.76	0.0003385
3848.41	0.0004035
3858.05	0.0002972
3867.7	0.00031275
3877.34	0.0004162
3886.99	0.0002327
3896.63	0.0002499
3906.28	0.0002573
3915.92	0.00036598
3925.57	0.000133
3935.21	0.00034269
3944.86	0.0003907
3954.5	0.0002983
3964.15	0.0003277
3973.79	0.00035355
3983.44	0.000182
3993.08	0.0004987
