Infrared Spectrum: 4-Methyldecane
Formula: C 11 H 24
CAS: 2847-72-5
State: gas
Instrument: HP-GC/MS/IRD
Origin: NIST Mass Spectrometry Data Center
1/CM	ABSORBANCE
550	0.0002438
562	0.0001643
574	0.0001643
586	0.0001537
598	9.54e-05
610	8.48e-05
622	0.0001378
634	7.42e-05
646	0.000106
658	0.0001378
670	9.54e-05
682	0.0001484
694	0.0002438
706	0.0004452
718	0.0006466
730	0.0007049
742	0.0008427
754	0.0006042
766	0.000424
778	0.0003233
790	0.0002809
802	0.0002597
814	0.0002226
826	0.0002491
838	0.000265
850	0.0002703
862	0.0002809
874	0.0002703
886	0.0003551
898	0.000371
910	0.0003657
922	0.0003498
934	0.0004876
946	0.0005671
958	0.0004505
970	0.0004028
982	0.0002491
994	0.0002438
1006	0.0002703
1018	0.0002385
1030	0.0002438
1042	0.0002809
1054	0.0002597
1066	0.0003286
1078	0.0003975
1090	0.000318
1102	0.0003127
1114	0.0002491
1126	0.0003975
1138	0.0005247
1150	0.0007367
1162	0.0005459
1174	0.0003074
1186	0.0003604
1198	0.0003657
1210	0.0003816
1222	0.0004081
1234	0.0004346
1246	0.0004823
1258	0.0005459
1270	0.0005883
1282	0.0006784
1294	0.0007579
1306	0.0008533
1318	0.0009222
1330	0.0011766
1342	0.0015211
1354	0.0017649
1366	0.0021942
1378	0.0033072
1390	0.002756
1402	0.0013621
1414	0.0010812
1426	0.0012614
1438	0.0021412
1450	0.0041446
1462	0.0061056
1474	0.0046481
1486	0.0020617
1498	0.0010759
1510	0.0007632
1522	0.0005883
1534	0.0004187
1546	0.0003498
1558	0.0003922
1570	0.0002703
1582	0.0001908
1594	0.0002067
1606	0.0001908
1618	0.0002385
1630	0.0001961
1642	0.0002067
1654	0.0002756
1666	0.0001855
1678	0.0002014
1690	0.0001537
1702	0.0001855
1714	0.0001537
1726	8.48e-05
1738	0.0001219
1750	0.0001272
1762	0.000106
1774	0.000106
1786	7.95e-05
1798	8.48e-05
1810	3.71e-05
1822	5.3e-05
1834	4.77e-05
1846	4.77e-05
1858	2.65e-05
1870	4.77e-05
1882	3.71e-05
1894	3.18e-05
1906	3.71e-05
1918	3.18e-05
1930	1.59e-05
1942	1.59e-05
1954	1.06e-05
1966	2.12e-05
1978	5.3e-06
1990	2.65e-05
2002	1.59e-05
2014	3.71e-05
2026	5.83e-05
2038	6.89e-05
2050	6.36e-05
2062	6.89e-05
2074	4.77e-05
2086	5.3e-05
2098	4.77e-05
2110	5.83e-05
2122	5.3e-05
2134	4.77e-05
2146	6.36e-05
2158	4.24e-05
2170	7.42e-05
2182	6.89e-05
2194	4.24e-05
2206	6.36e-05
2218	4.24e-05
2230	5.83e-05
2242	6.89e-05
2254	6.36e-05
2266	7.42e-05
2278	5.83e-05
2290	7.95e-05
2302	9.54e-05
2314	0.0001113
2326	0.0001219
2338	0.0001166
2350	0.0001325
2362	0.0001484
2374	0.0001431
2386	0.0001219
2398	0.0001325
2410	0.0001219
2422	0.0001219
2434	0.0001378
2446	0.0001113
2458	0.0001007
2470	0.0001007
2482	9.01e-05
2494	0.0001219
2506	0.0001431
2518	0.0001484
2530	0.0001961
2542	0.0002279
2554	0.000265
2566	0.0002703
2578	0.0003339
2590	0.0003657
2602	0.0004187
2614	0.000424
2626	0.0004346
2638	0.0004664
2650	0.00053
2662	0.0005671
2674	0.0006254
2686	0.0006307
2698	0.0006784
2710	0.0007208
2722	0.0008056
2734	0.0009752
2746	0.0010653
2758	0.001007
2770	0.0011395
2782	0.0013303
2794	0.0016801
2806	0.0021889
2818	0.0028885
2830	0.0040969
2842	0.0072398
2854	0.0147976
2866	0.0206965
2878	0.023002
2890	0.0213272
2902	0.023797
2914	0.0338034
2926	0.048813
2938	0.0507316
2950	0.0372325
2962	0.0418647
2974	0.0334165
2986	0.0121423
2998	0.0060579
3010	0.003922
3022	0.002862
3034	0.0021677
3046	0.0016748
3058	0.0013303
3070	0.0011554
3082	0.00106
3094	0.0009063
3106	0.0008427
3118	0.0007632
3130	0.0006678
3142	0.0006519
3154	0.0005671
3166	0.00053
3178	0.0005035
3190	0.0004346
3202	0.0003604
3214	0.0002809
3226	0.0002332
3238	0.0001908
3250	0.0001802
3262	0.0001325
3274	0.0001007
3286	0.0001537
3298	0.0001219
3310	0.0001325
3322	8.48e-05
3334	0.000106
3346	0.0001113
3358	0.0001219
3370	0.0001113
3382	0.0001007
3394	0.0001431
3406	0.0001378
3418	9.01e-05
3430	9.54e-05
3442	9.54e-05
3454	6.89e-05
3466	7.95e-05
3478	8.48e-05
3490	7.42e-05
3502	7.42e-05
3514	9.54e-05
3526	6.89e-05
3538	8.48e-05
3550	4.24e-05
3562	0.0001272
3574	8.48e-05
3586	0.0001166
3598	0.0001643
3610	0.000212
3622	0.0001749
3634	0.0001325
3646	0.0002014
3658	0.0002014
3670	0.0002226
3682	0.0001696
3694	0.0001696
3706	0.0001802
3718	0.0001961
3730	0.000212
3742	0.0002968
3754	0.0002544
3766	0.000212
3778	0.0002173
3790	0.000212
3802	0.0002332
3814	0.0001749
3826	0.0002067
3838	0.0002544
