Infrared Spectrum: 2-METHOXY-3-METHYL PYRAZINE
Formula: C6 H8 N2 O
CAS: 2847-30-5
State: LIQUID
Class: COBLENTZ
Instrument: Not specified, most likely a prism, grating, or hybrid spectrometer.
Sampling: TRANSMISSION
Path length: 0.0025 CM
Resolution: 4
Origin: WYANDOTTE CHEMICALS CORP., WYANDOTTE, MICHIGAN, USA
MICROMETERS	TRANSMITTANCE
2.06	0.936
2.09985	0.926
2.13969	0.888
2.17954	0.853
2.21939	0.88
2.25923	0.905
2.29908	0.903
2.33893	0.913
2.37878	0.915
2.41862	0.913
2.45847	0.898
2.49832	0.913
2.53816	0.936
2.57801	0.943
2.61786	0.943
2.6577	0.941
2.69755	0.901
2.7374	0.875
2.77725	0.848
2.81709	0.815
2.85694	0.8
2.89679	0.798
2.93663	0.8
2.97648	0.805
3.01633	0.813
3.05617	0.798
3.09602	0.823
3.13587	0.825
3.17572	0.788
3.21556	0.741
3.25541	0.268
3.29526	0.318
3.3351	0.196
3.37495	0.14
3.4148	0.386
3.45464	0.453
3.49449	0.556
3.53434	0.686
3.57419	0.841
3.61403	0.836
3.65388	0.858
3.69373	0.865
3.73357	0.896
3.77342	0.905
3.81327	0.893
3.85311	0.891
3.89296	0.873
3.93281	0.895
3.97265	0.916
4.0125	0.863
4.05235	0.843
4.0922	0.84
4.13204	0.898
4.17189	0.885
4.21174	0.901
4.25158	0.876
4.29143	0.878
4.33128	0.876
4.37112	0.896
4.41097	0.911
4.45082	0.908
4.49067	0.905
4.53051	0.92
4.57036	0.918
4.61021	0.866
4.65005	0.9
4.6899	0.896
4.72975	0.82
4.76959	0.916
4.80944	0.93
4.84929	0.933
4.88914	0.913
4.92898	0.883
4.96883	0.866
5.00868	0.826
5.04852	0.856
5.08837	0.913
5.12822	0.918
5.16806	0.89
5.20791	0.88
5.24776	0.836
5.2876	0.816
5.32745	0.795
5.3673	0.878
5.40715	0.91
5.44699	0.91
5.48684	0.901
5.52669	0.891
5.56653	0.846
5.60638	0.816
5.64623	0.821
5.68607	0.821
5.72592	0.85
5.76577	0.825
5.80562	0.821
5.84546	0.798
5.88531	0.756
5.92516	0.735
5.965	0.693
6.00485	0.671
6.0447	0.673
6.08454	0.635
6.12439	0.643
6.16424	0.598
6.20409	0.588
6.24393	0.478
6.28378	0.23
6.32363	0.425
6.36347	0.341
6.40332	0.04
6.44317	0.046
6.48301	0.095
6.52286	0.27
6.56271	0.393
6.60256	0.42
6.6424	0.408
6.68225	0.355
6.7221	0.233
6.76194	0.126
6.80179	0.035
6.84164	0.038
6.88148	0.033
6.92133	0.036
6.96118	0.04
7.00102	0.068
7.04087	0.098
7.08072	0.07
7.12057	0.033
7.16041	0.031
7.20026	0.031
7.24011	0.035
7.27995	0.05
7.3198	0.136
7.35965	0.153
7.39949	0.095
7.43934	0.08
7.47919	0.138
7.51904	0.188
7.55888	0.12
7.59873	0.04
7.63858	0.035
7.67842	0.04
7.71827	0.038
7.75812	0.096
7.79796	0.298
7.83781	0.415
7.87766	0.273
7.91751	0.111
7.95735	0.11
7.9972	0.243
8.03705	0.446
8.07689	0.503
8.11674	0.341
8.15659	0.385
8.19643	0.463
8.23628	0.423
8.27613	0.34
8.31598	0.185
8.35582	0.058
8.39567	0.048
8.43552	0.058
8.47536	0.051
8.51521	0.055
8.55506	0.046
8.5949	0.046
8.63475	0.083
8.6746	0.14
8.71444	0.198
8.75429	0.195
8.79414	0.408
8.83399	0.531
8.87383	0.548
8.91368	0.518
8.95353	0.535
8.99337	0.603
9.03322	0.608
9.07307	0.575
9.11291	0.49
9.15276	0.321
9.19261	0.308
9.23246	0.368
9.2723	0.361
9.31215	0.47
9.352	0.463
9.39184	0.493
9.43169	0.533
9.47154	0.521
9.51138	0.46
9.55123	0.286
9.59108	0.243
9.63093	0.303
9.67077	0.313
9.71062	0.315
9.75047	0.265
9.79031	0.153
9.83016	0.088
9.87001	0.081
9.90985	0.1
9.9497	0.158
9.98955	0.26
10.0294	0.275
10.0692	0.288
10.1091	0.335
10.1489	0.325
10.1888	0.243
10.2286	0.161
10.2685	0.168
10.3083	0.281
10.3482	0.406
10.388	0.518
10.4279	0.573
10.4677	0.61
10.5076	0.628
10.5474	0.638
10.5873	0.64
10.6271	0.648
10.6669	0.671
10.7068	0.696
10.7466	0.705
10.7865	0.708
10.8263	0.711
10.8662	0.716
10.906	0.715
10.9459	0.708
10.9857	0.708
11.0256	0.71
11.0654	0.711
11.1053	0.711
11.1451	0.701
11.185	0.685
11.2248	0.653
11.2647	0.598
11.3045	0.515
11.3443	0.46
11.3842	0.426
11.424	0.41
11.4639	0.391
11.5037	0.423
11.5436	0.46
11.5834	0.445
11.6233	0.395
11.6631	0.346
11.703	0.318
11.7428	0.283
11.7827	0.245
11.8225	0.206
11.8624	0.178
11.9022	0.168
11.942	0.16
11.9819	0.166
12.0217	0.211
12.0616	0.303
12.1014	0.388
12.1413	0.45
12.1811	0.513
12.221	0.57
12.2608	0.605
12.3007	0.631
12.3405	0.645
12.3804	0.655
12.4202	0.656
12.4601	0.658
12.4999	0.658
12.5398	0.655
12.5796	0.645
12.6194	0.628
12.6593	0.601
12.6991	0.581
12.739	0.595
12.7788	0.618
12.8187	0.638
12.8585	0.648
12.8984	0.653
12.9382	0.635
12.9781	0.573
13.0179	0.538
13.0578	0.61
13.0976	0.636
13.1375	0.636
13.1773	0.621
13.2172	0.583
13.257	0.501
13.2968	0.445
13.3367	0.493
13.3765	0.558
13.4164	0.591
13.4562	0.601
13.4961	0.611
13.5359	0.615
13.5758	0.618
13.6156	0.618
13.6555	0.618
13.6953	0.618
13.7352	0.61
13.775	0.608
13.8149	0.613
13.8547	0.618
13.8946	0.63
13.9344	0.618
13.9742	0.62
14.0141	0.623
14.0539	0.61
14.0938	0.6
14.1336	0.58
14.1735	0.55
14.2133	0.531
14.2532	0.528
14.293	0.533
14.3329	0.536
14.3727	0.538
14.4126	0.546
14.4524	0.551
14.4923	0.556
14.5321	0.556
14.572	0.556
14.6118	0.553
14.6516	0.546
14.6915	0.548
14.7313	0.543
14.7712	0.535
14.811	0.521
14.8509	0.511
14.8907	0.508
14.9306	0.506
14.9704	0.521
15.0103	0.538
15.0501	0.5
15.09	0.438
15.1298	0.445
15.1697	0.483
15.2095	0.5
15.2493	0.491
15.2892	0.483
15.329	0.47
15.3689	0.463
15.4087	0.46
15.4486	0.455
15.4884	0.448
15.5283	0.445
15.5681	0.435
15.608	0.428
15.6478	0.426
15.6877	0.42
15.7275	0.416
15.7674	0.41
15.8072	0.401
15.8471	0.39
15.8869	0.383
15.9267	0.376
15.9666	0.376
