Infrared Spectrum: 3-(Methylthio)phenyl isocyanate
Formula: C 8 H 7 N O S
CAS: 28479-19-8
State: gas
Origin: EPA-IR VAPOR PHASE LIBRARY
1/CM	ABSORBANCE
549.8	0.002301
559.445	0.003981
569.09	0.004931
578.734	0.006581
588.379	0.007491
598.024	0.008811
607.669	0.009931
617.313	0.009141
626.958	0.007681
636.603	0.007601
646.248	0.009831
655.893	0.008701
665.537	0.009001
675.182	0.017151
684.827	0.020551
694.472	0.011541
704.116	0.004561
713.761	0.002841
723.406	0.002341
733.051	0.002551
742.695	0.002301
752.34	0.003581
761.985	0.011121
771.63	0.026611
781.275	0.030171
790.919	0.015481
800.564	0.006881
810.209	0.007421
819.854	0.013291
829.498	0.024721
839.143	0.030181
848.788	0.017431
858.433	0.009071
868.078	0.009471
877.722	0.008281
887.367	0.006011
897.012	0.003671
906.657	0.002641
916.301	0.001541
925.946	0.001401
935.591	0.001491
945.236	0.001811
954.88	0.003041
964.525	0.005131
974.17	0.004941
983.815	0.002401
993.46	0.002011
1003.1	0.001741
1012.75	0.001181
1022.39	0.001111
1032.04	0.001201
1041.68	0.0009847
1051.33	0.001651
1060.97	0.003501
1070.62	0.007251
1080.26	0.011901
1089.91	0.015061
1099.55	0.009171
1109.2	0.006261
1118.84	0.008431
1128.49	0.009291
1138.13	0.007871
1147.78	0.007951
1157.42	0.008541
1167.07	0.008301
1176.71	0.005121
1186.36	0.003101
1196	0.002431
1205.64	0.001891
1215.29	0.002031
1224.93	0.001791
1234.58	0.001581
1244.22	0.002561
1253.87	0.004661
1263.51	0.003511
1273.16	0.001871
1282.8	0.002061
1292.45	0.002531
1302.09	0.002901
1311.74	0.003731
1321.38	0.005061
1331.03	0.004171
1340.67	0.002511
1350.32	0.002021
1359.96	0.001831
1369.61	0.001861
1379.25	0.002361
1388.9	0.003881
1398.54	0.006521
1408.18	0.008911
1417.83	0.010421
1427.47	0.013211
1437.12	0.017681
1446.76	0.018901
1456.41	0.014741
1466.05	0.012921
1475.7	0.018531
1485.34	0.031371
1494.99	0.039291
1504.63	0.027481
1514.28	0.014031
1523.92	0.010221
1533.57	0.009021
1543.21	0.009551
1552.86	0.014461
1562.5	0.027871
1572.15	0.053411
1581.79	0.100751
1591.44	0.125821
1601.08	0.061191
1610.73	0.015921
1620.37	0.007651
1630.01	0.005131
1639.66	0.003971
1649.3	0.002891
1658.95	0.002371
1668.59	0.002041
1678.24	0.001721
1687.88	0.001251
1697.53	0.001141
1707.17	0.001131
1716.82	0.001131
1726.46	0.001371
1736.11	0.001471
1745.75	0.001681
1755.4	0.001621
1765.04	0.001631
1774.69	0.001501
1784.33	0.001351
1793.98	0.0010882
1803.62	0.0010391
1813.27	0.0010149
1822.91	0.001121
1832.55	0.001381
1842.2	0.001671
1851.84	0.001741
1861.49	0.001391
1871.13	0.0008927
1880.78	0.0006091
1890.42	0.0006223
1900.07	0.0007698
1909.71	0.001131
1919.36	0.001781
1929	0.002021
1938.65	0.001471
1948.29	0.0010739
1957.94	0.0010667
1967.58	0.001181
1977.23	0.001181
1986.87	0.001181
1996.52	0.001171
2006.16	0.001201
2015.81	0.001201
2025.45	0.001181
2035.1	0.001451
2044.74	0.001771
2054.38	0.001941
2064.03	0.002231
2073.67	0.002631
2083.32	0.003271
2092.96	0.004311
2102.61	0.005291
2112.25	0.006101
2121.9	0.007671
2131.54	0.010141
2141.19	0.013231
2150.83	0.015161
2160.48	0.016651
2170.12	0.021511
2179.77	0.029091
2189.41	0.037411
2199.06	0.049801
2208.7	0.066611
2218.35	0.081161
2227.99	0.099921
2237.64	0.142111
2247.28	0.237671
2256.92	0.445421
2266.57	0.699201
2276.21	0.625331
2285.86	0.372031
2295.5	0.219971
2305.15	0.134821
2314.79	0.104371
2324.44	0.096721
2334.08	0.085651
2343.73	0.066561
2353.37	0.054511
2363.02	0.048601
2372.66	0.036131
2382.31	0.022811
2391.95	0.014901
2401.6	0.011191
2411.24	0.009441
2420.89	0.008191
2430.53	0.006801
2440.18	0.005111
2449.82	0.003871
2459.47	0.003111
2469.11	0.002581
2478.75	0.001881
2488.4	0.001661
2498.04	0.001521
2507.69	0.001351
2517.33	0.001231
2526.98	0.001131
2536.62	0.001151
2546.27	0.0009163
2555.91	0.0009113
2565.56	0.0009322
2575.2	0.0010024
2584.85	0.0010031
2594.49	0.0008507
2604.14	0.0008326
2613.78	0.0008761
2623.43	0.0007711
2633.07	0.0007942
2642.72	0.0009187
2652.36	0.0009511
2662.01	0.0009896
2671.65	0.001211
2681.29	0.001321
2690.94	0.001331
2700.58	0.001221
2710.23	0.001291
2719.87	0.001481
2729.52	0.001531
2739.16	0.001631
2748.81	0.001461
2758.45	0.0011048
2768.1	0.0009362
2777.74	0.0007463
2787.39	0.000814
2797.03	0.0009951
2806.68	0.0010396
2816.32	0.001381
2825.97	0.001731
2835.61	0.002331
2845.26	0.002961
2854.9	0.003061
2864.55	0.002551
2874.19	0.002331
2883.84	0.002271
2893.48	0.002901
2903.12	0.004051
2912.77	0.005811
2922.41	0.009061
2932.06	0.014841
2941.7	0.012451
2951.35	0.007001
2960.99	0.005421
2970.64	0.004571
2980.28	0.004471
2989.93	0.005811
2999.57	0.006781
3009.22	0.004921
3018.86	0.003551
3028.51	0.003161
3038.15	0.003091
3047.8	0.004191
3057.44	0.007491
3067.09	0.011311
3076.73	0.010911
3086.38	0.008061
3096.02	0.006521
3105.67	0.005121
3115.31	0.003621
3124.95	0.002481
3134.6	0.001961
3144.24	0.001541
3153.89	0.001321
3163.53	0.0009984
3173.18	0.0008527
3182.82	0.0005851
3192.47	0.0005401
3202.11	0.0003775
3211.76	0.0002631
3221.4	0.0002145
3231.05	0.000117139
3240.69	0.00013023
3250.34	0.00018251
3259.98	0.0003043
3269.63	0.00010493
3279.27	0.0004657
3288.92	0.0002881
3298.56	0.0002512
3308.21	0.000224
3317.85	0.000492
3327.49	0.000447
3337.14	0.0006202
3346.78	0.0009839
3356.43	0.001631
3366.07	0.001561
3375.72	0.001831
3385.36	0.002021
3395.01	0.002461
3404.65	0.002941
3414.3	0.003591
3423.94	0.003541
3433.59	0.002821
3443.23	0.001901
3452.88	0.001241
3462.52	0.0010099
3472.17	0.0009476
3481.81	0.0005601
3491.46	0.0005417
3501.1	0.0004901
3510.75	0.0007011
3520.39	0.0006259
3530.04	0.0006347
3539.68	0.0005965
3549.32	0.0008077
3558.97	0.0006124
3568.61	0.0007787
3578.26	0.000818
3587.9	0.0007713
3597.55	0.0009994
3607.19	0.001171
3616.84	0.001361
3626.48	0.001441
3636.13	0.001841
3645.77	0.002021
3655.42	0.002461
3665.06	0.002801
3674.71	0.002661
3684.35	0.002381
3694	0.002441
3703.64	0.002521
3713.29	0.002731
3722.93	0.002361
3732.58	0.002081
3742.22	0.002141
3751.86	0.001991
3761.51	0.002111
3771.15	0.002021
3780.8	0.001851
3790.44	0.001561
3800.09	0.001121
3809.73	0.001131
3819.38	0.0008708
3829.02	0.0009013
3838.67	0.0008509
3848.31	0.0005688
3857.96	0.0007421
3867.6	0.0006509
3877.25	0.00054
3886.89	0.0003233
3896.54	0.0005038
3906.18	0.0002273
3915.83	0.0003641
3925.47	0.00021076
3935.12	0.0003773
3944.76	0.0003391
3954.41	0.0002675
3964.05	0.0002388
3973.69	0.000283
3983.34	0.0002468
3992.98	0.00014321
