Infrared Spectrum: 2-(2,2-DIMETHYLPENTOXY)-3-(5-NONYL) PYRAZINE
Formula: C20 H36 N2 O
CAS: 2850-79-5
State: LIQUID
Class: COBLENTZ
Instrument: Not specified, most likely a prism, grating, or hybrid spectrometer.
Sampling: TRANSMISSION
Path length: 0.0015 CM
Resolution: 4
Origin: WYANDOTTE CHEMICALS CORP., WYANDOTTE, MICHIGAN, USA
MICROMETERS	TRANSMITTANCE
2.02	0.979
2.06098	0.989
2.10195	0.987
2.14293	0.991
2.18391	0.95
2.22488	0.927
2.26586	0.938
2.30684	0.939
2.34781	0.95
2.38879	0.951
2.42977	0.96
2.47074	0.958
2.51172	0.958
2.5527	0.977
2.59367	0.97
2.63465	0.979
2.67563	0.977
2.7166	0.975
2.75758	0.962
2.79856	0.945
2.83953	0.929
2.88051	0.912
2.92149	0.907
2.96246	0.9
3.00344	0.903
3.04442	0.902
3.08539	0.893
3.12637	0.89
3.16735	0.878
3.20832	0.871
3.2493	0.631
3.29028	0.734
3.33125	0.19
3.37223	0.049
3.41321	0.084
3.45418	0.109
3.49516	0.236
3.53614	0.677
3.57711	0.804
3.61809	0.849
3.65907	0.831
3.70004	0.869
3.74102	0.876
3.78199	0.89
3.82297	0.903
3.86395	0.917
3.90492	0.921
3.9459	0.924
3.98688	0.933
4.02785	0.933
4.06883	0.929
4.10981	0.934
4.15078	0.939
4.19176	0.934
4.23274	0.929
4.27371	0.919
4.31469	0.924
4.35567	0.941
4.39664	0.955
4.43762	0.953
4.4786	0.953
4.51957	0.96
4.56055	0.953
4.60153	0.96
4.6425	0.951
4.68348	0.95
4.72446	0.958
4.76543	0.972
4.80641	0.975
4.84739	0.97
4.88836	0.974
4.92934	0.972
4.97032	0.969
5.01129	0.97
5.05227	0.967
5.09325	0.974
5.13422	0.975
5.1752	0.972
5.21618	0.972
5.25715	0.97
5.29813	0.962
5.33911	0.955
5.38008	0.972
5.42106	0.974
5.46204	0.979
5.50301	0.972
5.54399	0.97
5.58497	0.951
5.62594	0.933
5.66692	0.953
5.7079	0.953
5.74887	0.943
5.78985	0.933
5.83083	0.922
5.8718	0.915
5.91278	0.897
5.95376	0.874
5.99473	0.874
6.03571	0.861
6.07669	0.854
6.11766	0.852
6.15864	0.866
6.19962	0.852
6.24059	0.797
6.28157	0.651
6.32255	0.773
6.36352	0.783
6.4045	0.646
6.44548	0.267
6.48645	0.337
6.52743	0.643
6.56841	0.771
6.60938	0.801
6.65036	0.771
6.69134	0.668
6.73231	0.38
6.77329	0.18
6.81427	0.205
6.85524	0.264
6.89622	0.293
6.9372	0.303
6.97817	0.116
7.01915	0.053
7.06012	0.12
7.1011	0.387
7.14208	0.423
7.18305	0.102
7.22403	0.135
7.26501	0.331
7.30598	0.269
7.34696	0.303
7.38794	0.147
7.42891	0.063
7.46989	0.186
7.51087	0.301
7.55184	0.301
7.59282	0.224
7.6338	0.173
7.67477	0.181
7.71575	0.283
7.75673	0.341
7.7977	0.37
7.83868	0.432
7.87966	0.502
7.92063	0.567
7.96161	0.61
8.00259	0.615
8.04356	0.672
8.08454	0.682
8.12552	0.651
8.16649	0.622
8.20747	0.586
8.24845	0.603
8.28942	0.627
8.3304	0.605
8.37138	0.531
8.41235	0.308
8.45333	0.144
8.49431	0.154
8.53528	0.253
8.57626	0.262
8.61724	0.276
8.65821	0.289
8.69919	0.361
8.74017	0.519
8.78114	0.651
8.82212	0.617
8.8631	0.452
8.90407	0.493
8.94505	0.571
8.98603	0.61
9.027	0.492
9.06798	0.36
9.10896	0.53
9.14993	0.629
9.19091	0.626
9.23189	0.608
9.27286	0.67
9.31384	0.72
9.35482	0.74
9.39579	0.753
9.43677	0.763
9.47775	0.761
9.51872	0.728
9.5597	0.67
9.60068	0.607
9.64165	0.559
9.68263	0.54
9.72361	0.512
9.76458	0.358
9.80556	0.252
9.84654	0.219
9.88751	0.214
9.92849	0.166
9.96947	0.231
10.0104	0.38
10.0514	0.523
10.0924	0.602
10.1334	0.59
10.1743	0.571
10.2153	0.591
10.2563	0.65
10.2973	0.72
10.3383	0.761
10.3792	0.768
10.4202	0.771
10.4612	0.782
10.5022	0.77
10.5431	0.751
10.5841	0.728
10.6251	0.711
10.6661	0.72
10.707	0.725
10.748	0.718
10.789	0.742
10.83	0.734
10.871	0.74
10.9119	0.792
10.9529	0.831
10.9939	0.854
11.0349	0.871
11.0758	0.869
11.1168	0.862
11.1578	0.85
11.1988	0.825
11.2397	0.804
11.2807	0.792
11.3217	0.789
11.3627	0.794
11.4036	0.806
11.4446	0.809
11.4856	0.771
11.5266	0.703
11.5676	0.677
11.6085	0.751
11.6495	0.801
11.6905	0.813
11.7315	0.78
11.7724	0.73
11.8134	0.658
11.8544	0.567
11.8954	0.444
11.9363	0.392
11.9773	0.507
12.0183	0.742
12.0593	0.831
12.1002	0.876
12.1412	0.9
12.1822	0.9
12.2232	0.9
12.2642	0.902
12.3051	0.9
12.3461	0.891
12.3871	0.883
12.4281	0.888
12.469	0.897
12.51	0.9
12.551	0.898
12.592	0.89
12.6329	0.879
12.6739	0.876
12.7149	0.879
12.7559	0.867
12.7969	0.874
12.8378	0.879
12.8788	0.876
12.9198	0.881
12.9608	0.879
13.0017	0.885
13.0427	0.874
13.0837	0.855
13.1247	0.84
13.1656	0.833
13.2066	0.837
13.2476	0.838
13.2886	0.83
13.3295	0.821
13.3705	0.814
13.4115	0.795
13.4525	0.771
13.4935	0.732
13.5344	0.708
13.5754	0.711
13.6164	0.744
13.6574	0.77
13.6983	0.771
13.7393	0.759
13.7803	0.759
13.8213	0.777
13.8622	0.821
13.9032	0.852
13.9442	0.885
13.9852	0.898
14.0262	0.914
14.0671	0.921
14.1081	0.924
14.1491	0.929
14.1901	0.927
14.231	0.933
14.272	0.931
14.313	0.931
14.354	0.936
14.3949	0.933
14.4359	0.929
14.4769	0.927
14.5179	0.933
14.5588	0.939
14.5998	0.929
14.6408	0.929
14.6818	0.931
14.7228	0.922
14.7637	0.917
14.8047	0.917
14.8457	0.915
14.8867	0.903
14.9276	0.91
14.9686	0.902
15.0096	0.891
15.0506	0.861
15.0915	0.849
15.1325	0.871
15.1735	0.876
15.2145	0.883
15.2555	0.883
15.2964	0.885
15.3374	0.871
15.3784	0.869
15.4194	0.862
15.4603	0.852
15.5013	0.845
15.5423	0.843
15.5833	0.838
15.6242	0.84
15.6652	0.831
15.7062	0.826
15.7472	0.823
15.7881	0.814
15.8291	0.811
15.8701	0.804
15.9111	0.801
15.9521	0.797
