Infrared Spectrum: 2-(N-METHYLANILINO)-3-(2-TRIMETHYLSILYLETHYL) PYRAZINE
Formula: C16 H23 N3 Si
CAS: 2850-78-4
State: LIQUID
Class: COBLENTZ
Instrument: Not specified, most likely a prism, grating, or hybrid spectrometer.
Sampling: TRANSMISSION
Path length: 0.0015 CM
Resolution: 4
Origin: WYANDOTTE CHEMICALS CORP., WYANDOTTE, MICHIGAN, USA
MICROMETERS	TRANSMITTANCE
2.02	0.983
2.05989	0.975
2.09977	0.968
2.13966	0.961
2.17954	0.945
2.21943	0.936
2.25931	0.95
2.2992	0.946
2.33908	0.943
2.37897	0.94
2.41886	0.956
2.45874	0.943
2.49863	0.951
2.53851	0.953
2.5784	0.941
2.61828	0.943
2.65817	0.941
2.69805	0.94
2.73794	0.94
2.77783	0.941
2.81771	0.938
2.8576	0.936
2.89748	0.93
2.93737	0.928
2.97725	0.925
3.01714	0.921
3.05703	0.906
3.09691	0.893
3.1368	0.868
3.17668	0.841
3.21657	0.71
3.25645	0.398
3.29634	0.578
3.33622	0.351
3.37611	0.19
3.416	0.281
3.45588	0.375
3.49577	0.581
3.53565	0.678
3.57554	0.765
3.61542	0.846
3.65531	0.871
3.69519	0.883
3.73508	0.891
3.77497	0.891
3.81485	0.893
3.85474	0.898
3.89462	0.893
3.93451	0.901
3.97439	0.91
4.01428	0.905
4.05416	0.9
4.09405	0.903
4.13394	0.906
4.17382	0.903
4.21371	0.903
4.25359	0.89
4.29348	0.893
4.33336	0.896
4.37325	0.908
4.41313	0.91
4.45302	0.911
4.49291	0.91
4.53279	0.915
4.57268	0.921
4.61256	0.923
4.65245	0.918
4.69233	0.911
4.73222	0.911
4.7721	0.913
4.81199	0.905
4.85188	0.903
4.89176	0.913
4.93165	0.916
4.97153	0.918
5.01142	0.916
5.0513	0.91
5.09119	0.91
5.13108	0.9
5.17096	0.85
5.21085	0.828
5.25073	0.861
5.29062	0.868
5.3305	0.861
5.37039	0.865
5.41027	0.873
5.45016	0.888
5.49005	0.881
5.52993	0.878
5.56982	0.858
5.6097	0.848
5.64959	0.85
5.68947	0.866
5.72936	0.86
5.76924	0.841
5.80913	0.83
5.84902	0.815
5.8889	0.788
5.92879	0.791
5.96867	0.79
6.00856	0.781
6.04844	0.775
6.08833	0.748
6.12821	0.671
6.1681	0.43
6.20799	0.138
6.24787	0.33
6.28776	0.443
6.32764	0.541
6.36753	0.556
6.40741	0.625
6.4473	0.58
6.48718	0.245
6.52707	0.118
6.56696	0.271
6.60684	0.165
6.64673	0.046
6.68661	0.218
6.7265	0.263
6.76638	0.153
6.80627	0.151
6.84615	0.13
6.88604	0.141
6.92593	0.111
6.96581	0.05
7.0057	0.141
7.04558	0.186
7.08547	0.095
7.12535	0.041
7.16524	0.041
7.20513	0.053
7.24501	0.161
7.2849	0.278
7.32478	0.23
7.36467	0.151
7.40455	0.168
7.44444	0.235
7.48432	0.268
7.52421	0.295
7.5641	0.318
7.60398	0.356
7.64387	0.396
7.68375	0.438
7.72364	0.431
7.76352	0.415
7.80341	0.441
7.84329	0.433
7.88318	0.351
7.92307	0.156
7.96295	0.098
8.00284	0.048
8.04272	0.136
8.08261	0.386
8.12249	0.546
8.16238	0.62
8.20226	0.621
8.24215	0.576
8.28204	0.473
8.32192	0.3
8.36181	0.188
8.40169	0.108
8.44158	0.088
8.48146	0.106
8.52135	0.155
8.56123	0.238
8.60112	0.296
8.64101	0.275
8.68089	0.288
8.72078	0.233
8.76066	0.133
8.80055	0.086
8.84043	0.145
8.88032	0.228
8.92021	0.246
8.96009	0.313
8.99998	0.408
9.03986	0.481
9.07975	0.473
9.11963	0.443
9.15952	0.491
9.1994	0.493
9.23929	0.386
9.27918	0.368
9.31906	0.56
9.35895	0.653
9.39883	0.675
9.43872	0.646
9.4786	0.59
9.51849	0.551
9.55837	0.646
9.59826	0.71
9.63815	0.725
9.67803	0.685
9.71792	0.576
9.7578	0.536
9.79769	0.555
9.83757	0.591
9.87746	0.625
9.91734	0.635
9.95723	0.605
9.99712	0.568
10.037	0.596
10.0769	0.663
10.1168	0.716
10.1567	0.751
10.1965	0.76
10.2364	0.765
10.2763	0.778
10.3162	0.781
10.3561	0.778
10.396	0.755
10.4359	0.74
10.4757	0.748
10.5156	0.761
10.5555	0.763
10.5954	0.775
10.6353	0.785
10.6752	0.796
10.7151	0.79
10.7549	0.775
10.7948	0.75
10.8347	0.68
10.8746	0.583
10.9145	0.475
10.9544	0.331
10.9943	0.268
11.0341	0.245
11.074	0.23
11.1139	0.236
11.1538	0.276
11.1937	0.355
11.2336	0.433
11.2735	0.46
11.3133	0.453
11.3532	0.42
11.3931	0.348
11.433	0.256
11.4729	0.17
11.5128	0.108
11.5527	0.076
11.5925	0.058
11.6324	0.055
11.6723	0.055
11.7122	0.06
11.7521	0.06
11.792	0.06
11.8319	0.056
11.8717	0.055
11.9116	0.053
11.9515	0.053
11.9914	0.053
12.0313	0.056
12.0712	0.06
12.1111	0.065
12.1509	0.09
12.1908	0.135
12.2307	0.203
12.2706	0.298
12.3105	0.37
12.3504	0.441
12.3903	0.496
12.4301	0.545
12.47	0.59
12.5099	0.61
12.5498	0.62
12.5897	0.621
12.6296	0.615
12.6694	0.62
12.7093	0.628
12.7492	0.63
12.7891	0.623
12.829	0.581
12.8689	0.525
12.9088	0.448
12.9486	0.35
12.9885	0.275
13.0284	0.201
13.0683	0.163
13.1082	0.148
13.1481	0.138
13.188	0.135
13.2278	0.14
13.2677	0.158
13.3076	0.195
13.3475	0.24
13.3874	0.313
13.4273	0.405
13.4672	0.501
13.507	0.571
13.5469	0.621
13.5868	0.65
13.6267	0.683
13.6666	0.696
13.7065	0.7
13.7464	0.701
13.7862	0.698
13.8261	0.69
13.866	0.681
13.9059	0.66
13.9458	0.628
13.9857	0.596
14.0256	0.555
14.0654	0.528
14.1053	0.493
14.1452	0.436
14.1851	0.355
14.225	0.27
14.2649	0.201
14.3048	0.165
14.3446	0.148
14.3845	0.151
14.4244	0.171
14.4643	0.195
14.5042	0.22
14.5441	0.253
14.584	0.305
14.6238	0.388
14.6637	0.465
14.7036	0.546
14.7435	0.626
14.7834	0.676
14.8233	0.711
14.8632	0.733
14.903	0.74
14.9429	0.741
14.9828	0.741
15.0227	0.74
15.0626	0.718
15.1025	0.711
15.1424	0.71
15.1822	0.723
15.2221	0.75
15.262	0.761
15.3019	0.775
15.3418	0.791
15.3817	0.791
15.4216	0.8
15.4614	0.803
15.5013	0.806
15.5412	0.801
15.5811	0.801
15.621	0.796
15.6609	0.801
15.7008	0.798
15.7406	0.79
15.7805	0.786
15.8204	0.781
15.8603	0.778
15.9002	0.77
15.9401	0.76
15.98	0.753
