Infrared Spectrum: 2-(t-NONYLMERCAPTO)-3-METHYL PYRAZINE
Formula: C14 H24 N2 S
CAS: 2850-77-3
State: LIQUID
Class: COBLENTZ
Instrument: Not specified, most likely a prism, grating, or hybrid spectrometer.
Sampling: TRANSMISSION
Path length: 0.003 CM
Resolution: 4
Origin: WYANDOTTE CHEMICALS CORP., WYANDOTTE, MICHIGAN, USA
MICROMETERS	TRANSMITTANCE
2.007	0.965
2.0479	0.974
2.08879	0.969
2.12969	0.957
2.17059	0.929
2.21148	0.876
2.25238	0.875
2.29328	0.894
2.33417	0.899
2.37507	0.902
2.41597	0.919
2.45686	0.945
2.49776	0.938
2.53866	0.936
2.57955	0.95
2.62045	0.962
2.66135	0.953
2.70224	0.953
2.74314	0.955
2.78404	0.953
2.82493	0.943
2.86583	0.923
2.90672	0.917
2.94762	0.904
2.98852	0.895
3.02941	0.904
3.07031	0.907
3.11121	0.883
3.1521	0.864
3.193	0.851
3.2339	0.753
3.27479	0.485
3.31569	0.456
3.35659	0.042
3.39748	0.018
3.43838	0.032
3.47928	0.049
3.52017	0.229
3.56107	0.654
3.60197	0.788
3.64286	0.832
3.68376	0.811
3.72466	0.861
3.76555	0.876
3.80645	0.885
3.84735	0.892
3.88824	0.897
3.92914	0.904
3.97004	0.916
4.01093	0.923
4.05183	0.929
4.09273	0.917
4.13362	0.919
4.17452	0.919
4.21542	0.912
4.25631	0.887
4.29721	0.885
4.33811	0.882
4.379	0.897
4.4199	0.923
4.4608	0.926
4.50169	0.931
4.54259	0.921
4.58348	0.926
4.62438	0.936
4.66528	0.94
4.70617	0.941
4.74707	0.948
4.78797	0.95
4.82886	0.958
4.86976	0.947
4.91066	0.938
4.95155	0.931
4.99245	0.931
5.03335	0.933
5.07424	0.929
5.11514	0.94
5.15604	0.938
5.19693	0.936
5.23783	0.911
5.27873	0.882
5.31962	0.873
5.36052	0.904
5.40142	0.919
5.44231	0.916
5.48321	0.919
5.52411	0.902
5.565	0.892
5.6059	0.863
5.6468	0.856
5.68769	0.89
5.72859	0.878
5.76949	0.842
5.81038	0.866
5.85128	0.849
5.89218	0.844
5.93307	0.829
5.97397	0.805
6.01487	0.818
6.05576	0.823
6.09666	0.832
6.13756	0.83
6.17845	0.825
6.21935	0.81
6.26024	0.81
6.30114	0.803
6.34204	0.731
6.38293	0.694
6.42383	0.68
6.46473	0.67
6.50562	0.524
6.54652	0.222
6.58742	0.152
6.62831	0.456
6.66921	0.579
6.71011	0.476
6.751	0.341
6.7919	0.059
6.8328	0.047
6.87369	0.075
6.91459	0.147
6.95549	0.174
6.99638	0.287
7.03728	0.396
7.07818	0.413
7.11907	0.352
7.15997	0.252
7.20087	0.143
7.24176	0.022
7.28266	0.078
7.32356	0.08
7.36445	0.105
7.40535	0.027
7.44625	0.117
7.48714	0.446
7.52804	0.558
7.56894	0.596
7.60983	0.582
7.65073	0.588
7.69163	0.593
7.73252	0.606
7.77342	0.596
7.81432	0.606
7.85521	0.649
7.89611	0.567
7.937	0.56
7.9779	0.641
8.0188	0.666
8.05969	0.68
8.10059	0.666
8.14149	0.618
8.18238	0.555
8.22328	0.391
8.26418	0.335
8.30507	0.391
8.34597	0.297
8.38687	0.34
8.42776	0.365
8.46866	0.211
8.50956	0.064
8.55045	0.128
8.59135	0.282
8.63225	0.314
8.67314	0.302
8.71404	0.278
8.75494	0.258
8.79583	0.213
8.83673	0.181
8.87763	0.218
8.91852	0.336
8.95942	0.382
9.00032	0.341
9.04121	0.268
9.08211	0.133
9.12301	0.022
9.1639	0.015
9.2048	0.058
9.2457	0.217
9.28659	0.319
9.32749	0.191
9.36839	0.046
9.40928	0.155
9.45018	0.316
9.49108	0.384
9.53197	0.403
9.57287	0.394
9.61376	0.417
9.65466	0.43
9.69556	0.413
9.73645	0.492
9.77735	0.528
9.81825	0.461
9.85914	0.439
9.90004	0.526
9.94094	0.574
9.98183	0.601
10.0227	0.634
10.0636	0.642
10.1045	0.617
10.1454	0.555
10.1863	0.447
10.2272	0.275
10.2681	0.181
10.309	0.247
10.3499	0.365
10.3908	0.494
10.4317	0.6
10.4726	0.654
10.5135	0.685
10.5544	0.702
10.5953	0.723
10.6362	0.74
10.6771	0.743
10.718	0.748
10.7589	0.748
10.7998	0.745
10.8407	0.745
10.8816	0.75
10.9225	0.753
10.9634	0.758
11.0042	0.76
11.0451	0.75
11.086	0.723
11.1269	0.656
11.1678	0.649
11.2087	0.687
11.2496	0.712
11.2905	0.723
11.3314	0.728
11.3723	0.724
11.4132	0.712
11.4541	0.714
11.495	0.712
11.5359	0.694
11.5768	0.651
11.6177	0.617
11.6586	0.576
11.6995	0.533
11.7404	0.441
11.7813	0.22
11.8222	0.128
11.8631	0.169
11.904	0.167
11.9449	0.162
11.9858	0.256
12.0267	0.429
12.0676	0.61
12.1085	0.682
12.1494	0.721
12.1902	0.735
12.2311	0.738
12.272	0.738
12.3129	0.723
12.3538	0.717
12.3947	0.705
12.4356	0.717
12.4765	0.729
12.5174	0.74
12.5583	0.753
12.5992	0.757
12.6401	0.758
12.681	0.767
12.7219	0.767
12.7628	0.762
12.8037	0.765
12.8446	0.762
12.8855	0.758
12.9264	0.755
12.9673	0.755
13.0082	0.764
13.0491	0.769
13.09	0.77
13.1309	0.77
13.1718	0.75
13.2127	0.741
13.2536	0.743
13.2945	0.735
13.3354	0.717
13.3763	0.704
13.4171	0.687
13.458	0.646
13.4989	0.668
13.5398	0.704
13.5807	0.741
13.6216	0.76
13.6625	0.772
13.7034	0.782
13.7443	0.786
13.7852	0.794
13.8261	0.805
13.867	0.817
13.9079	0.83
13.9488	0.841
13.9897	0.849
14.0306	0.854
14.0715	0.858
14.1124	0.861
14.1533	0.859
14.1942	0.861
14.2351	0.863
14.276	0.858
14.3169	0.864
14.3578	0.858
14.3987	0.859
14.4396	0.854
14.4805	0.851
14.5214	0.856
14.5623	0.852
14.6031	0.844
14.644	0.835
14.6849	0.818
14.7258	0.781
14.7667	0.723
14.8076	0.67
14.8485	0.664
14.8894	0.709
14.9303	0.757
14.9712	0.788
15.0121	0.798
15.053	0.8
15.0939	0.811
15.1348	0.829
15.1757	0.842
15.2166	0.842
15.2575	0.832
15.2984	0.83
15.3393	0.829
15.3802	0.827
15.4211	0.82
15.462	0.81
15.5029	0.801
15.5438	0.8
15.5847	0.801
15.6256	0.789
15.6665	0.788
15.7074	0.782
15.7483	0.779
15.7891	0.77
15.83	0.764
15.8709	0.764
15.9118	0.757
15.9527	0.752
