Infrared Spectrum: DODECANAMIDE, N,N-DIPROPYL-
Formula: C18 H37 N O
CAS: 28522-33-0
State: SOLID (MULL IN COCONITRILE OIL)
Class: COBLENTZ III
Instrument: PERKIN-ELMER (GRATING)
Sampling: TRANSMISSION
Resolution: 4
Origin: PROCTER AND GAMBLE CO.
1/CM	TRANSMITTANCE
414.358	0.628
423.332	0.62
432.305	0.62
441.279	0.62
450.253	0.618
459.226	0.621
468.2	0.618
477.174	0.618
486.147	0.617
495.121	0.617
504.095	0.617
513.068	0.617
522.042	0.612
531.016	0.567
539.989	0.426
548.963	0.421
557.936	0.461
566.91	0.456
575.884	0.491
584.857	0.524
593.831	0.538
602.805	0.548
611.778	0.574
620.752	0.608
629.726	0.651
638.699	0.681
647.673	0.719
656.647	0.751
665.62	0.777
674.594	0.797
683.568	0.813
692.541	0.828
701.515	0.833
710.489	0.793
719.462	0.778
728.436	0.789
737.41	0.818
746.383	0.833
755.357	0.873
764.331	0.889
773.304	0.9
782.278	0.903
791.252	0.907
800.225	0.904
809.199	0.891
818.173	0.891
827.146	0.914
836.12	0.928
845.093	0.92
854.067	0.914
863.041	0.915
872.014	0.896
880.988	0.891
889.962	0.869
898.935	0.883
907.909	0.927
916.883	0.932
925.856	0.932
934.83	0.932
943.804	0.931
952.777	0.93
961.751	0.927
970.725	0.927
979.698	0.928
988.672	0.927
997.646	0.923
1006.62	0.92
1015.59	0.914
1024.57	0.91
1033.54	0.907
1042.51	0.891
1051.49	0.881
1060.46	0.871
1069.43	0.836
1078.41	0.83
1087.38	0.826
1096.36	0.744
1105.33	0.739
1114.3	0.817
1123.28	0.849
1132.25	0.826
1141.22	0.673
1150.2	0.79
1159.17	0.861
1168.15	0.896
1177.12	0.899
1186.09	0.893
1195.07	0.865
1204.04	0.782
1213.01	0.742
1221.99	0.712
1230.96	0.664
1239.93	0.743
1248.91	0.813
1257.88	0.837
1266.86	0.808
1275.83	0.801
1284.8	0.806
1293.78	0.773
1302.75	0.775
1311.72	0.804
1320.7	0.829
1329.67	0.837
1338.64	0.8
1347.62	0.786
1356.59	0.77
1365.57	0.723
1374.54	0.663
1383.51	0.7161
1392.49	0.825
1401.46	0.797
1410.43	0.6589
1419.41	0.393
1428.38	0.52
1437.35	0.516
1446.33	0.471
1455.3	0.394
1464.28	0.3791
1473.25	0.605
1482.22	0.744
1491.2	0.824
1500.17	0.857
1509.14	0.867
1518.12	0.873
1527.09	0.877
1536.07	0.876
1545.04	0.887
1554.01	0.876
1562.99	0.879
1571.96	0.876
1580.93	0.872
1589.91	0.853
1598.88	0.821
1607.85	0.79
1616.83	0.692
1625.8	0.4649
1634.78	0.2089
1643.75	0.124
1652.72	0.2631
1661.7	0.5671
1670.67	0.791
1679.64	0.846
1688.62	0.873
1697.59	0.88
1706.56	0.895
1715.54	0.897
1724.51	0.896
1733.49	0.902
1742.46	0.904
1751.43	0.91
1760.41	0.91
1769.38	0.911
1778.35	0.914
1787.33	0.915
1796.3	0.916
1805.27	0.918
1814.25	0.916
1823.22	0.916
1832.2	0.918
1841.17	0.916
1850.14	0.916
1859.12	0.918
1868.09	0.92
1877.06	0.922
1886.04	0.919
1895.01	0.92
1903.98	0.922
1912.96	0.919
1921.93	0.923
1930.91	0.922
1939.88	0.924
1948.85	0.924
1957.83	0.923
1966.8	0.923
1975.77	0.924
1984.75	0.92
1993.72	0.908
2002.7	0.903
2011.67	0.931
2020.64	0.9308
2029.62	0.93
2038.59	0.93
2047.56	0.93
2056.54	0.93
2065.51	0.93
2074.48	0.93
2083.46	0.93
2092.43	0.9278
2101.41	0.9272
2110.38	0.93
2119.35	0.931
2128.33	0.9308
2137.3	0.93
2146.27	0.931
2155.25	0.931
2164.22	0.931
2173.19	0.931
2182.17	0.9312
2191.14	0.932
2200.12	0.932
2209.09	0.9317
2218.06	0.931
2227.04	0.934
2236.01	0.934
2244.98	0.934
2253.96	0.934
2262.93	0.934
2271.9	0.932
2280.88	0.931
2289.85	0.9317
2298.83	0.932
2307.8	0.932
2316.77	0.932
2325.75	0.932
2334.72	0.931
2343.69	0.93
2352.67	0.931
2361.64	0.931
2370.62	0.932
2379.59	0.932
2388.56	0.931
2397.54	0.93
2406.51	0.93
2415.48	0.931
2424.46	0.932
2433.43	0.931
2442.4	0.931
2451.38	0.934
2460.35	0.9291
2469.33	0.924
2478.3	0.9234
2487.27	0.9135
2496.25	0.93
2505.22	0.9254
2514.19	0.926
2523.17	0.9267
2532.14	0.924
2541.11	0.924
2550.09	0.923
2559.06	0.922
2568.04	0.922
2577.01	0.92
2585.98	0.919
2594.96	0.919
2603.93	0.9187
2612.9	0.918
2621.88	0.918
2630.85	0.915
2639.82	0.9133
2648.8	0.9076
2657.77	0.9066
2666.75	0.9053
2675.72	0.904
2684.69	0.9064
2693.67	0.9087
2702.64	0.904
2711.61	0.9
2720.59	0.896
2729.56	0.897
2738.53	0.899
2747.51	0.897
2756.48	0.896
2765.46	0.893
2774.43	0.8902
2783.4	0.8822
2792.38	0.879
2801.35	0.8622
2810.32	0.8508
2819.3	0.822
2828.27	0.7685
2837.25	0.548
2846.22	0.3515
2855.19	0.2434
2864.17	0.389
2873.14	0.3721
2882.11	0.4465
2891.09	0.4232
2900.06	0.3328
2909.03	0.2227
2918.01	0.075
2926.98	0.0656
2935.96	0.1613
2944.93	0.2623
2953.9	0.2164
2962.88	0.204
2971.85	0.3796
2980.82	0.5774
2989.8	0.7114
2998.77	0.7773
3007.74	0.8259
3016.72	0.8508
3025.69	0.8693
3034.67	0.8835
3043.64	0.891
3052.61	0.8925
3061.59	0.896
3070.56	0.9025
3079.53	0.9109
3088.51	0.916
3097.48	0.9195
3106.45	0.921
3115.43	0.92
3124.4	0.9225
3133.38	0.922
3142.35	0.922
3151.32	0.922
3160.3	0.9225
3169.27	0.922
3178.24	0.922
3187.22	0.923
3196.19	0.9225
3205.17	0.922
3214.14	0.92
3223.11	0.922
3232.09	0.92
3241.06	0.919
3250.03	0.918
3259.01	0.919
3267.98	0.918
3276.95	0.9155
3285.93	0.915
3294.9	0.9181
3303.88	0.9225
3312.85	0.922
3321.82	0.922
3330.8	0.922
3339.77	0.922
3348.74	0.92
3357.72	0.9209
3366.69	0.919
3375.66	0.919
3384.64	0.918
3393.61	0.916
3402.59	0.9145
3411.56	0.914
3420.53	0.911
3429.51	0.91
3438.48	0.907
3447.45	0.9066
3456.43	0.908
3465.4	0.9074
3474.37	0.906
3483.35	0.906
3492.32	0.907
3501.3	0.906
3510.27	0.906
3519.24	0.907
3528.22	0.906
3537.19	0.9064
3546.16	0.9064
3555.14	0.904
3564.11	0.9034
3573.08	0.9052
3582.06	0.907
3591.03	0.9092
3600.01	0.9116
3608.98	0.912
3617.95	0.911
3626.93	0.9146
3635.9	0.916
3644.87	0.912
3653.85	0.9156
3662.82	0.9171
3671.8	0.915
3680.77	0.918
3689.74	0.9186
3698.72	0.92
3707.69	0.9171
3716.66	0.919
3725.64	0.918
3734.61	0.915
3743.58	0.914
3752.56	0.9209
3761.53	0.9226
3770.51	0.923
3779.48	0.922
3788.45	0.92
3797.43	0.92
3806.4	0.92
3815.37	0.92
3824.35	0.92
3833.32	0.92
3842.29	0.919
3851.27	0.9187
3860.24	0.92
3869.22	0.922
3878.19	0.922
3887.16	0.9193
3896.14	0.916
3905.11	0.92
3914.08	0.922
3923.06	0.922
3932.03	0.922
3941	0.922
3949.98	0.922
3958.95	0.9206
3967.93	0.92
3976.9	0.92
3985.87	0.9183
