Infrared Spectrum: 2,6-Dimethylphenylisocyanate
Formula: C 9 H 9 N O
CAS: 28556-81-2
State: gas
Origin: EPA-IR VAPOR PHASE LIBRARY
1/CM	ABSORBANCE
549.8	0.004484
559.445	0.006274
569.09	0.012154
578.734	0.015744
588.379	0.016314
598.024	0.013194
607.669	0.009024
617.313	0.006714
626.958	0.005704
636.603	0.005414
646.248	0.005704
655.893	0.005354
665.537	0.004184
675.182	0.002924
684.827	0.003024
694.472	0.002854
704.116	0.002944
713.761	0.005414
723.406	0.010564
733.051	0.007454
742.695	0.007754
752.34	0.021734
761.985	0.046004
771.63	0.034534
781.275	0.019594
790.919	0.007604
800.564	0.003454
810.209	0.002204
819.854	0.001384
829.498	0.000728
839.143	0.0004888
848.788	0.0003081
858.433	6.1e-05
868.078	0.0004081
877.722	0
887.367	0.0002494
897.012	0.0006282
906.657	0.002544
916.301	0.003944
925.946	0.003204
935.591	0.001564
945.236	0.001474
954.88	0.001564
964.525	0.002124
974.17	0.002374
983.815	0.002784
993.46	0.002654
1003.1	0.002274
1012.75	0.002434
1022.39	0.002954
1032.04	0.004264
1041.68	0.005904
1051.33	0.010024
1060.97	0.015944
1070.62	0.026384
1080.26	0.028514
1089.91	0.016194
1099.55	0.006554
1109.2	0.005324
1118.84	0.008194
1128.49	0.009564
1138.13	0.008654
1147.78	0.008534
1157.42	0.008104
1167.07	0.005844
1176.71	0.003694
1186.36	0.002454
1196	0.001684
1205.64	0.001514
1215.29	0.001254
1224.93	0.001364
1234.58	0.001444
1244.22	0.002014
1253.87	0.003494
1263.51	0.003114
1273.16	0.002244
1282.8	0.001874
1292.45	0.001634
1302.09	0.001394
1311.74	0.001414
1321.38	0.001264
1331.03	0.001324
1340.67	0.001344
1350.32	0.001394
1359.96	0.001664
1369.61	0.002424
1379.25	0.004654
1388.9	0.005884
1398.54	0.005584
1408.18	0.008324
1417.83	0.010234
1427.47	0.009544
1437.12	0.011214
1446.76	0.014774
1456.41	0.016624
1466.05	0.019634
1475.7	0.024194
1485.34	0.029194
1494.99	0.034924
1504.63	0.038674
1514.28	0.028994
1523.92	0.015364
1533.57	0.009414
1543.21	0.006604
1552.86	0.004984
1562.5	0.004174
1572.15	0.004604
1581.79	0.007474
1591.44	0.011834
1601.08	0.011364
1610.73	0.006284
1620.37	0.003234
1630.01	0.002604
1639.66	0.002794
1649.3	0.002794
1658.95	0.002244
1668.59	0.001294
1678.24	0.0009896
1687.88	0.0008201
1697.53	0.0008287
1707.17	0.0008038
1716.82	0.000988
1726.46	0.0011259
1736.11	0.0009101
1745.75	0.0007489
1755.4	0.0009616
1765.04	0.001554
1774.69	0.001794
1784.33	0.0010753
1793.98	0.0007468
1803.62	0.0007591
1813.27	0.0007205
1822.91	0.0009847
1832.55	0.001454
1842.2	0.002164
1851.84	0.001944
1861.49	0.001161
1871.13	0.0007
1880.78	0.0005555
1890.42	0.0006173
1900.07	0.0009991
1909.71	0.002054
1919.36	0.003084
1929	0.002444
1938.65	0.001069
1948.29	0.0008235
1957.94	0.000715
1967.58	0.0006414
1977.23	0.0007088
1986.87	0.000842
1996.52	0.0009524
2006.16	0.0010372
2015.81	0.0010406
2025.45	0.0011393
2035.1	0.001404
2044.74	0.001834
2054.38	0.002374
2064.03	0.002914
2073.67	0.003314
2083.32	0.003504
2092.96	0.003814
2102.61	0.004364
2112.25	0.005114
2121.9	0.006274
2131.54	0.008174
2141.19	0.011314
2150.83	0.016514
2160.48	0.022624
2170.12	0.026614
2179.77	0.028044
2189.41	0.029994
2199.06	0.033484
2208.7	0.040404
2218.35	0.052464
2227.99	0.068024
2237.64	0.089934
2247.28	0.135484
2256.92	0.232794
2266.57	0.415284
2276.21	0.639154
2285.86	0.706394
2295.5	0.584784
2305.15	0.407644
2314.79	0.233814
2324.44	0.121744
2334.08	0.066074
2343.73	0.041424
2353.37	0.034644
2363.02	0.040694
2372.66	0.050564
2382.31	0.051234
2391.95	0.039924
2401.6	0.025384
2411.24	0.015044
2420.89	0.009054
2430.53	0.006274
2440.18	0.005134
2449.82	0.004474
2459.47	0.003654
2469.11	0.002974
2478.75	0.002384
2488.4	0.001854
2498.04	0.001444
2507.69	0.001454
2517.33	0.001384
2526.98	0.001294
2536.62	0.001414
2546.27	0.001604
2555.91	0.001694
2565.56	0.001754
2575.2	0.001624
2584.85	0.001414
2594.49	0.0011661
2604.14	0.0010587
2613.78	0.0009229
2623.43	0.000945
2633.07	0.000927
2642.72	0.0009602
2652.36	0.0010115
2662.01	0.0008221
2671.65	0.0009143
2681.29	0.0008327
2690.94	0.0010137
2700.58	0.0010037
2710.23	0.001374
2719.87	0.001724
2729.52	0.002324
2739.16	0.002824
2748.81	0.002684
2758.45	0.001924
2768.1	0.001264
2777.74	0.0011142
2787.39	0.0009775
2797.03	0.001264
2806.68	0.001704
2816.32	0.002084
2825.97	0.002524
2835.61	0.003174
2845.26	0.004004
2854.9	0.005784
2864.55	0.008664
2874.19	0.010894
2883.84	0.010864
2893.48	0.009824
2903.12	0.010524
2912.77	0.013414
2922.41	0.020244
2932.06	0.027624
2941.7	0.027154
2951.35	0.021984
2960.99	0.019904
2970.64	0.017884
2980.28	0.019424
2989.93	0.018304
2999.57	0.012814
3009.22	0.009044
3018.86	0.010184
3028.51	0.013944
3038.15	0.016714
3047.8	0.019744
3057.44	0.022954
3067.09	0.022134
3076.73	0.017174
3086.38	0.012524
3096.02	0.007504
3105.67	0.004224
3115.31	0.002634
3124.95	0.001924
3134.6	0.001224
3144.24	0.0009965
3153.89	0.000969
3163.53	0.0008958
3173.18	0.0007672
3182.82	0.000553
3192.47	0.000405
3202.11	0.0001813
3211.76	0.0001483
3221.4	0.0002292
3231.05	0.0001626
3240.69	0.00027504
3250.34	0.00027152
3259.98	0.00023551
3269.63	0.0001096
3279.27	0.0001324
3288.92	0.00023511
3298.56	0.0004173
3308.21	0.0003892
3317.85	0.0007022
3327.49	0.0008904
3337.14	0.0011056
3346.78	0.001724
3356.43	0.002034
3366.07	0.002194
3375.72	0.002074
3385.36	0.001974
3395.01	0.001884
3404.65	0.002204
3414.3	0.002794
3423.94	0.002934
3433.59	0.002434
3443.23	0.001694
3452.88	0.001101
3462.52	0.0007877
3472.17	0.0006803
3481.81	0.000418
3491.46	0.0003418
3501.1	0.0005601
3510.75	0.0003856
3520.39	0.0008642
3530.04	0.0006667
3539.68	0.0009122
3549.32	0.0007333
3558.97	0.0007648
3568.61	0.0008174
3578.26	0.0005137
3587.9	0.0006552
3597.55	0.0007721
3607.19	0.0009708
3616.84	0.0011921
3626.48	0.001234
3636.13	0.001604
3645.77	0.001834
3655.42	0.002504
3665.06	0.002744
3674.71	0.003154
3684.35	0.003174
3694	0.003154
3703.64	0.002904
3713.29	0.002384
3722.93	0.002214
3732.58	0.002074
3742.22	0.002114
3751.86	0.002324
3761.51	0.002344
3771.15	0.002474
3780.8	0.002784
3790.44	0.002664
3800.09	0.002384
3809.73	0.002104
3819.38	0.001554
3829.02	0.001384
3838.67	0.001274
3848.31	0.0011574
3857.96	0.0008258
3867.6	0.0009162
3877.25	0.0008674
3886.89	0.0005498
3896.54	0.0006091
3906.18	0.0004553
3915.83	0.0003957
3925.47	0.00030274
3935.12	0.00030233
3944.76	0.0003399
3954.41	0.0005016
3964.05	0.00027212
3973.69	0.00025132
3983.34	9e-05
3992.98	0.0003062
