Infrared Spectrum: 1-Chloro-3,3-dimethylbutane
Formula: C 6 H 13 Cl
CAS: 2855-08-5
State: gas
Instrument: HP-GC/MS/IRD
Origin: NIST Mass Spectrometry Data Center
1/CM	ABSORBANCE
550	6.3e-05
562	0.000112
574	7.7e-05
586	0.000182
598	0.000287
610	0.000231
622	0.0003395
634	0.0005565
646	0.0011655
658	0.0017255
670	0.0016345
682	0.0011165
694	0.0014945
706	0.0024745
718	0.0038815
730	0.0033355
742	0.001428
754	0.002723
766	0.003535
778	0.001715
790	0.000623
802	0.0004585
814	0.0004445
826	0.0004235
838	0.000497
850	0.0006265
862	0.000868
874	0.0009275
886	0.000693
898	0.00056
910	0.000518
922	0.0004515
934	0.000399
946	0.0003675
958	0.000357
970	0.000329
982	0.000322
994	0.000357
1006	0.0005075
1018	0.000497
1030	0.000406
1042	0.0003815
1054	0.000336
1066	0.0002485
1078	0.00014
1090	0.000147
1102	0.000133
1114	0.0001435
1126	0.000182
1138	0.000224
1150	0.0003045
1162	0.0004305
1174	0.0005705
1186	0.0008365
1198	0.0010745
1210	0.001344
1222	0.0016555
1234	0.0023345
1246	0.002912
1258	0.0028875
1270	0.002625
1282	0.001715
1294	0.001169
1306	0.001239
1318	0.0014665
1330	0.001939
1342	0.002912
1354	0.0034265
1366	0.00462
1378	0.004543
1390	0.002639
1402	0.001757
1414	0.0010185
1426	0.000924
1438	0.001512
1450	0.002604
1462	0.003941
1474	0.0047355
1486	0.0036155
1498	0.001666
1510	0.0006335
1522	0.0003675
1534	0.000266
1546	0.000217
1558	0.0002065
1570	0.0001645
1582	0.000161
1594	0.0001575
1606	0.0001365
1618	0.0001435
1630	0.0001155
1642	0.0001015
1654	0.0001225
1666	0.0001225
1678	0.0001295
1690	0.0001155
1702	0.0001435
1714	0.000133
1726	0.000119
1738	0.000105
1750	6.3e-05
1762	8.75e-05
1774	9.8e-05
1786	7e-05
1798	9.1e-05
1810	7.35e-05
1822	9.8e-05
1834	7.7e-05
1846	5.25e-05
1858	6.3e-05
1870	5.6e-05
1882	6.65e-05
1894	7e-05
1906	5.25e-05
1918	5.95e-05
1930	5.6e-05
1942	5.95e-05
1954	4.55e-05
1966	4.9e-05
1978	5.6e-05
1990	4.2e-05
2002	5.95e-05
2014	7.35e-05
2026	5.25e-05
2038	4.2e-05
2050	4.9e-05
2062	6.65e-05
2074	9.1e-05
2086	7.35e-05
2098	7e-05
2110	4.9e-05
2122	3.85e-05
2134	2.1e-05
2146	2.45e-05
2158	2.45e-05
2170	1.75e-05
2182	1.4e-05
2194	1.4e-05
2206	7e-06
2218	2.8e-05
2230	1.75e-05
2242	2.8e-05
2254	1.75e-05
2266	2.45e-05
2278	6.65e-05
2290	7.35e-05
2302	5.95e-05
2314	5.25e-05
2326	4.55e-05
2338	5.95e-05
2350	7.7e-05
2362	0.0001015
2374	8.05e-05
2386	9.1e-05
2398	0.000105
2410	8.05e-05
2422	0.000105
2434	5.6e-05
2446	7e-05
2458	4.55e-05
2470	4.55e-05
2482	6.65e-05
2494	5.25e-05
2506	7.7e-05
2518	9.45e-05
2530	0.000105
2542	9.45e-05
2554	0.0001155
2566	0.0001085
2578	0.0001155
2590	0.0001225
2602	0.0001435
2614	0.000147
2626	0.000182
2638	0.0001855
2650	0.0001925
2662	0.0001855
2674	0.0002345
2686	0.000273
2698	0.000329
2710	0.000406
2722	0.000504
2734	0.0004865
2746	0.0004935
2758	0.000497
2770	0.0005355
2782	0.000511
2794	0.000595
2806	0.000798
2818	0.0010535
2830	0.0013545
2842	0.001939
2854	0.003185
2866	0.006111
2878	0.0089985
2890	0.0095445
2902	0.0094885
2914	0.0102515
2926	0.012145
2938	0.0157255
2950	0.0233765
2962	0.0349755
2974	0.027958
2986	0.0109585
2998	0.005061
3010	0.003136
3022	0.0018935
3034	0.0010675
3046	0.000812
3058	0.0006335
3070	0.00063
3082	0.0006055
3094	0.000518
3106	0.00049
3118	0.0003885
3130	0.0004235
3142	0.0004375
3154	0.00042
3166	0.000427
3178	0.000434
3190	0.0004445
3202	0.000504
3214	0.0004795
3226	0.000378
3238	0.0003325
3250	0.000294
3262	0.0002485
3274	0.0001925
3286	0.000231
3298	0.000217
3310	0.0001855
3322	0.0001575
3334	0.0001575
3346	0.000147
3358	0.0001925
3370	0.0001645
3382	0.00021
3394	0.000217
3406	0.000154
3418	0.0001085
3430	0.000105
3442	9.45e-05
3454	0.0001015
3466	7.7e-05
3478	7.35e-05
3490	5.95e-05
3502	8.4e-05
3514	4.2e-05
3526	6.65e-05
3538	5.6e-05
3550	3.5e-06
3562	7e-05
3574	2.45e-05
3586	1.4e-05
3598	4.55e-05
3610	2.45e-05
3622	5.6e-05
3634	9.8e-05
3646	3.5e-05
3658	5.95e-05
3670	7.35e-05
3682	0.000112
3694	9.1e-05
3706	0.000126
3718	8.05e-05
3730	4.9e-05
3742	0.0001155
3754	8.75e-05
3766	8.05e-05
3778	0.000126
3790	8.4e-05
3802	0.0001295
3814	0.000126
3826	0.000126
3838	0.0001365
