Infrared Spectrum: 2-Chlorophenylacetonitrile
Formula: C 8 H 6 Cl N
CAS: 2856-63-5
State: gas
Origin: EPA-IR VAPOR PHASE LIBRARY
1/CM	ABSORBANCE
549.9	0.0011033
559.547	0.0012704
569.193	0.0010957
578.84	0.0012396
588.486	0.0012526
598.133	0.001628
607.779	0.002138
617.426	0.002358
627.072	0.001698
636.719	0.0012576
646.365	0.0012332
656.012	0.001608
665.658	0.002388
675.305	0.004528
684.951	0.007138
694.598	0.008998
704.245	0.008178
713.891	0.006068
723.538	0.006428
733.184	0.020088
742.831	0.041398
752.477	0.038428
762.124	0.018218
771.77	0.004298
781.417	0.002408
791.063	0.002498
800.71	0.002878
810.356	0.002818
820.003	0.002448
829.649	0.001878
839.296	0.001598
848.943	0.001358
858.589	0.001398
868.236	0.001388
877.882	0.0013198
887.529	0.0013129
897.175	0.001398
906.822	0.001568
916.468	0.001718
926.115	0.002078
935.761	0.002508
945.408	0.002918
955.054	0.002688
964.701	0.001778
974.347	0.001368
983.994	0.001458
993.64	0.001928
1003.29	0.002198
1012.93	0.002638
1022.58	0.004878
1032.23	0.013208
1041.87	0.021938
1051.52	0.025608
1061.17	0.017778
1070.81	0.004868
1080.46	0.002128
1090.11	0.001728
1099.75	0.001518
1109.4	0.002208
1119.05	0.004738
1128.69	0.007948
1138.34	0.007838
1147.99	0.004528
1157.63	0.002158
1167.28	0.002028
1176.92	0.002238
1186.57	0.002808
1196.22	0.002848
1205.86	0.001898
1215.51	0.001558
1225.16	0.001558
1234.8	0.001568
1244.45	0.001588
1254.1	0.001738
1263.74	0.001808
1273.39	0.001918
1283.04	0.001898
1292.68	0.001648
1302.33	0.001608
1311.98	0.002148
1321.62	0.001988
1331.27	0.0011516
1340.92	0.0008451
1350.56	0.0008854
1360.21	0.0009754
1369.86	0.0009756
1379.5	0.0012185
1389.15	0.001688
1398.79	0.002798
1408.44	0.004808
1418.09	0.007958
1427.73	0.011368
1437.38	0.018428
1447.03	0.020258
1456.67	0.014198
1466.32	0.014528
1475.97	0.020858
1485.61	0.018588
1495.26	0.010308
1504.91	0.003248
1514.55	0.001408
1524.2	0.000989
1533.85	0.0009577
1543.49	0.0011105
1553.14	0.001688
1562.79	0.003258
1572.43	0.005518
1582.08	0.005908
1591.73	0.004458
1601.37	0.003608
1611.02	0.002078
1620.67	0.0012839
1630.31	0.0009693
1639.96	0.0008656
1649.6	0.0008266
1659.25	0.0009486
1668.9	0.0009532
1678.54	0.0010141
1688.19	0.001125
1697.84	0.0011487
1707.48	0.0009752
1717.13	0.000742
1726.78	0.0007182
1736.42	0.000627
1746.07	0.0006809
1755.72	0.0006962
1765.36	0.0008257
1775.01	0.0009179
1784.66	0.0010829
1794.3	0.001478
1803.95	0.001608
1813.6	0.0012253
1823.24	0.0011419
1832.89	0.0011463
1842.54	0.000838
1852.18	0.0006893
1861.83	0.0007356
1871.47	0.0008546
1881.12	0.0009058
1890.77	0.0010332
1900.41	0.0011735
1910.06	0.0013424
1919.71	0.001648
1929.35	0.001598
1939	0.001448
1948.65	0.001558
1958.29	0.0011805
1967.94	0.0005968
1977.59	0.0004492
1987.23	0.00043439
1996.88	0.000356221
2006.53	0.000335
2016.17	0.0003132
2025.82	0.00037216
2035.47	0.00034119
2045.11	0.0002601
2054.76	0.0002626
2064.41	0.0002685
2074.05	0.000227
2083.7	0.0003111
2093.35	0.0003055
2102.99	0.0003136
2112.64	0.000261
2122.28	0.0002921
2131.93	0.0002802
2141.58	0.0002544
2151.22	0.0002936
2160.87	0.0002899
2170.52	0.0003201
2180.16	0.0002719
2189.81	0.0002649
2199.46	0.0002617
2209.1	0.000242
2218.75	0.0003353
2228.4	0.00040593
2238.04	0.0005883
2247.69	0.0009558
2257.34	0.0011764
2266.98	0.0010213
2276.63	0.0007448
2286.28	0.0005372
2295.92	0.0005046
2305.57	0.0004852
2315.22	0.0006021
2324.86	0.0006633
2334.51	0.0005431
2344.16	0.0005031
2353.8	0.00042593
2363.45	0.0003333
2373.09	0.00037042
2382.74	0.00037279
2392.39	0.0003114
2402.03	0.0002986
2411.68	0.00033929
2421.33	0.00039391
2430.97	0.00036207
2440.62	0.0003134
2450.27	0.000331
2459.91	0.0002933
2469.56	0.0002885
2479.21	0.000245
2488.85	0.0003182
2498.5	0.0002928
2508.15	0.000267
2517.79	0.0003173
2527.44	0.0002867
2537.09	0.0002733
2546.73	0.0002892
2556.38	0.0002904
2566.03	0.00039146
2575.67	0.00038428
2585.32	0.0004951
2594.96	0.0003866
2604.61	0.00040176
2614.26	0.0004609
2623.9	0.00043915
2633.55	0.0004806
2643.2	0.00039034
2652.84	0.000238
2662.49	0.000236
2672.14	0.000183
2681.78	0.000169
2691.43	0.000213
2701.08	0.000235
2710.72	0.000189
2720.37	0.000213
2730.02	0.000173
2739.66	0.0003094
2749.31	0.00019
2758.96	0.000125
2768.6	0.00011
2778.25	3e-06
2787.9	5.2e-05
2797.54	5.2e-05
2807.19	6.8e-05
2816.84	9.3e-05
2826.48	0.000224
2836.13	0.0002819
2845.77	0.000196
2855.42	0.000171
2865.07	0.000234
2874.71	0.000118
2884.36	0.000193
2894.01	0.000161
2903.65	0.000138
2913.3	0.0002
2922.95	0.00065
2932.59	0.001388
2942.24	0.001768
2951.89	0.001358
2961.53	0.0006307
2971.18	0.0004826
2980.83	0.000234
2990.47	0.0006171
3000.12	0.0006826
3009.77	0.0011466
3019.41	0.001788
3029.06	0.002458
3038.71	0.002018
3048.35	0.002108
3058	0.003868
3067.64	0.008468
3077.29	0.011928
3086.94	0.008908
3096.58	0.003838
3106.23	0.001528
3115.88	0.0006254
3125.52	0.000357162
3135.17	0.0006582
3144.82	0.0007428
3154.46	0.0005521
3164.11	0.0005367
3173.76	0.0004773
3183.4	0.00040346
3193.05	0.0005928
3202.7	0.0005463
3212.34	0.0005613
3221.99	0.0004354
3231.64	0.0002704
3241.28	0.000225
3250.93	0.000350558
3260.58	0.00037366
3270.22	0.0002632
3279.87	0.00038902
3289.52	0.0003086
3299.16	0.0002977
3308.81	0.000213
3318.45	0.00037029
3328.1	0.000167
3337.75	0.000251
3347.39	0.0002667
3357.04	0.0004978
3366.69	0.00034274
3376.33	0.00043547
3385.98	0.00040068
3395.63	0.00042684
3405.27	0.0004619
3414.92	0.0003823
3424.57	0.000354868
3434.21	0.0002964
3443.86	0.00042426
3453.51	0.0003186
3463.15	0.0003265
3472.8	0.000552
3482.45	0.00036044
3492.09	0.0006164
3501.74	0.00039424
3511.39	0.00039311
3521.03	0.0005587
3530.68	0.0004987
3540.33	0.00042529
3549.97	0.00037727
3559.62	0.0004653
3569.26	0.00036901
3578.91	0.000354349
3588.56	0.00042818
3598.2	0.00038714
3607.85	0.00039582
3617.5	0.00043938
3627.14	0.0003377
3636.79	0.0004879
3646.44	0.00033868
3656.08	0.0003228
3665.73	0.0003426
3675.38	0.00037232
3685.02	0.0003346
3694.67	0.0005674
3704.32	0.00034044
3713.96	0.00040959
3723.61	0.0003833
3733.26	0.000337
3742.9	0.00034204
3752.55	0.00038405
3762.2	0.0004697
3771.84	0.00037319
3781.49	0.0004619
3791.13	0.0004996
3800.78	0.000235
3810.43	0.00038471
3820.07	0.0002688
3829.72	0.0002513
3839.37	0.0002884
3849.01	0.0004675
3858.66	0.0004908
3868.31	0.0004975
3877.95	0.0005564
3887.6	0.000539
3897.25	0.00038335
3906.89	0.0004133
3916.54	0.00033868
3926.19	0.0002657
3935.83	0.00041574
3945.48	0.0002513
3955.13	0.00038248
3964.77	0.000297
3974.42	0.0003219
3984.07	0.0002832
3993.71	0.0004414
