Infrared Spectrum: Bromotrimethylsilane
Formula: C 3 H 9 Br Si
CAS: 2857-97-8
State: gas
Origin: EPA-IR VAPOR PHASE LIBRARY
1/CM	ABSORBANCE
501.5	0.0014339
513.074	0.0026239
524.648	0.0028539
536.222	0.0025239
547.796	0.0020939
559.37	0.0021239
570.944	0.0028839
582.518	0.0044339
594.092	0.0066039
605.666	0.0174939
617.24	0.0616039
628.814	0.0898239
640.388	0.0635839
651.962	0.0184939
663.536	0.0106139
675.11	0.0144639
686.684	0.0265339
698.258	0.0439539
709.832	0.0542639
721.406	0.0494739
732.98	0.0399739
744.554	0.0468839
756.128	0.0736439
767.702	0.0862339
779.276	0.0661239
790.85	0.0456039
802.423	0.0499839
813.997	0.0886239
825.571	0.195024
837.145	0.399194
848.719	0.599244
860.293	0.481654
871.867	0.254204
883.441	0.139154
895.015	0.0914739
906.589	0.0637039
918.163	0.0418539
929.737	0.0283039
941.311	0.0222339
952.885	0.0227639
964.459	0.0206939
976.033	0.0125939
987.607	0.0091339
999.181	0.0096639
1010.76	0.0120539
1022.33	0.0157639
1033.9	0.0172439
1045.48	0.0094639
1057.05	0.0069239
1068.63	0.0050039
1080.2	0.0038739
1091.77	0.0034839
1103.35	0.0032239
1114.92	0.0037339
1126.49	0.0051439
1138.07	0.0072339
1149.64	0.0126539
1161.22	0.0155139
1172.79	0.0110139
1184.36	0.0106439
1195.94	0.0130939
1207.51	0.0229639
1219.09	0.0304639
1230.66	0.0400239
1242.23	0.0994739
1253.81	0.175844
1265.38	0.176254
1276.96	0.0936639
1288.53	0.0316139
1300.1	0.0175539
1311.68	0.0169639
1323.25	0.0162639
1334.83	0.0133839
1346.4	0.0093039
1357.97	0.0076539
1369.55	0.0082639
1381.12	0.0121739
1392.7	0.0191139
1404.27	0.0279739
1415.84	0.0268339
1427.42	0.0161339
1438.99	0.0096139
1450.57	0.0079339
1462.14	0.0073639
1473.71	0.0058339
1485.29	0.0039339
1496.86	0.0029539
1508.44	0.0027639
1520.01	0.0027039
1531.58	0.0026739
1543.16	0.0024939
1554.73	0.0021839
1566.31	0.0018939
1577.88	0.0016139
1589.45	0.0012239
1601.03	0.0009315
1612.6	0.000873
1624.18	0.0009157
1635.75	0.0009265
1647.32	0.0008454
1658.9	0.0005308
1670.47	0.0001961
1682.05	0.00010123
1693.62	0.00011957
1705.19	0.00011781
1716.77	0.00011055
1728.34	4.95e-05
1739.92	3.17e-05
1751.49	2.96e-05
1763.06	4.94e-05
1774.64	2.75e-05
1786.21	0.000136
1797.79	0.00015518
1809.36	0.00016232
1820.93	0.00014948
1832.51	0.000261
1844.08	0.0004984
1855.66	0.0011539
1867.23	0.0023339
1878.8	0.0035739
1890.38	0.0036239
1901.95	0.0022539
1913.53	0.0013239
1925.1	0.0013539
1936.67	0.0019339
1948.25	0.0027139
1959.82	0.0030439
1971.4	0.0027439
1982.97	0.0022539
1994.54	0.0019239
2006.12	0.0020939
2017.69	0.0024239
2029.27	0.0023939
2040.84	0.0019339
2052.41	0.0013339
2063.99	0.0009934
2075.56	0.000997
2087.14	0.0012539
2098.71	0.0016339
2110.28	0.0021939
2121.86	0.0024839
2133.43	0.0020539
2145.01	0.0014639
2156.58	0.0010839
2168.15	0.0008451
2179.73	0.0007776
2191.3	0.0007872
2202.88	0.000734
2214.45	0.0006765
2226.02	0.0006705
2237.6	0.000676
2249.17	0.0007437
2260.74	0.0007093
2272.32	0.0006577
2283.89	0.0005686
2295.47	0.0004749
2307.04	0.0003583
2318.61	0.0002922
2330.19	0.0002356
2341.76	0.0002262
2353.34	0.0001972
2364.91	0.000242
2376.48	0.0002733
2388.06	0.0002513
2399.63	0.0002046
2411.21	0.000171
2422.78	0.0001843
2434.35	0.0002178
2445.93	0.0002012
2457.5	0.0002554
2469.08	0.0003464
2480.65	0.0004687
2492.22	0.0007302
2503.8	0.0008384
2515.37	0.0006732
2526.95	0.0004042
2538.52	0.0002485
2550.09	0.0001465
2561.67	0.00010967
2573.24	0.00015479
2584.82	0.0002178
2596.39	0.0002191
2607.96	0.0001677
2619.54	0.0002523
2631.11	0.000345
2642.69	0.0005561
2654.26	0.0006548
2665.83	0.0007175
2677.41	0.0006845
2688.98	0.0006587
2700.56	0.0006622
2712.13	0.0007552
2723.7	0.0010481
2735.28	0.0015039
2746.85	0.0018939
2758.43	0.0022439
2770	0.0028839
2781.57	0.0042639
2793.15	0.0057939
2804.72	0.0063939
2816.3	0.0061539
2827.87	0.0062439
2839.44	0.0068939
2851.02	0.0078639
2862.59	0.0087139
2874.17	0.0101639
2885.74	0.0152439
2897.31	0.0266239
2908.89	0.0323839
2920.46	0.0240539
2932.04	0.0147639
2943.61	0.0193639
2955.18	0.0484539
2966.76	0.0818239
2978.33	0.0789739
2989.91	0.0414039
3001.48	0.0174439
3013.05	0.0078539
3024.63	0.0060139
3036.2	0.0063339
3047.78	0.0072039
3059.35	0.0082039
3070.92	0.0088839
3082.5	0.0091439
3094.07	0.0085239
3105.65	0.0073739
3117.22	0.0074839
3128.79	0.0076239
3140.37	0.0061939
3151.94	0.0039039
3163.52	0.0026439
3175.09	0.0022339
3186.66	0.0019439
3198.24	0.0022039
3209.81	0.0024239
3221.39	0.0021139
3232.96	0.0013039
3244.53	0.0007521
3256.11	0.0004944
3267.68	0.0004501
3279.26	0.0005032
3290.83	0.0004726
3302.4	0.0004716
3313.98	0.0005052
3325.55	0.0003867
3337.13	0.00059
3348.7	0.0007318
3360.27	0.0006111
3371.85	0.0004318
3383.42	0.0004079
3395	0.00031
3406.57	0.0002795
3418.14	0.0002412
3429.72	0.0003035
3441.29	0.0003296
3452.86	0.0003181
3464.44	0.0003499
3476.01	0.0004221
3487.59	0.0004769
3499.16	0.000542
3510.73	0.0006494
3522.31	0.0007622
3533.88	0.0008367
3545.46	0.000876
3557.03	0.0010939
3568.6	0.0011139
3580.18	0.0013139
3591.75	0.0017939
3603.33	0.0019039
3614.9	0.0018739
3626.47	0.0018439
3638.05	0.0020939
3649.62	0.0025039
3661.2	0.0031839
3672.77	0.0031239
3684.34	0.0025439
3695.92	0.0019639
3707.49	0.0019439
3719.07	0.0025239
3730.64	0.0031239
3742.21	0.0035139
3753.79	0.0036639
3765.36	0.0032739
3776.94	0.0026339
3788.51	0.0022139
3800.08	0.0022539
3811.66	0.0026139
3823.23	0.0025039
3834.81	0.0019939
3846.38	0.0014539
3857.95	0.0009837
3869.53	0.0008214
3881.1	0.0007224
3892.68	0.0006171
3904.25	0.0006587
3915.82	0.0005681
3927.4	0.0005633
3938.97	0.0006473
3950.55	0.0006417
3962.12	0.0006899
3973.69	0.0006463
3985.27	0.0006328
3996.84	0.000534
