Infrared Spectrum: Androst-5-en-17-one, 3Beta,19-dihydroxy-,
Formula: C19 H28 O3
CAS: 2857-45-6
State: SOLID (KBr DISC)
Melting point: 210-214 C
Class: COBLENTZ III
Instrument: PERKIN-ELMER 21 (GRATING)
Instrument parameters: FILTER AT ABOUT 10 MICRONS
Resolution: 2
Origin: ABBOTT LABORATORIES
1/CM	TRANSMITTANCE
665	0.599
674	0.6245
683	0.6344
692	0.5977
701	0.6569
710	0.6651
719	0.6766
728	0.6478
737	0.6737
746	0.6231
755	0.6283
764	0.6769
773	0.6999
782	0.6859
791	0.5563
800	0.5941
809	0.563
818	0.6469
827	0.6099
836	0.6424
845	0.5353
854	0.6808
863	0.7165
872	0.7093
881	0.6576
890	0.5318
899	0.6838
908	0.6178
917	0.6658
926	0.6335
935	0.6468
944	0.6608
953	0.6003
962	0.421
971	0.5516
980	0.5752
989	0.5242
998	0.371
1007	0.3958
1016	0.2677
1025	0.1375
1034	0.2769
1043	0.1194
1052	0.1542
1061	0.2813
1070	0.4532
1079	0.5161
1088	0.4146
1097	0.4853
1106	0.5716
1115	0.5741
1124	0.5391
1133	0.5376
1142	0.59
1151	0.5568
1160	0.6129
1169	0.6002
1178	0.565
1187	0.6068
1196	0.5909
1205	0.536
1214	0.4734
1223	0.5261
1232	0.5172
1241	0.4734
1250	0.5281
1259	0.5236
1268	0.5598
1277	0.5567
1286	0.5189
1295	0.5253
1304	0.5119
1313	0.5106
1322	0.5094
1331	0.4918
1340	0.4558
1349	0.4597
1358	0.4921
1367	0.4218
1376	0.4848
1385	0.5502
1394	0.4843
1403	0.4983
1412	0.5147
1421	0.4929
1430	0.4132
1439	0.4009
1448	0.4113
1457	0.4616
1466	0.4431
1475	0.4761
1484	0.642
1493	0.6759
1502	0.6947
1511	0.7034
1520	0.7061
1529	0.7068
1538	0.7073
1547	0.7074
1556	0.7081
1565	0.708
1574	0.7026
1583	0.6917
1592	0.6769
1601	0.6604
1610	0.6448
1619	0.6332
1628	0.6279
1637	0.6333
1646	0.6433
1655	0.6427
1664	0.631
1673	0.6276
1682	0.6029
1691	0.5503
1700	0.5217
1709	0.3029
1718	0.0781
1727	0.0648
1736	0.1261
1745	0.4379
1754	0.5869
1763	0.6498
1772	0.679
1781	0.6933
1790	0.704
1799	0.7129
1808	0.719
1817	0.7241
1826	0.7287
1835	0.7317
1844	0.738
1853	0.7364
1862	0.7379
1871	0.7383
1880	0.7386
1889	0.7387
1898	0.7391
1907	0.7394
1916	0.7396
1925	0.7396
1934	0.7397
1943	0.7397
1952	0.7394
1961	0.739
1970	0.7388
1979	0.7389
1988	0.7388
1997	0.7378
2006	0.7369
2015	0.7359
2024	0.736
2033	0.7362
2042	0.7364
2051	0.7365
2060	0.7367
2069	0.7368
2078	0.7369
2087	0.7373
2096	0.7377
2105	0.738
2114	0.7391
2123	0.7408
2132	0.7425
2141	0.7439
2150	0.7453
2159	0.7458
2168	0.7456
2177	0.7454
2186	0.7451
2195	0.7443
2204	0.7436
2213	0.7429
2222	0.7422
2231	0.7415
2240	0.7401
2249	0.7386
2258	0.7371
2267	0.7355
2276	0.7337
2285	0.7322
2294	0.7314
2303	0.7316
2312	0.7325
2321	0.734
2330	0.7347
2339	0.7349
2348	0.7344
2357	0.7338
2366	0.7332
2375	0.7325
2384	0.7317
2393	0.7308
2402	0.7299
2411	0.729
2420	0.7281
2429	0.7266
2438	0.7251
2447	0.7236
2456	0.7222
2465	0.7207
2474	0.7185
2483	0.7161
2492	0.7138
2501	0.7114
2510	0.7091
2519	0.7065
2528	0.7039
2537	0.7014
2546	0.6989
2555	0.6954
2564	0.6914
2573	0.6874
2582	0.6827
2591	0.677
2600	0.6743
2609	0.6736
2618	0.6737
2627	0.6737
2636	0.6737
2645	0.6724
2654	0.6697
2663	0.6664
2672	0.6628
2681	0.6591
2690	0.6555
2699	0.6519
2708	0.6474
2717	0.6424
2726	0.6365
2735	0.6292
2744	0.6197
2753	0.6086
2762	0.5949
2771	0.5784
2780	0.5592
2789	0.5379
2798	0.4813
2807	0.42
2816	0.3592
2825	0.2992
2834	0.2807
2843	0.271
2852	0.2593
2861	0.2437
2870	0.2178
2879	0.1934
2888	0.1782
2897	0.1717
2906	0.1712
2915	0.1716
2924	0.1764
2933	0.1968
2942	0.2162
2951	0.2306
2960	0.2454
2969	0.3589
2978	0.482
2987	0.593
2996	0.6143
3005	0.6321
3014	0.6387
3023	0.6449
3032	0.6478
3041	0.6497
3050	0.65
3059	0.6501
3068	0.6497
3077	0.6489
3086	0.6475
3095	0.6447
3104	0.6401
3113	0.6337
3122	0.6266
3131	0.6183
3140	0.6088
3149	0.5987
3158	0.5857
3167	0.5725
3176	0.5601
3185	0.5473
3194	0.5343
3203	0.5202
3212	0.5047
3221	0.485
3230	0.4639
3239	0.4453
3248	0.4171
3257	0.3899
3266	0.3629
3275	0.336
3284	0.3093
3293	0.2828
3302	0.2563
3311	0.2301
3320	0.204
3329	0.1779
3338	0.153
3347	0.1391
3356	0.1253
3365	0.1164
3374	0.1112
3383	0.1079
3392	0.1069
3401	0.1077
3410	0.1117
3419	0.1209
3428	0.1392
3437	0.1715
3446	0.2037
3455	0.2357
3464	0.2676
3473	0.2993
3482	0.3308
3491	0.3621
3500	0.3933
3509	0.4244
3518	0.4553
3527	0.4877
3536	0.5213
3545	0.5435
3554	0.5703
3563	0.607
3572	0.6369
3581	0.6505
3590	0.6613
3599	0.67
3608	0.679
3617	0.6898
3626	0.6944
3635	0.6974
3644	0.7003
3653	0.7017
3662	0.703
3671	0.7039
3680	0.704
3689	0.7041
3698	0.7041
3707	0.704
3716	0.7038
3725	0.7036
3734	0.7033
3743	0.7029
3752	0.7023
3761	0.7017
3770	0.7011
3779	0.7006
3788	0.6999
3797	0.6996
3806	0.6992
3815	0.6989
3824	0.6986
3833	0.6983
3842	0.698
3851	0.6978
3860	0.6976
3869	0.6975
3878	0.6973
3887	0.6972
3896	0.6973
3905	0.6974
3914	0.6975
3923	0.6972
3932	0.6969
3941	0.6966
3950	0.6963
3959	0.696
3968	0.6958
3977	0.6954
3986	0.6951
3995	0.6949
