Infrared Spectrum: 1,2-Epoxycyclooctane
Formula: C 8 H 14 O
CAS: 286-62-4
State: gas
Instrument: HP-GC/MS/IRD
Origin: NIST Mass Spectrometry Data Center
1/CM	ABSORBANCE
550	0.0002793
562	5.13e-05
574	5.7e-05
586	7.41e-05
598	8.55e-05
610	0.0001026
622	6.84e-05
634	7.98e-05
646	0.000114
658	0.0001482
670	0.0001767
682	0.0002109
694	0.0003363
706	0.0004674
718	0.0009576
730	0.002622
742	0.0031065
754	0.0017043
766	0.0024909
778	0.0051642
790	0.0055347
802	0.0023313
814	0.0008949
826	0.0015048
838	0.0035226
850	0.0039957
862	0.0023085
874	0.0017784
886	0.0017898
898	0.0015846
910	0.0030666
922	0.0045372
934	0.0028842
946	0.000912
958	0.0007866
970	0.0012255
982	0.001311
994	0.00114
1006	0.0023313
1018	0.003819
1030	0.0030495
1042	0.0011172
1054	0.0006384
1066	0.0005871
1078	0.0005472
1090	0.000855
1102	0.0008322
1114	0.0003819
1126	0.0001995
1138	0.0001596
1150	0.0004047
1162	0.0007353
1174	0.0013167
1186	0.0015789
1198	0.0010545
1210	0.0004731
1222	0.0003078
1234	0.0002679
1246	0.0006156
1258	0.0010545
1270	0.0009462
1282	0.0005985
1294	0.0004845
1306	0.000456
1318	0.0004902
1330	0.0005814
1342	0.0007923
1354	0.0010374
1366	0.0011856
1378	0.0011286
1390	0.0008721
1402	0.0005301
1414	0.0006213
1426	0.0013794
1438	0.0038247
1450	0.0069939
1462	0.0084588
1474	0.0074271
1486	0.0035853
1498	0.001368
1510	0.0005586
1522	0.0003591
1534	0.0002622
1546	0.0002109
1558	0.000171
1570	0.000228
1582	0.0002394
1594	0.0001881
1606	0.000114
1618	0.0001026
1630	0.0001254
1642	0.0001026
1654	6.27e-05
1666	3.99e-05
1678	5.13e-05
1690	8.55e-05
1702	9.12e-05
1714	9.12e-05
1726	0.0001026
1738	7.41e-05
1750	6.27e-05
1762	6.27e-05
1774	7.41e-05
1786	4.56e-05
1798	1.71e-05
1810	4.56e-05
1822	5.13e-05
1834	3.99e-05
1846	3.42e-05
1858	5.13e-05
1870	3.99e-05
1882	1.71e-05
1894	0
1906	1.14e-05
1918	1.71e-05
1930	3.99e-05
1942	1.71e-05
1954	2.85e-05
1966	3.42e-05
1978	2.28e-05
1990	2.85e-05
2002	5.13e-05
2014	2.28e-05
2026	0
2038	5.7e-06
2050	2.28e-05
2062	4.56e-05
2074	5.7e-05
2086	6.84e-05
2098	8.55e-05
2110	6.84e-05
2122	6.27e-05
2134	6.27e-05
2146	6.27e-05
2158	4.56e-05
2170	7.98e-05
2182	0.0001083
2194	0.000114
2206	0.0001026
2218	0.0001197
2230	0.0001197
2242	0.0001197
2254	0.0001026
2266	9.69e-05
2278	0.000114
2290	9.12e-05
2302	8.55e-05
2314	3.42e-05
2326	6.84e-05
2338	5.13e-05
2350	4.56e-05
2362	5.13e-05
2374	3.99e-05
2386	3.42e-05
2398	1.71e-05
2410	3.42e-05
2422	5.7e-05
2434	4.56e-05
2446	6.27e-05
2458	6.27e-05
2470	5.13e-05
2482	2.85e-05
2494	4.56e-05
2506	5.13e-05
2518	6.27e-05
2530	8.55e-05
2542	9.69e-05
2554	9.12e-05
2566	0.0001026
2578	0.000114
2590	0.0001254
2602	0.0001482
2614	0.0001881
2626	0.0002223
2638	0.0003078
2650	0.0003591
2662	0.0005016
2674	0.0007296
2686	0.0009519
2698	0.0008721
2710	0.0006498
2722	0.0005073
2734	0.0004503
2746	0.0005016
2758	0.0005358
2770	0.0005928
2782	0.0007695
2794	0.000969
2806	0.00114
2818	0.0013737
2830	0.0017385
2842	0.0036252
2854	0.0100377
2866	0.0150879
2878	0.0132297
2890	0.0108927
2902	0.0154299
2914	0.0280611
2926	0.0488148
2938	0.0549537
2950	0.0330543
2962	0.0193515
2974	0.0205884
2986	0.017784
2998	0.0080826
3010	0.0025365
3022	0.0011115
3034	0.0006897
3046	0.0005244
3058	0.0005187
3070	0.0005073
3082	0.0004275
3094	0.0003819
3106	0.0003534
3118	0.0002793
3130	0.0002223
3142	0.0002337
3154	0.0002451
3166	0.000171
3178	0.0001767
3190	0.0002166
3202	0.0001938
3214	0.0001824
3226	0.0001254
3238	0.0001539
3250	0.0001482
3262	0.0001425
3274	0.0001083
3286	0.0001368
3298	0.0001026
3310	0.0001539
3322	9.69e-05
3334	6.27e-05
3346	0.0001197
3358	0.000114
3370	0.0001368
3382	0.0001368
3394	0.0001596
3406	0.0001596
3418	0.0001026
3430	0.000114
3442	0.000114
3454	0.0001026
3466	0.0001083
3478	4.56e-05
3490	0.0001026
3502	9.12e-05
3514	3.99e-05
3526	2.85e-05
3538	5.7e-05
3550	6.84e-05
3562	4.56e-05
3574	7.41e-05
3586	5.13e-05
3598	7.41e-05
3610	8.55e-05
3622	5.7e-05
3634	7.41e-05
3646	0.000114
3658	9.12e-05
3670	9.12e-05
3682	9.12e-05
3694	0.0001368
3706	0.0001596
3718	0.0001482
3730	0.0001938
3742	0.0001995
3754	0.0001995
3766	0.0001995
3778	0.000171
3790	0.0001938
3802	0.0001311
3814	0.0001824
3826	0.0001596
3838	0.0002052
