Infrared Spectrum: 1,2-Epoxycyclohexane
Formula: C 6 H 10 O
CAS: 286-20-4
State: gas
Instrument: HP-GC/MS/IRD
Origin: NIST Mass Spectrometry Data Center
1/CM	ABSORBANCE
550	0.0010168
562	0.0001476
574	6.97e-05
586	4.92e-05
598	7.79e-05
610	6.97e-05
622	0.0001394
634	0.0001476
646	0.0002542
658	0.0001312
670	7.79e-05
682	4.1e-06
694	9.43e-05
706	2.05e-05
718	0.0001804
730	0.0006847
742	0.0016523
754	0.0031939
766	0.0045387
778	0.0058097
790	0.0031734
802	0.0017958
814	0.0021279
826	0.002665
838	0.0045879
850	0.0025707
862	0.002337
874	0.0031488
886	0.0039975
898	0.00328
910	0.0018491
922	0.0005125
934	0.0003485
946	0.0009635
958	0.0020377
970	0.0040549
982	0.0028536
994	0.0019598
1006	0.0008159
1018	0.0005535
1030	0.000574
1042	0.0006191
1054	0.0004387
1066	0.0003649
1078	0.0004756
1090	0.0006683
1102	0.0003526
1114	0.0001476
1126	0.0002337
1138	0.0003895
1150	0.0005904
1162	0.0007257
1174	0.0011931
1186	0.0011767
1198	0.0007134
1210	0.0002419
1222	0.0001558
1234	0.0004305
1246	0.0009594
1258	0.001476
1270	0.0009635
1282	0.0006437
1294	0.000287
1306	0.0001763
1318	0.0002952
1330	0.000615
1342	0.0008856
1354	0.001025
1366	0.0008405
1378	0.0005207
1390	0.0004879
1402	0.0008856
1414	0.0018901
1426	0.0037023
1438	0.0048749
1450	0.0049897
1462	0.0039073
1474	0.0021853
1486	0.0009799
1498	0.0005371
1510	0.0003936
1522	0.000287
1534	0.000164
1546	0.0001271
1558	0.0001271
1570	5.74e-05
1582	5.74e-05
1594	4.92e-05
1606	7.79e-05
1618	0.0001107
1630	0.0001435
1642	0.0001476
1654	0.0001435
1666	9.02e-05
1678	4.51e-05
1690	8.61e-05
1702	5.33e-05
1714	6.56e-05
1726	6.97e-05
1738	8.61e-05
1750	8.61e-05
1762	5.74e-05
1774	7.79e-05
1786	9.84e-05
1798	0.0001312
1810	7.79e-05
1822	6.15e-05
1834	0
1846	1.64e-05
1858	4.1e-06
1870	8.2e-06
1882	1.64e-05
1894	8.2e-06
1906	2.46e-05
1918	5.33e-05
1930	3.69e-05
1942	1.64e-05
1954	8.2e-06
1966	2.05e-05
1978	4.51e-05
1990	8.2e-06
2002	1.23e-05
2014	4.51e-05
2026	2.87e-05
2038	2.46e-05
2050	4.1e-05
2062	7.38e-05
2074	6.97e-05
2086	7.38e-05
2098	7.38e-05
2110	8.61e-05
2122	9.43e-05
2134	8.61e-05
2146	9.43e-05
2158	0.0001107
2170	0.0001148
2182	0.0001271
2194	0.000123
2206	0.000123
2218	0.0001435
2230	0.0001394
2242	9.84e-05
2254	9.84e-05
2266	8.2e-05
2278	5.74e-05
2290	0.0001107
2302	7.79e-05
2314	9.02e-05
2326	5.74e-05
2338	8.2e-05
2350	3.69e-05
2362	1.64e-05
2374	5.33e-05
2386	4.92e-05
2398	5.33e-05
2410	5.33e-05
2422	5.74e-05
2434	3.69e-05
2446	2.46e-05
2458	1.64e-05
2470	3.69e-05
2482	5.33e-05
2494	4.1e-05
2506	5.74e-05
2518	5.33e-05
2530	3.69e-05
2542	4.1e-06
2554	1.64e-05
2566	8.2e-06
2578	0
2590	4.92e-05
2602	4.92e-05
2614	8.61e-05
2626	0.0001312
2638	0.0001804
2650	0.0002788
2662	0.0004756
2674	0.0006273
2686	0.0006478
2698	0.0004428
2710	0.0002829
2722	0.0002378
2734	0.0002583
2746	0.000287
2758	0.0003444
2770	0.0004674
2782	0.0006191
2794	0.0007749
2806	0.0010045
2818	0.0012751
2830	0.0022591
2842	0.0045633
2854	0.0078433
2866	0.0098933
2878	0.0094546
2890	0.0086469
2902	0.0098892
2914	0.0165066
2926	0.0267648
2938	0.0378143
2950	0.041
2962	0.0249444
2974	0.0169781
2986	0.0184664
2998	0.0213897
3010	0.0116604
3022	0.004141
3034	0.0012464
3046	0.0007708
3058	0.0006027
3070	0.0004633
3082	0.0003157
3094	0.0002583
3106	0.0001886
3118	0.000123
3130	8.61e-05
3142	9.02e-05
3154	5.33e-05
3166	7.79e-05
3178	4.1e-05
3190	7.79e-05
3202	0.0001025
3214	8.2e-05
3226	5.74e-05
3238	0.0001189
3250	0.0001312
3262	0.000123
3274	0.0001353
3286	0.0001476
3298	0.0001189
3310	7.79e-05
3322	2.46e-05
3334	5.74e-05
3346	8.61e-05
3358	7.79e-05
3370	0.0001599
3382	0.0001066
3394	0.0001107
3406	1.23e-05
3418	2.05e-05
3430	4.51e-05
3442	9.02e-05
3454	4.51e-05
3466	2.05e-05
3478	4.92e-05
3490	2.87e-05
3502	4.92e-05
3514	6.97e-05
3526	4.92e-05
3538	4.92e-05
3550	0.0001025
3562	8.2e-05
3574	9.84e-05
3586	0.0001271
3598	0.0001189
3610	0.0001353
3622	0.0001066
3634	0.0001066
3646	0.0001271
3658	0.0001271
3670	0.0001148
3682	0.000164
3694	0.0001107
3706	0.0001148
3718	0.000205
3730	0.0002911
3742	0.0003772
3754	0.0003034
3766	0.0002337
3778	0.0002173
3790	0.0001804
3802	0.0001353
3814	0.0001558
3826	0.0001394
3838	0.0001927
