Infrared Spectrum: 1,2-Epoxycycloheptane
Formula: C 7 H 12 O
CAS: 286-45-3
State: gas
Instrument: HP-GC/MS/IRD
Origin: NIST Mass Spectrometry Data Center
1/CM	ABSORBANCE
550	0.0001232
562	0.00055
574	0.000462
586	0.0003784
598	0.0004664
610	0.0002904
622	0.0001628
634	6.6e-05
646	7.92e-05
658	0.0001452
670	0.0001716
682	0.0003036
694	0.0004972
706	0.0008536
718	0.0010912
730	0.0013596
742	0.0016192
754	0.0015752
766	0.0010516
778	0.0013244
790	0.0023716
802	0.0032164
814	0.0022616
826	0.0022484
838	0.002926
850	0.00275
862	0.001694
874	0.00121
886	0.0010692
898	0.0017248
910	0.003146
922	0.0047608
934	0.004862
946	0.0036476
958	0.0024068
970	0.001232
982	0.000638
994	0.0004576
1006	0.0006512
1018	0.000902
1030	0.0009768
1042	0.0007876
1054	0.00055
1066	0.0006468
1078	0.0010472
1090	0.0015444
1102	0.0015312
1114	0.0011308
1126	0.0008756
1138	0.0004444
1150	0.0002464
1162	0.0002288
1174	0.0003564
1186	0.000396
1198	0.0004224
1210	0.0004532
1222	0.0005236
1234	0.000572
1246	0.00055
1258	0.0005764
1270	0.0009284
1282	0.0010736
1294	0.000704
1306	0.000396
1318	0.000264
1330	0.0003476
1342	0.0005148
1354	0.0006776
1366	0.0009416
1378	0.0011352
1390	0.000946
1402	0.0007084
1414	0.0011484
1426	0.0027632
1438	0.0050864
1450	0.0066528
1462	0.0056628
1474	0.0033308
1486	0.001452
1498	0.0006952
1510	0.0004928
1522	0.0002728
1534	0.0001584
1546	0.0001496
1558	0.0001364
1570	0.0001452
1582	0.0001408
1594	0.0001364
1606	0.0001452
1618	0.0001012
1630	0.00011
1642	7.48e-05
1654	9.24e-05
1666	7.92e-05
1678	4.4e-05
1690	7.92e-05
1702	5.28e-05
1714	8.36e-05
1726	0.0001188
1738	0.0001364
1750	0.00011
1762	8.8e-05
1774	7.92e-05
1786	8.36e-05
1798	6.16e-05
1810	5.72e-05
1822	6.6e-05
1834	5.28e-05
1846	4.4e-06
1858	3.96e-05
1870	3.52e-05
1882	6.16e-05
1894	6.6e-05
1906	2.2e-05
1918	4.4e-06
1930	0
1942	4.4e-06
1954	1.32e-05
1966	3.08e-05
1978	1.76e-05
1990	4.4e-05
2002	3.96e-05
2014	5.28e-05
2026	4.84e-05
2038	6.16e-05
2050	5.28e-05
2062	8.36e-05
2074	6.6e-05
2086	7.48e-05
2098	8.36e-05
2110	6.16e-05
2122	5.72e-05
2134	7.48e-05
2146	7.48e-05
2158	8.8e-05
2170	0.0001056
2182	0.000154
2194	0.0001452
2206	0.000154
2218	0.0001452
2230	0.0001584
2242	0.0001408
2254	8.8e-05
2266	5.72e-05
2278	8.8e-05
2290	4.4e-05
2302	6.6e-05
2314	5.28e-05
2326	4.84e-05
2338	3.52e-05
2350	5.72e-05
2362	8.36e-05
2374	9.24e-05
2386	0.0001232
2398	0.000132
2410	0.0001188
2422	9.24e-05
2434	7.48e-05
2446	9.24e-05
2458	8.36e-05
2470	0.00011
2482	9.68e-05
2494	0.00011
2506	9.24e-05
2518	0.0001012
2530	0.0001056
2542	0.0001628
2554	0.000176
2566	0.0001584
2578	0.000176
2590	0.0001672
2602	0.000176
2614	0.0002156
2626	0.0002992
2638	0.0003564
2650	0.0004136
2662	0.0004752
2674	0.0006204
2686	0.0007832
2698	0.0009768
2710	0.0009856
2722	0.0008404
2734	0.0006732
2746	0.0006028
2758	0.0005676
2770	0.000638
2782	0.0008448
2794	0.0011616
2806	0.0014476
2818	0.0016632
2830	0.002486
2842	0.0056892
2854	0.0106392
2866	0.0117436
2878	0.0104016
2890	0.0104368
2902	0.0149556
2914	0.025058
2926	0.0411884
2938	0.0433532
2950	0.0306856
2962	0.0212256
2974	0.0193468
2986	0.0157784
2998	0.0077924
3010	0.003036
3022	0.0013728
3034	0.0009064
3046	0.000682
3058	0.0005192
3070	0.000462
3082	0.0003828
3094	0.0003432
3106	0.0003608
3118	0.0002728
3130	0.0002728
3142	0.0002596
3154	0.0002068
3166	0.0001716
3178	0.0001364
3190	0.000176
3202	0.0001848
3214	0.0002024
3226	0.0002288
3238	0.0002156
3250	0.000198
3262	0.0002376
3274	0.0001628
3286	0.0002288
3298	0.0001496
3310	0.0001408
3322	9.68e-05
3334	0.0001584
3346	0.0001584
3358	0.000132
3370	0.0002024
3382	0.0001584
3394	6.6e-05
3406	9.68e-05
3418	0.0001276
3430	0.000132
3442	8.36e-05
3454	0.0001144
3466	0.0001144
3478	0.0001496
3490	0.000132
3502	0.0001496
3514	0.000154
3526	0.000132
3538	0.0001188
3550	0.0001716
3562	9.68e-05
3574	0.0001188
3586	0.0001452
3598	7.04e-05
3610	0.0001056
3622	0.000132
3634	8.36e-05
3646	0.0001584
3658	0.00011
3670	0.0001408
3682	0.0001848
3694	0.0001936
3706	0.0002024
3718	0.000242
3730	0.0002156
3742	0.0001892
3754	0.000154
3766	0.0002288
3778	0.0002156
3790	0.0001936
3802	0.0002332
3814	0.0002332
3826	0.0002684
3838	0.0003124
