Infrared Spectrum: N-ETHOXYMETHYL PHTHALIMIDE
Formula: C11 H11 N O3
CAS: 2860-50-6
State: SOLUTION (5% CCl4)
Class: COBLENTZ
Instrument: Not specified, most likely a prism, grating, or hybrid spectrometer.
Sampling: TRANSMISSION
Path length: 0.010 CM
Resolution: 4
MICROMETERS	TRANSMITTANCE
1.987	0.912
2.02739	0.914
2.06778	0.914
2.10818	0.909
2.14857	0.907
2.18896	0.909
2.22935	0.911
2.26974	0.904
2.31014	0.901
2.35053	0.904
2.39092	0.902
2.43131	0.901
2.47171	0.902
2.5121	0.904
2.55249	0.906
2.59288	0.906
2.63327	0.906
2.67367	0.904
2.71406	0.904
2.75445	0.904
2.79484	0.899
2.83523	0.881
2.87563	0.858
2.91602	0.868
2.95641	0.873
2.9968	0.876
3.03719	0.883
3.07759	0.881
3.11798	0.881
3.15837	0.889
3.19876	0.884
3.23916	0.873
3.27955	0.864
3.31994	0.762
3.36033	0.695
3.40072	0.675
3.44112	0.693
3.48151	0.744
3.5219	0.855
3.56229	0.878
3.60268	0.889
3.64308	0.896
3.68347	0.901
3.72386	0.904
3.76425	0.907
3.80464	0.911
3.84504	0.912
3.88543	0.914
3.92582	0.915
3.96621	0.914
4.00661	0.914
4.047	0.915
4.08739	0.907
4.12778	0.911
4.16817	0.909
4.20857	0.899
4.24896	0.891
4.28935	0.894
4.32974	0.901
4.37013	0.911
4.41053	0.912
4.45092	0.909
4.49131	0.911
4.5317	0.911
4.57209	0.911
4.61249	0.909
4.65288	0.906
4.69327	0.909
4.73366	0.914
4.77406	0.917
4.81445	0.917
4.85484	0.917
4.89523	0.915
4.93562	0.917
4.97602	0.917
5.01641	0.914
5.0568	0.901
5.09719	0.902
5.13758	0.878
5.17798	0.901
5.21837	0.901
5.25876	0.909
5.29915	0.901
5.33954	0.902
5.37994	0.894
5.42033	0.866
5.46072	0.868
5.50111	0.833
5.54151	0.807
5.5819	0.627
5.62229	0.49
5.66268	0.752
5.70307	0.698
5.74347	0.342
5.78386	0.014
5.82425	0.209
5.86464	0.509
5.90503	0.723
5.94543	0.822
5.98582	0.861
6.02621	0.828
6.0666	0.869
6.107	0.859
6.14739	0.79
6.18778	0.794
6.22817	0.831
6.26856	0.845
6.30896	0.853
6.34935	0.855
6.38974	0.855
6.43013	0.851
6.47052	0.85
6.51092	0.853
6.55131	0.853
6.5917	0.846
6.63209	0.858
6.67248	0.878
6.71288	0.841
6.75327	0.82
6.79366	0.57
6.83405	0.754
6.87445	0.706
6.91484	0.543
6.95523	0.622
6.99562	0.714
7.03601	0.546
7.07641	0.395
7.1168	0.586
7.15719	0.514
7.19758	0.551
7.23797	0.533
7.27837	0.322
7.31876	0.37
7.35915	0.311
7.39954	0.168
7.43993	0.103
7.48033	0.291
7.52072	0.207
7.56111	0.252
7.6015	0.502
7.6419	0.693
7.68229	0.731
7.72268	0.774
7.76307	0.782
7.80346	0.828
7.84386	0.848
7.88425	0.859
7.92464	0.863
7.96503	0.861
8.00542	0.853
8.04582	0.859
8.08621	0.861
8.1266	0.848
8.16699	0.797
8.20738	0.662
8.24778	0.354
8.28817	0.275
8.32856	0.558
8.36895	0.657
8.40935	0.662
8.44974	0.71
8.49013	0.733
8.53052	0.662
8.57091	0.594
8.61131	0.573
8.6517	0.654
8.69209	0.713
8.73248	0.731
8.77287	0.729
8.81327	0.695
8.85366	0.647
8.89405	0.589
8.93444	0.438
8.97483	0.266
9.01523	0.191
9.05562	0.199
9.09601	0.131
9.1364	0.087
9.1768	0.224
9.21719	0.406
9.25758	0.49
9.29797	0.525
9.33836	0.522
9.37876	0.649
9.41915	0.741
9.45954	0.799
9.49993	0.82
9.54032	0.843
9.58072	0.855
9.62111	0.858
9.6615	0.853
9.70189	0.841
9.74228	0.823
9.78268	0.794
9.82307	0.752
9.86346	0.746
9.90385	0.78
9.94425	0.787
9.98464	0.742
10.025	0.655
10.0654	0.434
10.1058	0.235
10.1462	0.153
10.1866	0.359
10.227	0.548
10.2674	0.71
10.3078	0.795
10.3482	0.827
10.3886	0.835
10.429	0.822
10.4693	0.846
10.5097	0.887
10.5501	0.896
10.5905	0.907
10.6309	0.911
10.6713	0.912
10.7117	0.917
10.7521	0.924
10.7925	0.92
10.8329	0.925
10.8733	0.925
10.9137	0.927
10.954	0.93
10.9944	0.927
11.0348	0.922
11.0752	0.915
11.1156	0.896
11.156	0.891
11.1964	0.892
11.2368	0.897
11.2772	0.899
11.3176	0.897
11.358	0.897
11.3984	0.897
11.4388	0.897
11.4791	0.886
11.5195	0.863
11.5599	0.795
11.6003	0.677
11.6407	0.724
11.6811	0.815
11.7215	0.866
11.7619	0.887
11.8023	0.889
11.8427	0.886
11.8831	0.864
11.9235	0.855
11.9639	0.856
12.0042	0.858
12.0446	0.855
12.085	0.845
12.1254	0.83
12.1658	0.807
12.2062	0.775
12.2466	0.739
12.287	0.719
12.3274	0.708
12.3678	0.7
12.4082	0.693
12.4486	0.693
12.4889	0.691
12.5293	0.695
12.5697	0.7
12.6101	0.701
12.6505	0.701
12.6909	0.7
12.7313	0.698
12.7717	0.693
12.8121	0.7
12.8525	0.677
12.8929	0.682
12.9333	0.672
12.9737	0.67
13.014	0.663
13.0544	0.662
13.0948	0.65
13.1352	0.64
13.1756	0.639
13.216	0.637
13.2564	0.635
13.2968	0.635
13.3372	0.634
13.3776	0.632
13.418	0.634
13.4584	0.634
13.4988	0.634
13.5391	0.634
13.5795	0.632
13.6199	0.601
13.6603	0.525
13.7007	0.291
13.7411	0.141
13.7815	0.116
13.8219	0.377
13.8623	0.523
13.9027	0.606
13.9431	0.611
13.9835	0.429
14.0238	0.278
14.0642	0.296
14.1046	0.55
14.145	0.746
14.1854	0.858
14.2258	0.919
14.2662	0.947
14.3066	0.965
14.347	0.97
14.3874	0.932
14.4278	0.934
14.4682	0.985
14.5086	1.003
14.5489	1.023
14.5893	1.023
14.6297	1.021
14.6701	1.023
14.7105	1.023
14.7509	1.023
14.7913	1.023
14.8317	1.023
14.8721	1.023
14.9125	1.023
14.9529	1.023
14.9933	1.023
15.0337	1.021
15.074	1.021
15.1144	1.021
15.1548	1.021
15.1952	1.021
15.2356	1.023
15.276	1.024
15.3164	1.024
15.3568	1.024
15.3972	1.023
15.4376	1.024
