Infrared Spectrum: 3,4-Methylenedioxyphenylacetic acid
Formula: C 9 H 8 O 4
CAS: 2861-28-1
State: gas
Origin: EPA-IR VAPOR PHASE LIBRARY
1/CM	ABSORBANCE
549.8	0.019359
559.445	0.023789
569.09	0.017579
578.734	0.011409
588.379	0.009789
598.024	0.011839
607.669	0.018079
617.313	0.021929
626.958	0.020349
636.603	0.016429
646.248	0.012449
655.893	0.009289
665.537	0.007379
675.182	0.006059
684.827	0.005599
694.472	0.006139
704.116	0.007199
713.761	0.005619
723.406	0.003859
733.051	0.003459
742.695	0.002259
752.34	0.002149
761.985	0.003129
771.63	0.005969
781.275	0.011009
790.919	0.013919
800.564	0.014829
810.209	0.012069
819.854	0.008279
829.498	0.005999
839.143	0.005919
848.788	0.006289
858.433	0.005189
868.078	0.004419
877.722	0.004149
887.367	0.004099
897.012	0.004369
906.657	0.005549
916.301	0.009809
925.946	0.015959
935.591	0.021219
945.236	0.021609
954.88	0.017169
964.525	0.009369
974.17	0.005089
983.815	0.003739
993.46	0.003579
1003.1	0.004879
1012.75	0.007099
1022.39	0.011529
1032.04	0.021589
1041.68	0.036669
1051.33	0.044459
1060.97	0.034269
1070.62	0.023069
1080.26	0.023799
1089.91	0.037079
1099.55	0.059459
1109.2	0.085039
1118.84	0.076829
1128.49	0.046799
1138.13	0.030559
1147.78	0.020499
1157.42	0.015139
1167.07	0.014149
1176.71	0.018289
1186.36	0.030509
1196	0.033539
1205.64	0.025889
1215.29	0.023669
1224.93	0.030009
1234.58	0.058669
1244.22	0.107049
1253.87	0.081469
1263.51	0.032569
1273.16	0.017929
1282.8	0.013099
1292.45	0.011119
1302.09	0.010299
1311.74	0.010619
1321.38	0.012869
1331.03	0.016669
1340.67	0.021159
1350.32	0.024049
1359.96	0.019699
1369.61	0.013409
1379.25	0.009699
1388.9	0.007479
1398.54	0.006339
1408.18	0.006009
1417.83	0.008639
1427.47	0.016059
1437.12	0.032999
1446.76	0.042769
1456.41	0.020459
1466.05	0.013059
1475.7	0.024809
1485.34	0.079369
1494.99	0.092629
1504.63	0.044459
1514.28	0.023849
1523.92	0.009159
1533.57	0.006059
1543.21	0.004529
1552.86	0.003289
1562.5	0.002509
1572.15	0.002169
1581.79	0.002509
1591.44	0.002999
1601.08	0.003419
1610.73	0.003959
1620.37	0.003719
1630.01	0.002649
1639.66	0.001959
1649.3	0.001389
1658.95	0.001459
1668.59	0.001739
1678.24	0.002069
1687.88	0.002719
1697.53	0.003539
1707.17	0.004469
1716.82	0.006049
1726.46	0.008869
1736.11	0.014319
1745.75	0.023689
1755.4	0.037669
1765.04	0.055269
1774.69	0.074169
1784.33	0.073409
1793.98	0.054769
1803.62	0.035209
1813.27	0.018289
1822.91	0.009839
1832.55	0.006239
1842.2	0.004399
1851.84	0.003359
1861.49	0.002799
1871.13	0.002649
1880.78	0.002469
1890.42	0.002109
1900.07	0.001709
1909.71	0.001479
1919.36	0.0012529
1929	0.0010614
1938.65	0.0009317
1948.29	0.000955
1957.94	0.0010306
1967.58	0.0009784
1977.23	0.0010447
1986.87	0.001145
1996.52	0.001119
2006.16	0.0011408
2015.81	0.0011962
2025.45	0.001146
2035.1	0.0012107
2044.74	0.001389
2054.38	0.0013048
2064.03	0.0011734
2073.67	0.0009979
2083.32	0.0007871
2092.96	0.0007924
2102.61	0.0006476
2112.25	0.0006139
2121.9	0.0007272
2131.54	0.0007476
2141.19	0.0005973
2150.83	0.0006822
2160.48	0.0005775
2170.12	0.0005228
2179.77	0.0006972
2189.41	0.0008177
2199.06	0.0009002
2208.7	0.0009016
2218.35	0.0009198
2227.99	0.000903
2237.64	0.0007667
2247.28	0.0007789
2256.92	0.0007313
2266.57	0.0006311
2276.21	0.0007491
2285.86	0.0008708
2295.5	0.0010159
2305.15	0.0010575
2314.79	0.0010801
2324.44	0.0011652
2334.08	0.0010701
2343.73	0.0009476
2353.37	0.0010557
2363.02	0.0012746
2372.66	0.0011664
2382.31	0.0007481
2391.95	0.0006858
2401.6	0.0005333
2411.24	0.0005462
2420.89	0.0005641
2430.53	0.0005629
2440.18	0.0005537
2449.82	0.0004819
2459.47	0.0005707
2469.11	0.0005955
2478.75	0.0005165
2488.4	0.00047721
2498.04	0.00045375
2507.69	0.00044944
2517.33	0.0004332
2526.98	0.0006229
2536.62	0.0007772
2546.27	0.0009044
2555.91	0.000848
2565.56	0.0007645
2575.2	0.0007902
2584.85	0.0008556
2594.49	0.0008435
2604.14	0.0008141
2613.78	0.0006717
2623.43	0.000617
2633.07	0.0005999
2642.72	0.0006663
2652.36	0.0005853
2662.01	0.0006632
2671.65	0.0008151
2681.29	0.0009419
2690.94	0.0010144
2700.58	0.0007899
2710.23	0.0008688
2719.87	0.0010393
2729.52	0.0010072
2739.16	0.0010058
2748.81	0.0013223
2758.45	0.002119
2768.1	0.003979
2777.74	0.004849
2787.39	0.002759
2797.03	0.001969
2806.68	0.001949
2816.32	0.002329
2825.97	0.002669
2835.61	0.003879
2845.26	0.005319
2854.9	0.006759
2864.55	0.009939
2874.19	0.014299
2883.84	0.015369
2893.48	0.013359
2903.12	0.013049
2912.77	0.014539
2922.41	0.015079
2932.06	0.013949
2941.7	0.012839
2951.35	0.011499
2960.99	0.009319
2970.64	0.006819
2980.28	0.005479
2989.93	0.005259
2999.57	0.005519
3009.22	0.006019
3018.86	0.007159
3028.51	0.006139
3038.15	0.005099
3047.8	0.004719
3057.44	0.003589
3067.09	0.003099
3076.73	0.003359
3086.38	0.002629
3096.02	0.001739
3105.67	0.0012907
3115.31	0.0010208
3124.95	0.0008306
3134.6	0.00044339
3144.24	0.000369
3153.89	0.000263
3163.53	0.0003594
3173.18	0.000225
3182.82	0.00012
3192.47	8e-05
3202.11	9.3e-05
3211.76	0.00041137
3221.4	0.000261
3231.05	0.000298
3240.69	0.000199
3250.34	0.000241
3259.98	0.000141
3269.63	5.6e-05
3279.27	0.000164
3288.92	0.000184
3298.56	3.8e-05
3308.21	2.8e-05
3317.85	8.9e-05
3327.49	0.000156
3337.14	0.000117
3346.78	5.1e-05
3356.43	0.0002791
3366.07	0.000213
3375.72	0.0002838
3385.36	0.0003092
3395.01	0.000162
3404.65	0.000149
3414.3	0.000158
3423.94	0.000165
3433.59	0.000255
3443.23	0.000122
3452.88	9e-05
3462.52	0.000179
3472.17	0.000158
3481.81	0.00040285
3491.46	0.0005021
3501.1	0.0005004
3510.75	0.0007871
3520.39	0.0009637
3530.04	0.001529
3539.68	0.002599
3549.32	0.004509
3558.97	0.009209
3568.61	0.028589
3578.26	0.033209
3587.9	0.010529
3597.55	0.003909
3607.19	0.002039
3616.84	0.0011023
3626.48	0.0007002
3636.13	0.000753
3645.77	0.0005114
3655.42	0.0003608
3665.06	0.000274
3674.71	0.000275
3684.35	0.00013
3694	0.000228
3703.64	0.000257
3713.29	0.0003496
3722.93	0.000146
3732.58	0.000221
3742.22	0.00023
3751.86	0.0003206
3761.51	0.0003599
3771.15	0.000172
3780.8	0.000217
3790.44	0.000158
3800.09	0.0003529
3809.73	0.0003461
3819.38	0.000241
3829.02	0.000178
3838.67	0.000207
3848.31	0.000122
3857.96	0.000175
3867.6	0.00038728
3877.25	0.000231
3886.89	0.000172
3896.54	0.0002896
3906.18	0.0003254
3915.83	0.000258
3925.47	0.00045829
3935.12	0.0003078
3944.76	0.00045498
3954.41	0.00044539
3964.05	0.00046229
3973.69	0.0002893
3983.34	0.00040558
3992.98	0.0003144
