Infrared Spectrum: 2,3,4-Trimethyl-5-hexen-3-ol
Formula: C 9 H 18 O
CAS: 28638-29-1
State: gas
Instrument: HP-GC/MS/IRD
Origin: NIST Mass Spectrometry Data Center
1/CM	ABSORBANCE
550	0.000252
562	0.00012
574	0.000214
586	0.000108
598	6.2e-05
610	0.000206
622	0.000134
634	0.000272
646	0.000384
658	0.00077
670	0.000478
682	0.000306
694	0.000192
706	0.00033
718	0.000362
730	0.000346
742	0.000318
754	0.000268
766	9.2e-05
778	3.4e-05
790	8.6e-05
802	0.000102
814	0.000168
826	0.000146
838	0.000312
850	0.000386
862	0.00059
874	0.00103
886	0.001634
898	0.003528
910	0.007098
922	0.006564
934	0.002768
946	0.00126
958	0.001054
970	0.001474
982	0.002426
994	0.003758
1006	0.003756
1018	0.002966
1030	0.00311
1042	0.003164
1054	0.002672
1066	0.002592
1078	0.002836
1090	0.003114
1102	0.003342
1114	0.003246
1126	0.003074
1138	0.002902
1150	0.00281
1162	0.002794
1174	0.00257
1186	0.002214
1198	0.001716
1210	0.001286
1222	0.001144
1234	0.001206
1246	0.001368
1258	0.00167
1270	0.001982
1282	0.002158
1294	0.002066
1306	0.00196
1318	0.001786
1330	0.001656
1342	0.001732
1354	0.002128
1366	0.00367
1378	0.005574
1390	0.004536
1402	0.002376
1414	0.001668
1426	0.001486
1438	0.001474
1450	0.002166
1462	0.002946
1474	0.00258
1486	0.001412
1498	0.00066
1510	0.000392
1522	0.000272
1534	0.000228
1546	0.00023
1558	0.000206
1570	0.00022
1582	0.000228
1594	0.000236
1606	0.000364
1618	0.000694
1630	0.001282
1642	0.00122
1654	0.000534
1666	0.0003
1678	0.000208
1690	0.000154
1702	0.000106
1714	0.000138
1726	0.000122
1738	0.00011
1750	5.8e-05
1762	6.4e-05
1774	5e-05
1786	5.4e-05
1798	8.4e-05
1810	0.000142
1822	0.000324
1834	0.000514
1846	0.000354
1858	0.00017
1870	7.6e-05
1882	8e-05
1894	7.4e-05
1906	7.4e-05
1918	4.6e-05
1930	3.4e-05
1942	2e-06
1954	3.8e-05
1966	4.6e-05
1978	6e-05
1990	5.2e-05
2002	4.4e-05
2014	3.2e-05
2026	4.4e-05
2038	3.6e-05
2050	2.6e-05
2062	3.4e-05
2074	4e-05
2086	2.2e-05
2098	2.4e-05
2110	3.2e-05
2122	3e-05
2134	2.8e-05
2146	1.8e-05
2158	2e-05
2170	2e-05
2182	3.6e-05
2194	1.4e-05
2206	1.8e-05
2218	8e-06
2230	3.4e-05
2242	2e-05
2254	4.6e-05
2266	6e-05
2278	4.8e-05
2290	4.8e-05
2302	6.8e-05
2314	5.4e-05
2326	6.2e-05
2338	3e-05
2350	6.2e-05
2362	4.2e-05
2374	7e-05
2386	8.4e-05
2398	9e-05
2410	7.6e-05
2422	6e-05
2434	6.8e-05
2446	7.6e-05
2458	9.4e-05
2470	7.4e-05
2482	5.8e-05
2494	7.4e-05
2506	8.2e-05
2518	7.6e-05
2530	8.6e-05
2542	8.8e-05
2554	0.000102
2566	7.6e-05
2578	0.000116
2590	0.000148
2602	0.00018
2614	0.000162
2626	0.00017
2638	0.000188
2650	0.000164
2662	0.00015
2674	0.000158
2686	0.000172
2698	0.00016
2710	0.000202
2722	0.000248
2734	0.000326
2746	0.000346
2758	0.000338
2770	0.000348
2782	0.000362
2794	0.00041
2806	0.000456
2818	0.000608
2830	0.00075
2842	0.000926
2854	0.00129
2866	0.002248
2878	0.004696
2890	0.006742
2902	0.006622
2914	0.006822
2926	0.0077
2938	0.00933
2950	0.010742
2962	0.013654
2974	0.019384
2986	0.017862
2998	0.009986
3010	0.004658
3022	0.002478
3034	0.00159
3046	0.001308
3058	0.001478
3070	0.002258
3082	0.003154
3094	0.002062
3106	0.000814
3118	0.000568
3130	0.000468
3142	0.000428
3154	0.000412
3166	0.000416
3178	0.000368
3190	0.000318
3202	0.000308
3214	0.000254
3226	0.00018
3238	0.00014
3250	0.000126
3262	0.000148
3274	0.00013
3286	6.2e-05
3298	9.6e-05
3310	8.4e-05
3322	0.000114
3334	0.000132
3346	0.000138
3358	0.000104
3370	0.000138
3382	9.4e-05
3394	9.8e-05
3406	7.4e-05
3418	0.00015
3430	0.000128
3442	9.8e-05
3454	0.000126
3466	0.000106
3478	0.00014
3490	7.2e-05
3502	6.8e-05
3514	6.2e-05
3526	6.6e-05
3538	0.000114
3550	2e-06
3562	9.8e-05
3574	0.000162
3586	0.00019
3598	0.000416
3610	0.000424
3622	0.000436
3634	0.000832
3646	0.001112
3658	0.000792
3670	0.000342
3682	0.000152
3694	0.000136
3706	6.8e-05
3718	6e-06
3730	0
3742	3.4e-05
3754	3.6e-05
3766	5.6e-05
3778	3.2e-05
3790	7e-05
3802	4e-05
3814	4.6e-05
3826	7.8e-05
3838	7.8e-05
