Infrared Spectrum: BIS(TETRADECANOYLOXY)DIBUTYL TIN
Formula: C36 H72 O4 Sn
CAS: 28660-67-5
State: SOLID (BETWEEN SALTS)
Class: COBLENTZ
Instrument: BECKMAN IR-4 (HYBRID PRISM-GRATING)
Sampling: TRANSMISSION
Resolution: 4
Origin: FLUKA AG, BUCHS, SWITZERLAND
MICROMETERS	TRANSMITTANCE
2.025	0.845
2.05993	0.838
2.09487	0.85
2.1298	0.853
2.16473	0.857
2.19966	0.855
2.2346	0.84
2.26953	0.826
2.30446	0.831
2.3394	0.838
2.37433	0.83
2.40926	0.847
2.44419	0.85
2.47913	0.857
2.51406	0.862
2.54899	0.872
2.58392	0.88
2.61886	0.871
2.65379	0.885
2.68872	0.883
2.72366	0.866
2.75859	0.862
2.79352	0.846
2.82845	0.841
2.86339	0.833
2.89832	0.821
2.93325	0.807
2.96819	0.777
3.00312	0.761
3.03805	0.776
3.07298	0.779
3.10792	0.78
3.14285	0.777
3.17778	0.789
3.21272	0.789
3.24765	0.771
3.28258	0.736
3.31751	0.647
3.35245	0.233
3.38738	0.111
3.42231	0.116
3.45724	0.31
3.49218	0.255
3.52711	0.68
3.56204	0.761
3.59698	0.792
3.63191	0.803
3.66684	0.818
3.70177	0.821
3.73671	0.83
3.77164	0.841
3.80657	0.855
3.84151	0.863
3.87644	0.87
3.91137	0.875
3.9463	0.875
3.98124	0.88
4.01617	0.88
4.0511	0.882
4.08603	0.876
4.12097	0.883
4.1559	0.881
4.19083	0.891
4.22577	0.897
4.2607	0.908
4.29563	0.911
4.33056	0.912
4.3655	0.912
4.40043	0.916
4.43536	0.921
4.4703	0.922
4.50523	0.923
4.54016	0.93
4.57509	0.932
4.61003	0.936
4.64496	0.937
4.67989	0.938
4.71483	0.946
4.74976	0.947
4.78469	0.947
4.81962	0.948
4.85456	0.948
4.88949	0.955
4.92442	0.956
4.95935	0.96
4.99429	0.966
5.02922	0.963
5.06415	0.963
5.09909	0.965
5.13402	0.968
5.16895	0.961
5.20388	0.966
5.23882	0.966
5.27375	0.968
5.30868	0.962
5.34362	0.967
5.37855	0.96
5.41348	0.967
5.44841	0.968
5.48335	0.953
5.51828	0.948
5.55321	0.946
5.58815	0.931
5.62308	0.91
5.65801	0.892
5.69294	0.807
5.72788	0.752
5.76281	0.786
5.79774	0.765
5.83267	0.772
5.86761	0.86
5.90254	0.861
5.93747	0.865
5.97241	0.853
6.00734	0.837
6.04227	0.805
6.0772	0.772
6.11214	0.687
6.14707	0.548
6.182	0.393
6.21694	0.317
6.25187	0.363
6.2868	0.451
6.32173	0.564
6.35667	0.622
6.3916	0.727
6.42653	0.792
6.46147	0.855
6.4964	0.877
6.53133	0.887
6.56626	0.906
6.6012	0.898
6.63613	0.893
6.67106	0.883
6.70599	0.857
6.74093	0.802
6.77586	0.484
6.81079	0.419
6.84573	0.509
6.88066	0.548
6.91559	0.579
6.95052	0.61
6.98546	0.596
7.02039	0.508
7.05532	0.479
7.09026	0.423
7.12519	0.404
7.16012	0.403
7.19505	0.405
7.22999	0.401
7.26492	0.478
7.29985	0.534
7.33478	0.59
7.36972	0.624
7.40465	0.645
7.43958	0.694
7.47452	0.729
7.50945	0.719
7.54438	0.707
7.57931	0.686
7.61425	0.654
7.64918	0.634
7.68411	0.619
7.71905	0.616
7.75398	0.631
7.78891	0.631
7.82384	0.634
7.85878	0.664
7.89371	0.675
7.92864	0.681
7.96358	0.686
7.99851	0.706
8.03344	0.735
8.06837	0.75
8.10331	0.766
8.13824	0.787
8.17317	0.8
8.2081	0.805
8.24304	0.807
8.27797	0.806
8.3129	0.8
8.34784	0.789
8.38277	0.777
8.4177	0.757
8.45263	0.747
8.48757	0.747
8.5225	0.75
8.55743	0.742
8.59237	0.735
8.6273	0.746
8.66223	0.771
8.69716	0.79
8.7321	0.808
8.76703	0.83
8.80196	0.827
8.8369	0.828
8.87183	0.811
8.90676	0.78
8.94169	0.761
8.97663	0.764
9.01156	0.774
9.04649	0.795
9.08142	0.792
9.11636	0.776
9.15129	0.772
9.18622	0.76
9.22116	0.726
9.25609	0.707
9.29102	0.737
9.32595	0.764
9.36089	0.77
9.39582	0.776
9.43075	0.786
9.46569	0.789
9.50062	0.789
9.53555	0.789
9.57048	0.795
9.60542	0.803
9.64035	0.792
9.67528	0.777
9.71022	0.789
9.74515	0.805
9.78008	0.826
9.81501	0.837
9.84995	0.847
9.88488	0.847
9.91981	0.841
9.95474	0.837
9.98968	0.852
10.0246	0.857
10.0595	0.858
10.0945	0.86
10.1294	0.865
10.1643	0.868
10.1993	0.871
10.2342	0.87
10.2691	0.868
10.3041	0.861
10.339	0.848
10.3739	0.84
10.4089	0.835
10.4438	0.838
10.4787	0.838
10.5137	0.836
10.5486	0.832
10.5835	0.828
10.6185	0.826
10.6534	0.82
10.6883	0.818
10.7233	0.813
10.7582	0.821
10.7931	0.827
10.8281	0.832
10.863	0.827
10.8979	0.831
10.9329	0.846
10.9678	0.858
11.0027	0.87
11.0377	0.872
11.0726	0.875
11.1075	0.877
11.1425	0.877
11.1774	0.875
11.2123	0.87
11.2473	0.857
11.2822	0.84
11.3171	0.823
11.3521	0.816
11.387	0.821
11.4219	0.822
11.4569	0.827
11.4918	0.832
11.5267	0.853
11.5617	0.878
11.5966	0.891
11.6315	0.897
11.6665	0.901
11.7014	0.902
11.7363	0.903
11.7713	0.908
11.8062	0.917
11.8411	0.921
11.876	0.922
11.911	0.925
11.9459	0.928
11.9808	0.93
12.0158	0.932
12.0507	0.935
12.0856	0.938
12.1206	0.94
12.1555	0.942
12.1904	0.945
12.2254	0.946
12.2603	0.948
12.2952	0.947
12.3302	0.943
12.3651	0.947
12.4	0.946
12.435	0.943
12.4699	0.945
12.5048	0.945
12.5398	0.943
12.5747	0.94
12.6096	0.936
12.6446	0.932
12.6795	0.926
12.7144	0.921
12.7494	0.917
12.7843	0.903
12.8192	0.897
12.8542	0.895
12.8891	0.891
12.924	0.891
12.959	0.888
12.9939	0.887
13.0288	0.891
13.0638	0.893
13.0987	0.893
13.1336	0.89
13.1686	0.888
13.2035	0.886
13.2384	0.88
13.2734	0.872
13.3083	0.865
13.3432	0.86
13.3782	0.858
13.4131	0.857
13.448	0.852
13.483	0.846
13.5179	0.84
13.5528	0.833
13.5878	0.827
13.6227	0.811
13.6576	0.799
13.6926	0.775
13.7275	0.765
13.7624	0.75
13.7974	0.729
13.8323	0.706
13.8672	0.691
13.9022	0.694
13.9371	0.71
13.972	0.719
14.0069	0.732
14.0419	0.74
14.0768	0.746
14.1117	0.756
14.1467	0.761
14.1816	0.766
14.2165	0.769
14.2515	0.769
14.2864	0.767
14.3213	0.765
14.3563	0.761
14.3912	0.752
14.4261	0.747
14.4611	0.74
14.496	0.726
14.5309	0.714
14.5659	0.706
14.6008	0.696
14.6357	0.687
14.6707	0.671
14.7056	0.659
14.7405	0.656
14.7755	0.656
14.8104	0.65
14.8453	0.649
14.8803	0.65
14.9152	0.659
14.9501	0.666
14.9851	0.672
15.02	0.674
