Infrared Spectrum: n-Tridecylamine
Formula: C 13 H 29 N
CAS: 2869-34-3
State: gas
Origin: EPA-IR VAPOR PHASE LIBRARY
1/CM	ABSORBANCE
549.8	0.0007844
559.445	0.0013453
569.09	0.0010718
578.734	0.0010795
588.379	0.0008583
598.024	0.0010946
607.669	0.0012788
617.313	0.0010234
626.958	0.0012318
636.603	0.0011688
646.248	0.0013721
655.893	0.0013434
665.537	0.0014133
675.182	0.0012353
684.827	0.0016175
694.472	0.00175
704.116	0.0019
713.761	0.00203
723.406	0.00265
733.051	0.00325
742.695	0.00424
752.34	0.00468
761.985	0.00514
771.63	0.00548
781.275	0.00523
790.919	0.00422
800.564	0.00291
810.209	0.00222
819.854	0.00193
829.498	0.00189
839.143	0.0016334
848.788	0.00174
858.433	0.0015568
868.078	0.0014115
877.722	0.001317
887.367	0.0012942
897.012	0.0014623
906.657	0.001495
916.301	0.0014201
925.946	0.0014324
935.591	0.0015312
945.236	0.00167
954.88	0.0013831
964.525	0.0015132
974.17	0.0015181
983.815	0.0014919
993.46	0.00167
1003.1	0.0016534
1012.75	0.0015939
1022.39	0.00167
1032.04	0.00182
1041.68	0.00172
1051.33	0.00224
1060.97	0.00228
1070.62	0.00251
1080.26	0.00216
1089.91	0.00195
1099.55	0.00173
1109.2	0.0011988
1118.84	0.001329
1128.49	0.0010993
1138.13	0.0012271
1147.78	0.0010563
1157.42	0.0014027
1167.07	0.0011334
1176.71	0.0008287
1186.36	0.0008205
1196	0.000352
1205.64	0.000262
1215.29	0.000144
1224.93	0.000424
1234.58	0.000349
1244.22	0.000286
1253.87	0.000263
1263.51	7.5e-05
1273.16	0.000344
1282.8	0.000515
1292.45	0.00075562
1302.09	0.0010754
1311.74	0.0012443
1321.38	0.0012798
1331.03	0.0015245
1340.67	0.00186
1350.32	0.00221
1359.96	0.00296
1369.61	0.00414
1379.25	0.00546
1388.9	0.00498
1398.54	0.00263
1408.18	0.00173
1417.83	0.0016417
1427.47	0.00174
1437.12	0.00242
1446.76	0.00344
1456.41	0.00528
1466.05	0.00631
1475.7	0.00494
1485.34	0.00277
1494.99	0.00178
1504.63	0.0014815
1514.28	0.0012903
1523.92	0.0012384
1533.57	0.0011794
1543.21	0.0011915
1552.86	0.0010621
1562.5	0.0010574
1572.15	0.0011081
1581.79	0.0011106
1591.44	0.0012749
1601.08	0.0014828
1610.73	0.00198
1620.37	0.00233
1630.01	0.00205
1639.66	0.0015095
1649.3	0.0012571
1658.95	0.001076
1668.59	0.00107
1678.24	0.0009897
1687.88	0.0009095
1697.53	0.0008872
1707.17	0.0007911
1716.82	0.0008828
1726.46	0.00071737
1736.11	0.0008062
1745.75	0.0007646
1755.4	0.00074509
1765.04	0.00075773
1774.69	0.00069526
1784.33	0.0007397
1793.98	0.0007279
1803.62	0.00071759
1813.27	0.0007612
1822.91	0.00075029
1832.55	0.0008045
1842.2	0.0008094
1851.84	0.00071683
1861.49	0.0007879
1871.13	0.00075827
1880.78	0.00069866
1890.42	0.0007836
1900.07	0.00075026
1909.71	0.00075692
1919.36	0.00075268
1929	0.0007172
1938.65	0.0007205
1948.29	0.00072915
1957.94	0.00074455
1967.58	0.00069827
1977.23	0.00075415
1986.87	0.00071955
1996.52	0.00072279
2006.16	0.0007697
2015.81	0.0008504
2025.45	0.0007614
2035.1	0.00074027
2044.74	0.00073904
2054.38	0.0007925
2064.03	0.0007742
2073.67	0.0007366
2083.32	0.00071266
2092.96	0.0007856
2102.61	0.0007713
2112.25	0.00075636
2121.9	0.0008202
2131.54	0.0008349
2141.19	0.0008288
2150.83	0.0007775
2160.48	0.0007864
2170.12	0.0008299
2179.77	0.000804
2189.41	0.0008179
2199.06	0.0008413
2208.7	0.0008256
2218.35	0.0008484
2227.99	0.00075851
2237.64	0.0008605
2247.28	0.000816
2256.92	0.0008281
2266.57	0.0007761
2276.21	0.0008345
2285.86	0.000895
2295.5	0.00075449
2305.15	0.0008785
2314.79	0.0008187
2324.44	0.0008089
2334.08	0.0008129
2343.73	0.0007875
2353.37	0.000664141
2363.02	0.00069692
2372.66	0.0008146
2382.31	0.0008695
2391.95	0.0008463
2401.6	0.0009143
2411.24	0.0009131
2420.89	0.0009347
2430.53	0.0009585
2440.18	0.0009642
2449.82	0.0008466
2459.47	0.0008948
2469.11	0.0009637
2478.75	0.0008989
2488.4	0.0008715
2498.04	0.0009287
2507.69	0.0009035
2517.33	0.0009709
2526.98	0.00099
2536.62	0.0009825
2546.27	0.0010478
2555.91	0.0011044
2565.56	0.0011392
2575.2	0.0011754
2584.85	0.0012175
2594.49	0.001293
2604.14	0.0012891
2613.78	0.0013995
2623.43	0.0013846
2633.07	0.0013552
2642.72	0.0014306
2652.36	0.0014006
2662.01	0.0015108
2671.65	0.0015849
2681.29	0.0015129
2690.94	0.0014334
2700.58	0.0016033
2710.23	0.0015814
2719.87	0.00185
2729.52	0.00188
2739.16	0.00196
2748.81	0.00204
2758.45	0.00181
2768.1	0.00214
2777.74	0.00212
2787.39	0.00235
2797.03	0.00249
2806.68	0.00284
2816.32	0.0034
2825.97	0.00403
2835.61	0.00536
2845.26	0.00783
2854.9	0.01172
2864.55	0.01499
2874.19	0.01825
2883.84	0.01978
2893.48	0.0177
2903.12	0.01926
2912.77	0.02442
2922.41	0.02998
2932.06	0.03467
2941.7	0.03304
2951.35	0.02869
2960.99	0.03769
2970.64	0.0355
2980.28	0.01647
2989.93	0.00801
2999.57	0.00493
3009.22	0.00373
3018.86	0.00293
3028.51	0.00263
3038.15	0.00219
3047.8	0.00208
3057.44	0.00212
3067.09	0.00202
3076.73	0.00179
3086.38	0.00187
3096.02	0.00176
3105.67	0.00173
3115.31	0.00173
3124.95	0.0015774
3134.6	0.00179
3144.24	0.00184
3153.89	0.0017
3163.53	0.0015655
3173.18	0.00175
3182.82	0.0017
3192.47	0.0015197
3202.11	0.0016293
3211.76	0.0015997
3221.4	0.0014671
3231.05	0.0016236
3240.69	0.0015085
3250.34	0.0011881
3259.98	0.0014479
3269.63	0.0014756
3279.27	0.0014026
3288.92	0.0013773
3298.56	0.0013675
3308.21	0.0013938
3317.85	0.0014764
3327.49	0.0014424
3337.14	0.0013762
3346.78	0.0015709
3356.43	0.0014207
3366.07	0.0015151
3375.72	0.0014436
3385.36	0.0015245
3395.01	0.0013257
3404.65	0.0013448
3414.3	0.0012679
3423.94	0.0011832
3433.59	0.0013609
3443.23	0.001206
3452.88	0.0013094
3462.52	0.0013218
3472.17	0.0013829
3481.81	0.0011347
3491.46	0.0012806
3501.1	0.0012409
3510.75	0.0011516
3520.39	0.0012854
3530.04	0.0013975
3539.68	0.001374
3549.32	0.001222
3558.97	0.0011692
3568.61	0.0011552
3578.26	0.0011141
3587.9	0.0015483
3597.55	0.001163
3607.19	0.0012815
3616.84	0.0012609
3626.48	0.001443
3636.13	0.0011102
3645.77	0.0014326
3655.42	0.0012743
3665.06	0.0014121
3674.71	0.0013079
3684.35	0.0014381
3694	0.0011563
3703.64	0.0013002
3713.29	0.0012658
3722.93	0.0012404
3732.58	0.0014025
3742.22	0.0014711
3751.86	0.0013858
3761.51	0.0016024
3771.15	0.001333
3780.8	0.0016172
3790.44	0.0011131
3800.09	0.0015615
3809.73	0.001448
3819.38	0.00169
3829.02	0.0013928
3838.67	0.0014614
3848.31	0.0014324
3857.96	0.0013214
3867.6	0.001395
3877.25	0.0014782
3886.89	0.0015178
3896.54	0.0014701
3906.18	0.0015468
3915.83	0.0016068
3925.47	0.0014922
3935.12	0.0013766
3944.76	0.0015346
3954.41	0.0016014
3964.05	0.0012538
3973.69	0.0015292
3983.34	0.0012983
3992.98	0.0014835
