Infrared Spectrum: 1,3-Dimethyl-2-ethylbenzene
Formula: C 10 H 14
CAS: 2870-04-4
State: gas
Instrument: HP-GC/MS/IRD
Origin: NIST Mass Spectrometry Data Center
1/CM	ABSORBANCE
550	0.0007936
562	0.0002816
574	3.84e-05
586	3.2e-06
598	0.000128
610	3.84e-05
622	0.0001536
634	0.0002976
646	0.0003808
658	0.0002688
670	4.48e-05
682	0.000176
694	0.0002752
706	0.0003584
718	0.0006656
730	0.0018624
742	0.0046528
754	0.0091936
766	0.0158368
778	0.0068704
790	0.001904
802	0.0007712
814	0.00032
826	0.0002688
838	0.0003296
850	0.0002848
862	0.000272
874	0.0002304
886	0.0004704
898	0.0008288
910	0.0007296
922	0.0003968
934	0.0004
946	0.000752
958	0.0011104
970	0.0009728
982	0.0007776
994	0.0006368
1006	0.000608
1018	0.0007296
1030	0.0009344
1042	0.0012256
1054	0.0019744
1066	0.0018112
1078	0.0013216
1090	0.00192
1102	0.0017312
1114	0.000816
1126	0.0004288
1138	0.0003616
1150	0.0004416
1162	0.0006016
1174	0.0005344
1186	0.0004544
1198	0.0003904
1210	0.0003808
1222	0.0005216
1234	0.0008
1246	0.0008256
1258	0.00056
1270	0.000544
1282	0.0006016
1294	0.0006464
1306	0.0008864
1318	0.0011808
1330	0.0010464
1342	0.0008128
1354	0.000992
1366	0.00168
1378	0.0029152
1390	0.0024128
1402	0.0013408
1414	0.0013856
1426	0.0020288
1438	0.0035392
1450	0.0068544
1462	0.0100032
1474	0.0103904
1486	0.006752
1498	0.0031136
1510	0.0019232
1522	0.0017536
1534	0.001632
1546	0.0014272
1558	0.0014688
1570	0.0018848
1582	0.0023968
1594	0.0020928
1606	0.0010496
1618	0.0007232
1630	0.0006464
1642	0.0007648
1654	0.0006624
1666	0.0004352
1678	0.000352
1690	0.0003488
1702	0.000336
1714	0.0003328
1726	0.0002944
1738	0.0001952
1750	0.0002368
1762	0.0004896
1774	0.0005632
1786	0.0003584
1798	0.000272
1810	0.0002368
1822	0.000256
1834	0.000496
1846	0.0005824
1858	0.0003456
1870	0.0001664
1882	0.0001728
1894	0.0003104
1906	0.0006592
1918	0.000896
1930	0.0005248
1942	0.000144
1954	7.68e-05
1966	7.04e-05
1978	5.76e-05
1990	8.96e-05
2002	0.0001088
2014	0.0001024
2026	0.000128
2038	9.92e-05
2050	7.68e-05
2062	6.08e-05
2074	4.8e-05
2086	6.72e-05
2098	7.68e-05
2110	7.04e-05
2122	6.72e-05
2134	7.36e-05
2146	5.12e-05
2158	4.8e-05
2170	2.56e-05
2182	2.56e-05
2194	3.2e-06
2206	0
2218	2.88e-05
2230	3.52e-05
2242	2.88e-05
2254	4.16e-05
2266	6.4e-05
2278	0.0001056
2290	6.72e-05
2302	4.48e-05
2314	0.0001056
2326	0.0001696
2338	0.0001504
2350	0.000128
2362	8e-05
2374	3.84e-05
2386	8.96e-05
2398	8.64e-05
2410	0.0001216
2422	9.92e-05
2434	0.0001024
2446	9.28e-05
2458	8.32e-05
2470	0.0001056
2482	0.000128
2494	9.92e-05
2506	8e-05
2518	8e-05
2530	9.28e-05
2542	9.28e-05
2554	0.0001376
2566	0.0001248
2578	0.000112
2590	5.76e-05
2602	0.0001152
2614	0.0001856
2626	0.000208
2638	0.000208
2650	0.0001376
2662	0.0001216
2674	0.0001184
2686	0.0001408
2698	0.000208
2710	0.0002624
2722	0.0004
2734	0.0007584
2746	0.0009088
2758	0.0006592
2770	0.000672
2782	0.0007328
2794	0.0008864
2806	0.0010528
2818	0.0013568
2830	0.0019264
2842	0.0028512
2854	0.0045472
2866	0.0078112
2878	0.0120512
2890	0.0128352
2902	0.0120256
2914	0.0137888
2926	0.017856
2938	0.0218304
2950	0.0215104
2962	0.025248
2974	0.032
2986	0.0213568
2998	0.010176
3010	0.0087328
3022	0.0105856
3034	0.0106976
3046	0.0101184
3058	0.0108096
3070	0.010144
3082	0.0064992
3094	0.0029888
3106	0.0017152
3118	0.0012896
3130	0.0010752
3142	0.0009472
3154	0.0008896
3166	0.0007488
3178	0.000528
3190	0.0003648
3202	0.0002464
3214	0.0001952
3226	0.0001664
3238	8.64e-05
3250	0.0001024
3262	0.0001152
3274	0.0001216
3286	8e-05
3298	0.000128
3310	0.000112
3322	0.0001504
3334	0.0001376
3346	0.000112
3358	9.6e-05
3370	6.72e-05
3382	0.0001056
3394	0.0001088
3406	0.000112
3418	0.0001728
3430	0.0001696
3442	0.0001024
3454	8.64e-05
3466	0.000128
3478	9.92e-05
3490	0.000128
3502	0.0001216
3514	0.0001376
3526	0.0001184
3538	0.0001664
3550	0.0001184
3562	0.0001216
3574	0.000112
3586	9.6e-05
3598	6.08e-05
3610	9.28e-05
3622	0.0001344
3634	7.68e-05
3646	1.28e-05
3658	6.72e-05
3670	0.000112
3682	0.0001216
3694	8.64e-05
3706	0.000128
3718	0.0001184
3730	8.32e-05
3742	0.0001056
3754	7.04e-05
3766	9.28e-05
3778	0.0001376
3790	0.0001856
3802	0.0002144
3814	0.0002112
3826	0.0002272
3838	0.0001696
