Infrared Spectrum: 21-ACETOXY-11Beta,17Alpha,20Alpha-TRIHYDROXYPREGNA-1,4-DIEN-3-ONE
Formula: C23 H32 O6
CAS: 2871-71-8
State: SOLID (KBr DISC)
Class: COBLENTZ III
Instrument: BECKMAN IR-7
Sampling: TRANSMISSION
Resolution: 4
Origin: THE WORCESTER FOUNDATION FOR EXPERIMENTAL BIOLOGY, Neal L. McNiven
1/CM	TRANSMITTANCE
599.272	0.581
608.008	0.563
616.745	0.589
625.481	0.641
634.217	0.686
642.954	0.712
651.69	0.742
660.427	0.753
669.163	0.795
677.899	0.801
686.636	0.802
695.372	0.826
704.108	0.793
712.845	0.824
721.581	0.873
730.317	0.89
739.054	0.884
747.79	0.843
756.527	0.886
765.263	0.881
773.999	0.852
782.736	0.856
791.472	0.886
800.208	0.873
808.945	0.879
817.681	0.834
826.417	0.816
835.154	0.859
843.89	0.879
852.627	0.867
861.363	0.862
870.099	0.865
878.836	0.834
887.572	0.639
896.308	0.6049
905.045	0.781
913.781	0.823
922.517	0.739
931.254	0.801
939.99	0.739
948.727	0.8
957.463	0.728
966.199	0.789
974.936	0.83
983.672	0.771
992.408	0.711
1001.14	0.753
1009.88	0.73
1018.62	0.683
1027.35	0.642
1036.09	0.551
1044.83	0.518
1053.56	0.599
1062.3	0.661
1071.04	0.677
1079.77	0.73
1088.51	0.692
1097.24	0.65
1105.98	0.608
1114.72	0.67
1123.45	0.652
1132.19	0.636
1140.93	0.771
1149.66	0.755
1158.4	0.734
1167.14	0.747
1175.87	0.738
1184.61	0.76
1193.34	0.748
1202.08	0.755
1210.82	0.705
1219.55	0.573
1228.29	0.381
1237.03	0.313
1245.76	0.35
1254.5	0.446
1263.24	0.41
1271.97	0.469
1280.71	0.583
1289.44	0.669
1298.18	0.656
1306.92	0.634
1315.65	0.665
1324.39	0.692
1333.13	0.747
1341.86	0.713
1350.6	0.632
1359.34	0.61
1368.07	0.532
1376.81	0.584
1385.54	0.621
1394.28	0.665
1403.02	0.626
1411.75	0.624
1420.49	0.692
1429.23	0.7
1437.96	0.601
1446.7	0.669
1455.44	0.694
1464.17	0.782
1472.91	0.795
1481.64	0.865
1490.38	0.897
1499.12	0.904
1507.85	0.906
1516.59	0.908
1525.33	0.907
1534.06	0.903
1542.8	0.897
1551.54	0.882
1560.27	0.865
1569.01	0.816
1577.74	0.672
1586.48	0.381
1595.22	0.377
1603.95	0.366
1612.69	0.441
1621.43	0.605
1630.16	0.679
1638.9	0.4911
1647.64	0.221
1656.37	0.172
1665.11	0.422
1673.84	0.727
1682.58	0.773
1691.32	0.774
1700.05	0.707
1708.79	0.531
1717.53	0.415
1726.26	0.356
1735	0.363
1743.74	0.477
1752.47	0.666
1761.21	0.821
1769.94	0.874
1778.68	0.897
1787.42	0.905
1796.15	0.913
1804.89	0.924
1813.63	0.928
1822.36	0.93
1831.1	0.933
1839.84	0.938
1848.57	0.944
1857.31	0.946
1866.04	0.947
1874.78	0.947
1883.52	0.947
1892.25	0.947
1900.99	0.947
1909.73	0.946
1918.46	0.945
1927.2	0.944
1935.94	0.944
1944.67	0.946
1953.41	0.941
1962.14	0.947
1970.88	0.945
1979.62	0.942
1988.35	0.942
1997.09	0.942
2005.83	0.942
2014.56	0.942
2023.3	0.942
2032.04	0.942
2040.77	0.942
2049.51	0.942
2058.24	0.942
2066.98	0.942
2075.72	0.942
2084.45	0.942
2093.19	0.942
2101.93	0.942
2110.66	0.942
2119.4	0.942
2128.14	0.942
2136.87	0.942
2145.61	0.942
2154.34	0.942
2163.08	0.942
2171.82	0.942
2180.55	0.9419
2189.29	0.9409
2198.03	0.9399
2206.76	0.939
2215.5	0.938
2224.24	0.937
2232.97	0.9369
2241.71	0.936
2250.44	0.9359
2259.18	0.934
2267.92	0.934
2276.65	0.933
2285.39	0.932
2294.13	0.931
2302.86	0.931
2311.6	0.931
2320.34	0.93
2329.07	0.9289
2337.81	0.928
2346.54	0.928
2355.28	0.927
2364.02	0.926
2372.75	0.925
2381.49	0.9239
2390.23	0.9219
2398.96	0.9199
2407.7	0.918
2416.44	0.9179
2425.17	0.916
2433.91	0.915
2442.64	0.914
2451.38	0.913
2460.12	0.911
2468.85	0.909
2477.59	0.908
2486.33	0.907
2495.06	0.9058
2503.8	0.905
2512.54	0.9038
2521.27	0.9028
2530.01	0.902
2538.74	0.9018
2547.48	0.9008
2556.22	0.8986
2564.95	0.8958
2573.69	0.894
2582.43	0.8936
2591.16	0.8908
2599.9	0.8888
2608.64	0.8878
2617.37	0.886
2626.11	0.8848
2634.84	0.8808
2643.58	0.8788
2652.32	0.8778
2661.05	0.876
2669.79	0.875
2678.53	0.8738
2687.26	0.8695
2696	0.865
2704.74	0.8638
2713.47	0.8628
2722.21	0.861
2730.94	0.8623
2739.68	0.863
2748.42	0.863
2757.15	0.863
2765.89	0.8617
2774.63	0.8595
2783.36	0.8547
2792.1	0.8469
2800.84	0.8387
2809.57	0.8319
2818.31	0.819
2827.04	0.7803
2835.78	0.7128
2844.52	0.6837
2853.25	0.6791
2861.99	0.6567
2870.73	0.6521
2879.46	0.6401
2888.2	0.612
2896.94	0.5609
2905.67	0.531
2914.41	0.5194
2923.14	0.4908
2931.88	0.4753
2940.62	0.477
2949.35	0.5043
2958.09	0.5567
2966.83	0.6059
2975.56	0.6851
2984.3	0.7117
2993.04	0.75
3001.77	0.7734
3010.51	0.7854
3019.24	0.7917
3027.98	0.7947
3036.72	0.7997
3045.45	0.8044
3054.19	0.8089
3062.93	0.8224
3071.66	0.824
3080.4	0.823
3089.14	0.821
3097.87	0.8186
3106.61	0.8146
3115.34	0.8106
3124.08	0.8066
3132.82	0.8026
3141.55	0.7996
3150.29	0.7942
3159.03	0.7836
3167.76	0.7708
3176.5	0.7642
3185.24	0.7568
3193.97	0.7463
3202.71	0.7367
3211.44	0.7292
3220.18	0.7227
3228.92	0.7161
3237.65	0.7028
3246.39	0.6891
3255.13	0.6783
3263.86	0.6637
3272.6	0.6498
3281.34	0.628
3290.07	0.6051
3298.81	0.5953
3307.54	0.5766
3316.28	0.5584
3325.02	0.5393
3333.75	0.5242
3342.49	0.5007
3351.23	0.4836
3359.96	0.4602
3368.7	0.441
3377.44	0.4276
3386.17	0.4115
3394.91	0.4015
3403.64	0.391
3412.38	0.3815
3421.12	0.3755
3429.85	0.3695
3438.59	0.369
3447.33	0.3785
3456.06	0.3982
3464.8	0.4166
3473.54	0.4355
3482.27	0.4526
3491.01	0.4716
3499.74	0.4953
3508.48	0.5106
3517.22	0.5216
3525.95	0.5301
3534.69	0.5376
3543.43	0.5694
3552.16	0.6103
3560.9	0.656
3569.64	0.6998
3578.37	0.7216
3587.11	0.7371
3595.84	0.7656
3604.58	0.7869
3613.32	0.7951
3622.05	0.7991
3630.79	0.8049
3639.53	0.8197
3648.26	0.8253
3657	0.8372
3665.74	0.8406
3674.47	0.8426
3683.21	0.8446
3691.94	0.847
3700.68	0.85
3709.42	0.8506
3718.15	0.851
3726.89	0.852
3735.63	0.852
3744.36	0.8536
3753.1	0.855
3761.84	0.855
3770.57	0.8556
3779.31	0.856
3788.04	0.856
3796.78	0.856
3805.52	0.856
3814.25	0.856
3822.99	0.856
3831.73	0.856
3840.46	0.857
3849.2	0.856
3857.94	0.855
3866.67	0.855
3875.41	0.855
3884.14	0.855
3892.88	0.855
3901.62	0.855
3910.35	0.855
3919.09	0.855
3927.83	0.855
3936.56	0.8557
3945.3	0.856
3954.04	0.856
3962.77	0.856
3971.51	0.856
3980.24	0.856
3988.98	0.855
3997.72	0.855
