Infrared Spectrum: 9-CINNAMYLIDENE FLUORENE
Formula: C22 H16
CAS: 2871-26-3
State: SOLID (KBr PELLET)
Melting point: 155 C
Class: COBLENTZ
Instrument: PERKIN-ELMER
Sampling: TRANSMISSION
Resolution: 4
Origin: UNION CARBIDE CORPORATION (CARBON PRODUCTS DIVISION)
MICROMETERS	TRANSMITTANCE
2.034	0.37
2.06771	0.373
2.10143	0.377
2.13514	0.383
2.16885	0.392
2.20257	0.397
2.23628	0.402
2.26999	0.417
2.30371	0.424
2.33742	0.43
2.37114	0.436
2.40485	0.437
2.43856	0.439
2.47228	0.441
2.50599	0.441
2.5397	0.446
2.57342	0.451
2.60713	0.456
2.64084	0.459
2.67456	0.464
2.70827	0.468
2.74198	0.476
2.7757	0.479
2.80941	0.481
2.84313	0.493
2.87684	0.501
2.91055	0.501
2.94427	0.505
2.97798	0.511
3.01169	0.513
3.04541	0.511
3.07912	0.511
3.11283	0.513
3.14655	0.515
3.18026	0.515
3.21397	0.518
3.24769	0.496
3.2814	0.415
3.31512	0.398
3.34883	0.402
3.38254	0.439
3.41626	0.473
3.44997	0.489
3.48368	0.5
3.5174	0.508
3.55111	0.52
3.58482	0.526
3.61854	0.535
3.65225	0.542
3.68596	0.553
3.71968	0.56
3.75339	0.562
3.78711	0.562
3.82082	0.565
3.85453	0.567
3.88825	0.572
3.92196	0.577
3.95567	0.579
3.98939	0.584
4.0231	0.59
4.05681	0.597
4.09053	0.601
4.12424	0.604
4.15795	0.609
4.19167	0.614
4.22538	0.617
4.2591	0.617
4.29281	0.617
4.32652	0.617
4.36024	0.617
4.39395	0.617
4.42766	0.619
4.46138	0.624
4.49509	0.636
4.5288	0.643
4.56252	0.649
4.59623	0.654
4.62994	0.654
4.66366	0.653
4.69737	0.654
4.73109	0.654
4.7648	0.654
4.79851	0.656
4.83223	0.661
4.86594	0.668
4.89965	0.67
4.93337	0.675
4.96708	0.676
5.00079	0.676
5.03451	0.676
5.06822	0.678
5.10193	0.671
5.13565	0.649
5.16936	0.638
5.20308	0.659
5.23679	0.663
5.2705	0.649
5.30422	0.663
5.33793	0.661
5.37164	0.663
5.40536	0.685
5.43907	0.686
5.47278	0.685
5.5065	0.678
5.54021	0.675
5.57392	0.649
5.60764	0.654
5.64135	0.668
5.67507	0.678
5.70878	0.678
5.74249	0.676
5.77621	0.676
5.80992	0.676
5.84363	0.676
5.87735	0.676
5.91106	0.683
5.94477	0.696
5.97849	0.7
6.0122	0.691
6.04591	0.691
6.07963	0.696
6.11334	0.686
6.14706	0.457
6.18077	0.335
6.21448	0.498
6.2482	0.491
6.28191	0.521
6.31562	0.565
6.34934	0.579
6.38305	0.659
6.41676	0.685
6.45048	0.703
6.48419	0.713
6.5179	0.725
6.55162	0.727
6.58533	0.728
6.61905	0.734
6.65276	0.685
6.68647	0.626
6.72019	0.599
6.7539	0.572
6.78761	0.675
6.82133	0.73
6.85504	0.575
6.88875	0.148
6.92247	0.154
6.95618	0.427
6.98989	0.466
7.02361	0.542
7.05732	0.659
7.09104	0.683
7.12475	0.695
7.15846	0.7
7.19218	0.713
7.22589	0.722
7.2596	0.7
7.29332	0.671
7.32703	0.675
7.36074	0.405
7.39446	0.398
7.42817	0.594
7.46188	0.621
7.4956	0.587
7.52931	0.668
7.56303	0.671
7.59674	0.696
7.63045	0.72
7.66417	0.7
7.69788	0.696
7.73159	0.666
7.76531	0.67
7.79902	0.723
7.83273	0.745
7.86645	0.755
7.90016	0.759
7.93387	0.759
7.96759	0.644
8.0013	0.621
8.03502	0.681
8.06873	0.675
8.10244	0.675
8.13616	0.686
8.16987	0.685
8.20358	0.686
8.2373	0.678
8.27101	0.707
8.30472	0.734
8.33844	0.754
8.37215	0.734
8.40586	0.745
8.43958	0.745
8.47329	0.58
8.50701	0.585
8.54072	0.696
8.57443	0.707
8.60815	0.734
8.64186	0.707
8.67557	0.715
8.70929	0.765
8.743	0.804
8.77671	0.809
8.81043	0.806
8.84414	0.772
8.87785	0.75
8.91157	0.799
8.94528	0.813
8.979	0.796
9.01271	0.75
9.04642	0.797
9.08014	0.806
9.11385	0.826
9.14756	0.828
9.18128	0.828
9.21499	0.784
9.2487	0.767
9.28242	0.771
9.31613	0.739
9.34984	0.745
9.38356	0.799
9.41727	0.829
9.45099	0.846
9.4847	0.855
9.51841	0.861
9.55213	0.873
9.58584	0.877
9.61955	0.86
9.65327	0.787
9.68698	0.779
9.72069	0.776
9.75441	0.734
9.78812	0.732
9.82183	0.767
9.85555	0.799
9.88926	0.821
9.92298	0.833
9.95669	0.845
9.9904	0.831
10.0241	0.829
10.0578	0.841
10.0915	0.826
10.1253	0.782
10.159	0.728
10.1927	0.732
10.2264	0.787
10.2601	0.737
10.2938	0.74
10.3275	0.592
10.3613	0.377
10.395	0.131
10.4287	0.057
10.4624	0.153
10.4961	0.459
10.5298	0.594
10.5635	0.664
10.5972	0.69
10.631	0.649
10.6647	0.649
10.6984	0.664
10.7321	0.7
10.7658	0.742
10.7995	0.782
10.8332	0.794
10.867	0.797
10.9007	0.799
10.9344	0.797
10.9681	0.794
11.0018	0.791
11.0355	0.779
11.0692	0.786
11.103	0.814
11.1367	0.821
11.1704	0.806
11.2041	0.799
11.2378	0.806
11.2715	0.831
11.3052	0.841
11.3389	0.848
11.3727	0.851
11.4064	0.851
11.4401	0.814
11.4738	0.782
11.5075	0.715
11.5412	0.7
11.5749	0.685
11.6087	0.707
11.6424	0.772
11.6761	0.821
11.7098	0.829
11.7435	0.828
11.7772	0.803
11.8109	0.764
11.8446	0.744
11.8784	0.769
11.9121	0.797
11.9458	0.787
11.9795	0.789
12.0132	0.835
12.0469	0.856
12.0806	0.868
12.1144	0.875
12.1481	0.875
12.1818	0.878
12.2155	0.883
12.2492	0.887
12.2829	0.892
12.3166	0.89
12.3504	0.892
12.3841	0.892
12.4178	0.892
12.4515	0.893
12.4852	0.895
12.5189	0.895
12.5526	0.897
12.5863	0.898
12.6201	0.898
12.6538	0.895
12.6875	0.855
12.7212	0.767
12.7549	0.412
12.7886	0.198
12.8223	0.075
12.8561	0.153
12.8898	0.21
12.9235	0.239
12.9572	0.351
12.9909	0.52
13.0246	0.565
13.0583	0.582
13.0921	0.584
13.1258	0.579
13.1595	0.565
13.1932	0.518
13.2269	0.405
13.2606	0.235
13.2943	0.153
13.328	0.127
13.3618	0.154
13.3955	0.276
13.4292	0.223
13.4629	0.132
13.4966	0.079
13.5303	0.127
13.564	0.319
13.5978	0.483
13.6315	0.537
13.6652	0.505
13.6989	0.346
13.7326	0.208
13.7663	0.092
13.8	0.048
13.8337	0.042
13.8675	0.139
13.9012	0.441
13.9349	0.53
13.9686	0.616
14.0023	0.656
14.036	0.68
14.0697	0.705
14.1035	0.722
14.1372	0.737
14.1709	0.747
14.2046	0.75
14.2383	0.75
14.272	0.739
14.3057	0.727
14.3395	0.691
14.3732	0.644
14.4069	0.599
14.4406	0.493
14.4743	0.383
14.508	0.242
14.5417	0.176
14.5754	0.164
14.6092	0.291
14.6429	0.476
14.6766	0.565
14.7103	0.641
14.744	0.678
14.7777	0.695
14.8114	0.718
14.8452	0.723
14.8789	0.727
14.9126	0.725
14.9463	0.727
14.98	0.73
15.0137	0.742
15.0474	0.747
15.0812	0.757
15.1149	0.772
15.1486	0.782
15.1823	0.789
15.216	0.789
15.2497	0.772
15.2834	0.762
15.3171	0.765
15.3509	0.789
15.3846	0.808
15.4183	0.813
15.452	0.818
15.4857	0.818
