Infrared Spectrum: GALACTOPYRANOSIDE, p-NITROPHENYL, TETRAACETATE, Beta-D-
Formula: C20 H23 N O12
CAS: 2872-66-4
State: SOLID (SPLIT MULL), FLUOROLUBE FOR 3800-1330 CM^-^1, NUJOL FOR 1330-400 CM^-^1
Melting point: 145 C
Class: COBLENTZ III
Instrument: BECKMAN IR-9 (GRATING)
Instrument parameters: ORDER CHANGES: 670, 1200, 2000 CM^-^1
Sampling: TRANSMISSION
Resolution: 2
Origin: DOW CHEMICAL COMPANY
1/CM	TRANSMITTANCE
405.601	0.593
414.444	0.582
423.287	0.568
432.13	0.662
440.973	0.637
449.816	0.611
458.659	0.809
467.502	0.776
476.345	0.798
485.188	0.59
494.031	0.822
502.874	0.803
511.717	0.903
520.561	0.816
529.404	0.928
538.247	0.939
547.09	0.763
555.933	0.976
564.776	1
573.619	1.005
582.462	0.944
591.305	0.774
600.148	0.87
608.991	0.811
617.834	0.909
626.677	0.815
635.52	0.915
644.363	0.907
653.206	0.924
662.049	0.939
670.892	0.951
679.735	0.874
688.578	0.566
697.421	0.723
706.264	0.615
715.107	0.581
723.95	0.707
732.793	0.834
741.637	0.852
750.48	0.5349
759.323	0.633
768.166	0.856
777.009	0.938
785.852	0.965
794.695	0.973
803.538	0.971
812.381	0.881
821.224	0.849
830.067	0.873
838.91	0.646
847.753	0.5218
856.596	0.494
865.439	0.5929
874.282	0.575
883.125	0.807
891.968	0.786
900.811	0.663
909.654	0.465
918.497	0.25
927.34	0.377
936.183	0.681
945.026	0.29
953.869	0.409
962.713	0.524
971.556	0.719
980.399	0.36
989.242	0.584
998.085	0.65
1006.93	0.592
1015.77	0.407
1024.61	0.38
1033.46	0.25
1042.3	0.107
1051.14	0.071
1059.99	0.06
1068.83	0.06
1077.67	0.039
1086.52	0.035
1095.36	0.155
1104.2	0.242
1113.04	0.224
1121.89	0.472
1130.73	0.205
1139.57	0.19
1148.42	0.528
1157.26	0.65
1166.1	0.632
1174.95	0.362
1183.79	0.435
1192.63	0.435
1201.47	0.296
1210.32	0.066
1219.16	0.011
1228	0.002
1236.85	0.001
1245.69	0.004
1254.53	0.013
1263.38	0.048
1272.22	0.214
1281.06	0.25
1289.91	0.44
1298.75	0.502
1307.59	0.608
1316.43	0.629
1325.28	0.593
1334.12	0.462
1342.96	0.137
1351.81	0.1471
1360.65	0.342
1369.49	0.224
1378.34	0.176
1387.18	0.41
1396.02	0.617
1404.86	0.655
1413.71	0.629
1422.55	0.666
1431.39	0.621
1440.24	0.606
1449.08	0.639
1457.92	0.661
1466.77	0.648
1475.61	0.724
1484.45	0.716
1493.29	0.4729
1502.14	0.462
1510.98	0.4729
1519.82	0.168
1528.67	0.439
1537.51	0.758
1546.35	0.82
1555.2	0.827
1564.04	0.818
1572.88	0.796
1581.73	0.72
1590.57	0.409
1599.41	0.2631
1608.25	0.6869
1617.1	0.658
1625.94	0.863
1634.78	0.866
1643.63	0.848
1652.47	0.827
1661.31	0.815
1670.16	0.807
1679	0.796
1687.84	0.768
1696.68	0.713
1705.53	0.629
1714.37	0.528
1723.21	0.435
1732.06	0.247
1740.9	0.05
1749.74	0.027
1758.59	0.046
1767.43	0.205
1776.27	0.552
1785.12	0.72
1793.96	0.805
1802.8	0.836
1811.64	0.877
1820.49	0.9
1829.33	0.922
1838.17	0.935
1847.02	0.939
1855.86	0.949
1864.7	0.96
1873.55	0.964
1882.39	0.968
1891.23	0.968
1900.07	0.966
1908.92	0.961
1917.76	0.953
1926.6	0.953
1935.45	0.961
1944.29	0.965
1953.13	0.965
1961.98	0.965
1970.82	0.965
1979.66	0.964
1988.51	0.962
1997.35	0.965
2006.19	0.966
2015.03	0.966
2023.88	0.971
2032.72	0.972
2041.56	0.9715
2050.41	0.968
2059.25	0.965
2068.09	0.961
2076.94	0.9574
2085.78	0.953
2094.62	0.9448
2103.46	0.9384
2112.31	0.933
2121.15	0.9298
2129.99	0.928
2138.84	0.926
2147.68	0.928
2156.52	0.926
2165.37	0.925
2174.21	0.9203
2183.05	0.913
2191.9	0.9116
2200.74	0.911
2209.58	0.911
2218.42	0.9093
2227.27	0.906
2236.11	0.902
2244.95	0.8965
2253.8	0.8912
2262.64	0.887
2271.48	0.8817
2280.33	0.877
2289.17	0.8706
2298.01	0.87
2306.85	0.869
2315.7	0.869
2324.54	0.87
2333.38	0.871
2342.23	0.873
2351.07	0.874
2359.91	0.876
2368.76	0.8797
2377.6	0.885
2386.44	0.8784
2395.29	0.871
2404.13	0.87
2412.97	0.87
2421.81	0.869
2430.66	0.867
2439.5	0.8651
2448.34	0.862
2457.19	0.859
2466.03	0.8619
2474.87	0.867
2483.72	0.869
2492.56	0.871
2501.4	0.874
2510.24	0.876
2519.09	0.881
2527.93	0.884
2536.77	0.888
2545.62	0.888
2554.46	0.887
2563.3	0.885
2572.15	0.884
2580.99	0.8819
2589.83	0.878
2598.67	0.877
2607.52	0.877
2616.36	0.8758
2625.2	0.871
2634.05	0.871
2642.89	0.87
2651.73	0.869
2660.58	0.869
2669.42	0.8687
2678.26	0.867
2687.11	0.866
2695.95	0.866
2704.79	0.8646
2713.63	0.862
2722.48	0.859
2731.32	0.859
2740.16	0.858
2749.01	0.856
2757.85	0.853
2766.69	0.853
2775.54	0.853
2784.38	0.853
2793.22	0.852
2802.06	0.8504
2810.91	0.8483
2819.75	0.848
2828.59	0.8413
2837.44	0.836
2846.28	0.8116
2855.12	0.8154
2863.97	0.8207
2872.81	0.825
2881.65	0.8226
2890.5	0.8152
2899.34	0.8076
2908.18	0.798
2917.02	0.7952
2925.87	0.7847
2934.71	0.7575
2943.55	0.7385
2952.4	0.745
2961.24	0.7282
2970.08	0.7006
2978.93	0.6874
2987.77	0.7045
2996.61	0.7385
3005.45	0.7561
3014.3	0.7706
3023.14	0.778
3031.98	0.7811
3040.83	0.7855
3049.67	0.786
3058.51	0.786
3067.36	0.7838
3076.2	0.7772
3085.04	0.7616
3093.89	0.7588
3102.73	0.7756
3111.57	0.7721
3120.41	0.7524
3129.26	0.7828
3138.1	0.7936
3146.94	0.7967
3155.79	0.797
3164.63	0.797
3173.47	0.797
3182.32	0.796
3191.16	0.794
3200	0.794
3208.84	0.793
3217.69	0.793
3226.53	0.793
3235.37	0.793
3244.22	0.793
3253.06	0.793
3261.9	0.792
3270.75	0.7892
3279.59	0.787
3288.43	0.787
3297.28	0.786
3306.12	0.783
3314.96	0.782
3323.8	0.78
3332.65	0.778
3341.49	0.7751
3350.33	0.775
3359.18	0.774
3368.02	0.772
3376.86	0.7681
3385.71	0.767
3394.55	0.765
3403.39	0.7652
3412.23	0.764
3421.08	0.7611
3429.92	0.7581
3438.76	0.7541
3447.61	0.753
3456.45	0.7471
3465.29	0.742
3474.14	0.734
3482.98	0.724
3491.82	0.724
3500.67	0.734
3509.51	0.738
3518.35	0.742
3527.19	0.742
3536.04	0.742
3544.88	0.742
3553.72	0.742
3562.57	0.741
3571.41	0.739
3580.25	0.738
3589.1	0.7359
3597.94	0.735
3606.78	0.735
3615.62	0.735
3624.47	0.735
3633.31	0.7317
3642.15	0.728
3651	0.727
3659.84	0.727
3668.68	0.725
3677.53	0.725
3686.37	0.725
3695.21	0.727
3704.06	0.727
3712.9	0.727
3721.74	0.727
3730.58	0.7265
3739.43	0.725
3748.27	0.724
3757.11	0.724
3765.96	0.7197
3774.8	0.7137
3783.64	0.71
3792.49	0.712
3801.33	0.713
