Infrared Spectrum: Disperse red 1
Formula: C 16 H 18 N 4 O 3
CAS: 2872-52-8
State: solid
Instrument: Bruker Tensor 37 FTIR
Resolution: 0.96450084
Origin: Pacific Northwest National Laboratory Under IARPA Contract
1/cm	Reflectance
7498.99	0.836465
7481.63	0.842491
7464.27	0.835925
7446.91	0.833398
7429.55	0.823652
7412.19	0.81416
7394.84	0.812157
7377.48	0.802499
7360.12	0.808726
7342.76	0.807613
7325.4	0.806746
7308.04	0.802914
7290.68	0.807011
7273.32	0.807499
7255.96	0.806816
7238.6	0.807089
7221.24	0.811501
7203.88	0.802948
7186.52	0.802315
7169.16	0.794829
7151.8	0.792871
7134.44	0.788551
7117.08	0.781017
7099.72	0.775603
7082.36	0.770018
7065	0.769383
7047.64	0.760318
7030.28	0.758202
7012.92	0.753413
6995.56	0.754744
6978.2	0.749307
6960.84	0.743572
6943.48	0.739582
6926.12	0.735847
6908.76	0.733523
6891.4	0.731282
6874.04	0.730843
6856.68	0.738756
6839.32	0.734966
6821.96	0.727191
6804.6	0.729237
6787.24	0.712148
6769.88	0.664915
6752.52	0.673032
6735.16	0.673799
6717.8	0.67947
6700.44	0.679824
6683.08	0.699165
6665.72	0.700716
6648.36	0.700481
6631	0.690477
6613.64	0.709807
6596.28	0.72452
6578.92	0.726353
6561.56	0.733506
6544.2	0.744177
6526.85	0.748365
6509.49	0.756573
6492.13	0.759007
6474.77	0.764168
6457.41	0.771033
6440.05	0.773312
6422.69	0.776164
6405.33	0.77874
6387.97	0.782362
6370.61	0.78207
6353.25	0.780912
6335.89	0.779541
6318.53	0.779576
6301.17	0.761926
6283.81	0.766809
6266.45	0.771946
6249.09	0.760606
6231.73	0.753853
6214.37	0.745057
6197.01	0.729312
6179.65	0.706732
6162.29	0.685744
6144.93	0.659633
6127.57	0.642055
6110.21	0.62455
6092.85	0.558618
6075.49	0.587574
6058.13	0.574975
6040.77	0.589085
6023.41	0.566158
6006.05	0.597463
5988.69	0.576488
5971.33	0.535238
5953.97	0.478842
5936.61	0.485373
5919.25	0.481285
5901.89	0.506762
5884.53	0.525913
5867.17	0.531306
5849.81	0.537331
5832.45	0.5209
5815.09	0.541298
5797.73	0.505728
5780.37	0.427936
5763.01	0.480872
5745.65	0.48528
5728.29	0.512484
5710.93	0.526486
5693.57	0.547178
5676.21	0.587662
5658.86	0.590734
5641.5	0.587881
5624.14	0.567176
5606.78	0.542201
5589.42	0.555473
5572.06	0.529568
5554.7	0.492705
5537.34	0.40761
5519.98	0.339018
5502.62	0.26153
5485.26	0.195056
5467.9	0.14353
5450.54	0.100101
5433.18	0.0691574
5415.82	0.0527159
5398.46	0.04747
5381.1	0.0513424
5363.74	0.0664819
5346.38	0.0911031
5329.02	0.122807
5311.66	0.150622
5294.3	0.157542
5276.94	0.187956
5259.58	0.191576
5242.22	0.0945767
5224.86	0.102972
5207.5	0.0980973
5190.14	0.0987475
5172.78	0.154168
5155.42	0.195733
5138.06	0.233701
5120.7	0.239429
5103.34	0.239456
5085.98	0.218342
5068.62	0.226937
5051.26	0.268712
5033.9	0.299482
5016.54	0.285874
4999.18	0.276731
4981.82	0.291777
4964.46	0.242767
4947.1	0.315233
4929.74	0.371994
4912.38	0.371603
4895.02	0.36111
4877.66	0.29458
4860.3	0.364244
4842.94	0.361602
4825.58	0.413688
4808.22	0.397721
4790.86	0.372483
4773.51	0.409535
4756.15	0.398113
4738.79	0.373794
4721.43	0.265254
4704.07	0.285062
4686.71	0.375523
4669.35	0.378482
4651.99	0.357452
4634.63	0.323984
4617.27	0.29222
4599.91	0.23314
4582.55	0.199974
4565.19	0.101589
4547.83	0.0319522
4530.47	0.0588558
4513.11	0.0336503
4495.75	0.0796892
4478.39	0.0654137
4461.03	0.049293
4443.67	0.0304932
4426.31	0.0347663
4408.95	0.0375883
4391.59	0.0605062
4374.23	0.0688475
4356.87	0.105548
4339.51	0.0550437
4322.15	0.0293193
4304.79	0.0336414
4287.43	0.0460496
4270.07	0.0428115
4252.71	0.0795933
4235.35	0.18643
4217.99	0.150911
4200.63	0.199957
4183.27	0.0360669
4165.91	0.0374496
4148.55	0.115266
4131.19	0.109085
4113.83	0.0592559
4096.47	0.0481268
4079.11	0.0900558
4061.75	0.0778766
4044.39	0.842645
4027.03	0.840758
4009.67	0.835842
3992.31	0.823472
3974.95	0.819942
3957.59	0.809519
3940.23	0.803934
3922.87	0.804479
3905.52	0.802701
3888.16	0.800428
3870.8	0.802966
3853.44	0.797293
3836.08	0.803905
3818.72	0.804096
3801.36	0.804068
3784	0.802572
3766.64	0.803026
3749.28	0.795173
3731.92	0.792869
3714.56	0.788355
3697.2	0.780993
3679.84	0.77837
3662.48	0.770297
3645.12	0.765672
3627.76	0.759787
3610.4	0.759503
3593.04	0.749021
3575.68	0.751054
3558.32	0.746836
3540.96	0.742486
3523.6	0.739626
3506.24	0.731703
3488.88	0.726524
3471.52	0.726742
3454.16	0.720777
3436.8	0.718834
3419.44	0.718851
3402.08	0.725633
3384.72	0.719937
3367.36	0.717103
3350	0.71438
3332.64	0.690872
3315.28	0.634228
3297.92	0.661384
3280.56	0.658803
3263.2	0.666704
3245.84	0.662484
3228.48	0.689753
3211.12	0.689492
3193.76	0.683403
3176.4	0.678361
3159.04	0.702264
3141.68	0.713573
3124.32	0.716944
3106.96	0.723492
3089.6	0.730627
3072.24	0.739054
3054.88	0.74426
3037.53	0.747895
3020.17	0.756857
3002.81	0.761922
2985.45	0.764047
2968.09	0.767013
2950.73	0.769491
2933.37	0.774041
2916.01	0.772129
2898.65	0.771074
2881.29	0.769552
2863.93	0.767465
2846.57	0.752728
2829.21	0.760362
2811.85	0.758107
2794.49	0.750397
2777.13	0.738723
2759.77	0.728315
2742.41	0.710835
2725.05	0.68593
2707.69	0.664929
2690.33	0.638202
2672.97	0.622285
2655.61	0.590693
2638.25	0.502865
2620.89	0.577959
2603.53	0.570197
2586.17	0.575655
2568.81	0.57404
2551.45	0.564684
2534.09	0.557792
2516.73	0.501363
2499.37	0.456359
2482.01	0.476656
2464.65	0.466465
2447.29	0.503833
2429.93	0.499478
2412.57	0.518456
2395.21	0.518287
2377.85	0.520054
2360.49	0.51803
2343.13	0.467856
2325.77	0.425906
2308.41	0.474506
2291.05	0.482791
2273.69	0.502298
2256.33	0.517155
2238.97	0.550597
2221.61	0.581255
2204.25	0.580867
2186.89	0.570932
2169.53	0.557294
2152.18	0.555717
2134.82	0.543329
2117.46	0.520456
2100.1	0.461836
2082.74	0.377375
2065.38	0.306456
2048.02	0.230886
2030.66	0.172746
2013.3	0.125726
1995.94	0.0863855
1978.58	0.0614241
1961.22	0.0490349
1943.86	0.0467966
1926.5	0.0536096
1909.14	0.0711885
1891.78	0.0974117
1874.42	0.130044
1857.06	0.147851
1839.7	0.159002
1822.34	0.188603
1804.98	0.165445
1787.62	0.0797123
1770.26	0.0935852
1752.9	0.0873832
1735.54	0.107142
1718.18	0.154135
1700.82	0.203576
1683.46	0.237594
1666.1	0.23013
1648.74	0.230586
1631.38	0.208627
1614.02	0.239953
1596.66	0.262517
1579.3	0.294362
1561.94	0.253796
1544.58	0.278488
1527.22	0.266365
1509.86	0.266318
1492.5	0.335397
1475.14	0.371569
1457.78	0.363553
1440.42	0.29573
1423.06	0.304145
1405.7	0.324959
1388.34	0.383513
1370.98	0.384112
1353.62	0.397238
1336.26	0.353373
1318.9	0.421041
1301.54	0.374589
1284.19	0.36005
1266.83	0.262729
1249.47	0.320137
1232.11	0.367861
1214.75	0.363189
1197.39	0.346001
1180.03	0.309269
1162.67	0.288994
1145.31	0.213842
1127.95	0.179015
1110.59	0.0592456
1093.23	0.0381923
1075.87	0.0742116
1058.51	0.0267552
1041.15	0.0801428
1023.79	0.0493398
1006.43	0.0497009
989.068	0.0331825
971.709	0.030495
954.349	0.0489647
936.989	0.0508569
919.629	0.106239
902.269	0.10317
884.91	0.061643
867.55	0.0403939
850.19	0.0523633
832.83	0.0377885
815.47	0.0918305
798.111	0.0729651
780.751	0.146629
763.391	0.116482
746.031	0.209208
728.671	0.0410847
711.312	0.0398451
693.952	0.107988
676.592	0.0873589
659.232	0.0875123
641.872	0.0769581
624.513	0.0867097
607.153	0.0850058
