Infrared Spectrum: 1,4-Diamino-2-methoxyanthraquinone
Formula: C15 H12 N2 O3
CAS: 2872-48-2
State: SOLID (SPLIT MULL), FLUOROLUBE FOR 3800-1330 CM^-^1, NUJOL FOR 1330-450 CM^-^1
Melting point: 231 C
Class: COBLENTZ III
Instrument: DOW KBr FOREPRISM-GRATING
Instrument parameters: BLAZED AT 3.5, 12.0, 20.0 MICRON AND CHANGED AT 5.0, 7.5, 14.9 MICRON
Sampling: TRANSMISSION
Resolution: 2
Origin: DOW CHEMICAL COMPANY
1/CM	TRANSMITTANCE
451	0.6443
460	0.6571
469	0.6528
478	0.6378
487	0.6096
496	0.5884
505	0.5979
514	0.5578
523	0.613
532	0.619
541	0.6025
550	0.6375
559	0.6406
568	0.6336
577	0.6321
586	0.6224
595	0.6026
604	0.6903
613	0.7253
622	0.7419
631	0.7442
640	0.6833
649	0.6512
658	0.7404
667	0.7574
676	0.7026
685	0.636
694	0.6571
703	0.7222
712	0.7049
721	0.6139
730	0.507
739	0.5165
748	0.6242
757	0.7796
766	0.7885
775	0.7894
784	0.7881
793	0.7461
802	0.7671
811	0.7715
820	0.7943
829	0.785
838	0.7414
847	0.6738
856	0.7328
865	0.7661
874	0.7624
883	0.7119
892	0.7492
901	0.7428
910	0.7305
919	0.7038
928	0.6562
937	0.5291
946	0.6287
955	0.6919
964	0.6865
973	0.6399
982	0.648
991	0.466
1000	0.6501
1009	0.6414
1018	0.6189
1027	0.591
1036	0.5953
1045	0.6062
1054	0.5931
1063	0.5756
1072	0.5545
1081	0.5646
1090	0.5276
1099	0.5443
1108	0.5271
1117	0.5243
1126	0.525
1135	0.5415
1144	0.5391
1153	0.4525
1162	0.3442
1171	0.4979
1180	0.4755
1189	0.5375
1198	0.5294
1207	0.4409
1216	0.2102
1225	0.3462
1234	0.3594
1243	0.3246
1252	0.2587
1261	0.2062
1270	0.1469
1279	0.0933
1288	0.0801
1297	0.1324
1306	0.1046
1315	0.3864
1324	0.4946
1333	0.5789
1342	0.5792
1351	0.6149
1360	0.6008
1369	0.5917
1378	0.5557
1387	0.4809
1396	0.4142
1405	0.3566
1414	0.3928
1423	0.4482
1432	0.4014
1441	0.3339
1450	0.127
1459	0.1376
1468	0.3859
1477	0.5053
1486	0.5977
1495	0.5573
1504	0.4835
1513	0.3354
1522	0.2547
1531	0.1915
1540	0.2491
1549	0.3808
1558	0.2703
1567	0.1076
1576	0.1505
1585	0.2663
1594	0.3878
1603	0.307
1612	0.3677
1621	0.559
1630	0.7057
1639	0.7319
1648	0.7808
1657	0.8516
1666	0.8554
1675	0.858
1684	0.8527
1693	0.8475
1702	0.837
1711	0.8396
1720	0.8368
1729	0.8308
1738	0.8227
1747	0.8158
1756	0.8092
1765	0.8038
1774	0.7986
1783	0.7936
1792	0.788
1801	0.7814
1810	0.7828
1819	0.7815
1828	0.7758
1837	0.7712
1846	0.7671
1855	0.7621
1864	0.7564
1873	0.7488
1882	0.746
1891	0.7439
1900	0.7408
1909	0.7367
1918	0.7308
1927	0.7242
1936	0.718
1945	0.7105
1954	0.7051
1963	0.7038
1972	0.6975
1981	0.6992
1990	0.6951
1999	0.7101
2008	0.7128
2017	0.7061
2026	0.6997
2035	0.6947
2044	0.6903
2053	0.6868
2062	0.6832
2071	0.6793
2080	0.6748
2089	0.6701
2098	0.6654
2107	0.6605
2116	0.6551
2125	0.6498
2134	0.6443
2143	0.6387
2152	0.6332
2161	0.6277
2170	0.6222
2179	0.6167
2188	0.611
2197	0.6054
2206	0.5997
2215	0.5943
2224	0.5891
2233	0.5839
2242	0.5787
2251	0.5735
2260	0.5683
2269	0.5631
2278	0.5582
2287	0.5537
2296	0.5493
2305	0.5451
2314	0.5432
2323	0.5405
2332	0.5371
2341	0.5344
2350	0.5319
2359	0.5292
2368	0.5271
2377	0.5248
2386	0.522
2395	0.5191
2404	0.516
2413	0.513
2422	0.5099
2431	0.5069
2440	0.504
2449	0.501
2458	0.4976
2467	0.4936
2476	0.4897
2485	0.4857
2494	0.4818
2503	0.478
2512	0.4742
2521	0.4703
2530	0.4665
2539	0.4627
2548	0.459
2557	0.4553
2566	0.4515
2575	0.4478
2584	0.4443
2593	0.441
2602	0.4377
2611	0.4344
2620	0.4315
2629	0.4284
2638	0.4255
2647	0.4224
2656	0.4195
2665	0.4159
2674	0.4119
2683	0.4079
2692	0.4039
2701	0.4
2710	0.3966
2719	0.393
2728	0.3898
2737	0.3862
2746	0.3829
2755	0.3793
2764	0.3757
2773	0.3716
2782	0.367
2791	0.3624
2800	0.3584
2809	0.3544
2818	0.3505
2827	0.3464
2836	0.3423
2845	0.338
2854	0.3352
2863	0.3325
2872	0.328
2881	0.3214
2890	0.3143
2899	0.307
2908	0.2925
2917	0.2849
2926	0.2884
2935	0.2961
2944	0.2961
2953	0.2888
2962	0.2738
2971	0.2824
2980	0.2966
2989	0.2943
2998	0.2884
3007	0.2824
3016	0.2767
3025	0.2711
3034	0.2664
3043	0.262
3052	0.2595
3061	0.2534
3070	0.2503
3079	0.256
3088	0.2541
3097	0.2483
3106	0.2427
3115	0.2374
3124	0.2325
3133	0.2275
3142	0.2226
3151	0.2176
3160	0.2144
3169	0.2172
3178	0.2172
3187	0.2115
3196	0.2082
3205	0.2007
3214	0.191
3223	0.1794
3232	0.167
3241	0.1572
3250	0.1534
3259	0.1588
3268	0.1742
3277	0.1874
3286	0.2042
3295	0.2064
3304	0.2035
3313	0.1978
3322	0.1894
3331	0.1777
3340	0.167
3349	0.1575
3358	0.1511
3367	0.1464
3376	0.1387
3385	0.1248
3394	0.1331
3403	0.1609
3412	0.1753
3421	0.1896
3430	0.2173
3439	0.244
3448	0.2539
3457	0.2583
3466	0.26
3475	0.2602
3484	0.2584
3493	0.256
3502	0.2526
3511	0.2482
3520	0.2448
3529	0.2417
3538	0.2387
3547	0.2362
3556	0.2338
3565	0.2313
3574	0.2291
3583	0.2268
3592	0.2247
3601	0.2224
3610	0.2202
3619	0.2192
3628	0.2191
3637	0.2189
3646	0.2177
3655	0.2163
3664	0.2143
3673	0.2124
3682	0.2105
3691	0.2085
3700	0.207
3709	0.2055
3718	0.2042
3727	0.2028
3736	0.2016
3745	0.2003
3754	0.1993
3763	0.1972
3772	0.1952
3781	0.1931
