Infrared Spectrum: 2-Bromo-5-chlorothiophene
Formula: C 4 H 2 Br Cl S
CAS: 2873-18-9
State: gas
Origin: EPA-IR VAPOR PHASE LIBRARY
1/CM	ABSORBANCE
549.8	0.000312
559.445	0.0008115
569.09	0.000587
578.734	0.0009398
588.379	0.000398
598.024	8.7e-05
607.669	0.000158
617.313	0.0008802
626.958	0.002142
636.603	0.002212
646.248	0.0014259
655.893	0.001762
665.537	0.001712
675.182	0.0011783
684.827	0.00066414
694.472	0.000529
704.116	0.0009525
713.761	0.004092
723.406	0.006002
733.051	0.003062
742.695	0.0015659
752.34	0.003672
761.985	0.012472
771.63	0.034202
781.275	0.054932
790.919	0.047592
800.564	0.027362
810.209	0.007362
819.854	0.001692
829.498	0.001062
839.143	0.0009839
848.788	0.0012284
858.433	0.0009811
868.078	0.0007949
877.722	0.0010594
887.367	0.0009596
897.012	0.0007347
906.657	0.0008587
916.301	0.0011275
925.946	0.002212
935.591	0.004912
945.236	0.010152
954.88	0.015022
964.525	0.016522
974.17	0.012172
983.815	0.009802
993.46	0.022022
1003.1	0.079372
1012.75	0.162942
1022.39	0.076032
1032.04	0.019442
1041.68	0.017342
1051.33	0.009252
1060.97	0.016722
1070.62	0.010212
1080.26	0.0013616
1089.91	0.0005718
1099.55	0.000489
1109.2	0.00022
1118.84	0.000397
1128.49	0.000808
1138.13	0.0008308
1147.78	0.0003
1157.42	0.0008907
1167.07	0.000371
1176.71	0.000347
1186.36	0.0009352
1196	0.004682
1205.64	0.017392
1215.29	0.008602
1224.93	0.0008093
1234.58	0.0010113
1244.22	0.0014784
1253.87	0.001642
1263.51	0.0010683
1273.16	0.00070688
1282.8	0.0008539
1292.45	0.0010351
1302.09	0.0010332
1311.74	0.00106
1321.38	0.0008779
1331.03	0.0007561
1340.67	0.0007419
1350.32	0.0008075
1359.96	0.0009061
1369.61	0.0012931
1379.25	0.002452
1388.9	0.005552
1398.54	0.012612
1408.18	0.024652
1417.83	0.032402
1427.47	0.028562
1437.12	0.012422
1446.76	0.003662
1456.41	0.001702
1466.05	0.0011763
1475.7	0.0013803
1485.34	0.001912
1494.99	0.003062
1504.63	0.006392
1514.28	0.019772
1523.92	0.044552
1533.57	0.026432
1543.21	0.003382
1552.86	0.003652
1562.5	0.004972
1572.15	0.004722
1581.79	0.002742
1591.44	0.0013666
1601.08	0.0008079
1610.73	0.00069685
1620.37	0.000863
1630.01	0.0012251
1639.66	0.001662
1649.3	0.0011903
1658.95	0.0007797
1668.59	0.000958
1678.24	0.0010436
1687.88	0.0012391
1697.53	0.002082
1707.17	0.003562
1716.82	0.005162
1726.46	0.004982
1736.11	0.003012
1745.75	0.0013867
1755.4	0.0009073
1765.04	0.0008229
1774.69	0.001
1784.33	0.0011853
1793.98	0.0012277
1803.62	0.0008486
1813.27	0.00070821
1822.91	0.00070408
1832.55	0.0005371
1842.2	0.00062404
1851.84	0.0006183
1861.49	0.0007333
1871.13	0.00068368
1880.78	0.0008145
1890.42	0.0010684
1900.07	0.0011731
1909.71	0.0010352
1919.36	0.00070733
1929	0.00066827
1938.65	0.0007342
1948.29	0.00068205
1957.94	0.00071496
1967.58	0.0008362
1977.23	0.0007624
1986.87	0.00072617
1996.52	0.0007371
2006.16	0.0009226
2015.81	0.0009606
2025.45	0.0009013
2035.1	0.0008907
2044.74	0.0007626
2054.38	0.0008809
2064.03	0.000972
2073.67	0.0010904
2083.32	0.0008626
2092.96	0.0008352
2102.61	0.0007694
2112.25	0.0008296
2121.9	0.0010159
2131.54	0.0009447
2141.19	0.0008524
2150.83	0.0008908
2160.48	0.0007691
2170.12	0.00073039
2179.77	0.00068119
2189.41	0.0006961
2199.06	0.00070372
2208.7	0.00072438
2218.35	0.00072033
2227.99	0.0008435
2237.64	0.0007386
2247.28	0.0008103
2256.92	0.000925
2266.57	0.0011393
2276.21	0.001042
2285.86	0.00071796
2295.5	0.00070808
2305.15	0.0007782
2314.79	0.0007431
2324.44	0.0008078
2334.08	0.00071423
2343.73	0.0007742
2353.37	0.00072915
2363.02	0.000815
2372.66	0.0009405
2382.31	0.0010698
2391.95	0.0010825
2401.6	0.0011483
2411.24	0.0012223
2420.89	0.0012492
2430.53	0.0011949
2440.18	0.0009206
2449.82	0.0007793
2459.47	0.0008136
2469.11	0.0008623
2478.75	0.0010337
2488.4	0.0009609
2498.04	0.0009003
2507.69	0.0007743
2517.33	0.00073192
2526.98	0.000889
2536.62	0.0009319
2546.27	0.0008305
2555.91	0.00069031
2565.56	0.0008378
2575.2	0.0008429
2584.85	0.0008157
2594.49	0.00064232
2604.14	0.0007499
2613.78	0.0008022
2623.43	0.000812
2633.07	0.0007383
2642.72	0.00065303
2652.36	0.0008263
2662.01	0.00069065
2671.65	0.0007407
2681.29	0.00072698
2690.94	0.0008568
2700.58	0.0008708
2710.23	0.0009931
2719.87	0.0010321
2729.52	0.0008821
2739.16	0.0008135
2748.81	0.0008085
2758.45	0.00067969
2768.1	0.0008093
2777.74	0.00069781
2787.39	0.0007853
2797.03	0.0009469
2806.68	0.0010568
2816.32	0.0011242
2825.97	0.0010034
2835.61	0.0012001
2845.26	0.000912
2854.9	0.00072491
2864.55	0.00069025
2874.19	0.00074
2883.84	0.00070642
2893.48	0.0006139
2903.12	0.0006799
2912.77	0.0008791
2922.41	0.0007795
2932.06	0.0008623
2941.7	0.000755
2951.35	0.00071495
2960.99	0.0006201
2970.64	0.00065083
2980.28	0.00068361
2989.93	0.0007439
2999.57	0.0008544
3009.22	0.00067353
3018.86	0.0007559
3028.51	0.0008441
3038.15	0.000922
3047.8	0.0009575
3057.44	0.0008152
3067.09	0.0008163
3076.73	0.0009512
3086.38	0.001762
3096.02	0.002082
3105.67	0.0014966
3115.31	0.0007647
3124.95	0.0006009
3134.6	0.00072168
3144.24	0.00071744
3153.89	0.0005681
3163.53	0.0007867
3173.18	0.0006051
3182.82	0.0008527
3192.47	0.0007466
3202.11	0.0005981
3211.76	0.000486
3221.4	0.00063571
3231.05	0.000492
3240.69	0.0006079
3250.34	0.00066399
3259.98	0.00070331
3269.63	0.0007657
3279.27	0.000531
3288.92	0.00067013
3298.56	0.0007602
3308.21	0.000486
3317.85	0.0005431
3327.49	0.0006035
3337.14	0.0006082
3346.78	0.00053
3356.43	0.0005802
3366.07	0.00070734
3375.72	0.00068895
3385.36	0.0006182
3395.01	0.0007449
3404.65	0.00049
3414.3	0.00044
3423.94	0.000518
3433.59	0.0005597
3443.23	0.00068739
3452.88	0.00069089
3462.52	0.000392
3472.17	0.000641287
3481.81	0.000619
3491.46	0.000483
3501.1	0.000513
3510.75	0.000526
3520.39	0.0007389
3530.04	0.000463
3539.68	0.0007442
3549.32	0.000498
3558.97	0.0005674
3568.61	0.00069584
3578.26	0.000448
3587.9	0.00073071
3597.55	0.00064279
3607.19	0.000531
3616.84	0.000489
3626.48	0.000489
3636.13	0.00072515
3645.77	0.0005767
3655.42	0.000347
3665.06	0.0005888
3674.71	0.00067772
3684.35	0.000392
3694	0.000640019
3703.64	0.000524
3713.29	0.0006211
3722.93	0.0005861
3732.58	0.00072584
3742.22	0.0008055
3751.86	0.00071913
3761.51	0.00071914
3771.15	0.0008553
3780.8	0.000484
3790.44	0.000469
3800.09	0.0005454
3809.73	0.0007542
3819.38	0.0008598
3829.02	0.0010998
3838.67	0.0009875
3848.31	0.00069093
3857.96	0.00065325
3867.6	0.0008258
3877.25	0.000359
3886.89	0.0005777
3896.54	0.00065134
3906.18	0.000434
3915.83	0.000386
3925.47	0.000519
3935.12	0.00063305
3944.76	0.00068283
3954.41	0.000475
3964.05	0.00068744
3973.69	0.00064909
3983.34	0.000183
3992.98	0.00035
