Infrared Spectrum: p-Diethylaminobenzonitrile
Formula: C 11 H 14 N 2
CAS: 2873-90-7
State: gas
Origin: EPA-IR VAPOR PHASE LIBRARY
1/CM	ABSORBANCE
501.5	0.002506
513.074	0.003716
524.648	0.005306
536.222	0.007586
547.796	0.008266
559.37	0.005326
570.944	0.003256
582.518	0.002606
594.092	0.002256
605.666	0.001856
617.24	0.001796
628.814	0.003146
640.388	0.004516
651.962	0.002416
663.536	0.001486
675.11	0.0010738
686.684	0.0009289
698.258	0.0008617
709.832	0.0009968
721.406	0.0010254
732.98	0.0011687
744.554	0.001526
756.128	0.002556
767.702	0.005866
779.276	0.006266
790.85	0.007266
802.423	0.013716
813.997	0.027366
825.571	0.021236
837.145	0.007146
848.719	0.003046
860.293	0.001916
871.867	0.001506
883.441	0.001466
895.015	0.002066
906.589	0.001856
918.163	0.001556
929.737	0.001836
941.311	0.001966
952.885	0.001646
964.459	0.001686
976.033	0.001956
987.607	0.002856
999.181	0.005636
1010.76	0.010426
1022.33	0.007906
1033.9	0.005526
1045.48	0.005476
1057.05	0.007576
1068.63	0.012076
1080.2	0.013156
1091.77	0.010606
1103.35	0.010016
1114.92	0.008496
1126.49	0.009746
1138.07	0.019546
1149.64	0.033216
1161.22	0.020576
1172.79	0.023686
1184.36	0.041276
1195.94	0.028046
1207.51	0.013846
1219.09	0.008446
1230.66	0.008856
1242.23	0.013596
1253.81	0.030736
1265.38	0.053266
1276.96	0.035216
1288.53	0.016066
1300.1	0.011406
1311.68	0.011806
1323.25	0.014606
1334.83	0.022456
1346.4	0.038536
1357.97	0.049456
1369.55	0.034396
1381.12	0.039446
1392.7	0.034386
1404.27	0.022526
1415.84	0.012196
1427.42	0.007986
1438.99	0.006846
1450.57	0.008486
1462.14	0.011186
1473.71	0.013306
1485.29	0.014306
1496.86	0.024276
1508.44	0.083006
1520.01	0.114716
1531.58	0.034226
1543.16	0.014946
1554.73	0.012196
1566.31	0.012746
1577.88	0.015196
1589.45	0.032206
1601.03	0.086176
1612.6	0.102526
1624.18	0.029746
1635.75	0.013296
1647.32	0.008376
1658.9	0.005316
1670.47	0.004026
1682.05	0.003276
1693.62	0.003076
1705.19	0.003956
1716.77	0.003396
1728.34	0.001976
1739.92	0.002006
1751.49	0.001896
1763.06	0.001406
1774.64	0.001336
1786.21	0.001406
1797.79	0.0011918
1809.36	0.0010084
1820.93	0.0010046
1832.51	0.0009274
1844.08	0.0008594
1855.66	0.0009863
1867.23	0.001536
1878.8	0.002476
1890.38	0.002516
1901.95	0.001926
1913.53	0.001456
1925.1	0.0010873
1936.67	0.0008955
1948.25	0.0008844
1959.82	0.0008358
1971.4	0.0007373
1982.97	0.0007867
1994.54	0.0007832
2006.12	0.0008392
2017.69	0.0010184
2029.27	0.0009682
2040.84	0.0008632
2052.41	0.0006581
2063.99	0.0006077
2075.56	0.0005842
2087.14	0.0005606
2098.71	0.0005097
2110.28	0.0005091
2121.86	0.0005095
2133.43	0.0005097
2145.01	0.0007095
2156.58	0.000853
2168.15	0.0010244
2179.73	0.0011164
2191.3	0.001366
2202.88	0.002816
2214.45	0.012996
2226.02	0.036536
2237.6	0.012076
2249.17	0.001786
2260.74	0.0008931
2272.32	0.0007362
2283.89	0.0007036
2295.47	0.0006763
2307.04	0.0006858
2318.61	0.0006528
2330.19	0.0005687
2341.76	0.0006202
2353.34	0.0007609
2364.91	0.001003
2376.48	0.0010802
2388.06	0.0010668
2399.63	0.0010149
2411.21	0.0009858
2422.78	0.0008374
2434.35	0.000815
2445.93	0.0009155
2457.5	0.000936
2469.08	0.0008732
2480.65	0.0008065
2492.22	0.0009117
2503.8	0.0011662
2515.37	0.001496
2526.95	0.001926
2538.52	0.002426
2550.09	0.002336
2561.67	0.001966
2573.24	0.001826
2584.82	0.001536
2596.39	0.001396
2607.96	0.001456
2619.54	0.001396
2631.11	0.001246
2642.69	0.0011752
2654.26	0.0011854
2665.83	0.001296
2677.41	0.001436
2688.98	0.001516
2700.56	0.001506
2712.13	0.001576
2723.7	0.001706
2735.28	0.001756
2746.85	0.001846
2758.43	0.001966
2770	0.002306
2781.57	0.002926
2793.15	0.003596
2804.72	0.004366
2816.3	0.005456
2827.87	0.007066
2839.44	0.008526
2851.02	0.010206
2862.59	0.012296
2874.17	0.015976
2885.74	0.020036
2897.31	0.019406
2908.89	0.018046
2920.46	0.017736
2932.04	0.022796
2943.61	0.029726
2955.18	0.024336
2966.76	0.027956
2978.33	0.046706
2989.91	0.041496
3001.48	0.017406
3013.05	0.009036
3024.63	0.006036
3036.2	0.005196
3047.78	0.006596
3059.35	0.006686
3070.92	0.003856
3082.5	0.004156
3094.07	0.005886
3105.65	0.006416
3117.22	0.004086
3128.79	0.002396
3140.37	0.001636
3151.94	0.0011164
3163.52	0.0009143
3175.09	0.0007397
3186.66	0.0006584
3198.24	0.0006454
3209.81	0.0007059
3221.39	0.0006228
3232.96	0.0004087
3244.53	0.00025608
3256.11	0.0001916
3267.68	0.000181
3279.26	0.000106
3290.83	0.000104
3302.4	4.4e-05
3313.98	0.000107
3325.55	5.9e-05
3337.13	8.7e-05
3348.7	0.0001078
3360.27	0.0001296
3371.85	0.0002098
3383.42	0.00028888
3395	0.0004507
3406.57	0.000742
3418.14	0.0004459
3429.72	0.00026685
3441.29	0.0004344
3452.86	0.000377
3464.44	0.000214883
3476.01	8.8e-05
3487.59	0.0001282
3499.16	9.7e-05
3510.73	7.3e-05
3522.31	0.0001103
3533.88	0.0001196
3545.46	0.0001458
3557.03	3e-05
3568.6	0
3580.18	7.6e-05
3591.75	0.000104
3603.33	0.0001135
3614.9	7.2e-05
3626.47	4.3e-05
3638.05	0.0001613
3649.62	6.5e-05
3661.2	5e-05
3672.77	0.0001224
3684.34	0.0001544
3695.92	0.0001271
3707.49	0.00020211
3719.07	0.0001703
3730.64	0.0001451
3742.21	0.0002182
3753.79	0.000206666
3765.36	0.00019723
3776.94	0.00023636
3788.51	0.00019609
3800.08	0.0001767
3811.66	0.0002408
3823.23	0.0003883
3834.81	0.0005255
3846.38	0.0003284
3857.95	0.00020104
3869.53	0.0001847
3881.1	0.0001554
3892.68	0.0001686
3904.25	0.000211547
3915.82	0.0001443
3927.4	0.0001601
3938.97	0.000159
3950.55	0.0001881
3962.12	0.00025058
3973.69	0.00025005
3985.27	0.00026812
3996.84	0.00028626
