Infrared Spectrum: 2-Pyrimidinecarbamonitrile, 4-methyl-
Formula: C6 H6 N4
CAS: 28732-65-2
State: SOLID (SPLIT MULL), FLUOROLUBE FOR 3800-1330 CM^-^1, NUJOL FOR 1330-400 CM^-^1
Class: COBLENTZ III
Instrument: DOW KBr FOREPRISM-GRATING
Instrument parameters: BLAZED AT 3.5, 12.0, 20.0 MICRON AND CHANGED AT 5.0, 7.5, 14.9 MICRON
Sampling: TRANSMISSION
Resolution: 2
Origin: DOW CHEMICAL COMPANY
1/CM	TRANSMITTANCE
3800	0.6528
3791	0.6528
3782	0.6526
3773	0.6546
3764	0.6565
3755	0.6592
3746	0.6618
3737	0.6642
3728	0.6662
3719	0.6675
3710	0.6671
3701	0.6653
3692	0.6671
3683	0.67
3674	0.671
3665	0.6718
3656	0.6726
3647	0.6731
3638	0.6728
3629	0.6725
3620	0.6724
3611	0.6725
3602	0.6728
3593	0.6735
3584	0.6756
3575	0.6775
3566	0.6797
3557	0.6817
3548	0.6822
3539	0.6825
3530	0.6825
3521	0.6819
3512	0.6815
3503	0.681
3494	0.6806
3485	0.6791
3476	0.6761
3467	0.6733
3458	0.6708
3449	0.6682
3440	0.6669
3431	0.6662
3422	0.6665
3413	0.6682
3404	0.67
3395	0.6719
3386	0.6728
3377	0.6734
3368	0.674
3359	0.6744
3350	0.6743
3341	0.674
3332	0.6737
3323	0.6739
3314	0.6815
3305	0.6889
3296	0.6935
3287	0.6965
3278	0.6981
3269	0.6992
3260	0.6998
3251	0.6989
3242	0.6978
3233	0.6942
3224	0.6867
3215	0.678
3206	0.676
3197	0.6768
3188	0.6769
3179	0.6771
3170	0.6768
3161	0.6761
3152	0.6721
3143	0.6634
3134	0.651
3125	0.6252
3116	0.5934
3107	0.5829
3098	0.5736
3089	0.524
3080	0.4664
3071	0.4854
3062	0.506
3053	0.5233
3044	0.5317
3035	0.5035
3026	0.4323
3017	0.5157
3008	0.5421
2999	0.5521
2990	0.5471
2981	0.5109
2972	0.4721
2963	0.4239
2954	0.3929
2945	0.3599
2936	0.3582
2927	0.373
2918	0.3722
2909	0.3739
2900	0.3895
2891	0.4118
2882	0.4312
2873	0.4362
2864	0.4188
2855	0.3866
2846	0.365
2837	0.3608
2828	0.3764
2819	0.4007
2810	0.4268
2801	0.4514
2792	0.4764
2783	0.5017
2774	0.5278
2765	0.5438
2756	0.5579
2747	0.5656
2738	0.5687
2729	0.5712
2720	0.5754
2711	0.5799
2702	0.589
2693	0.5983
2684	0.6078
2675	0.6174
2666	0.6294
2657	0.6411
2648	0.6526
2639	0.6657
2630	0.6746
2621	0.6751
2612	0.6872
2603	0.6972
2594	0.7061
2585	0.7118
2576	0.7168
2567	0.7214
2558	0.7255
2549	0.7295
2540	0.7335
2531	0.7372
2522	0.7408
2513	0.743
2504	0.7428
2495	0.7372
2486	0.7434
2477	0.7493
2468	0.7551
2459	0.7608
2450	0.765
2441	0.765
2432	0.7658
2423	0.769
2414	0.7733
2405	0.7769
2396	0.7801
2387	0.7828
2378	0.7856
2369	0.7868
2360	0.7871
2351	0.7865
2342	0.7855
2333	0.7846
2324	0.7854
2315	0.8021
2306	0.8114
2297	0.8106
2288	0.8192
2279	0.8021
2270	0.7871
2261	0.8241
2252	0.839
2243	0.844
2234	0.8364
2225	0.7476
2216	0.5921
2207	0.4594
2198	0.4484
2189	0.4042
2180	0.1872
2171	0.0351
2162	0.1207
2153	0.2603
2144	0.4046
2135	0.496
2126	0.5599
2117	0.5715
2108	0.6488
2099	0.656
2090	0.6968
2081	0.7225
2072	0.7371
2063	0.7471
2054	0.7565
2045	0.761
2036	0.7658
2027	0.7743
2018	0.7732
2009	0.7626
2000	0.7822
1991	0.784
1982	0.7824
1973	0.7869
1964	0.7918
1955	0.8047
1946	0.8074
1937	0.8108
1928	0.8115
1919	0.809
1910	0.8068
1901	0.8088
1892	0.8151
1883	0.8264
1874	0.8348
1865	0.8401
1856	0.8428
1847	0.844
1838	0.8413
1829	0.8352
1820	0.8259
1811	0.8122
1802	0.7945
1793	0.7958
1784	0.8136
1775	0.8346
1766	0.8453
1757	0.8563
1748	0.8668
1739	0.8543
1730	0.8514
1721	0.8478
1712	0.8452
1703	0.8492
1694	0.8498
1685	0.8309
1676	0.7683
1667	0.7668
1658	0.7318
1649	0.6648
1640	0.4882
1631	0.1172
1622	0.176
1613	0.1625
1604	0.102
1595	0.0273
1586	0.0492
1577	0.0798
1568	0.1485
1559	0.2953
1550	0.371
1541	0.4178
1532	0.4529
1523	0.4486
1514	0.2939
1505	0.1859
1496	0.3054
1487	0.3894
1478	0.4506
1469	0.3356
1460	0.3396
1451	0.3576
1442	0.4529
1433	0.4674
1424	0.3849
1415	0.3544
1406	0.4808
1397	0.5392
1388	0.5754
1379	0.5928
1370	0.5056
1361	0.5762
1352	0.5967
1343	0.5846
1334	0.5944
1325	0.5951
1316	0.6034
1307	0.6054
1298	0.6269
1289	0.3195
1280	0.4962
1271	0.6245
1262	0.6106
1253	0.3184
1244	0.319
1235	0.5458
1226	0.487
1217	0.3332
1208	0.5162
1199	0.593
1190	0.6467
1181	0.668
1172	0.6783
1163	0.5691
1154	0.6461
1145	0.6912
1136	0.7111
1127	0.6615
1118	0.7275
1109	0.7344
1100	0.7499
1091	0.7558
1082	0.7595
1073	0.7642
1064	0.769
1055	0.7701
1046	0.7649
1037	0.738
1028	0.6398
1019	0.7358
1010	0.7161
1001	0.6821
992	0.7239
983	0.6426
974	0.7168
965	0.7622
956	0.7815
947	0.7865
938	0.7638
929	0.716
920	0.6717
911	0.5195
902	0.4846
893	0.6302
884	0.7401
875	0.7841
866	0.8026
857	0.8125
848	0.8162
839	0.8187
830	0.8088
821	0.2461
812	0.726
803	0.7856
794	0.8286
785	0.8424
776	0.6668
767	0.8
758	0.6914
749	0.8128
740	0.8211
731	0.8021
722	0.7845
713	0.8591
704	0.8834
695	0.8764
686	0.833
677	0.8391
668	0.8791
659	0.8848
650	0.88
641	0.8774
632	0.876
623	0.8788
614	0.8762
605	0.8828
596	0.8767
587	0.8751
578	0.8667
569	0.7517
560	0.7705
551	0.7175
542	0.8069
533	0.8302
524	0.8295
515	0.85
506	0.8468
497	0.8278
488	0.8417
479	0.8431
470	0.8275
461	0.5317
452	0.7901
443	0.7984
434	0.7893
425	0.7635
416	0.7593
407	0.7505
398	0.7388
389	0.726
