Infrared Spectrum: 2-BENZOTHIAZOLOXY ACETIC ACID
Formula: C9 H7 N O3 S
CAS: 2875-32-3
State: SOLID (MINERAL OIL MULL)
Class: COBLENTZ
Instrument: Not specified, most likely a prism, grating, or hybrid spectrometer.
Sampling: TRANSMISSION
Resolution: 4
Origin: DOW CHEMICAL COMPANY
MICROMETERS	TRANSMITTANCE
2.021	0.537
2.06228	0.549
2.10356	0.551
2.14483	0.565
2.18611	0.57
2.22739	0.572
2.26867	0.568
2.30994	0.577
2.35122	0.587
2.3925	0.594
2.43378	0.603
2.47505	0.621
2.51633	0.628
2.55761	0.637
2.59889	0.639
2.64017	0.644
2.68144	0.651
2.72272	0.654
2.764	0.656
2.80528	0.659
2.84655	0.664
2.88783	0.666
2.92911	0.671
2.97039	0.671
3.01166	0.67
3.05294	0.659
3.09422	0.632
3.1355	0.594
3.17678	0.582
3.21805	0.56
3.25933	0.52
3.30061	0.474
3.34189	0.381
3.38316	0.166
3.42444	0.12
3.46572	0.207
3.507	0.326
3.54827	0.465
3.58955	0.494
3.63083	0.529
3.67211	0.565
3.71338	0.587
3.75466	0.577
3.79594	0.527
3.83722	0.513
3.8785	0.575
3.91977	0.637
3.96105	0.649
4.00233	0.62
4.04361	0.682
4.08488	0.719
4.12616	0.74
4.16744	0.752
4.20872	0.761
4.24999	0.776
4.29127	0.8
4.33255	0.805
4.37383	0.817
4.41511	0.823
4.45638	0.829
4.49766	0.829
4.53894	0.84
4.58022	0.848
4.62149	0.853
4.66277	0.852
4.70405	0.848
4.74533	0.847
4.7866	0.862
4.82788	0.872
4.86916	0.888
4.91044	0.89
4.95172	0.89
4.99299	0.89
5.03427	0.89
5.07555	0.867
5.11683	0.878
5.1581	0.888
5.19938	0.869
5.24066	0.893
5.28194	0.895
5.32321	0.879
5.36449	0.876
5.40577	0.865
5.44705	0.847
5.48832	0.836
5.5296	0.828
5.57088	0.79
5.61216	0.694
5.65344	0.536
5.69471	0.405
5.73599	0.34
5.77727	0.29
5.81855	0.305
5.85982	0.597
5.9011	0.689
5.94238	0.738
5.98366	0.768
6.02493	0.745
6.06621	0.652
6.10749	0.505
6.14877	0.309
6.19005	0.123
6.23132	0.201
6.2726	0.19
6.31388	0.331
6.35516	0.493
6.39643	0.542
6.43771	0.621
6.47899	0.637
6.52027	0.678
6.56154	0.687
6.60282	0.704
6.6441	0.716
6.68538	0.716
6.72666	0.584
6.76793	0.386
6.80921	0.345
6.85049	0.398
6.89177	0.5
6.93304	0.573
6.97432	0.584
7.0156	0.5
7.05688	0.548
7.09815	0.515
7.13943	0.596
7.18071	0.661
7.22199	0.584
7.26327	0.532
7.30454	0.517
7.34582	0.529
7.3871	0.414
7.42838	0.326
7.46965	0.518
7.51093	0.663
7.55221	0.706
7.59349	0.743
7.63476	0.749
7.67604	0.75
7.71732	0.754
7.7586	0.702
7.79987	0.582
7.84115	0.469
7.88243	0.45
7.92371	0.402
7.96499	0.341
8.00626	0.348
8.04754	0.517
8.08882	0.618
8.1301	0.685
8.17137	0.725
8.21265	0.726
8.25393	0.63
8.29521	0.5
8.33648	0.623
8.37776	0.774
8.41904	0.81
8.46032	0.831
8.5016	0.833
8.54287	0.816
8.58415	0.812
8.62543	0.835
8.66671	0.824
8.70798	0.783
8.74926	0.805
8.79054	0.847
8.83182	0.876
8.87309	0.891
8.91437	0.895
8.95565	0.9
8.99693	0.905
9.03821	0.908
9.07948	0.91
9.12076	0.912
9.16204	0.91
9.20332	0.874
9.24459	0.852
9.28587	0.886
9.32715	0.908
9.36843	0.912
9.4097	0.914
9.45098	0.895
9.49226	0.86
9.53354	0.898
9.57482	0.917
9.61609	0.914
9.65737	0.898
9.69865	0.823
9.73993	0.75
9.7812	0.855
9.82248	0.89
9.86376	0.881
9.90504	0.845
9.94631	0.762
9.98759	0.695
10.0289	0.836
10.0701	0.871
10.1114	0.886
10.1527	0.871
10.194	0.838
10.2353	0.848
10.2765	0.855
10.3178	0.843
10.3591	0.829
10.4004	0.816
10.4416	0.802
10.4829	0.78
10.5242	0.742
10.5655	0.697
10.6068	0.646
10.648	0.596
10.6893	0.565
10.7306	0.568
10.7719	0.609
10.8131	0.651
10.8544	0.69
10.8957	0.721
10.937	0.749
10.9783	0.766
11.0195	0.792
11.0608	0.804
11.1021	0.819
11.1434	0.829
11.1846	0.836
11.2259	0.835
11.2672	0.817
11.3085	0.798
11.3498	0.824
11.391	0.816
11.4323	0.812
11.4736	0.869
11.5149	0.896
11.5561	0.908
11.5974	0.919
11.6387	0.924
11.68	0.922
11.7213	0.9
11.7625	0.89
11.8038	0.915
11.8451	0.927
11.8864	0.929
11.9276	0.934
11.9689	0.936
12.0102	0.938
12.0515	0.939
12.0928	0.941
12.134	0.941
12.1753	0.941
12.2166	0.943
12.2579	0.943
12.2991	0.943
12.3404	0.948
12.3817	0.95
12.423	0.95
12.4643	0.951
12.5055	0.951
12.5468	0.951
12.5881	0.95
12.6294	0.945
12.6706	0.939
12.7119	0.932
12.7532	0.924
12.7945	0.919
12.8358	0.908
12.877	0.898
12.9183	0.886
12.9596	0.869
13.0009	0.847
13.0421	0.807
13.0834	0.762
13.1247	0.634
13.166	0.46
13.2073	0.314
13.2485	0.216
13.2898	0.264
13.3311	0.494
13.3724	0.616
13.4136	0.687
13.4549	0.721
13.4962	0.74
13.5375	0.742
13.5787	0.723
13.62	0.659
13.6613	0.582
13.7026	0.546
13.7439	0.558
13.7851	0.634
13.8264	0.68
13.8677	0.702
13.909	0.725
13.9502	0.737
13.9915	0.735
14.0328	0.699
14.0741	0.639
14.1154	0.584
14.1566	0.575
14.1979	0.603
14.2392	0.632
14.2805	0.646
14.3217	0.651
14.363	0.661
14.4043	0.668
14.4456	0.666
14.4869	0.661
14.5281	0.647
14.5694	0.606
14.6107	0.56
14.652	0.493
14.6932	0.424
14.7345	0.364
14.7758	0.352
14.8171	0.384
14.8584	0.431
14.8996	0.469
14.9409	0.489
14.9822	0.517
15.0235	0.529
15.0647	0.53
15.106	0.527
15.1473	0.522
15.1886	0.518
15.2299	0.512
15.2711	0.506
15.3124	0.496
15.3537	0.484
15.395	0.475
15.4362	0.463
15.4775	0.451
15.5188	0.441
15.5601	0.429
15.6014	0.417
15.6426	0.403
15.6839	0.393
15.7252	0.376
15.7665	0.36
15.8077	0.35
15.849	0.343
15.8903	0.341
