Infrared Spectrum: o-Allyloxybenzaldehyde
Formula: C 10 H 10 O 2
CAS: 28752-82-1
State: gas
Instrument: HP-GC/MS/IRD
Origin: NIST Mass Spectrometry Data Center
1/CM	ABSORBANCE
550	0.000688
562	0.000592
574	0.000776
586	0.001612
598	0.0024
610	0.001764
622	0.001432
634	0.000896
646	0.001124
658	0.001312
670	0.000648
682	0.000188
694	2.4e-05
706	0
718	7.2e-05
730	8e-06
742	0.000208
754	0.000716
766	0.000852
778	0.000832
790	0.001336
802	0.002136
814	0.004224
826	0.007052
838	0.00736
850	0.007724
862	0.0036
874	0.001128
886	0.000776
898	0.000968
910	0.001748
922	0.003696
934	0.00432
946	0.002456
958	0.001892
970	0.0024
982	0.004156
994	0.007508
1006	0.00896
1018	0.009196
1030	0.007304
1042	0.003284
1054	0.001572
1066	0.001068
1078	0.00106
1090	0.00146
1102	0.00198
1114	0.001916
1126	0.001764
1138	0.002748
1150	0.01102
1162	0.025672
1174	0.006512
1186	0.003996
1198	0.00864
1210	0.015752
1222	0.02386
1234	0.025016
1246	0.025052
1258	0.022028
1270	0.011496
1282	0.007176
1294	0.009792
1306	0.010768
1318	0.0048
1330	0.002508
1342	0.002
1354	0.0021
1366	0.00226
1378	0.00242
1390	0.003072
1402	0.002172
1414	0.002996
1426	0.004072
1438	0.001836
1450	0.00148
1462	0.00226
1474	0.00178
1486	0.002216
1498	0.00832
1510	0.012124
1522	0.003076
1534	0.001552
1546	0.00148
1558	0.002308
1570	0.00656
1582	0.014412
1594	0.024596
1606	0.026688
1618	0.009488
1630	0.003324
1642	0.002292
1654	0.001964
1666	0.001932
1678	0.002916
1690	0.004696
1702	0.011588
1714	0.035992
1726	0.026012
1738	0.004264
1750	0.001452
1762	0.000904
1774	0.000676
1786	0.000496
1798	0.000424
1810	0.00038
1822	0.000328
1834	0.000328
1846	0.000416
1858	0.000604
1870	0.000584
1882	0.0005
1894	0.000548
1906	0.000432
1918	0.000296
1930	0.000272
1942	0.000232
1954	0.00026
1966	0.000328
1978	0.000388
1990	0.000452
2002	0.000504
2014	0.000528
2026	0.00042
2038	0.00036
2050	0.000304
2062	0.000272
2074	0.000232
2086	0.000196
2098	0.000176
2110	0.000128
2122	6.8e-05
2134	4.8e-05
2146	3.6e-05
2158	3.6e-05
2170	2e-05
2182	4e-06
2194	2e-05
2206	2.8e-05
2218	2.4e-05
2230	3.6e-05
2242	0
2254	6e-05
2266	0.000124
2278	0.00012
2290	0.000104
2302	9.2e-05
2314	8e-05
2326	6.4e-05
2338	1.6e-05
2350	4.4e-05
2362	4e-05
2374	8.8e-05
2386	0.000124
2398	0.000168
2410	0.000236
2422	0.000236
2434	0.000216
2446	0.00026
2458	0.000252
2470	0.0002
2482	0.000184
2494	0.000244
2506	0.000252
2518	0.000252
2530	0.000256
2542	0.000348
2554	0.000432
2566	0.0004
2578	0.000416
2590	0.000388
2602	0.000368
2614	0.000304
2626	0.000264
2638	0.00026
2650	0.00026
2662	0.000416
2674	0.000744
2686	0.001328
2698	0.0021
2710	0.0039
2722	0.00606
2734	0.005028
2746	0.0026
2758	0.001684
2770	0.00172
2782	0.002548
2794	0.003664
2806	0.004072
2818	0.004148
2830	0.002792
2842	0.001568
2854	0.001192
2866	0.001444
2878	0.001912
2890	0.002044
2902	0.001836
2914	0.001796
2926	0.001908
2938	0.002048
2950	0.001892
2962	0.001692
2974	0.0013
2986	0.001248
2998	0.001448
3010	0.001444
3022	0.001756
3034	0.002008
3046	0.001384
3058	0.001052
3070	0.0015
3082	0.001984
3094	0.002364
3106	0.001868
3118	0.00084
3130	0.000388
3142	0.000256
3154	0.000204
3166	0.00018
3178	0.000136
3190	0.000128
3202	0.000132
3214	8e-05
3226	6.8e-05
3238	6.4e-05
3250	1.6e-05
3262	4e-05
3274	1.2e-05
3286	2e-05
3298	8.4e-05
3310	4.4e-05
3322	0.0001
3334	0.000104
3346	8.8e-05
3358	0.000128
3370	0.00018
3382	0.0002
3394	0.000308
3406	0.00046
3418	0.000648
3430	0.000428
3442	0.000276
3454	0.000212
3466	0.000172
3478	0.00016
3490	0.000144
3502	0.000144
3514	0.0001
3526	0.000164
3538	0.000148
3550	0.000136
3562	0.000172
3574	0.000168
3586	0.00014
3598	0.000184
3610	0.000176
3622	0.000108
3634	0.000176
3646	0.000196
3658	0.000184
3670	0.000128
3682	0.000184
3694	0.000144
3706	0.000156
3718	0.000188
3730	0.000116
3742	0.000192
3754	0.000168
3766	0.00014
3778	0.000144
3790	0.000132
3802	0.000144
3814	0.000192
3826	0.000196
3838	0.000128
