Infrared Spectrum: Alpha,Alpha,Alpha-p-TETRACHLOROACETANILIDE
Formula: C8 H5 Cl4 N O
CAS: 2877-13-6
State: SOLID (MINERAL OIL MULL)
Class: COBLENTZ
Instrument: Not specified, most likely a prism, grating, or hybrid spectrometer.
Sampling: TRANSMISSION
Resolution: 4
Origin: DOW CHEMICAL COMPANY
MICROMETERS	TRANSMITTANCE
2.062	0.292
2.10326	0.301
2.14451	0.309
2.18577	0.318
2.22703	0.327
2.26828	0.333
2.30954	0.34
2.3508	0.345
2.39205	0.363
2.43331	0.38
2.47457	0.393
2.51582	0.405
2.55708	0.419
2.59834	0.429
2.63959	0.441
2.68085	0.457
2.72211	0.46
2.76336	0.467
2.80462	0.474
2.84588	0.481
2.88713	0.489
2.92839	0.486
2.96965	0.433
3.0109	0.142
3.05216	0.109
3.09342	0.246
3.13467	0.308
3.17593	0.32
3.21719	0.303
3.25844	0.301
3.2997	0.289
3.34096	0.181
3.38221	0.022
3.42347	0.035
3.46473	0.082
3.50599	0.277
3.54724	0.554
3.5885	0.589
3.62976	0.601
3.67101	0.604
3.71227	0.611
3.75353	0.628
3.79478	0.631
3.83604	0.645
3.8773	0.659
3.91855	0.672
3.95981	0.674
4.00107	0.683
4.04232	0.691
4.08358	0.696
4.12484	0.7
4.16609	0.726
4.20735	0.732
4.24861	0.729
4.28986	0.722
4.33112	0.722
4.37238	0.744
4.41363	0.75
4.45489	0.753
4.49615	0.758
4.5374	0.765
4.57866	0.768
4.61992	0.775
4.66117	0.777
4.70243	0.784
4.74369	0.791
4.78494	0.796
4.8262	0.797
4.86746	0.799
4.90871	0.806
4.94997	0.811
4.99123	0.818
5.03248	0.825
5.07374	0.828
5.115	0.828
5.15625	0.832
5.19751	0.837
5.23877	0.821
5.28002	0.789
5.32128	0.845
5.36254	0.847
5.40379	0.854
5.44505	0.861
5.48631	0.857
5.52756	0.861
5.56882	0.856
5.61008	0.844
5.65133	0.797
5.69259	0.773
5.73385	0.693
5.7751	0.559
5.81636	0.294
5.85762	0.051
5.89887	0.087
5.94013	0.279
5.98139	0.429
6.02264	0.503
6.0639	0.565
6.10516	0.607
6.14641	0.636
6.18767	0.51
6.22893	0.232
6.27019	0.597
6.31144	0.719
6.3527	0.712
6.39396	0.614
6.43521	0.2
6.47647	0.107
6.51773	0.148
6.55898	0.316
6.60024	0.414
6.6415	0.388
6.68275	0.148
6.72401	0.352
6.76527	0.337
6.80652	0.238
6.84778	0.275
6.88904	0.357
6.93029	0.493
6.97155	0.652
7.01281	0.676
7.05406	0.606
7.09532	0.337
7.13658	0.328
7.17783	0.501
7.21909	0.398
7.26035	0.409
7.3016	0.496
7.34286	0.541
7.38412	0.539
7.42537	0.539
7.46663	0.549
7.50789	0.529
7.54914	0.438
7.5904	0.282
7.63166	0.383
7.67291	0.546
7.71417	0.503
7.75543	0.397
7.79668	0.529
7.83794	0.652
7.8792	0.686
7.92045	0.568
7.96171	0.279
8.00297	0.393
8.04422	0.556
8.08548	0.64
8.12674	0.676
8.16799	0.686
8.20925	0.614
8.25051	0.594
8.29176	0.691
8.33302	0.736
8.37428	0.756
8.41553	0.765
8.45679	0.722
8.49805	0.736
8.5393	0.765
8.58056	0.773
8.62182	0.78
8.66307	0.787
8.70433	0.796
8.74559	0.797
8.78684	0.801
8.8281	0.808
8.86936	0.809
8.91061	0.791
8.95187	0.77
8.99313	0.796
9.03439	0.761
9.07564	0.616
9.1169	0.361
9.15816	0.494
9.19941	0.445
9.24067	0.696
9.28193	0.652
9.32318	0.657
9.36444	0.724
9.4057	0.761
9.44695	0.777
9.48821	0.792
9.52947	0.796
9.57072	0.806
9.61198	0.808
9.65324	0.806
9.69449	0.809
9.73575	0.813
9.77701	0.813
9.81826	0.645
9.85952	0.501
9.90078	0.72
9.94203	0.784
9.98329	0.796
10.0245	0.813
10.0658	0.815
10.1071	0.818
10.1483	0.811
10.1896	0.77
10.2308	0.736
10.2721	0.789
10.3133	0.809
10.3546	0.815
10.3959	0.816
10.4371	0.806
10.4784	0.773
10.5196	0.799
10.5609	0.818
10.6021	0.801
10.6434	0.755
10.6847	0.801
10.7259	0.821
10.7672	0.827
10.8084	0.828
10.8497	0.828
10.8909	0.827
10.9322	0.825
10.9735	0.821
11.0147	0.813
11.056	0.797
11.0972	0.761
11.1385	0.691
11.1797	0.542
11.221	0.327
11.2622	0.191
11.3035	0.239
11.3448	0.452
11.386	0.573
11.4273	0.674
11.4685	0.72
11.5098	0.753
11.551	0.773
11.5923	0.779
11.6336	0.782
11.6748	0.773
11.7161	0.731
11.7573	0.672
11.7986	0.594
11.8398	0.46
11.8811	0.308
11.9224	0.167
11.9636	0.075
12.0049	0.039
12.0461	0.077
12.0874	0.157
12.1286	0.159
12.1699	0.128
12.2112	0.152
12.2524	0.181
12.2937	0.167
12.3349	0.188
12.3762	0.352
12.4174	0.51
12.4587	0.601
12.4999	0.664
12.5412	0.696
12.5825	0.715
12.6237	0.736
12.665	0.743
12.7062	0.746
12.7475	0.744
12.7887	0.729
12.83	0.691
12.8713	0.647
12.9125	0.578
12.9538	0.477
12.995	0.359
13.0363	0.183
13.0775	0.121
13.1188	0.21
13.1601	0.363
13.2013	0.484
13.2426	0.549
13.2838	0.606
13.3251	0.636
13.3663	0.65
13.4076	0.666
13.4489	0.667
13.4901	0.671
13.5314	0.672
13.5726	0.676
13.6139	0.674
13.6551	0.674
13.6964	0.669
13.7377	0.662
13.7789	0.655
13.8202	0.647
13.8614	0.647
13.9027	0.654
13.9439	0.664
13.9852	0.669
14.0264	0.669
14.0677	0.664
14.109	0.659
14.1502	0.645
14.1915	0.625
14.2327	0.589
14.274	0.561
14.3152	0.559
14.3565	0.573
14.3978	0.58
14.439	0.582
14.4803	0.575
14.5215	0.565
14.5628	0.547
14.604	0.535
14.6453	0.511
14.6866	0.472
14.7278	0.443
14.7691	0.393
14.8103	0.342
14.8516	0.299
14.8928	0.27
14.9341	0.241
14.9754	0.215
15.0166	0.198
15.0579	0.191
15.0991	0.193
15.1404	0.212
15.1816	0.234
15.2229	0.258
15.2641	0.279
15.3054	0.301
15.3467	0.32
15.3879	0.327
15.4292	0.327
15.4704	0.321
15.5117	0.311
15.5529	0.309
15.5942	0.316
15.6355	0.325
15.6767	0.335
15.718	0.342
15.7592	0.347
15.8005	0.349
15.8417	0.354
15.883	0.357
