Infrared Spectrum: n-Octadecenylsuccinic acid
Formula: C 18 H 33 Cl O
CAS: 28777-98-2
State: gas
Origin: EPA-IR VAPOR PHASE LIBRARY
1/CM	ABSORBANCE
549.8	0.0017209
559.445	0.00049
569.09	0.0017958
578.734	0.00163445
588.379	0.0018409
598.024	0.001641
607.669	0.0017297
617.313	0.0017682
626.958	0.001851
636.603	0.00159916
646.248	0.0019273
655.893	0.0017343
665.537	0.001643
675.182	0.001377
684.827	0.0017922
694.472	0.0019659
704.116	0.0017357
713.761	0.00193
723.406	0.0016716
733.051	0.0020928
742.695	0.0017727
752.34	0.00163612
761.985	0.001944
771.63	0.0014991
781.275	0.0014941
790.919	0.0020485
800.564	0.001411
810.209	0.0014892
819.854	0.00155253
829.498	0.00159643
839.143	0.0018174
848.788	0.0018011
858.433	0.0018668
868.078	0.0020228
877.722	0.0024075
887.367	0.00268
897.012	0.00329
906.657	0.0037
916.301	0.00378
925.946	0.00371
935.591	0.00348
945.236	0.00329
954.88	0.00261
964.525	0.0023973
974.17	0.0022806
983.815	0.00264
993.46	0.0023662
1003.1	0.0022932
1012.75	0.00314
1022.39	0.00271
1032.04	0.00283
1041.68	0.00274
1051.33	0.00317
1060.97	0.00446
1070.62	0.00467
1080.26	0.00353
1089.91	0.00322
1099.55	0.0021623
1109.2	0.0022161
1118.84	0.0020147
1128.49	0.0019083
1138.13	0.00157259
1147.78	0.00162952
1157.42	0.0019747
1167.07	0.0018568
1176.71	0.0021963
1186.36	0.00264
1196	0.00271
1205.64	0.00288
1215.29	0.0024589
1224.93	0.0024266
1234.58	0.0023007
1244.22	0.0017952
1253.87	0.0016625
1263.51	0.000542
1273.16	0.000759
1282.8	0.00045
1292.45	0.000773
1302.09	0.001125
1311.74	0.001435
1321.38	0.0014578
1331.03	0.0014418
1340.67	0.001669
1350.32	0.0017767
1359.96	0.0018522
1369.61	0.0018958
1379.25	0.0019677
1388.9	0.0018015
1398.54	0.0017735
1408.18	0.0018661
1417.83	0.0019821
1427.47	0.0021923
1437.12	0.0022101
1446.76	0.0024179
1456.41	0.00273
1466.05	0.00265
1475.7	0.0021082
1485.34	0.0020849
1494.99	0.0019506
1504.63	0.0020331
1514.28	0.0019041
1523.92	0.0020156
1533.57	0.0020045
1543.21	0.0018498
1552.86	0.0020278
1562.5	0.0018621
1572.15	0.0019064
1581.79	0.0017088
1591.44	0.0018087
1601.08	0.0018376
1610.73	0.0016474
1620.37	0.0016552
1630.01	0.00159522
1639.66	0.00154917
1649.3	0.00163543
1658.95	0.001749
1668.59	0.00155127
1678.24	0.0017554
1687.88	0.00163598
1697.53	0.0017075
1707.17	0.0016577
1716.82	0.00157216
1726.46	0.0017276
1736.11	0.0016644
1745.75	0.0017755
1755.4	0.0018325
1765.04	0.0021837
1774.69	0.00273
1784.33	0.0041
1793.98	0.00688
1803.62	0.01209
1813.27	0.00838
1822.91	0.00476
1832.55	0.00345
1842.2	0.00296
1851.84	0.00272
1861.49	0.00309
1871.13	0.00395
1880.78	0.00383
1890.42	0.00256
1900.07	0.0020821
1909.71	0.0020281
1919.36	0.0019355
1929	0.0018998
1938.65	0.0020176
1948.29	0.0018742
1957.94	0.0018127
1967.58	0.0018224
1977.23	0.0018356
1986.87	0.0018638
1996.52	0.0018402
2006.16	0.001786
2015.81	0.0017481
2025.45	0.0018534
2035.1	0.00185
2044.74	0.0018849
2054.38	0.00162108
2064.03	0.001907
2073.67	0.0017854
2083.32	0.0019728
2092.96	0.0018857
2102.61	0.0018889
2112.25	0.001884
2121.9	0.002014
2131.54	0.0018926
2141.19	0.0019243
2150.83	0.0018937
2160.48	0.0018352
2170.12	0.0020187
2179.77	0.0019187
2189.41	0.0020299
2199.06	0.0020426
2208.7	0.0019325
2218.35	0.0019323
2227.99	0.0019616
2237.64	0.0017699
2247.28	0.0018362
2256.92	0.0019584
2266.57	0.0017508
2276.21	0.0018657
2285.86	0.0019065
2295.5	0.00193
2305.15	0.0019601
2314.79	0.0019124
2324.44	0.002011
2334.08	0.0018732
2343.73	0.0017117
2353.37	0.0018045
2363.02	0.0017134
2372.66	0.0017867
2382.31	0.0017875
2391.95	0.0018802
2401.6	0.00153152
2411.24	0.0017178
2420.89	0.0018988
2430.53	0.0018939
2440.18	0.0020514
2449.82	0.0019753
2459.47	0.0018067
2469.11	0.0019196
2478.75	0.0019908
2488.4	0.0019973
2498.04	0.0021409
2507.69	0.0020229
2517.33	0.0017737
2526.98	0.001852
2536.62	0.0018412
2546.27	0.0018104
2555.91	0.002075
2565.56	0.0018956
2575.2	0.0019127
2584.85	0.0018484
2594.49	0.0020138
2604.14	0.0019856
2613.78	0.0018721
2623.43	0.0020647
2633.07	0.0020983
2642.72	0.0017728
2652.36	0.0017985
2662.01	0.0019248
2671.65	0.001927
2681.29	0.0019805
2690.94	0.0020182
2700.58	0.0019129
2710.23	0.0020676
2719.87	0.0019436
2729.52	0.0019463
2739.16	0.0019565
2748.81	0.0018606
2758.45	0.0019417
2768.1	0.002042
2777.74	0.0020459
2787.39	0.0020488
2797.03	0.0022809
2806.68	0.0023331
2816.32	0.0022861
2825.97	0.00259
2835.61	0.00277
2845.26	0.0031
2854.9	0.0045
2864.55	0.00548
2874.19	0.00482
2883.84	0.00434
2893.48	0.0042
2903.12	0.0045
2912.77	0.00552
2922.41	0.00811
2932.06	0.0113
2941.7	0.00952
2951.35	0.00652
2960.99	0.00589
2970.64	0.00588
2980.28	0.00396
2989.93	0.00294
2999.57	0.0025295
3009.22	0.0024168
3018.86	0.0020382
3028.51	0.002227
3038.15	0.0022397
3047.8	0.0020744
3057.44	0.0022249
3067.09	0.0019944
3076.73	0.0019139
3086.38	0.00223
3096.02	0.0019119
3105.67	0.0017129
3115.31	0.0020449
3124.95	0.0021076
3134.6	0.0019683
3144.24	0.0019071
3153.89	0.0020738
3163.53	0.0016077
3173.18	0.0019747
3182.82	0.0019829
3192.47	0.0020206
3202.11	0.0021654
3211.76	0.0022045
3221.4	0.0021597
3231.05	0.0022932
3240.69	0.0020775
3250.34	0.00255
3259.98	0.0020986
3269.63	0.0018274
3279.27	0.0019675
3288.92	0.0018031
3298.56	0.0018936
3308.21	0.0018516
3317.85	0.0019425
3327.49	0.002359
3337.14	0.0018417
3346.78	0.001764
3356.43	0.0021495
3366.07	0.0021475
3375.72	0.0024654
3385.36	0.001944
3395.01	0.0020711
3404.65	0.0022716
3414.3	0.0021617
3423.94	0.0024072
3433.59	0.0020367
3443.23	0.0021922
3452.88	0.0021786
3462.52	0.0019793
3472.17	0.0023001
3481.81	0.0017558
3491.46	0.0019494
3501.1	0.0017872
3510.75	0.0020463
3520.39	0.0021994
3530.04	0.0023575
3539.68	0.0020834
3549.32	0.0021541
3558.97	0.0019486
3568.61	0.001882
3578.26	0.0016281
3587.9	0.0022207
3597.55	0.0021096
3607.19	0.0023398
3616.84	0.002257
3626.48	0.0022512
3636.13	0.0024402
3645.77	0.0023831
3655.42	0.0021417
3665.06	0.0020798
3674.71	0.0023337
3684.35	0.0016951
3694	0.0022426
3703.64	0.0021252
3713.29	0.0022792
3722.93	0.0022955
3732.58	0.0018401
3742.22	0.002388
3751.86	0.0019775
3761.51	0.0022413
3771.15	0.0024911
3780.8	0.0022002
3790.44	0.002089
3800.09	0.0021424
3809.73	0.0023534
3819.38	0.0021643
3829.02	0.0020475
3838.67	0.0021722
3848.31	0.0022798
3857.96	0.0021425
3867.6	0.0024931
3877.25	0.0024156
3886.89	0.0018935
3896.54	0.002158
3906.18	0.0020568
3915.83	0.0023008
3925.47	0.0020998
3935.12	0.0023786
3944.76	0.0020824
3954.41	0.0025269
3964.05	0.00267
3973.69	0.002323
3983.34	0.0021697
3992.98	0.0020978
