Infrared Spectrum: 2-(p-n-NONYLPHENOXY)-3-TRIDECYL PYRAZINE
Formula: C32 H52 N2 O
CAS: 2879-00-7
State: LIQUID
Class: COBLENTZ
Instrument: Not specified, most likely a prism, grating, or hybrid spectrometer.
Sampling: TRANSMISSION
Path length: 0.0015 CM
Resolution: 4
Origin: WYANDOTTE CHEMICALS CORP., WYANDOTTE, MICHIGAN, USA
MICROMETERS	TRANSMITTANCE
2.02	0.97
2.06086	0.967
2.10172	0.964
2.14258	0.96
2.18343	0.947
2.22429	0.911
2.26515	0.909
2.30601	0.912
2.34687	0.916
2.38773	0.916
2.42859	0.923
2.46944	0.931
2.5103	0.931
2.55116	0.943
2.59202	0.95
2.63288	0.697
2.67374	0.929
2.7146	0.933
2.75545	0.928
2.79631	0.919
2.83717	0.9
2.87803	0.899
2.91889	0.878
2.95975	0.876
3.0006	0.863
3.04146	0.856
3.08232	0.856
3.12318	0.842
3.16404	0.841
3.2049	0.834
3.24576	0.721
3.28661	0.664
3.32747	0.485
3.36833	0.034
3.40919	0.032
3.45005	0.092
3.49091	0.097
3.53177	0.353
3.57262	0.724
3.61348	0.81
3.65434	0.823
3.6952	0.832
3.73606	0.844
3.77692	0.859
3.81778	0.873
3.85863	0.883
3.89949	0.885
3.94035	0.899
3.98121	0.902
4.02207	0.911
4.06293	0.897
4.10379	0.892
4.14464	0.892
4.1855	0.897
4.22636	0.89
4.26722	0.88
4.30808	0.909
4.34894	0.935
4.3898	0.94
4.43065	0.916
4.47151	0.919
4.51237	0.923
4.55323	0.924
4.59409	0.926
4.63495	0.923
4.6758	0.921
4.71666	0.923
4.75752	0.926
4.79838	0.926
4.83924	0.926
4.8801	0.921
4.92096	0.917
4.96181	0.914
5.00267	0.914
5.04353	0.914
5.08439	0.914
5.12525	0.924
5.16611	0.923
5.20697	0.921
5.24782	0.912
5.28868	0.892
5.32954	0.873
5.3704	0.909
5.41126	0.923
5.45212	0.921
5.49298	0.917
5.53383	0.911
5.57469	0.904
5.61555	0.895
5.65641	0.9
5.69727	0.892
5.73813	0.9
5.77899	0.888
5.81984	0.882
5.8607	0.871
5.90156	0.849
5.94242	0.835
5.98328	0.815
6.02414	0.8
6.065	0.8
6.10585	0.841
6.14671	0.752
6.18757	0.678
6.22843	0.738
6.26929	0.729
6.31015	0.736
6.351	0.782
6.39186	0.747
6.43272	0.555
6.47358	0.381
6.51444	0.572
6.5553	0.42
6.59616	0.097
6.63701	0.36
6.67787	0.543
6.71873	0.514
6.75959	0.191
6.80045	0.162
6.84131	0.223
6.88217	0.348
6.92302	0.418
6.96388	0.459
7.00474	0.4
7.0456	0.138
7.08646	0.029
7.12732	0.049
7.16818	0.147
7.20903	0.234
7.24989	0.261
7.29075	0.292
7.33161	0.3
7.37247	0.321
7.41333	0.3
7.45419	0.34
7.49504	0.446
7.5359	0.427
7.57676	0.326
7.61762	0.27
7.65848	0.229
7.69934	0.189
7.7402	0.167
7.78105	0.169
7.82191	0.211
7.86277	0.283
7.90363	0.335
7.94449	0.429
7.98535	0.439
8.0262	0.447
8.06706	0.41
8.10792	0.305
8.14878	0.182
8.18964	0.08
8.2305	0.08
8.27136	0.215
8.31221	0.398
8.35307	0.454
8.39393	0.415
8.43479	0.254
8.47565	0.095
8.51651	0.075
8.55737	0.225
8.59822	0.367
8.63908	0.422
8.67994	0.497
8.7208	0.552
8.76166	0.591
8.80252	0.639
8.84338	0.694
8.88423	0.671
8.92509	0.61
8.96595	0.6
9.00681	0.646
9.04767	0.663
9.08853	0.656
9.12939	0.666
9.17024	0.678
9.2111	0.678
9.25196	0.685
9.29282	0.7
9.33368	0.709
9.37454	0.716
9.4154	0.728
9.45625	0.736
9.49711	0.748
9.53797	0.76
9.57883	0.769
9.61969	0.774
9.66055	0.772
9.7014	0.757
9.74226	0.74
9.78312	0.61
9.82398	0.348
9.86484	0.524
9.9057	0.62
9.94656	0.702
9.98741	0.74
10.0283	0.779
10.0691	0.801
10.11	0.803
10.1508	0.818
10.1917	0.82
10.2326	0.82
10.2734	0.815
10.3143	0.808
10.3551	0.801
10.396	0.794
10.4369	0.801
10.4777	0.8
10.5186	0.801
10.5594	0.813
10.6003	0.818
10.6412	0.813
10.682	0.801
10.7229	0.805
10.7637	0.798
10.8046	0.789
10.8454	0.788
10.8863	0.769
10.9272	0.723
10.968	0.646
11.0089	0.598
11.0497	0.598
11.0906	0.629
11.1315	0.68
11.1723	0.735
11.2132	0.75
11.254	0.762
11.2949	0.764
11.3357	0.767
11.3766	0.758
11.4175	0.753
11.4583	0.735
11.4992	0.716
11.54	0.687
11.5809	0.67
11.6218	0.632
11.6626	0.579
11.7035	0.499
11.7443	0.405
11.7852	0.336
11.826	0.294
11.8669	0.28
11.9078	0.285
11.9486	0.319
11.9895	0.379
12.0303	0.446
12.0712	0.517
12.1121	0.574
12.1529	0.634
12.1938	0.663
12.2346	0.692
12.2755	0.711
12.3164	0.729
12.3572	0.748
12.3981	0.765
12.4389	0.779
12.4798	0.789
12.5206	0.791
12.5615	0.798
12.6024	0.801
12.6432	0.8
12.6841	0.793
12.7249	0.776
12.7658	0.762
12.8067	0.762
12.8475	0.762
12.8884	0.764
12.9292	0.77
12.9701	0.772
13.0109	0.808
13.0518	0.776
13.0927	0.779
13.1335	0.781
13.1744	0.781
13.2152	0.784
13.2561	0.784
13.297	0.784
13.3378	0.789
13.3787	0.782
13.4195	0.77
13.4604	0.772
13.5012	0.767
13.5421	0.764
13.583	0.764
13.6238	0.75
13.6647	0.74
13.7055	0.723
13.7464	0.699
13.7873	0.68
13.8281	0.663
13.869	0.649
13.9098	0.652
13.9507	0.69
13.9916	0.728
14.0324	0.757
14.0733	0.788
14.1141	0.806
14.155	0.825
14.1958	0.839
14.2367	0.847
14.2776	0.852
14.3184	0.851
14.3593	0.852
14.4001	0.858
14.441	0.849
14.4819	0.854
14.5227	0.842
14.5636	0.844
14.6044	0.837
14.6453	0.839
14.6861	0.835
14.727	0.839
14.7679	0.834
14.8087	0.844
14.8496	0.842
14.8904	0.842
14.9313	0.844
14.9722	0.844
15.013	0.822
15.0539	0.803
15.0947	0.817
15.1356	0.837
15.1764	0.839
15.2173	0.834
15.2582	0.823
15.299	0.818
15.3399	0.811
15.3807	0.805
15.4216	0.8
15.4625	0.798
15.5033	0.782
15.5442	0.781
15.585	0.776
15.6259	0.776
15.6668	0.767
15.7076	0.76
15.7485	0.75
15.7893	0.75
15.8302	0.735
15.871	0.735
15.9119	0.724
15.9528	0.716
