Infrared Spectrum: M-TOLUALDEHYDE 2,4-DINITRO-PHENYLHYDRAZONE
Formula: C14 H12 N4 O4
CAS: 2880-05-9
State: SOLID (MINERAL OIL MULL)
Class: COBLENTZ
Instrument: PERKIN-ELMER
Sampling: TRANSMISSION
Resolution: 4
Origin: STANDARD OIL OF OHIO
MICROMETERS	TRANSMITTANCE
2.014	0.536
2.04792	0.55
2.08185	0.562
2.11577	0.57
2.14969	0.582
2.18362	0.592
2.21754	0.604
2.25146	0.601
2.28539	0.592
2.31931	0.599
2.35324	0.611
2.38716	0.623
2.42108	0.635
2.45501	0.649
2.48893	0.664
2.52285	0.678
2.55678	0.684
2.5907	0.71
2.62462	0.708
2.65855	0.725
2.69247	0.73
2.72639	0.734
2.76032	0.744
2.79424	0.752
2.82816	0.754
2.86209	0.761
2.89601	0.766
2.92994	0.77
2.96386	0.759
2.99778	0.499
3.03171	0.703
3.06563	0.739
3.09955	0.744
3.13348	0.735
3.1674	0.621
3.20132	0.652
3.23525	0.669
3.26917	0.626
3.30309	0.437
3.33702	0.187
3.37094	0.034
3.40486	0.018
3.43879	0.042
3.47271	0.051
3.50664	0.102
3.54056	0.574
3.57448	0.718
3.60841	0.746
3.64233	0.752
3.67625	0.756
3.71018	0.763
3.7441	0.775
3.77802	0.781
3.81195	0.793
3.84587	0.819
3.87979	0.834
3.91372	0.846
3.94764	0.853
3.98156	0.867
4.01549	0.87
4.04941	0.865
4.08334	0.863
4.11726	0.863
4.15118	0.863
4.18511	0.862
4.21903	0.87
4.25295	0.882
4.28688	0.901
4.3208	0.904
4.35472	0.904
4.38865	0.89
4.42257	0.89
4.45649	0.902
4.49042	0.908
4.52434	0.913
4.55826	0.909
4.59219	0.918
4.62611	0.919
4.66004	0.919
4.69396	0.926
4.72788	0.925
4.76181	0.933
4.79573	0.938
4.82965	0.933
4.86358	0.931
4.8975	0.938
4.93142	0.94
4.96535	0.945
4.99927	0.935
5.03319	0.921
5.06712	0.921
5.10104	0.94
5.13496	0.94
5.16889	0.942
5.20281	0.921
5.23674	0.935
5.27066	0.945
5.30458	0.943
5.33851	0.933
5.37243	0.938
5.40635	0.943
5.44028	0.938
5.4742	0.925
5.50812	0.928
5.54205	0.94
5.57597	0.95
5.60989	0.955
5.64382	0.952
5.67774	0.952
5.71166	0.962
5.74559	0.965
5.77951	0.955
5.81343	0.93
5.84736	0.918
5.88128	0.902
5.91521	0.916
5.94913	0.916
5.98305	0.906
6.01698	0.877
6.0509	0.732
6.08482	0.511
6.11875	0.18
6.15267	0.04
6.18659	0.098
6.22052	0.172
6.25444	0.12
6.28836	0.117
6.32229	0.212
6.35621	0.63
6.39013	0.706
6.42406	0.744
6.45798	0.703
6.49191	0.616
6.52583	0.548
6.55975	0.185
6.59368	0.083
6.6276	0.076
6.66152	0.136
6.69545	0.257
6.72937	0.371
6.76329	0.277
6.79722	0.153
6.83114	0.143
6.86506	0.201
6.89899	0.272
6.93291	0.301
6.96683	0.34
7.00076	0.354
7.03468	0.168
7.06861	0.257
7.10253	0.643
7.13645	0.705
7.17038	0.659
7.2043	0.444
7.23822	0.272
7.27215	0.398
7.30607	0.441
7.33999	0.488
7.37392	0.386
7.40784	0.199
7.44176	0.052
7.47569	0.017
7.50961	0.018
7.54353	0.153
7.57746	0.224
7.61138	0.074
7.64531	0.102
7.67923	0.206
7.71315	0.252
7.74708	0.284
7.781	0.34
7.81492	0.303
7.84885	0.197
7.88277	0.127
7.91669	0.139
7.95062	0.151
7.98454	0.328
8.01846	0.563
8.05239	0.693
8.08631	0.717
8.12023	0.695
8.15416	0.494
8.18808	0.286
8.22201	0.352
8.25593	0.509
8.28985	0.587
8.32378	0.65
8.3577	0.691
8.39162	0.715
8.42555	0.73
8.45947	0.737
8.49339	0.666
8.52732	0.592
8.56124	0.626
8.59516	0.749
8.62909	0.744
8.66301	0.591
8.69693	0.303
8.73086	0.127
8.76478	0.124
8.79871	0.134
8.83263	0.149
8.86655	0.207
8.90048	0.315
8.9344	0.415
8.96832	0.519
9.00225	0.553
9.03617	0.516
9.07009	0.444
9.10402	0.376
9.13794	0.274
9.17186	0.255
9.20579	0.243
9.23971	0.318
9.27363	0.485
9.30756	0.718
9.34148	0.763
9.37541	0.775
9.40933	0.708
9.44325	0.521
9.47718	0.575
9.5111	0.679
9.54502	0.722
9.57895	0.742
9.61287	0.77
9.64679	0.785
9.68072	0.816
9.71464	0.838
9.74856	0.853
9.78249	0.86
9.81641	0.867
9.85033	0.872
9.88426	0.873
9.91818	0.872
9.95211	0.868
9.98603	0.862
10.02	0.85
10.0539	0.85
10.0878	0.85
10.1217	0.846
10.1556	0.851
10.1896	0.863
10.2235	0.867
10.2574	0.851
10.2913	0.838
10.3253	0.839
10.3592	0.812
10.3931	0.601
10.427	0.551
10.461	0.499
10.4949	0.616
10.5288	0.814
10.5627	0.846
10.5967	0.846
10.6306	0.838
10.6645	0.843
10.6984	0.848
10.7323	0.817
10.7663	0.655
10.8002	0.575
10.8341	0.672
10.868	0.752
10.902	0.773
10.9359	0.657
10.9698	0.613
11.0037	0.597
11.0377	0.804
11.0716	0.868
11.1055	0.889
11.1394	0.88
11.1734	0.872
11.2073	0.868
11.2412	0.863
11.2751	0.901
11.309	0.919
11.343	0.925
11.3769	0.931
11.4108	0.936
11.4447	0.94
11.4787	0.942
11.5126	0.942
11.5465	0.94
11.5804	0.936
11.6144	0.926
11.6483	0.902
11.6822	0.846
11.7161	0.689
11.7501	0.47
11.784	0.293
11.8179	0.345
11.8518	0.715
11.8857	0.834
11.9197	0.851
11.9536	0.643
11.9875	0.655
12.0214	0.841
12.0554	0.899
12.0893	0.914
12.1232	0.926
12.1571	0.933
12.1911	0.94
12.225	0.94
12.2589	0.942
12.2928	0.942
12.3268	0.943
12.3607	0.943
12.3946	0.943
12.4285	0.943
12.4624	0.933
12.4964	0.906
12.5303	0.844
12.5642	0.72
12.5981	0.548
12.6321	0.453
12.666	0.63
12.6999	0.742
12.7338	0.778
12.7678	0.773
12.8017	0.705
12.8356	0.616
12.8695	0.568
12.9035	0.659
12.9374	0.766
12.9713	0.839
13.0052	0.856
13.0391	0.853
13.0731	0.768
13.107	0.73
13.1409	0.804
13.1748	0.855
13.2088	0.863
13.2427	0.867
13.2766	0.862
13.3105	0.855
13.3445	0.839
13.3784	0.773
13.4123	0.655
13.4462	0.432
13.4802	0.26
13.5141	0.477
13.548	0.635
13.5819	0.735
13.6158	0.78
13.6498	0.797
13.6837	0.802
13.7176	0.8
13.7515	0.787
13.7855	0.761
13.8194	0.705
13.8533	0.616
13.8872	0.483
13.9212	0.437
13.9551	0.504
13.989	0.632
14.0229	0.754
14.0569	0.814
14.0908	0.853
14.1247	0.875
14.1586	0.887
14.1925	0.89
14.2265	0.89
14.2604	0.887
14.2943	0.855
14.3282	0.775
14.3622	0.609
14.3961	0.454
14.43	0.301
14.4639	0.362
14.4979	0.475
14.5318	0.553
14.5657	0.591
14.5996	0.654
14.6336	0.72
14.6675	0.797
14.7014	0.831
14.7353	0.841
14.7692	0.839
14.8032	0.829
14.8371	0.821
14.871	0.817
14.9049	0.822
14.9389	0.834
14.9728	0.85
15.0067	0.86
15.0406	0.863
15.0746	0.862
15.1085	0.86
15.1424	0.856
15.1763	0.851
15.2103	0.843
15.2442	0.824
15.2781	0.792
15.312	0.701
15.3459	0.637
