Infrared Spectrum: Aniline, 4-nitro-3-phenylthio-
Formula: C12 H10 N2 O2 S
CAS: 28819-80-9
State: SOLID (SPLIT MULL), FLUOROLUBE FOR 4000-1340 CM^-^1, NUJOL FOR 1340-400 CM^-^1
Melting point: 162 C
Class: COBLENTZ III
Instrument: BECKMAN IR-12 (GRATING)
Instrument parameters: GRATING CHANGE: 300, 650, 2000 CM^-^1
Sampling: TRANSMISSION
Resolution: 2
Origin: EASTMAN KODAK COMPANY
1/CM	TRANSMITTANCE
402	0.6853
412	0.7258
422	0.7722
432	0.8055
442	0.7452
452	0.7914
462	0.7911
472	0.7729
482	0.7731
492	0.8027
502	0.7955
512	0.789
522	0.9017
532	0.9008
542	0.8904
552	0.8725
562	0.8483
572	0.8092
582	0.8286
592	0.878
602	0.912
612	0.9299
622	0.9327
632	0.8604
642	0.834
652	0.9642
662	0.949
672	0.9506
682	0.8377
692	0.711
702	0.824
712	0.9236
722	0.9203
732	0.9205
742	0.7652
752	0.5251
762	0.912
772	0.9086
782	0.9038
792	0.8965
802	0.8854
812	0.8377
822	0.7846
832	0.7411
842	0.8407
852	0.7505
862	0.8024
872	0.8387
882	0.8373
892	0.8299
902	0.7981
912	0.6563
922	0.7979
932	0.8037
942	0.7983
952	0.7887
962	0.7678
972	0.7741
982	0.7726
992	0.7661
1002	0.7554
1012	0.753
1022	0.712
1032	0.7164
1042	0.6446
1052	0.7519
1062	0.7236
1072	0.7597
1082	0.7641
1092	0.7597
1102	0.7437
1112	0.6681
1122	0.445
1132	0.6798
1142	0.7531
1152	0.7308
1162	0.7116
1172	0.6733
1182	0.7606
1192	0.7486
1202	0.7318
1212	0.703
1222	0.6587
1232	0.6062
1242	0.502
1252	0.1867
1262	0.2766
1272	0.2643
1282	0.1803
1292	0.0591
1302	0.0692
1312	0.5335
1322	0.7068
1332	0.7611
1342	0.6359
1352	0.7391
1362	0.9192
1372	0.9197
1382	0.8932
1392	0.8636
1402	0.8226
1412	0.5873
1422	0.778
1432	0.6265
1442	0.508
1452	0.4448
1462	0.6977
1472	0.707
1482	0.3658
1492	0.5607
1502	0.8249
1512	0.8285
1522	0.8213
1532	0.7461
1542	0.58
1552	0.4025
1562	0.6904
1572	0.608
1582	0.3907
1592	0.1776
1602	0.6374
1612	0.5318
1622	0.2216
1632	0.3815
1642	0.7197
1652	0.9193
1662	0.9581
1672	0.9609
1682	0.9597
1692	0.9549
1702	0.9459
1712	0.9424
1722	0.9448
1732	0.937
1742	0.9304
1752	0.9199
1762	0.9105
1772	0.9059
1782	0.9066
1792	0.9028
1802	0.8982
1812	0.8943
1822	0.8961
1832	0.8949
1842	0.8908
1852	0.8787
1862	0.8711
1872	0.8659
1882	0.8631
1892	0.8616
1902	0.8507
1912	0.832
1922	0.8476
1932	0.8467
1942	0.842
1952	0.8375
1962	0.8402
1972	0.8346
1982	0.8348
1992	0.8275
2002	0.8167
2012	0.8117
2022	0.8074
2032	0.8051
2042	0.8023
2052	0.795
2062	0.7888
2072	0.7868
2082	0.7852
2092	0.7831
2102	0.7806
2112	0.778
2122	0.7754
2132	0.7728
2142	0.7701
2152	0.7669
2162	0.7636
2172	0.7602
2182	0.7567
2192	0.7529
2202	0.7492
2212	0.7455
2222	0.7419
2232	0.7381
2242	0.7338
2252	0.7295
2262	0.7252
2272	0.7188
2282	0.717
2292	0.7168
2302	0.7135
2312	0.7104
2322	0.7025
2332	0.7014
2342	0.7015
2352	0.6869
2362	0.6845
2372	0.6871
2382	0.6904
2392	0.6844
2402	0.6831
2412	0.6845
2422	0.6868
2432	0.6841
2442	0.6814
2452	0.6786
2462	0.6758
2472	0.6731
2482	0.6703
2492	0.6675
2502	0.6648
2512	0.662
2522	0.6593
2532	0.6565
2542	0.6537
2552	0.651
2562	0.6482
2572	0.6458
2582	0.644
2592	0.6424
2602	0.6399
2612	0.6356
2622	0.6307
2632	0.6251
2642	0.6177
2652	0.611
2662	0.6053
2672	0.5997
2682	0.5945
2692	0.5915
2702	0.5958
2712	0.6038
2722	0.6069
2732	0.6019
2742	0.6009
2752	0.6003
2762	0.5993
2772	0.5976
2782	0.5934
2792	0.5893
2802	0.5862
2812	0.5835
2822	0.5807
2832	0.5779
2842	0.5761
2852	0.5742
2862	0.573
2872	0.5731
2882	0.5728
2892	0.5723
2902	0.5706
2912	0.5682
2922	0.5642
2932	0.5598
2942	0.5552
2952	0.5515
2962	0.5481
2972	0.543
2982	0.5373
2992	0.5316
3002	0.5258
3012	0.5185
3022	0.5079
3032	0.5138
3042	0.4963
3052	0.4814
3062	0.4736
3072	0.4973
3082	0.5059
3092	0.507
3102	0.5054
3112	0.5024
3122	0.4988
3132	0.4942
3142	0.4878
3152	0.481
3162	0.4734
3172	0.4648
3182	0.4546
3192	0.4403
3202	0.4173
3212	0.3808
3222	0.3593
3232	0.3554
3242	0.4113
3252	0.4295
3262	0.4292
3272	0.4235
3282	0.4166
3292	0.4037
3302	0.3878
3312	0.3616
3322	0.3279
3332	0.2883
3342	0.186
3352	0.1307
3362	0.1301
3372	0.3291
3382	0.5258
3392	0.5346
3402	0.5288
3412	0.5041
3422	0.4738
3432	0.4238
3442	0.3376
3452	0.2791
3462	0.1819
3472	0.3327
3482	0.4892
3492	0.5321
3502	0.5404
3512	0.5385
3522	0.5343
3532	0.5272
3542	0.5211
3552	0.5164
3562	0.5123
3572	0.5083
3582	0.5038
3592	0.4994
3602	0.4952
3612	0.4911
3622	0.4877
3632	0.4845
3642	0.4813
3652	0.4781
3662	0.4759
3672	0.4737
3682	0.4715
3692	0.4693
3702	0.4661
3712	0.4629
3722	0.4608
3732	0.4596
3742	0.4564
3752	0.4537
3762	0.4516
3772	0.4489
3782	0.4462
3792	0.444
3802	0.4422
3812	0.4403
3822	0.4385
3832	0.4368
3842	0.436
3852	0.4372
3862	0.4382
3872	0.4366
3882	0.4342
3892	0.4317
3902	0.429
3912	0.4266
3922	0.4243
3932	0.4233
3942	0.4204
3952	0.419
3962	0.4177
3972	0.4164
3982	0.4151
3992	0.4139
4002	0.4126
