Infrared Spectrum: Ethyl .alpha.-bromophenylacetate
Formula: C 10 H 11 Br O 2
CAS: 2882-19-1
State: gas
Origin: EPA-IR VAPOR PHASE LIBRARY
1/CM	ABSORBANCE
549.8	0.005517
559.445	0.007507
569.09	0.008037
578.734	0.006347
588.379	0.004117
598.024	0.003097
607.669	0.002647
617.313	0.002707
626.958	0.003007
636.603	0.003497
646.248	0.004287
655.893	0.006117
665.537	0.009787
675.182	0.014997
684.827	0.023617
694.472	0.030917
704.116	0.026337
713.761	0.020367
723.406	0.013927
733.051	0.010667
742.695	0.008597
752.34	0.006297
761.985	0.005257
771.63	0.004677
781.275	0.004177
790.919	0.003197
800.564	0.002817
810.209	0.002757
819.854	0.002787
829.498	0.003467
839.143	0.004267
848.788	0.005247
858.433	0.005957
868.078	0.006127
877.722	0.004777
887.367	0.002867
897.012	0.002297
906.657	0.003077
916.301	0.003167
925.946	0.003297
935.591	0.004507
945.236	0.004777
954.88	0.003887
964.525	0.003067
974.17	0.002777
983.815	0.003247
993.46	0.004607
1003.1	0.007817
1012.75	0.015017
1022.39	0.029017
1032.04	0.035317
1041.68	0.022557
1051.33	0.011577
1060.97	0.007777
1070.62	0.007947
1080.26	0.007837
1089.91	0.010657
1099.55	0.015287
1109.2	0.018327
1118.84	0.028767
1128.49	0.059847
1138.13	0.082097
1147.78	0.053857
1157.42	0.033637
1167.07	0.031177
1176.71	0.035027
1186.36	0.034547
1196	0.040627
1205.64	0.056337
1215.29	0.049467
1224.93	0.036327
1234.58	0.040167
1244.22	0.049137
1253.87	0.049507
1263.51	0.044677
1273.16	0.036997
1282.8	0.027987
1292.45	0.026477
1302.09	0.026717
1311.74	0.019877
1321.38	0.013787
1331.03	0.011847
1340.67	0.012007
1350.32	0.010447
1359.96	0.008617
1369.61	0.013047
1379.25	0.010467
1388.9	0.006877
1398.54	0.006167
1408.18	0.005307
1417.83	0.004747
1427.47	0.004847
1437.12	0.005747
1446.76	0.008757
1456.41	0.011807
1466.05	0.009327
1475.7	0.007957
1485.34	0.006937
1494.99	0.009677
1504.63	0.005837
1514.28	0.002407
1523.92	0.002187
1533.57	0.002067
1543.21	0.001877
1552.86	0.001727
1562.5	0.001707
1572.15	0.001857
1581.79	0.002357
1591.44	0.002617
1601.08	0.002677
1610.73	0.002167
1620.37	0.001707
1630.01	0.001497
1639.66	0.001477
1649.3	0.001657
1658.95	0.001707
1668.59	0.001867
1678.24	0.002277
1687.88	0.002827
1697.53	0.003877
1707.17	0.005447
1716.82	0.007487
1726.46	0.012487
1736.11	0.029837
1745.75	0.070337
1755.4	0.068887
1765.04	0.063627
1774.69	0.038387
1784.33	0.016977
1793.98	0.009337
1803.62	0.005387
1813.27	0.003357
1822.91	0.002537
1832.55	0.002047
1842.2	0.001927
1851.84	0.001797
1861.49	0.002057
1871.13	0.002347
1880.78	0.002417
1890.42	0.002377
1900.07	0.001867
1909.71	0.001497
1919.36	0.001347
1929	0.001437
1938.65	0.001897
1948.29	0.001957
1957.94	0.001897
1967.58	0.001467
1977.23	0.0009874
1986.87	0.0009784
1996.52	0.0010318
2006.16	0.0010386
2015.81	0.0009255
2025.45	0.0009008
2035.1	0.0008358
2044.74	0.0008331
2054.38	0.0008526
2064.03	0.0008497
2073.67	0.000799
2083.32	0.0008911
2092.96	0.000848
2102.61	0.0008316
2112.25	0.0008659
2121.9	0.0007461
2131.54	0.0006697
2141.19	0.0006266
2150.83	0.0005769
2160.48	0.0005867
2170.12	0.0005796
2179.77	0.0005926
2189.41	0.0005967
2199.06	0.0005097
2208.7	0.0006091
2218.35	0.0004776
2227.99	0.0004897
2237.64	0.0006249
2247.28	0.0007077
2256.92	0.0006491
2266.57	0.0006948
2276.21	0.0007186
2285.86	0.0006744
2295.5	0.0006641
2305.15	0.000727
2314.79	0.000885
2324.44	0.0007929
2334.08	0.0009061
2343.73	0.0008926
2353.37	0.0007065
2363.02	0.0006738
2372.66	0.0006362
2382.31	0.000597
2391.95	0.0005866
2401.6	0.0005805
2411.24	0.0005957
2420.89	0.0005509
2430.53	0.0004699
2440.18	0.0005705
2449.82	0.0005275
2459.47	0.0006773
2469.11	0.0005585
2478.75	0.0005621
2488.4	0.0006365
2498.04	0.0005328
2507.69	0.0005398
2517.33	0.0004168
2526.98	0.0004341
2536.62	0.0004061
2546.27	0.0004544
2555.91	0.0005969
2565.56	0.0004794
2575.2	0.0004445
2584.85	0.0004306
2594.49	0.0004452
2604.14	0.0005541
2613.78	0.000467
2623.43	0.0004618
2633.07	0.0003744
2642.72	0.00034952
2652.36	0.00029167
2662.01	0.00030423
2671.65	0.00031236
2681.29	0.0004924
2690.94	0.0003937
2700.58	0.0003812
2710.23	0.00034909
2719.87	0.00034847
2729.52	0.000374
2739.16	0.0005449
2748.81	0.0005967
2758.45	0.0005706
2768.1	0.0006053
2777.74	0.0007406
2787.39	0.0007136
2797.03	0.0006434
2806.68	0.0006717
2816.32	0.0007779
2825.97	0.0010821
2835.61	0.0011553
2845.26	0.0011923
2854.9	0.001437
2864.55	0.001787
2874.19	0.002567
2883.84	0.003567
2893.48	0.003797
2903.12	0.004517
2912.77	0.005217
2922.41	0.005287
2932.06	0.006577
2941.7	0.010127
2951.35	0.010067
2960.99	0.008617
2970.64	0.011777
2980.28	0.018527
2989.93	0.022037
2999.57	0.014647
3009.22	0.010557
3018.86	0.008157
3028.51	0.009467
3038.15	0.011217
3047.8	0.007887
3057.44	0.007467
3067.09	0.013017
3076.73	0.014317
3086.38	0.008267
3096.02	0.006547
3105.67	0.004437
3115.31	0.002917
3124.95	0.001487
3134.6	0.0010692
3144.24	0.000779
3153.89	0.0009437
3163.53	0.0006397
3173.18	0.000638
3182.82	0.0006618
3192.47	0.0004545
3202.11	0.0003782
3211.76	0.000527
3221.4	0.0004204
3231.05	0.000256267
3240.69	0.000258644
3250.34	0.00034212
3259.98	8.5e-05
3269.63	0.000163
3279.27	0.00033637
3288.92	0.0002096
3298.56	0.0002351
3308.21	6.7e-05
3317.85	0.0001588
3327.49	0.0002104
3337.14	0.0004516
3346.78	0.0004057
3356.43	0.0001782
3366.07	0.00032438
3375.72	0.00031578
3385.36	0.0004329
3395.01	0.0004714
3404.65	0.0001621
3414.3	0.00029688
3423.94	0.00035133
3433.59	0.0005441
3443.23	0.0006109
3452.88	0.0005385
3462.52	0.0006625
3472.17	0.0007274
3481.81	0.0009726
3491.46	0.0006027
3501.1	0.0008398
3510.75	0.0007162
3520.39	0.0007286
3530.04	0.0006121
3539.68	0.0004767
3549.32	0.0004298
3558.97	0.0003952
3568.61	0.0001857
3578.26	0.00035142
3587.9	0.00026502
3597.55	0.0002073
3607.19	0.0002212
3616.84	0.000264602
3626.48	0.000457
3636.13	0.0004003
3645.77	0.0003614
3655.42	0.00025299
3665.06	0.0003848
3674.71	0.000395
3684.35	0.00028527
3694	0.00025209
3703.64	0.00032085
3713.29	0.0003593
3722.93	0.00011
3732.58	0.0003746
3742.22	0.00030442
3751.86	0.0003922
3761.51	0.0002208
3771.15	0.0003937
3780.8	0.0002436
3790.44	9.8e-05
3800.09	0.0001941
3809.73	0.0004269
3819.38	0.0001644
3829.02	0.0002204
3838.67	0.0003718
3848.31	0.00027892
3857.96	0.00029446
3867.6	0.0004315
3877.25	0.0002418
3886.89	0.000129
3896.54	0.0003183
3906.18	0.00035085
3915.83	0.0003529
3925.47	0.0002858
3935.12	0.0004011
3944.76	0.00027102
3954.41	0.00031053
3964.05	0.00031769
3973.69	9.9e-05
3983.34	0.0003749
3992.98	0.0003748
