Infrared Spectrum: Nonylcyclohexane
Formula: C 15 H 30
CAS: 2883-02-5
State: gas
Instrument: HP-GC/MS/IRD
Origin: NIST Mass Spectrometry Data Center
1/CM	ABSORBANCE
550	0.0002492
562	1.78e-05
574	5.34e-05
586	0.000178
598	0.0002047
610	0.0002937
622	0.0001869
634	0.000178
646	0.0001958
658	0.0002314
670	0.000267
682	0.000178
694	0.000356
706	0.0005429
718	0.0007743
730	0.0007654
742	0.0005963
754	0.0005073
766	0.0004361
778	0.0003738
790	0.0003471
802	0.0003471
814	0.0003293
826	0.0004005
838	0.0005785
850	0.000445
862	0.0004272
874	0.0005518
886	0.0007031
898	0.0006497
910	0.0004539
922	0.0004361
934	0.0003382
946	0.0003738
958	0.0005251
970	0.0004361
982	0.0003382
994	0.0002759
1006	0.0003293
1018	0.0003293
1030	0.000356
1042	0.0002848
1054	0.0002759
1066	0.0002848
1078	0.0003026
1090	0.0003293
1102	0.0003293
1114	0.0002403
1126	0.0002136
1138	0.0002403
1150	0.0002314
1162	0.0002136
1174	0.0002225
1186	0.0003204
1198	0.0002759
1210	0.0003026
1222	0.0003293
1234	0.0004183
1246	0.0005518
1258	0.0008633
1270	0.000979
1282	0.0008188
1294	0.0008099
1306	0.00089
1318	0.0008722
1330	0.0010146
1342	0.001513
1354	0.0016643
1366	0.0013795
1378	0.001157
1390	0.0009078
1402	0.0006942
1414	0.0007476
1426	0.0010858
1438	0.0024386
1450	0.0055625
1462	0.0055269
1474	0.0029192
1486	0.0011748
1498	0.0006408
1510	0.0004183
1522	0.0003026
1534	0.0002403
1546	0.0001691
1558	0.000178
1570	0.0001513
1582	0.0001157
1594	0.0001246
1606	9.79e-05
1618	0.0001068
1630	7.12e-05
1642	8.01e-05
1654	7.12e-05
1666	8.01e-05
1678	8.01e-05
1690	7.12e-05
1702	7.12e-05
1714	5.34e-05
1726	3.56e-05
1738	2.67e-05
1750	5.34e-05
1762	7.12e-05
1774	5.34e-05
1786	3.56e-05
1798	1.78e-05
1810	4.45e-05
1822	4.45e-05
1834	2.67e-05
1846	0
1858	3.56e-05
1870	4.45e-05
1882	1.78e-05
1894	2.67e-05
1906	3.56e-05
1918	1.78e-05
1930	2.67e-05
1942	1.78e-05
1954	2.67e-05
1966	1.78e-05
1978	8.9e-06
1990	0
2002	1.78e-05
2014	4.45e-05
2026	5.34e-05
2038	8.01e-05
2050	4.45e-05
2062	5.34e-05
2074	4.45e-05
2086	3.56e-05
2098	8.9e-06
2110	1.78e-05
2122	1.78e-05
2134	3.56e-05
2146	4.45e-05
2158	2.67e-05
2170	5.34e-05
2182	6.23e-05
2194	6.23e-05
2206	5.34e-05
2218	5.34e-05
2230	5.34e-05
2242	3.56e-05
2254	5.34e-05
2266	4.45e-05
2278	4.45e-05
2290	6.23e-05
2302	6.23e-05
2314	7.12e-05
2326	7.12e-05
2338	6.23e-05
2350	8.9e-05
2362	8.9e-05
2374	9.79e-05
2386	0.0001068
2398	8.9e-05
2410	9.79e-05
2422	8.01e-05
2434	7.12e-05
2446	6.23e-05
2458	6.23e-05
2470	8.01e-05
2482	0.0001157
2494	0.0001157
2506	0.0001246
2518	0.0001602
2530	0.0001958
2542	0.0001958
2554	0.0002225
2566	0.0002492
2578	0.0003026
2590	0.0003916
2602	0.0004717
2614	0.0004717
2626	0.0005518
2638	0.0006141
2650	0.0007743
2662	0.0009256
2674	0.0009434
2686	0.0008366
2698	0.0007743
2710	0.0007387
2722	0.0006853
2734	0.0007031
2746	0.0007832
2758	0.0008455
2770	0.0010057
2782	0.0012994
2794	0.0017444
2806	0.0021538
2818	0.0029192
2830	0.0045212
2842	0.0096031
2854	0.0244394
2866	0.0304736
2878	0.0184942
2890	0.0167053
2902	0.0240033
2914	0.0413494
2926	0.0782132
2938	0.0793613
2950	0.0343629
2962	0.018601
2974	0.0124511
2986	0.0057049
2998	0.0033108
3010	0.0022161
3022	0.0016376
3034	0.001335
3046	0.0010769
3058	0.0009256
3070	0.0007476
3082	0.0006319
3094	0.0005874
3106	0.0004717
3118	0.000445
3130	0.0003916
3142	0.0004094
3154	0.0004183
3166	0.0003382
3178	0.0002937
3190	0.0002403
3202	0.0002047
3214	0.000178
3226	0.000178
3238	0.0001602
3250	0.0001513
3262	0.0001335
3274	0.0001335
3286	8.9e-05
3298	0.0001157
3310	9.79e-05
3322	0.0001068
3334	8.01e-05
3346	0.0001335
3358	0.0001424
3370	9.79e-05
3382	0.0001068
3394	8.9e-05
3406	0.0001068
3418	5.34e-05
3430	8.01e-05
3442	8.01e-05
3454	8.9e-05
3466	9.79e-05
3478	6.23e-05
3490	7.12e-05
3502	5.34e-05
3514	7.12e-05
3526	5.34e-05
3538	5.34e-05
3550	6.23e-05
3562	6.23e-05
3574	6.23e-05
3586	8.01e-05
3598	8.01e-05
3610	7.12e-05
3622	0.0001157
3634	0.0001246
3646	0.0001424
3658	0.0001335
3670	0.0001068
3682	0.0001513
3694	0.0001246
3706	0.0001335
3718	8.9e-05
3730	0.0001246
3742	0.0001157
3754	0.0001157
3766	0.0001602
3778	0.0001513
3790	0.0001513
3802	0.0001335
3814	0.0001691
3826	0.0001691
3838	0.0001335
