Infrared Spectrum: 1,6-Heptadien-4-ol
Formula: C 7 H 12 O
CAS: 2883-45-6
State: gas
Instrument: HP-GC/MS/IRD
Origin: NIST Mass Spectrometry Data Center
1/CM	ABSORBANCE
550	0.0008547
562	0.0004444
574	0.0003399
586	0.000473
598	0.0007095
610	0.0009823
622	0.0011374
634	0.001166
646	0.0010604
658	0.001166
670	0.0011814
682	0.0009097
694	0.0006094
706	0.0005357
718	0.0002519
730	0.000121
742	5.72e-05
754	2.75e-05
766	0.0001155
778	6.05e-05
790	0.0001265
802	0.0002695
814	0.000517
826	0.0008987
838	0.0013794
850	0.001738
862	0.0022528
874	0.0026312
886	0.0029425
898	0.0043813
910	0.0088693
922	0.0107404
934	0.0063184
946	0.0032549
958	0.0028622
970	0.0037873
982	0.0058333
994	0.0078595
1006	0.0076615
1018	0.007117
1030	0.0074756
1042	0.0071159
1054	0.0061831
1066	0.0051337
1078	0.004125
1090	0.003333
1102	0.002783
1114	0.0025311
1126	0.0023452
1138	0.001991
1150	0.0015829
1162	0.0013684
1174	0.001452
1186	0.0018249
1198	0.0023199
1210	0.002607
1222	0.0026587
1234	0.0026642
1246	0.0026818
1258	0.0025696
1270	0.0025619
1282	0.0025476
1294	0.0023166
1306	0.0020141
1318	0.0017237
1330	0.0017017
1342	0.0020933
1354	0.0028721
1366	0.0032978
1378	0.0032494
1390	0.0028677
1402	0.0023793
1414	0.0023507
1426	0.0028963
1438	0.0033231
1450	0.0023562
1462	0.0010252
1474	0.0004895
1486	0.0003245
1498	0.0002387
1510	0.000231
1522	0.0001936
1534	0.0001859
1546	0.000176
1558	0.0001716
1570	0.0001837
1582	0.0002475
1594	0.0003267
1606	0.0005346
1618	0.0011187
1630	0.0028468
1642	0.003949
1654	0.0021263
1666	0.0005456
1678	0.0002288
1690	0.0001375
1702	6.93e-05
1714	5.06e-05
1726	6.6e-06
1738	0
1750	1.98e-05
1762	9.9e-06
1774	3.41e-05
1786	2.31e-05
1798	7.81e-05
1810	0.0002024
1822	0.0005654
1834	0.0010417
1846	0.0010274
1858	0.0005566
1870	0.0002068
1882	0.0001452
1894	0.0001188
1906	0.0001122
1918	7.37e-05
1930	4.95e-05
1942	5.72e-05
1954	6.38e-05
1966	8.8e-05
1978	0.0001397
1990	0.0001221
2002	8.47e-05
2014	5.17e-05
2026	5.39e-05
2038	4.51e-05
2050	4.18e-05
2062	6.27e-05
2074	4.84e-05
2086	4.4e-05
2098	6.71e-05
2110	4.18e-05
2122	5.5e-05
2134	4.73e-05
2146	4.4e-05
2158	5.83e-05
2170	7.37e-05
2182	4.4e-05
2194	3.3e-05
2206	5.06e-05
2218	4.73e-05
2230	8.03e-05
2242	4.4e-05
2254	4.62e-05
2266	3.96e-05
2278	7.15e-05
2290	7.92e-05
2302	6.27e-05
2314	6.82e-05
2326	4.29e-05
2338	5.72e-05
2350	4.73e-05
2362	8.8e-05
2374	5.72e-05
2386	5.72e-05
2398	3.96e-05
2410	6.82e-05
2422	6.93e-05
2434	6.49e-05
2446	5.94e-05
2458	6.38e-05
2470	6.16e-05
2482	4.62e-05
2494	7.48e-05
2506	7.04e-05
2518	6.49e-05
2530	8.36e-05
2542	9.35e-05
2554	0.0001078
2566	0.0001045
2578	0.0001122
2590	0.0001188
2602	0.000121
2614	0.0001056
2626	0.0001067
2638	0.0001199
2650	0.000154
2662	0.0001815
2674	0.0002222
2686	0.0002574
2698	0.0002882
2710	0.0002024
2722	0.0002145
2734	0.0002024
2746	0.0002398
2758	0.0002827
2770	0.0003135
2782	0.00033
2794	0.0003927
2806	0.0005291
2818	0.0007854
2830	0.001254
2842	0.0018535
2854	0.0025256
2866	0.0032714
2878	0.0039259
2890	0.0046035
2902	0.0060027
2914	0.0078716
2926	0.0089375
2938	0.0081917
2950	0.0054802
2962	0.0034056
2974	0.0035057
2986	0.0043714
2998	0.0042636
3010	0.0036982
3022	0.0026862
3034	0.0016907
3046	0.0015642
3058	0.0021637
3070	0.0037675
3082	0.0065109
3094	0.0054615
3106	0.0017974
3118	0.0006688
3130	0.0004224
3142	0.0003047
3154	0.0002629
3166	0.000209
3178	0.0001375
3190	9.9e-05
3202	6.49e-05
3214	4.84e-05
3226	6.82e-05
3238	7.59e-05
3250	9.35e-05
3262	0.0001188
3274	4.95e-05
3286	5.39e-05
3298	5.72e-05
3310	0.0001001
3322	6.16e-05
3334	0.0001166
3346	8.14e-05
3358	8.03e-05
3370	4.4e-05
3382	6.93e-05
3394	0.0001287
3406	0.00011
3418	0.0001353
3430	0.0001111
3442	0.0001232
3454	8.47e-05
3466	0.0001199
3478	0.0001001
3490	0.0001199
3502	0.0001221
3514	0.0001309
3526	0.0001617
3538	0.0002112
3550	0.000209
3562	0.0002376
3574	0.0002904
3586	0.0004015
3598	0.0007161
3610	0.0014003
3622	0.0020174
3634	0.0019536
3646	0.0017567
3658	0.0013904
3670	0.00077
3682	0.0003718
3694	0.0002893
3706	0.0001683
3718	0.0001287
3730	0.0001045
3742	0.0001078
3754	0.0001408
3766	0.0001166
3778	0.0001397
3790	0.0001111
3802	9.79e-05
3814	9.13e-05
3826	0.00011
3838	0.0001331
