Infrared Spectrum: N,N'-Diallyl-D-tartaridiamide
Formula: C 10 H 16 N 2 O 4
CAS: 28843-34-7
State: gas
Origin: EPA-IR VAPOR PHASE LIBRARY
1/CM	ABSORBANCE
549.8	0.012895
559.445	0.013045
569.09	0.012995
578.735	0.013055
588.38	0.014105
598.025	0.015225
607.67	0.015305
617.315	0.014445
626.96	0.013935
636.605	0.013115
646.251	0.012875
655.896	0.011785
665.541	0.010815
675.186	0.010165
684.831	0.009395
694.476	0.008235
704.121	0.007145
713.766	0.006035
723.411	0.005425
733.056	0.004675
742.701	0.004125
752.346	0.003785
761.991	0.003325
771.636	0.003315
781.281	0.002985
790.926	0.003035
800.571	0.002895
810.216	0.003045
819.861	0.003495
829.507	0.004065
839.152	0.004055
848.797	0.004075
858.442	0.004375
868.087	0.004755
877.732	0.005245
887.377	0.006065
897.022	0.007645
906.667	0.010135
916.312	0.014835
925.957	0.020735
935.602	0.015725
945.247	0.009645
954.892	0.007815
964.537	0.007915
974.182	0.009415
983.827	0.012185
993.472	0.013785
1003.12	0.012065
1012.76	0.009985
1022.41	0.009295
1032.05	0.009575
1041.7	0.009705
1051.34	0.010785
1060.99	0.013725
1070.63	0.019695
1080.28	0.029545
1089.92	0.036325
1099.57	0.031945
1109.21	0.025715
1118.86	0.017875
1128.5	0.012075
1138.15	0.009935
1147.79	0.009385
1157.44	0.008585
1167.08	0.008725
1176.73	0.010215
1186.37	0.012015
1196.02	0.062265
1205.66	0.051225
1215.31	0.035905
1224.95	0.028635
1234.6	0.027905
1244.24	0.025705
1253.89	0.023865
1263.53	0.026815
1273.18	0.028665
1282.82	0.023185
1292.47	0.017525
1302.11	0.015185
1311.76	0.013665
1321.4	0.011535
1331.05	0.011265
1340.69	0.011545
1350.34	0.010805
1359.98	0.010965
1369.63	0.012125
1379.27	0.014605
1388.92	0.018555
1398.56	0.022695
1408.21	0.027655
1417.85	0.033265
1427.5	0.033365
1437.14	0.028215
1446.79	0.022835
1456.43	0.017785
1466.08	0.015285
1475.73	0.015105
1485.37	0.017645
1495.02	0.024695
1504.66	0.039515
1514.31	0.063895
1523.95	0.083485
1533.6	0.074855
1543.24	0.051025
1552.89	0.034495
1562.53	0.025965
1572.18	0.018455
1581.82	0.012265
1591.47	0.009195
1601.11	0.008195
1610.76	0.008305
1620.4	0.009425
1630.05	0.011955
1639.69	0.017305
1649.34	0.022855
1658.98	0.031635
1668.63	0.065195
1678.27	0.097595
1687.92	0.074155
1697.56	0.072005
1707.21	0.043475
1716.85	0.020525
1726.5	0.012555
1736.14	0.008545
1745.79	0.006185
1755.43	0.004745
1765.08	0.003635
1774.72	0.002915
1784.37	0.002435
1794.01	0.002105
1803.66	0.001825
1813.3	0.001675
1822.95	0.001635
1832.59	0.001785
1842.24	0.001975
1851.88	0.002245
1861.53	0.002285
1871.17	0.001755
1880.82	0.0013709
1890.46	0.0011872
1900.11	0.0011334
1909.75	0.0010444
1919.4	0.0010061
1929.04	0.0009323
1938.69	0.0008683
1948.33	0.0008727
1957.98	0.0009304
1967.62	0.0009703
1977.27	0.0009124
1986.91	0.0008472
1996.56	0.0008248
2006.2	0.0008086
2015.85	0.0007849
2025.49	0.0007797
2035.14	0.0006988
2044.78	0.0007479
2054.43	0.0007268
2064.07	0.0007914
2073.72	0.0007342
2083.36	0.0007404
2093.01	0.0007066
2102.65	0.0007659
2112.3	0.0006991
2121.94	0.0007578
2131.59	0.0007669
2141.23	0.0007663
2150.88	0.0007843
2160.52	0.0008173
2170.17	0.000735
2179.81	0.0007739
2189.46	0.0007347
2199.1	0.0007529
2208.75	0.0007518
2218.39	0.0007249
2228.04	0.0006853
2237.68	0.0006226
2247.33	0.0006827
2256.97	0.0006285
2266.62	0.0006044
2276.26	0.0006572
2285.91	0.0006717
2295.55	0.0006481
2305.2	0.0006548
2314.84	0.0006705
2324.49	0.000702
2334.13	0.0006397
2343.78	0.00068
2353.42	0.0006841
2363.07	0.0006881
2372.72	0.0007023
2382.36	0.0006525
2392.01	0.0005899
2401.65	0.0006423
2411.3	0.0007202
2420.94	0.0006582
2430.59	0.0006841
2440.23	0.0007053
2449.88	0.000698
2459.52	0.0006855
2469.17	0.0006952
2478.81	0.0007208
2488.46	0.0007258
2498.1	0.0007614
2507.75	0.0008522
2517.39	0.0008003
2527.04	0.0007957
2536.68	0.0007084
2546.33	0.0007551
2555.97	0.0007387
2565.62	0.0007868
2575.26	0.0007496
2584.91	0.0007236
2594.55	0.0007116
2604.2	0.0006391
2613.84	0.000714
2623.49	0.0006614
2633.13	0.0006783
2642.78	0.0007224
2652.42	0.0007987
2662.07	0.0008174
2671.71	0.0008512
2681.36	0.0008382
2691	0.0008287
2700.65	0.0009068
2710.29	0.0009577
2719.94	0.0009941
2729.58	0.0010233
2739.23	0.0010544
2748.87	0.001131
2758.52	0.0011321
2768.16	0.0012028
2777.81	0.0012664
2787.45	0.001371
2797.1	0.001435
2806.74	0.001625
2816.39	0.001645
2826.03	0.001985
2835.68	0.002435
2845.32	0.003015
2854.97	0.003835
2864.61	0.004825
2874.26	0.005945
2883.9	0.007495
2893.55	0.009055
2903.19	0.009315
2912.84	0.011125
2922.48	0.014195
2932.13	0.013405
2941.77	0.010005
2951.42	0.007355
2961.06	0.005705
2970.71	0.005295
2980.35	0.005315
2990	0.006245
2999.64	0.006235
3009.29	0.005535
3018.93	0.006145
3028.58	0.005835
3038.22	0.004435
3047.87	0.004365
3057.51	0.005085
3067.16	0.006305
3076.8	0.007845
3086.45	0.009945
3096.09	0.011145
3105.74	0.007165
3115.38	0.005065
3125.03	0.004285
3134.67	0.004015
3144.32	0.003895
3153.96	0.003865
3163.61	0.003895
3173.25	0.004075
3182.9	0.004235
3192.54	0.004505
3202.19	0.004865
3211.83	0.005265
3221.48	0.005695
3231.12	0.006315
3240.77	0.006905
3250.41	0.007615
3260.06	0.008375
3269.7	0.009275
3279.35	0.010475
3289	0.011795
3298.64	0.012885
3308.29	0.013855
3317.93	0.014645
3327.58	0.015685
3337.22	0.017525
3346.87	0.019525
3356.51	0.020765
3366.16	0.020455
3375.8	0.019435
3385.45	0.018505
3395.09	0.019115
3404.74	0.021195
3414.38	0.022545
3424.03	0.029475
3433.67	0.038175
3443.32	0.022805
3452.96	0.012915
3462.61	0.009205
3472.25	0.007115
3481.9	0.005985
3491.54	0.005265
3501.19	0.005365
3510.83	0.006165
3520.48	0.006745
3530.12	0.006105
3539.77	0.004945
3549.41	0.004175
3559.06	0.003245
3568.7	0.002885
3578.35	0.002335
3587.99	0.001985
3597.64	0.001755
3607.28	0.001455
3616.93	0.0012927
3626.57	0.0009049
3636.22	0.000734
3645.86	0.0006821
3655.51	0.00050038
3665.15	0.000341
3674.8	0.000279
3684.44	0.000225
3694.09	0.000303
3703.73	0.000241
3713.38	6.4e-05
3723.02	0.000236
3732.67	0.00026
3742.31	0.0003475
3751.96	0.000156
3761.6	0.000174
3771.25	0.00029
3780.89	0.000194
3790.54	0.00021
3800.18	0.000208
3809.83	9.1e-05
3819.47	4.8e-05
3829.12	6.2e-05
3838.76	0.000105
3848.41	0.000195
3858.05	2.8e-05
3867.7	2.6e-05
3877.34	0.000188
3886.99	0.000158
3896.63	0.00017
3906.28	0.000135
3915.92	0.000219
3925.57	0.000177
3935.21	6.9e-05
3944.86	0.000188
3954.5	0.000193
3964.15	0.0002
3973.79	0.000267
3983.44	0.000245
3993.08	0.000331
