Infrared Spectrum: 3-Chlorobenzenesulphonyl chloride
Formula: C 6 H 4 Cl 2 O 2 S
CAS: 2888-06-4
State: gas
Origin: EPA-IR VAPOR PHASE LIBRARY
1/CM	ABSORBANCE
549.8	0.166381
559.445	0.229691
569.09	0.059001
578.734	0.068741
588.379	0.209331
598.024	0.345851
607.669	0.158671
617.313	0.037271
626.958	0.015761
636.603	0.011301
646.248	0.013731
655.893	0.031111
665.537	0.151531
675.182	0.163191
684.827	0.045711
694.472	0.013571
704.116	0.006791
713.761	0.004121
723.406	0.004021
733.051	0.005081
742.695	0.006031
752.34	0.008261
761.985	0.008311
771.63	0.022401
781.275	0.061441
790.919	0.068231
800.564	0.038501
810.209	0.013581
819.854	0.005381
829.498	0.003421
839.143	0.002421
848.788	0.002081
858.433	0.003191
868.078	0.004851
877.722	0.008891
887.367	0.014151
897.012	0.007521
906.657	0.002911
916.301	0.002561
925.946	0.001721
935.591	0.0014495
945.236	0.0012494
954.88	0.0013899
964.525	0.002451
974.17	0.003081
983.815	0.002811
993.46	0.004851
1003.1	0.003691
1012.75	0.003001
1022.39	0.003331
1032.04	0.002291
1041.68	0.002861
1051.33	0.005221
1060.97	0.014481
1070.62	0.034281
1080.26	0.038581
1089.91	0.031181
1099.55	0.046511
1109.2	0.051721
1118.84	0.052591
1128.49	0.051441
1138.13	0.021461
1147.78	0.016891
1157.42	0.025851
1167.07	0.057921
1176.71	0.174971
1186.36	0.298581
1196	0.232461
1205.64	0.116551
1215.29	0.040511
1224.93	0.017891
1234.58	0.008541
1244.22	0.006151
1253.87	0.005681
1263.51	0.009221
1273.16	0.008961
1282.8	0.012751
1292.45	0.018421
1302.09	0.012961
1311.74	0.006711
1321.38	0.004971
1331.03	0.005541
1340.67	0.007741
1350.32	0.008691
1359.96	0.010491
1369.61	0.022281
1379.25	0.046241
1388.9	0.105371
1398.54	0.256141
1408.18	0.246341
1417.83	0.116791
1427.47	0.059551
1437.12	0.023721
1446.76	0.023301
1456.41	0.053001
1466.05	0.061271
1475.7	0.023791
1485.34	0.011851
1494.99	0.007311
1504.63	0.004231
1514.28	0.003201
1523.92	0.002901
1533.57	0.003471
1543.21	0.004441
1552.86	0.007721
1562.5	0.014471
1572.15	0.031561
1581.79	0.045001
1591.44	0.022021
1601.08	0.007361
1610.73	0.003471
1620.37	0.002341
1630.01	0.001611
1639.66	0.0013462
1649.3	0.0013938
1658.95	0.001531
1668.59	0.001801
1678.24	0.001941
1687.88	0.003941
1697.53	0.005481
1707.17	0.002691
1716.82	0.0013638
1726.46	0.0013013
1736.11	0.0014349
1745.75	0.002191
1755.4	0.003241
1765.04	0.004491
1774.69	0.004751
1784.33	0.002961
1793.98	0.002441
1803.62	0.002301
1813.27	0.002181
1822.91	0.002491
1832.55	0.002281
1842.2	0.001581
1851.84	0.001681
1861.49	0.002311
1871.13	0.003031
1880.78	0.004671
1890.42	0.004311
1900.07	0.002001
1909.71	0.0013718
1919.36	0.0013915
1929	0.0014297
1938.65	0.002301
1948.29	0.003301
1957.94	0.002571
1967.58	0.001621
1977.23	0.0011804
1986.87	0.0009899
1996.52	0.0006973
2006.16	0.0006876
2015.81	0.0006172
2025.45	0.00056575
2035.1	0.0005819
2044.74	0.00052127
2054.38	0.0006156
2064.03	0.00068
2073.67	0.0006123
2083.32	0.0006859
2092.96	0.0006651
2102.61	0.00053812
2112.25	0.0004358
2121.9	0.00055846
2131.54	0.0005444
2141.19	0.00046797
2150.83	0.0007431
2160.48	0.0007248
2170.12	0.0007372
2179.77	0.0010045
2189.41	0.0009021
2199.06	0.0010145
2208.7	0.000916
2218.35	0.0006821
2227.99	0.000812
2237.64	0.0008978
2247.28	0.0011461
2256.92	0.0012533
2266.57	0.0012416
2276.21	0.0011453
2285.86	0.0011479
2295.5	0.0011773
2305.15	0.0011963
2314.79	0.00098
2324.44	0.0011745
2334.08	0.001551
2343.73	0.001661
2353.37	0.001731
2363.02	0.001801
2372.66	0.001921
2382.31	0.0013887
2391.95	0.0009904
2401.6	0.0008458
2411.24	0.0006931
2420.89	0.0007574
2430.53	0.0008515
2440.18	0.0007825
2449.82	0.0006254
2459.47	0.0007064
2469.11	0.0009279
2478.75	0.0007646
2488.4	0.0007936
2498.04	0.0008558
2507.69	0.0010982
2517.33	0.0014609
2526.98	0.001661
2536.62	0.0012492
2546.27	0.0014159
2555.91	0.001861
2565.56	0.002551
2575.2	0.002611
2584.85	0.002331
2594.49	0.001561
2604.14	0.0011035
2613.78	0.0007707
2623.43	0.000753
2633.07	0.0009771
2642.72	0.0009865
2652.36	0.0010513
2662.01	0.0009755
2671.65	0.0010335
2681.29	0.0010635
2690.94	0.0009867
2700.58	0.0009839
2710.23	0.000814
2719.87	0.0006307
2729.52	0.0006491
2739.16	0.0008346
2748.81	0.0010296
2758.45	0.0011146
2768.1	0.0007583
2777.74	0.0008396
2787.39	0.0010477
2797.03	0.0010952
2806.68	0.000477979
2816.32	0.0008345
2825.97	0.000889
2835.61	0.0007451
2845.26	0.0011429
2854.9	0.0010902
2864.55	0.0008444
2874.19	0.0007362
2883.84	0.000735
2893.48	0.00050427
2903.12	0.000622
2912.77	0.0007965
2922.41	0.0006865
2932.06	0.0007483
2941.7	0.0006057
2951.35	0.0005891
2960.99	0.0006682
2970.64	0.00055375
2980.28	0.0006258
2989.93	0.0009721
2999.57	0.0007763
3009.22	0.0006848
3018.86	0.0012034
3028.51	0.0007482
3038.15	0.0010304
3047.8	0.001521
3057.44	0.003511
3067.09	0.009521
3076.73	0.016591
3086.38	0.012631
3096.02	0.004141
3105.67	0.001921
3115.31	0.0013237
3124.95	0.0012166
3134.6	0.0010353
3144.24	0.0014073
3153.89	0.001661
3163.53	0.0013751
3173.18	0.0009125
3182.82	0.000225
3192.47	0.000306
3202.11	0.0004189
3211.76	0.0005764
3221.4	0.0007818
3231.05	0.0004563
3240.69	0.000334
3250.34	0.000292
3259.98	0.00046445
3269.63	0.000159
3279.27	0.0004328
3288.92	0.0004051
3298.56	0.0004314
3308.21	0.000258
3317.85	0.00056085
3327.49	0.0003885
3337.14	0.0004043
3346.78	0.0004461
3356.43	0.0003995
3366.07	0.0004283
3375.72	0.0004438
3385.36	0.000351
3395.01	0.0004606
3404.65	0.00046928
3414.3	0.000335
3423.94	0.000365
3433.59	0.000782
3443.23	0.000361
3452.88	0.0007265
3462.52	0.00056805
3472.17	0.000225
3481.81	0.0004172
3491.46	0.000259
3501.1	0.000159
3510.75	0.000368
3520.39	0.000319
3530.04	0.00036
3539.68	0.00052559
3549.32	0.0003952
3558.97	0.00049916
3568.61	0.0006199
3578.26	0.00049212
3587.9	0.000332
3597.55	0.0006592
3607.19	0.000117
3616.84	0.0007488
3626.48	0.00026
3636.13	0.00050433
3645.77	0.0003904
3655.42	0.00049536
3665.06	0.0006329
3674.71	0.000362
3684.35	0.00049134
3694	0.0005914
3703.64	0.0006303
3713.29	0.0007306
3722.93	0.000298
3732.58	0.000176
3742.22	0.0008453
3751.86	0.0008844
3761.51	0.0008371
3771.15	0.0006197
3780.8	0.00051242
3790.44	0.000322
3800.09	0.000258
3809.73	0.0005978
3819.38	0.00050365
3829.02	0.0006645
3838.67	0.0004529
3848.31	0.0005236
3857.96	0.0005418
3867.6	0.00055307
3877.25	0.000697
3886.89	0.0007593
3896.54	0.0005405
3906.18	0.00055994
3915.83	0.00046921
3925.47	0.0007253
3935.12	0.000217
3944.76	0.00050159
3954.41	0.000475749
3964.05	0.000126
3973.69	0.0006136
3983.34	0.0006458
3992.98	0.000202
