Infrared Spectrum: 4-Iododiphenyl ether
Formula: C 12 H 9 I O
CAS: 28896-49-3
State: gas
Origin: EPA-IR VAPOR PHASE LIBRARY
1/CM	ABSORBANCE
549.8	0.001908
559.445	0.001398
569.09	0.001908
578.734	0.003658
588.379	0.005198
598.024	0.003238
607.669	0.003498
617.313	0.005378
626.958	0.003498
636.603	0.003508
646.248	0.003338
655.893	0.003968
665.537	0.005408
675.182	0.009808
684.827	0.021358
694.472	0.026688
704.116	0.015518
713.761	0.008898
723.406	0.008028
733.051	0.015238
742.695	0.031698
752.34	0.043648
761.985	0.025318
771.63	0.014818
781.275	0.012808
790.919	0.012768
800.564	0.013108
810.209	0.017088
819.854	0.024418
829.498	0.029548
839.143	0.023598
848.788	0.016208
858.433	0.026968
868.078	0.039338
877.722	0.009518
887.367	0.005238
897.012	0.005638
906.657	0.005468
916.301	0.003288
925.946	0.002118
935.591	0.002168
945.236	0.002088
954.88	0.001908
964.525	0.002308
974.17	0.003038
983.815	0.003998
993.46	0.008298
1003.1	0.050758
1012.75	0.038118
1022.39	0.014588
1032.04	0.004798
1041.68	0.004878
1051.33	0.024068
1060.97	0.028758
1070.62	0.010868
1080.26	0.007768
1089.91	0.007658
1099.55	0.007538
1109.2	0.006848
1118.84	0.005248
1128.49	0.004938
1138.13	0.005388
1147.78	0.007558
1157.42	0.016778
1167.07	0.062338
1176.71	0.020638
1186.36	0.018268
1196	0.026548
1205.64	0.053128
1215.29	0.108428
1224.93	0.165088
1234.58	0.298498
1244.22	0.437398
1253.87	0.182618
1263.51	0.106798
1273.16	0.059778
1282.8	0.043898
1292.45	0.033978
1302.09	0.021538
1311.74	0.013688
1321.38	0.011698
1331.03	0.010658
1340.67	0.009738
1350.32	0.006578
1359.96	0.004838
1369.61	0.004798
1379.25	0.006058
1388.9	0.007898
1398.54	0.007508
1408.18	0.007608
1417.83	0.013358
1427.47	0.011018
1437.12	0.008528
1446.76	0.012208
1456.41	0.026388
1466.05	0.061868
1475.7	0.238488
1485.34	0.321598
1494.99	0.125478
1504.63	0.034598
1514.28	0.015568
1523.92	0.009918
1533.57	0.007948
1543.21	0.008448
1552.86	0.014888
1562.5	0.036428
1572.15	0.067448
1581.79	0.093608
1591.44	0.051478
1601.08	0.043038
1610.73	0.018958
1620.37	0.009538
1630.01	0.006998
1639.66	0.006208
1649.3	0.005118
1658.95	0.003538
1668.59	0.002898
1678.24	0.002628
1687.88	0.002608
1697.53	0.002908
1707.17	0.003188
1716.82	0.003458
1726.46	0.003328
1736.11	0.002848
1745.75	0.003008
1755.4	0.004008
1765.04	0.003318
1774.69	0.003388
1784.33	0.002448
1793.98	0.001668
1803.62	0.001358
1813.27	0.001308
1822.91	0.001488
1832.55	0.001968
1842.2	0.002848
1851.84	0.003488
1861.49	0.004298
1871.13	0.005558
1880.78	0.005518
1890.42	0.003768
1900.07	0.002378
1909.71	0.002438
1919.36	0.003228
1929	0.003668
1938.65	0.003598
1948.29	0.003468
1957.94	0.002208
1967.58	0.001988
1977.23	0.002258
1986.87	0.002908
1996.52	0.003498
2006.16	0.003528
2015.81	0.003818
2025.45	0.004678
2035.1	0.003858
2044.74	0.002968
2054.38	0.003408
2064.03	0.003698
2073.67	0.002268
2083.32	0.001868
2092.96	0.001528
2102.61	0.001308
2112.25	0.0011063
2121.9	0.0009067
2131.54	0.000661
2141.19	0.000655
2150.83	0.0005663
2160.48	0.0006738
2170.12	0.0007686
2179.77	0.0006736
2189.41	0.0007088
2199.06	0.0007415
2208.7	0.0007131
2218.35	0.0007676
2227.99	0.0009039
2237.64	0.0010957
2247.28	0.001188
2256.92	0.001298
2266.57	0.001418
2276.21	0.001198
2285.86	0.0008952
2295.5	0.0008828
2305.15	0.0011189
2314.79	0.001378
2324.44	0.001678
2334.08	0.001958
2343.73	0.001948
2353.37	0.002158
2363.02	0.001808
2372.66	0.001728
2382.31	0.002058
2391.95	0.002768
2401.6	0.003818
2411.24	0.003968
2420.89	0.003668
2430.53	0.004148
2440.18	0.004218
2449.82	0.003118
2459.47	0.002648
2469.11	0.002238
2478.75	0.001798
2488.4	0.001788
2498.04	0.001348
2507.69	0.0011108
2517.33	0.0009836
2526.98	0.0011077
2536.62	0.001218
2546.27	0.001458
2555.91	0.001218
2565.56	0.001188
2575.2	0.0008819
2584.85	0.0007575
2594.49	0.0006252
2604.14	0.0006104
2613.78	0.0005551
2623.43	0.0007588
2633.07	0.0008017
2642.72	0.0007965
2652.36	0.0006885
2662.01	0.0004604
2671.65	0.0005589
2681.29	0.0006287
2690.94	0.0005985
2700.58	0.0006904
2710.23	0.000502
2719.87	0.0005281
2729.52	0.0005938
2739.16	0.0005907
2748.81	0.0004498
2758.45	0.000556
2768.1	0.0006768
2777.74	0.000779
2787.39	0.000778
2797.03	0.000912
2806.68	0.001258
2816.32	0.001258
2825.97	0.001338
2835.61	0.001168
2845.26	0.0009019
2854.9	0.0006584
2864.55	0.0008882
2874.19	0.0008803
2883.84	0.0005264
2893.48	0.0007404
2903.12	0.0006412
2912.77	0.0005893
2922.41	0.000335
2932.06	0.0004752
2941.7	0.0004928
2951.35	0.0005678
2960.99	0.0005804
2970.64	0.0005286
2980.28	0.0005448
2989.93	0.0006861
2999.57	0.001238
3009.22	0.002448
3018.86	0.005208
3028.51	0.008638
3038.15	0.013998
3047.8	0.016568
3057.44	0.013658
3067.09	0.016828
3076.73	0.025478
3086.38	0.022098
3096.02	0.014428
3105.67	0.008338
3115.31	0.003338
3124.95	0.001588
3134.6	0.001005
3144.24	0.0006423
3153.89	0.0006196
3163.53	0.0005584
3173.18	0.0004867
3182.82	0.0004205
3192.47	0.0004287
3202.11	0.0002811
3211.76	0.0003581
3221.4	7.18e-05
3231.05	0.0002716
3240.69	0.0003732
3250.34	0.0002995
3259.98	0.0003528
3269.63	0.0001121
3279.27	0.00023435
3288.92	0.0003334
3298.56	0.0001085
3308.21	0.000278
3317.85	0.00019351
3327.49	0.0002776
3337.14	0.00024493
3346.78	0.00020083
3356.43	0.00017111
3366.07	0.0003189
3375.72	0.0001328
3385.36	0.00023694
3395.01	0.0002873
3404.65	0.000316
3414.3	0.00020532
3423.94	0.0003556
3433.59	0.00023211
3443.23	0.0001229
3452.88	0.0003247
3462.52	0.00018993
3472.17	0.00018049
3481.81	0.0002942
3491.46	0.00017967
3501.1	7.91e-05
3510.75	0.0002645
3520.39	0.00020457
3530.04	0.00021483
3539.68	0.00021815
3549.32	0.0003256
3558.97	0.000294
3568.61	0.0004258
3578.26	0.0004369
3587.9	0.0005468
3597.55	0.0003614
3607.19	0.0004317
3616.84	0.0004792
3626.48	0.0007878
3636.13	0.0003937
3645.77	0.0004962
3655.42	0.0003565
3665.06	0.0005765
3674.71	0.0007529
3684.35	0.000727
3694	0.0005623
3703.64	0.0005507
3713.29	0.0007245
3722.93	0.000519
3732.58	0.0002842
3742.22	0.0003878
3751.86	0.0003932
3761.51	0.0003327
3771.15	0.0005629
3780.8	0.00015514
3790.44	0.000372
3800.09	0.0003815
3809.73	0.0003922
3819.38	0.0002651
3829.02	0.000565
3838.67	0.0003413
3848.31	0.0004997
3857.96	0.0004623
3867.6	0.0005922
3877.25	0.0004625
3886.89	0.0005561
3896.54	0.0003918
3906.18	0.0002927
3915.83	0.0003536
3925.47	0.0005127
3935.12	0.0004246
3944.76	0.0004326
3954.41	0.0005262
3964.05	0.0003399
3973.69	0.00019126
3983.34	0.0003734
3992.98	0.0005148
