Infrared Spectrum: 2-Chloro-3-cyano-6-methylpyridine
Formula: C 7 H 5 Cl N 2
CAS: 28900-10-9
State: gas
Origin: EPA-IR VAPOR PHASE LIBRARY
1/CM	ABSORBANCE
549.8	0.0021339
559.445	0.00264
569.09	0.00421
578.734	0.00558
588.379	0.00495
598.024	0.00493
607.669	0.0026
617.313	0.0014569
626.958	0.0014791
636.603	0.00124417
646.248	0.00122695
655.893	0.0018754
665.537	0.00372
675.182	0.00922
684.827	0.01111
694.472	0.00534
704.116	0.00307
713.761	0.0020216
723.406	0.00323
733.051	0.00459
742.695	0.00824
752.34	0.00411
761.985	0.0021038
771.63	0.0021443
781.275	0.0017145
790.919	0.001868
800.564	0.00382
810.209	0.00946
819.854	0.01781
829.498	0.0194
839.143	0.01136
848.788	0.00475
858.433	0.00403
868.078	0.0054
877.722	0.01137
887.367	0.0183
897.012	0.01549
906.657	0.00503
916.301	0.00314
925.946	0.0028
935.591	0.0020549
945.236	0.0020511
954.88	0.00314
964.525	0.00366
974.17	0.00437
983.815	0.00471
993.46	0.0047
1003.1	0.00411
1012.75	0.00387
1022.39	0.00329
1032.04	0.0021348
1041.68	0.00384
1051.33	0.007
1060.97	0.02108
1070.62	0.03345
1080.26	0.02901
1089.91	0.00877
1099.55	0.00684
1109.2	0.00515
1118.84	0.00368
1128.49	0.005
1138.13	0.01187
1147.78	0.01137
1157.42	0.00539
1167.07	0.00373
1176.71	0.00429
1186.36	0.00305
1196	0.00253
1205.64	0.00591
1215.29	0.01346
1224.93	0.01505
1234.58	0.01109
1244.22	0.00832
1253.87	0.01033
1263.51	0.00678
1273.16	0.0021034
1282.8	0.000983
1292.45	0.0012065
1302.09	0.0018359
1311.74	0.00295
1321.38	0.0064
1331.03	0.01774
1340.67	0.03268
1350.32	0.05554
1359.96	0.05917
1369.61	0.03535
1379.25	0.02257
1388.9	0.01671
1398.54	0.01122
1408.18	0.00982
1417.83	0.01258
1427.47	0.02302
1437.12	0.04914
1446.76	0.06242
1456.41	0.03969
1466.05	0.01615
1475.7	0.01026
1485.34	0.00823
1494.99	0.00664
1504.63	0.00746
1514.28	0.00972
1523.92	0.01482
1533.57	0.02045
1543.21	0.02452
1552.86	0.02444
1562.5	0.02453
1572.15	0.04389
1581.79	0.06623
1591.44	0.05661
1601.08	0.03231
1610.73	0.01667
1620.37	0.00727
1630.01	0.00412
1639.66	0.00336
1649.3	0.00284
1658.95	0.00245
1668.59	0.0019832
1678.24	0.0019589
1687.88	0.0014771
1697.53	0.0017121
1707.17	0.001346
1716.82	0.00129026
1726.46	0.0016436
1736.11	0.0014662
1745.75	0.0016581
1755.4	0.0018263
1765.04	0.0019568
1774.69	0.0017313
1784.33	0.0020064
1793.98	0.0018271
1803.62	0.0020246
1813.27	0.0015604
1822.91	0.0018056
1832.55	0.0016575
1842.2	0.0016215
1851.84	0.0016331
1861.49	0.0013976
1871.13	0.0017261
1880.78	0.0016156
1890.42	0.0018898
1900.07	0.0019489
1909.71	0.00225
1919.36	0.00303
1929	0.00311
1938.65	0.0021896
1948.29	0.0017869
1957.94	0.0015692
1967.58	0.0015317
1977.23	0.0014384
1986.87	0.001464
1996.52	0.0015111
2006.16	0.0017125
2015.81	0.0015692
2025.45	0.0015888
2035.1	0.001895
2044.74	0.0017014
2054.38	0.0015958
2064.03	0.001379
2073.67	0.0013977
2083.32	0.0013719
2092.96	0.0017922
2102.61	0.0013295
2112.25	0.0017713
2121.9	0.0016385
2131.54	0.0017894
2141.19	0.0016567
2150.83	0.001584
2160.48	0.0014108
2170.12	0.0013837
2179.77	0.0016651
2189.41	0.0013503
2199.06	0.0017064
2208.7	0.0018527
2218.35	0.0021143
2227.99	0.00401
2237.64	0.00467
2247.28	0.00368
2256.92	0.0019846
2266.57	0.002178
2276.21	0.00225
2285.86	0.0020495
2295.5	0.00228
2305.15	0.0019335
2314.79	0.00126001
2324.44	0.0016446
2334.08	0.0015447
2343.73	0.0016135
2353.37	0.0011753
2363.02	0.0011532
2372.66	0.0014688
2382.31	0.0014608
2391.95	0.0013434
2401.6	0.0014957
2411.24	0.0014468
2420.89	0.0020398
2430.53	0.0016397
2440.18	0.0017289
2449.82	0.0018252
2459.47	0.00233
2469.11	0.0020061
2478.75	0.0019975
2488.4	0.0020373
2498.04	0.0021262
2507.69	0.001773
2517.33	0.0013911
2526.98	0.0016989
2536.62	0.0018966
2546.27	0.0016357
2555.91	0.0018707
2565.56	0.00223
2575.2	0.0018979
2584.85	0.0019013
2594.49	0.0019833
2604.14	0.0015108
2613.78	0.0018528
2623.43	0.0016962
2633.07	0.0017151
2642.72	0.0018523
2652.36	0.0017205
2662.01	0.0018819
2671.65	0.0016279
2681.29	0.0016737
2690.94	0.0020245
2700.58	0.0015045
2710.23	0.0017848
2719.87	0.0017974
2729.52	0.0019539
2739.16	0.0017372
2748.81	0.0015873
2758.45	0.0019378
2768.1	0.0016224
2777.74	0.0017321
2787.39	0.0013883
2797.03	0.0014692
2806.68	0.0017007
2816.32	0.0021095
2825.97	0.0021883
2835.61	0.00247
2845.26	0.00241
2854.9	0.00272
2864.55	0.00285
2874.19	0.00277
2883.84	0.00252
2893.48	0.00295
2903.12	0.00294
2912.77	0.00371
2922.41	0.00454
2932.06	0.0067
2941.7	0.00689
2951.35	0.00558
2960.99	0.00397
2970.64	0.004
2980.28	0.00367
2989.93	0.00441
2999.57	0.00394
3009.22	0.00331
3018.86	0.00336
3028.51	0.00354
3038.15	0.00301
3047.8	0.00397
3057.44	0.00456
3067.09	0.00582
3076.73	0.00532
3086.38	0.00428
3096.02	0.00349
3105.67	0.00275
3115.31	0.00236
3124.95	0.0020177
3134.6	0.0016637
3144.24	0.0017062
3153.89	0.0015401
3163.53	0.0019253
3173.18	0.0019295
3182.82	0.0020472
3192.47	0.0015921
3202.11	0.0016423
3211.76	0.00127302
3221.4	0.0014865
3231.05	0.0011865
3240.69	0.0018311
3250.34	0.00088
3259.98	0.00131055
3269.63	0.0011473
3279.27	0.001494
3288.92	0.000945
3298.56	0.0015409
3308.21	0.00127389
3317.85	0.001357
3327.49	0.0020292
3337.14	0.000835
3346.78	0.0016134
3356.43	0.0017139
3366.07	0.0019243
3375.72	0.0016255
3385.36	0.001008
3395.01	0.000982
3404.65	0.000627
3414.3	0.000965
3423.94	0.0011767
3433.59	0.00125135
3443.23	0.0014822
3452.88	0.0018726
3462.52	0.0015875
3472.17	0.0014827
3481.81	0.0014201
3491.46	0.000874
3501.1	0.001115
3510.75	0.0015394
3520.39	0.0016234
3530.04	0.0018947
3539.68	0.0017895
3549.32	0.000655
3558.97	0.000941
3568.61	0.0013518
3578.26	0.0017369
3587.9	0.001095
3597.55	0.0014458
3607.19	0.000891
3616.84	0.0011227
3626.48	0.001055
3636.13	0.00106
3645.77	0.0016225
3655.42	0.0013591
3665.06	0.0015705
3674.71	0.0016601
3684.35	0.000958
3694	0.0011534
3703.64	0.0018469
3713.29	0.001113
3722.93	0.00122554
3732.58	0.00129806
3742.22	0.0012682
3751.86	0.0015629
3761.51	0.0012016
3771.15	0.0014591
3780.8	0.00124686
3790.44	0.0017998
3800.09	0.001353
3809.73	0.0017154
3819.38	0.0019148
3829.02	0.0014803
3838.67	0.001109
3848.31	0.0019499
3857.96	0.000901
3867.6	0.0011457
3877.25	0.0014424
3886.89	0.0019709
3896.54	0.000954
3906.18	0.0011714
3915.83	0.0013575
3925.47	0.0014371
3935.12	0.0014778
3944.76	0.0019882
3954.41	0.000982
3964.05	0.0014971
3973.69	0.00097
3983.34	0.001341
3992.98	0.0013474
