Infrared Spectrum: Benzodiazepine, 1H-1,4-, 2,3-dihydro-5-phenyl-7-(trifluoromethyl)-
Formula: C16 H13 F3 N2
CAS: 2890-28-0
State: SOLID (OIL MULL)
Class: COBLENTZ III
Instrument: PERKIN-ELMER 21 (GRATING)
Instrument parameters: NaCl PRISM
Sampling: TRANSMISSION
Resolution: 2
Origin: SMITH, KLINE & FRENCH LABS.
1/CM	TRANSMITTANCE
667	0.6304
676	0.6806
685	0.6994
694	0.6575
703	0.5102
712	0.692
721	0.72
730	0.7654
739	0.7886
748	0.7263
757	0.7181
766	0.8095
775	0.7323
784	0.7996
793	0.8597
802	0.8729
811	0.8772
820	0.857
829	0.5708
838	0.7892
847	0.8318
856	0.8707
865	0.8821
874	0.8696
883	0.8806
892	0.8777
901	0.8745
910	0.8388
919	0.7969
928	0.8483
937	0.8171
946	0.8483
955	0.8452
964	0.8383
973	0.8329
982	0.8349
991	0.8088
1000	0.8225
1009	0.8425
1018	0.8411
1027	0.8153
1036	0.7911
1045	0.6715
1054	0.8137
1063	0.7792
1072	0.7228
1081	0.5518
1090	0.7204
1099	0.6554
1108	0.5477
1117	0.3236
1126	0.3558
1135	0.5458
1144	0.6389
1153	0.4136
1162	0.3122
1171	0.5664
1180	0.7045
1189	0.7866
1198	0.8
1207	0.7712
1216	0.7157
1225	0.7409
1234	0.6792
1243	0.5821
1252	0.6748
1261	0.6732
1270	0.5218
1279	0.5035
1288	0.5881
1297	0.6618
1306	0.4162
1315	0.3535
1324	0.5952
1333	0.5717
1342	0.364
1351	0.5057
1360	0.7079
1369	0.6654
1378	0.4986
1387	0.5439
1396	0.7686
1405	0.8061
1414	0.8195
1423	0.8294
1432	0.7769
1441	0.6736
1450	0.5203
1459	0.4289
1468	0.4196
1477	0.6063
1486	0.7846
1495	0.7777
1504	0.8125
1513	0.7207
1522	0.6749
1531	0.6717
1540	0.6495
1549	0.8366
1558	0.8546
1567	0.8576
1576	0.8354
1585	0.8017
1594	0.7926
1603	0.7718
1612	0.5671
1621	0.5543
1630	0.456
1639	0.6244
1648	0.8514
1657	0.8756
1666	0.8842
1675	0.9086
1684	0.9183
1693	0.9232
1702	0.9338
1711	0.937
1720	0.9371
1729	0.9402
1738	0.941
1747	0.9409
1756	0.9382
1765	0.9356
1774	0.9332
1783	0.9339
1792	0.938
1801	0.9437
1810	0.9418
1819	0.9364
1828	0.9323
1837	0.9317
1846	0.9363
1855	0.9362
1864	0.9355
1873	0.9345
1882	0.933
1891	0.9335
1900	0.9342
1909	0.9337
1918	0.9307
1927	0.9344
1936	0.9405
1945	0.9407
1954	0.9369
1963	0.9369
1972	0.9394
1981	0.9409
1990	0.9415
1999	0.9418
2008	0.9421
2017	0.9418
2026	0.9415
2035	0.943
2044	0.9412
2053	0.9411
2062	0.941
2071	0.9419
2080	0.943
2089	0.9441
2098	0.9452
2107	0.9455
2116	0.9452
2125	0.9443
2134	0.9436
2143	0.9433
2152	0.9434
2161	0.943
2170	0.9427
2179	0.9424
2188	0.9422
2197	0.9424
2206	0.9428
2215	0.9438
2224	0.945
2233	0.9457
2242	0.9458
2251	0.946
2260	0.9453
2269	0.9438
2278	0.9427
2287	0.9439
2296	0.945
2305	0.9463
2314	0.9475
2323	0.9488
2332	0.95
2341	0.9503
2350	0.9505
2359	0.9502
2368	0.9491
2377	0.9481
2386	0.9473
2395	0.9469
2404	0.9466
2413	0.9463
2422	0.946
2431	0.9458
2440	0.9456
2449	0.9454
2458	0.9451
2467	0.9442
2476	0.9434
2485	0.9427
2494	0.9414
2503	0.9401
2512	0.9386
2521	0.9355
2530	0.9323
2539	0.9286
2548	0.9235
2557	0.92
2566	0.9189
2575	0.9178
2584	0.9161
2593	0.9135
2602	0.9106
2611	0.9075
2620	0.9049
2629	0.9033
2638	0.9017
2647	0.8997
2656	0.8975
2665	0.8954
2674	0.895
2683	0.8948
2692	0.8945
2701	0.8943
2710	0.8943
2719	0.8943
2728	0.8944
2737	0.8944
2746	0.8907
2755	0.8815
2764	0.8765
2773	0.8733
2782	0.8709
2791	0.8569
2800	0.7577
2809	0.6134
2818	0.4699
2827	0.3274
2836	0.1912
2845	0.1668
2854	0.1661
2863	0.1663
2872	0.1645
2881	0.145
2890	0.0921
2899	0.0553
2908	0.0574
2917	0.0805
2926	0.0995
2935	0.1133
2944	0.1747
2953	0.2697
2962	0.3643
2971	0.4582
2980	0.5516
2989	0.6377
2998	0.659
3007	0.6717
3016	0.6831
3025	0.6938
3034	0.7015
3043	0.7073
3052	0.713
3061	0.7192
3070	0.7315
3079	0.7902
3088	0.7913
3097	0.7913
3106	0.7908
3115	0.7901
3124	0.788
3133	0.7842
3142	0.7794
3151	0.7749
3160	0.7713
3169	0.7673
3178	0.7543
3187	0.7348
3196	0.7197
3205	0.7016
3214	0.6793
3223	0.6571
3232	0.6391
3241	0.6379
3250	0.6393
3259	0.6779
3268	0.7258
3277	0.7734
3286	0.8207
3295	0.8663
3304	0.8708
3313	0.8742
3322	0.8763
3331	0.8783
3340	0.8794
3349	0.8802
3358	0.8808
3367	0.8808
3376	0.8809
3385	0.8805
3394	0.8796
3403	0.8791
3412	0.8795
3421	0.8805
3430	0.883
3439	0.8855
3448	0.8833
3457	0.8798
3466	0.8768
3475	0.8744
3484	0.8742
3493	0.8747
3502	0.8752
3511	0.8761
3520	0.8774
3529	0.88
3538	0.8828
3547	0.8854
3556	0.8876
3565	0.8898
3574	0.891
3583	0.8913
3592	0.8917
3601	0.892
3610	0.8923
3619	0.8926
3628	0.8926
3637	0.8925
3646	0.8924
3655	0.8923
3664	0.8922
3673	0.8921
3682	0.8919
3691	0.8917
3700	0.8915
3709	0.8913
3718	0.8911
3727	0.8893
3736	0.887
3745	0.8847
3754	0.8824
3763	0.8806
3772	0.8789
3781	0.8772
3790	0.8755
3799	0.8741
3808	0.8732
3817	0.8724
3826	0.8716
3835	0.8707
3844	0.8699
3853	0.8695
3862	0.8703
3871	0.871
3880	0.8717
3889	0.8721
3898	0.871
3907	0.8699
3916	0.8687
3925	0.8676
3934	0.866
3943	0.8643
3952	0.8625
3961	0.8607
3970	0.859
3979	0.8572
3988	0.8555
3997	0.8537
