Infrared Spectrum: Dibutyl squarate
Formula: C 12 H 18 O 4
CAS: 2892-62-8
State: gas
Origin: EPA-IR VAPOR PHASE LIBRARY
1/CM	ABSORBANCE
549.8	0.00050722
559.445	0.00057747
569.09	0.00047998
578.734	0.0009761
588.379	0.001565
598.024	0.001995
607.669	0.002345
617.313	0.002485
626.958	0.003785
636.603	0.004705
646.248	0.006335
655.893	0.007235
665.537	0.007325
675.182	0.005455
684.827	0.003635
694.472	0.002365
704.116	0.001735
713.761	0.0014765
723.406	0.0014303
733.051	0.001635
742.695	0.002145
752.34	0.002275
761.985	0.001775
771.63	0.002255
781.275	0.003245
790.919	0.005835
800.564	0.011665
810.209	0.015795
819.854	0.014625
829.498	0.009915
839.143	0.006915
848.788	0.005205
858.433	0.004385
868.078	0.004435
877.722	0.006665
887.367	0.009555
897.012	0.016445
906.657	0.022085
916.301	0.022655
925.946	0.016955
935.591	0.013585
945.236	0.011195
954.88	0.011625
964.525	0.013015
974.17	0.017215
983.815	0.026925
993.46	0.035195
1003.1	0.036415
1012.75	0.032065
1022.39	0.021915
1032.04	0.012175
1041.68	0.010275
1051.33	0.014265
1060.97	0.021785
1070.62	0.035065
1080.26	0.053875
1089.91	0.056665
1099.55	0.033335
1109.2	0.020225
1118.84	0.017025
1128.49	0.013485
1138.13	0.011475
1147.78	0.010785
1157.42	0.010115
1167.07	0.010015
1176.71	0.009765
1186.36	0.008985
1196	0.008145
1205.64	0.007135
1215.29	0.007145
1224.93	0.009715
1234.58	0.013995
1244.22	0.017935
1253.87	0.020505
1263.51	0.022565
1273.16	0.023115
1282.8	0.026065
1292.45	0.037595
1302.09	0.051365
1311.74	0.063525
1321.38	0.094735
1331.03	0.138095
1340.67	0.160405
1350.32	0.167135
1359.96	0.136295
1369.61	0.096405
1379.25	0.072055
1388.9	0.057295
1398.54	0.047305
1408.18	0.088895
1417.83	0.149885
1427.47	0.069805
1437.12	0.032995
1446.76	0.026165
1456.41	0.031035
1466.05	0.045165
1475.7	0.055855
1485.34	0.029715
1494.99	0.012845
1504.63	0.008535
1514.28	0.006765
1523.92	0.006165
1533.57	0.006135
1543.21	0.006555
1552.86	0.007495
1562.5	0.009375
1572.15	0.012925
1581.79	0.019345
1591.44	0.035655
1601.08	0.077445
1610.73	0.173525
1620.37	0.253675
1630.01	0.157925
1639.66	0.061135
1649.3	0.030395
1658.95	0.019125
1668.59	0.013915
1678.24	0.011355
1687.88	0.009715
1697.53	0.008925
1707.17	0.009395
1716.82	0.011955
1726.46	0.017995
1736.11	0.030805
1745.75	0.060545
1755.4	0.096715
1765.04	0.085195
1774.69	0.058435
1784.33	0.041445
1793.98	0.043085
1803.62	0.054305
1813.27	0.060255
1822.91	0.047225
1832.55	0.027995
1842.2	0.015785
1851.84	0.009805
1861.49	0.006895
1871.13	0.005575
1880.78	0.005055
1890.42	0.004835
1900.07	0.004565
1909.71	0.004425
1919.36	0.004215
1929	0.003905
1938.65	0.003715
1948.29	0.003355
1957.94	0.003295
1967.58	0.003375
1977.23	0.003515
1986.87	0.003495
1996.52	0.003325
2006.16	0.003215
2015.81	0.003115
2025.45	0.003015
2035.1	0.002765
2044.74	0.002565
2054.38	0.002485
2064.03	0.002505
2073.67	0.002525
2083.32	0.002425
2092.96	0.002245
2102.61	0.001925
2112.25	0.001635
2121.9	0.0014574
2131.54	0.0012767
2141.19	0.0011472
2150.83	0.001198
2160.48	0.0011171
2170.12	0.001074
2179.77	0.0011175
2189.41	0.0010493
2199.06	0.0012394
2208.7	0.0013943
2218.35	0.0014022
2227.99	0.001595
2237.64	0.001575
2247.28	0.001675
2256.92	0.001685
2266.57	0.001575
2276.21	0.001605
2285.86	0.001515
2295.5	0.0013741
2305.15	0.0011745
2314.79	0.0011835
2324.44	0.0010723
2334.08	0.0011404
2343.73	0.001105
2353.37	0.0010687
2363.02	0.0011111
2372.66	0.0012467
2382.31	0.0011627
2391.95	0.0011017
2401.6	0.0011924
2411.24	0.0011768
2420.89	0.0010691
2430.53	0.0010604
2440.18	0.000942
2449.82	0.0007451
2459.47	0.0006947
2469.11	0.0007067
2478.75	0.00054517
2488.4	0.0006632
2498.04	0.000492382
2507.69	0.00056624
2517.33	0.00056652
2526.98	0.0006612
2536.62	0.00057741
2546.27	0.0006658
2555.91	0.0006898
2565.56	0.0006585
2575.2	0.0006705
2584.85	0.0007152
2594.49	0.0008642
2604.14	0.0008555
2613.78	0.0009247
2623.43	0.0008927
2633.07	0.0010338
2642.72	0.0010517
2652.36	0.0011802
2662.01	0.0012934
2671.65	0.0013952
2681.29	0.0013823
2690.94	0.0013878
2700.58	0.001505
2710.23	0.001765
2719.87	0.001865
2729.52	0.001885
2739.16	0.002195
2748.81	0.002395
2758.45	0.002525
2768.1	0.002505
2777.74	0.002665
2787.39	0.002815
2797.03	0.003205
2806.68	0.003595
2816.32	0.004075
2825.97	0.004605
2835.61	0.005465
2845.26	0.007205
2854.9	0.009805
2864.55	0.013115
2874.19	0.020655
2883.84	0.027895
2893.48	0.025045
2903.12	0.023485
2912.77	0.029015
2922.41	0.034685
2932.06	0.040505
2941.7	0.054535
2951.35	0.053355
2960.99	0.058515
2970.64	0.079485
2980.28	0.059335
2989.93	0.031815
2999.57	0.019355
3009.22	0.011315
3018.86	0.007555
3028.51	0.006115
3038.15	0.004895
3047.8	0.003705
3057.44	0.002555
3067.09	0.002595
3076.73	0.002105
3086.38	0.001995
3096.02	0.001605
3105.67	0.001565
3115.31	0.001665
3124.95	0.0012012
3134.6	0.0011993
3144.24	0.0011506
3153.89	0.0010477
3163.53	0.001054
3173.18	0.0011204
3182.82	0.0008586
3192.47	0.0008751
3202.11	0.0008893
3211.76	0.0009301
3221.4	0.0007561
3231.05	0.0006915
3240.69	0.0006024
3250.34	0.0006481
3259.98	0.0004599
3269.63	0.0007834
3279.27	0.00050224
3288.92	0.00048021
3298.56	0.00057692
3308.21	0.00056979
3317.85	0.000356
3327.49	0.000384
3337.14	0.00058331
3346.78	0.0006705
3356.43	0.00050572
3366.07	0.0004609
3375.72	0.00051501
3385.36	0.0006067
3395.01	0.000338
3404.65	0.0006623
3414.3	0.00054843
3423.94	0.0006041
3433.59	0.0006542
3443.23	0.000486069
3452.88	0.000490876
3462.52	0.0005252
3472.17	0.00054764
3481.81	0.0008094
3491.46	0.0007305
3501.1	0.0010241
3510.75	0.0010751
3520.39	0.0011669
3530.04	0.001525
3539.68	0.001545
3549.32	0.001575
3558.97	0.001715
3568.61	0.0014459
3578.26	0.0012117
3587.9	0.0011015
3597.55	0.0010912
3607.19	0.0012645
3616.84	0.0012125
3626.48	0.0011939
3636.13	0.0008852
3645.77	0.0008993
3655.42	0.0009885
3665.06	0.0008892
3674.71	0.0006108
3684.35	0.0004325
3694	0.00054561
3703.64	0.00055013
3713.29	0.0004739
3722.93	0.0007715
3732.58	0.000403
3742.22	0.00038
3751.86	0.00052226
3761.51	0.0004268
3771.15	0.000208
3780.8	0.000354
3790.44	0.000374
3800.09	0.00052729
3809.73	0.000342
3819.38	0.0004156
3829.02	0.000484424
3838.67	0.0004089
3848.31	0.000491217
3857.96	0.00051567
3867.6	0.00057962
3877.25	0.0006465
3886.89	0.0006464
3896.54	0.00052345
3906.18	0.000306
3915.83	0.000301
3925.47	0.0007676
3935.12	0.0004709
3944.76	0.000224
3954.41	0.0005876
3964.05	0.00049127
3973.69	0.00029
3983.34	0.0003851
3992.98	0.0007227
