Infrared Spectrum: 4-Ethylresorcinol
Formula: C 8 H 10 O 2
CAS: 2896-60-8
State: gas
Instrument: HP-GC/MS/IRD
Origin: NIST Mass Spectrometry Data Center
1/CM	ABSORBANCE
550	0.0009954
562	0.0011046
574	0.0014112
586	0.0009765
598	0.0010416
610	0.0016863
622	0.0016527
634	0.0005943
646	6.72e-05
658	7.35e-05
670	1.68e-05
682	0.000168
694	0.0003129
706	0.0008169
718	0.0012999
730	0.0014595
742	0.0012033
754	0.0006594
766	0.000861
778	0.0019089
790	0.0030366
802	0.0033516
814	0.0041076
826	0.0046326
838	0.0042483
850	0.0026859
862	0.0015414
874	0.0008421
886	0.0005628
898	0.0005796
910	0.0006321
922	0.0007749
934	0.0009345
946	0.0022512
958	0.0069573
970	0.0100716
982	0.0045066
994	0.0011634
1006	0.0007308
1018	0.0006867
1030	0.0008883
1042	0.0012327
1054	0.0016338
1066	0.0020454
1078	0.0029505
1090	0.0067662
1102	0.0148785
1114	0.0159642
1126	0.011991
1138	0.0153048
1150	0.0181902
1162	0.0165585
1174	0.0190323
1186	0.0188055
1198	0.0126798
1210	0.0133917
1222	0.0132258
1234	0.0086583
1246	0.0051933
1258	0.0041307
1270	0.0057078
1282	0.009849
1294	0.0127239
1306	0.0103341
1318	0.0079464
1330	0.0066864
1342	0.0034125
1354	0.001281
1366	0.0009156
1378	0.0011025
1390	0.0011634
1402	0.0012642
1414	0.0018795
1426	0.0034587
1438	0.0067452
1450	0.0088557
1462	0.0067977
1474	0.0041202
1486	0.0040887
1498	0.0102396
1510	0.0174699
1522	0.0119784
1534	0.0048237
1546	0.0030408
1558	0.0023268
1570	0.0027699
1582	0.0051975
1594	0.0103803
1606	0.0150864
1618	0.0152838
1630	0.010584
1642	0.0053466
1654	0.0030408
1666	0.0019782
1678	0.0011676
1690	0.0006804
1702	0.000546
1714	0.0004788
1726	0.0003465
1738	0.0002247
1750	0.0001743
1762	0.0001176
1774	0.000105
1786	7.14e-05
1798	8.82e-05
1810	9.45e-05
1822	0.0001596
1834	0.0002961
1846	0.0004032
1858	0.000399
1870	0.0003234
1882	0.0002142
1894	0.0001239
1906	8.61e-05
1918	5.67e-05
1930	4.41e-05
1942	5.67e-05
1954	2.94e-05
1966	1.47e-05
1978	4.2e-06
1990	4.2e-06
2002	3.57e-05
2014	6.09e-05
2026	8.61e-05
2038	5.88e-05
2050	3.99e-05
2062	6.3e-06
2074	2.94e-05
2086	1.89e-05
2098	3.15e-05
2110	2.52e-05
2122	2.94e-05
2134	1.89e-05
2146	4.62e-05
2158	3.15e-05
2170	2.31e-05
2182	1.26e-05
2194	2.52e-05
2206	1.05e-05
2218	0
2230	6.3e-05
2242	0.000126
2254	0.0001785
2266	0.0001533
2278	0.0001197
2290	5.67e-05
2302	7.56e-05
2314	0.0001218
2326	0.0002247
2338	0.0002646
2350	0.000273
2362	0.0002205
2374	0.0001575
2386	0.0002247
2398	0.0002961
2410	0.0003549
2422	0.0003339
2434	0.0003549
2446	0.0003066
2458	0.0002667
2470	0.0002562
2482	0.0002436
2494	0.0002352
2506	0.0001869
2518	0.000126
2530	0.0001302
2542	0.0001554
2554	0.0001386
2566	0.0001029
2578	0.0001071
2590	7.98e-05
2602	6.51e-05
2614	0.0001071
2626	8.61e-05
2638	0.0001071
2650	0.0001239
2662	0.0001638
2674	0.0001029
2686	5.67e-05
2698	3.99e-05
2710	6.09e-05
2722	0.0001008
2734	0.0001638
2746	0.0002268
2758	0.0002268
2770	0.0002814
2782	0.0003402
2794	0.0003465
2806	0.0003864
2818	0.000462
2830	0.0006384
2842	0.0010458
2854	0.0018963
2866	0.0030954
2878	0.0042294
2890	0.0042147
2902	0.0034923
2914	0.0035721
2926	0.0044289
2938	0.0060858
2950	0.0064239
2962	0.0077511
2974	0.0102963
2986	0.0061068
2998	0.0026523
3010	0.0021714
3022	0.0030996
3034	0.0037149
3046	0.002667
3058	0.001785
3070	0.0012663
3082	0.0009324
3094	0.000672
3106	0.0005271
3118	0.0003969
3130	0.000315
3142	0.0002646
3154	0.0002121
3166	0.0001848
3178	0.0001764
3190	0.0001029
3202	0.0001113
3214	6.51e-05
3226	9.87e-05
3238	8.4e-05
3250	2.1e-05
3262	3.36e-05
3274	2.52e-05
3286	1.89e-05
3298	4.2e-06
3310	5.25e-05
3322	8.61e-05
3334	8.82e-05
3346	0.0001974
3358	0.0002457
3370	0.0002415
3382	0.0002037
3394	0.0002394
3406	0.0002079
3418	0.0002247
3430	0.0001743
3442	0.0001449
3454	0.000105
3466	9.45e-05
3478	4.62e-05
3490	2.31e-05
3502	1.47e-05
3514	8.4e-06
3526	2.73e-05
3538	2.73e-05
3550	1.68e-05
3562	5.46e-05
3574	8.19e-05
3586	0.000168
3598	0.0002541
3610	0.0005208
3622	0.0014595
3634	0.0060438
3646	0.0190974
3658	0.0180705
3670	0.0042903
3682	0.0008106
3694	0.0003108
3706	0.0001617
3718	0.0001239
3730	9.45e-05
3742	7.14e-05
3754	0.0001029
3766	8.82e-05
3778	6.72e-05
3790	5.67e-05
3802	4.62e-05
3814	9.87e-05
3826	0.0001302
3838	0.0001281
