Infrared Spectrum: 2-Methoxy-6-methylphenol
Formula: C 8 H 10 O 2
CAS: 2896-67-5
State: gas
Origin: EPA-IR VAPOR PHASE LIBRARY
1/CM	ABSORBANCE
549.8	0.0074398
559.445	0.0064498
569.09	0.0039198
578.734	0.0021298
588.379	0.0016598
598.024	0.0011498
607.669	0.0011898
617.313	0.0008947
626.958	0.0010914
636.603	0.0012898
646.248	0.0013798
655.893	0.0016698
665.537	0.0030698
675.182	0.0075598
684.827	0.0134998
694.472	0.0139398
704.116	0.0110298
713.761	0.0175798
723.406	0.0335398
733.051	0.0285998
742.695	0.0211298
752.34	0.0198098
761.985	0.0261698
771.63	0.0209898
781.275	0.0111098
790.919	0.0052698
800.564	0.0035098
810.209	0.0045198
819.854	0.0088598
829.498	0.0104798
839.143	0.0086998
848.788	0.0059598
858.433	0.0057798
868.078	0.0063798
877.722	0.0075098
887.367	0.0110198
897.012	0.0150798
906.657	0.0146698
916.301	0.0094798
925.946	0.0057398
935.591	0.0046198
945.236	0.0049598
954.88	0.0052698
964.525	0.0062798
974.17	0.0077098
983.815	0.0106198
993.46	0.0137498
1003.1	0.0131698
1012.75	0.0101798
1022.39	0.0101998
1032.04	0.0141798
1041.68	0.0225898
1051.33	0.0340098
1060.97	0.0456998
1070.62	0.0573198
1080.26	0.0683398
1089.91	0.0713698
1099.55	0.0564198
1109.2	0.0301098
1118.84	0.0152898
1128.49	0.0099498
1138.13	0.0079098
1147.78	0.0082998
1157.42	0.0129798
1167.07	0.0175998
1176.71	0.0206298
1186.36	0.0251198
1196	0.0382698
1205.64	0.0701598
1215.29	0.11014
1224.93	0.11022
1234.58	0.0684998
1244.22	0.0435198
1253.87	0.0767898
1263.51	0.1351
1273.16	0.14581
1282.8	0.0841798
1292.45	0.0436798
1302.09	0.0229398
1311.74	0.0161598
1321.38	0.0146898
1331.03	0.0175098
1340.67	0.0305598
1350.32	0.0412798
1359.96	0.0334398
1369.61	0.0146798
1379.25	0.0080398
1388.9	0.0067998
1398.54	0.0062198
1408.18	0.0068598
1417.83	0.0103498
1427.47	0.0205598
1437.12	0.0410798
1446.76	0.0527098
1456.41	0.0590498
1466.05	0.0828798
1475.7	0.11632
1485.34	0.11918
1494.99	0.0783398
1504.63	0.0412898
1514.28	0.0193298
1523.92	0.0131298
1533.57	0.0110298
1543.21	0.0097798
1552.86	0.0089098
1562.5	0.0086298
1572.15	0.0103398
1581.79	0.0146098
1591.44	0.0187498
1601.08	0.0194498
1610.73	0.0191798
1620.37	0.0193198
1630.01	0.0140398
1639.66	0.0068598
1649.3	0.0036098
1658.95	0.0026098
1668.59	0.0021098
1678.24	0.0017598
1687.88	0.0016798
1697.53	0.0019298
1707.17	0.0023098
1716.82	0.0024098
1726.46	0.0020898
1736.11	0.0017398
1745.75	0.0015098
1755.4	0.0014198
1765.04	0.0012798
1774.69	0.0012598
1784.33	0.0015598
1793.98	0.0020398
1803.62	0.0023898
1813.27	0.0021698
1822.91	0.0015698
1832.55	0.0010981
1842.2	0.0008418
1851.84	0.0008907
1861.49	0.0012098
1871.13	0.0020598
1880.78	0.0027298
1890.42	0.0026298
1900.07	0.0020498
1909.71	0.0016498
1919.36	0.0013998
1929	0.0013098
1938.65	0.0014098
1948.29	0.0017498
1957.94	0.0019598
1967.58	0.0018098
1977.23	0.0015798
1986.87	0.0014198
1996.52	0.0011998
2006.16	0.0009744
2015.81	0.0008776
2025.45	0.0010463
2035.1	0.0013798
2044.74	0.0015698
2054.38	0.0015998
2064.03	0.0013198
2073.67	0.0011698
2083.32	0.0012398
2092.96	0.0013398
2102.61	0.0013698
2112.25	0.0013898
2121.9	0.0014498
2131.54	0.0013998
2141.19	0.0013798
2150.83	0.0015998
2160.48	0.0019398
2170.12	0.0020298
2179.77	0.0017998
2189.41	0.0012498
2199.06	0.0008791
2208.7	0.0006754
2218.35	0.0005766
2227.99	0.0005269
2237.64	0.0006178
2247.28	0.0007101
2256.92	0.0007359
2266.57	0.0007223
2276.21	0.0007806
2285.86	0.0008264
2295.5	0.0008288
2305.15	0.0009814
2314.79	0.0010098
2324.44	0.000903
2334.08	0.0007981
2343.73	0.0006898
2353.37	0.0005849
2363.02	0.0008038
2372.66	0.0007552
2382.31	0.0007818
2391.95	0.0008101
2401.6	0.0007954
2411.24	0.0009939
2420.89	0.0011698
2430.53	0.0012698
2440.18	0.0012798
2449.82	0.0012598
2459.47	0.0012198
2469.11	0.0013398
2478.75	0.0015798
2488.4	0.0020598
2498.04	0.0021298
2507.69	0.0018998
2517.33	0.0015198
2526.98	0.0014598
2536.62	0.0012798
2546.27	0.0012398
2555.91	0.0011198
2565.56	0.0008168
2575.2	0.0008194
2584.85	0.0007685
2594.49	0.0006866
2604.14	0.001087
2613.78	0.0011298
2623.43	0.0010998
2633.07	0.000939
2642.72	0.0007678
2652.36	0.0008363
2662.01	0.0008167
2671.65	0.000854
2681.29	0.0010108
2690.94	0.0011498
2700.58	0.0013398
2710.23	0.0012098
2719.87	0.0011398
2729.52	0.0011598
2739.16	0.0014998
2748.81	0.0015798
2758.45	0.0013998
2768.1	0.0011698
2777.74	0.0012998
2787.39	0.0017898
2797.03	0.0023798
2806.68	0.0033398
2816.32	0.0044998
2825.97	0.0061598
2835.61	0.0111498
2845.26	0.0183798
2854.9	0.0199398
2864.55	0.0164698
2874.19	0.0146598
2883.84	0.0133298
2893.48	0.0132498
2903.12	0.0162898
2912.77	0.0224898
2922.41	0.0289598
2932.06	0.0344898
2941.7	0.0410198
2951.35	0.0426798
2960.99	0.0378698
2970.64	0.0272298
2980.28	0.0224798
2989.93	0.0207298
2999.57	0.0232398
3009.22	0.0222998
3018.86	0.0171498
3028.51	0.0143298
3038.15	0.0169698
3047.8	0.0209998
3057.44	0.0242298
3067.09	0.0226598
3076.73	0.0171698
3086.38	0.0117898
3096.02	0.0078098
3105.67	0.0053298
3115.31	0.0037098
3124.95	0.0025098
3134.6	0.0018298
3144.24	0.0014598
3153.89	0.0013098
3163.53	0.0010918
3173.18	0.0008857
3182.82	0.000842
3192.47	0.0008591
3202.11	0.0007106
3211.76	0.0006107
3221.4	0.0005618
3231.05	0.0007299
3240.69	0.0006127
3250.34	0.0007003
3259.98	0.0006067
3269.63	0.000646
3279.27	0.0005454
3288.92	0.0004738
3298.56	0.0003289
3308.21	0.0002952
3317.85	0.00012696
3327.49	0.00019963
3337.14	0.000209
3346.78	0.000108801
3356.43	0.0003747
3366.07	0.0002177
3375.72	0.0002915
3385.36	0.0003016
3395.01	0.0003473
3404.65	0.00016884
3414.3	8.18e-05
3423.94	0.0003204
3433.59	0.0001332
3443.23	0.0002014
3452.88	0.00011315
3462.52	0.00015242
3472.17	0.0002607
3481.81	0.0003478
3491.46	0.0003253
3501.1	0.0004213
3510.75	0.0006285
3520.39	0.0008071
3530.04	0.0012998
3539.68	0.0019698
3549.32	0.0042498
3558.97	0.0127798
3568.61	0.0424798
3578.26	0.0751598
3587.9	0.0715298
3597.55	0.0362498
3607.19	0.0095498
3616.84	0.0034798
3626.48	0.0019498
3636.13	0.0016198
3645.77	0.0017298
3655.42	0.0015598
3665.06	0.0009479
3674.71	0.0003731
3684.35	0.0003524
3694	0.0002781
3703.64	9.769e-05
3713.29	0.0003766
3722.93	0.0001666
3732.58	0.00012382
3742.22	0.00012371
3751.86	0.00014521
3761.51	0.00019574
3771.15	0.00014407
3780.8	0.0002215
3790.44	0.000228
3800.09	0.00018069
3809.73	0.0002302
3819.38	0.0001136
3829.02	0.0004011
3838.67	0.0004019
3848.31	0.0003679
3857.96	0.0008218
3867.6	0.0008694
3877.25	0.0009287
3886.89	0.0009977
3896.54	0.0008917
3906.18	0.0008876
3915.83	0.0006931
3925.47	0.0007519
3935.12	0.0005509
3944.76	0.0006295
3954.41	0.000418
3964.05	0.0004338
3973.69	0.0004572
3983.34	0.0002541
3992.98	0.0003188
