Infrared Spectrum: RHODANINE, 5-ISOPROPYLIDENE-
Formula: C6 H7 N O S2
CAS: 28989-47-1
State: SOLID (KBr PELLET)
Melting point: 195-196 C
Class: COBLENTZ
Instrument: Not specified, most likely a prism, grating, or hybrid spectrometer.
Sampling: TRANSMISSION
Resolution: 4
Origin: TENNESSEE EASTMAN COMPANY, RESEARCH LABORATORIES
MICROMETERS	TRANSMITTANCE
1.986	0.698
2.02705	0.698
2.06811	0.701
2.10916	0.713
2.15021	0.72
2.19126	0.727
2.23232	0.734
2.27337	0.74
2.31442	0.751
2.35548	0.753
2.39653	0.759
2.43758	0.766
2.47863	0.771
2.51969	0.778
2.56074	0.782
2.60179	0.783
2.64285	0.785
2.6839	0.787
2.72495	0.794
2.766	0.792
2.80706	0.789
2.84811	0.783
2.88916	0.771
2.93022	0.77
2.97127	0.77
3.01232	0.777
3.05337	0.782
3.09443	0.718
3.13548	0.605
3.17653	0.344
3.21759	0.334
3.25864	0.267
3.29969	0.248
3.34074	0.485
3.3818	0.542
3.42285	0.535
3.4639	0.396
3.50496	0.492
3.54601	0.641
3.58706	0.699
3.62811	0.718
3.66917	0.737
3.71022	0.777
3.75127	0.802
3.79233	0.802
3.83338	0.83
3.87443	0.85
3.91548	0.864
3.95654	0.866
3.99759	0.867
4.03864	0.867
4.0797	0.879
4.12075	0.893
4.1618	0.9
4.20285	0.9
4.24391	0.9
4.28496	0.895
4.32601	0.886
4.36707	0.891
4.40812	0.909
4.44917	0.912
4.49022	0.921
4.53128	0.924
4.57233	0.933
4.61338	0.934
4.65444	0.934
4.69549	0.938
4.73654	0.938
4.77759	0.943
4.81865	0.946
4.8597	0.95
4.90075	0.953
4.94181	0.95
4.98286	0.951
5.02391	0.963
5.06496	0.955
5.10602	0.955
5.14707	0.955
5.18812	0.951
5.22918	0.951
5.27023	0.955
5.31128	0.953
5.35233	0.962
5.39339	0.962
5.43444	0.96
5.47549	0.965
5.51655	0.963
5.5576	0.941
5.59865	0.938
5.6397	0.921
5.68076	0.843
5.72181	0.847
5.76286	0.833
5.80392	0.684
5.84497	0.411
5.88602	0.089
5.92707	0.018
5.96813	0.169
6.00918	0.548
6.05023	0.66
6.09129	0.737
6.13234	0.754
6.17339	0.6
6.21444	0.06
6.2555	0.305
6.29655	0.61
6.3376	0.713
6.37866	0.758
6.41971	0.753
6.46076	0.78
6.50181	0.801
6.54287	0.802
6.58392	0.801
6.62497	0.771
6.66603	0.802
6.70708	0.809
6.74813	0.785
6.78919	0.639
6.83024	0.349
6.87129	0.039
6.91234	0.114
6.9534	0.195
6.99445	0.329
7.0355	0.476
7.07656	0.588
7.11761	0.66
7.15866	0.684
7.19971	0.699
7.24077	0.674
7.28182	0.554
7.32287	0.588
7.36393	0.687
7.40498	0.783
7.44603	0.826
7.48708	0.842
7.52814	0.854
7.56919	0.787
7.61024	0.478
7.6513	0.663
7.69235	0.629
7.7334	0.703
7.77445	0.782
7.81551	0.811
7.85656	0.818
7.89761	0.801
7.93867	0.696
7.97972	0.379
8.02077	0.214
8.06182	0.54
8.10288	0.615
8.14393	0.375
8.18498	0.056
8.22604	0.025
8.26709	0.022
8.30814	0.082
8.34919	0.276
8.39025	0.495
8.4313	0.667
8.47235	0.744
8.51341	0.801
8.55446	0.831
8.59551	0.843
8.63656	0.85
8.67762	0.852
8.71867	0.854
8.75972	0.855
8.80078	0.855
8.84183	0.835
8.88288	0.747
8.92393	0.552
8.96499	0.276
9.00604	0.2
9.04709	0.317
9.08815	0.461
9.1292	0.564
9.17025	0.638
9.2113	0.668
9.25236	0.615
9.29341	0.375
9.33446	0.209
9.37552	0.336
9.41657	0.643
9.45762	0.747
9.49867	0.811
9.53973	0.831
9.58078	0.843
9.62183	0.866
9.66289	0.874
9.70394	0.876
9.74499	0.874
9.78604	0.876
9.8271	0.876
9.86815	0.867
9.9092	0.855
9.95026	0.864
9.99131	0.888
10.0324	0.897
10.0734	0.902
10.1145	0.898
10.1555	0.9
10.1966	0.902
10.2376	0.898
10.2787	0.898
10.3197	0.9
10.3608	0.903
10.4018	0.912
10.4429	0.921
10.4839	0.924
10.525	0.924
10.566	0.924
10.6071	0.921
10.6482	0.912
10.6892	0.905
10.7303	0.903
10.7713	0.903
10.8124	0.909
10.8534	0.91
10.8945	0.915
10.9355	0.919
10.9766	0.915
11.0176	0.879
11.0587	0.792
11.0997	0.739
11.1408	0.73
11.1818	0.787
11.2229	0.826
11.2639	0.843
11.305	0.857
11.3461	0.864
11.3871	0.874
11.4282	0.881
11.4692	0.883
11.5103	0.883
11.5513	0.881
11.5924	0.866
11.6334	0.84
11.6745	0.819
11.7155	0.799
11.7566	0.766
11.7976	0.74
11.8387	0.706
11.8797	0.672
11.9208	0.636
11.9618	0.615
12.0029	0.615
12.044	0.615
12.085	0.632
12.1261	0.643
12.1671	0.66
12.2082	0.672
12.2492	0.687
12.2903	0.704
12.3313	0.73
12.3724	0.751
12.4134	0.77
12.4545	0.783
12.4955	0.801
12.5366	0.814
12.5776	0.828
12.6187	0.838
12.6597	0.845
12.7008	0.855
12.7419	0.861
12.7829	0.869
12.824	0.874
12.865	0.878
12.9061	0.881
12.9471	0.881
12.9882	0.883
13.0292	0.885
13.0703	0.883
13.1113	0.883
13.1524	0.876
13.1934	0.857
13.2345	0.83
13.2755	0.826
13.3166	0.861
13.3576	0.922
13.3987	0.953
13.4397	0.965
13.4808	0.972
13.5219	0.975
13.5629	0.975
13.604	0.974
13.645	0.977
13.6861	0.977
13.7271	0.977
13.7682	0.977
13.8092	0.977
13.8503	0.977
13.8913	0.975
13.9324	0.963
13.9734	0.946
14.0145	0.897
14.0555	0.813
14.0966	0.725
14.1376	0.667
14.1787	0.672
14.2198	0.758
14.2608	0.831
14.3019	0.886
14.3429	0.926
14.384	0.96
14.425	0.974
14.4661	0.986
14.5071	0.991
14.5482	0.998
14.5892	0.998
14.6303	1
14.6713	1
14.7124	1
14.7534	1
14.7945	1
14.8355	0.998
14.8766	0.996
14.9177	0.989
14.9587	0.967
14.9998	0.919
15.0408	0.835
15.0819	0.763
15.1229	0.694
15.164	0.583
15.205	0.442
15.2461	0.368
15.2871	0.324
15.3282	0.324
15.3692	0.353
15.4103	0.435
15.4513	0.5
15.4924	0.566
15.5334	0.634
15.5745	0.668
15.6156	0.701
15.6566	0.72
15.6977	0.735
15.7387	0.742
15.7798	0.744
15.8208	0.746
15.8619	0.746
15.9029	0.746
15.944	0.744
