Infrared Spectrum: N,N-DI(2-HYDROXY ETHYL)-DODECANAMIDE, DODECANOIC ACID MONO ESTER
Formula: C28 H55 N O4
CAS: 29006-25-5
State: SOLID (MELT)
Class: COBLENTZ
Instrument: PERKIN-ELMER (GRATING)
Sampling: TRANSMISSION
Path length: 0.0025 CM
Resolution: 4
Origin: PROCTER AND GAMBLE CO.
1/CM	TRANSMITTANCE
574.38	0.323
583.396	0.328
592.412	0.369
601.427	0.405
610.443	0.432
619.459	0.465
628.475	0.502
637.491	0.55
646.506	0.577
655.522	0.609
664.538	0.642
673.554	0.664
682.57	0.678
691.585	0.684
700.601	0.686
709.617	0.678
718.633	0.6161
727.649	0.541
736.665	0.628
745.68	0.703
754.696	0.788
763.712	0.807
772.728	0.816
781.744	0.822
790.759	0.833
799.775	0.81
808.791	0.761
817.807	0.781
826.823	0.822
835.838	0.841
844.854	0.86
853.87	0.834
862.886	0.807
871.902	0.826
880.917	0.848
889.933	0.844
898.949	0.843
907.965	0.836
916.981	0.833
925.996	0.829
935.012	0.826
944.028	0.826
953.044	0.829
962.06	0.824
971.076	0.817
980.091	0.798
989.107	0.764
998.123	0.72
1007.14	0.672
1016.15	0.638
1025.17	0.603
1034.19	0.55
1043.2	0.516
1052.22	0.407
1061.23	0.376
1070.25	0.378
1079.27	0.39
1088.28	0.4749
1097.3	0.497
1106.31	0.413
1115.33	0.436
1124.34	0.5219
1133.36	0.611
1142.38	0.575
1151.39	0.364
1160.41	0.241
1169.42	0.218
1178.44	0.248
1187.45	0.287
1196.47	0.332
1205.49	0.367
1214.5	0.376
1223.52	0.381
1232.53	0.39
1241.55	0.41
1250.57	0.419
1259.58	0.436
1268.6	0.461
1277.61	0.465
1286.63	0.47
1295.64	0.482
1304.66	0.483
1313.68	0.507
1322.69	0.548
1331.71	0.584
1340.72	0.56
1349.74	0.516
1358.76	0.458
1367.77	0.432
1376.79	0.424
1385.8	0.463
1394.82	0.461
1403.83	0.507
1412.85	0.386
1421.87	0.257
1430.88	0.293
1439.9	0.282
1448.91	0.248
1457.93	0.175
1466.94	0.139
1475.96	0.298
1484.98	0.4129
1493.99	0.6059
1503.01	0.752
1512.02	0.81
1521.04	0.821
1530.06	0.838
1539.07	0.85
1548.09	0.853
1557.1	0.846
1566.12	0.833
1575.13	0.812
1584.15	0.773
1593.17	0.689
1602.18	0.548
1611.2	0.3609
1620.21	0.1611
1629.23	0.12
1638.25	0.158
1647.26	0.18
1656.28	0.238
1665.29	0.4049
1674.31	0.669
1683.32	0.778
1692.34	0.78
1701.36	0.741
1710.37	0.649
1719.39	0.468
1728.4	0.306
1737.42	0.091
1746.43	0.117
1755.45	0.4019
1764.47	0.6909
1773.48	0.831
1782.5	0.865
1791.51	0.892
1800.53	0.911
1809.55	0.919
1818.56	0.931
1827.58	0.938
1836.59	0.945
1845.61	0.948
1854.62	0.948
1863.64	0.952
1872.66	0.95
1881.67	0.95
1890.69	0.954
1899.7	0.952
1908.72	0.952
1917.74	0.952
1926.75	0.952
1935.77	0.954
1944.78	0.955
1953.8	0.955
1962.81	0.955
1971.83	0.957
1980.85	0.957
1989.86	0.955
1998.88	0.957
2007.89	0.959
2016.91	0.959
2025.92	0.96
2034.94	0.962
2043.96	0.96
2052.97	0.96
2061.99	0.96
2071	0.96
2080.02	0.96
2089.04	0.957
2098.05	0.9586
2107.07	0.96
2116.08	0.9646
2125.1	0.965
2134.11	0.965
2143.13	0.9686
2152.15	0.969
2161.16	0.969
2170.18	0.969
2179.19	0.969
2188.21	0.969
2197.23	0.969
2206.24	0.969
2215.26	0.969
2224.27	0.969
2233.29	0.969
2242.3	0.969
2251.32	0.969
2260.34	0.967
2269.35	0.967
2278.37	0.967
2287.38	0.969
2296.4	0.969
2305.41	0.969
2314.43	0.972
2323.45	0.9785
2332.46	0.982
2341.48	0.982
2350.49	0.982
2359.51	0.981
2368.53	0.984
2377.54	0.9709
2386.56	0.9616
2395.57	0.9596
2404.59	0.957
2413.6	0.955
2422.62	0.954
2431.64	0.9535
2440.65	0.952
2449.67	0.9507
2458.68	0.95
2467.7	0.948
2476.72	0.947
2485.73	0.945
2494.75	0.9424
2503.76	0.942
2512.78	0.94
2521.79	0.94
2530.81	0.938
2539.83	0.936
2548.84	0.938
2557.86	0.935
2566.87	0.9358
2575.89	0.9306
2584.91	0.928
2593.92	0.9233
2602.94	0.9209
2611.95	0.9183
2620.97	0.914
2629.98	0.9091
2639	0.9012
2648.02	0.899
2657.03	0.8983
2666.05	0.8861
2675.06	0.8807
2684.08	0.877
2693.09	0.877
2702.11	0.875
2711.13	0.875
2720.14	0.8707
2729.16	0.868
2738.17	0.865
2747.19	0.865
2756.21	0.867
2765.22	0.861
2774.24	0.8513
2783.25	0.8428
2792.27	0.8172
2801.28	0.7896
2810.3	0.7538
2819.32	0.7086
2828.33	0.6388
2837.35	0.5428
2846.36	0.3449
2855.38	0.04
2864.4	0.0445
2873.41	0.1345
2882.43	0.2043
2891.44	0.1983
2900.46	0.1302
2909.47	0.0634
2918.49	0.0165
2927.51	0.006
2936.52	0.006
2945.54	0.0415
2954.55	0.071
2963.57	0.0744
2972.58	0.1594
2981.6	0.3492
2990.62	0.4916
2999.63	0.5754
3008.65	0.6456
3017.66	0.6936
3026.68	0.7539
3035.7	0.8073
3044.71	0.8354
3053.73	0.8511
3062.74	0.8628
3071.76	0.8675
3080.77	0.8693
3089.79	0.8747
3098.81	0.875
3107.82	0.875
3116.84	0.873
3125.85	0.872
3134.87	0.8685
3143.89	0.862
3152.9	0.8589
3161.92	0.849
3170.93	0.844
3179.95	0.8363
3188.96	0.822
3197.98	0.8182
3207	0.8045
3216.01	0.7923
3225.03	0.7804
3234.04	0.7699
3243.06	0.7584
3252.07	0.738
3261.09	0.728
3270.11	0.7131
3279.12	0.6998
3288.14	0.6846
3297.15	0.6725
3306.17	0.6566
3315.19	0.6385
3324.2	0.6257
3333.22	0.6087
3342.23	0.5886
3351.25	0.5736
3360.26	0.5632
3369.28	0.5427
3378.3	0.5281
3387.31	0.514
3396.33	0.4999
3405.34	0.4922
3414.36	0.487
3423.38	0.4873
3432.39	0.49
3441.41	0.4982
3450.42	0.5049
3459.44	0.5146
3468.45	0.5404
3477.47	0.5665
3486.49	0.5897
3495.5	0.6239
3504.52	0.6559
3513.53	0.6831
3522.55	0.7126
3531.56	0.7383
3540.58	0.7694
3549.6	0.7863
3558.61	0.8141
3567.63	0.8285
3576.64	0.8579
3585.66	0.8698
3594.68	0.8898
3603.69	0.9095
3612.71	0.922
3621.72	0.9257
3630.74	0.9305
3639.75	0.9351
3648.77	0.9392
3657.79	0.946
3666.8	0.948
3675.82	0.95
3684.83	0.952
3693.85	0.952
3702.87	0.952
3711.88	0.9506
3720.9	0.95
3729.91	0.95
3738.93	0.9512
3747.94	0.9586
3756.96	0.9529
3765.98	0.947
3774.99	0.945
3784.01	0.9456
3793.02	0.946
3802.04	0.943
3811.05	0.954
3820.07	0.9518
3829.09	0.9477
3838.1	0.941
3847.12	0.94
3856.13	0.94
3865.15	0.9453
3874.17	0.947
3883.18	0.947
3892.2	0.9455
3901.21	0.9421
3910.23	0.9418
3919.24	0.94
3928.26	0.94
3937.28	0.938
3946.29	0.938
3955.31	0.9359
3964.32	0.935
3973.34	0.9319
3982.36	0.931
