Infrared Spectrum: m-Quaterphenyl
Formula: C 24 H 18
CAS: 29036-02-0
State: gas
Origin: EPA-IR VAPOR PHASE LIBRARY
1/CM	ABSORBANCE
549.8	0.0008263
559.445	0.000601
569.09	0.0005871
578.734	0.0006361
588.379	0.000568
598.024	0.0009206
607.669	0.002151
617.313	0.005141
626.958	0.002431
636.603	0.0012892
646.248	0.0011726
655.893	0.0012783
665.537	0.001526
675.182	0.002051
684.827	0.003271
694.472	0.009711
704.116	0.011681
713.761	0.004871
723.406	0.002641
733.051	0.003091
742.695	0.005861
752.34	0.013641
761.985	0.006961
771.63	0.003081
781.275	0.002781
790.919	0.004251
800.564	0.002101
810.209	0.001121
819.854	0.000906
829.498	0.0009747
839.143	0.0010452
848.788	0.0008825
858.433	0.0007848
868.078	0.0008188
877.722	0.0011621
887.367	0.002401
897.012	0.001851
906.657	0.0011581
916.301	0.0010683
925.946	0.00073478
935.591	0.00073054
945.236	0.00074414
954.88	0.0008685
964.525	0.0008679
974.17	0.0009094
983.815	0.000874
993.46	0.0008546
1003.1	0.0010555
1012.75	0.002241
1022.39	0.0014427
1032.04	0.0014217
1041.68	0.0014365
1051.33	0.0011321
1060.97	0.0014727
1070.62	0.0016361
1080.26	0.0014
1089.91	0.001791
1099.55	0.001327
1109.2	0.00072222
1118.84	0.000464
1128.49	0.000502
1138.13	0.000428
1147.78	0.000449
1157.42	0.000643
1167.07	0.0008938
1176.71	0.00070599
1186.36	0.0006598
1196	0.000519
1205.64	0
1215.29	0.000123
1224.93	0.000266
1234.58	0.000501
1244.22	0.000572
1253.87	0.0008877
1263.51	0.0008186
1273.16	0.0007854
1282.8	0.0008466
1292.45	0.00072597
1302.09	0.0008845
1311.74	0.0009757
1321.38	0.0008549
1331.03	0.0008752
1340.67	0.00077789
1350.32	0.0008494
1359.96	0.0008333
1369.61	0.001016
1379.25	0.0012957
1388.9	0.0016297
1398.54	0.001831
1408.18	0.0014877
1417.83	0.001711
1427.47	0.0013783
1437.12	0.0014734
1446.76	0.002011
1456.41	0.002261
1466.05	0.005991
1475.7	0.006881
1485.34	0.003401
1494.99	0.002701
1504.63	0.002051
1514.28	0.0012736
1523.92	0.0011809
1533.57	0.0012801
1543.21	0.0013388
1552.86	0.0016287
1562.5	0.002581
1572.15	0.003881
1581.79	0.005021
1591.44	0.009841
1601.08	0.007661
1610.73	0.002671
1620.37	0.0015597
1630.01	0.0010954
1639.66	0.0009928
1649.3	0.0009096
1658.95	0.0010505
1668.59	0.0011121
1678.24	0.0010397
1687.88	0.0010942
1697.53	0.0011809
1707.17	0.001031
1716.82	0.0008795
1726.46	0.0009016
1736.11	0.000927
1745.75	0.0008858
1755.4	0.0009319
1765.04	0.0009467
1774.69	0.0010478
1784.33	0.0011498
1793.98	0.001536
1803.62	0.0013446
1813.27	0.0011314
1822.91	0.0009158
1832.55	0.0008691
1842.2	0.0008656
1851.84	0.0009582
1861.49	0.0013001
1871.13	0.0014734
1880.78	0.0013117
1890.42	0.0010996
1900.07	0.0008618
1909.71	0.0008256
1919.36	0.0009408
1929	0.0012399
1938.65	0.0016232
1948.29	0.0012469
1957.94	0.0011364
1967.58	0.0008747
1977.23	0.00074922
1986.87	0.00077625
1996.52	0.00075263
2006.16	0.00077785
2015.81	0.00070025
2025.45	0.00071742
2035.1	0.00068748
2044.74	0.00070941
2054.38	0.00074418
2064.03	0.00071357
2073.67	0.00073008
2083.32	0.00073778
2092.96	0.00071005
2102.61	0.0006613
2112.25	0.00076081
2121.9	0.0006371
2131.54	0.00071401
2141.19	0.00070438
2150.83	0.00073093
2160.48	0.00074891
2170.12	0.0007902
2179.77	0.00072167
2189.41	0.00074735
2199.06	0.00075978
2208.7	0.00077499
2218.35	0.0007823
2227.99	0.00073931
2237.64	0.00077608
2247.28	0.0008155
2256.92	0.00073183
2266.57	0.000685406
2276.21	0.00073922
2285.86	0.000688897
2295.5	0.00071459
2305.15	0.00075813
2314.79	0.000839
2324.44	0.0007985
2334.08	0.000857
2343.73	0.000978
2353.37	0.0008869
2363.02	0.0007814
2372.66	0.000802
2382.31	0.00073029
2391.95	0.0008296
2401.6	0.00074718
2411.24	0.000792
2420.89	0.00074429
2430.53	0.00076903
2440.18	0.00078064
2449.82	0.00072248
2459.47	0.00076265
2469.11	0.00074405
2478.75	0.00072999
2488.4	0.0008162
2498.04	0.00076196
2507.69	0.0006662
2517.33	0.0007219
2526.98	0.0007951
2536.62	0.00074283
2546.27	0.0007853
2555.91	0.0007816
2565.56	0.00075755
2575.2	0.00075287
2584.85	0.00071187
2594.49	0.00077488
2604.14	0.0008445
2613.78	0.00072947
2623.43	0.0007956
2633.07	0.00076996
2642.72	0.00071805
2652.36	0.0008267
2662.01	0.0007416
2671.65	0.000788
2681.29	0.00077933
2690.94	0.00071648
2700.58	0.00075485
2710.23	0.00071982
2719.87	0.00070393
2729.52	0.00073071
2739.16	0.00070219
2748.81	0.00074122
2758.45	0.00072796
2768.1	0.00070086
2777.74	0.00072932
2787.39	0.00076388
2797.03	0.00072835
2806.68	0.00069197
2816.32	0.0008315
2825.97	0.0008586
2835.61	0.00077181
2845.26	0.000795
2854.9	0.0008722
2864.55	0.0008868
2874.19	0.0008227
2883.84	0.0008423
2893.48	0.0008327
2903.12	0.0008713
2912.77	0.0008298
2922.41	0.0009808
2932.06	0.00075135
2941.7	0.0009309
2951.35	0.0010185
2960.99	0.0010645
2970.64	0.000987
2980.28	0.0009455
2989.93	0.0011086
2999.57	0.001181
3009.22	0.001751
3018.86	0.002751
3028.51	0.005161
3038.15	0.007111
3047.8	0.005511
3057.44	0.007621
3067.09	0.012271
3076.73	0.007871
3086.38	0.005411
3096.02	0.003791
3105.67	0.002791
3115.31	0.001861
3124.95	0.0013611
3134.6	0.0010267
3144.24	0.0009162
3153.89	0.0008989
3163.53	0.0008382
3173.18	0.00076707
3182.82	0.0008634
3192.47	0.00069805
3202.11	0.00073453
3211.76	0.0007562
3221.4	0.0006459
3231.05	0.00072575
3240.69	0.00073397
3250.34	0.0007816
3259.98	0.0006414
3269.63	0.000642
3279.27	0.00076112
3288.92	0.00075638
3298.56	0.000652
3308.21	0.00067425
3317.85	0.00075397
3327.49	0.0007001
3337.14	0.00075734
3346.78	0.00075427
3356.43	0.000512
3366.07	0.0005892
3375.72	0.00067315
3385.36	0.00075693
3395.01	0.00074538
3404.65	0.00075131
3414.3	0.000688966
3423.94	0.0006632
3433.59	0.0007654
3443.23	0.00070501
3452.88	0.0006184
3462.52	0.00070247
3472.17	0.0006592
3481.81	0.000547
3491.46	0.0006236
3501.1	0.0006343
3510.75	0.00055
3520.39	0.00071198
3530.04	0.000683364
3539.68	0.00073298
3549.32	0.0005957
3558.97	0.0006005
3568.61	0.000547
3578.26	0.00073266
3587.9	0.0006438
3597.55	0.0008067
3607.19	0.00072558
3616.84	0.00070112
3626.48	0.00070732
3636.13	0.00074088
3645.77	0.00076144
3655.42	0.00076403
3665.06	0.0006645
3674.71	0.00075331
3684.35	0.00071322
3694	0.0007972
3703.64	0.0007125
3713.29	0.000871
3722.93	0.0008387
3732.58	0.00074871
3742.22	0.00075744
3751.86	0.00073386
3761.51	0.0006551
3771.15	0.00070251
3780.8	0.0007551
3790.44	0.0008213
3800.09	0.00074672
3809.73	0.000643
3819.38	0.000688451
3829.02	0.00077086
3838.67	0.00074948
3848.31	0.00069982
3857.96	0.00075963
3867.6	0.0006415
3877.25	0.0006045
3886.89	0.000875
3896.54	0.00077992
3906.18	0.0008071
3915.83	0.0008241
3925.47	0.0009206
3935.12	0.00072472
3944.76	0.00072571
3954.41	0.00071284
3964.05	0.0006506
3973.69	0.000685784
3983.34	0.00072165
3992.98	0.00067372
