Infrared Spectrum: 2,4,6-Trimethylbenzonitrile N-oxide
Formula: C 10 H 11 N O
CAS: 2904-57-6
State: gas
Origin: EPA-IR VAPOR PHASE LIBRARY
1/CM	ABSORBANCE
549.8	0.0011147
559.445	0.002368
569.09	0.004938
578.734	0.005148
588.379	0.006928
598.024	0.006888
607.669	0.004178
617.313	0.002348
626.958	0.001468
636.603	0.001428
646.248	0.001338
655.893	0.0008873
665.537	0.0011319
675.182	0.001678
684.827	0.001958
694.472	0.001498
704.116	0.001628
713.761	0.002508
723.406	0.002588
733.051	0.001538
742.695	0.0011986
752.34	0.0010329
761.985	0.0009267
771.63	0.0005839
781.275	0.0005039
790.919	0.0003717
800.564	0.0001818
810.209	0.000207
819.854	0.0006094
829.498	0.000926
839.143	0.003388
848.788	0.007608
858.433	0.004978
868.078	0.001928
877.722	0.0006081
887.367	0.00048
897.012	0.000514
906.657	0.0005777
916.301	0.0007966
925.946	0.0009854
935.591	0.001378
945.236	0.001448
954.88	0.0009588
964.525	0.0003895
974.17	0.0007717
983.815	0.0011335
993.46	0.001298
1003.1	0.002028
1012.75	0.002258
1022.39	0.002078
1032.04	0.001378
1041.68	0.001558
1051.33	0.001788
1060.97	0.002818
1070.62	0.004668
1080.26	0.010668
1089.91	0.013548
1099.55	0.006458
1109.2	0.002998
1118.84	0.002358
1128.49	0.002108
1138.13	0.002228
1147.78	0.001268
1157.42	0.0011755
1167.07	0.001878
1176.71	0.003838
1186.36	0.004078
1196	0.002458
1205.64	0.001488
1215.29	0.0006534
1224.93	0.0009695
1234.58	0.0007619
1244.22	0.0008342
1253.87	0.000963
1263.51	0.0007027
1273.16	0.0009655
1282.8	0.0006279
1292.45	0.0009663
1302.09	0.0007981
1311.74	0.0007767
1321.38	0.0009023
1331.03	0.0009666
1340.67	0.0009331
1350.32	0.0009192
1359.96	0.001099
1369.61	0.001318
1379.25	0.002218
1388.9	0.002508
1398.54	0.002048
1408.18	0.002648
1417.83	0.003178
1427.47	0.003968
1437.12	0.005018
1446.76	0.005928
1456.41	0.006448
1466.05	0.006708
1475.7	0.006878
1485.34	0.008688
1494.99	0.012088
1504.63	0.015398
1514.28	0.014518
1523.92	0.008648
1533.57	0.004948
1543.21	0.003798
1552.86	0.003178
1562.5	0.002958
1572.15	0.002808
1581.79	0.002888
1591.44	0.002728
1601.08	0.002158
1610.73	0.001558
1620.37	0.0011694
1630.01	0.0008427
1639.66	0.0008497
1649.3	0.0007328
1658.95	0.000577
1668.59	0.0004756
1678.24	0.000422
1687.88	0.0004889
1697.53	0.0004995
1707.17	0.0006032
1716.82	0.0009888
1726.46	0.0010844
1736.11	0.0008304
1745.75	0.0007316
1755.4	0.0007583
1765.04	0.0005023
1774.69	0.00031217
1784.33	0.0003536
1793.98	0.0003805
1803.62	0.00031861
1813.27	0.00032321
1822.91	0.0004109
1832.55	0.0003731
1842.2	0.0003841
1851.84	0.0004003
1861.49	0.0003906
1871.13	0.000488
1880.78	0.0005671
1890.42	0.0005217
1900.07	0.0006336
1909.71	0.0005037
1919.36	0.0005155
1929	0.0004891
1938.65	0.0004263
1948.29	0.0004905
1957.94	0.0004655
1967.58	0.0004954
1977.23	0.000435
1986.87	0.0005104
1996.52	0.000541
2006.16	0.0005881
2015.81	0.0006346
2025.45	0.00058
2035.1	0.0004877
2044.74	0.0006203
2054.38	0.0006937
2064.03	0.0008484
2073.67	0.0010149
2083.32	0.0011659
2092.96	0.001398
2102.61	0.001988
2112.25	0.002398
2121.9	0.003078
2131.54	0.003418
2141.19	0.003638
2150.83	0.004198
2160.48	0.005448
2170.12	0.007048
2179.77	0.009768
2189.41	0.013328
2199.06	0.017718
2208.7	0.022458
2218.35	0.026188
2227.99	0.029628
2237.64	0.033878
2247.28	0.040948
2256.92	0.058428
2266.57	0.101468
2276.21	0.184638
2285.86	0.289218
2295.5	0.264668
2305.15	0.135338
2314.79	0.064748
2324.44	0.035248
2334.08	0.019588
2343.73	0.013198
2353.37	0.012768
2363.02	0.016418
2372.66	0.019058
2382.31	0.016778
2391.95	0.011758
2401.6	0.007108
2411.24	0.004328
2420.89	0.003008
2430.53	0.002988
2440.18	0.002858
2449.82	0.002258
2459.47	0.001578
2469.11	0.0011623
2478.75	0.0011025
2488.4	0.0010085
2498.04	0.0007911
2507.69	0.0008378
2517.33	0.0006903
2526.98	0.0006179
2536.62	0.0006167
2546.27	0.0006158
2555.91	0.0007285
2565.56	0.0007304
2575.2	0.0006578
2584.85	0.0006651
2594.49	0.0005149
2604.14	0.0005549
2613.78	0.0004831
2623.43	0.0004695
2633.07	0.0004847
2642.72	0.0005483
2652.36	0.0006054
2662.01	0.0005931
2671.65	0.0005897
2681.29	0.0007181
2690.94	0.0009535
2700.58	0.001121
2710.23	0.0009496
2719.87	0.00078
2729.52	0.000759
2739.16	0.0010694
2748.81	0.001298
2758.45	0.0006389
2768.1	0.0007049
2777.74	0.0006475
2787.39	0.0006402
2797.03	0.0008343
2806.68	0.0009011
2816.32	0.001077
2825.97	0.001308
2835.61	0.001678
2845.26	0.002288
2854.9	0.003658
2864.55	0.005868
2874.19	0.007388
2883.84	0.006708
2893.48	0.005738
2903.12	0.006508
2912.77	0.008228
2922.41	0.012708
2932.06	0.016698
2941.7	0.013988
2951.35	0.009588
2960.99	0.008428
2970.64	0.007838
2980.28	0.008938
2989.93	0.009848
2999.57	0.009148
3009.22	0.009178
3018.86	0.009128
3028.51	0.008618
3038.15	0.007758
3047.8	0.006238
3057.44	0.004098
3067.09	0.002868
3076.73	0.002168
3086.38	0.001578
3096.02	0.0012206
3105.67	0.0011397
3115.31	0.0006651
3124.95	0.000739
3134.6	0.0004885
3144.24	0.0005502
3153.89	0.00026498
3163.53	0.0004596
3173.18	0.0002827
3182.82	0.0002186
3192.47	0.0003854
3202.11	0.0003949
3211.76	5.1e-05
3221.4	6.6e-05
3231.05	0.0003631
3240.69	0.0003585
3250.34	0.0002249
3259.98	0.00025363
3269.63	0.00025566
3279.27	0.0001446
3288.92	0.000114
3298.56	0.00033158
3308.21	0.00028492
3317.85	0.0003438
3327.49	0.0004164
3337.14	0.000708
3346.78	0.0007408
3356.43	0.0008249
3366.07	0.001248
3375.72	0.0011689
3385.36	0.0008749
3395.01	0.0008651
3404.65	0.0010371
3414.3	0.0006938
3423.94	0.0009325
3433.59	0.0003459
3443.23	0.0004672
3452.88	0.0004632
3462.52	0.0006271
3472.17	0.0007088
3481.81	0.0006711
3491.46	0.0005341
3501.1	0.0005026
3510.75	0.0004262
3520.39	0.0002881
3530.04	0.00026181
3539.68	0.00027133
3549.32	0.00026392
3558.97	0.0005139
3568.61	0.0004815
3578.26	0.000368
3587.9	0.0005709
3597.55	0.0007597
3607.19	0.0005427
3616.84	0.0006047
3626.48	0.0005946
3636.13	0.0005426
3645.77	0.0008464
3655.42	0.000959
3665.06	0.0009594
3674.71	0.001238
3684.35	0.001358
3694	0.001428
3703.64	0.001328
3713.29	0.0011984
3722.93	0.0009664
3732.58	0.0010685
3742.22	0.0009519
3751.86	0.0007542
3761.51	0.0009366
3771.15	0.0009043
3780.8	0.0011279
3790.44	0.0010108
3800.09	0.001169
3809.73	0.0008697
3819.38	0.000555
3829.02	0.0005952
3838.67	0.0007285
3848.31	0.000415
3857.96	0.0005484
3867.6	0.0005437
3877.25	0.000125
3886.89	0.0002091
3896.54	0.0004841
3906.18	0
3915.83	0.0005033
3925.47	0.00029804
3935.12	0.0004139
3944.76	0.00033629
3954.41	0.0002139
3964.05	0.0003668
3973.69	0.000389
3983.34	9.6e-05
3992.98	0.00029737
