Infrared Spectrum: 2-Chlorobenzenesulfonyl chloride
Formula: C 6 H 4 Cl 2 O 2 S
CAS: 2905-23-9
State: gas
Origin: EPA-IR VAPOR PHASE LIBRARY
1/CM	ABSORBANCE
549.8	0.044802
559.445	0.102282
569.09	0.081642
578.734	0.153952
588.379	0.213032
598.024	0.082102
607.669	0.023482
617.313	0.011452
626.958	0.004732
636.603	0.003622
646.248	0.005132
655.893	0.021412
665.537	0.025282
675.182	0.006872
684.827	0.003532
694.472	0.006942
704.116	0.014652
713.761	0.009992
723.406	0.005642
733.051	0.012782
742.695	0.041682
752.34	0.082852
761.985	0.052572
771.63	0.011192
781.275	0.003442
790.919	0.002572
800.564	0.002002
810.209	0.001622
819.854	0.001522
829.498	0.0013249
839.143	0.001782
848.788	0.001762
858.433	0.002072
868.078	0.002022
877.722	0.001422
887.367	0.0009661
897.012	0.0007859
906.657	0.0009836
916.301	0.0007412
925.946	0.0007393
935.591	0.0008817
945.236	0.0011821
954.88	0.001602
964.525	0.0011935
974.17	0.0007678
983.815	0.0008026
993.46	0.0013841
1003.1	0.001502
1012.75	0.002602
1022.39	0.004562
1032.04	0.014962
1041.68	0.030002
1051.33	0.018592
1060.97	0.003512
1070.62	0.001892
1080.26	0.002292
1089.91	0.003082
1099.55	0.008652
1109.2	0.017012
1118.84	0.014892
1128.49	0.013452
1138.13	0.012412
1147.78	0.009702
1157.42	0.019512
1167.07	0.036712
1176.71	0.047662
1186.36	0.100782
1196	0.141682
1205.64	0.051442
1215.29	0.010702
1224.93	0.007532
1234.58	0.005452
1244.22	0.009512
1253.87	0.019512
1263.51	0.016722
1273.16	0.006582
1282.8	0.003302
1292.45	0.002042
1302.09	0.001902
1311.74	0.001992
1321.38	0.001912
1331.03	0.002152
1340.67	0.002632
1350.32	0.003422
1359.96	0.004942
1369.61	0.007882
1379.25	0.018342
1388.9	0.056022
1398.54	0.122392
1408.18	0.090332
1417.83	0.034622
1427.47	0.035392
1437.12	0.043812
1446.76	0.042672
1456.41	0.042482
1466.05	0.022062
1475.7	0.005432
1485.34	0.003612
1494.99	0.002912
1504.63	0.002502
1514.28	0.002332
1523.92	0.001722
1533.57	0.001902
1543.21	0.002762
1552.86	0.005082
1562.5	0.011232
1572.15	0.019072
1581.79	0.015082
1591.44	0.006542
1601.08	0.002252
1610.73	0.002402
1620.37	0.002952
1630.01	0.001742
1639.66	0.0007523
1649.3	0.0007294
1658.95	0.0006356
1668.59	0.0007635
1678.24	0.0007941
1687.88	0.0010547
1697.53	0.001532
1707.17	0.001932
1716.82	0.0012668
1726.46	0.0009306
1736.11	0.0008631
1745.75	0.0007566
1755.4	0.0006936
1765.04	0.0006896
1774.69	0.0008555
1784.33	0.0009215
1793.98	0.0009024
1803.62	0.001462
1813.27	0.002452
1822.91	0.002232
1832.55	0.0013396
1842.2	0.001452
1851.84	0.001582
1861.49	0.0011783
1871.13	0.0009224
1880.78	0.0006451
1890.42	0.0006656
1900.07	0.0009726
1909.71	0.0012248
1919.36	0.0013515
1929	0.002102
1938.65	0.002382
1948.29	0.001512
1957.94	0.001662
1967.58	0.001742
1977.23	0.0009996
1986.87	0.0006975
1996.52	0.0006158
2006.16	0.00048506
2015.81	0.00050054
2025.45	0.0006195
2035.1	0.0005439
2044.74	0.0005615
2054.38	0.0005497
2064.03	0.0005739
2073.67	0.0007033
2083.32	0.0006911
2092.96	0.0005054
2102.61	0.00047577
2112.25	0.0005909
2121.9	0.00048412
2131.54	0.0005676
2141.19	0.0006929
2150.83	0.0007827
2160.48	0.0006637
2170.12	0.0005346
2179.77	0.00048059
2189.41	0.0004923
2199.06	0.0005335
2208.7	0.0006128
2218.35	0.0005933
2227.99	0.0006734
2237.64	0.0007258
2247.28	0.00049034
2256.92	0.00049534
2266.57	0.00049653
2276.21	0.000583
2285.86	0.0007024
2295.5	0.0009137
2305.15	0.0009757
2314.79	0.0007941
2324.44	0.0008586
2334.08	0.0009036
2343.73	0.0005754
2353.37	0.0006646
2363.02	0.0008132
2372.66	0.0008483
2382.31	0.0007433
2391.95	0.0007086
2401.6	0.000402915
2411.24	0.00049527
2420.89	0.0005916
2430.53	0.0005021
2440.18	0.00046764
2449.82	0.00044149
2459.47	0.000513
2469.11	0.00045376
2478.75	0.00041911
2488.4	0.00043092
2498.04	0.00049334
2507.69	0.0006058
2517.33	0.0005875
2526.98	0.0006401
2536.62	0.0008317
2546.27	0.0009274
2555.91	0.0010477
2565.56	0.0013013
2575.2	0.0013667
2584.85	0.0013923
2594.49	0.0012164
2604.14	0.0009701
2613.78	0.0010122
2623.43	0.0008591
2633.07	0.0005994
2642.72	0.00042288
2652.36	0.0003375
2662.01	0.0003295
2671.65	0.00048318
2681.29	0.000410439
2690.94	0.0005354
2700.58	0.0006667
2710.23	0.0006092
2719.87	0.00043325
2729.52	0.00048737
2739.16	0.00043605
2748.81	0.0004167
2758.45	0.000408505
2768.1	0.00047441
2777.74	0.0003903
2787.39	0.0003726
2797.03	0.0003422
2806.68	0.0003468
2816.32	0.0003373
2825.97	0.0005436
2835.61	0.00049913
2845.26	0.0003367
2854.9	0.0003435
2864.55	0.0003861
2874.19	0.000217
2883.84	0.000221
2893.48	0.000196
2903.12	0.0003449
2912.77	0.000264
2922.41	0.00043971
2932.06	0.0004386
2941.7	0.000403171
2951.35	0.0005432
2960.99	0.000353
2970.64	0.0005871
2980.28	0.0007267
2989.93	0.0008043
2999.57	0.0009032
3009.22	0.0008695
3018.86	0.0009298
3028.51	0.0009181
3038.15	0.0007028
3047.8	0.000806
3057.44	0.002122
3067.09	0.006552
3076.73	0.011052
3086.38	0.007172
3096.02	0.002572
3105.67	0.001492
3115.31	0.0009383
3124.95	0.0010291
3134.6	0.0011964
3144.24	0.0012178
3153.89	0.0009946
3163.53	0.0005606
3173.18	0.00044735
3182.82	0.0003066
3192.47	0.000239
3202.11	0.0003476
3211.76	0.000126
3221.4	0.000267
3231.05	0
3240.69	0.0005544
3250.34	0.0003249
3259.98	0.0003403
3269.63	0.000237
3279.27	0.000228
3288.92	0.0003222
3298.56	0.00027
3308.21	0.000351
3317.85	0.000264
3327.49	0.0003066
3337.14	0.000241
3346.78	0.00047739
3356.43	0.000235
3366.07	0.00044725
3375.72	0.000213
3385.36	0.0003457
3395.01	0.000191
3404.65	0.00023
3414.3	0.000356
3423.94	0.000266
3433.59	0.00046719
3443.23	0.000226
3452.88	0.0003495
3462.52	0.000291
3472.17	0.000246
3481.81	0.000248
3491.46	0.000194
3501.1	0.0003572
3510.75	0.0003112
3520.39	0.0003836
3530.04	0.000293
3539.68	0.000314
3549.32	9.8e-05
3558.97	0.0003358
3568.61	0.0003299
3578.26	0.0003113
3587.9	0.000222
3597.55	0.000182
3607.19	0.000408997
3616.84	0.000269
3626.48	0.000275
3636.13	0.000249
3645.77	0.000295
3655.42	0.000248
3665.06	5.3e-05
3674.71	0.00039656
3684.35	0.00048666
3694	0.000149
3703.64	0.000167
3713.29	0.000259
3722.93	0.0003353
3732.58	0.0003829
3742.22	0.0003234
3751.86	0.00042545
3761.51	0.000167
3771.15	0.00029
3780.8	0.00011
3790.44	0.000115
3800.09	0.0003722
3809.73	0.000383
3819.38	0.0005557
3829.02	0.000588
3838.67	0.0003462
3848.31	0.0003248
3857.96	0.000192
3867.6	0.00042404
3877.25	0.000277
3886.89	0.0003719
3896.54	0.000238
3906.18	0.000254
3915.83	0.000228
3925.47	0.000263
3935.12	4.9e-05
3944.76	0.0003358
3954.41	0.000267
3964.05	0.0003414
3973.69	0.00013
3983.34	0.0003667
3992.98	0.000204
