Infrared Spectrum: Methyl-3,5-dichlorobenzoate
Formula: C 8 H 6 Cl 2 O 2
CAS: 2905-67-1
State: gas
Instrument: HP-GC/MS/IRD
Origin: NIST Mass Spectrometry Data Center
1/CM	ABSORBANCE
550	0.0002075
562	0.00012
574	9e-05
586	0.0001075
598	0.0001325
610	9.5e-05
622	6.25e-05
634	9e-05
646	0.0001775
658	0.0006575
670	0.00056
682	8.75e-05
694	0.0001975
706	0.0002225
718	0.0003675
730	0.0017475
742	0.001345
754	0.0010875
766	0.001925
778	0.0013525
790	0.0023375
802	0.0046925
814	0.0028875
826	0.0009175
838	0.0007625
850	0.000705
862	0.00119
874	0.0017125
886	0.00059
898	0.0004525
910	0.0003475
922	0.0001775
934	0.00014
946	0.00022
958	0.0003825
970	0.001
982	0.002615
994	0.002095
1006	0.0004575
1018	0.0002375
1030	0.0002325
1042	0.00019
1054	0.00032
1066	0.0004575
1078	0.0006575
1090	0.0013775
1102	0.0023925
1114	0.0012475
1126	0.0014375
1138	0.00267
1150	0.003135
1162	0.001735
1174	0.00132
1186	0.0017325
1198	0.0019175
1210	0.0017075
1222	0.0022925
1234	0.00355
1246	0.00642
1258	0.015645
1270	0.025
1282	0.0145775
1294	0.00378
1306	0.0015075
1318	0.0010425
1330	0.000785
1342	0.00061
1354	0.00057
1366	0.0007275
1378	0.00125
1390	0.0023725
1402	0.00178
1414	0.001825
1426	0.00297
1438	0.003535
1450	0.0024875
1462	0.0008025
1474	0.0005225
1486	0.00037
1498	0.0002925
1510	0.0002775
1522	0.0003875
1534	0.0004975
1546	0.000875
1558	0.002845
1570	0.0060125
1582	0.002785
1594	0.000825
1606	0.00051
1618	0.000345
1630	0.00032
1642	0.0003325
1654	0.000325
1666	0.00034
1678	0.0003175
1690	0.00037
1702	0.0007675
1714	0.00133
1726	0.0013925
1738	0.00415
1750	0.01318
1762	0.004755
1774	0.0012325
1786	0.00141
1798	0.0009775
1810	0.000435
1822	0.0002575
1834	0.0002225
1846	0.0002025
1858	0.00024
1870	0.0001625
1882	0.0001275
1894	0.00014
1906	8.5e-05
1918	0.00015
1930	0.0001475
1942	0.0001775
1954	0.0002125
1966	0.000215
1978	0.0001825
1990	0.000165
2002	0.00017
2014	0.000165
2026	0.000105
2038	9.5e-05
2050	0.0001075
2062	0.000105
2074	9.5e-05
2086	0.000135
2098	0.000155
2110	0.0001675
2122	0.0002075
2134	0.00019
2146	0.000125
2158	0.0001025
2170	0.000105
2182	0.0001425
2194	0.0001025
2206	0.0001075
2218	7e-05
2230	8.5e-05
2242	9e-05
2254	9e-05
2266	0.0001025
2278	0.00011
2290	9e-05
2302	8e-05
2314	4.75e-05
2326	0.0001175
2338	0.00012
2350	0.00013
2362	0.0001125
2374	0.0001075
2386	9.75e-05
2398	0.0001075
2410	7.25e-05
2422	9.25e-05
2434	0.0001
2446	0.0001
2458	0.0001175
2470	5.75e-05
2482	9.25e-05
2494	6.5e-05
2506	4.25e-05
2518	7.25e-05
2530	9.75e-05
2542	8.25e-05
2554	9e-05
2566	5e-05
2578	8.5e-05
2590	5.75e-05
2602	7.25e-05
2614	7.75e-05
2626	2.5e-06
2638	3e-05
2650	4.5e-05
2662	6.5e-05
2674	6.25e-05
2686	5.5e-05
2698	8.75e-05
2710	7.5e-05
2722	8.25e-05
2734	5.5e-05
2746	5e-05
2758	4.75e-05
2770	6e-05
2782	9.25e-05
2794	5e-05
2806	5.25e-05
2818	0.0001
2830	0.00015
2842	0.0002975
2854	0.00037
2866	0.0003225
2878	0.0001725
2890	0.0001775
2902	0.00023
2914	0.000245
2926	0.0003175
2938	0.000395
2950	0.0007525
2962	0.0020575
2974	0.000995
2986	0.000365
2998	0.0004475
3010	0.0004925
3022	0.0003975
3034	0.000435
3046	0.0003125
3058	0.0002325
3070	0.000195
3082	0.0003
3094	0.00039
3106	0.00019
3118	0.00011
3130	0.0001425
3142	0.000155
3154	0.0001325
3166	0.000105
3178	5e-05
3190	0.00011
3202	9.25e-05
3214	6e-05
3226	1.25e-05
3238	4e-05
3250	3.5e-05
3262	8.25e-05
3274	0.0001475
3286	2.5e-05
3298	3.25e-05
3310	8e-05
3322	6.5e-05
3334	0.0001075
3346	0.0001275
3358	0.000175
3370	8e-05
3382	0.0001275
3394	0.00018
3406	0.0001475
3418	0.0001175
3430	0.00026
3442	0.000195
3454	0.00018
3466	0.0002175
3478	0.0002375
3490	0.0002875
3502	0.0002175
3514	0.0002175
3526	0.0001625
3538	0.0001975
3550	0.000225
3562	0.0001475
3574	0.0002075
3586	0.0002275
3598	0.000225
3610	0.0002225
3622	0.00019
3634	0.00019
3646	0.000205
3658	0.0002
3670	0.0001875
3682	0.00018
3694	0.0001875
3706	0.00017
3718	0.0001725
3730	0.0001625
3742	0.0002275
3754	0.00019
3766	0.0001875
3778	0.0002
3790	0.000175
3802	0.0002075
3814	0.0002525
3826	0.0002925
3838	0.0002325
