Infrared Spectrum: 3-Bromobenzenesulphonyl chloride
Formula: C 6 H 4 Br Cl O 2 S
CAS: 2905-24-0
State: gas
Origin: EPA-IR VAPOR PHASE LIBRARY
1/CM	ABSORBANCE
549.8	0.149122
559.445	0.184302
569.09	0.040952
578.734	0.076702
588.379	0.234482
598.024	0.270322
607.669	0.085202
617.313	0.023662
626.958	0.010582
636.603	0.010172
646.248	0.024442
655.893	0.090912
665.537	0.066642
675.182	0.070182
684.827	0.028282
694.472	0.009202
704.116	0.003932
713.761	0.003182
723.406	0.003272
733.051	0.005382
742.695	0.008412
752.34	0.016032
761.985	0.031262
771.63	0.046552
781.275	0.052932
790.919	0.025732
800.564	0.006822
810.209	0.003782
819.854	0.0016016
829.498	0.002522
839.143	0.002262
848.788	0.002352
858.433	0.002152
868.078	0.003482
877.722	0.006152
887.367	0.009382
897.012	0.005272
906.657	0.002232
916.301	0.002182
925.946	0.0014642
935.591	0.0017114
945.236	0.0018944
954.88	0.002732
964.525	0.002102
974.17	0.002282
983.815	0.003392
993.46	0.006472
1003.1	0.005632
1012.75	0.003562
1022.39	0.003012
1032.04	0.002482
1041.68	0.004172
1051.33	0.010082
1060.97	0.025192
1070.62	0.037952
1080.26	0.034162
1089.91	0.033292
1099.55	0.024492
1109.2	0.021932
1118.84	0.029522
1128.49	0.014472
1138.13	0.007172
1147.78	0.009732
1157.42	0.018052
1167.07	0.052362
1176.71	0.149812
1186.36	0.218382
1196	0.201922
1205.64	0.095382
1215.29	0.027122
1224.93	0.006932
1234.58	0.002622
1244.22	0.004562
1253.87	0.003692
1263.51	0.004362
1273.16	0.004842
1282.8	0.011322
1292.45	0.016182
1302.09	0.009972
1311.74	0.004732
1321.38	0.004022
1331.03	0.004682
1340.67	0.006592
1350.32	0.006612
1359.96	0.008832
1369.61	0.019342
1379.25	0.040122
1388.9	0.081702
1398.54	0.211382
1408.18	0.204442
1417.83	0.097932
1427.47	0.035192
1437.12	0.013632
1446.76	0.016932
1456.41	0.043902
1466.05	0.042592
1475.7	0.011212
1485.34	0.005922
1494.99	0.003072
1504.63	0.002282
1514.28	0.002652
1523.92	0.002482
1533.57	0.002872
1543.21	0.004042
1552.86	0.007982
1562.5	0.020102
1572.15	0.039412
1581.79	0.023882
1591.44	0.006872
1601.08	0.002672
1610.73	0.001612
1620.37	0.0012662
1630.01	0.0013344
1639.66	0.0012576
1649.3	0.0013541
1658.95	0.0016982
1668.59	0.001673
1678.24	0.0017982
1687.88	0.003552
1697.53	0.005462
1707.17	0.002342
1716.82	0.0014448
1726.46	0.0013919
1736.11	0.0014396
1745.75	0.002142
1755.4	0.002592
1765.04	0.003292
1774.69	0.003582
1784.33	0.001952
1793.98	0.001863
1803.62	0.001942
1813.27	0.001817
1822.91	0.002182
1832.55	0.002332
1842.2	0.0018872
1851.84	0.0017454
1861.49	0.0019032
1871.13	0.001952
1880.78	0.003142
1890.42	0.003822
1900.07	0.0017431
1909.71	0.0011726
1919.36	0.0011823
1929	0.001237
1938.65	0.002182
1948.29	0.003072
1957.94	0.002372
1967.58	0.00136
1977.23	0.0011135
1986.87	0.0008897
1996.52	0.0011599
2006.16	0.0010679
2015.81	0.00082
2025.45	0.000517
2035.1	0.00090943
2044.74	0.0008295
2054.38	0.00094473
2064.03	0.0008483
2073.67	0.0010131
2083.32	0.000920294
2092.96	0.0011299
2102.61	0.000911734
2112.25	0.000915476
2121.9	0.000804
2131.54	0.0012774
2141.19	0.0010957
2150.83	0.00096271
2160.48	0.0013557
2170.12	0.0011979
2179.77	0.0011681
2189.41	0.001314
2199.06	0.001405
2208.7	0.0008929
2218.35	0.00092677
2227.99	0.00095787
2237.64	0.0013921
2247.28	0.0013904
2256.92	0.0014652
2266.57	0.0015732
2276.21	0.0016406
2285.86	0.0013373
2295.5	0.0015657
2305.15	0.0010928
2314.79	0.0011438
2324.44	0.001304
2334.08	0.001952
2343.73	0.002362
2353.37	0.002002
2363.02	0.002002
2372.66	0.002042
2382.31	0.0014321
2391.95	0.0011375
2401.6	0.0011912
2411.24	0.0013455
2420.89	0.0011812
2430.53	0.001386
2440.18	0.0011448
2449.82	0.000919337
2459.47	0.0010285
2469.11	0.0012516
2478.75	0.0010416
2488.4	0.0014003
2498.04	0.001529
2507.69	0.0016567
2517.33	0.001819
2526.98	0.0018516
2536.62	0.0014609
2546.27	0.002122
2555.91	0.002282
2565.56	0.002582
2575.2	0.002602
2584.85	0.002572
2594.49	0.001932
2604.14	0.0017557
2613.78	0.0014004
2623.43	0.0017283
2633.07	0.0013829
2642.72	0.0018259
2652.36	0.001768
2662.01	0.00171
2671.65	0.0017013
2681.29	0.0018686
2690.94	0.0010768
2700.58	0.001365
2710.23	0.000799
2719.87	0.001062
2729.52	0.0011078
2739.16	0.0013873
2748.81	0.0015632
2758.45	0.0017199
2768.1	0.0015239
2777.74	0.0015737
2787.39	0.0012032
2797.03	0.0011483
2806.68	0.0012185
2816.32	0.0014484
2825.97	0.0012752
2835.61	0.0016369
2845.26	0.0014207
2854.9	0.0015956
2864.55	0.0016635
2874.19	0.00095706
2883.84	0.000797
2893.48	0.0011312
2903.12	0.0011185
2912.77	0.0011258
2922.41	0.0013801
2932.06	0.0010899
2941.7	0.0008203
2951.35	0.0011623
2960.99	0.0017845
2970.64	0.0011808
2980.28	0.0012468
2989.93	0.0011735
2999.57	0.001952
3009.22	0.0012978
3018.86	0.001712
3028.51	0.0008441
3038.15	0.0014526
3047.8	0.0016503
3057.44	0.004332
3067.09	0.009882
3076.73	0.014372
3086.38	0.009442
3096.02	0.003212
3105.67	0.002182
3115.31	0.00156
3124.95	0.002082
3134.6	0.0018158
3144.24	0.002422
3153.89	0.002072
3163.53	0.001352
3173.18	0.0012268
3182.82	0.000652
3192.47	0.00094433
3202.11	0.0012359
3211.76	0.0013009
3221.4	0.00096838
3231.05	0.000708
3240.69	0.001162
3250.34	0.0008641
3259.98	0.0011561
3269.63	0.000779
3279.27	0.001439
3288.92	0.00101102
3298.56	0.000695
3308.21	0.000547
3317.85	0.000799
3327.49	0.000739
3337.14	0.0008927
3346.78	0.0008597
3356.43	0.000738
3366.07	0.00100107
3375.72	0.0015988
3385.36	0.00092703
3395.01	0.000685
3404.65	0.00101167
3414.3	0.00097372
3423.94	0.0008171
3433.59	0.00094818
3443.23	0.0013888
3452.88	0.00099183
3462.52	0.0010605
3472.17	0.0010591
3481.81	0.0012772
3491.46	0.000781
3501.1	0.000327
3510.75	0.000797
3520.39	0.0012541
3530.04	0.000525
3539.68	0.0012505
3549.32	0.000772
3558.97	0.000331
3568.61	0.0010349
3578.26	0.000791
3587.9	0.000327
3597.55	0.000625
3607.19	0.000281
3616.84	0.000686
3626.48	0.000567
3636.13	0.001041
3645.77	0.0008435
3655.42	0.0011382
3665.06	0.0004
3674.71	0.0017002
3684.35	0.0011821
3694	0.0011466
3703.64	0.000687
3713.29	0.000655
3722.93	0.00074
3732.58	0.000725
3742.22	0.00100224
3751.86	0.0015259
3761.51	0.0008943
3771.15	0.0012269
3780.8	0.0009976
3790.44	0.0010324
3800.09	0.0015066
3809.73	0.000656
3819.38	0.0009425
3829.02	0.0010127
3838.67	0.0014641
3848.31	0.0011239
3857.96	0.0008241
3867.6	0.000845
3877.25	0.0014193
3886.89	0.0014037
3896.54	0.00090399
3906.18	0.0008978
3915.83	0.000685
3925.47	0.0016714
3935.12	0.00077
3944.76	0.000552
3954.41	0.00099764
3964.05	0.0011017
3973.69	0.0011606
3983.34	0.000812
3992.98	0.000674
