Infrared Spectrum: 3,5-Dichlorobenzoyl chloride
Formula: C 7 H 3 Cl 3 O
CAS: 2905-62-6
State: gas
Origin: EPA-IR VAPOR PHASE LIBRARY
1/CM	ABSORBANCE
549.9	0.00349
559.547	0.0026005
569.193	0.0023917
578.84	0.00197985
588.486	0.00192927
598.133	0.001749
607.779	0.001786
617.426	0.0022324
627.072	0.002497
636.719	0.00323
646.365	0.00582
656.012	0.00459
665.658	0.00332
675.305	0.00478
684.951	0.00956
694.598	0.02518
704.245	0.04072
713.891	0.06401
723.538	0.07592
733.184	0.13776
742.831	0.10525
752.477	0.02394
762.124	0.01371
771.77	0.00999
781.417	0.00826
791.063	0.0112
800.71	0.02904
810.356	0.0538
820.003	0.03
829.649	0.01257
839.296	0.01066
848.943	0.00871
858.589	0.00965
868.236	0.02134
877.882	0.02577
887.529	0.0097
897.175	0.0074
906.822	0.00608
916.468	0.00679
926.115	0.01102
935.761	0.01794
945.408	0.03669
955.054	0.07436
964.701	0.05527
974.347	0.01502
983.994	0.00904
993.64	0.00999
1003.29	0.0069
1012.93	0.00299
1022.58	0.0024962
1032.23	0.0023455
1041.87	0.0023023
1051.52	0.002622
1061.17	0.00296
1070.81	0.00363
1080.46	0.00452
1090.11	0.00657
1099.75	0.01645
1109.4	0.01989
1119.05	0.01278
1128.69	0.00731
1138.34	0.00615
1147.99	0.00762
1157.63	0.00899
1167.28	0.01104
1176.92	0.01941
1186.57	0.06107
1196.22	0.17278
1205.86	0.16321
1215.51	0.04239
1225.16	0.01984
1234.8	0.01821
1244.45	0.01472
1254.1	0.00742
1263.74	0.00471
1273.39	0.00426
1283.04	0.006
1292.68	0.00663
1302.33	0.00421
1311.98	0.00335
1321.62	0.0027099
1331.27	0.0025418
1340.92	0.00293
1350.56	0.00334
1360.21	0.00349
1369.86	0.00487
1379.5	0.01256
1389.15	0.02975
1398.79	0.02619
1408.44	0.01922
1418.09	0.03785
1427.73	0.03672
1437.38	0.01347
1447.03	0.0056
1456.67	0.00512
1466.32	0.00498
1475.97	0.0037
1485.61	0.0027
1495.26	0.0025487
1504.91	0.0025459
1514.55	0.002748
1524.2	0.00315
1533.85	0.00483
1543.49	0.00986
1553.14	0.02266
1562.79	0.05502
1572.43	0.06951
1582.08	0.02899
1591.73	0.0098
1601.37	0.0055
1611.02	0.00325
1620.67	0.0022601
1630.31	0.0021411
1639.96	0.0021588
1649.6	0.0025118
1659.25	0.00313
1668.9	0.00377
1678.54	0.00448
1688.19	0.00496
1697.84	0.00437
1707.48	0.00362
1717.13	0.00417
1726.78	0.00535
1736.42	0.00866
1746.07	0.01678
1755.72	0.02345
1765.36	0.04236
1775.01	0.15731
1784.66	0.15863
1794.3	0.03767
1803.95	0.01835
1813.6	0.02223
1823.24	0.01129
1832.89	0.00415
1842.54	0.00302
1852.18	0.0025181
1861.83	0.0024298
1871.47	0.0024663
1881.12	0.0025688
1890.77	0.00302
1900.41	0.00422
1910.06	0.00449
1919.71	0.00343
1929.35	0.0025669
1939	0.00198028
1948.65	0.00166
1958.29	0.001564
1967.94	0.001422
1977.59	0.001342
1987.23	0.001309
1996.88	0.001277
2006.53	0.001225
2016.17	0.001203
2025.82	0.001159
2035.47	0.001162
2045.11	0.001325
2054.76	0.001256
2064.41	0.001203
2074.05	0.001216
2083.7	0.001237
2093.35	0.001183
2102.99	0.001272
2112.64	0.001456
2122.28	0.0018143
2131.93	0.00194455
2141.58	0.00171
2151.22	0.001755
2160.87	0.00165
2170.52	0.001363
2180.16	0.001255
2189.81	0.001315
2199.46	0.001428
2209.1	0.001378
2218.75	0.00129
2228.4	0.001352
2238.04	0.001304
2247.69	0.00115
2257.34	0.001136
2266.98	0.001144
2276.63	0.001169
2286.28	0.001178
2295.92	0.001209
2305.57	0.001241
2315.22	0.001232
2324.86	0.001258
2334.51	0.001256
2344.16	0.001297
2353.8	0.001274
2363.45	0.001287
2373.09	0.001359
2382.74	0.001553
2392.39	0.001671
2402.03	0.001604
2411.68	0.001311
2421.33	0.001166
2430.97	0.001245
2440.62	0.00119
2450.27	0.001203
2459.91	0.001191
2469.56	0.001206
2479.21	0.001148
2488.85	0.001094
2498.5	0.001143
2508.15	0.001237
2517.79	0.001386
2527.44	0.00134
2537.09	0.001242
2546.73	0.001114
2556.38	0.00116
2566.03	0.001167
2575.67	0.001345
2585.32	0.001222
2594.96	0.00108
2604.61	0.001061
2614.26	0.001105
2623.9	0.001072
2633.55	0.001029
2643.2	0.001047
2652.84	0.001032
2662.49	0.001026
2672.14	0.000968
2681.78	0.00086
2691.43	0.00088
2701.08	0.000904
2710.72	0.000918
2720.37	0.00087
2730.02	0.00107
2739.66	0.001112
2749.31	0.001174
2758.96	0.001071
2768.6	0.001334
2778.25	0.001533
2787.9	0.00128
2797.54	0.001168
2807.19	0.00094
2816.84	0.000995
2826.48	0.00077
2836.13	0.001006
2845.77	0.001046
2855.42	0.001093
2865.07	0.00105
2874.71	0.0008
2884.36	0.00068
2894.01	0.00061
2903.65	0.00056
2913.3	0.00039
2922.95	0.00056
2932.59	0.00042
2942.24	0.00057
2951.89	0.00042
2961.53	0.00075
2971.18	0.00085
2980.83	0.001022
2990.47	0.001018
3000.12	0.00081
3009.77	0.0007
3019.41	0.00066
3029.06	0.00054
3038.71	0.00035
3048.35	0.00048
3058	0.00073
3067.64	0.00086
3077.29	0.0020407
3086.94	0.00528
3096.58	0.00403
3106.23	0.001473
3115.88	0.00044
3125.52	0.00032
3135.17	0.00038
3144.82	0.00033
3154.46	0.00047
3164.11	0.00028
3173.76	0.00041
3183.4	0.00022
3193.05	0.00032
3202.7	0.00024
3212.34	0.00034
3221.99	0.00011
3231.64	0.00017
3241.28	0.00025
3250.93	8e-05
3260.58	0.00035
3270.22	0.00039
3279.87	0.00031
3289.52	0.0005
3299.16	0.0004
3308.81	0.00038
3318.45	0.00044
3328.1	0.00024
3337.75	0.00033
3347.39	0.00029
3357.04	0.00056
3366.69	0.00061
3376.33	0.00053
3385.98	0.00014
3395.63	0.00038
3405.27	0.00046
3414.92	0.00049
3424.57	0.00036
3434.21	0.00057
3443.86	0.00064
3453.51	0.00085
3463.15	0.00079
3472.8	0.0007
3482.45	0.00067
3492.09	0.001069
3501.74	0.001038
3511.39	0.001145
3521.03	0.00175
3530.68	0.00295
3540.33	0.00327
3549.97	0.0020273
3559.62	0.001391
3569.26	0.001504
3578.91	0.001342
3588.56	0.001105
3598.2	0.00082
3607.85	0.00091
3617.5	0.001072
3627.14	0.000906
3636.79	0.001062
3646.44	0.001056
3656.08	0.001043
3665.73	0.001034
3675.38	0.000994
3685.02	0.000957
3694.67	0.000974
3704.32	0.001026
3713.96	0.001058
3723.61	0.001036
3733.26	0.000979
3742.9	0.000952
3752.55	0.00095
3762.2	0.001105
3771.84	0.001034
3781.49	0.001129
3791.13	0.001102
3800.78	0.001116
3810.43	0.001075
3820.07	0.001314
3829.72	0.001117
3839.37	0.000982
3849.01	0.001138
3858.66	0.00102
3868.31	0.001133
3877.95	0.001106
3887.6	0.001237
3897.25	0.001231
3906.89	0.001231
3916.54	0.001145
3926.19	0.001256
3935.83	0.001233
3945.48	0.001174
3955.13	0.001106
3964.77	0.001099
3974.42	0.001293
3984.07	0.001178
3993.71	0.001084
