Infrared Spectrum: 2-Fluorobenzenesulphonyl chloride
Formula: C 6 H 4 Cl F O 2 S
CAS: 2905-21-7
State: gas
Origin: EPA-IR VAPOR PHASE LIBRARY
1/CM	ABSORBANCE
549.8	0.01674
559.445	0.04287
569.09	0.06647
578.734	0.08624
588.379	0.14507
598.024	0.09728
607.669	0.02755
617.313	0.00919
626.958	0.00584
636.603	0.004
646.248	0.00311
655.893	0.00366
665.537	0.00508
675.182	0.01732
684.827	0.03811
694.472	0.02728
704.116	0.01012
713.761	0.01159
723.406	0.00639
733.051	0.0043
742.695	0.01206
752.34	0.036
761.985	0.04384
771.63	0.01669
781.275	0.0035
790.919	0.00319
800.564	0.00303
810.209	0.00428
819.854	0.01014
829.498	0.0233
839.143	0.01953
848.788	0.00649
858.433	0.00506
868.078	0.00376
877.722	0.0017804
887.367	0.0013137
897.012	0.00120131
906.657	0.00121297
916.301	0.0012363
925.946	0.001016
935.591	0.0012962
945.236	0.0018789
954.88	0.00219
964.525	0.0012977
974.17	0.00066
983.815	0.0010468
993.46	0.000543
1003.1	0.000983
1012.75	0.0017488
1022.39	0.00256
1032.04	0.00387
1041.68	0.0019438
1051.33	0.00328
1060.97	0.00902
1070.62	0.01372
1080.26	0.0081
1089.91	0.000484
1099.55	0.00302
1109.2	0.00494
1118.84	0.00833
1128.49	0.01126
1138.13	0.00717
1147.78	0.01206
1157.42	0.01961
1167.07	0.02847
1176.71	0.04874
1186.36	0.08314
1196	0.10343
1205.64	0.05132
1215.29	0.01643
1224.93	0.01312
1234.58	0.01845
1244.22	0.02056
1253.87	0.01644
1263.51	0.02923
1273.16	0.03902
1282.8	0.01789
1292.45	0.00696
1302.09	0.00401
1311.74	0.00318
1321.38	0.00233
1331.03	0.00275
1340.67	0.00284
1350.32	0.00357
1359.96	0.00476
1369.61	0.0074
1379.25	0.01309
1388.9	0.03306
1398.54	0.08046
1408.18	0.08703
1417.83	0.03448
1427.47	0.01323
1437.12	0.01445
1446.76	0.02341
1456.41	0.02759
1466.05	0.03051
1475.7	0.05927
1485.34	0.05664
1494.99	0.02146
1504.63	0.00872
1514.28	0.00604
1523.92	0.00391
1533.57	0.00267
1543.21	0.00265
1552.86	0.00446
1562.5	0.00748
1572.15	0.01304
1581.79	0.02387
1591.44	0.03768
1601.08	0.02715
1610.73	0.01068
1620.37	0.0065
1630.01	0.00372
1639.66	0.0020285
1649.3	0.00226
1658.95	0.001886
1668.59	0.00235
1678.24	0.00216
1687.88	0.00227
1697.53	0.00281
1707.17	0.00321
1716.82	0.00313
1726.46	0.00231
1736.11	0.0020411
1745.75	0.0018128
1755.4	0.0021116
1765.04	0.0018339
1774.69	0.0017937
1784.33	0.0019506
1793.98	0.00242
1803.62	0.00308
1813.27	0.00292
1822.91	0.00214
1832.55	0.0018274
1842.2	0.0016985
1851.84	0.0016371
1861.49	0.0013178
1871.13	0.00115199
1880.78	0.0013532
1890.42	0.0014172
1900.07	0.0015565
1909.71	0.0016325
1919.36	0.00235
1929	0.00293
1938.65	0.0023
1948.29	0.0019882
1957.94	0.0019968
1967.58	0.00197
1977.23	0.00116984
1986.87	0.000969
1996.52	0.00095
2006.16	0.00112164
2015.81	0.0010967
2025.45	0.000855
2035.1	0.000903
2044.74	0.00119093
2054.38	0.000997
2064.03	0.001264
2073.67	0.00116853
2083.32	0.00113395
2092.96	0.0015346
2102.61	0.0011167
2112.25	0.00116342
2121.9	0.0012501
2131.54	0.0012363
2141.19	0.0014194
2150.83	0.00120088
2160.48	0.00121766
2170.12	0.00114942
2179.77	0.000941
2189.41	0.00093
2199.06	0.0011063
2208.7	0.000758
2218.35	0.000845
2227.99	0.00096
2237.64	0.00114532
2247.28	0.000892
2256.92	0.000934
2266.57	0.001024
2276.21	0.0013795
2285.86	0.0015384
2295.5	0.0013287
2305.15	0.0013872
2314.79	0.00155
2324.44	0.0013575
2334.08	0.0013575
2343.73	0.0012352
2353.37	0.0014947
2363.02	0.00121726
2372.66	0.00121202
2382.31	0.00118398
2391.95	0.001023
2401.6	0.0013014
2411.24	0.000931
2420.89	0.0010804
2430.53	0.001057
2440.18	0.0013024
2449.82	0.000938
2459.47	0.00114849
2469.11	0.0013558
2478.75	0.0014895
2488.4	0.0013063
2498.04	0.000943
2507.69	0.00122732
2517.33	0.0010552
2526.98	0.0010526
2536.62	0.0014717
2546.27	0.0014125
2555.91	0.0015308
2565.56	0.0017532
2575.2	0.0019729
2584.85	0.0017638
2594.49	0.0014031
2604.14	0.00115716
2613.78	0.001014
2623.43	0.00117085
2633.07	0.00113414
2642.72	0.00115201
2652.36	0.00101
2662.01	0.000638
2671.65	0.00113262
2681.29	0.000988
2690.94	0.000642
2700.58	0.0013122
2710.23	0.001047
2719.87	0.000582
2729.52	0.000994
2739.16	0.000946
2748.81	0.000887
2758.45	0.000846
2768.1	0.000874
2777.74	0.00095
2787.39	0.001002
2797.03	0.000861
2806.68	0.000927
2816.32	0.000479
2825.97	0.000462
2835.61	0.000568
2845.26	0.000886
2854.9	0.000861
2864.55	0.001001
2874.19	0.000568
2883.84	0.0012628
2893.48	0.000318
2903.12	0.0010899
2912.77	0.00074
2922.41	0.000864
2932.06	0.00049
2941.7	0.000859
2951.35	0.000851
2960.99	0.001017
2970.64	0.0010901
2980.28	0.000796
2989.93	0.000467
2999.57	0.00112981
3009.22	0.001028
3018.86	0.0011147
3028.51	0.0012942
3038.15	0.0020751
3047.8	0.0020179
3057.44	0.00215
3067.09	0.0021102
3076.73	0.00468
3086.38	0.00703
3096.02	0.00538
3105.67	0.0018067
3115.31	0.001361
3124.95	0.000639
3134.6	0.00076
3144.24	0.000637
3153.89	0.0010777
3163.53	0.000998
3173.18	0.0015674
3182.82	0.0010905
3192.47	0.00116241
3202.11	0.000661
3211.76	0.0010817
3221.4	0.0010306
3231.05	0.00115904
3240.69	0.000488
3250.34	0.000979
3259.98	0.001029
3269.63	0.00059
3279.27	0.00112341
3288.92	0.0014368
3298.56	0.000639
3308.21	0.000645
3317.85	0.0010781
3327.49	0
3337.14	0.0010334
3346.78	0.001312
3356.43	0.000691
3366.07	0.000631
3375.72	0.000538
3385.36	0.00116501
3395.01	0.000706
3404.65	0.000964
3414.3	0.000636
3423.94	0.000668
3433.59	0.00094
3443.23	0.000575
3452.88	0.000873
3462.52	0.000589
3472.17	0.000161
3481.81	0.000425
3491.46	0.000266
3501.1	0.000284
3510.75	0.000926
3520.39	9e-05
3530.04	0.0012352
3539.68	0.000424
3549.32	0.000898
3558.97	0.000761
3568.61	0.0012404
3578.26	0.0010392
3587.9	0.000241
3597.55	0.000971
3607.19	0.0011173
3616.84	0.000548
3626.48	0.001587
3636.13	0.000839
3645.77	0.0010772
3655.42	0.000835
3665.06	0.000657
3674.71	0.000871
3684.35	0.000538
3694	0.00067
3703.64	0.000986
3713.29	0.000914
3722.93	0.001026
3732.58	0.0012695
3742.22	0.000563
3751.86	0.0013739
3761.51	4e-05
3771.15	0.00117181
3780.8	0.00112854
3790.44	0.000549
3800.09	0.00038
3809.73	7e-05
3819.38	0.00033
3829.02	0.000712
3838.67	0.00099
3848.31	0.000529
3857.96	0.0012836
3867.6	0.001079
3877.25	0.000393
3886.89	0.00055
3896.54	0.000693
3906.18	0.000364
3915.83	0.000872
3925.47	0.0016943
3935.12	0.0010457
3944.76	0.000387
3954.41	0.000647
3964.05	0.000751
3973.69	0.000905
3983.34	0.000949
3992.98	0.000555
