Infrared Spectrum: 2-Bromobenzenesulphonyl chloride
Formula: C 6 H 4 Br Cl O 2 S
CAS: 2905-25-1
State: gas
Origin: EPA-IR VAPOR PHASE LIBRARY
1/CM	ABSORBANCE
549.8	0.102111
559.445	0.204231
569.09	0.120901
578.734	0.315061
588.379	0.365541
598.024	0.103671
607.669	0.035491
617.313	0.017691
626.958	0.009411
636.603	0.013521
646.248	0.033311
655.893	0.019901
665.537	0.007631
675.182	0.006361
684.827	0.007051
694.472	0.018761
704.116	0.026251
713.761	0.019301
723.406	0.041821
733.051	0.089291
742.695	0.079781
752.34	0.097081
761.985	0.054211
771.63	0.010291
781.275	0.003991
790.919	0.003661
800.564	0.003041
810.209	0.002851
819.854	0.002421
829.498	0.003231
839.143	0.003801
848.788	0.003281
858.433	0.002651
868.078	0.002811
877.722	0.002371
887.367	0.001901
897.012	0.0016411
906.657	0.0016474
916.301	0.0011509
925.946	0.0011668
935.591	0.0016304
945.236	0.002111
954.88	0.004061
964.525	0.002711
974.17	0.002031
983.815	0.002741
993.46	0.003711
1003.1	0.005351
1012.75	0.016161
1022.39	0.053741
1032.04	0.054481
1041.68	0.011941
1051.33	0.002751
1060.97	0.003261
1070.62	0.003621
1080.26	0.007171
1089.91	0.015321
1099.55	0.027011
1109.2	0.020981
1118.84	0.016231
1128.49	0.014581
1138.13	0.011351
1147.78	0.015051
1157.42	0.033191
1167.07	0.060191
1176.71	0.074651
1186.36	0.191761
1196	0.264041
1205.64	0.076991
1215.29	0.016891
1224.93	0.009191
1234.58	0.010201
1244.22	0.015641
1253.87	0.031761
1263.51	0.029291
1273.16	0.012261
1282.8	0.007261
1292.45	0.003991
1302.09	0.002951
1311.74	0.002841
1321.38	0.003321
1331.03	0.003701
1340.67	0.004701
1350.32	0.006281
1359.96	0.008141
1369.61	0.013611
1379.25	0.035121
1388.9	0.105721
1398.54	0.238901
1408.18	0.145321
1417.83	0.060221
1427.47	0.078651
1437.12	0.086141
1446.76	0.069521
1456.41	0.046401
1466.05	0.021471
1475.7	0.010631
1485.34	0.007121
1494.99	0.004751
1504.63	0.004351
1514.28	0.003621
1523.92	0.003051
1533.57	0.003281
1543.21	0.004571
1552.86	0.009101
1562.5	0.023231
1572.15	0.037761
1581.79	0.019901
1591.44	0.004571
1601.08	0.002941
1610.73	0.004711
1620.37	0.005751
1630.01	0.003071
1639.66	0.001701
1649.3	0.0015218
1658.95	0.001449
1668.59	0.0016247
1678.24	0.001781
1687.88	0.0017119
1697.53	0.002571
1707.17	0.003151
1716.82	0.002271
1726.46	0.0016587
1736.11	0.0017022
1745.75	0.0014257
1755.4	0.0014803
1765.04	0.0011508
1774.69	0.0011052
1784.33	0.0010938
1793.98	0.0014056
1803.62	0.002531
1813.27	0.004601
1822.91	0.004191
1832.55	0.002581
1842.2	0.002751
1851.84	0.002601
1861.49	0.0013614
1871.13	0.0009403
1880.78	0.0008506
1890.42	0.0011555
1900.07	0.001821
1909.71	0.002211
1919.36	0.002211
1929	0.003771
1938.65	0.004531
1948.29	0.002531
1957.94	0.002661
1967.58	0.003061
1977.23	0.001901
1986.87	0.0011243
1996.52	0.0009746
2006.16	0.0008802
2015.81	0.0009204
2025.45	0.00076311
2035.1	0.00080631
2044.74	0.001052
2054.38	0.001092
2064.03	0.0008947
2073.67	0.0007203
2083.32	0.00073695
2092.96	0.00078704
2102.61	0.0007294
2112.25	0.0009406
2121.9	0.0013133
2131.54	0.0012742
2141.19	0.0011407
2150.83	0.00080178
2160.48	0.0009901
2170.12	0.000747378
2179.77	0.00071
2189.41	0.00081524
2199.06	0.0009393
2208.7	0.0009538
2218.35	0.0012001
2227.99	0.0008903
2237.64	0.00073983
2247.28	0.0009022
2256.92	0.00075816
2266.57	0.0012781
2276.21	0.0012186
2285.86	0.0013041
2295.5	0.0014838
2305.15	0.0013187
2314.79	0.0012603
2324.44	0.0015345
2334.08	0.001811
2343.73	0.0013242
2353.37	0.0013707
2363.02	0.0013994
2372.66	0.0013548
2382.31	0.0013496
2391.95	0.0010796
2401.6	0.000852
2411.24	0.0009163
2420.89	0.0010855
2430.53	0.0008844
2440.18	0.00081803
2449.82	0.0009463
2459.47	0.0010226
2469.11	0.0010934
2478.75	0.00073482
2488.4	0.0008042
2498.04	0.000729
2507.69	0.0011097
2517.33	0.0010256
2526.98	0.0013035
2536.62	0.0014742
2546.27	0.001931
2555.91	0.002061
2565.56	0.002131
2575.2	0.002511
2584.85	0.003071
2594.49	0.002541
2604.14	0.0016969
2613.78	0.0011806
2623.43	0.0008439
2633.07	0.0008914
2642.72	0.0007263
2652.36	0.00079341
2662.01	0.0007059
2671.65	0.00080639
2681.29	0.000629
2690.94	0.0009267
2700.58	0.0011854
2710.23	0.0009212
2719.87	0.0009523
2729.52	0.000468
2739.16	0.000547
2748.81	0.000592
2758.45	0.000601
2768.1	0.00077416
2777.74	0.00075858
2787.39	0.0010025
2797.03	0.0007015
2806.68	0.000578
2816.32	0.00081461
2825.97	0.0010338
2835.61	0.0009231
2845.26	0.000518
2854.9	0.0006895
2864.55	0.00063
2874.19	0.000495
2883.84	0.0006686
2893.48	0.000449
2903.12	0.000414
2912.77	0.000332
2922.41	0.000363
2932.06	0.000443
2941.7	0.00054
2951.35	0.000624
2960.99	0.0007106
2970.64	0.0010241
2980.28	0.0013004
2989.93	0.0013205
2999.57	0.0014737
3009.22	0.001891
3018.86	0.0012414
3028.51	0.0010594
3038.15	0.0011287
3047.8	0.001801
3057.44	0.005451
3067.09	0.014901
3076.73	0.020511
3086.38	0.009441
3096.02	0.003931
3105.67	0.002541
3115.31	0.002061
3124.95	0.002711
3134.6	0.002951
3144.24	0.002491
3153.89	0.0014311
3163.53	0.0008555
3173.18	0.0007153
3182.82	0.000747239
3192.47	0.000307
3202.11	0.000337
3211.76	0.000475
3221.4	0.000581
3231.05	0.000515
3240.69	0.00077514
3250.34	0.0006834
3259.98	0.00082638
3269.63	0.00064
3279.27	0.000558
3288.92	0.000465
3298.56	0.000321
3308.21	0.0006451
3317.85	0.000563
3327.49	0.000638
3337.14	0.00078207
3346.78	0.0007049
3356.43	0.000544
3366.07	0.000546
3375.72	0.000575
3385.36	0.00051
3395.01	0.000467
3404.65	0.000358
3414.3	0.000651
3423.94	0.00082018
3433.59	0.000625
3443.23	0.000624
3452.88	0.000626
3462.52	0.0006577
3472.17	0.000616
3481.81	0.0005
3491.46	0.000363
3501.1	0.000896
3510.75	0.0006958
3520.39	0.000528
3530.04	0.000351
3539.68	0.000719
3549.32	0.000575
3558.97	0.0007225
3568.61	0.000362
3578.26	0.000384
3587.9	0.000518
3597.55	0.00042
3607.19	0.00061
3616.84	0.000462
3626.48	0.00077391
3636.13	0.0006565
3645.77	0.000493
3655.42	0.000634
3665.06	0.000575
3674.71	0.00044
3684.35	0.000574
3694	0.00073245
3703.64	0.000633
3713.29	0.000592
3722.93	0.00063
3732.58	0.0009246
3742.22	0.0007928
3751.86	0.000537
3761.51	0.0006949
3771.15	0.000316
3780.8	0.000592
3790.44	0.0011482
3800.09	0.0010806
3809.73	0.0010426
3819.38	0.000618
3829.02	0.000596
3838.67	0.000501
3848.31	0.000334
3857.96	0.000639
3867.6	0.0004
3877.25	0.00052
3886.89	0.000353
3896.54	0.000388
3906.18	0.000363
3915.83	0.000539
3925.47	0.000521
3935.12	0.000348
3944.76	0.000371
3954.41	0.000499
3964.05	0.000293
3973.69	0.0007959
3983.34	0.000283
3992.98	0.000372
