Infrared Spectrum: Menthyl acetate
Formula: C 12 H 22 O 2
CAS: 29066-34-0
State: gas
Origin: EPA-IR VAPOR PHASE LIBRARY
1/CM	ABSORBANCE
549.8	0.0010493
559.445	0.00025052
569.09	0.0007497
578.734	0.0010887
588.379	0.001683
598.024	0.003243
607.669	0.006843
617.313	0.005583
626.958	0.001813
636.603	0.002293
646.248	0.004573
655.893	0.003563
665.537	0.0010479
675.182	0.0006959
684.827	0.0005605
694.472	0.0005614
704.116	0.0007779
713.761	0.0008177
723.406	0.0003456
733.051	0.0002939
742.695	0.0004351
752.34	0.000163819
761.985	0.0004322
771.63	0.0003191
781.275	0.0006274
790.919	0.0006089
800.564	0.0007968
810.209	0.001393
819.854	0.001393
829.498	0.002863
839.143	0.005553
848.788	0.003903
858.433	0.002173
868.078	0.001913
877.722	0.002373
887.367	0.003583
897.012	0.007993
906.657	0.009273
916.301	0.005843
925.946	0.006073
935.591	0.005023
945.236	0.005453
954.88	0.009993
964.525	0.016693
974.17	0.020833
983.815	0.021963
993.46	0.022853
1003.1	0.032593
1012.75	0.052153
1022.39	0.062853
1032.04	0.050803
1041.68	0.035843
1051.33	0.019903
1060.97	0.015093
1070.62	0.017293
1080.26	0.022403
1089.91	0.023593
1099.55	0.018893
1109.2	0.012233
1118.84	0.008203
1128.49	0.006743
1138.13	0.006933
1147.78	0.009953
1157.42	0.010873
1167.07	0.012003
1176.71	0.019383
1186.36	0.021193
1196	0.020753
1205.64	0.031493
1215.29	0.062493
1224.93	0.137703
1234.58	0.262593
1244.22	0.259403
1253.87	0.098513
1263.51	0.034983
1273.16	0.023483
1282.8	0.018663
1292.45	0.014693
1302.09	0.011373
1311.74	0.008873
1321.38	0.007573
1331.03	0.007723
1340.67	0.010133
1350.32	0.017023
1359.96	0.036033
1369.61	0.061943
1379.25	0.052223
1388.9	0.031143
1398.54	0.016613
1408.18	0.008923
1417.83	0.007583
1427.47	0.007733
1437.12	0.009263
1446.76	0.015783
1456.41	0.024833
1466.05	0.022903
1475.7	0.014183
1485.34	0.007323
1494.99	0.004773
1504.63	0.004013
1514.28	0.004013
1523.92	0.003953
1533.57	0.003633
1543.21	0.003633
1552.86	0.003653
1562.5	0.003463
1572.15	0.003233
1581.79	0.002813
1591.44	0.002203
1601.08	0.002173
1610.73	0.002293
1620.37	0.002463
1630.01	0.002593
1639.66	0.002683
1649.3	0.002963
1658.95	0.003083
1668.59	0.003363
1678.24	0.004263
1687.88	0.005593
1697.53	0.008033
1707.17	0.011523
1716.82	0.013533
1726.46	0.018893
1736.11	0.046983
1745.75	0.121963
1755.4	0.139423
1765.04	0.059183
1774.69	0.028753
1784.33	0.019923
1793.98	0.013623
1803.62	0.008813
1813.27	0.005883
1822.91	0.004493
1832.55	0.003303
1842.2	0.002683
1851.84	0.002533
1861.49	0.002083
1871.13	0.001713
1880.78	0.001433
1890.42	0.001343
1900.07	0.001353
1909.71	0.001453
1919.36	0.001443
1929	0.001433
1938.65	0.001283
1948.29	0.001183
1957.94	0.001061
1967.58	0.0008556
1977.23	0.0007954
1986.87	0.0008408
1996.52	0.0007863
2006.16	0.0007546
2015.81	0.0008454
2025.45	0.0008536
2035.1	0.0007739
2044.74	0.0007566
2054.38	0.0007777
2064.03	0.0007937
2073.67	0.00111
2083.32	0.0011004
2092.96	0.0010126
2102.61	0.0009593
2112.25	0.0010819
2121.9	0.001104
2131.54	0.001373
2141.19	0.001533
2150.83	0.001273
2160.48	0.0010762
2170.12	0.0009272
2179.77	0.0008089
2189.41	0.0006613
2199.06	0.0006698
2208.7	0.000721
2218.35	0.0006071
2227.99	0.0007135
2237.64	0.0007522
2247.28	0.0008468
2256.92	0.0009466
2266.57	0.0008757
2276.21	0.0008248
2285.86	0.0007491
2295.5	0.0008039
2305.15	0.0008703
2314.79	0.0006525
2324.44	0.0007494
2334.08	0.0007374
2343.73	0.0007778
2353.37	0.0007069
2363.02	0.0007033
2372.66	0.0006391
2382.31	0.0007787
2391.95	0.0008296
2401.6	0.0008207
2411.24	0.0008525
2420.89	0.0008933
2430.53	0.0010437
2440.18	0.0009742
2449.82	0.0011013
2459.47	0.001273
2469.11	0.001363
2478.75	0.001253
2488.4	0.0009844
2498.04	0.0007606
2507.69	0.0006891
2517.33	0.0007965
2526.98	0.0007714
2536.62	0.0008012
2546.27	0.0008083
2555.91	0.0007597
2565.56	0.0008586
2575.2	0.0010336
2584.85	0.001193
2594.49	0.001423
2604.14	0.001603
2613.78	0.001853
2623.43	0.001803
2633.07	0.001813
2642.72	0.001693
2652.36	0.001893
2662.01	0.001983
2671.65	0.001943
2681.29	0.002003
2690.94	0.002013
2700.58	0.002103
2710.23	0.002303
2719.87	0.002643
2729.52	0.003203
2739.16	0.003183
2748.81	0.002953
2758.45	0.002663
2768.1	0.002693
2777.74	0.002803
2787.39	0.003033
2797.03	0.003723
2806.68	0.004393
2816.32	0.005233
2825.97	0.006043
2835.61	0.007663
2845.26	0.014163
2854.9	0.032693
2864.55	0.043923
2874.19	0.065023
2883.84	0.067233
2893.48	0.047603
2903.12	0.046113
2912.77	0.060743
2922.41	0.094643
2932.06	0.122743
2941.7	0.116803
2951.35	0.109633
2960.99	0.155413
2970.64	0.118613
2980.28	0.042483
2989.93	0.019453
2999.57	0.011333
3009.22	0.008423
3018.86	0.006943
3028.51	0.006233
3038.15	0.005543
3047.8	0.004573
3057.44	0.004403
3067.09	0.004283
3076.73	0.003813
3086.38	0.003383
3096.02	0.002983
3105.67	0.002583
3115.31	0.002463
3124.95	0.002323
3134.6	0.002293
3144.24	0.002223
3153.89	0.002063
3163.53	0.001983
3173.18	0.002003
3182.82	0.001663
3192.47	0.001493
3202.11	0.001473
3211.76	0.001163
3221.4	0.0009984
3231.05	0.0005987
3240.69	0.0005594
3250.34	0.000572
3259.98	0.0005407
3269.63	0.0003903
3279.27	0.00021773
3288.92	0.0004141
3298.56	0.0004488
3308.21	0.000543
3317.85	0.00020306
3327.49	0.0004511
3337.14	0.0003915
3346.78	0.0003971
3356.43	0.0004539
3366.07	0.0003591
3375.72	0.0006449
3385.36	0.0004217
3395.01	0.0005501
3404.65	0.0004663
3414.3	0.0001323
3423.94	0.0005363
3433.59	0.0003228
3443.23	0.0004438
3452.88	0.0005138
3462.52	0.0009121
3472.17	0.001193
3481.81	0.001793
3491.46	0.001563
3501.1	0.0009489
3510.75	0.0006268
3520.39	0.0006078
3530.04	0.0004713
3539.68	0.0004127
3549.32	0.00022381
3558.97	0.000164573
3568.61	0.0004573
3578.26	0.000163085
3587.9	0.0003913
3597.55	0.00020444
3607.19	0.0001435
3616.84	0.0001418
3626.48	6.68e-05
3636.13	0.00022156
3645.77	0.00025056
3655.42	0.000216
3665.06	0.0003586
3674.71	0.000142
3684.35	0.00017772
3694	0.0003236
3703.64	4.3e-05
3713.29	0.0001447
3722.93	0.0003347
3732.58	0.00023314
3742.22	0.00017358
3751.86	0.00025045
3761.51	0.00021221
3771.15	0.0004756
3780.8	0.0002875
3790.44	0.0004136
3800.09	0.00025811
3809.73	0.0001151
3819.38	0.0003987
3829.02	0.0003978
3838.67	0.000587
3848.31	0.0006653
3857.96	0.000372
3867.6	0.0003966
3877.25	0.0005851
3886.89	0.0004566
3896.54	0.000378
3906.18	0.0004209
3915.83	0.000552
3925.47	0.0005032
3935.12	0.0006859
3944.76	0.0006965
3954.41	0.0007855
3964.05	0.0005585
3973.69	0.0007679
3983.34	0.0003325
3992.98	0.0003763
