Infrared Spectrum: Phenol], 2,2'-sulfinylbis[4-chloro-
Formula: C12 H8 Cl2 O3 S
CAS: 29097-31-2
State: SOLID (OIL MULL)
Class: COBLENTZ III
Instrument: PERKIN-ELMER 21 (GRATING)
Instrument parameters: NaCl PRISM
Sampling: TRANSMISSION
Resolution: 2
Origin: SMITH KLINE & FRENCH LABS.
1/CM	TRANSMITTANCE
667	0.6143
676	0.6377
685	0.6493
694	0.6552
703	0.6471
712	0.7133
721	0.7148
730	0.7334
739	0.6873
748	0.7802
757	0.7906
766	0.7956
775	0.8068
784	0.8195
793	0.8193
802	0.8071
811	0.7276
820	0.2883
829	0.3217
838	0.7303
847	0.6473
856	0.7805
865	0.7973
874	0.6677
883	0.6087
892	0.7947
901	0.7778
910	0.7435
919	0.6935
928	0.6166
937	0.5048
946	0.2648
955	0.1522
964	0.1492
973	0.2334
982	0.5007
991	0.7041
1000	0.755
1009	0.7808
1018	0.7884
1027	0.7746
1036	0.7629
1045	0.6461
1054	0.516
1063	0.7173
1072	0.7462
1081	0.6921
1090	0.502
1099	0.3709
1108	0.6672
1117	0.6608
1126	0.6381
1135	0.5504
1144	0.5845
1153	0.6784
1162	0.6959
1171	0.67
1180	0.6457
1189	0.5885
1198	0.4808
1207	0.4792
1216	0.4977
1225	0.5915
1234	0.6121
1243	0.5516
1252	0.4318
1261	0.4794
1270	0.3387
1279	0.149
1288	0.2761
1297	0.6095
1306	0.6069
1315	0.5317
1324	0.406
1333	0.3342
1342	0.2989
1351	0.3778
1360	0.428
1369	0.4061
1378	0.3836
1387	0.4
1396	0.1832
1405	0.1417
1414	0.2576
1423	0.4996
1432	0.5156
1441	0.4293
1450	0.346
1459	0.2878
1468	0.2865
1477	0.2983
1486	0.2313
1495	0.3437
1504	0.6346
1513	0.753
1522	0.767
1531	0.7666
1540	0.7558
1549	0.7488
1558	0.6938
1567	0.6432
1576	0.5275
1585	0.5187
1594	0.5045
1603	0.7354
1612	0.7531
1621	0.759
1630	0.7595
1639	0.7523
1648	0.7454
1657	0.7423
1666	0.7471
1675	0.7426
1684	0.7416
1693	0.7427
1702	0.7415
1711	0.7391
1720	0.7358
1729	0.7407
1738	0.7366
1747	0.7289
1756	0.7278
1765	0.7318
1774	0.7413
1783	0.7403
1792	0.7411
1801	0.7426
1810	0.7401
1819	0.7371
1828	0.7342
1837	0.7315
1846	0.7272
1855	0.7221
1864	0.7171
1873	0.7125
1882	0.7072
1891	0.7008
1900	0.6891
1909	0.6933
1918	0.698
1927	0.702
1936	0.7087
1945	0.7095
1954	0.7075
1963	0.7053
1972	0.7023
1981	0.7023
1990	0.7023
1999	0.6981
2008	0.693
2017	0.6886
2026	0.6874
2035	0.6862
2044	0.6847
2053	0.6823
2062	0.6795
2071	0.6765
2080	0.6734
2089	0.6691
2098	0.6673
2107	0.6654
2116	0.6632
2125	0.6611
2134	0.6592
2143	0.6573
2152	0.6553
2161	0.6526
2170	0.6499
2179	0.647
2188	0.6442
2197	0.6414
2206	0.6386
2215	0.636
2224	0.6335
2233	0.6317
2242	0.6268
2251	0.6235
2260	0.622
2269	0.6206
2278	0.6191
2287	0.6171
2296	0.615
2305	0.6125
2314	0.61
2323	0.6048
2332	0.5991
2341	0.5923
2350	0.5856
2359	0.5793
2368	0.5743
2377	0.5695
2386	0.5648
2395	0.5608
2404	0.5572
2413	0.5537
2422	0.55
2431	0.5448
2440	0.5397
2449	0.5355
2458	0.5336
2467	0.5327
2476	0.5308
2485	0.5262
2494	0.5202
2503	0.5127
2512	0.5039
2521	0.4957
2530	0.49
2539	0.4882
2548	0.4875
2557	0.4865
2566	0.4841
2575	0.4819
2584	0.48
2593	0.4781
2602	0.4744
2611	0.47
2620	0.4624
2629	0.4547
2638	0.4472
2647	0.441
2656	0.4356
2665	0.4339
2674	0.4325
2683	0.4316
2692	0.4308
2701	0.4295
2710	0.4267
2719	0.4205
2728	0.4203
2737	0.4224
2746	0.4229
2755	0.4182
2764	0.4116
2773	0.4034
2782	0.3926
2791	0.3792
2800	0.3617
2809	0.3274
2818	0.1884
2827	0.1551
2836	0.1424
2845	0.1396
2854	0.1392
2863	0.1371
2872	0.13
2881	0.1175
2890	0.1097
2899	0.1065
2908	0.1063
2917	0.1067
2926	0.1082
2935	0.112
2944	0.1193
2953	0.1362
2962	0.1499
2971	0.1605
2980	0.1709
2989	0.1782
2998	0.1786
3007	0.1779
3016	0.177
3025	0.1761
3034	0.1736
3043	0.1704
3052	0.1669
3061	0.1659
3070	0.1658
3079	0.1665
3088	0.1693
3097	0.1716
3106	0.1733
3115	0.175
3124	0.1765
3133	0.1779
3142	0.1802
3151	0.1868
3160	0.2142
3169	0.2267
3178	0.2325
3187	0.236
3196	0.2383
3205	0.2401
3214	0.2424
3223	0.2448
3232	0.2473
3241	0.2509
3250	0.2547
3259	0.259
3268	0.265
3277	0.2725
3286	0.2779
3295	0.2877
3304	0.2984
3313	0.3087
3322	0.3199
3331	0.3347
3340	0.3678
3349	0.3855
3358	0.3926
3367	0.3963
3376	0.3989
3385	0.4219
3394	0.4309
3403	0.4324
3412	0.4355
3421	0.4404
3430	0.4489
3439	0.4561
3448	0.4621
3457	0.4692
3466	0.4819
3475	0.4875
3484	0.4886
3493	0.4888
3502	0.4891
3511	0.4893
3520	0.4896
3529	0.49
3538	0.4902
3547	0.49
3556	0.49
3565	0.4892
3574	0.4871
3583	0.4851
3592	0.483
3601	0.481
3610	0.4778
3619	0.4745
3628	0.4712
3637	0.468
3646	0.4649
3655	0.4618
3664	0.4592
3673	0.4573
3682	0.4553
3691	0.4534
3700	0.4516
3709	0.4497
3718	0.4478
3727	0.4463
3736	0.4449
3745	0.4435
3754	0.4421
3763	0.4407
3772	0.4393
3781	0.4379
3790	0.4365
3799	0.4348
3808	0.4331
3817	0.4312
3826	0.4294
3835	0.4276
3844	0.4258
3853	0.4241
3862	0.4222
3871	0.4205
3880	0.4187
3889	0.417
3898	0.4152
3907	0.4134
3916	0.4116
3925	0.4099
3934	0.4081
3943	0.4064
3952	0.4044
3961	0.4019
3970	0.3995
3979	0.3971
3988	0.3946
3997	0.3923
