Infrared Spectrum: BENZIMIDAZOLE, 2-AMINO-5,6-DIMETHYL-
Formula: C9 H11 N3
CAS: 29096-75-1
State: SOLID (SPLIT MULL), FLUOROLUBE FOR 3800-1330 CM^-^1, NUJOL FOR 1330-400 CM^-^1
Class: COBLENTZ III
Instrument: DOW KBr FOREPRISM-GRATING
Instrument parameters: BLAZED AT 3.5, 12.0, 20.0 MICRON AND CHANGED AT 5.0, 7.5, 14.9 MICRON
Sampling: TRANSMISSION
Resolution: 2
Origin: DOW CHEMICAL COMPANY
1/CM	TRANSMITTANCE
382	0.6465
391	0.649
400	0.6643
409	0.7254
418	0.7405
427	0.7283
436	0.7345
445	0.8261
454	0.8423
463	0.85
472	0.8533
481	0.8503
490	0.8398
499	0.7974
508	0.842
517	0.8363
526	0.8225
535	0.8074
544	0.7911
553	0.7721
562	0.7504
571	0.7256
580	0.6865
589	0.6962
598	0.6658
607	0.6587
616	0.664
625	0.6739
634	0.7319
643	0.6661
652	0.6451
661	0.6788
670	0.7442
679	0.7704
688	0.7655
697	0.7134
706	0.6282
715	0.7526
724	0.7622
733	0.8058
742	0.761
751	0.7756
760	0.7891
769	0.7815
778	0.7947
787	0.7944
796	0.7808
805	0.7686
814	0.7568
823	0.7451
832	0.7314
841	0.6696
850	0.2408
859	0.6604
868	0.4568
877	0.7834
886	0.804
895	0.7269
904	0.8061
913	0.832
922	0.8416
931	0.8484
940	0.8524
949	0.8527
958	0.8505
967	0.8482
976	0.8507
985	0.8537
994	0.8043
1003	0.7661
1012	0.7988
1021	0.7085
1030	0.7621
1039	0.837
1048	0.8438
1057	0.8371
1066	0.8293
1075	0.8197
1084	0.8011
1093	0.7765
1102	0.7951
1111	0.7499
1120	0.6058
1129	0.6946
1138	0.6656
1147	0.5776
1156	0.7231
1165	0.7461
1174	0.7551
1183	0.775
1192	0.7948
1201	0.7955
1210	0.7811
1219	0.7428
1228	0.7735
1237	0.7468
1246	0.7495
1255	0.7522
1264	0.7236
1273	0.6832
1282	0.6093
1291	0.4402
1300	0.4829
1309	0.7168
1318	0.7385
1327	0.7475
1336	0.7103
1345	0.6395
1354	0.6537
1363	0.6764
1372	0.6812
1381	0.6789
1390	0.7008
1399	0.7
1408	0.6898
1417	0.6717
1426	0.6403
1435	0.6328
1444	0.605
1453	0.5538
1462	0.4468
1471	0.408
1480	0.4965
1489	0.6522
1498	0.7322
1507	0.7555
1516	0.7561
1525	0.7494
1534	0.7378
1543	0.7095
1552	0.6756
1561	0.6317
1570	0.5875
1579	0.5338
1588	0.6121
1597	0.7082
1606	0.7155
1615	0.7043
1624	0.6801
1633	0.6486
1642	0.623
1651	0.537
1660	0.446
1669	0.5246
1678	0.6871
1687	0.7468
1696	0.7699
1705	0.7742
1714	0.7714
1723	0.7805
1732	0.7899
1741	0.7931
1750	0.7931
1759	0.7911
1768	0.7898
1777	0.7882
1786	0.7865
1795	0.7856
1804	0.7847
1813	0.784
1822	0.7832
1831	0.7821
1840	0.7811
1849	0.7803
1858	0.7798
1867	0.7792
1876	0.7782
1885	0.7769
1894	0.7758
1903	0.7747
1912	0.7737
1921	0.7726
1930	0.7717
1939	0.7711
1948	0.7706
1957	0.7711
1966	0.7643
1975	0.7621
1984	0.759
1993	0.7549
2002	0.751
2011	0.7496
2020	0.7483
2029	0.7469
2038	0.7457
2047	0.7443
2056	0.7428
2065	0.7415
2074	0.7401
2083	0.7387
2092	0.7365
2101	0.7345
2110	0.7324
2119	0.7301
2128	0.7281
2137	0.7258
2146	0.7238
2155	0.7217
2164	0.7196
2173	0.7175
2182	0.7154
2191	0.7133
2200	0.7111
2209	0.709
2218	0.7068
2227	0.7048
2236	0.7026
2245	0.7001
2254	0.6975
2263	0.695
2272	0.6925
2281	0.6899
2290	0.6874
2299	0.6848
2308	0.6821
2317	0.6799
2326	0.6784
2335	0.6768
2344	0.6754
2353	0.6739
2362	0.6731
2371	0.6726
2380	0.6724
2389	0.6718
2398	0.6706
2407	0.6692
2416	0.6678
2425	0.6665
2434	0.6654
2443	0.6643
2452	0.6639
2461	0.6624
2470	0.661
2479	0.6589
2488	0.6568
2497	0.6542
2506	0.6512
2515	0.6483
2524	0.6451
2533	0.6419
2542	0.6391
2551	0.6362
2560	0.6333
2569	0.6302
2578	0.6271
2587	0.624
2596	0.6209
2605	0.6178
2614	0.6146
2623	0.6112
2632	0.6081
2641	0.6048
2650	0.6014
2659	0.598
2668	0.5946
2677	0.591
2686	0.5871
2695	0.5805
2704	0.5754
2713	0.5695
2722	0.5638
2731	0.5598
2740	0.557
2749	0.5542
2758	0.5523
2767	0.5505
2776	0.5488
2785	0.5471
2794	0.5457
2803	0.5442
2812	0.5384
2821	0.5281
2830	0.5164
2839	0.5005
2848	0.4846
2857	0.4714
2866	0.4665
2875	0.463
2884	0.4594
2893	0.4535
2902	0.4443
2911	0.4333
2920	0.4291
2929	0.428
2938	0.4286
2947	0.4451
2956	0.453
2965	0.4434
2974	0.4443
2983	0.4465
2992	0.441
3001	0.431
3010	0.4206
3019	0.4171
3028	0.4145
3037	0.4105
3046	0.4046
3055	0.3982
3064	0.3914
3073	0.383
3082	0.3757
3091	0.368
3100	0.3588
3109	0.3554
3118	0.3562
3127	0.3579
3136	0.3596
3145	0.361
3154	0.3605
3163	0.3597
3172	0.3604
3181	0.3714
3190	0.38
3199	0.3874
3208	0.3932
3217	0.3982
3226	0.4079
3235	0.4172
3244	0.4262
3253	0.4332
3262	0.4391
3271	0.4441
3280	0.4562
3289	0.4729
3298	0.4944
3307	0.518
3316	0.5426
3325	0.565
3334	0.5827
3343	0.5977
3352	0.6098
3361	0.6168
3370	0.6215
3379	0.6271
3388	0.6292
3397	0.6287
3406	0.6262
3415	0.6171
3424	0.6037
3433	0.5803
3442	0.5217
3451	0.4193
3460	0.474
3469	0.6521
3478	0.6621
3487	0.6611
3496	0.6597
3505	0.6572
3514	0.6549
3523	0.6518
3532	0.6489
3541	0.6457
3550	0.6424
3559	0.6395
3568	0.6371
3577	0.6322
3586	0.6292
3595	0.6319
3604	0.6315
3613	0.6307
3622	0.6296
3631	0.6284
3640	0.6267
3649	0.6248
3658	0.6229
3667	0.621
3676	0.6198
3685	0.6185
3694	0.6171
3703	0.6153
3712	0.612
3721	0.609
3730	0.6069
3739	0.6047
3748	0.6027
3757	0.6014
3766	0.6001
3775	0.5991
3784	0.5989
3793	0.5986
