Infrared Spectrum: Aniline, 2,6-di-tert-butyl-4-methyl-
Formula: C15 H25 N
CAS: 2909-80-0
State: SOLID (OIL MULL)
Class: COBLENTZ III
Instrument: BECKMAN IR-4 (HYBRID PRISM-GRATING)
Instrument parameters: NaCl PRISM
Sampling: TRANSMISSION
Resolution: 2
Origin: MONSANTO (J. FREEMAN)
1/CM	TRANSMITTANCE
626	0.8092
635	0.7854
644	0.7753
653	0.7989
662	0.8395
671	0.8638
680	0.8923
689	0.9048
698	0.9083
707	0.9053
716	0.8679
725	0.8695
734	0.8924
743	0.9106
752	0.9169
761	0.8776
770	0.7634
779	0.8625
788	0.9139
797	0.9375
806	0.9385
815	0.9603
824	0.9599
833	0.9581
842	0.9521
851	0.9371
860	0.8368
869	0.2957
878	0.9049
887	0.9292
896	0.9212
905	0.9517
914	0.9495
923	0.9398
932	0.9117
941	0.9124
950	0.8614
959	0.8911
968	0.9134
977	0.9186
986	0.9165
995	0.898
1004	0.9021
1013	0.8329
1022	0.7305
1031	0.851
1040	0.8772
1049	0.9032
1058	0.9015
1067	0.8842
1076	0.8504
1085	0.8309
1094	0.8874
1103	0.9226
1112	0.936
1121	0.9338
1130	0.9412
1139	0.9337
1148	0.9242
1157	0.9148
1166	0.9098
1175	0.8899
1184	0.8399
1193	0.7042
1202	0.7735
1211	0.7155
1220	0.5945
1229	0.6663
1238	0.3752
1247	0.6239
1256	0.5053
1265	0.4773
1274	0.8002
1283	0.8679
1292	0.8589
1301	0.8394
1310	0.8894
1319	0.8926
1328	0.8917
1337	0.8818
1346	0.8592
1355	0.8264
1364	0.7152
1373	0.4671
1382	0.5249
1391	0.6564
1400	0.5078
1409	0.6177
1418	0.6887
1427	0.4564
1436	0.1832
1445	0.3232
1454	0.2824
1463	0.2389
1472	0.27
1481	0.5295
1490	0.6555
1499	0.8121
1508	0.8645
1517	0.8818
1526	0.8912
1535	0.8977
1544	0.904
1553	0.9039
1562	0.8989
1571	0.8878
1580	0.8669
1589	0.8235
1598	0.7149
1607	0.5502
1616	0.572
1625	0.4043
1634	0.6089
1643	0.7669
1652	0.8503
1661	0.8942
1670	0.9243
1679	0.9386
1688	0.9502
1697	0.9583
1706	0.9655
1715	0.9652
1724	0.9669
1733	0.9696
1742	0.9626
1751	0.9598
1760	0.9438
1769	0.9051
1778	0.9096
1787	0.9428
1796	0.9452
1805	0.9364
1814	0.9379
1823	0.9392
1832	0.9362
1841	0.9325
1850	0.9307
1859	0.9296
1868	0.9287
1877	0.9277
1886	0.9269
1895	0.926
1904	0.925
1913	0.9237
1922	0.9225
1931	0.9214
1940	0.9202
1949	0.919
1958	0.9177
1967	0.9162
1976	0.9148
1985	0.9133
1994	0.9115
2003	0.9096
2012	0.9077
2021	0.9059
2030	0.9043
2039	0.9027
2048	0.9012
2057	0.8996
2066	0.8982
2075	0.8968
2084	0.8956
2093	0.8943
2102	0.893
2111	0.8916
2120	0.89
2129	0.8885
2138	0.8869
2147	0.8853
2156	0.8836
2165	0.8819
2174	0.8803
2183	0.8789
2192	0.8775
2201	0.8761
2210	0.8747
2219	0.8734
2228	0.8721
2237	0.8707
2246	0.8694
2255	0.8677
2264	0.8661
2273	0.8645
2282	0.8628
2291	0.861
2300	0.8591
2309	0.8545
2318	0.8495
2327	0.8453
2336	0.843
2345	0.8408
2354	0.8398
2363	0.8387
2372	0.8377
2381	0.8368
2390	0.8361
2399	0.8352
2408	0.8342
2417	0.8332
2426	0.8322
2435	0.8312
2444	0.8302
2453	0.8296
2462	0.8291
2471	0.8286
2480	0.8279
2489	0.8264
2498	0.8248
2507	0.822
2516	0.8192
2525	0.8155
2534	0.8116
2543	0.8085
2552	0.8054
2561	0.802
2570	0.7985
2579	0.7951
2588	0.7926
2597	0.7902
2606	0.7878
2615	0.7861
2624	0.7842
2633	0.7824
2642	0.7805
2651	0.778
2660	0.7753
2669	0.7717
2678	0.7676
2687	0.7637
2696	0.7598
2705	0.756
2714	0.7524
2723	0.7494
2732	0.7463
2741	0.7408
2750	0.7359
2759	0.7308
2768	0.731
2777	0.7373
2786	0.7415
2795	0.742
2804	0.7406
2813	0.7364
2822	0.7184
2831	0.6725
2840	0.6322
2849	0.5995
2858	0.2167
2867	0.0747
2876	0.0841
2885	0.0899
2894	0.0661
2903	0.0372
2912	0.0106
2921	0.0025
2930	0.002
2939	0.0015
2948	0.0013
2957	0.0065
2966	0.0563
2975	0.1114
2984	0.1662
2993	0.2206
3002	0.2747
3011	0.3285
3020	0.382
3029	0.4351
3038	0.4879
3047	0.5404
3056	0.563
3065	0.5725
3074	0.5744
3083	0.5753
3092	0.5761
3101	0.5781
3110	0.5928
3119	0.6305
3128	0.6407
3137	0.6438
3146	0.6462
3155	0.6475
3164	0.6482
3173	0.6485
3182	0.6488
3191	0.6487
3200	0.6486
3209	0.6484
3218	0.6479
3227	0.6475
3236	0.6471
3245	0.6468
3254	0.6478
3263	0.6489
3272	0.6494
3281	0.649
3290	0.6485
3299	0.6479
3308	0.6474
3317	0.6464
3326	0.6449
3335	0.6435
3344	0.6418
3353	0.6401
3362	0.6381
3371	0.636
3380	0.6337
3389	0.6301
3398	0.6264
3407	0.6219
3416	0.6167
3425	0.608
3434	0.5679
3443	0.5271
3452	0.4865
3461	0.4915
3470	0.5184
3479	0.5451
3488	0.5717
3497	0.5832
3506	0.5754
3515	0.5541
3524	0.5326
3533	0.5154
3542	0.5236
3551	0.537
3560	0.5505
3569	0.5638
3578	0.5771
3587	0.5902
3596	0.6024
3605	0.607
3614	0.6086
3623	0.6092
3632	0.6098
3641	0.6103
3650	0.6106
3659	0.6107
3668	0.6107
3677	0.6102
3686	0.6097
3695	0.6091
3704	0.6084
3713	0.6077
3722	0.6067
3731	0.6057
3740	0.6046
3749	0.6031
3758	0.6012
3767	0.5995
3776	0.5977
3785	0.5959
3794	0.5942
3803	0.5924
3812	0.5905
3821	0.5879
3830	0.585
3839	0.5821
3848	0.5798
3857	0.5775
3866	0.5753
3875	0.5735
3884	0.5719
3893	0.5703
3902	0.5688
3911	0.5672
3920	0.5657
3929	0.5641
3938	0.5628
3947	0.5617
3956	0.5605
3965	0.5594
3974	0.5583
3983	0.5572
3992	0.5561
