Infrared Spectrum: Aniline, 2-tert-butyl-4-methyl-
Formula: C11 H17 N
CAS: 2909-81-1
State: LIQUID (NEAT)
Class: COBLENTZ III
Instrument: BECKMAN IR-4 (HYBRID PRISM-GRATING)
Instrument parameters: NaCl PRISM
Sampling: TRANSMISSION
Path length: CAPILLARY
Resolution: 2
Origin: MONSANTO (J. FREEMAN)
1/CM	TRANSMITTANCE
626	0.528
635	0.5017
644	0.4896
653	0.4905
662	0.5166
671	0.5366
680	0.5591
689	0.5771
698	0.6014
707	0.6314
716	0.6631
725	0.7004
734	0.7382
743	0.6939
752	0.7345
761	0.7689
770	0.7975
779	0.7881
788	0.7631
797	0.5862
806	0.1913
815	0.2157
824	0.4978
833	0.6637
842	0.7414
851	0.7842
860	0.8036
869	0.7417
878	0.6603
887	0.8259
896	0.8521
905	0.8142
914	0.8027
923	0.8033
932	0.7906
941	0.8399
950	0.8582
959	0.8689
968	0.8741
977	0.8635
986	0.8299
995	0.8351
1004	0.8623
1013	0.7347
1022	0.7781
1031	0.7901
1040	0.8085
1049	0.8437
1058	0.8436
1067	0.856
1076	0.8687
1085	0.8656
1094	0.8308
1103	0.7874
1112	0.8708
1121	0.8886
1130	0.8859
1139	0.8548
1148	0.5934
1157	0.7982
1166	0.8691
1175	0.8539
1184	0.805
1193	0.6186
1202	0.6748
1211	0.3416
1220	0.6946
1229	0.6518
1238	0.5475
1247	0.3098
1256	0.394
1265	0.5511
1274	0.6696
1283	0.4026
1292	0.5377
1301	0.7448
1310	0.792
1319	0.8896
1328	0.8975
1337	0.8954
1346	0.8772
1355	0.6551
1364	0.4404
1373	0.73
1382	0.719
1391	0.5144
1400	0.5359
1409	0.4874
1418	0.6405
1427	0.6471
1436	0.5394
1445	0.4331
1454	0.3838
1463	0.3914
1472	0.3942
1481	0.3931
1490	0.241
1499	0.0425
1508	0.3954
1517	0.6718
1526	0.796
1535	0.8265
1544	0.8312
1553	0.8248
1562	0.7957
1571	0.7617
1580	0.7454
1589	0.5757
1598	0.3884
1607	0.2524
1616	0.1777
1625	0.3923
1634	0.6049
1643	0.7866
1652	0.841
1661	0.8799
1670	0.9048
1679	0.923
1688	0.9357
1697	0.946
1706	0.9521
1715	0.9513
1724	0.9405
1733	0.9277
1742	0.9185
1751	0.9231
1760	0.9378
1769	0.9444
1778	0.9431
1787	0.938
1796	0.9219
1805	0.9182
1814	0.9274
1823	0.9377
1832	0.9343
1841	0.9229
1850	0.9106
1859	0.9061
1868	0.9099
1877	0.9179
1886	0.9328
1895	0.9421
1904	0.9432
1913	0.9445
1922	0.9454
1931	0.9461
1940	0.9469
1949	0.9478
1958	0.9486
1967	0.949
1976	0.9493
1985	0.9495
1994	0.9496
2003	0.9496
2012	0.95
2021	0.9506
2030	0.9512
2039	0.951
2048	0.9507
2057	0.9505
2066	0.9503
2075	0.95
2084	0.9498
2093	0.9494
2102	0.9491
2111	0.9487
2120	0.9484
2129	0.9481
2138	0.9477
2147	0.9474
2156	0.947
2165	0.9467
2174	0.9464
2183	0.9461
2192	0.9457
2201	0.9454
2210	0.9447
2219	0.944
2228	0.9434
2237	0.9427
2246	0.9419
2255	0.9403
2264	0.9387
2273	0.9372
2282	0.9354
2291	0.9335
2300	0.9315
2309	0.9304
2318	0.93
2327	0.9296
2336	0.9303
2345	0.9316
2354	0.9329
2363	0.9361
2372	0.9402
2381	0.9414
2390	0.9425
2399	0.9436
2408	0.9445
2417	0.945
2426	0.9455
2435	0.9453
2444	0.945
2453	0.9447
2462	0.9442
2471	0.9434
2480	0.9422
2489	0.941
2498	0.9403
2507	0.9391
2516	0.9375
2525	0.9359
2534	0.9342
2543	0.9325
2552	0.9318
2561	0.9317
2570	0.9315
2579	0.9314
2588	0.9322
2597	0.933
2606	0.9339
2615	0.9343
2624	0.9341
2633	0.9327
2642	0.9305
2651	0.9284
2660	0.9262
2669	0.9225
2678	0.9148
2687	0.9057
2696	0.8979
2705	0.8915
2714	0.8918
2723	0.8971
2732	0.9045
2741	0.9059
2750	0.9051
2759	0.893
2768	0.8797
2777	0.8545
2786	0.8266
2795	0.7826
2804	0.7295
2813	0.7
2822	0.6149
2831	0.5188
2840	0.4233
2849	0.3378
2858	0.3337
2867	0.3398
2876	0.3204
2885	0.2677
2894	0.2437
2903	0.2318
2912	0.2144
2921	0.1708
2930	0.1254
2939	0.1101
2948	0.1288
2957	0.2744
2966	0.4203
2975	0.512
2984	0.537
2993	0.5975
3002	0.6431
3011	0.6885
3020	0.7336
3029	0.775
3038	0.8002
3047	0.8436
3056	0.8622
3065	0.8689
3074	0.8708
3083	0.8743
3092	0.895
3101	0.8972
3110	0.8975
3119	0.8966
3128	0.8921
3137	0.8841
3146	0.8762
3155	0.8683
3164	0.8604
3173	0.8528
3182	0.8499
3191	0.8524
3200	0.8628
3209	0.8734
3218	0.8802
3227	0.8792
3236	0.8775
3245	0.8702
3254	0.8564
3263	0.8452
3272	0.8288
3281	0.8115
3290	0.7626
3299	0.7065
3308	0.6507
3317	0.5952
3326	0.5469
3335	0.5423
3344	0.6004
3353	0.6866
3362	0.7723
3371	0.7951
3380	0.7732
3389	0.7485
3398	0.7239
3407	0.6994
3416	0.6752
3425	0.6509
3434	0.633
3443	0.6473
3452	0.6907
3461	0.7348
3470	0.7787
3479	0.8574
3488	0.8748
3497	0.8823
3506	0.889
3515	0.8944
3524	0.8979
3533	0.9013
3542	0.9044
3551	0.9069
3560	0.9094
3569	0.911
3578	0.9122
3587	0.9134
3596	0.9139
3605	0.9144
3614	0.9148
3623	0.9147
3632	0.9146
3641	0.9143
3650	0.9136
3659	0.913
3668	0.9124
3677	0.9124
3686	0.9131
3695	0.9139
3704	0.9146
3713	0.9152
3722	0.9158
3731	0.9161
3740	0.9157
3749	0.9154
3758	0.9151
3767	0.9146
3776	0.9142
3785	0.9137
3794	0.9132
3803	0.9127
3812	0.9121
3821	0.9115
3830	0.9108
3839	0.9102
3848	0.9096
3857	0.9089
3866	0.9083
3875	0.9077
3884	0.9071
3893	0.9064
3902	0.9057
3911	0.905
3920	0.9042
3929	0.9035
3938	0.9028
3947	0.902
3956	0.9013
3965	0.9006
3974	0.9
3983	0.8993
3992	0.8986
