Infrared Spectrum: Aniline, 2,4-di-tert-butyl-
Formula: C14 H23 N
CAS: 2909-84-4
State: LIQUID (NEAT)
Boiling point: 142 C AT 10 mmHg
Class: COBLENTZ III
Instrument: BECKMAN IR-4 (HYBRID PRISM-GRATING)
Instrument parameters: NaCl PRISM
Sampling: TRANSMISSION
Path length: CAPILLARY
Resolution: 2
Origin: MONSANTO (J. FREEMAN)
1/CM	TRANSMITTANCE
4000	0.9146
3991	0.9147
3982	0.9148
3973	0.9151
3964	0.9157
3955	0.9164
3946	0.917
3937	0.9177
3928	0.9183
3919	0.9189
3910	0.9196
3901	0.9202
3892	0.9208
3883	0.9212
3874	0.9216
3865	0.9221
3856	0.9227
3847	0.9231
3838	0.9237
3829	0.9241
3820	0.9242
3811	0.9243
3802	0.9244
3793	0.9244
3784	0.9245
3775	0.9246
3766	0.9247
3757	0.9247
3748	0.9247
3739	0.9247
3730	0.9247
3721	0.9247
3712	0.9247
3703	0.9247
3694	0.9247
3685	0.9242
3676	0.9236
3667	0.923
3658	0.9225
3649	0.9218
3640	0.921
3631	0.9198
3622	0.9186
3613	0.9174
3604	0.9156
3595	0.9128
3586	0.9098
3577	0.905
3568	0.8975
3559	0.8856
3550	0.8589
3541	0.8184
3532	0.7778
3523	0.7369
3514	0.7161
3505	0.7217
3496	0.7464
3487	0.7714
3478	0.7965
3469	0.8217
3460	0.8325
3451	0.8193
3442	0.7825
3433	0.7458
3424	0.7087
3415	0.6715
3406	0.6341
3397	0.6456
3388	0.6783
3379	0.7111
3370	0.7443
3361	0.7775
3352	0.8111
3343	0.8447
3334	0.8757
3325	0.8834
3316	0.8882
3307	0.8911
3298	0.8917
3289	0.8915
3280	0.8908
3271	0.886
3262	0.8803
3253	0.8741
3244	0.8714
3235	0.8717
3226	0.8758
3217	0.8816
3208	0.8889
3199	0.8955
3190	0.8982
3181	0.8987
3172	0.8975
3163	0.8943
3154	0.8884
3145	0.8833
3136	0.876
3127	0.8617
3118	0.844
3109	0.8266
3100	0.8071
3091	0.7901
3082	0.7775
3073	0.7518
3064	0.7228
3055	0.7018
3046	0.6693
3037	0.6091
3028	0.5346
3019	0.4595
3010	0.293
3001	0.1619
2992	0.0548
2983	0.0544
2974	0.1022
2965	0.1506
2956	0.1991
2947	0.2295
2938	0.238
2929	0.2482
2920	0.2834
2911	0.3021
2902	0.3178
2893	0.3821
2884	0.5353
2875	0.6896
2866	0.832
2857	0.8541
2848	0.8678
2839	0.8802
2830	0.8916
2821	0.9044
2812	0.9125
2803	0.9168
2794	0.9182
2785	0.9167
2776	0.9152
2767	0.914
2758	0.9134
2749	0.9132
2740	0.9142
2731	0.916
2722	0.9243
2713	0.9334
2704	0.9366
2695	0.9383
2686	0.9397
2677	0.9409
2668	0.9421
2659	0.9431
2650	0.9443
2641	0.9454
2632	0.9457
2623	0.9459
2614	0.9459
2605	0.9454
2596	0.945
2587	0.9458
2578	0.9468
2569	0.9481
2560	0.9495
2551	0.9509
2542	0.9523
2533	0.9532
2524	0.9539
2515	0.9547
2506	0.9554
2497	0.9557
2488	0.9558
2479	0.9559
2470	0.9561
2461	0.9561
2452	0.9561
2443	0.9557
2434	0.9553
2425	0.955
2416	0.9546
2407	0.9542
2398	0.9542
2389	0.9545
2380	0.9547
2371	0.955
2362	0.9553
2353	0.9556
2344	0.9558
2335	0.9561
2326	0.9563
2317	0.9565
2308	0.9568
2299	0.957
2290	0.9573
2281	0.9574
2272	0.9575
2263	0.9575
2254	0.9577
2245	0.9578
2236	0.9578
2227	0.958
2218	0.9581
2209	0.9582
2200	0.9583
2191	0.9583
2182	0.9584
2173	0.9584
2164	0.9584
2155	0.9582
2146	0.958
2137	0.9578
2128	0.9575
2119	0.9574
2110	0.9571
2101	0.9575
2092	0.9584
2083	0.9593
2074	0.9602
2065	0.961
2056	0.9615
2047	0.9621
2038	0.9623
2029	0.9624
2020	0.9625
2011	0.9627
2002	0.9628
1993	0.9632
1984	0.9634
1975	0.9637
1966	0.9637
1957	0.9631
1948	0.9624
1939	0.9616
1930	0.9606
1921	0.9585
1912	0.9553
1903	0.9482
1894	0.9363
1885	0.9349
1876	0.94
1867	0.952
1858	0.9575
1849	0.9562
1840	0.9538
1831	0.9548
1822	0.9614
1813	0.9652
1804	0.966
1795	0.962
1786	0.9493
1777	0.948
1768	0.9542
1759	0.9627
1750	0.9701
1741	0.9755
1732	0.9759
1723	0.9731
1714	0.9682
1705	0.961
1696	0.952
1687	0.9392
1678	0.9151
1669	0.8837
1660	0.8011
1651	0.6907
1642	0.5051
1633	0.2799
1624	0.2904
1615	0.4687
1606	0.6489
1597	0.7947
1588	0.8465
1579	0.8597
1570	0.8811
1561	0.8892
1552	0.8487
1543	0.7558
1534	0.5892
1525	0.4794
1516	0.1375
1507	0.3258
1498	0.4814
1489	0.3688
1480	0.4135
1471	0.3782
1462	0.491
1453	0.6249
1444	0.7522
1435	0.8154
1426	0.7746
1417	0.4558
1408	0.5068
1399	0.5524
1390	0.7905
1381	0.6761
1372	0.2338
1363	0.604
1354	0.8794
1345	0.9037
1336	0.8642
1327	0.8058
1318	0.8248
1309	0.741
1300	0.4507
1291	0.5164
1282	0.3618
1273	0.5341
1264	0.4917
1255	0.3507
1246	0.2858
1237	0.6133
1228	0.6907
1219	0.7711
1210	0.6715
1201	0.6004
1192	0.8361
1183	0.8924
1174	0.8546
1165	0.6248
1156	0.8768
1147	0.9089
1138	0.8621
1129	0.683
1120	0.899
1111	0.8839
1102	0.8675
1093	0.9137
1084	0.924
1075	0.9061
1066	0.8891
1057	0.9114
1048	0.9334
1039	0.9405
1030	0.8971
1021	0.8598
1012	0.925
1003	0.9486
994	0.9523
985	0.9501
976	0.9435
967	0.9343
958	0.9221
949	0.9089
940	0.8885
931	0.8532
922	0.8399
913	0.8844
904	0.7964
895	0.8405
886	0.6675
877	0.8958
868	0.8994
859	0.8842
850	0.8561
841	0.7862
832	0.6106
823	0.3599
814	0.381
805	0.7395
796	0.8509
787	0.8563
778	0.8518
769	0.8393
760	0.8228
751	0.7821
742	0.8436
733	0.8318
724	0.8231
715	0.784
706	0.7611
697	0.7495
688	0.7434
679	0.7522
670	0.7348
661	0.6924
652	0.6259
643	0.5736
634	0.6144
