Infrared Spectrum: Aniline, 4-tert-butyl-2-methyl-
Formula: C11 H17 N
CAS: 2909-82-2
State: LIQUID (NEAT)
Class: COBLENTZ III
Instrument: BECKMAN IR-4 (HYBRID PRISM-GRATING)
Instrument parameters: NaCl PRISM
Sampling: TRANSMISSION
Path length: CAPILLARY
Resolution: 2
Origin: MONSANTO (J. FREEMAN)
1/CM	TRANSMITTANCE
626	0.5597
634.664	0.5618
643.328	0.5573
651.993	0.5411
660.657	0.529
669.321	0.5854
677.985	0.583
686.65	0.5628
695.314	0.5658
703.978	0.5787
712.642	0.6061
721.307	0.6431
729.971	0.5195
738.635	0.5248
747.299	0.5711
755.964	0.6448
764.628	0.743
773.292	0.7154
781.956	0.7266
790.621	0.736
799.285	0.705
807.949	0.4413
816.613	0.2015
825.278	0.3813
833.942	0.6045
842.606	0.7134
851.27	0.7679
859.935	0.799
868.599	0.7963
877.263	0.5857
885.927	0.6164
894.592	0.8211
903.256	0.8589
911.92	0.8178
920.584	0.7587
929.249	0.8036
937.913	0.8375
946.577	0.8682
955.241	0.8832
963.906	0.8833
972.57	0.8771
981.234	0.8431
989.898	0.6198
998.563	0.8272
1007.23	0.8862
1015.89	0.8692
1024.56	0.8065
1033.22	0.8279
1041.88	0.8806
1050.55	0.8817
1059.21	0.8646
1067.88	0.8377
1076.54	0.8345
1085.21	0.8578
1093.87	0.8775
1102.53	0.8722
1111.2	0.8557
1119.86	0.8857
1128.53	0.8832
1137.19	0.8632
1145.85	0.7935
1154.52	0.4524
1163.18	0.5855
1171.85	0.8157
1180.51	0.842
1189.18	0.687
1197.84	0.4631
1206.5	0.7001
1215.17	0.8598
1223.83	0.8796
1232.5	0.8717
1241.16	0.8483
1249.83	0.8026
1258.49	0.7193
1267.15	0.4337
1275.82	0.1307
1284.48	0.1963
1293.15	0.3795
1301.81	0.6052
1310.48	0.7547
1319.14	0.654
1327.8	0.8102
1336.47	0.8527
1345.13	0.8606
1353.8	0.6511
1362.46	0.3331
1371.13	0.7316
1379.79	0.7433
1388.45	0.5898
1397.12	0.6865
1405.78	0.6541
1414.45	0.6823
1423.11	0.7471
1431.77	0.6877
1440.44	0.5519
1449.1	0.4403
1457.77	0.3655
1466.43	0.4518
1475.1	0.4667
1483.76	0.4273
1492.42	0.4654
1501.09	0.2339
1509.75	0.108
1518.42	0.3955
1527.08	0.6432
1535.75	0.7096
1544.41	0.7623
1553.07	0.8038
1561.74	0.8147
1570.4	0.7825
1579.07	0.6411
1587.73	0.635
1596.4	0.5726
1605.06	0.3946
1613.72	0.2186
1622.39	0.1768
1631.05	0.3305
1639.72	0.4833
1648.38	0.6346
1657.05	0.7693
1665.71	0.8456
1674.37	0.8796
1683.04	0.9072
1691.7	0.9275
1700.37	0.9383
1709.03	0.9464
1717.7	0.951
1726.36	0.9522
1735.02	0.9486
1743.69	0.9409
1752.35	0.9255
1761.02	0.9032
1769.68	0.905
1778.34	0.9242
1787.01	0.9428
1795.67	0.9458
1804.34	0.9455
1813	0.9435
1821.67	0.9421
1830.33	0.9412
1838.99	0.9407
1847.66	0.9354
1856.32	0.9176
1864.99	0.9079
1873.65	0.9047
1882.32	0.9079
1890.98	0.9174
1899.64	0.9306
1908.31	0.9347
1916.97	0.9346
1925.64	0.9338
1934.3	0.9357
1942.97	0.9399
1951.63	0.9443
1960.29	0.947
1968.96	0.9478
1977.62	0.9482
1986.29	0.9479
1994.95	0.9474
2003.62	0.9469
2012.28	0.9462
2020.94	0.9455
2029.61	0.9451
2038.27	0.9447
2046.94	0.9443
2055.6	0.944
2064.27	0.9444
2072.93	0.946
2081.59	0.9476
2090.26	0.9478
2098.92	0.9471
2107.59	0.9467
2116.25	0.9465
2124.91	0.9464
2133.58	0.9464
2142.24	0.9465
2150.91	0.9465
2159.57	0.9466
2168.24	0.9467
2176.9	0.9468
2185.56	0.9466
2194.23	0.9463
2202.89	0.946
2211.56	0.9454
2220.22	0.9446
2228.89	0.9438
2237.55	0.9438
2246.21	0.9438
2254.88	0.9439
2263.54	0.9427
2272.21	0.9413
2280.87	0.9396
2289.54	0.9383
2298.2	0.9387
2306.86	0.9429
2315.53	0.9465
2324.19	0.9474
2332.86	0.9479
2341.52	0.9483
2350.19	0.9486
2358.85	0.9488
2367.51	0.9487
2376.18	0.9483
2384.84	0.945
2393.51	0.9382
2402.17	0.9345
2410.83	0.9342
2419.5	0.9353
2428.16	0.9398
2436.83	0.9421
2445.49	0.9434
2454.16	0.9436
2462.82	0.9439
2471.48	0.9442
2480.15	0.9446
2488.81	0.9446
2497.48	0.9441
2506.14	0.9437
2514.81	0.9427
2523.47	0.9418
2532.13	0.9408
2540.8	0.9387
2549.46	0.9363
2558.13	0.9341
2566.79	0.932
2575.46	0.9299
2584.12	0.9293
2592.78	0.9292
2601.45	0.9301
2610.11	0.9295
2618.78	0.9284
2627.44	0.926
2636.11	0.9235
2644.77	0.921
2653.43	0.9186
2662.1	0.9161
2670.76	0.9149
2679.43	0.9143
2688.09	0.9137
2696.76	0.9131
2705.42	0.9119
2714.08	0.9082
2722.75	0.9011
2731.41	0.8927
2740.08	0.8861
2748.74	0.8829
2757.4	0.8888
2766.07	0.896
2774.73	0.8994
2783.4	0.8979
2792.06	0.894
2800.73	0.8843
2809.39	0.876
2818.05	0.8618
2826.72	0.8382
2835.38	0.8085
2844.05	0.7556
2852.71	0.354
2861.38	0.3198
2870.04	0.3172
2878.7	0.3139
2887.37	0.2851
2896.03	0.2597
2904.7	0.2456
2913.36	0.2204
2922.03	0.1458
2930.69	0.092
2939.35	0.0945
2948.02	0.1544
2956.68	0.2285
2965.35	0.3023
2974.01	0.3755
2982.68	0.4484
2991.34	0.5208
3000	0.5617
3008.67	0.5644
3017.33	0.5668
3026	0.6139
3034.66	0.644
3043.32	0.6659
3051.99	0.6819
3060.65	0.6955
3069.32	0.7251
3077.98	0.7691
3086.65	0.8125
3095.31	0.8294
3103.97	0.8395
3112.64	0.8487
3121.3	0.8543
3129.97	0.8563
3138.63	0.8575
3147.3	0.8582
3155.96	0.8583
3164.62	0.8571
3173.29	0.8484
3181.95	0.8282
3190.62	0.8082
3199.28	0.7883
3207.95	0.7685
3216.61	0.7487
3225.27	0.7309
3233.94	0.7296
3242.6	0.7358
3251.27	0.7481
3259.93	0.7606
3268.6	0.7722
3277.26	0.7744
3285.92	0.7733
3294.59	0.7671
3303.25	0.7492
3311.92	0.7304
3320.58	0.7094
3329.25	0.6237
3337.91	0.452
3346.57	0.4407
3355.24	0.4511
3363.9	0.4817
3372.57	0.5122
3381.23	0.5427
3389.89	0.573
3398.56	0.603
3407.22	0.619
3415.89	0.6191
3424.55	0.609
3433.22	0.5891
3441.88	0.581
3450.54	0.5818
3459.21	0.6082
3467.87	0.6411
3476.54	0.6739
3485.2	0.7066
3493.87	0.7391
3502.53	0.7714
3511.19	0.8035
3519.86	0.8355
3528.52	0.8717
3537.19	0.8772
3545.85	0.8813
3554.52	0.8846
3563.18	0.8867
3571.84	0.8888
3580.51	0.8907
3589.17	0.8923
3597.84	0.8938
3606.5	0.8953
3615.17	0.8966
3623.83	0.8975
3632.49	0.8984
3641.16	0.8995
3649.82	0.9003
3658.49	0.9008
3667.15	0.9013
3675.82	0.9019
3684.48	0.9024
3693.14	0.9029
3701.81	0.9031
3710.47	0.9034
3719.14	0.9037
3727.8	0.9039
3736.46	0.9042
3745.13	0.9044
3753.79	0.9046
3762.46	0.9045
3771.12	0.9044
3779.79	0.9044
3788.45	0.9043
3797.11	0.9043
3805.78	0.9042
3814.44	0.9041
3823.11	0.904
3831.77	0.9037
3840.44	0.9033
3849.1	0.903
3857.76	0.9027
3866.43	0.9024
