Infrared Spectrum: Cycloheptane
Formula: C 7 H 14
CAS: 291-64-5
State: gas
Instrument: HP-GC/MS/IRD
Origin: NIST Mass Spectrometry Data Center
1/CM	ABSORBANCE
550	0.0004844
562	0.0001064
574	4.48e-05
586	0.0002268
598	0.000294
610	0.0003976
622	0.0003808
634	0.0003556
646	0.000364
658	0.0003108
670	0.000392
682	0.0004844
694	0.00042
706	0.0004648
718	0.000504
730	0.0004816
742	0.0004928
754	0.0003612
766	0.0004452
778	0.0005656
790	0.0005852
802	0.000672
814	0.0007672
826	0.0007028
838	0.0006328
850	0.0005236
862	0.0004872
874	0.0004732
886	0.0004956
898	0.0005152
910	0.0005152
922	0.0005264
934	0.0006104
946	0.0006384
958	0.0006356
970	0.0005544
982	0.0005096
994	0.0004844
1006	0.0005264
1018	0.000574
1030	0.0005292
1042	0.0004872
1054	0.000504
1066	0.0004116
1078	0.0004144
1090	0.0004508
1102	0.0004704
1114	0.0004536
1126	0.0004928
1138	0.0004396
1150	0.0004732
1162	0.0004648
1174	0.0004984
1186	0.0004956
1198	0.0004816
1210	0.0004788
1222	0.000448
1234	0.000434
1246	0.0004032
1258	0.00049
1270	0.0004788
1282	0.0005544
1294	0.0004928
1306	0.0004732
1318	0.00042
1330	0.0004564
1342	0.0005404
1354	0.0006104
1366	0.00056
1378	0.0004452
1390	0.0003976
1402	0.0003948
1414	0.0004844
1426	0.000658
1438	0.001358
1450	0.0020664
1462	0.0023744
1474	0.0014952
1486	0.00091
1498	0.0005432
1510	0.0002744
1522	0.0002996
1534	0.0003304
1546	0.0002828
1558	0.000224
1570	0.0003136
1582	0.0003192
1594	0.0003192
1606	0.0003024
1618	0.0002744
1630	0.0002464
1642	0.0002464
1654	0.0001792
1666	0.000196
1678	0.0001904
1690	0.000182
1702	0.0001092
1714	0.0001372
1726	0.0001904
1738	0.000168
1750	0.0001064
1762	0.0001764
1774	0.0001512
1786	0.000168
1798	0.00014
1810	0.0001848
1822	0.000154
1834	0.000182
1846	0.0001568
1858	0.0001792
1870	0.000154
1882	0.000182
1894	0.0001596
1906	0.0001848
1918	0.0001848
1930	0.000168
1942	0.0001708
1954	0.0001708
1966	0.0001652
1978	0.0001736
1990	0.0001596
2002	0.0001484
2014	0.0001456
2026	0.0001344
2038	0.0001316
2050	0.0001512
2062	0.000126
2074	0.0001288
2086	0.0001176
2098	0.0001232
2110	0.0001344
2122	0.0001176
2134	0.0001064
2146	0.0001204
2158	0.0001456
2170	0.0001372
2182	0.0001288
2194	0.00014
2206	0.0001288
2218	0.0001148
2230	8.4e-05
2242	8.4e-05
2254	7.84e-05
2266	8.4e-05
2278	6.72e-05
2290	6.44e-05
2302	4.48e-05
2314	2.24e-05
2326	3.08e-05
2338	4.2e-05
2350	2.8e-05
2362	2.24e-05
2374	1.96e-05
2386	5.04e-05
2398	3.36e-05
2410	1.96e-05
2422	3.36e-05
2434	4.48e-05
2446	4.76e-05
2458	3.36e-05
2470	2.24e-05
2482	1.4e-05
2494	8.4e-06
2506	5.6e-05
2518	2.8e-05
2530	5.32e-05
2542	5.32e-05
2554	4.76e-05
2566	4.48e-05
2578	3.92e-05
2590	3.36e-05
2602	6.44e-05
2614	7.28e-05
2626	0.0001232
2638	0.0001932
2650	0.0002268
2662	0.0002884
2674	0.0003612
2686	0.000378
2698	0.0003416
2710	0.000252
2722	0.0002044
2734	0.0001848
2746	0.0001512
2758	0.0001848
2770	0.000196
2782	0.000364
2794	0.0005068
2806	0.000616
2818	0.0007644
2830	0.0011284
2842	0.0025956
2854	0.005642
2866	0.0069328
2878	0.0059556
2890	0.0052724
2902	0.0085652
2914	0.0172256
2926	0.0257124
2938	0.023296
2950	0.012824
2962	0.0043624
2974	0.0016688
2986	0.000882
2998	0.0005348
3010	0.0004032
3022	0.0002996
3034	0.000182
3046	0.0001736
3058	0.0001008
3070	0.0001036
3082	5.32e-05
3094	5.04e-05
3106	4.2e-05
3118	6.44e-05
3130	4.2e-05
3142	4.76e-05
3154	4.76e-05
3166	2.52e-05
3178	7.84e-05
3190	7.84e-05
3202	5.6e-05
3214	9.24e-05
3226	8.12e-05
3238	3.92e-05
3250	2.52e-05
3262	7.84e-05
3274	5.6e-05
3286	8.12e-05
3298	5.32e-05
3310	5.32e-05
3322	3.08e-05
3334	4.48e-05
3346	6.16e-05
3358	3.92e-05
3370	4.76e-05
3382	7.28e-05
3394	0.0001204
3406	0.0001064
3418	0.0001344
3430	0.00014
3442	0.0001232
3454	9.52e-05
3466	9.52e-05
3478	7.28e-05
3490	0.0001008
3502	5.6e-05
3514	3.92e-05
3526	4.48e-05
3538	0.0001064
3550	9.24e-05
3562	9.8e-05
3574	0.0001148
3586	4.48e-05
3598	9.8e-05
3610	8.68e-05
3622	0.0001008
3634	7.56e-05
3646	7.84e-05
3658	0.0001204
3670	9.52e-05
3682	0.000154
3694	0.0001204
3706	0.000112
3718	0.0001372
3730	8.12e-05
3742	7.28e-05
3754	0.0001008
3766	0.0001204
3778	0.000154
3790	0.0001764
3802	9.24e-05
3814	0.0001764
3826	0.0001624
3838	0.00014
