Infrared Spectrum: 4-Fluorovalerophenone
Formula: C 11 H 13 F O
CAS: 29114-66-7
State: gas
Origin: EPA-IR VAPOR PHASE LIBRARY
1/CM	ABSORBANCE
549.9	0.01418
559.547	0.01993
569.193	0.02476
578.84	0.03238
588.486	0.02595
598.133	0.01976
607.779	0.01341
617.426	0.00798
627.072	0.00596
636.719	0.00548
646.365	0.00534
656.012	0.00469
665.658	0.00359
675.305	0.0032979
684.951	0.0031861
694.598	0.0033072
704.245	0.0030003
713.891	0.0028797
723.538	0.00375
733.184	0.00567
742.831	0.00786
752.477	0.01014
762.124	0.01139
771.77	0.00993
781.417	0.00927
791.063	0.01117
800.71	0.01892
810.356	0.0322
820.003	0.03589
829.649	0.0557
839.296	0.07862
848.943	0.05523
858.589	0.02232
868.236	0.01222
877.882	0.01066
887.529	0.00943
897.175	0.0067
906.822	0.00496
916.468	0.00458
926.115	0.00552
935.761	0.00799
945.408	0.01319
955.054	0.01961
964.701	0.02408
974.347	0.02072
983.994	0.01507
993.64	0.01773
1003.29	0.03784
1012.93	0.0538
1022.58	0.02523
1032.23	0.01055
1041.87	0.00675
1051.52	0.00648
1061.17	0.00633
1070.81	0.00545
1080.46	0.00563
1090.11	0.00922
1099.75	0.01401
1109.4	0.01261
1119.05	0.00845
1128.69	0.00741
1138.34	0.01052
1147.99	0.04361
1157.63	0.12648
1167.28	0.03585
1176.92	0.02442
1186.57	0.04091
1196.22	0.07546
1205.86	0.09764
1215.51	0.09065
1225.16	0.10985
1234.8	0.20603
1244.45	0.21686
1254.1	0.1012
1263.74	0.08029
1273.39	0.05676
1283.04	0.04294
1292.68	0.03881
1302.33	0.03816
1311.98	0.03878
1321.62	0.03706
1331.27	0.03373
1340.92	0.03571
1350.56	0.03992
1360.21	0.03602
1369.86	0.02471
1379.5	0.01794
1389.15	0.01766
1398.79	0.02489
1408.44	0.03516
1418.09	0.02393
1427.73	0.01804
1437.38	0.02019
1447.03	0.02483
1456.67	0.02593
1466.32	0.02453
1475.97	0.02065
1485.61	0.02068
1495.26	0.0402
1504.91	0.08833
1514.55	0.05418
1524.2	0.01601
1533.85	0.01003
1543.49	0.00933
1553.14	0.01026
1562.79	0.01319
1572.43	0.0228
1582.08	0.05137
1591.73	0.12844
1601.37	0.17273
1611.02	0.07769
1620.67	0.02826
1630.31	0.01509
1639.96	0.01153
1649.6	0.01293
1659.25	0.01513
1668.9	0.01911
1678.54	0.03537
1688.19	0.09537
1697.84	0.17898
1707.48	0.14891
1717.13	0.05382
1726.78	0.01863
1736.42	0.01046
1746.07	0.00787
1755.72	0.00653
1765.36	0.00592
1775.01	0.00584
1784.66	0.00451
1794.3	0.00363
1803.95	0.0032668
1813.6	0.0029112
1823.24	0.0026512
1832.89	0.0024749
1842.54	0.0024309
1852.18	0.0024913
1861.83	0.0027605
1871.47	0.00349
1881.12	0.00413
1890.77	0.00414
1900.41	0.00396
1910.06	0.00356
1919.71	0.00338
1929.35	0.00343
1939	0.0029128
1948.65	0.00233501
1958.29	0.0022
1967.94	0.0022565
1977.59	0.0022601
1987.23	0.0026253
1996.88	0.00235087
2006.53	0.001907
2016.17	0.001971
2025.82	0.00237829
2035.47	0.00235719
2045.11	0.0025033
2054.76	0.0028385
2064.41	0.0027872
2074.05	0.0025252
2083.7	0.002035
2093.35	0.00167
2102.99	0.001555
2112.64	0.00153
2122.28	0.001487
2131.93	0.001422
2141.58	0.001411
2151.22	0.001472
2160.87	0.001452
2170.52	0.001446
2180.16	0.001437
2189.81	0.001371
2199.46	0.001374
2209.1	0.001425
2218.75	0.001471
2228.4	0.001544
2238.04	0.001602
2247.69	0.001792
2257.34	0.001992
2266.98	0.00188
2276.63	0.001701
2286.28	0.001648
2295.92	0.001711
2305.57	0.001863
2315.22	0.001838
2324.86	0.001777
2334.51	0.00177
2344.16	0.001663
2353.8	0.001615
2363.45	0.001615
2373.09	0.001702
2382.74	0.001976
2392.39	0.0025738
2402.03	0.0027609
2411.68	0.0025573
2421.33	0.0026459
2430.97	0.0027395
2440.62	0.0024577
2450.27	0.0022998
2459.91	0.0025337
2469.56	0.0027076
2479.21	0.002586
2488.85	0.00187
2498.5	0.001542
2508.15	0.001595
2517.79	0.001807
2527.44	0.00187
2537.09	0.001806
2546.73	0.001957
2556.38	0.00234505
2566.03	0.0027703
2575.67	0.0031289
2585.32	0.0030252
2594.96	0.0025178
2604.61	0.002198
2614.26	0.001931
2623.9	0.001728
2633.55	0.001653
2643.2	0.00171
2652.84	0.001864
2662.49	0.002044
2672.14	0.002088
2681.78	0.002134
2691.43	0.0022111
2701.08	0.002095
2710.72	0.002117
2720.37	0.00216
2730.02	0.002443
2739.66	0.0030008
2749.31	0.0032171
2758.96	0.0029289
2768.6	0.0029451
2778.25	0.0032085
2787.9	0.0038
2797.54	0.00452
2807.19	0.00537
2816.84	0.0063
2826.48	0.00731
2836.13	0.00893
2845.77	0.01171
2855.42	0.01847
2865.07	0.03162
2874.71	0.04421
2884.36	0.04935
2894.01	0.04276
2903.65	0.0426
2913.3	0.04837
2922.95	0.06047
2932.59	0.07944
2942.24	0.09337
2951.89	0.08743
2961.53	0.10152
2971.18	0.11218
2980.83	0.06441
2990.47	0.03041
3000.12	0.01765
3009.77	0.01182
3019.41	0.00886
3029.06	0.00728
3038.71	0.00673
3048.35	0.00829
3058	0.01038
3067.64	0.011
3077.29	0.01186
3086.94	0.01015
3096.58	0.00557
3106.23	0.00532
3115.88	0.00449
3125.52	0.0028749
3135.17	0.001909
3144.82	0.00131
3154.46	0.00129
3164.11	0.00113
3173.76	0.00117
3183.4	0.00112
3193.05	0.00102
3202.7	0.00075
3212.34	0.00057
3221.99	0.00031
3231.64	0.00022
3241.28	0.00011
3250.93	4e-05
3260.58	0.00011
3270.22	0.00017
3279.87	9e-05
3289.52	0.00035
3299.16	0.00035
3308.81	0.00028
3318.45	0.00026
3328.1	0.00012
3337.75	0.00022
3347.39	0.00059
3357.04	0.00098
3366.69	0.001997
3376.33	0.0029047
3385.98	0.0030329
3395.63	0.0022578
3405.27	0.00118
3414.92	0.00065
3424.57	0.00039
3434.21	0.00045
3443.86	0.00043
3453.51	0.00042
3463.15	0.00046
3472.8	0.0006
3482.45	0.00041
3492.09	0.00042
3501.74	0.00055
3511.39	0.00043
3521.03	0.00055
3530.68	0.00055
3540.33	0.00038
3549.97	0.00067
3559.62	0.00042
3569.26	0.00057
3578.91	0.00043
3588.56	0.00042
3598.2	0.00054
3607.85	0.00044
3617.5	0.00063
3627.14	0.00074
3636.79	0.0008
3646.44	0.0007
3656.08	0.00082
3665.73	0.0009
3675.38	0.00086
3685.02	0.00106
3694.67	0.00116
3704.32	0.00116
3713.96	0.00104
3723.61	0.00102
3733.26	0.00096
3742.9	0.001
3752.55	0.00095
3762.2	0.00093
3771.84	0.00083
3781.49	0.0009
3791.13	0.00099
3800.78	0.00097
3810.43	0.00098
3820.07	0.00093
3829.72	0.00113
3839.37	0.00106
3849.01	0.00109
3858.66	0.00112
3868.31	0.00106
3877.95	0.00104
3887.6	0.00118
3897.25	0.00122
3906.89	0.00111
3916.54	0.00105
3926.19	0.00109
3935.83	0.00114
3945.48	0.00115
3955.13	0.00118
3964.77	0.00124
3974.42	0.00125
3984.07	0.00122
3993.71	0.00125
