Infrared Spectrum: 2,5-Difluoropropiophenone
Formula: C 9 H 8 F 2 O
CAS: 29112-90-1
State: gas
Origin: EPA-IR VAPOR PHASE LIBRARY
1/CM	ABSORBANCE
549.8	0.003968
559.445	0.004318
569.09	0.003938
578.734	0.003288
588.379	0.002998
598.024	0.003058
607.669	0.001858
617.313	0.001878
626.958	0.001858
636.603	0.0015914
646.248	0.002898
655.893	0.001818
665.537	0.00162
675.182	0.0014623
684.827	0.002168
694.472	0.002128
704.116	0.002618
713.761	0.002868
723.406	0.004818
733.051	0.005678
742.695	0.008468
752.34	0.016658
761.985	0.017148
771.63	0.008608
781.275	0.005008
790.919	0.002768
800.564	0.004548
810.209	0.009528
819.854	0.014908
829.498	0.009008
839.143	0.004348
848.788	0.002858
858.433	0.004048
868.078	0.006708
877.722	0.011428
887.367	0.012908
897.012	0.008608
906.657	0.004168
916.301	0.002848
925.946	0.0016783
935.591	0.001049
945.236	0.002388
954.88	0.002468
964.525	0.002848
974.17	0.002458
983.815	0.001988
993.46	0.001918
1003.1	0.002118
1012.75	0.002678
1022.39	0.003588
1032.04	0.003158
1041.68	0.002348
1051.33	0.001346
1060.97	0.002398
1070.62	0.002458
1080.26	0.003058
1089.91	0.001948
1099.55	0.004138
1109.2	0.004528
1118.84	0.005788
1128.49	0.006738
1138.13	0.007508
1147.78	0.013318
1157.42	0.017288
1167.07	0.014208
1176.71	0.015538
1186.36	0.019088
1196	0.024088
1205.64	0.021168
1215.29	0.015378
1224.93	0.012468
1234.58	0.011038
1244.22	0.019118
1253.87	0.029538
1263.51	0.032208
1273.16	0.016768
1282.8	0.010968
1292.45	0.009558
1302.09	0.007768
1311.74	0.006528
1321.38	0.005448
1331.03	0.005098
1340.67	0.005658
1350.32	0.006468
1359.96	0.004918
1369.61	0.003788
1379.25	0.003948
1388.9	0.005158
1398.54	0.008868
1408.18	0.025298
1417.83	0.032218
1427.47	0.014308
1437.12	0.009418
1446.76	0.009238
1456.41	0.010438
1466.05	0.015898
1475.7	0.031818
1485.34	0.057668
1494.99	0.050808
1504.63	0.019148
1514.28	0.006118
1523.92	0.003288
1533.57	0.002538
1543.21	0.002378
1552.86	0.002518
1562.5	0.002348
1572.15	0.002688
1581.79	0.003558
1591.44	0.004788
1601.08	0.004828
1610.73	0.004728
1620.37	0.004848
1630.01	0.004748
1639.66	0.003628
1649.3	0.003048
1658.95	0.003188
1668.59	0.003798
1678.24	0.005768
1687.88	0.010628
1697.53	0.021458
1707.17	0.030748
1716.82	0.025978
1726.46	0.014768
1736.11	0.008778
1745.75	0.005898
1755.4	0.003668
1765.04	0.002828
1774.69	0.002218
1784.33	0.002248
1793.98	0.0015816
1803.62	0.0017112
1813.27	0.0015461
1822.91	0.0013358
1832.55	0.0014601
1842.2	0.0011779
1851.84	0.0012658
1861.49	0.001968
1871.13	0.002178
1880.78	0.0014637
1890.42	0.0009586
1900.07	0.0008842
1909.71	0.0008484
1919.36	0.0008524
1929	0.001084
1938.65	0.0008335
1948.29	0.0007735
1957.94	0.0009292
1967.58	0.000896
1977.23	0.0009
1986.87	0.000975
1996.52	0.0011812
2006.16	0.0012443
2015.81	0.0009173
2025.45	0.0010055
2035.1	0.0008445
2044.74	0.0008328
2054.38	0.0009334
2064.03	0.0008202
2073.67	0.0009242
2083.32	0.000726276
2092.96	0.0008281
2102.61	0.0006781
2112.25	0.0006559
2121.9	0.0008799
2131.54	0.0008463
2141.19	0.00078035
2150.83	0.00053
2160.48	0.0007001
2170.12	0.0007142
2179.77	0.0006659
2189.41	0.000484
2199.06	0.000529
2208.7	0.0008904
2218.35	0.000584
2227.99	0.000601
2237.64	0.000686
2247.28	0.0009392
2256.92	0.000518
2266.57	0.0006801
2276.21	0.000585
2285.86	0.000207
2295.5	0.0006564
2305.15	0.0006215
2314.79	0.00075382
2324.44	0.0009305
2334.08	0.000366
2343.73	0.000717163
2353.37	0.0007799
2363.02	0.00074345
2372.66	0.00073254
2382.31	0.00080209
2391.95	0.00076283
2401.6	0.0009588
2411.24	0.000617
2420.89	0.000551
2430.53	0.0009501
2440.18	0.00079685
2449.82	0.000572
2459.47	0.000548
2469.11	0.000548
2478.75	0.0006291
2488.4	0.0006908
2498.04	0.000724144
2507.69	0.00081652
2517.33	0.000559
2526.98	0.000448
2536.62	0.00051
2546.27	0.000314
2555.91	0.000473
2565.56	0.00071657
2575.2	0.000369
2584.85	0.000314
2594.49	0.000223
2604.14	0.000463
2613.78	0.000292
2623.43	0.000238
2633.07	0.00028
2642.72	0.000472
2652.36	0.000312
2662.01	0.0006762
2671.65	0.000344
2681.29	0.0008618
2690.94	0.000577
2700.58	0.000415
2710.23	0.00023
2719.87	0.0006264
2729.52	0.00081267
2739.16	0.0008401
2748.81	0.0006636
2758.45	0.0008604
2768.1	0.000214
2777.74	0.000484
2787.39	0.0008232
2797.03	0.00073658
2806.68	0.0008928
2816.32	0.0010221
2825.97	0.0010369
2835.61	0.0008333
2845.26	0.000596
2854.9	0.0014354
2864.55	0.0015686
2874.19	0.002218
2883.84	0.003048
2893.48	0.003528
2903.12	0.003948
2912.77	0.003528
2922.41	0.003938
2932.06	0.004508
2941.7	0.005318
2951.35	0.007218
2960.99	0.005368
2970.64	0.004708
2980.28	0.006698
2989.93	0.008088
2999.57	0.005548
3009.22	0.003228
3018.86	0.002098
3028.51	0.001818
3038.15	0.0016686
3047.8	0.0013106
3057.44	0.0011132
3067.09	0.0016187
3076.73	0.002258
3086.38	0.002118
3096.02	0.001808
3105.67	0.0012471
3115.31	0.000492
3124.95	0.0009236
3134.6	0.0006394
3144.24	0.0010052
3153.89	0.000433
3163.53	0.0006329
3173.18	0.000274
3182.82	0.00076987
3192.47	0.001024
3202.11	0.000534
3211.76	0.0011149
3221.4	0.0006273
3231.05	0.000311
3240.69	0.0009463
3250.34	0.000445
3259.98	0.000411
3269.63	0.000398
3279.27	0.0009877
3288.92	0.0009563
3298.56	0.000364
3308.21	0.0007316
3317.85	0.000242
3327.49	0.0008217
3337.14	0.0007311
3346.78	0.0009111
3356.43	0.00076725
3366.07	0.0009276
3375.72	0.0009089
3385.36	0.0014816
3395.01	0.0013585
3404.65	0.0016364
3414.3	0.0008665
3423.94	0.0015194
3433.59	0.0010413
3443.23	0.0006968
3452.88	0.0011225
3462.52	0.00078183
3472.17	0.000498
3481.81	0.000571
3491.46	0.0010204
3501.1	0.0014567
3510.75	0.0011444
3520.39	0.0012868
3530.04	0.000836
3539.68	0.0011728
3549.32	0.0008516
3558.97	0.0008922
3568.61	0.0008385
3578.26	0.0006593
3587.9	0.0010478
3597.55	0.0011429
3607.19	0.000582
3616.84	0.001758
3626.48	0.0013166
3636.13	0.0011182
3645.77	0.0011375
3655.42	0.0006698
3665.06	0.000613
3674.71	0.0010776
3684.35	0.001611
3694	0.0012737
3703.64	0.00079265
3713.29	0.00061
3722.93	0.0008274
3732.58	0.0013571
3742.22	0.0006891
3751.86	0.0013125
3761.51	0.001167
3771.15	0.0010667
3780.8	7.1e-05
3790.44	0.000336
3800.09	0.000436
3809.73	0.0008625
3819.38	0.0006839
3829.02	0.0012297
3838.67	0.00075089
3848.31	0.0012988
3857.96	0.0012042
3867.6	0.0006556
3877.25	0.0010214
3886.89	0.00080138
3896.54	0.000653
3906.18	0.00071294
3915.83	0.0010625
3925.47	0.0010165
3935.12	0.0007809
3944.76	2.9e-05
3954.41	0.0014655
3964.05	0.000613
3973.69	0.000552
3983.34	0.0011336
3992.98	0.0014368
