Infrared Spectrum: .alpha.-Chlorophenylacetyl chloride
Formula: C 8 H 6 Cl 2 O
CAS: 2912-62-1
State: gas
Origin: EPA-IR VAPOR PHASE LIBRARY
1/CM	ABSORBANCE
549.8	0.007428
559.445	0.008278
569.09	0.014468
578.734	0.025978
588.379	0.036128
598.024	0.034838
607.669	0.022488
617.313	0.015888
626.958	0.013668
636.603	0.013318
646.248	0.017208
655.893	0.019828
665.537	0.017668
675.182	0.021928
684.827	0.037518
694.472	0.062188
704.116	0.116498
713.761	0.185878
723.406	0.123128
733.051	0.039238
742.695	0.030978
752.34	0.034878
761.985	0.035058
771.63	0.030948
781.275	0.029648
790.919	0.038538
800.564	0.037518
810.209	0.024588
819.854	0.015758
829.498	0.013558
839.143	0.018428
848.788	0.019788
858.433	0.011808
868.078	0.006608
877.722	0.005208
887.367	0.005408
897.012	0.006178
906.657	0.008098
916.301	0.008528
925.946	0.006778
935.591	0.008288
945.236	0.011908
954.88	0.018418
964.525	0.037118
974.17	0.067418
983.815	0.067888
993.46	0.034168
1003.1	0.021608
1012.75	0.019188
1022.39	0.018838
1032.04	0.026328
1041.68	0.032238
1051.33	0.033808
1060.97	0.026138
1070.62	0.016378
1080.26	0.009908
1089.91	0.007408
1099.55	0.005988
1109.2	0.004308
1118.84	0.002078
1128.49	0.002218
1138.13	0.002468
1147.78	0.003688
1157.42	0.004318
1167.07	0.005568
1176.71	0.007568
1186.36	0.007878
1196	0.006558
1205.64	0.009288
1215.29	0.012828
1224.93	0.010608
1234.58	0.007878
1244.22	0.006018
1253.87	0.006218
1263.51	0.005308
1273.16	0.004088
1282.8	0.003758
1292.45	0.003638
1302.09	0.003118
1311.74	0.002958
1321.38	0.003278
1331.03	0.003988
1340.67	0.004278
1350.32	0.002748
1359.96	0.001618
1369.61	0.001518
1379.25	0.001608
1388.9	0.001288
1398.54	0.0010537
1408.18	0.001188
1417.83	0.001878
1427.47	0.002718
1437.12	0.004478
1446.76	0.009668
1456.41	0.013608
1466.05	0.007258
1475.7	0.004438
1485.34	0.008578
1494.99	0.015478
1504.63	0.010118
1514.28	0.002728
1523.92	0.001698
1533.57	0.001458
1543.21	0.001378
1552.86	0.001188
1562.5	0.001218
1572.15	0.001868
1581.79	0.003278
1591.44	0.004828
1601.08	0.004238
1610.73	0.002618
1620.37	0.001838
1630.01	0.001758
1639.66	0.001548
1649.3	0.001548
1658.95	0.001568
1668.59	0.001698
1678.24	0.001918
1687.88	0.002288
1697.53	0.002498
1707.17	0.002958
1716.82	0.003918
1726.46	0.005658
1736.11	0.008468
1745.75	0.011808
1755.4	0.015518
1765.04	0.027658
1774.69	0.062718
1784.33	0.096088
1793.98	0.080638
1803.62	0.083318
1813.27	0.125148
1822.91	0.126028
1832.55	0.058158
1842.2	0.021868
1851.84	0.013898
1861.49	0.010148
1871.13	0.008308
1880.78	0.007038
1890.42	0.006118
1900.07	0.004908
1909.71	0.003588
1919.36	0.003488
1929	0.003998
1938.65	0.005428
1948.29	0.006548
1957.94	0.005978
1967.58	0.004608
1977.23	0.002678
1986.87	0.001808
1996.52	0.001518
2006.16	0.001428
2015.81	0.001168
2025.45	0.0011241
2035.1	0.0010102
2044.74	0.001208
2054.38	0.001788
2064.03	0.002588
2073.67	0.003568
2083.32	0.005008
2092.96	0.007838
2102.61	0.014378
2112.25	0.029058
2121.9	0.054518
2131.54	0.063228
2141.19	0.035458
2150.83	0.008698
2160.48	0.003348
2170.12	0.001838
2179.77	0.001328
2189.41	0.0010362
2199.06	0.0007819
2208.7	0.0008539
2218.35	0.0008364
2227.99	0.0009346
2237.64	0.000965
2247.28	0.0010845
2256.92	0.0009803
2266.57	0.0011003
2276.21	0.0010676
2285.86	0.0010645
2295.5	0.001218
2305.15	0.001518
2314.79	0.002198
2324.44	0.002518
2334.08	0.002268
2343.73	0.002268
2353.37	0.002408
2363.02	0.003158
2372.66	0.002368
2382.31	0.001268
2391.95	0.0007556
2401.6	0.0006768
2411.24	0.000619
2420.89	0.0007038
2430.53	0.0007005
2440.18	0.000732
2449.82	0.000617
2459.47	0.0005502
2469.11	0.0006954
2478.75	0.0008304
2488.4	0.0007274
2498.04	0.0008406
2507.69	0.0007836
2517.33	0.0008644
2526.98	0.0007903
2536.62	0.000869
2546.27	0.0009208
2555.91	0.0008649
2565.56	0.0006349
2575.2	0.0007072
2584.85	0.0006967
2594.49	0.0007607
2604.14	0.0007174
2613.78	0.0005584
2623.43	0.0006986
2633.07	0.0006641
2642.72	0.0005928
2652.36	0.0007711
2662.01	0.0005355
2671.65	0.0005476
2681.29	0.0005572
2690.94	0.0004754
2700.58	0.0009013
2710.23	0.0003583
2719.87	0.0006243
2729.52	0.0008841
2739.16	0.000527
2748.81	0.0011246
2758.45	0.0007435
2768.1	0.0008458
2777.74	0.001388
2787.39	0.000983
2797.03	0.002048
2806.68	0.0008878
2816.32	0.0008488
2825.97	0.0008272
2835.61	0.0007184
2845.26	0.001138
2854.9	0.0006954
2864.55	0.001208
2874.19	0.0008142
2883.84	0.0008757
2893.48	0.0007837
2903.12	0.001368
2912.77	0.0010674
2922.41	0.001428
2932.06	0.001218
2941.7	0.001928
2951.35	0.001408
2960.99	0.002488
2970.64	0.002118
2980.28	0.004268
2989.93	0.002338
2999.57	0.002388
3009.22	0.002708
3018.86	0.004918
3028.51	0.011178
3038.15	0.016408
3047.8	0.013668
3057.44	0.012068
3067.09	0.019978
3076.73	0.026088
3086.38	0.018388
3096.02	0.012688
3105.67	0.008798
3115.31	0.005028
3124.95	0.002658
3134.6	0.001288
3144.24	0.0009514
3153.89	0.0009244
3163.53	0.0006889
3173.18	0.0010119
3182.82	0.000863
3192.47	0.0005036
3202.11	0.0004819
3211.76	0.0005551
3221.4	0.0004348
3231.05	0.0004434
3240.69	0.0004177
3250.34	0.0003365
3259.98	0.0002647
3269.63	0.0005195
3279.27	0.0006888
3288.92	0.0005245
3298.56	0.0004359
3308.21	0.0005081
3317.85	0.0003092
3327.49	0.0004723
3337.14	0.0002747
3346.78	0.0003542
3356.43	0.0002909
3366.07	0.0003879
3375.72	0.0001158
3385.36	0.00017986
3395.01	0.0002691
3404.65	0.0004594
3414.3	0.0002938
3423.94	0.0001032
3433.59	0.0003138
3443.23	0.00038
3452.88	0.000353
3462.52	0.0005824
3472.17	0.0005203
3481.81	0.0003836
3491.46	0.0004855
3501.1	0.0002676
3510.75	0.0005359
3520.39	0.0005921
3530.04	0.0009717
3539.68	0.001588
3549.32	0.001808
3558.97	0.001418
3568.61	0.001248
3578.26	0.0010902
3587.9	0.0010523
3597.55	0.001578
3607.19	0.001818
3616.84	0.002118
3626.48	0.002048
3636.13	0.001378
3645.77	0.0009866
3655.42	0.0007621
3665.06	0.0007819
3674.71	0.0004948
3684.35	0.0004733
3694	0.00024
3703.64	0.0003896
3713.29	0.0005267
3722.93	0.0005734
3732.58	0.0005709
3742.22	0.0003673
3751.86	0.000427
3761.51	0.0003097
3771.15	0.0003411
3780.8	0.0003087
3790.44	0.0003446
3800.09	0.00020424
3809.73	0.00020582
3819.38	0.0005147
3829.02	0.0003389
3838.67	5.18e-05
3848.31	0.0003801
3857.96	7.37e-05
3867.6	0.000257
3877.25	0.000236
3886.89	0.0002639
3896.54	0.0004568
3906.18	0.0003529
3915.83	0.0004385
3925.47	0.000346
3935.12	0.00021675
3944.76	0.0001023
3954.41	0.0003314
3964.05	0.00016125
3973.69	8.93e-05
3983.34	0.0001093
3992.98	0.0002476
