Infrared Spectrum: Nonadecylbenzene
Formula: C 25 H 44
CAS: 29136-19-4
State: gas
Instrument: HP-GC/MS/IRD
Origin: NIST Mass Spectrometry Data Center
1/CM	ABSORBANCE
550	0.0002294
562	0.0002294
574	0.0003658
586	0.0002046
598	0.0001116
610	0.0001116
622	6.82e-05
634	3.72e-05
646	0.0001364
658	0.0003162
670	0.0006262
682	0.0013144
694	0.0036332
706	0.0031186
718	0.0026536
730	0.0028706
742	0.0029512
754	0.0015686
766	0.0008122
778	0.0005208
790	0.0003534
802	0.0003348
814	0.0002728
826	0.0001922
838	0.0002232
850	0.0002108
862	0.0001984
874	0.0001984
886	0.0002294
898	0.0002852
910	0.0002914
922	0.000217
934	0.0001922
946	0.000186
958	0.0001612
970	0.0001612
982	0.0001674
994	0.0001612
1006	0.0002294
1018	0.0003782
1030	0.0007068
1042	0.0003472
1054	0.000341
1066	0.0003844
1078	0.000403
1090	0.0003038
1102	0.0003162
1114	0.0002666
1126	0.000217
1138	0.0001612
1150	0.0002108
1162	0.0001922
1174	0.0002542
1186	0.0002728
1198	0.0003348
1210	0.000279
1222	0.0003038
1234	0.0003658
1246	0.0004154
1258	0.0004216
1270	0.0004836
1282	0.0006014
1294	0.0007626
1306	0.0009486
1318	0.000868
1330	0.0009176
1342	0.0014198
1354	0.001736
1366	0.001364
1378	0.0009052
1390	0.0006386
1402	0.0004898
1414	0.0005332
1426	0.0007874
1438	0.001736
1450	0.0036208
1462	0.0043896
1474	0.0024924
1486	0.0015128
1498	0.0019716
1510	0.0006014
1522	0.0003224
1534	0.0002418
1546	0.0001922
1558	0.0001922
1570	0.0002356
1582	0.0003906
1594	0.0006944
1606	0.0008494
1618	0.0002728
1630	0.000124
1642	9.92e-05
1654	8.68e-05
1666	5.58e-05
1678	4.96e-05
1690	4.34e-05
1702	4.34e-05
1714	3.72e-05
1726	5.58e-05
1738	7.44e-05
1750	5.58e-05
1762	3.1e-05
1774	8.06e-05
1786	0.000155
1798	0.0001984
1810	8.68e-05
1822	5.58e-05
1834	4.34e-05
1846	7.44e-05
1858	9.3e-05
1870	0.0001364
1882	0.0001054
1894	4.34e-05
1906	3.72e-05
1918	6.2e-05
1930	0.0001674
1942	0.0001736
1954	0.0001364
1966	2.48e-05
1978	6.2e-06
1990	1.24e-05
2002	6.2e-06
2014	3.72e-05
2026	4.96e-05
2038	7.44e-05
2050	4.96e-05
2062	4.34e-05
2074	3.72e-05
2086	1.24e-05
2098	1.24e-05
2110	2.48e-05
2122	2.48e-05
2134	1.86e-05
2146	6.2e-06
2158	2.48e-05
2170	4.34e-05
2182	4.34e-05
2194	3.1e-05
2206	2.48e-05
2218	3.72e-05
2230	3.72e-05
2242	2.48e-05
2254	3.1e-05
2266	1.86e-05
2278	3.72e-05
2290	3.1e-05
2302	4.96e-05
2314	6.2e-05
2326	4.34e-05
2338	1.24e-05
2350	2.48e-05
2362	3.1e-05
2374	2.48e-05
2386	3.1e-05
2398	3.1e-05
2410	3.72e-05
2422	1.86e-05
2434	1.24e-05
2446	2.48e-05
2458	3.1e-05
2470	2.48e-05
2482	2.48e-05
2494	4.96e-05
2506	6.82e-05
2518	0.0001054
2530	0.0001116
2542	0.0001178
2554	0.0001364
2566	0.000155
2578	0.0002046
2590	0.0001984
2602	0.0002294
2614	0.000279
2626	0.0002976
2638	0.0003596
2650	0.0004092
2662	0.0004712
2674	0.0005084
2686	0.0005456
2698	0.000496
2710	0.0004588
2722	0.0004712
2734	0.0005022
2746	0.000558
2758	0.0006324
2770	0.0007254
2782	0.0009052
2794	0.0011904
2806	0.0015624
2818	0.0021576
2830	0.003131
2842	0.0056048
2854	0.0152458
2866	0.0219666
2878	0.0126914
2890	0.0105896
2902	0.0147002
2914	0.0255626
2926	0.0519932
2938	0.0550312
2950	0.0245892
2962	0.0132432
2974	0.0085312
2986	0.0042594
2998	0.0028396
3010	0.0025048
3022	0.003069
3034	0.003813
3046	0.002263
3058	0.0021948
3070	0.003224
3082	0.0020894
3094	0.001426
3106	0.0009548
3118	0.000558
3130	0.0003472
3142	0.0002728
3154	0.0002294
3166	0.0002046
3178	0.0001798
3190	0.0001302
3202	0.0001116
3214	9.92e-05
3226	5.58e-05
3238	4.34e-05
3250	4.96e-05
3262	8.06e-05
3274	5.58e-05
3286	3.72e-05
3298	3.1e-05
3310	3.72e-05
3322	5.58e-05
3334	1.86e-05
3346	6.2e-06
3358	3.72e-05
3370	4.96e-05
3382	4.34e-05
3394	2.48e-05
3406	3.72e-05
3418	1.86e-05
3430	1.86e-05
3442	3.1e-05
3454	1.86e-05
3466	2.48e-05
3478	1.86e-05
3490	1.86e-05
3502	6.2e-06
3514	3.1e-05
3526	4.96e-05
3538	6.2e-06
3550	1.24e-05
3562	3.72e-05
3574	3.72e-05
3586	5.58e-05
3598	9.3e-05
3610	0.0001054
3622	9.3e-05
3634	0.0001116
3646	0.0001116
3658	0.0001178
3670	9.3e-05
3682	0.0001178
3694	9.3e-05
3706	0.000124
3718	7.44e-05
3730	0.0001302
3742	9.92e-05
3754	8.68e-05
3766	0.0001178
3778	0.000124
3790	7.44e-05
3802	9.92e-05
3814	0.000124
3826	0.0001674
3838	0.0001302
