Infrared Spectrum: Pyrrolidinoacetonitrile
Formula: C 6 H 10 N 2
CAS: 29134-29-0
State: gas
Origin: EPA-IR VAPOR PHASE LIBRARY
1/CM	ABSORBANCE
549.9	0.000278
559.547	0.0005157
569.193	0.00051
578.84	0.00058102
588.486	0.000411
598.133	0.000427
607.779	0.000465
617.426	0.0006851
627.072	0.0008234
636.719	0.0009252
646.365	0.0010471
656.012	0.0012392
665.658	0.001267
675.305	0.0013457
684.951	0.0010861
694.598	0.0010252
704.245	0.0010541
713.891	0.001734
723.538	0.0006999
733.184	0.00066221
742.831	0.00059579
752.477	0.00063043
762.124	0.0007611
771.77	0.000853
781.417	0.0010749
791.063	0.0012094
800.71	0.00137
810.356	0.0015751
820.003	0.001994
829.649	0.002674
839.296	0.004284
848.943	0.006764
858.589	0.009634
868.236	0.011014
877.882	0.009134
887.529	0.006124
897.175	0.004364
906.822	0.003474
916.468	0.002554
926.115	0.002074
935.761	0.001994
945.408	0.002224
955.054	0.002234
964.701	0.002104
974.347	0.002344
983.994	0.002364
993.64	0.002064
1003.29	0.001784
1012.93	0.001934
1022.58	0.002444
1032.23	0.002464
1041.87	0.002114
1051.52	0.001814
1061.17	0.001944
1070.81	0.002284
1080.46	0.002594
1090.11	0.003394
1099.75	0.005024
1109.4	0.008284
1119.05	0.014004
1128.69	0.019944
1138.34	0.021644
1147.99	0.018024
1157.63	0.014084
1167.28	0.011204
1176.92	0.009594
1186.57	0.008964
1196.22	0.008264
1205.86	0.007804
1215.51	0.007394
1225.16	0.006874
1234.8	0.006674
1244.45	0.006744
1254.1	0.006704
1263.74	0.006294
1273.39	0.005954
1283.04	0.005834
1292.68	0.005944
1302.33	0.006524
1311.98	0.009834
1321.62	0.012854
1331.27	0.012524
1340.92	0.010014
1350.56	0.009114
1360.21	0.007894
1369.86	0.005334
1379.5	0.003344
1389.15	0.002214
1398.79	0.001804
1408.44	0.002264
1418.09	0.004014
1427.73	0.005894
1437.38	0.006224
1447.03	0.005194
1456.67	0.005694
1466.32	0.005734
1475.97	0.004744
1485.61	0.003104
1495.26	0.002264
1504.91	0.001644
1514.55	0.0011036
1524.2	0.0007444
1533.85	0.0005685
1543.49	0.0004846
1553.14	0.000376
1562.79	0.000315
1572.43	0.00035
1582.08	0.000328
1591.73	0.000416
1601.37	0.000455
1611.02	0.0005142
1620.67	0.000451
1630.31	0.00046
1639.96	0.000355
1649.6	0.00037
1659.25	0.000318
1668.9	0.000278
1678.54	0.000328
1688.19	0.000292
1697.84	0.000256
1707.48	0.000311
1717.13	0.000303
1726.78	0.000296
1736.42	0.000254
1746.07	0.00028
1755.72	0.000217
1765.36	0.000288
1775.01	0.000287
1784.66	0.000289
1794.3	0.000273
1803.95	0.000315
1813.6	0.000281
1823.24	0.000269
1832.89	0.000256
1842.54	0.000294
1852.18	0.000253
1861.83	0.000268
1871.47	0.000228
1881.12	0.000298
1890.77	0.000325
1900.41	0.000312
1910.06	0.000315
1919.71	0.000317
1929.35	0.00034
1939	0.000312
1948.65	0.000328
1958.29	0.000361
1967.94	0.000447
1977.59	0.000473
1987.23	0.0005553
1996.88	0.0005595
2006.53	0.00060796
2016.17	0.000588917
2025.82	0.000518
2035.47	0.000469
2045.11	0.000467
2054.76	0.000389
2064.41	0.000416
2074.05	0.000434
2083.7	0.000345
2093.35	0.000373
2102.99	0.000413
2112.64	0.000443
2122.28	0.000454
2131.93	0.000405
2141.58	0.000387
2151.22	0.000453
2160.87	0.000424
2170.52	0.000482
2180.16	0.0005294
2189.81	0.0005762
2199.46	0.0005534
2209.1	0.0005582
2218.75	0.0005408
2228.4	0.0005424
2238.04	0.0005204
2247.69	0.0005203
2257.34	0.000478
2266.98	0.00062479
2276.63	0.00061813
2286.28	0.00063218
2295.92	0.00066852
2305.57	0.00061378
2315.22	0.00067106
2324.86	0.0007203
2334.51	0.0006994
2344.16	0.00065887
2353.8	0.0006982
2363.45	0.0006226
2373.09	0.000588205
2382.74	0.0005414
2392.39	0.0005488
2402.03	0.0004938
2411.68	0.0004927
2421.33	0.00041
2430.97	0.0004859
2440.62	0.000443
2450.27	0.000395
2459.91	0.000423
2469.56	0.000405
2479.21	0.000416
2488.85	0.000434
2498.5	0.000475
2508.15	0.000375
2517.79	0.000396
2527.44	0.000364
2537.09	0.000446
2546.73	0.0005269
2556.38	0.0005493
2566.03	0.0006933
2575.67	0.0007888
2585.32	0.0008256
2594.96	0.0008945
2604.61	0.0009918
2614.26	0.0011088
2623.9	0.0012614
2633.55	0.0013298
2643.2	0.0014435
2652.84	0.0015427
2662.49	0.0015394
2672.14	0.001654
2681.78	0.001894
2691.43	0.002284
2701.08	0.002704
2710.72	0.002964
2720.37	0.003264
2730.02	0.003674
2739.66	0.003934
2749.31	0.004424
2758.96	0.005094
2768.6	0.007144
2778.25	0.011444
2787.9	0.018164
2797.54	0.025504
2807.19	0.029654
2816.84	0.029604
2826.48	0.028394
2836.13	0.024954
2845.77	0.019394
2855.42	0.014004
2865.07	0.012074
2874.71	0.014204
2884.36	0.017634
2894.01	0.020244
2903.65	0.022524
2913.3	0.027004
2922.95	0.032714
2932.59	0.037024
2942.24	0.038684
2951.89	0.040704
2961.53	0.046164
2971.18	0.051024
2980.83	0.048394
2990.47	0.030444
3000.12	0.015764
3009.77	0.007854
3019.41	0.004934
3029.06	0.003784
3038.71	0.002924
3048.35	0.002284
3058	0.001744
3067.64	0.0013284
3077.29	0.0011164
3086.94	0.0008977
3096.58	0.0009242
3106.23	0.0008167
3115.88	0.000456
3125.52	0.0005001
3135.17	0.0005329
3144.82	0.000281
3154.46	0.000276
3164.11	0.0005118
3173.76	0.00033
3183.4	0.000474
3193.05	0.000447
3202.7	0.000256
3212.34	0.000196
3221.99	0.000325
3231.64	0.000239
3241.28	0.000266
3250.93	0.000242
3260.58	0.000297
3270.22	0.000185
3279.87	0.00018
3289.52	0.000354
3299.16	0.00018
3308.81	0.000334
3318.45	0.000462
3328.1	0.000273
3337.75	0.000334
3347.39	0.000453
3357.04	5.5e-05
3366.69	0.000137
3376.33	0.000251
3385.98	0.000262
3395.63	0.000123
3405.27	0.000219
3414.92	0.000194
3424.57	0.000322
3434.21	0.000155
3443.86	0.0002
3453.51	0.000129
3463.15	0.000233
3472.8	0.000171
3482.45	0.000298
3492.09	0.000196
3501.74	0.000272
3511.39	0.000252
3521.03	0.000294
3530.68	0.00015
3540.33	0.000355
3549.97	0.000166
3559.62	0.000179
3569.26	0.00013
3578.91	0.000301
3588.56	0.00016
3598.2	0.000287
3607.85	0.000312
3617.5	0.000263
3627.14	9.1e-05
3636.79	0.000246
3646.44	0.000214
3656.08	0.000396
3665.73	0.000376
3675.38	0.000188
3685.02	0.00039
3694.67	0.000197
3704.32	0.000364
3713.96	0.000305
3723.61	0.000297
3733.26	0.000357
3742.9	0.000263
3752.55	0.000393
3762.2	0.000351
3771.84	0.000332
3781.49	0.000343
3791.13	0.000258
3800.78	0.000459
3810.43	0.000406
3820.07	0.000437
3829.72	0.000381
3839.37	0.000333
3849.01	0.000393
3858.66	0.0005164
3868.31	0.000259
3877.95	0.000411
3887.6	0.000383
3897.25	0.0004
3906.89	0.000263
3916.54	0.000367
3926.19	0.00046
3935.83	0.0005648
3945.48	0.00038
3955.13	0.000377
3964.77	0.000465
3974.42	0.000424
3984.07	0.0005616
3993.71	0.000449
