Infrared Spectrum: MALEIC ACID, DILAURYL ESTER
Formula: C28 H52 O4
CAS: 2915-52-8
State: SOLUTION (10% CS2 FOR 5000-2380 AND 1390-625, 10% C2Cl4 FOR 2380-1390 CM^-^1)
Class: COBLENTZ
Instrument: PERKIN-ELMER
Sampling: TRANSMISSION
Path length: 0.01 CM, 0.01 CM
Resolution: 4
Origin: HORMEL INSTITUTE
MICROMETERS	TRANSMITTANCE
2.007	0.918
2.04084	0.916
2.07467	0.92
2.10851	0.918
2.14234	0.916
2.17618	0.918
2.21001	0.92
2.24385	0.916
2.27768	0.905
2.31152	0.888
2.34535	0.884
2.37919	0.886
2.41302	0.886
2.44686	0.889
2.48069	0.894
2.51453	0.898
2.54836	0.9
2.5822	0.903
2.61603	0.906
2.64987	0.908
2.6837	0.908
2.71754	0.908
2.75137	0.908
2.78521	0.906
2.81904	0.908
2.85288	0.91
2.88671	0.908
2.92055	0.889
2.95438	0.905
2.98822	0.911
3.02205	0.911
3.05589	0.908
3.08972	0.911
3.12356	0.911
3.15739	0.903
3.19123	0.901
3.22506	0.891
3.2589	0.876
3.29274	0.859
3.32657	0.815
3.36041	0.527
3.39424	0.242
3.42808	0.044
3.46191	0.152
3.49575	0.227
3.52958	0.357
3.56342	0.742
3.59725	0.822
3.63109	0.844
3.66492	0.85
3.69876	0.859
3.73259	0.859
3.76643	0.859
3.80026	0.871
3.8341	0.879
3.86793	0.886
3.90177	0.891
3.9356	0.894
3.96944	0.894
4.00327	0.9
4.03711	0.903
4.07094	0.905
4.10478	0.903
4.13861	0.901
4.17245	0.898
4.20628	0.898
4.24012	0.901
4.27395	0.906
4.30779	0.911
4.34162	0.915
4.37546	0.92
4.40929	0.918
4.44313	0.92
4.47696	0.918
4.5108	0.918
4.54464	0.915
4.57847	0.913
4.61231	0.913
4.64614	0.913
4.67998	0.911
4.71381	0.911
4.74765	0.913
4.78148	0.913
4.81532	0.911
4.84915	0.91
4.88299	0.91
4.91682	0.908
4.95066	0.908
4.98449	0.911
5.01833	0.913
5.05216	0.91
5.086	0.908
5.11983	0.908
5.15367	0.908
5.1875	0.905
5.22134	0.906
5.25517	0.905
5.28901	0.905
5.32284	0.905
5.35668	0.903
5.39051	0.903
5.42435	0.9
5.45818	0.893
5.49202	0.884
5.52585	0.874
5.55969	0.864
5.59352	0.838
5.62736	0.803
5.66119	0.715
5.69503	0.466
5.72886	0.128
5.7627	0.027
5.79653	0.064
5.83037	0.486
5.86421	0.669
5.89804	0.747
5.93188	0.796
5.96571	0.811
5.99955	0.779
6.03338	0.691
6.06722	0.611
6.10105	0.705
6.13489	0.794
6.16872	0.837
6.20256	0.864
6.23639	0.877
6.27023	0.886
6.30406	0.889
6.3379	0.888
6.37173	0.888
6.40557	0.888
6.4394	0.888
6.47324	0.889
6.50707	0.888
6.54091	0.886
6.57474	0.886
6.60858	0.876
6.64241	0.867
6.67625	0.855
6.71008	0.83
6.74392	0.755
6.77775	0.537
6.81159	0.274
6.84542	0.352
6.87926	0.479
6.91309	0.601
6.94693	0.645
6.98076	0.73
7.0146	0.759
7.04843	0.691
7.08227	0.462
7.11611	0.362
7.14994	0.571
7.18378	0.638
7.21761	0.588
7.25145	0.445
7.28528	0.449
7.31912	0.513
7.35295	0.64
7.38679	0.664
7.42062	0.698
7.45446	0.711
7.48829	0.715
7.52213	0.688
7.55596	0.664
7.5898	0.623
7.62363	0.54
7.65747	0.45
7.6913	0.369
7.72514	0.267
7.75897	0.233
7.79281	0.286
7.82664	0.33
7.86048	0.342
7.89431	0.323
7.92815	0.277
7.96198	0.228
7.99582	0.216
8.02965	0.227
8.06349	0.238
8.09732	0.254
8.13116	0.264
8.16499	0.252
8.19883	0.222
8.23266	0.184
8.2665	0.14
8.30033	0.123
8.33417	0.137
8.36801	0.198
8.40184	0.281
8.43568	0.333
8.46951	0.354
8.50335	0.306
8.53718	0.228
8.57102	0.137
8.60485	0.083
8.63869	0.062
8.67252	0.083
8.70636	0.21
8.74019	0.425
8.77403	0.552
8.80786	0.637
8.8417	0.676
8.87553	0.7
8.90937	0.732
8.9432	0.762
8.97704	0.783
9.01087	0.794
9.04471	0.798
9.07854	0.796
9.11238	0.788
9.14621	0.779
9.18005	0.764
9.21388	0.759
9.24772	0.745
9.28155	0.732
9.31539	0.718
9.34922	0.706
9.38306	0.693
9.41689	0.689
9.45073	0.686
9.48456	0.681
9.5184	0.674
9.55223	0.662
9.58607	0.659
9.61991	0.652
9.65374	0.649
9.68758	0.645
9.72141	0.638
9.75525	0.637
9.78908	0.633
9.82292	0.63
9.85675	0.608
9.89059	0.589
9.92442	0.569
9.95826	0.555
9.99209	0.544
10.0259	0.53
10.0598	0.53
10.0936	0.537
10.1274	0.538
10.1613	0.544
10.1951	0.522
10.2289	0.513
10.2628	0.603
10.2966	0.644
10.3304	0.674
10.3643	0.683
10.3981	0.694
10.4319	0.711
10.4658	0.725
10.4996	0.735
10.5335	0.744
10.5673	0.764
10.6011	0.776
10.635	0.786
10.6688	0.793
10.7026	0.8
10.7365	0.801
10.7703	0.801
10.8041	0.801
10.838	0.8
10.8718	0.798
10.9056	0.798
10.9395	0.798
10.9733	0.794
11.0071	0.793
11.041	0.789
11.0748	0.784
11.1087	0.781
11.1425	0.776
11.1763	0.774
11.2102	0.774
11.244	0.776
11.2778	0.779
11.3117	0.786
11.3455	0.791
11.3793	0.789
11.4132	0.789
11.447	0.788
11.4808	0.788
11.5147	0.789
11.5485	0.786
11.5823	0.781
11.6162	0.779
11.65	0.777
11.6838	0.777
11.7177	0.774
11.7515	0.771
11.7854	0.766
11.8192	0.759
11.853	0.752
11.8869	0.74
11.9207	0.733
11.9545	0.732
11.9884	0.727
12.0222	0.725
12.056	0.723
12.0899	0.722
12.1237	0.716
12.1575	0.708
12.1914	0.7
12.2252	0.693
12.259	0.677
12.2929	0.664
12.3267	0.645
12.3606	0.637
12.3944	0.637
12.4282	0.644
12.4621	0.669
12.4959	0.696
12.5297	0.725
12.5636	0.745
12.5974	0.762
12.6312	0.776
12.6651	0.791
12.6989	0.798
12.7327	0.806
12.7666	0.808
12.8004	0.808
12.8342	0.808
12.8681	0.806
12.9019	0.8
12.9357	0.8
12.9696	0.801
13.0034	0.806
13.0373	0.81
13.0711	0.818
13.1049	0.823
13.1388	0.828
13.1726	0.83
13.2064	0.832
13.2403	0.832
13.2741	0.83
13.3079	0.832
13.3418	0.832
13.3756	0.83
13.4094	0.825
13.4433	0.822
13.4771	0.818
13.5109	0.813
13.5448	0.806
13.5786	0.798
13.6125	0.791
13.6463	0.783
13.6801	0.774
13.714	0.761
13.7478	0.747
13.7816	0.732
13.8155	0.713
13.8493	0.693
13.8831	0.669
13.917	0.664
13.9508	0.683
13.9846	0.71
14.0185	0.747
14.0523	0.767
14.0861	0.786
14.12	0.801
14.1538	0.815
14.1876	0.83
14.2215	0.837
14.2553	0.85
14.2892	0.854
14.323	0.859
14.3568	0.866
14.3907	0.871
14.4245	0.879
14.4583	0.881
14.4922	0.883
14.526	0.889
14.5598	0.889
14.5937	0.891
14.6275	0.891
14.6613	0.891
14.6952	0.891
14.729	0.888
14.7628	0.881
14.7967	0.881
14.8305	0.877
14.8644	0.881
14.8982	0.881
14.932	0.869
14.9659	0.861
14.9997	0.864
15.0335	0.888
15.0674	0.891
15.1012	0.888
15.135	0.888
