Infrared Spectrum: 4-Cyclohexene-1,2-dicarboxylic acid, di(2-ethylhexyl) ester
Formula: C24 H42 O4
CAS: 2915-49-3
State: SOLUTION (10% CCl4 FOR 2.7-7.5, 10% CS2 FOR 7.5-26 MICRON) VS SOLVENT
Class: COBLENTZ III
Instrument: DOW FOREPRISM-GRATING
Instrument parameters: BLAZED AT 3.5, 12.0, 20.0 MICRON AND CHANGED AT 5.0, 7.5, 14.9 MICRON
Sampling: TRANSMISSION
Path length: 0.011 CM, 0.011 CM
Resolution: 2
Origin: DOW CHEMICAL COMPANY
1/CM	TRANSMITTANCE
396	0.8405
405	0.8427
414	0.8423
423	0.8401
432	0.8388
441	0.8387
450	0.8381
459	0.837
468	0.8358
477	0.8343
486	0.8357
495	0.8355
504	0.8344
513	0.8311
522	0.8349
531	0.8503
540	0.8569
549	0.8648
558	0.8669
567	0.8697
576	0.871
585	0.869
594	0.8636
603	0.854
612	0.8394
621	0.8122
630	0.7646
639	0.6844
648	0.4608
657	0.3816
666	0.7519
675	0.8223
684	0.866
693	0.8734
702	0.869
711	0.8392
720	0.7393
729	0.779
738	0.8582
747	0.8623
756	0.8173
765	0.7592
774	0.7652
783	0.7908
792	0.818
801	0.8361
810	0.847
819	0.8454
828	0.8516
837	0.8703
846	0.8689
855	0.8519
864	0.8319
873	0.8199
882	0.7886
891	0.7419
900	0.6873
909	0.691
918	0.6652
927	0.6234
936	0.6159
945	0.591
954	0.6039
963	0.6771
972	0.665
981	0.6535
990	0.6183
999	0.5745
1008	0.4311
1017	0.349
1026	0.3157
1035	0.4765
1044	0.6735
1053	0.6675
1062	0.7367
1071	0.7511
1080	0.7623
1089	0.7718
1098	0.7468
1107	0.5903
1116	0.6803
1125	0.6806
1134	0.5821
1143	0.4532
1152	0.1818
1161	0.1719
1170	0.0899
1179	0.035
1188	0.0402
1197	0.0933
1206	0.1581
1215	0.166
1224	0.1984
1233	0.1736
1242	0.2208
1251	0.3162
1260	0.4117
1269	0.4132
1278	0.2969
1287	0.3051
1296	0.3889
1305	0.5767
1314	0.6799
1323	0.6243
1332	0.5325
1341	0.5535
1350	0.4568
1359	0.5352
1368	0.5577
1377	0.4004
1386	0.4727
1395	0.5763
1404	0.7183
1413	0.7168
1422	0.7016
1431	0.5005
1440	0.4555
1449	0.4028
1458	0.2449
1467	0.2647
1476	0.7016
1485	0.7972
1494	0.8224
1503	0.839
1512	0.8521
1521	0.8604
1530	0.8664
1539	0.8695
1548	0.8697
1557	0.8674
1566	0.8653
1575	0.8666
1584	0.8636
1593	0.8565
1602	0.8482
1611	0.8415
1620	0.8373
1629	0.8366
1638	0.8231
1647	0.742
1656	0.7965
1665	0.7857
1674	0.7457
1683	0.6666
1692	0.527
1701	0.3494
1710	0.1654
1719	0.0075
1728	0.008
1737	0.0535
1746	0.3565
1755	0.668
1764	0.7474
1773	0.7934
1782	0.8168
1791	0.8308
1800	0.8435
1809	0.8527
1818	0.8599
1827	0.865
1836	0.8683
1845	0.8716
1854	0.8744
1863	0.8762
1872	0.8772
1881	0.878
1890	0.8777
1899	0.8776
1908	0.8789
1917	0.88
1926	0.8809
1935	0.8825
1944	0.8846
1953	0.8856
1962	0.8842
1971	0.882
1980	0.8809
1989	0.8816
1998	0.8806
2007	0.8798
2016	0.8793
2025	0.8791
2034	0.8823
2043	0.8803
2052	0.8808
2061	0.8809
2070	0.8816
2079	0.8822
2088	0.8829
2097	0.8835
2106	0.8842
2115	0.8845
2124	0.8837
2133	0.8836
2142	0.8838
2151	0.8843
2160	0.8859
2169	0.8908
2178	0.8853
2187	0.8842
2196	0.8842
2205	0.8835
2214	0.8825
2223	0.8814
2232	0.8804
2241	0.8794
2250	0.8785
2259	0.8777
2268	0.8768
2277	0.8759
2286	0.8749
2295	0.8742
2304	0.8743
2313	0.8743
2322	0.874
2331	0.8733
2340	0.8726
2349	0.8718
2358	0.8711
2367	0.8704
2376	0.8699
2385	0.8701
2394	0.8704
2403	0.8719
2412	0.8734
2421	0.8742
2430	0.8745
2439	0.8739
2448	0.8725
2457	0.8706
2466	0.8687
2475	0.8661
2484	0.8634
2493	0.8608
2502	0.8583
2511	0.8558
2520	0.853
2529	0.8499
2538	0.8468
2547	0.8434
2556	0.8397
2565	0.836
2574	0.8339
2583	0.8318
2592	0.8307
2601	0.8302
2610	0.8296
2619	0.8282
2628	0.8262
2637	0.8239
2646	0.8217
2655	0.821
2664	0.8224
2673	0.8211
2682	0.8172
2691	0.8119
2700	0.8068
2709	0.8023
2718	0.8021
2727	0.805
2736	0.8083
2745	0.8074
2754	0.8025
2763	0.7959
2772	0.7885
2781	0.78
2790	0.766
2799	0.7484
2808	0.7231
2817	0.6845
2826	0.6133
2835	0.475
2844	0.2909
2853	0.1214
2862	0.1754
2871	0.1281
2880	0.2441
2889	0.1879
2898	0.1623
2907	0.071
2916	0.0302
2925	0.0295
2934	0.077
2943	0.067
2952	0.0252
2961	0.0302
2970	0.1869
2979	0.3735
2988	0.5601
2997	0.6877
3006	0.6837
3015	0.6119
3024	0.4919
3033	0.7071
3042	0.7767
3051	0.7849
3060	0.7939
3069	0.8083
3078	0.8175
3087	0.8239
3096	0.8285
3105	0.8325
3114	0.8359
3123	0.8391
3132	0.8421
3141	0.845
3150	0.8478
3159	0.8506
3168	0.8534
3177	0.8563
3186	0.8592
3195	0.8621
3204	0.865
3213	0.8678
3222	0.87
3231	0.8721
3240	0.8739
3249	0.8753
3258	0.8761
3267	0.8765
3276	0.877
3285	0.8779
3294	0.879
3303	0.8801
3312	0.8819
3321	0.8838
3330	0.8857
3339	0.8875
3348	0.8892
3357	0.889
3366	0.8888
3375	0.8881
3384	0.8867
3393	0.8832
3402	0.8786
3411	0.8732
3420	0.87
3429	0.8699
3438	0.8726
3447	0.8791
3456	0.8837
3465	0.884
3474	0.8833
3483	0.8818
3492	0.8798
3501	0.8785
3510	0.8782
3519	0.878
3528	0.878
3537	0.8785
3546	0.8791
3555	0.88
3564	0.8801
3573	0.8795
3582	0.8783
3591	0.8761
3600	0.8736
3609	0.8719
3618	0.8708
3627	0.8699
3636	0.8695
3645	0.8692
3654	0.869
3663	0.8687
3672	0.8709
3681	0.8738
3690	0.875
3699	0.875
3708	0.8744
3717	0.8737
3726	0.873
3735	0.8723
3744	0.8719
3753	0.8718
3762	0.8716
3771	0.8715
3780	0.8714
3789	0.8707
