Infrared Spectrum: 1H-1,2,3-TRIAZOLE, 4-AMIDINO-5-AMINO-, HYDROCHLORIDE
Formula: C3 H7 Cl N6
CAS: 2916-95-2
State: SOLID (1 mg / 650 mg KBr DISC)
Class: COBLENTZ III
Instrument: PERKIN-ELMER 521 (GRATING)
Instrument parameters: FILTERS AT 3150, 2500, 2000, 1150, 700, 410 CM ^-^1, GRATING CHANGES AT 2000, 630 CM^-^1
Sampling: TRANSMISSION
Resolution: 4
Origin: SOUTHERN RES. INSTITUTE
1/CM	TRANSMITTANCE
244.197	0.283
253.32	0.311
262.443	0.351
271.566	0.413
280.69	0.472
289.813	0.515
298.936	0.548
308.059	0.573
317.182	0.594
326.305	0.627
335.429	0.64
344.552	0.644
353.675	0.643
362.798	0.642
371.921	0.668
381.044	0.674
390.168	0.675
399.291	0.674
408.414	0.671
417.537	0.663
426.66	0.619
435.783	0.633
444.907	0.679
454.03	0.682
463.153	0.656
472.276	0.609
481.399	0.561
490.522	0.527
499.646	0.529
508.769	0.55
517.892	0.574
527.015	0.6
536.138	0.604
545.261	0.602
554.385	0.63
563.508	0.644
572.631	0.644
581.754	0.63
590.877	0.604
600	0.571
609.124	0.541
618.247	0.52
627.37	0.52
636.493	0.538
645.616	0.539
654.739	0.538
663.862	0.565
672.986	0.646
682.109	0.699
691.232	0.717
700.355	0.716
709.478	0.717
718.601	0.716
727.725	0.716
736.848	0.721
745.971	0.723
755.094	0.696
764.217	0.72
773.34	0.791
782.464	0.821
791.587	0.843
800.71	0.859
809.833	0.867
818.956	0.876
828.079	0.886
837.203	0.889
846.326	0.889
855.449	0.889
864.572	0.888
873.695	0.886
882.818	0.885
891.942	0.883
901.065	0.881
910.188	0.88
919.311	0.878
928.434	0.875
937.557	0.87
946.681	0.864
955.804	0.852
964.927	0.84
974.05	0.81
983.173	0.638
992.296	0.494
1001.42	0.674
1010.54	0.809
1019.67	0.793
1028.79	0.777
1037.91	0.76
1047.04	0.715
1056.16	0.698
1065.28	0.685
1074.4	0.712
1083.53	0.745
1092.65	0.769
1101.77	0.777
1110.9	0.785
1120.02	0.788
1129.14	0.795
1138.27	0.801
1147.39	0.792
1156.51	0.778
1165.64	0.776
1174.76	0.774
1183.88	0.772
1193.01	0.768
1202.13	0.753
1211.25	0.741
1220.38	0.728
1229.5	0.719
1238.62	0.722
1247.74	0.698
1256.87	0.708
1265.99	0.681
1275.11	0.562
1284.24	0.6
1293.36	0.692
1302.48	0.776
1311.61	0.791
1320.73	0.791
1329.85	0.791
1338.98	0.783
1348.1	0.779
1357.22	0.776
1366.35	0.77
1375.47	0.757
1384.59	0.734
1393.72	0.712
1402.84	0.744
1411.96	0.776
1421.09	0.776
1430.21	0.774
1439.33	0.764
1448.45	0.752
1457.58	0.776
1466.7	0.776
1475.82	0.775
1484.95	0.769
1494.07	0.758
1503.19	0.743
1512.32	0.723
1521.44	0.682
1530.56	0.672
1539.69	0.663
1548.81	0.624
1557.93	0.574
1567.06	0.39
1576.18	0.258
1585.3	0.324
1594.43	0.406
1603.55	0.52
1612.67	0.602
1621.79	0.528
1630.92	0.468
1640.04	0.486
1649.16	0.365
1658.29	0.212
1667.41	0.153
1676.53	0.185
1685.66	0.309
1694.78	0.46
1703.9	0.637
1713.03	0.732
1722.15	0.8
1731.27	0.844
1740.4	0.871
1749.52	0.887
1758.64	0.902
1767.77	0.909
1776.89	0.921
1786.01	0.925
1795.13	0.929
1804.26	0.933
1813.38	0.935
1822.5	0.935
1831.63	0.933
1840.75	0.932
1849.87	0.931
1859	0.93
1868.12	0.928
1877.24	0.926
1886.37	0.924
1895.49	0.922
1904.61	0.92
1913.74	0.917
1922.86	0.914
1931.98	0.912
1941.11	0.91
1950.23	0.908
1959.35	0.905
1968.47	0.902
1977.6	0.899
1986.72	0.896
1995.84	0.895
2004.97	0.895
2014.09	0.894
2023.21	0.893
2032.34	0.892
2041.46	0.891
2050.58	0.889
2059.71	0.888
2068.83	0.887
2077.95	0.886
2087.08	0.883
2096.2	0.88
2105.32	0.876
2114.45	0.874
2123.57	0.873
2132.69	0.872
2141.81	0.87
2150.94	0.868
2160.06	0.867
2169.18	0.865
2178.31	0.865
2187.43	0.866
2196.55	0.867
2205.68	0.867
2214.8	0.866
2223.92	0.862
2233.05	0.859
2242.17	0.855
2251.29	0.854
2260.42	0.851
2269.54	0.848
2278.66	0.846
2287.79	0.844
2296.91	0.842
2306.03	0.835
2315.15	0.83
2324.28	0.828
2333.4	0.828
2342.52	0.826
2351.65	0.824
2360.77	0.824
2369.89	0.826
2379.02	0.827
2388.14	0.827
2397.26	0.826
2406.39	0.824
2415.51	0.822
2424.63	0.818
2433.76	0.815
2442.88	0.813
2452	0.811
2461.13	0.808
2470.25	0.806
2479.37	0.804
2488.5	0.8
2497.62	0.796
2506.74	0.794
2515.86	0.791
2524.99	0.789
2534.11	0.785
2543.23	0.782
2552.36	0.779
2561.48	0.775
2570.6	0.772
2579.73	0.77
2588.85	0.767
2597.97	0.766
2607.1	0.759
2616.22	0.753
2625.34	0.743
2634.47	0.738
2643.59	0.734
2652.71	0.729
2661.84	0.718
2670.96	0.708
2680.08	0.704
2689.2	0.697
2698.33	0.694
2707.45	0.69
2716.57	0.687
2725.7	0.685
2734.82	0.684
2743.94	0.682
2753.07	0.68
2762.19	0.665
2771.31	0.653
2780.44	0.647
2789.56	0.652
2798.68	0.66
2807.81	0.659
2816.93	0.653
2826.05	0.649
2835.18	0.64
2844.3	0.625
2853.42	0.616
2862.54	0.611
2871.67	0.598
2880.79	0.587
2889.91	0.576
2899.04	0.571
2908.16	0.558
2917.28	0.548
2926.41	0.544
2935.53	0.54
2944.65	0.533
2953.78	0.522
2962.9	0.498
2972.02	0.492
2981.15	0.486
2990.27	0.487
2999.39	0.489
3008.52	0.482
3017.64	0.465
3026.76	0.445
3035.88	0.428
3045.01	0.414
3054.13	0.392
3063.25	0.372
3072.38	0.357
3081.5	0.347
3090.62	0.33
3099.75	0.309
3108.87	0.288
3117.99	0.273
3127.12	0.267
3136.24	0.249
3145.36	0.247
3154.49	0.269
3163.61	0.292
3172.73	0.296
3181.86	0.295
3190.98	0.284
3200.1	0.271
3209.22	0.269
3218.35	0.303
3227.47	0.348
3236.59	0.386
3245.72	0.387
3254.84	0.379
3263.96	0.363
3273.09	0.353
3282.21	0.338
3291.33	0.314
3300.46	0.304
3309.58	0.301
3318.7	0.301
3327.83	0.297
3336.95	0.279
3346.07	0.259
3355.2	0.246
3364.32	0.242
3373.44	0.243
3382.57	0.251
3391.69	0.28
3400.81	0.334
3409.93	0.388
3419.06	0.417
3428.18	0.451
3437.3	0.485
3446.43	0.529
3455.55	0.561
3464.67	0.59
3473.8	0.614
3482.92	0.637
3492.04	0.658
3501.17	0.671
3510.29	0.691
3519.41	0.699
3528.54	0.71
3537.66	0.726
3546.78	0.741
3555.91	0.757
3565.03	0.769
3574.15	0.782
3583.27	0.798
3592.4	0.807
3601.52	0.829
3610.64	0.839
3619.77	0.851
3628.89	0.858
3638.01	0.867
3647.14	0.87
3656.26	0.872
3665.38	0.87
3674.51	0.869
3683.63	0.871
3692.75	0.873
3701.88	0.873
3711	0.871
3720.12	0.869
3729.25	0.867
3738.37	0.865
3747.49	0.864
3756.61	0.864
3765.74	0.864
3774.86	0.863
3783.98	0.862
3793.11	0.86
