Infrared Spectrum: Trimethyl-2-hydroxyethylsilane
Formula: C5 H14 O Si
CAS: 2916-68-9
State: SOLUTION (10% CCl4 FOR 3800-1300, 2% CS2 FOR 1300-650, AND 10% CCl4 FOR 650-250) VS SOLVENT
Boiling point: 127 C
Class: COBLENTZ III
Instrument: PERKIN-ELMER 521 (GRATING)
Instrument parameters: FILTERS AT 3150, 2500, 2000, 1150, 700, 410. GRATING CHANGES: 2000, 630
Path length: 0.012 CM, 0.011 CM, AND 0.010 CM
Resolution: 2
Origin: DOW CORNING CORP.
1/CM	TRANSMITTANCE
243	0.6758
251.957	0.6907
260.913	0.7215
269.87	0.7427
278.827	0.7478
287.783	0.752
296.74	0.7682
305.697	0.7977
314.654	0.8227
323.61	0.8452
332.567	0.859
341.524	0.8695
350.48	0.8684
359.437	0.8552
368.394	0.7817
377.35	0.6679
386.307	0.7345
395.264	0.7969
404.221	0.8438
413.177	0.8838
422.134	0.8846
431.091	0.8768
440.047	0.8686
449.004	0.8506
457.961	0.8256
466.917	0.8228
475.874	0.8269
484.831	0.8252
493.788	0.8118
502.744	0.8056
511.701	0.797
520.658	0.7833
529.614	0.7742
538.571	0.7678
547.528	0.7628
556.484	0.7615
565.441	0.7538
574.398	0.7526
583.355	0.7526
592.311	0.7413
601.268	0.6742
610.225	0.5925
619.181	0.7379
628.138	0.7544
637.095	0.7421
646.051	0.7367
655.008	0.8213
663.965	0.7764
672.921	0.8469
681.878	0.8031
690.835	0.6238
699.792	0.7194
708.748	0.8341
717.705	0.8506
726.662	0.848
735.618	0.8307
744.575	0.7757
753.532	0.7035
762.488	0.6425
771.445	0.7914
780.402	0.8293
789.359	0.8288
798.315	0.8177
807.272	0.7691
816.229	0.6772
825.185	0.3858
834.142	0.1166
843.099	0.2475
852.055	0.2238
861.012	0.2579
869.969	0.546
878.926	0.7281
887.882	0.8055
896.839	0.8391
905.796	0.8354
914.752	0.785
923.709	0.6205
932.666	0.5729
941.622	0.7642
950.579	0.7738
959.536	0.758
968.492	0.7324
977.449	0.6706
986.406	0.7161
995.363	0.7585
1004.32	0.7633
1013.28	0.7029
1022.23	0.6348
1031.19	0.4734
1040.15	0.5011
1049.1	0.57
1058.06	0.7369
1067.02	0.7898
1075.97	0.7939
1084.93	0.8134
1093.89	0.8336
1102.84	0.8314
1111.8	0.8213
1120.76	0.8154
1129.71	0.8288
1138.67	0.8292
1147.63	0.8178
1156.58	0.7807
1165.54	0.7439
1174.5	0.7592
1183.45	0.8357
1192.41	0.8599
1201.37	0.8663
1210.32	0.8646
1219.28	0.8428
1228.24	0.7941
1237.19	0.5864
1246.15	0.1729
1255.11	0.5782
1264.06	0.7605
1273.02	0.7971
1281.98	0.8297
1290.93	0.8325
1299.89	0.5638
1308.85	0.5975
1317.8	0.627
1326.76	0.6446
1335.72	0.6529
1344.67	0.6537
1353.63	0.6315
1362.59	0.5883
1371.54	0.5255
1380.5	0.4738
1389.46	0.4614
1398.41	0.4272
1407.37	0.3994
1416.33	0.3961
1425.28	0.4759
1434.24	0.5653
1443.2	0.6009
1452.15	0.6703
1461.11	0.7061
1470.07	0.7231
1479.02	0.769
1487.98	0.8161
1496.94	0.8371
1505.89	0.8426
1514.85	0.8533
1523.81	0.8623
1532.76	0.8681
1541.72	0.8715
1550.68	0.8703
1559.63	0.8761
1568.59	0.884
1577.55	0.8841
1586.5	0.8926
1595.46	0.8964
1604.42	0.8968
1613.37	0.8976
1622.33	0.897
1631.29	0.8954
1640.24	0.9013
1649.2	0.9061
1658.16	0.9075
1667.11	0.9083
1676.07	0.9141
1685.03	0.9249
1693.98	0.925
1702.94	0.9249
1711.9	0.9247
1720.86	0.9247
1729.81	0.9252
1738.77	0.9258
1747.73	0.9259
1756.68	0.9261
1765.64	0.9265
1774.6	0.9261
1783.55	0.9256
1792.51	0.9258
1801.47	0.9257
1810.42	0.9244
1819.38	0.9153
1828.34	0.9095
1837.29	0.9075
1846.25	0.898
1855.21	0.8868
1864.16	0.9015
1873.12	0.9113
1882.08	0.9111
1891.03	0.91
1899.99	0.9068
1908.95	0.904
1917.9	0.9043
1926.86	0.8906
1935.82	0.8713
1944.77	0.8779
1953.73	0.8886
1962.69	0.8984
1971.64	0.9004
1980.6	0.9005
1989.56	0.901
1998.51	0.9005
2007.47	0.8833
2016.43	0.8877
2025.38	0.8919
2034.34	0.9025
2043.3	0.908
2052.25	0.9112
2061.21	0.9122
2070.17	0.9084
2079.12	0.9012
2088.08	0.8949
2097.04	0.8887
2105.99	0.8879
2114.95	0.9033
2123.91	0.9051
2132.86	0.9068
2141.82	0.9089
2150.78	0.9106
2159.73	0.9108
2168.69	0.9108
2177.65	0.9106
2186.6	0.9101
2195.56	0.9094
2204.52	0.9076
2213.47	0.9063
2222.43	0.9068
2231.39	0.9073
2240.34	0.9073
2249.3	0.9073
2258.26	0.9075
2267.21	0.907
2276.17	0.9061
2285.13	0.9055
2294.08	0.9049
2303.04	0.9044
2312	0.905
2320.95	0.906
2329.91	0.9072
2338.87	0.9086
2347.82	0.9097
2356.78	0.9078
2365.74	0.9012
2374.69	0.9018
2383.65	0.9049
2392.61	0.9014
2401.56	0.8996
2410.52	0.8998
2419.48	0.8991
2428.43	0.898
2437.39	0.8956
2446.35	0.895
2455.3	0.8937
2464.26	0.8894
2473.22	0.8831
2482.17	0.876
2491.13	0.8759
2500.09	0.883
2509.04	0.8841
2518	0.8844
2526.96	0.8855
2535.91	0.8844
2544.87	0.878
2553.83	0.8744
2562.78	0.8698
2571.74	0.865
2580.7	0.865
2589.65	0.866
2598.61	0.8643
2607.57	0.8628
2616.52	0.8618
2625.48	0.861
2634.44	0.8578
2643.39	0.8522
2652.35	0.8467
2661.31	0.8459
2670.26	0.844
2679.22	0.8416
2688.18	0.8364
2697.14	0.8221
2706.09	0.8107
2715.05	0.7956
2724.01	0.7871
2732.96	0.7805
2741.92	0.7726
2750.88	0.7636
2759.83	0.7478
2768.79	0.7187
2777.75	0.7019
2786.7	0.6738
2795.66	0.6435
2804.62	0.6213
2813.57	0.6114
2822.53	0.5945
2831.49	0.5773
2840.44	0.5418
2849.4	0.4557
2858.36	0.3751
2867.31	0.2875
2876.27	0.2263
2885.23	0.1695
2894.18	0.1433
2903.14	0.1803
2912.1	0.2119
2921.05	0.1929
2930.01	0.2016
2938.97	0.2182
2947.92	0.1103
2956.88	0.0248
2965.84	0.163
2974.79	0.4213
2983.75	0.5507
2992.71	0.6607
3001.66	0.7201
3010.62	0.7414
3019.58	0.7515
3028.53	0.7566
3037.49	0.756
3046.45	0.7568
3055.4	0.7571
3064.36	0.7568
3073.32	0.7553
3082.27	0.7526
3091.23	0.7475
3100.19	0.7386
3109.14	0.73
3118.1	0.728
3127.06	0.7244
3136.01	0.7106
3144.97	0.6965
3153.93	0.6711
3162.88	0.6518
3171.84	0.6324
3180.8	0.6119
3189.75	0.5872
3198.71	0.5616
3207.67	0.5368
3216.62	0.5157
3225.58	0.4924
3234.54	0.4516
3243.49	0.4187
3252.45	0.393
3261.41	0.3722
3270.36	0.3545
3279.32	0.3375
3288.28	0.3165
3297.23	0.3002
3306.19	0.2882
3315.15	0.2756
3324.1	0.2674
3333.06	0.2592
3342.02	0.2583
3350.97	0.2613
3359.93	0.2661
3368.89	0.276
3377.84	0.2876
3386.8	0.2982
3395.76	0.3121
3404.71	0.3232
3413.67	0.3358
3422.63	0.3508
3431.58	0.3637
3440.54	0.3761
3449.5	0.3949
3458.45	0.4124
3467.41	0.4301
3476.37	0.4474
3485.32	0.4645
3494.28	0.4814
3503.24	0.5084
3512.19	0.5388
3521.15	0.5727
3530.11	0.6107
3539.06	0.653
3548.02	0.7155
3556.98	0.7514
3565.93	0.7752
3574.89	0.7992
3583.85	0.8211
3592.8	0.8149
3601.76	0.8035
3610.72	0.7645
3619.67	0.6568
3628.63	0.5318
3637.59	0.6329
3646.55	0.768
3655.5	0.8371
3664.46	0.8574
3673.42	0.8723
3682.37	0.8797
3691.33	0.8856
3700.29	0.8848
3709.24	0.8813
3718.2	0.8731
3727.16	0.8746
3736.11	0.8782
3745.07	0.8857
3754.03	0.8918
3762.98	0.8941
3771.94	0.8946
3780.9	0.8933
3789.85	0.8893
3798.81	0.8899
