Infrared Spectrum: MALONIC ACID, DIMETHYL-, DIISOBUTYL ESTER
Formula: C13 H24 O4
CAS: 2917-80-8
Class: COBLENTZ
Instrument: Not specified, most likely a prism, grating, or hybrid spectrometer.
Sampling: TRANSMISSION
Path length: SMEAR
Resolution: 4
Origin: TENNESSEE EASTMAN COMPANY, RESEARCH LABORATORIES
MICROMETERS	TRANSMITTANCE
2.049	0.951
2.08892	0.951
2.12884	0.953
2.16876	0.958
2.20868	0.958
2.24859	0.948
2.28851	0.941
2.32843	0.941
2.36835	0.943
2.40827	0.945
2.44819	0.945
2.48811	0.95
2.52803	0.961
2.56794	0.961
2.60786	0.961
2.64778	0.961
2.6877	0.968
2.72762	0.97
2.76754	0.97
2.80746	0.968
2.84738	0.966
2.88729	0.933
2.92721	0.918
2.96713	0.88
3.00705	0.841
3.04697	0.81
3.08689	0.813
3.12681	0.823
3.16673	0.85
3.20664	0.853
3.24656	0.853
3.28648	0.85
3.3264	0.62
3.36632	0.193
3.40624	0.326
3.44616	0.475
3.48608	0.725
3.52599	0.846
3.56591	0.881
3.60583	0.898
3.64575	0.903
3.68567	0.908
3.72559	0.925
3.76551	0.925
3.80543	0.923
3.84534	0.926
3.88526	0.933
3.92518	0.933
3.9651	0.935
4.00502	0.943
4.04494	0.948
4.08486	0.95
4.12478	0.953
4.16469	0.956
4.20461	0.956
4.24453	0.968
4.28445	0.965
4.32437	0.961
4.36429	0.961
4.40421	0.966
4.44413	0.97
4.48404	0.971
4.52396	0.971
4.56388	0.971
4.6038	0.97
4.64372	0.971
4.68364	0.971
4.72356	0.97
4.76348	0.97
4.80339	0.97
4.84331	0.97
4.88323	0.97
4.92315	0.971
4.96307	0.97
5.00299	0.976
5.04291	0.973
5.08283	0.971
5.12274	0.971
5.16266	0.971
5.20258	0.97
5.2425	0.97
5.28242	0.97
5.32234	0.97
5.36226	0.961
5.40218	0.958
5.44209	0.941
5.48201	0.92
5.52193	0.895
5.56185	0.851
5.60177	0.791
5.64169	0.661
5.68161	0.316
5.72153	0.116
5.76144	0.051
5.80136	0.085
5.84128	0.26
5.8812	0.463
5.92112	0.691
5.96104	0.786
6.00096	0.851
6.04088	0.885
6.08079	0.891
6.12071	0.916
6.16063	0.925
6.20055	0.931
6.24047	0.941
6.28039	0.946
6.32031	0.948
6.36023	0.948
6.40014	0.941
6.44006	0.936
6.47998	0.916
6.5199	0.901
6.55982	0.901
6.59974	0.901
6.63966	0.878
6.67958	0.838
6.71949	0.656
6.75941	0.4
6.79933	0.256
6.83925	0.435
6.87917	0.591
6.91909	0.725
6.95901	0.815
6.99893	0.828
7.03884	0.806
7.07876	0.783
7.11868	0.626
7.1586	0.491
7.19852	0.421
7.23844	0.611
7.27836	0.563
7.31828	0.53
7.35819	0.771
7.39811	0.798
7.43803	0.758
7.47795	0.765
7.51787	0.783
7.55779	0.78
7.59771	0.716
7.63763	0.576
7.67755	0.458
7.71746	0.38
7.75738	0.233
7.7973	0.146
7.83722	0.135
7.87714	0.138
7.91706	0.168
7.95698	0.186
7.9969	0.211
8.03681	0.286
8.07673	0.423
8.11665	0.528
8.15657	0.588
8.19649	0.626
8.23641	0.648
8.27633	0.645
8.31625	0.586
8.35616	0.461
8.39608	0.311
8.436	0.205
8.47592	0.166
8.51584	0.13
8.55576	0.12
8.59568	0.133
8.6356	0.183
8.67551	0.201
8.71543	0.185
8.75535	0.135
8.79527	0.095
8.83519	0.088
8.87511	0.095
8.91503	0.245
8.95495	0.448
8.99486	0.566
9.03478	0.67
9.0747	0.731
9.11462	0.788
9.15454	0.823
9.19446	0.85
9.23438	0.855
9.2743	0.861
9.31421	0.87
9.35413	0.883
9.39405	0.89
9.43397	0.893
9.47389	0.898
9.51381	0.9
9.55373	0.901
9.59365	0.901
9.63356	0.885
9.67348	0.846
9.7134	0.741
9.75332	0.596
9.79324	0.641
9.83316	0.73
9.87308	0.713
9.913	0.6
9.95291	0.516
9.99283	0.498
10.0328	0.47
10.0727	0.46
10.1126	0.518
10.1525	0.651
10.1924	0.731
10.2323	0.776
10.2723	0.781
10.3122	0.758
10.3521	0.753
10.392	0.75
10.4319	0.733
10.4719	0.731
10.5118	0.73
10.5517	0.7
10.5916	0.685
10.6315	0.688
10.6715	0.7
10.7114	0.71
10.7513	0.73
10.7912	0.731
10.8311	0.726
10.871	0.718
10.911	0.7
10.9509	0.706
10.9908	0.733
11.0307	0.755
11.0706	0.77
11.1106	0.778
11.1505	0.785
11.1904	0.793
11.2303	0.798
11.2702	0.803
11.3102	0.808
11.3501	0.813
11.39	0.826
11.4299	0.85
11.4698	0.855
11.5097	0.858
11.5497	0.86
11.5896	0.858
11.6295	0.858
11.6694	0.858
11.7093	0.858
11.7493	0.856
11.7892	0.858
11.8291	0.858
11.869	0.858
11.9089	0.858
11.9489	0.86
11.9888	0.861
12.0287	0.856
12.0686	0.85
12.1085	0.848
12.1484	0.848
12.1884	0.848
12.2283	0.851
12.2682	0.86
12.3081	0.861
12.348	0.861
12.388	0.861
12.4279	0.86
12.4678	0.86
12.5077	0.86
12.5476	0.86
12.5876	0.861
12.6275	0.861
12.6674	0.861
12.7073	0.861
12.7472	0.861
12.7871	0.861
12.8271	0.861
12.867	0.861
12.9069	0.863
12.9468	0.861
12.9867	0.863
13.0267	0.863
13.0666	0.861
13.1065	0.858
13.1464	0.853
13.1863	0.851
13.2263	0.853
13.2662	0.855
13.3061	0.863
13.346	0.865
13.3859	0.873
13.4258	0.875
13.4658	0.875
13.5057	0.875
13.5456	0.875
13.5855	0.875
13.6254	0.873
13.6654	0.871
13.7053	0.87
13.7452	0.868
13.7851	0.866
13.825	0.861
13.865	0.858
13.9049	0.856
13.9448	0.853
13.9847	0.851
14.0246	0.848
14.0645	0.843
14.1045	0.838
14.1444	0.825
14.1843	0.808
14.2242	0.8
14.2641	0.791
14.3041	0.783
14.344	0.773
14.3839	0.766
14.4238	0.761
14.4637	0.758
14.5037	0.755
14.5436	0.753
14.5835	0.751
14.6234	0.75
14.6633	0.75
14.7032	0.748
14.7432	0.746
14.7831	0.748
14.823	0.746
14.8629	0.743
14.9028	0.743
14.9428	0.741
14.9827	0.741
15.0226	0.73
15.0625	0.72
15.1024	0.71
15.1424	0.706
15.1823	0.708
15.2222	0.708
15.2621	0.708
15.302	0.708
15.3419	0.706
15.3819	0.706
15.4218	0.705
15.4617	0.705
15.5016	0.703
15.5415	0.703
15.5815	0.703
15.6214	0.703
15.6613	0.703
15.7012	0.703
15.7411	0.703
15.7811	0.703
15.821	0.703
15.8609	0.703
15.9008	0.701
15.9407	0.701
15.9806	0.701
