Infrared Spectrum: PROPYLAMINE, N,N-DIETHYL-2,3-EPOXY-
Formula: C7 H15 N O
CAS: 2917-91-1
State: SOLUTION (10% CCl4 FOR 3800-1330, 10% CS2 FOR 1330-460 CM^-^1)
Class: COBLENTZ III
Instrument: DOW KBr FOREPRISM-GRATING
Instrument parameters: BLAZED AT 3.5, 12.0, 20.0 MICRON AND CHANGED AT 5.0, 7.5, 14.9 MICRON
Sampling: TRANSMISSION
Path length: 0.011 CM, 0.011 CM
Resolution: 2
Origin: DOW CHEMICAL COMPANY
1/CM	TRANSMITTANCE
462	0.694
471	0.6967
480	0.7
489	0.7037
498	0.6898
507	0.7036
516	0.7306
525	0.7258
534	0.715
543	0.7256
552	0.7505
561	0.7782
570	0.7868
579	0.779
588	0.7834
597	0.7896
606	0.7949
615	0.7974
624	0.8003
633	0.8025
642	0.7996
651	0.7769
660	0.7684
669	0.8108
678	0.8715
687	0.8723
696	0.8725
705	0.8725
714	0.8699
723	0.8632
732	0.8203
741	0.7926
750	0.7469
759	0.4896
768	0.4899
777	0.568
786	0.6885
795	0.6675
804	0.5951
813	0.5298
822	0.6028
831	0.4804
840	0.3742
849	0.2035
858	0.4271
867	0.6625
876	0.7234
885	0.7415
894	0.7438
903	0.6878
912	0.4837
921	0.2305
930	0.7022
939	0.8036
948	0.7999
957	0.7556
966	0.681
975	0.5992
984	0.6077
993	0.5764
1002	0.6062
1011	0.7632
1020	0.7858
1029	0.7421
1038	0.6828
1047	0.6419
1056	0.5682
1065	0.2744
1074	0.2808
1083	0.3686
1092	0.384
1101	0.5097
1110	0.5784
1119	0.6465
1128	0.4914
1137	0.5903
1146	0.6395
1155	0.6435
1164	0.7015
1173	0.5985
1182	0.4268
1191	0.607
1200	0.526
1209	0.271
1218	0.5916
1227	0.7522
1236	0.7469
1245	0.5745
1254	0.3868
1263	0.4889
1272	0.6731
1281	0.6307
1290	0.4949
1299	0.4996
1308	0.6246
1317	0.6214
1326	0.5989
1335	0.5871
1344	0.5476
1353	0.4221
1362	0.5105
1371	0.4735
1380	0.324
1389	0.2495
1398	0.5538
1407	0.6706
1416	0.6574
1425	0.6899
1434	0.6318
1443	0.5757
1452	0.416
1461	0.3571
1470	0.3946
1479	0.3932
1488	0.5527
1497	0.72
1506	0.7155
1515	0.6714
1524	0.6272
1533	0.5828
1542	0.5384
1551	0.4938
1560	0.4783
1569	0.5333
1578	0.6137
1587	0.6368
1596	0.6835
1605	0.761
1614	0.7912
1623	0.8106
1632	0.8286
1641	0.8406
1650	0.8415
1659	0.8455
1668	0.8392
1677	0.8484
1686	0.8568
1695	0.8616
1704	0.8666
1713	0.87
1722	0.8703
1731	0.8603
1740	0.8507
1749	0.8515
1758	0.8612
1767	0.8708
1776	0.8788
1785	0.8828
1794	0.8818
1803	0.8796
1812	0.8771
1821	0.875
1830	0.8735
1839	0.8725
1848	0.8721
1857	0.8728
1866	0.8735
1875	0.8742
1884	0.8757
1893	0.8771
1902	0.8785
1911	0.8798
1920	0.8806
1929	0.8808
1938	0.8795
1947	0.8785
1956	0.8808
1965	0.8718
1974	0.8698
1983	0.8698
1992	0.8678
2001	0.8554
2010	0.8916
2019	0.8918
2028	0.8914
2037	0.8907
2046	0.8902
2055	0.8899
2064	0.8898
2073	0.8898
2082	0.8906
2091	0.8912
2100	0.8913
2109	0.8908
2118	0.8903
2127	0.8901
2136	0.8908
2145	0.8912
2154	0.8907
2163	0.8907
2172	0.8909
2181	0.8912
2190	0.8905
2199	0.8894
2208	0.8881
2217	0.8885
2226	0.8892
2235	0.8888
2244	0.8853
2253	0.8789
2262	0.8739
2271	0.8732
2280	0.8775
2289	0.8749
2298	0.8742
2307	0.8765
2316	0.8862
2325	0.9021
2334	0.9035
2343	0.9011
2352	0.8984
2361	0.8938
2370	0.889
2379	0.8889
2388	0.8901
2397	0.8911
2406	0.8921
2415	0.8938
2424	0.8962
2433	0.8985
2442	0.9001
2451	0.9017
2460	0.9027
2469	0.9037
2478	0.9042
2487	0.9044
2496	0.9034
2505	0.9017
2514	0.8984
2523	0.8941
2532	0.8892
2541	0.8841
2550	0.8778
2559	0.8715
2568	0.8655
2577	0.8598
2586	0.8562
2595	0.8528
2604	0.8501
2613	0.8475
2622	0.8448
2631	0.834
2640	0.8213
2649	0.8078
2658	0.7917
2667	0.7756
2676	0.7651
2685	0.7601
2694	0.7587
2703	0.7415
2712	0.6974
2721	0.6543
2730	0.6153
2739	0.5881
2748	0.5925
2757	0.5296
2766	0.4788
2775	0.4674
2784	0.3391
2793	0.2426
2802	0.1461
2811	0.1314
2820	0.1592
2829	0.1835
2838	0.2238
2847	0.3309
2856	0.3974
2865	0.395
2874	0.3262
2883	0.2574
2892	0.3299
2901	0.3007
2910	0.2762
2919	0.2466
2928	0.1306
2937	0.1111
2946	0.1065
2955	0.2012
2964	0.1404
2973	0.0507
2982	0.0149
2991	0.0281
3000	0.1135
3009	0.32
3018	0.5141
3027	0.6216
3036	0.6201
3045	0.5294
3054	0.4483
3063	0.6298
3072	0.7356
3081	0.7785
3090	0.8
3099	0.816
3108	0.8239
3117	0.8275
3126	0.8288
3135	0.8285
3144	0.8274
3153	0.8263
3162	0.8255
3171	0.8252
3180	0.8254
3189	0.8255
3198	0.8257
3207	0.8271
3216	0.8297
3225	0.8314
3234	0.8318
3243	0.8318
3252	0.8307
3261	0.8294
3270	0.8287
3279	0.828
3288	0.8268
3297	0.8258
3306	0.8246
3315	0.8233
3324	0.822
3333	0.8205
3342	0.819
3351	0.8174
3360	0.816
3369	0.8161
3378	0.8165
3387	0.8175
3396	0.8193
3405	0.8209
3414	0.8224
3423	0.8235
3432	0.8247
3441	0.8258
3450	0.8268
3459	0.8278
3468	0.8287
3477	0.8296
3486	0.8307
3495	0.8328
3504	0.8352
3513	0.8374
3522	0.8397
3531	0.842
3540	0.8444
3549	0.8467
3558	0.8502
3567	0.8515
3576	0.8496
3585	0.8553
3594	0.8618
3603	0.8635
3612	0.865
3621	0.8663
3630	0.8677
3639	0.8675
3648	0.8665
3657	0.86
3666	0.8475
3675	0.8416
3684	0.8549
3693	0.8654
3702	0.8693
3711	0.8705
3720	0.8703
3729	0.87
3738	0.8698
3747	0.8682
3756	0.8668
3765	0.8675
3774	0.8686
3783	0.8695
3792	0.8701
