Infrared Spectrum: Trimethyl-3-hydroxypropylsilane
Formula: C6 H16 O Si
CAS: 2917-47-7
State: SOLUTION (10% CCl4 FOR 3800-1300, 2% CS2 FOR 1300-650, AND 10% CCl4 FOR 650-260) VS SOLVENT
Boiling point: 83 C AT 27 mmHg
Class: COBLENTZ III
Instrument: PERKIN-ELMER 521 (GRATING)
Instrument parameters: FILTERS AT 3150, 2500, 2000, 1150, 700, 410. GRATING CHANGES: 2000, 630
Path length: 0.012 CM, 0.010 CM, AND 0.009 CM
Resolution: 2
Origin: DOW CORNING CORP.
1/CM	TRANSMITTANCE
261	0.7086
269.924	0.7096
278.847	0.7094
287.771	0.7115
296.694	0.719
305.618	0.714
314.541	0.7073
323.465	0.7701
332.388	0.8332
341.312	0.8419
350.235	0.844
359.159	0.8449
368.082	0.8542
377.006	0.859
385.929	0.8624
394.853	0.8578
403.777	0.8487
412.7	0.8167
421.624	0.798
430.547	0.7717
439.471	0.7179
448.394	0.7389
457.318	0.7677
466.241	0.7852
475.165	0.7777
484.088	0.7849
493.012	0.7968
501.935	0.7945
510.859	0.7866
519.782	0.7842
528.706	0.7821
537.629	0.7801
546.553	0.776
555.477	0.7706
564.4	0.7621
573.324	0.7518
582.247	0.7459
591.171	0.7003
600.094	0.7002
609.018	0.7212
617.941	0.7216
626.865	0.7175
635.788	0.7048
644.712	0.6783
653.635	0.8708
662.559	0.8723
671.482	0.8694
680.406	0.8432
689.33	0.699
698.253	0.8007
707.177	0.8745
716.1	0.8892
725.024	0.876
733.947	0.8806
742.871	0.7947
751.794	0.7366
760.718	0.7939
769.641	0.853
778.565	0.8728
787.488	0.8794
796.412	0.8641
805.335	0.8451
814.259	0.7741
823.182	0.6583
832.106	0.3394
841.03	0.3393
849.953	0.3718
858.877	0.3641
867.8	0.4226
876.724	0.6086
885.647	0.7772
894.571	0.898
903.494	0.9267
912.418	0.9346
921.341	0.9477
930.265	0.9514
939.188	0.9517
948.112	0.9441
957.035	0.9285
965.959	0.9118
974.883	0.8741
983.806	0.855
992.73	0.8232
1001.65	0.7511
1010.58	0.7272
1019.5	0.7834
1028.42	0.7752
1037.35	0.7226
1046.27	0.6654
1055.19	0.7014
1064.12	0.7773
1073.04	0.8878
1081.96	0.9013
1090.89	0.9122
1099.81	0.92
1108.74	0.9261
1117.66	0.931
1126.58	0.928
1135.51	0.9296
1144.43	0.9268
1153.35	0.9176
1162.28	0.9037
1171.2	0.8964
1180.12	0.9265
1189.05	0.9319
1197.97	0.9253
1206.89	0.9075
1215.82	0.8893
1224.74	0.8483
1233.66	0.7351
1242.59	0.2668
1251.51	0.6759
1260.44	0.8699
1269.36	0.8958
1278.28	0.8927
1287.21	0.8792
1296.13	0.7283
1305.05	0.6323
1313.98	0.6437
1322.9	0.6262
1331.82	0.5898
1340.75	0.5482
1349.67	0.603
1358.59	0.594
1367.52	0.5529
1376.44	0.5096
1385.36	0.5051
1394.29	0.4829
1403.21	0.4182
1412.14	0.3744
1421.06	0.4626
1429.98	0.4597
1438.91	0.5366
1447.83	0.5837
1456.75	0.6281
1465.68	0.6285
1474.6	0.6977
1483.52	0.7861
1492.45	0.8179
1501.37	0.827
1510.29	0.8419
1519.22	0.8588
1528.14	0.8673
1537.07	0.8735
1545.99	0.8792
1554.91	0.8807
1563.84	0.8805
1572.76	0.882
1581.68	0.8833
1590.61	0.8841
1599.53	0.8837
1608.45	0.8834
1617.38	0.8833
1626.3	0.8837
1635.22	0.8852
1644.15	0.8886
1653.07	0.8926
1661.99	0.8965
1670.92	0.8993
1679.84	0.9019
1688.77	0.9018
1697.69	0.9021
1706.61	0.9027
1715.54	0.9045
1724.46	0.9043
1733.38	0.9056
1742.31	0.9078
1751.23	0.9094
1760.15	0.911
1769.08	0.9109
1778	0.9073
1786.92	0.9069
1795.85	0.9072
1804.77	0.9075
1813.69	0.9077
1822.62	0.9067
1831.54	0.9048
1840.47	0.8925
1849.39	0.8879
1858.31	0.8981
1867.24	0.9061
1876.16	0.9049
1885.08	0.8999
1894.01	0.8977
1902.93	0.8992
1911.85	0.8964
1920.78	0.8791
1929.7	0.8663
1938.62	0.8766
1947.55	0.8902
1956.47	0.8982
1965.39	0.9067
1974.32	0.9054
1983.24	0.9063
1992.17	0.9065
2001.09	0.9086
2010.01	0.9101
2018.94	0.9097
2027.86	0.9095
2036.78	0.908
2045.71	0.905
2054.63	0.905
2063.55	0.9105
2072.48	0.9105
2081.4	0.9084
2090.32	0.9068
2099.25	0.911
2108.17	0.9151
2117.09	0.9167
2126.02	0.9189
2134.94	0.9211
2143.87	0.9225
2152.79	0.9227
2161.71	0.922
2170.64	0.921
2179.56	0.9199
2188.48	0.9189
2197.41	0.9178
2206.33	0.9173
2215.25	0.9167
2224.18	0.9184
2233.1	0.9163
2242.02	0.9162
2250.95	0.9161
2259.87	0.916
2268.79	0.9162
2277.72	0.9167
2286.64	0.9172
2295.57	0.9181
2304.49	0.9185
2313.41	0.9183
2322.34	0.9181
2331.26	0.918
2340.18	0.918
2349.11	0.9176
2358.03	0.917
2366.95	0.9164
2375.88	0.9156
2384.8	0.9149
2393.72	0.914
2402.65	0.9131
2411.57	0.9115
2420.49	0.9092
2429.42	0.9064
2438.34	0.9032
2447.27	0.9
2456.19	0.898
2465.11	0.8932
2474.04	0.885
2482.96	0.8876
2491.88	0.8961
2500.81	0.8976
2509.73	0.8969
2518.65	0.8953
2527.58	0.8925
2536.5	0.8893
2545.42	0.8852
2554.35	0.8805
2563.27	0.8768
2572.19	0.8748
2581.12	0.874
2590.04	0.8738
2598.97	0.8745
2607.89	0.8724
2616.81	0.8692
2625.74	0.8647
2634.66	0.8586
2643.58	0.8503
2652.51	0.8457
2661.43	0.8438
2670.35	0.8426
2679.28	0.8402
2688.2	0.834
2697.12	0.8242
2706.05	0.8117
2714.97	0.8044
2723.89	0.797
2732.82	0.7916
2741.74	0.7806
2750.67	0.7719
2759.59	0.7615
2768.51	0.7482
2777.44	0.7216
2786.36	0.6829
2795.28	0.6175
2804.21	0.5968
2813.13	0.5916
2822.05	0.5687
2830.98	0.5045
2839.9	0.4292
2848.82	0.3517
2857.75	0.2811
2866.67	0.161
2875.59	0.1251
2884.52	0.1387
2893.44	0.1505
2902.37	0.1463
2911.29	0.1356
2920.21	0.1043
2929.14	0.0552
2938.06	0.0669
2946.98	0.0595
2955.91	0.0072
2964.83	0.0733
2973.75	0.466
2982.68	0.5692
2991.6	0.6358
3000.52	0.7096
3009.45	0.7306
3018.37	0.7426
3027.29	0.7511
3036.22	0.7532
3045.14	0.7538
3054.07	0.7518
3062.99	0.747
3071.91	0.7406
3080.84	0.733
3089.76	0.7232
3098.68	0.7131
3107.61	0.7075
3116.53	0.7032
3125.45	0.6969
3134.38	0.6788
3143.3	0.6591
3152.22	0.6424
3161.15	0.6066
3170.07	0.5856
3178.99	0.5615
3187.92	0.5465
3196.84	0.5284
3205.77	0.4969
3214.69	0.4684
3223.61	0.4425
3232.54	0.3982
3241.46	0.3716
3250.38	0.3436
3259.31	0.3105
3268.23	0.2801
3277.15	0.2505
3286.08	0.2344
3295	0.2237
3303.92	0.2159
3312.85	0.2079
3321.77	0.2014
3330.69	0.2002
3339.62	0.2039
3348.54	0.2081
3357.47	0.2196
3366.39	0.2308
3375.31	0.2455
3384.24	0.2635
3393.16	0.2758
3402.08	0.2943
3411.01	0.3123
3419.93	0.3275
3428.85	0.3512
3437.78	0.377
3446.7	0.4026
3455.62	0.4265
3464.55	0.4497
3473.47	0.4795
3482.39	0.5056
3491.32	0.5344
3500.24	0.567
3509.17	0.5983
3518.09	0.641
3527.01	0.6779
3535.94	0.7021
3544.86	0.7343
3553.78	0.7654
3562.71	0.7968
3571.63	0.811
3580.55	0.8212
3589.48	0.819
3598.4	0.8049
3607.32	0.7546
3616.25	0.6874
3625.17	0.6404
3634.09	0.6577
3643.02	0.8135
3651.94	0.8566
3660.87	0.8742
3669.79	0.8766
3678.71	0.8799
3687.64	0.8784
3696.56	0.88
3705.48	0.885
3714.41	0.8865
3723.33	0.8867
3732.25	0.8879
3741.18	0.8913
3750.1	0.8936
3759.02	0.8939
3767.95	0.8943
3776.87	0.894
3785.79	0.8942
3794.72	0.8946
