Infrared Spectrum: N-Cyclohexyl methacrylamide
Formula: C 10 H 17 N O
CAS: 2918-67-4
State: gas
Origin: EPA-IR VAPOR PHASE LIBRARY
1/CM	ABSORBANCE
549.9	0.00432
559.547	0.0046
569.193	0.00601
578.84	0.00767
588.486	0.00733
598.133	0.00449
607.779	0.00312
617.426	0.00248
627.072	0.00215
636.719	0.00223
646.365	0.00219
656.012	0.0019306
665.658	0.0017861
675.305	0.0013652
684.951	0.00112654
694.598	0.0010324
704.245	0.0010472
713.891	0.00119434
723.538	0.00118688
733.184	0.0014144
742.831	0.0014559
752.477	0.0017036
762.124	0.0020338
771.77	0.00285
781.417	0.00487
791.063	0.00795
800.71	0.00783
810.356	0.00552
820.003	0.0041
829.649	0.00459
839.296	0.00547
848.943	0.00552
858.589	0.00565
868.236	0.00594
877.882	0.00796
887.529	0.01298
897.175	0.01862
906.822	0.02435
916.468	0.02297
926.115	0.01719
935.761	0.01504
945.408	0.0132
955.054	0.011
964.701	0.00989
974.347	0.00906
983.994	0.00612
993.64	0.00513
1003.29	0.0059
1012.93	0.00551
1022.58	0.00418
1032.23	0.00332
1041.87	0.00266
1051.52	0.00252
1061.17	0.00252
1070.81	0.00334
1080.46	0.00491
1090.11	0.00672
1099.75	0.00588
1109.4	0.0041
1119.05	0.00394
1128.69	0.00447
1138.34	0.00687
1147.99	0.01227
1157.63	0.02219
1167.28	0.04625
1176.92	0.07697
1186.57	0.07228
1196.22	0.04223
1205.86	0.02255
1215.51	0.01321
1225.16	0.00995
1234.8	0.01173
1244.45	0.01687
1254.1	0.01491
1263.74	0.01499
1273.39	0.01508
1283.04	0.01258
1292.68	0.01149
1302.33	0.01417
1311.98	0.02059
1321.62	0.02535
1331.27	0.02189
1340.92	0.01665
1350.56	0.01818
1360.21	0.01546
1369.86	0.01739
1379.5	0.01998
1389.15	0.01665
1398.79	0.01695
1408.44	0.01873
1418.09	0.01992
1427.73	0.02213
1437.38	0.02921
1447.03	0.04633
1456.67	0.06836
1466.32	0.08223
1475.97	0.11403
1485.61	0.18848
1495.26	0.19459
1504.91	0.11142
1514.55	0.05544
1524.2	0.031
1533.85	0.01955
1543.49	0.0141
1553.14	0.01144
1562.79	0.01021
1572.43	0.00986
1582.08	0.00995
1591.73	0.01013
1601.37	0.01104
1611.02	0.01436
1620.67	0.02293
1630.31	0.03461
1639.96	0.03246
1649.6	0.02133
1659.25	0.01925
1668.9	0.02859
1678.54	0.06289
1688.19	0.1299
1697.84	0.14921
1707.48	0.08124
1717.13	0.02972
1726.78	0.01462
1736.42	0.01036
1746.07	0.00777
1755.72	0.00557
1765.36	0.00405
1775.01	0.00327
1784.66	0.00268
1794.3	0.00236
1803.95	0.00235
1813.6	0.00273
1823.24	0.00307
1832.89	0.00234
1842.54	0.0017775
1852.18	0.0014828
1861.83	0.0013174
1871.47	0.0014574
1881.12	0.0015233
1890.77	0.0012425
1900.41	0.001003
1910.06	0.000888
1919.71	0.000773
1929.35	0.000673
1939	0.000696
1948.65	0.000656
1958.29	0.000708
1967.94	0.000766
1977.59	0.000756
1987.23	0.000644
1996.88	0.000523
2006.53	0.000451
2016.17	0.000439
2025.82	0.000341
2035.47	0.000363
2045.11	0.000278
2054.76	0.000288
2064.41	0.000341
2074.05	0.000318
2083.7	0.000307
2093.35	0.000284
2102.99	0.000331
2112.64	0.000359
2122.28	0.000472
2131.93	0.000494
2141.58	0.000534
2151.22	0.000422
2160.87	0.000422
2170.52	0.000332
2180.16	0.000329
2189.81	0.000351
2199.46	0.000294
2209.1	0.000232
2218.75	0.000276
2228.4	0.000345
2238.04	0.000395
2247.69	0.000419
2257.34	0.000378
2266.98	0.000471
2276.63	0.000376
2286.28	0.000404
2295.92	0.000381
2305.57	0.000325
2315.22	0.000308
2324.86	0.000358
2334.51	0.000499
2344.16	0.000432
2353.8	0.000286
2363.45	0.000389
2373.09	0.000327
2382.74	0.000327
2392.39	0.000318
2402.03	0.000312
2411.68	0.000302
2421.33	0.000301
2430.97	0.000285
2440.62	0.000197
2450.27	0.000214
2459.91	0.000176
2469.56	0.000219
2479.21	0.000291
2488.85	0.000334
2498.5	0.000178
2508.15	0.000123
2517.79	8e-05
2527.44	0.000217
2537.09	0.000173
2546.73	0.0001
2556.38	0.000124
2566.03	0.000209
2575.67	0.000399
2585.32	0.000623
2594.96	0.000791
2604.61	0.000828
2614.26	0.000796
2623.9	0.000866
2633.55	0.00113387
2643.2	0.0013943
2652.84	0.001793
2662.49	0.00229
2672.14	0.0023
2681.78	0.0016116
2691.43	0.0013919
2701.08	0.00112196
2710.72	0.00112166
2720.37	0.000818
2730.02	0.000706
2739.66	0.000762
2749.31	0.000836
2758.96	0.000909
2768.6	0.0012173
2778.25	0.0017808
2787.9	0.00264
2797.54	0.00333
2807.19	0.00348
2816.84	0.00409
2826.48	0.00567
2836.13	0.00948
2845.77	0.02149
2855.42	0.05257
2865.07	0.07386
2874.71	0.04784
2884.36	0.02754
2894.01	0.02662
2903.65	0.03781
2913.3	0.06028
2922.95	0.10534
2932.59	0.18909
2942.24	0.22343
2951.89	0.12777
2961.53	0.04885
2971.18	0.02701
2980.83	0.0226
2990.47	0.01808
3000.12	0.01193
3009.77	0.00813
3019.41	0.0057
3029.06	0.00405
3038.71	0.00314
3048.35	0.00291
3058	0.00292
3067.64	0.00415
3077.29	0.00987
3086.94	0.01481
3096.58	0.00536
3106.23	0.00246
3115.88	0.0016922
3125.52	0.0010727
3135.17	0.000827
3144.82	0.000813
3154.46	0.000798
3164.11	0.000663
3173.76	0.000538
3183.4	0.000412
3193.05	0.0001
3202.7	0.000194
3212.34	0.000201
3221.99	0
3231.64	0.00018
3241.28	0.000142
3250.93	0.000509
3260.58	0.000653
3270.22	0.000516
3279.87	0.000456
3289.52	0.000499
3299.16	0.000493
3308.81	0.000756
3318.45	0.000877
3328.1	0.0010666
3337.75	0.0010231
3347.39	0.001275
3357.04	0.0015384
3366.69	0.00228
3376.33	0.00258
3385.98	0.00227
3395.63	0.0018177
3405.27	0.0018509
3414.92	0.0017889
3424.57	0.0021078
3434.21	0.00323
3443.86	0.00566
3453.51	0.00892
3463.15	0.01029
3472.8	0.00821
3482.45	0.00476
3492.09	0.00259
3501.74	0.0018355
3511.39	0.00120374
3521.03	0.0012188
3530.68	0.0010344
3540.33	0.0010608
3549.97	0.000891
3559.62	0.000986
3569.26	0.0010348
3578.91	0.000961
3588.56	0.000715
3598.2	0.000762
3607.85	0.000665
3617.5	0.000859
3627.14	0.000835
3636.79	0.000899
3646.44	0.000953
3656.08	0.0010212
3665.73	0.000679
3675.38	0.000785
3685.02	0.000801
3694.67	0.00091
3704.32	0.000852
3713.96	0.001007
3723.61	0.001007
3733.26	0.000933
3742.9	0.00086
3752.55	0.000992
3762.2	0.000781
3771.84	0.00088
3781.49	0.000957
3791.13	0.000842
3800.78	0.000886
3810.43	0.00085
3820.07	0.00088
3829.72	0.000952
3839.37	0.000921
3849.01	0.000829
3858.66	0.000588
3868.31	0.000847
3877.95	0.000809
3887.6	0.000896
3897.25	0.000936
3906.89	0.000963
3916.54	0.000973
3926.19	0.000896
3935.83	0.000827
3945.48	0.000907
3955.13	0.000879
3964.77	0.000915
3974.42	0.0010724
3984.07	0.000814
3993.71	0.0010244
