Infrared Spectrum: Pyridine-2,4-dicarbonitrile
Formula: C 7 H 3 N 3
CAS: 29181-50-8
State: gas
Origin: EPA-IR VAPOR PHASE LIBRARY
1/CM	ABSORBANCE
549.8	0.001539
559.445	0.000534
569.09	0.001549
578.734	0.002289
588.379	0.001549
598.024	0.0007629
607.669	0.0008806
617.313	0.001839
626.958	0.003589
636.603	0.003549
646.248	0.002959
655.893	0.002239
665.537	0.001859
675.182	0.001329
684.827	0.002129
694.472	0.004229
704.116	0.004459
713.761	0.004529
723.406	0.005489
733.051	0.005929
742.695	0.003649
752.34	0.002449
761.985	0.001999
771.63	0.001299
781.275	0.0011419
790.919	0.0009626
800.564	0.0007944
810.209	0.0010122
819.854	0.002559
829.498	0.007159
839.143	0.017359
848.788	0.030319
858.433	0.026539
868.078	0.015679
877.722	0.010899
887.367	0.020369
897.012	0.030189
906.657	0.016969
916.301	0.005349
925.946	0.001629
935.591	0.0010659
945.236	0.0010412
954.88	0.001189
964.525	0.001859
974.17	0.002869
983.815	0.004769
993.46	0.004309
1003.1	0.001919
1012.75	0.0011505
1022.39	0.0007577
1032.04	0.001158
1041.68	0.0005351
1051.33	0.000618
1060.97	0.0004621
1070.62	0.0009318
1080.26	0.0010099
1089.91	0.002359
1099.55	0.002369
1109.2	0.002259
1118.84	0.002429
1128.49	0.001239
1138.13	0.003569
1147.78	0.003859
1157.42	0.002449
1167.07	0.001369
1176.71	0.001689
1186.36	0.003549
1196	0.005679
1205.64	0.006649
1215.29	0.004389
1224.93	0.005249
1234.58	0.003929
1244.22	0.002879
1253.87	0.003659
1263.51	0.002819
1273.16	0.0011674
1282.8	0.002249
1292.45	0.001829
1302.09	0.0006398
1311.74	0.0005249
1321.38	0.0004787
1331.03	0.0010902
1340.67	0.001739
1350.32	0.002259
1359.96	0.002999
1369.61	0.006929
1379.25	0.020239
1388.9	0.025079
1398.54	0.016799
1408.18	0.004689
1417.83	0.001679
1427.47	0.001489
1437.12	0.002609
1446.76	0.006159
1456.41	0.016779
1466.05	0.018259
1475.7	0.009129
1485.34	0.002879
1494.99	0.001779
1504.63	0.001559
1514.28	0.002779
1523.92	0.007119
1533.57	0.018329
1543.21	0.031919
1552.86	0.033399
1562.5	0.018289
1572.15	0.023769
1581.79	0.047799
1591.44	0.055549
1601.08	0.032149
1610.73	0.009539
1620.37	0.004239
1630.01	0.002429
1639.66	0.001379
1649.3	0.0011711
1658.95	0.001309
1668.59	0.001489
1678.24	0.001649
1687.88	0.002269
1697.53	0.002699
1707.17	0.002399
1716.82	0.001899
1726.46	0.001589
1736.11	0.001439
1745.75	0.001239
1755.4	0.0010626
1765.04	0.0010864
1774.69	0.001689
1784.33	0.002309
1793.98	0.002599
1803.62	0.002179
1813.27	0.001789
1822.91	0.001529
1832.55	0.0009785
1842.2	0.0006341
1851.84	0.0005289
1861.49	0.000455
1871.13	0.0006398
1880.78	0.0007339
1890.42	0.0006267
1900.07	0.0004996
1909.71	0.0004579
1919.36	0.0008357
1929	0.001569
1938.65	0.002619
1948.29	0.002349
1957.94	0.001489
1967.58	0.0006912
1977.23	0.000607
1986.87	0.0007395
1996.52	0.0006728
2006.16	0.0004805
2015.81	0.0004108
2025.45	0.000594
2035.1	0.000755
2044.74	0.0007823
2054.38	0.0006562
2064.03	0.0007393
2073.67	0.0005721
2083.32	0.0005762
2092.96	0.0006921
2102.61	0.0005383
2112.25	0.0007253
2121.9	0.0007358
2131.54	0.0008485
2141.19	0.0005313
2150.83	0.0004237
2160.48	0.0004775
2170.12	0.0005074
2179.77	0.0006592
2189.41	0.0007041
2199.06	0.0007353
2208.7	0.000765
2218.35	0.001047
2227.99	0.002209
2237.64	0.003819
2247.28	0.004039
2256.92	0.001749
2266.57	0.0005485
2276.21	0.0006357
2285.86	0.000742
2295.5	0.0006156
2305.15	0.0005463
2314.79	0.0004926
2324.44	0.0005193
2334.08	0.000529
2343.73	0.0007522
2353.37	0.0010988
2363.02	0.0010931
2372.66	0.0008459
2382.31	0.0004442
2391.95	0.0007945
2401.6	0.0007368
2411.24	0.0008997
2420.89	0.0010954
2430.53	0.0011623
2440.18	0.0009612
2449.82	0.0006385
2459.47	0.000484
2469.11	0.0005124
2478.75	0.0004068
2488.4	0.0005397
2498.04	0.0004054
2507.69	0.0004691
2517.33	0.0003862
2526.98	0.0006087
2536.62	0.0005152
2546.27	0.0005317
2555.91	0.0004928
2565.56	0.0006057
2575.2	0.0005334
2584.85	0.0007205
2594.49	0.0006378
2604.14	0.0007721
2613.78	0.00054
2623.43	0.0006266
2633.07	0.0003507
2642.72	0.0006142
2652.36	0.0005956
2662.01	0.0005419
2671.65	0.0004951
2681.29	0.0006141
2690.94	0.0004869
2700.58	0.0006585
2710.23	0.0005007
2719.87	0.0005282
2729.52	0.0007137
2739.16	0.0010546
2748.81	0.0007317
2758.45	0.0005047
2768.1	0.0006159
2777.74	0.0004417
2787.39	0.0007878
2797.03	0.0008115
2806.68	0.0005478
2816.32	0.0008728
2825.97	0.0008594
2835.61	0.0008473
2845.26	0.000903
2854.9	0.0007746
2864.55	0.000781
2874.19	0.0005955
2883.84	0.0004639
2893.48	0.0006034
2903.12	0.0008245
2912.77	0.0009693
2922.41	0.0006371
2932.06	0.0004279
2941.7	0.0005775
2951.35	0.0005815
2960.99	0.0007598
2970.64	0.0007014
2980.28	0.0006322
2989.93	0.0006964
2999.57	0.0006932
3009.22	0.0010136
3018.86	0.0008692
3028.51	0.001259
3038.15	0.001889
3047.8	0.002699
3057.44	0.005079
3067.09	0.007469
3076.73	0.007009
3086.38	0.003889
3096.02	0.002149
3105.67	0.0010064
3115.31	0.0005003
3124.95	0.0006387
3134.6	0.0006322
3144.24	0.0006427
3153.89	0.0007279
3163.53	0.0005324
3173.18	0.0006261
3182.82	0.0004146
3192.47	0.0004118
3202.11	0.0003875
3211.76	0.0004101
3221.4	0.0005948
3231.05	0.0004638
3240.69	0.00057
3250.34	0.00021979
3259.98	0.0004058
3269.63	0.0003528
3279.27	0.000528
3288.92	0.0002931
3298.56	0.0002946
3308.21	0.00026983
3317.85	0.00021824
3327.49	0.0002897
3337.14	0.0004096
3346.78	0.00024484
3356.43	0.0004627
3366.07	7.1e-05
3375.72	0.0004277
3385.36	0.0004415
3395.01	0.0005036
3404.65	0.0004379
3414.3	0.0005002
3423.94	0.00025122
3433.59	0.0003729
3443.23	0.0006569
3452.88	0.0009112
3462.52	0.0005104
3472.17	0.0004928
3481.81	0.0004427
3491.46	0.0005525
3501.1	0.0006019
3510.75	0.0003892
3520.39	0.0005104
3530.04	0.0004946
3539.68	0.0005577
3549.32	0.000373
3558.97	9.81e-05
3568.61	0.0004673
3578.26	0
3587.9	0.00020917
3597.55	0.0003712
3607.19	0.000499
3616.84	0.0005191
3626.48	0.0005107
3636.13	0.0004451
3645.77	0.0002934
3655.42	0.0004929
3665.06	0.00027621
3674.71	0.0007715
3684.35	0.00021158
3694	0.0004562
3703.64	0.0003883
3713.29	0.0004359
3722.93	0.0005517
3732.58	0.0007103
3742.22	0.0006777
3751.86	0.0004114
3761.51	0.0005185
3771.15	0.0003952
3780.8	0.0004609
3790.44	0.0007278
3800.09	0.0004758
3809.73	0.0006942
3819.38	0.0007434
3829.02	0.0005087
3838.67	0.0005543
3848.31	0.0004328
3857.96	0.0006452
3867.6	0.0004886
3877.25	0.0007832
3886.89	0.0004779
3896.54	0.0005177
3906.18	0.0006862
3915.83	0.0005547
3925.47	0.0004478
3935.12	0.0005068
3944.76	0.0003294
3954.41	0.0003055
3964.05	0.0003587
3973.69	0.0005658
3983.34	0.0001653
3992.98	0.0008055
