Infrared Spectrum: 1,1-Di(p-tolyl)ethylene
Formula: C16 H16
CAS: 2919-20-2
State: gas
Origin: EPA-IR VAPOR PHASE LIBRARY
1/CM	ABSORBANCE
551.7	0.0117528
563.274	0.0084428
574.848	0.0044828
586.421	0.0026728
597.995	0.0022528
609.569	0.0038328
621.143	0.0040528
632.717	0.0019728
644.291	0.0025828
655.864	0.0032328
667.438	0.0018728
679.012	0.0015128
690.586	0.0018928
702.16	0.0026428
713.734	0.0056628
725.307	0.0107928
736.881	0.0068728
748.455	0.0060528
760.029	0.0065328
771.603	0.0041028
783.177	0.0041528
794.75	0.0072128
806.324	0.0197428
817.898	0.0581728
829.472	0.0537628
841.046	0.0168928
852.619	0.0075528
864.193	0.0054728
875.767	0.0055428
887.341	0.0152528
898.915	0.0347828
910.489	0.0144228
922.062	0.0038628
933.636	0.0025628
945.21	0.0023028
956.784	0.0024228
968.358	0.0020028
979.932	0.0018628
991.505	0.0018928
1003.08	0.0023528
1014.65	0.0149728
1026.23	0.0104828
1037.8	0.0043428
1049.37	0.0047828
1060.95	0.0044328
1072.52	0.0116728
1084.1	0.0079328
1095.67	0.0043628
1107.24	0.0069128
1118.82	0.0082028
1130.39	0.0042128
1141.97	0.0023728
1153.54	0.0019728
1165.11	0.0024828
1176.69	0.0077728
1188.26	0.0116928
1199.83	0.0043128
1211.41	0.0046228
1222.98	0.0037828
1234.56	0.0044028
1246.13	0.0028128
1257.7	0.0023428
1269.28	0.0024928
1280.85	0.0034528
1292.42	0.0068728
1304	0.0134528
1315.57	0.0158228
1327.15	0.0184528
1338.72	0.0073928
1350.29	0.0057028
1361.87	0.0056828
1373.44	0.0062928
1385.02	0.0078528
1396.59	0.0097628
1408.16	0.0109628
1419.74	0.0093828
1431.31	0.0076928
1442.88	0.0062828
1454.46	0.0060728
1466.03	0.0069728
1477.61	0.0082528
1489.18	0.0130628
1500.75	0.0293128
1512.33	0.0572828
1523.9	0.0196928
1535.48	0.0072228
1547.05	0.0069028
1558.62	0.0076528
1570.2	0.0079228
1581.77	0.0070728
1593.34	0.0089228
1604.92	0.0149328
1616.49	0.0191028
1628.07	0.0114828
1639.64	0.0056428
1651.21	0.0058128
1662.79	0.0042928
1674.36	0.0020828
1685.93	0.0013528
1697.51	0.0011828
1709.08	0.0009773
1720.66	0.000854
1732.23	0.0008517
1743.8	0.0011528
1755.38	0.0020028
1766.95	0.0029128
1778.53	0.0039228
1790.1	0.0070728
1801.67	0.0059628
1813.25	0.0030428
1824.82	0.0014128
1836.39	0.0010528
1847.97	0.0010228
1859.54	0.0013428
1871.12	0.0019628
1882.69	0.0032028
1894.26	0.0057928
1905.84	0.0052328
1917.41	0.0020928
1928.99	0.0011328
1940.56	0.0007485
1952.13	0.0006686
1963.71	0.0007305
1975.28	0.0006024
1986.85	0.0005398
1998.43	0.0004344
2010	0.0005477
2021.58	0.0005685
2033.15	0.0004982
2044.72	0.0003311
2056.3	0.0003131
2067.87	0.0003377
2079.44	0.0003785
2091.02	0.0002905
2102.59	0.0002941
2114.17	0.0002619
2125.74	0.0003357
2137.31	0.0004749
2148.89	0.000424
2160.46	0.0003363
2172.04	0.0003212
2183.61	0.0002849
2195.18	0.0003289
2206.76	0.0003498
2218.33	0.0002636
2229.9	0.0003194
2241.48	0.000379
2253.05	0.000469
2264.63	0.000446
2276.2	0.0004424
2287.77	0.0005988
2299.35	0.0007995
2310.92	0.0008309
2322.5	0.0007649
2334.07	0.0005999
2345.64	0.0005499
2357.22	0.0004782
2368.79	0.0005111
2380.36	0.0004866
2391.94	0.0004587
2403.51	0.0005863
2415.09	0.0006174
2426.66	0.0006099
2438.23	0.0005839
2449.81	0.0005779
2461.38	0.0005243
2472.96	0.0005671
2484.53	0.0005726
2496.1	0.0005721
2507.68	0.0005726
2519.25	0.0005147
2530.82	0.0004594
2542.4	0.0003675
2553.97	0.0004433
2565.55	0.000527
2577.12	0.0007838
2588.69	0.0011028
2600.27	0.0008248
2611.84	0.0006295
2623.41	0.0006151
2634.99	0.0005816
2646.56	0.0004834
2658.14	0.000415
2669.71	0.0004306
2681.28	0.0005361
2692.86	0.0006573
2704.43	0.0008964
2716.01	0.0010041
2727.58	0.0012628
2739.15	0.0026828
2750.73	0.0020928
2762.3	0.0011328
2773.87	0.0010928
2785.45	0.0012628
2797.02	0.0016028
2808.6	0.0021028
2820.17	0.0026928
2831.74	0.0036728
2843.32	0.0055228
2854.89	0.0094428
2866.47	0.0177928
2878.04	0.0253028
2889.61	0.0223428
2901.19	0.0196828
2912.76	0.0238628
2924.33	0.0393028
2935.91	0.0487528
2947.48	0.0255328
2959.06	0.0165128
2970.63	0.0155328
2982.2	0.0196028
2993.78	0.0267428
3005.35	0.0323528
3016.92	0.0431728
3028.5	0.0656828
3040.07	0.0404528
3051.65	0.0334328
3063.22	0.0280428
3074.79	0.0253228
3086.37	0.0276528
3097.94	0.0283028
3109.52	0.0078328
3121.09	0.0058228
3132.66	0.0039428
3144.24	0.0018828
3155.81	0.0011128
3167.38	0.0007054
3178.96	0.0006003
3190.53	0.000546
3202.11	0.0004329
3213.68	0.0003255
3225.25	0.0003761
3236.83	0.0003175
3248.4	0.0002786
3259.98	0.0002837
3271.55	0.0002403
3283.12	0.0002794
3294.7	0.0002773
3306.27	0.000237
3317.84	0.0002768
3329.42	0.0004175
3340.99	0.0004424
3352.57	0.0002839
3364.14	0.0002932
3375.71	0.0001267
3387.29	0.0002962
3398.86	0.0002562
3410.43	0.0002476
3422.01	9.164e-05
3433.58	0.0001944
3445.16	0.0003317
3456.73	0.000177
3468.3	8.356e-05
3479.88	9.828e-05
3491.45	0.0002202
3503.03	0.0001429
3514.6	5.039e-05
3526.17	1.33101e-05
3537.75	5.117e-05
3549.32	0.0001549
3560.89	0.0001791
3572.47	0.0001866
3584.04	0.00011182
3595.62	0.0001939
3607.19	0.0001381
3618.76	0.0002358
3630.34	0.0002758
3641.91	0.0004685
3653.49	0.0004658
3665.06	0.0005046
3676.63	0.0004707
3688.21	0.0004907
3699.78	0.0003737
3711.35	0.0002366
3722.93	0.0002201
3734.5	0.0001459
3746.08	0.0001935
3757.65	0.0001733
3769.22	0.0002521
3780.8	0.0001568
3792.37	0.0003448
3803.94	0.0003129
3815.52	0.0002892
3827.09	0.0004017
3838.67	0.0003193
3850.24	0.000366
3861.81	0.0004861
3873.39	0.0004696
3884.96	0.0005272
3896.54	0.000402
3908.11	0.0005998
3919.68	0.0004267
3931.26	0.0004584
3942.83	0.0003851
3954.4	0.0004107
3965.98	0.000421
3977.55	0.0003576
3989.13	0.0004324
4000.7	0.0003869
