Infrared Spectrum: 4-BIPHENYLCARBONITRILE
Formula: C13 H9 N
CAS: 2920-38-9
State: SOLID (MINERAL OIL MULL)
Melting point: 85-86 C
Class: COBLENTZ
Instrument: Not specified, most likely a prism, grating, or hybrid spectrometer.
Sampling: TRANSMISSION
Resolution: 4
Origin: WYANDOTTE CHEMICALS CORP., WYANDOTTE, MICHIGAN, USA
MICROMETERS	TRANSMITTANCE
2.034	0.415
2.07478	0.415
2.11555	0.415
2.15633	0.415
2.19711	0.415
2.23788	0.412
2.27866	0.412
2.31944	0.412
2.36021	0.412
2.40099	0.414
2.44177	0.417
2.48254	0.419
2.52332	0.429
2.5641	0.431
2.60487	0.438
2.64565	0.446
2.68643	0.451
2.7272	0.446
2.76798	0.432
2.80876	0.419
2.84953	0.429
2.89031	0.417
2.93108	0.414
2.97186	0.412
3.01264	0.41
3.05341	0.41
3.09419	0.414
3.13497	0.393
3.17574	0.378
3.21652	0.354
3.2573	0.298
3.29807	0.264
3.33885	0.14
3.37963	0.033
3.4204	0.03
3.46118	0.052
3.50196	0.05
3.54273	0.31
3.58351	0.453
3.62429	0.492
3.66506	0.495
3.70584	0.495
3.74662	0.497
3.78739	0.502
3.82817	0.504
3.86895	0.507
3.90972	0.514
3.9505	0.531
3.99128	0.538
4.03205	0.539
4.07283	0.543
4.11361	0.546
4.15438	0.558
4.19516	0.551
4.23594	0.543
4.27671	0.534
4.31749	0.55
4.35827	0.563
4.39904	0.585
4.43982	0.592
4.4806	0.601
4.52137	0.672
4.56215	0.465
4.60292	0.517
4.6437	0.55
4.68448	0.575
4.72525	0.585
4.76603	0.592
4.80681	0.604
4.84758	0.607
4.88836	0.611
4.92914	0.612
4.96991	0.606
5.01069	0.616
5.05147	0.616
5.09224	0.599
5.13302	0.604
5.1738	0.609
5.21457	0.558
5.25535	0.604
5.29613	0.609
5.3369	0.621
5.37768	0.634
5.41846	0.64
5.45923	0.64
5.50001	0.643
5.54079	0.638
5.58156	0.64
5.62234	0.641
5.66312	0.636
5.70389	0.636
5.74467	0.64
5.78545	0.638
5.82622	0.648
5.867	0.628
5.90778	0.587
5.94855	0.601
5.98933	0.609
6.03011	0.607
6.07088	0.617
6.11166	0.626
6.15244	0.682
6.19321	0.446
6.23399	0.584
6.27476	0.541
6.31554	0.612
6.35632	0.601
6.39709	0.614
6.43787	0.617
6.47865	0.643
6.51942	0.646
6.5602	0.653
6.60098	0.655
6.64175	0.679
6.68253	0.461
6.72331	0.3
6.76408	0.227
6.80486	0.142
6.84564	0.19
6.88641	0.297
6.92719	0.449
6.96797	0.599
7.00874	0.592
7.04952	0.46
7.0903	0.439
7.13107	0.348
7.17185	0.366
7.21263	0.322
7.2534	0.32
7.29418	0.451
7.33496	0.548
7.37573	0.599
7.41651	0.584
7.45729	0.626
7.49806	0.645
7.53884	0.585
7.57962	0.582
7.62039	0.609
7.66117	0.646
7.70195	0.672
7.74272	0.636
7.7835	0.56
7.82428	0.667
7.86505	0.65
7.90583	0.663
7.9466	0.677
7.98738	0.682
8.02816	0.689
8.06893	0.692
8.10971	0.701
8.15049	0.707
8.19126	0.706
8.23204	0.706
8.27282	0.716
8.31359	0.724
8.35437	0.735
8.39515	0.762
8.43592	0.699
8.4767	0.567
8.51748	0.687
8.55825	0.723
8.59903	0.706
8.63981	0.696
8.68058	0.733
8.72136	0.743
8.76214	0.748
8.80291	0.723
8.84369	0.691
8.88447	0.704
8.92524	0.619
8.96602	0.594
9.0068	0.682
9.04757	0.704
9.08835	0.714
9.12913	0.713
9.1699	0.709
9.21068	0.641
9.25146	0.55
9.29223	0.668
9.33301	0.706
9.37379	0.733
9.41456	0.745
9.45534	0.752
9.49612	0.762
9.53689	0.769
9.57767	0.707
9.61844	0.728
9.65922	0.738
9.7	0.748
9.74077	0.772
9.78155	0.76
9.82233	0.801
9.8631	0.823
9.90388	0.619
9.94466	0.716
9.98543	0.755
10.0262	0.78
10.067	0.799
10.1078	0.811
10.1485	0.818
10.1893	0.811
10.2301	0.769
10.2709	0.767
10.3116	0.787
10.3524	0.801
10.3932	0.804
10.434	0.814
10.4748	0.82
10.5155	0.825
10.5563	0.828
10.5971	0.83
10.6379	0.83
10.6786	0.83
10.7194	0.825
10.7602	0.823
10.801	0.792
10.8417	0.738
10.8825	0.757
10.9233	0.808
10.9641	0.837
11.0048	0.852
11.0456	0.869
11.0864	0.874
11.1272	0.867
11.168	0.87
11.2087	0.859
11.2495	0.86
11.2903	0.869
11.3311	0.874
11.3718	0.879
11.4126	0.881
11.4534	0.879
11.4942	0.874
11.5349	0.874
11.5757	0.864
11.6165	0.837
11.6573	0.806
11.6981	0.736
11.7388	0.539
11.7796	0.325
11.8204	0.37
11.8612	0.441
11.9019	0.555
11.9427	0.561
11.9835	0.431
12.0243	0.645
12.065	0.792
12.1058	0.852
12.1466	0.886
12.1874	0.904
12.2281	0.906
12.2689	0.91
12.3097	0.916
12.3505	0.916
12.3913	0.904
12.432	0.899
12.4728	0.899
12.5136	0.879
12.5544	0.869
12.5951	0.855
12.6359	0.842
12.6767	0.813
12.7175	0.757
12.7582	0.699
12.799	0.59
12.8398	0.436
12.8806	0.241
12.9213	0.096
12.9621	0.067
13.0029	0.074
13.0437	0.176
13.0845	0.327
13.1252	0.485
13.166	0.599
13.2068	0.672
13.2476	0.777
13.2883	0.821
13.3291	0.848
13.3699	0.864
13.4107	0.859
13.4514	0.835
13.4922	0.818
13.533	0.813
13.5738	0.799
13.6146	0.796
13.6553	0.797
13.6961	0.76
13.7369	0.64
13.7777	0.434
13.8184	0.244
13.8592	0.28
13.9	0.517
13.9408	0.668
13.9815	0.748
14.0223	0.792
14.0631	0.816
14.1039	0.799
14.1446	0.73
14.1854	0.599
14.2262	0.424
14.267	0.295
14.3078	0.261
14.3485	0.237
14.3893	0.239
14.4301	0.295
14.4709	0.424
14.5116	0.57
14.5524	0.658
14.5932	0.711
14.634	0.731
14.6747	0.76
14.7155	0.786
14.7563	0.806
14.7971	0.818
14.8378	0.825
14.8786	0.828
14.9194	0.828
14.9602	0.806
15.001	0.753
15.0417	0.701
15.0825	0.73
15.1233	0.762
15.1641	0.794
15.2048	0.794
15.2456	0.789
15.2864	0.782
15.3272	0.77
15.3679	0.758
15.4087	0.731
15.4495	0.719
15.4903	0.702
15.531	0.696
15.5718	0.696
15.6126	0.677
15.6534	0.674
15.6942	0.662
15.7349	0.648
15.7757	0.633
15.8165	0.616
15.8573	0.599
15.898	0.59
15.9388	0.572
