Infrared Spectrum: 2,6-Heptanedione, 3-acetyl
Formula: C9 H14 O3
CAS: 29214-57-1
State: SOLID (SPLIT MULL), FLUOROLUBE FOR 3800-1330 CM^-^1, NUJOL FOR 1330-450 CM^-^1
Class: COBLENTZ III
Instrument: DOW KBr FOREPRISM-GRATING
Instrument parameters: BLAZED AT 3.5, 12.0, 20.0 MICRON AND CHANGED AT 5.0, 7.5, 14.9 MICRON
Sampling: TRANSMISSION
Resolution: 2
Origin: DOW CHEMICAL COMPANY
1/CM	TRANSMITTANCE
3802	0.6554
3793	0.655
3784	0.6546
3775	0.6541
3766	0.6542
3757	0.6551
3748	0.6582
3739	0.6714
3730	0.674
3721	0.6661
3712	0.6639
3703	0.6628
3694	0.6618
3685	0.6611
3676	0.6651
3667	0.6674
3658	0.6665
3649	0.6639
3640	0.6611
3631	0.6599
3622	0.6591
3613	0.6584
3604	0.6578
3595	0.6575
3586	0.6572
3577	0.6568
3568	0.6565
3559	0.6558
3550	0.6551
3541	0.6542
3532	0.6528
3523	0.6512
3514	0.65
3505	0.6501
3496	0.6521
3487	0.6544
3478	0.6571
3469	0.6597
3460	0.6624
3451	0.6651
3442	0.6669
3433	0.6686
3424	0.6698
3415	0.6708
3406	0.6687
3397	0.6632
3388	0.656
3379	0.6626
3370	0.6711
3361	0.6758
3352	0.6799
3343	0.6828
3334	0.686
3325	0.6893
3316	0.6926
3307	0.6955
3298	0.6982
3289	0.7008
3280	0.7036
3271	0.7058
3262	0.7081
3253	0.7101
3244	0.7119
3235	0.7134
3226	0.7148
3217	0.7158
3208	0.7168
3199	0.7175
3190	0.7178
3181	0.718
3172	0.718
3163	0.7176
3154	0.7168
3145	0.716
3136	0.7151
3127	0.7139
3118	0.7124
3109	0.7107
3100	0.7094
3091	0.708
3082	0.7068
3073	0.7058
3064	0.7041
3055	0.7022
3046	0.701
3037	0.6991
3028	0.6957
3019	0.6819
3010	0.6538
3001	0.6507
2992	0.6632
2983	0.6691
2974	0.6621
2965	0.5197
2956	0.5098
2947	0.5876
2938	0.6006
2929	0.604
2920	0.614
2911	0.6319
2902	0.6254
2893	0.6155
2884	0.6369
2875	0.6533
2866	0.6676
2857	0.6811
2848	0.6907
2839	0.6987
2830	0.7055
2821	0.7119
2812	0.7165
2803	0.7208
2794	0.7245
2785	0.7278
2776	0.7312
2767	0.7342
2758	0.7369
2749	0.7398
2740	0.7422
2731	0.744
2722	0.7458
2713	0.7475
2704	0.749
2695	0.7504
2686	0.7518
2677	0.7532
2668	0.7545
2659	0.7557
2650	0.7569
2641	0.7583
2632	0.7597
2623	0.7606
2614	0.7615
2605	0.7617
2596	0.7611
2587	0.7596
2578	0.7589
2569	0.7584
2560	0.7588
2551	0.7592
2542	0.7598
2533	0.761
2524	0.7624
2515	0.7637
2506	0.7651
2497	0.7675
2488	0.7699
2479	0.7721
2470	0.7746
2461	0.7768
2452	0.7791
2443	0.7811
2434	0.7825
2425	0.7838
2416	0.7851
2407	0.7862
2398	0.7874
2389	0.7885
2380	0.7896
2371	0.7906
2362	0.7917
2353	0.7908
2344	0.789
2335	0.7882
2326	0.789
2317	0.7896
2308	0.7908
2299	0.793
2290	0.7954
2281	0.7987
2272	0.8019
2263	0.8047
2254	0.8071
2245	0.8095
2236	0.8118
2227	0.8142
2218	0.8165
2209	0.8188
2200	0.8207
2191	0.8223
2182	0.8232
2173	0.8234
2164	0.8234
2155	0.8234
2146	0.8242
2137	0.8261
2128	0.8278
2119	0.8303
2110	0.833
2101	0.8355
2092	0.8375
2083	0.8395
2074	0.8412
2065	0.843
2056	0.8451
2047	0.8468
2038	0.8488
2029	0.8508
2020	0.8532
2011	0.8548
2002	0.8505
1993	0.8321
1984	0.8581
1975	0.8643
1966	0.8645
1957	0.864
1948	0.8646
1939	0.8646
1930	0.8635
1921	0.8618
1912	0.8606
1903	0.8607
1894	0.8625
1885	0.8654
1876	0.8688
1867	0.8717
1858	0.8739
1849	0.8764
1840	0.8775
1831	0.8746
1822	0.8721
1813	0.8671
1804	0.8597
1795	0.8514
1786	0.8427
1777	0.8324
1768	0.8208
1759	0.8088
1750	0.7762
1741	0.6605
1732	0.4671
1723	0.2929
1714	0.1641
1705	0.0819
1696	0.0798
1687	0.1929
1678	0.3836
1669	0.4432
1660	0.4294
1651	0.4459
1642	0.4412
1633	0.4099
1624	0.3803
1615	0.3644
1606	0.3544
1597	0.3468
1588	0.3416
1579	0.3448
1570	0.3502
1561	0.3564
1552	0.363
1543	0.3697
1534	0.3759
1525	0.3839
1516	0.3928
1507	0.4024
1498	0.4114
1489	0.4197
1480	0.422
1471	0.3859
1462	0.3614
1453	0.3553
1444	0.3176
1435	0.2799
1426	0.2401
1417	0.2152
1408	0.2764
1399	0.3537
1390	0.3743
1381	0.3253
1372	0.2004
1363	0.2053
1354	0.2281
1345	0.3264
1336	0.3566
1327	0.3677
1318	0.3326
1309	0.2859
1300	0.2618
1291	0.3057
1282	0.4229
1273	0.461
1264	0.5062
1255	0.5512
1246	0.5986
1237	0.6267
1228	0.6474
1219	0.6598
1210	0.6687
1201	0.6811
1192	0.6864
1183	0.6222
1174	0.3653
1165	0.3216
1156	0.584
1147	0.6448
1138	0.6888
1129	0.7112
1120	0.7217
1111	0.7278
1102	0.7308
1093	0.7296
1084	0.7235
1075	0.7074
1066	0.7099
1057	0.69
1048	0.6696
1039	0.6357
1030	0.5705
1021	0.4059
1012	0.3346
1003	0.3668
994	0.478
985	0.5631
976	0.6055
967	0.6267
958	0.6299
949	0.6338
940	0.4851
931	0.5195
922	0.6383
913	0.7012
904	0.7276
895	0.7451
886	0.7551
877	0.751
868	0.7718
859	0.7519
850	0.7512
841	0.7875
832	0.8008
823	0.8098
814	0.8131
805	0.8138
796	0.815
787	0.8157
778	0.8158
769	0.815
760	0.8137
751	0.8098
742	0.764
733	0.7651
724	0.7261
715	0.8017
706	0.8146
697	0.8199
688	0.8225
679	0.8213
670	0.7945
661	0.7871
652	0.8031
643	0.8047
634	0.7922
625	0.7782
616	0.7814
607	0.7845
598	0.7828
589	0.7731
580	0.7522
571	0.6507
562	0.679
553	0.7292
544	0.7025
535	0.6861
526	0.7215
517	0.7465
508	0.7586
499	0.7617
490	0.7607
481	0.7547
472	0.7457
463	0.7118
