Infrared Spectrum: 3-TERT-BUTYL-2-PYRAZOLIN-5-ONE
Formula: C7 H12 N2 O
CAS: 29211-68-5
State: SOLID (PELLET)
Class: COBLENTZ
Instrument: Not specified, most likely a prism, grating, or hybrid spectrometer.
Sampling: TRANSMISSION
Resolution: 4
Origin: TENNESSEE EASTMAN COMPANY, RESEARCH LABORATORIES
MICROMETERS	TRANSMITTANCE
2	0.683
2.03987	0.677
2.07973	0.675
2.1196	0.675
2.15946	0.677
2.19933	0.677
2.23919	0.678
2.27906	0.678
2.31893	0.677
2.35879	0.677
2.39866	0.677
2.43852	0.678
2.47839	0.68
2.51826	0.682
2.55812	0.682
2.59799	0.682
2.63785	0.682
2.67772	0.682
2.71758	0.682
2.75745	0.672
2.79732	0.647
2.83718	0.612
2.87705	0.597
2.91691	0.577
2.95678	0.574
2.99665	0.587
3.03651	0.592
3.07638	0.587
3.11624	0.574
3.15611	0.554
3.19597	0.507
3.23584	0.5
3.27571	0.48
3.31557	0.455
3.35544	0.301
3.3953	0.271
3.43517	0.282
3.47504	0.287
3.5149	0.302
3.55477	0.304
3.59463	0.299
3.6345	0.262
3.67436	0.241
3.71423	0.236
3.7541	0.234
3.79396	0.236
3.83383	0.244
3.87369	0.252
3.91356	0.277
3.95342	0.292
3.99329	0.324
4.03316	0.354
4.07302	0.371
4.11289	0.397
4.15275	0.425
4.19262	0.439
4.23249	0.45
4.27235	0.444
4.31222	0.45
4.35208	0.53
4.39195	0.587
4.43181	0.612
4.47168	0.635
4.51155	0.667
4.55141	0.683
4.59128	0.707
4.63114	0.732
4.67101	0.745
4.71088	0.76
4.75074	0.778
4.79061	0.792
4.83047	0.797
4.87034	0.801
4.9102	0.808
4.95007	0.813
4.98994	0.825
5.0298	0.838
5.06967	0.841
5.10953	0.845
5.1494	0.848
5.18926	0.848
5.22913	0.85
5.269	0.851
5.30886	0.853
5.34873	0.853
5.38859	0.855
5.42846	0.851
5.46833	0.85
5.50819	0.853
5.54806	0.855
5.58792	0.855
5.62779	0.853
5.66765	0.855
5.70752	0.853
5.74739	0.85
5.78725	0.846
5.82712	0.84
5.86698	0.821
5.90685	0.81
5.94672	0.79
5.98658	0.782
6.02645	0.765
6.06631	0.683
6.10618	0.44
6.14604	0.081
6.18591	0.053
6.22578	0.044
6.26564	0.154
6.30551	0.366
6.34537	0.452
6.38524	0.341
6.42511	0.168
6.46497	0.168
6.50484	0.292
6.5447	0.339
6.58457	0.287
6.62443	0.209
6.6643	0.287
6.70417	0.372
6.74403	0.427
6.7839	0.437
6.82376	0.429
6.86363	0.48
6.90349	0.53
6.94336	0.642
6.98323	0.718
7.02309	0.722
7.06296	0.683
7.10282	0.698
7.14269	0.745
7.18256	0.708
7.22242	0.708
7.26229	0.747
7.30215	0.7
7.34202	0.73
7.38188	0.835
7.42175	0.865
7.46162	0.886
7.50148	0.905
7.54135	0.911
7.58121	0.92
7.62108	0.925
7.66095	0.93
7.70081	0.93
7.74068	0.928
7.78054	0.921
7.82041	0.905
7.86027	0.878
7.90014	0.818
7.94001	0.675
7.97987	0.617
8.01974	0.772
8.0596	0.858
8.09947	0.888
8.13934	0.905
8.1792	0.915
8.21907	0.931
8.25893	0.921
8.2988	0.911
8.33866	0.931
8.37853	0.94
8.4184	0.94
8.45826	0.905
8.49813	0.753
8.53799	0.657
8.57786	0.735
8.61772	0.831
8.65759	0.878
8.69746	0.918
8.73732	0.933
8.77719	0.935
8.81705	0.931
8.85692	0.883
8.89679	0.811
8.93665	0.876
8.97652	0.926
9.01638	0.941
9.05625	0.951
9.09611	0.96
9.13598	0.97
9.17585	0.971
9.21571	0.975
9.25558	0.975
9.29544	0.976
9.33531	0.978
9.37518	0.978
9.41504	0.978
9.45491	0.98
9.49477	0.978
9.53464	0.976
9.5745	0.976
9.61437	0.965
9.65424	0.95
9.6941	0.951
9.73397	0.951
9.77383	0.951
9.8137	0.946
9.85356	0.898
9.89343	0.84
9.9333	0.858
9.97316	0.901
10.013	0.915
10.0529	0.92
10.0928	0.923
10.1326	0.921
10.1725	0.895
10.2124	0.825
10.2522	0.728
10.2921	0.622
10.332	0.612
10.3718	0.728
10.4117	0.805
10.4516	0.853
10.4914	0.885
10.5313	0.908
10.5711	0.918
10.611	0.92
10.6509	0.921
10.6907	0.925
10.7306	0.926
10.7705	0.926
10.8103	0.928
10.8502	0.931
10.8901	0.93
10.9299	0.931
10.9698	0.926
11.0097	0.92
11.0495	0.911
11.0894	0.901
11.1293	0.89
11.1691	0.868
11.209	0.855
11.2489	0.843
11.2887	0.836
11.3286	0.828
11.3685	0.811
11.4083	0.798
11.4482	0.788
11.4881	0.78
11.5279	0.772
11.5678	0.758
11.6077	0.745
11.6475	0.735
11.6874	0.725
11.7273	0.72
11.7671	0.715
11.807	0.713
11.8469	0.705
11.8867	0.7
11.9266	0.688
11.9665	0.675
12.0063	0.67
12.0462	0.67
12.0861	0.702
12.1259	0.723
12.1658	0.738
12.2056	0.76
12.2455	0.767
12.2854	0.77
12.3252	0.777
12.3651	0.782
12.405	0.788
12.4448	0.798
12.4847	0.803
12.5246	0.815
12.5644	0.818
12.6043	0.825
12.6442	0.835
12.684	0.84
12.7239	0.841
12.7638	0.84
12.8036	0.828
12.8435	0.785
12.8834	0.65
12.9232	0.362
12.9631	0.405
13.003	0.673
13.0428	0.762
13.0827	0.801
13.1226	0.815
13.1624	0.816
13.2023	0.806
13.2422	0.782
13.282	0.742
13.3219	0.688
13.3618	0.622
13.4016	0.555
13.4415	0.489
13.4814	0.465
13.5212	0.465
13.5611	0.495
13.601	0.539
13.6408	0.562
13.6807	0.579
13.7205	0.603
13.7604	0.648
13.8003	0.692
13.8401	0.727
13.88	0.758
13.9199	0.79
13.9597	0.81
13.9996	0.821
14.0395	0.833
14.0793	0.843
14.1192	0.85
14.1591	0.855
14.1989	0.856
14.2388	0.858
14.2787	0.856
14.3185	0.856
14.3584	0.856
14.3983	0.856
14.4381	0.856
14.478	0.853
14.5179	0.848
14.5577	0.84
14.5976	0.84
14.6375	0.84
14.6773	0.838
14.7172	0.836
14.7571	0.833
14.7969	0.828
14.8368	0.823
14.8767	0.818
14.9165	0.798
14.9564	0.757
14.9963	0.72
15.0361	0.718
15.076	0.733
15.1159	0.742
15.1557	0.735
15.1956	0.713
15.2354	0.7
15.2753	0.685
15.3152	0.668
15.355	0.652
15.3949	0.637
15.4348	0.623
15.4746	0.612
15.5145	0.599
15.5544	0.589
15.5942	0.577
15.6341	0.564
15.674	0.554
15.7138	0.542
15.7537	0.532
15.7936	0.524
15.8334	0.512
15.8733	0.499
15.9132	0.489
15.953	0.482
15.9929	0.477
