Infrared Spectrum: 3-PROPYL-2-PYRAZOLIN-5-ONE
Formula: C6 H10 N2 O
CAS: 29211-70-9
Class: COBLENTZ
Instrument: Not specified, most likely a prism, grating, or hybrid spectrometer.
Sampling: TRANSMISSION
Resolution: 4
Origin: TENNESSEE EASTMAN COMPANY, RESEARCH LABORATORIES
MICROMETERS	TRANSMITTANCE
1.993	0.903
2.03285	0.908
2.07269	0.918
2.11254	0.921
2.15238	0.928
2.19223	0.94
2.23207	0.943
2.27192	0.946
2.31177	0.95
2.35161	0.953
2.39146	0.953
2.4313	0.956
2.47115	0.963
2.51099	0.965
2.55084	0.966
2.59069	0.97
2.63053	0.97
2.67038	0.971
2.71022	0.971
2.75007	0.951
2.78992	0.906
2.82976	0.866
2.86961	0.836
2.90945	0.821
2.9493	0.811
2.98914	0.82
3.02899	0.826
3.06884	0.793
3.10868	0.747
3.14853	0.7
3.18837	0.633
3.22822	0.603
3.26806	0.565
3.30791	0.544
3.34776	0.415
3.3876	0.301
3.42745	0.327
3.46729	0.312
3.50714	0.337
3.54698	0.346
3.58683	0.316
3.62668	0.279
3.66652	0.261
3.70637	0.249
3.74621	0.251
3.78606	0.247
3.8259	0.246
3.86575	0.246
3.9056	0.251
3.94544	0.259
3.98529	0.279
4.02513	0.292
4.06498	0.312
4.10482	0.327
4.14467	0.341
4.18452	0.364
4.22436	0.364
4.26421	0.356
4.30405	0.361
4.3439	0.424
4.38375	0.48
4.42359	0.5
4.46344	0.52
4.50328	0.559
4.54313	0.59
4.58297	0.617
4.62282	0.663
4.66267	0.678
4.70251	0.697
4.74236	0.715
4.7822	0.728
4.82205	0.753
4.86189	0.773
4.90174	0.787
4.94159	0.798
4.98143	0.808
5.02128	0.821
5.06112	0.83
5.10097	0.831
5.14081	0.833
5.18066	0.83
5.22051	0.823
5.26035	0.83
5.3002	0.831
5.34004	0.831
5.37989	0.833
5.41973	0.833
5.45958	0.821
5.49943	0.828
5.53927	0.811
5.57912	0.813
5.61896	0.815
5.65881	0.815
5.69865	0.813
5.7385	0.801
5.77835	0.803
5.81819	0.801
5.85804	0.801
5.89788	0.81
5.93773	0.806
5.97758	0.795
6.01742	0.76
6.05727	0.678
6.09711	0.432
6.13696	0.113
6.1768	0.038
6.21665	0.021
6.2565	0.091
6.29634	0.222
6.33619	0.224
6.37603	0.166
6.41588	0.129
6.45572	0.124
6.49557	0.186
6.53542	0.193
6.57526	0.143
6.61511	0.129
6.65495	0.166
6.6948	0.284
6.73464	0.304
6.77449	0.276
6.81434	0.247
6.85418	0.281
6.89403	0.332
6.93387	0.357
6.97372	0.407
7.01356	0.43
7.05341	0.482
7.09326	0.537
7.1331	0.579
7.17295	0.628
7.21279	0.652
7.25264	0.67
7.29249	0.73
7.33233	0.763
7.37218	0.792
7.41202	0.818
7.45187	0.83
7.49171	0.83
7.53156	0.871
7.57141	0.878
7.61125	0.893
7.6511	0.89
7.69094	0.873
7.73079	0.851
7.77063	0.806
7.81048	0.83
7.85033	0.845
7.89017	0.831
7.93002	0.83
7.96986	0.823
8.00971	0.84
8.04955	0.866
8.0894	0.901
8.12925	0.903
8.16909	0.905
8.20894	0.908
8.24878	0.915
8.28863	0.911
8.32847	0.828
8.36832	0.692
8.40817	0.653
8.44801	0.747
8.48786	0.846
8.5277	0.886
8.56755	0.863
8.60739	0.85
8.64724	0.893
8.68709	0.93
8.72693	0.953
8.76678	0.96
8.80662	0.97
8.84647	0.975
8.88632	0.978
8.92616	0.985
8.96601	0.988
9.00585	0.985
9.0457	0.971
9.08554	0.948
9.12539	0.92
9.16524	0.91
9.20508	0.915
9.24493	0.928
9.28477	0.933
9.32462	0.943
9.36446	0.95
9.40431	0.961
9.44416	0.966
9.484	0.961
9.52385	0.933
9.56369	0.915
9.60354	0.893
9.64338	0.913
9.68323	0.926
9.72308	0.933
9.76292	0.926
9.80277	0.886
9.84261	0.816
9.88246	0.715
9.9223	0.652
9.96215	0.702
10.002	0.75
10.0418	0.752
10.0817	0.675
10.1215	0.562
10.1614	0.47
10.2012	0.419
10.2411	0.425
10.2809	0.497
10.3208	0.595
10.3606	0.658
10.4005	0.717
10.4403	0.748
10.4801	0.775
10.52	0.792
10.5598	0.803
10.5997	0.813
10.6395	0.815
10.6794	0.813
10.7192	0.81
10.7591	0.803
10.7989	0.798
10.8388	0.788
10.8786	0.78
10.9184	0.767
10.9583	0.752
10.9981	0.728
11.038	0.702
11.0778	0.663
11.1177	0.667
11.1575	0.685
11.1974	0.698
11.2372	0.71
11.2771	0.715
11.3169	0.718
11.3568	0.722
11.3966	0.72
11.4364	0.72
11.4763	0.72
11.5161	0.723
11.556	0.725
11.5958	0.72
11.6357	0.718
11.6755	0.723
11.7154	0.728
11.7552	0.73
11.7951	0.73
11.8349	0.73
11.8747	0.733
11.9146	0.733
11.9544	0.737
11.9943	0.737
12.0341	0.738
12.074	0.738
12.1138	0.74
12.1537	0.74
12.1935	0.742
12.2334	0.743
12.2732	0.743
12.313	0.742
12.3529	0.742
12.3927	0.742
12.4326	0.742
12.4724	0.747
12.5123	0.752
12.5521	0.752
12.592	0.74
12.6318	0.71
12.6717	0.677
12.7115	0.615
12.7514	0.555
12.7912	0.484
12.831	0.422
12.8709	0.386
12.9107	0.364
12.9506	0.347
12.9904	0.304
13.0303	0.269
13.0701	0.267
13.11	0.289
13.1498	0.356
13.1897	0.442
13.2295	0.507
13.2693	0.555
13.3092	0.587
13.349	0.607
13.3889	0.623
13.4287	0.635
13.4686	0.657
13.5084	0.683
13.5483	0.722
13.5881	0.762
13.628	0.801
13.6678	0.823
13.7077	0.84
13.7475	0.86
13.7873	0.875
13.8272	0.888
13.867	0.89
13.9069	0.898
13.9467	0.905
13.9866	0.91
14.0264	0.908
14.0663	0.908
14.1061	0.9
14.146	0.88
14.1858	0.858
14.2256	0.83
14.2655	0.821
14.3053	0.818
14.3452	0.816
14.385	0.816
14.4249	0.813
14.4647	0.815
14.5046	0.815
14.5444	0.816
14.5843	0.815
14.6241	0.816
14.6639	0.818
14.7038	0.816
14.7436	0.815
14.7835	0.815
14.8233	0.81
14.8632	0.806
14.903	0.798
14.9429	0.772
14.9827	0.743
15.0226	0.737
15.0624	0.738
15.1023	0.75
15.1421	0.752
15.1819	0.74
15.2218	0.725
15.2616	0.715
15.3015	0.707
15.3413	0.697
15.3812	0.687
15.421	0.673
15.4609	0.668
15.5007	0.658
15.5406	0.65
15.5804	0.645
15.6202	0.63
15.6601	0.62
15.6999	0.615
15.7398	0.605
15.7796	0.597
15.8195	0.585
15.8593	0.579
15.8992	0.569
15.939	0.564
15.9789	0.555
