Infrared Spectrum: Dursban
Formula: C 9 H 11 Cl 3 N O 3 P S
CAS: 2921-88-2
State: gas
Instrument: HP-GC/MS/IRD
Origin: NIST Mass Spectrometry Data Center
1/CM	ABSORBANCE
550	0.0016616
562	0.0002914
574	0.000279
586	0.000124
598	8.06e-05
610	0.0003844
622	0.0009734
634	0.001426
646	0.0017732
658	0.0034968
670	0.0049352
682	0.0048174
694	0.002852
706	0.0043338
718	0.0051212
730	0.0030194
742	0.004588
754	0.0042656
766	0.0030008
778	0.0043152
790	0.0069378
802	0.008959
814	0.0142786
826	0.025761
838	0.0382478
850	0.0474796
862	0.0292392
874	0.010881
886	0.0059768
898	0.006634
910	0.0038936
922	0.0041106
934	0.006727
946	0.014167
958	0.0344782
970	0.0417818
982	0.019499
994	0.0114576
1006	0.0133734
1018	0.0253704
1030	0.0506974
1042	0.0557504
1054	0.0463698
1066	0.0442308
1078	0.0350362
1090	0.0269204
1102	0.0141608
1114	0.0085808
1126	0.0064542
1138	0.006541
1150	0.0086614
1162	0.0165912
1174	0.007037
1186	0.0044702
1198	0.0037014
1210	0.0045942
1222	0.0083948
1234	0.0054374
1246	0.0037386
1258	0.006479
1270	0.0139686
1282	0.0103044
1294	0.0048236
1306	0.0035526
1318	0.00403
1330	0.0092814
1342	0.0098394
1354	0.0055738
1366	0.0074152
1378	0.0123566
1390	0.0264306
1402	0.0510632
1414	0.0573872
1426	0.0303738
1438	0.0131502
1450	0.0064232
1462	0.0040796
1474	0.0033976
1486	0.0031186
1498	0.002945
1510	0.0031248
1522	0.0051088
1534	0.0102548
1546	0.009703
1558	0.0041044
1570	0.003193
1582	0.0016244
1594	0.0010788
1606	0.0007998
1618	0.0006262
1630	0.0005022
1642	0.0004836
1654	0.0003906
1666	0.0003782
1678	0.0004588
1690	0.000403
1702	0.0003906
1714	0.0003782
1726	0.0003224
1738	0.0002604
1750	0.0002542
1762	0.000248
1774	0.0003038
1786	0.000465
1798	0.0005146
1810	0.0003906
1822	0.0004526
1834	0.000589
1846	0.00062
1858	0.0005642
1870	0.0004898
1882	0.0003658
1894	0.0002604
1906	0.000186
1918	0.0001488
1930	0.0001178
1942	9.92e-05
1954	2.48e-05
1966	1.24e-05
1978	4.96e-05
1990	3.72e-05
2002	4.34e-05
2014	8.68e-05
2026	7.44e-05
2038	1.24e-05
2050	0
2062	1.86e-05
2074	9.3e-05
2086	0.0001302
2098	8.06e-05
2110	5.58e-05
2122	4.34e-05
2134	2.48e-05
2146	3.1e-05
2158	4.96e-05
2170	1.24e-05
2182	3.72e-05
2194	2.48e-05
2206	4.96e-05
2218	4.34e-05
2230	0.000124
2242	0.000124
2254	6.2e-05
2266	4.96e-05
2278	2.48e-05
2290	4.34e-05
2302	4.96e-05
2314	4.34e-05
2326	3.1e-05
2338	8.06e-05
2350	9.3e-05
2362	0.0001302
2374	0.0001674
2386	0.0001054
2398	3.72e-05
2410	0
2422	3.1e-05
2434	3.1e-05
2446	6.82e-05
2458	7.44e-05
2470	0.0001054
2482	0.000155
2494	0.0001984
2506	0.0001984
2518	0.000155
2530	0.0001674
2542	0.0001674
2554	0.0001116
2566	0.000124
2578	5.58e-05
2590	3.72e-05
2602	4.96e-05
2614	6.82e-05
2626	1.86e-05
2638	3.1e-05
2650	2.48e-05
2662	7.44e-05
2674	6.2e-05
2686	1.86e-05
2698	3.72e-05
2710	1.86e-05
2722	0.0001364
2734	0.0002356
2746	0.0002976
2758	0.0003472
2770	0.0003782
2782	0.00031
2794	0.0002232
2806	0.0002046
2818	0.0002294
2830	0.000341
2842	0.0004154
2854	0.0005394
2866	0.0008432
2878	0.0014384
2890	0.001736
2902	0.0021452
2914	0.0029388
2926	0.0031186
2938	0.0054436
2950	0.0050778
2962	0.0038006
2974	0.0055242
2986	0.0086614
2998	0.0072106
3010	0.0041416
3022	0.0023746
3034	0.0013888
3046	0.0008246
3058	0.0005332
3070	0.0003906
3082	0.0004216
3094	0.0002914
3106	0.000248
3118	0.000217
3130	0.0001736
3142	0.0001612
3154	0.000155
3166	0.000217
3178	0.0001302
3190	0.0001116
3202	0.000124
3214	0.0001674
3226	0.0001302
3238	8.68e-05
3250	0.0001178
3262	5.58e-05
3274	6.2e-05
3286	8.68e-05
3298	7.44e-05
3310	2.48e-05
3322	0.0001116
3334	5.58e-05
3346	7.44e-05
3358	0.0001054
3370	0.0001116
3382	5.58e-05
3394	6.82e-05
3406	2.48e-05
3418	6.82e-05
3430	4.34e-05
3442	0.0001612
3454	7.44e-05
3466	4.96e-05
3478	8.06e-05
3490	0.0001178
3502	3.1e-05
3514	0.0001178
3526	0.0001426
3538	8.06e-05
3550	0.0001116
3562	0.0001674
3574	0.0001364
3586	0.0001426
3598	0.0001116
3610	0.0001674
3622	0.000186
3634	0.0001674
3646	0.0001674
3658	0.000155
3670	0.0001984
3682	0.0002232
3694	0.0002108
3706	0.0001736
3718	0.0001798
3730	0.0002232
3742	0.0002604
3754	0.0001674
3766	0.0001674
3778	0.0002108
3790	0.000186
3802	0.0001798
3814	0.0002294
3826	0.0001612
3838	0.000186
