Infrared Spectrum: 3,5,7,8-TETRACHLORO-2,2,3,4,4,5,6,6,7,8,8-UNDECAFLUORO OCTANOIC ACID
Formula: C8 H Cl4 F11 O2
CAS: 2923-68-4
State: LIQUID
Class: COBLENTZ
Instrument: Not specified, most likely a prism, grating, or hybrid spectrometer.
Sampling: TRANSMISSION
Path length: CAPILLARY
Resolution: 4
Origin: WYANDOTTE CHEMICALS CORP., WYANDOTTE, MICHIGAN, USA
MICROMETERS	TRANSMITTANCE
2.012	0.95
2.04922	0.956
2.08644	0.945
2.12366	0.955
2.16087	0.969
2.19809	0.975
2.23531	0.959
2.27253	0.97
2.30975	0.962
2.34697	0.978
2.38419	0.969
2.4214	0.976
2.45862	0.976
2.49584	0.981
2.53306	0.976
2.57028	0.976
2.6075	0.972
2.64472	0.958
2.68194	0.908
2.71915	0.899
2.75637	0.883
2.79359	0.804
2.83081	0.736
2.86803	0.721
2.90525	0.691
2.94247	0.65
2.97968	0.574
3.0169	0.439
3.05412	0.311
3.09134	0.232
3.12856	0.201
3.16578	0.179
3.203	0.173
3.24021	0.184
3.27743	0.201
3.31465	0.253
3.35187	0.263
3.38909	0.269
3.42631	0.284
3.46353	0.32
3.50075	0.362
3.53796	0.427
3.57518	0.493
3.6124	0.538
3.64962	0.563
3.68684	0.558
3.72406	0.551
3.76128	0.599
3.79849	0.622
3.83571	0.64
3.87293	0.636
3.91015	0.623
3.94737	0.594
3.98459	0.611
4.02181	0.656
4.05902	0.673
4.09624	0.705
4.13346	0.733
4.17068	0.758
4.2079	0.773
4.24512	0.784
4.28234	0.791
4.31956	0.797
4.35677	0.8
4.39399	0.821
4.43121	0.823
4.46843	0.826
4.50565	0.843
4.54287	0.848
4.58009	0.86
4.6173	0.871
4.65452	0.877
4.69174	0.904
4.72896	0.904
4.76618	0.904
4.8034	0.902
4.84062	0.907
4.87783	0.9
4.91505	0.904
4.95227	0.902
4.98949	0.9
5.02671	0.902
5.06393	0.888
5.10115	0.886
5.13837	0.882
5.17558	0.882
5.2128	0.882
5.25002	0.879
5.28724	0.876
5.32446	0.876
5.36168	0.86
5.3989	0.854
5.43611	0.834
5.47333	0.808
5.51055	0.749
5.54777	0.613
5.58499	0.321
5.62221	0.074
5.65943	0.027
5.69664	0.035
5.73386	0.196
5.77108	0.377
5.8083	0.498
5.84552	0.58
5.88274	0.628
5.91996	0.668
5.95718	0.707
5.99439	0.732
6.03161	0.749
6.06883	0.756
6.10605	0.761
6.14327	0.76
6.18049	0.761
6.21771	0.792
6.25492	0.814
6.29214	0.817
6.32936	0.823
6.36658	0.823
6.4038	0.823
6.44102	0.815
6.47824	0.811
6.51545	0.818
6.55267	0.82
6.58989	0.82
6.62711	0.817
6.66433	0.811
6.70155	0.8
6.73877	0.784
6.77599	0.752
6.8132	0.707
6.85042	0.626
6.88764	0.53
6.92486	0.39
6.96208	0.317
6.9993	0.376
7.03652	0.49
7.07373	0.568
7.11095	0.62
7.14817	0.665
7.18539	0.699
7.22261	0.719
7.25983	0.741
7.29705	0.753
7.33426	0.755
7.37148	0.755
7.4087	0.746
7.44592	0.727
7.48314	0.724
7.52036	0.715
7.55758	0.698
7.5948	0.664
7.63201	0.628
7.66923	0.558
7.70645	0.467
7.74367	0.366
7.78089	0.243
7.81811	0.154
7.85533	0.117
7.89254	0.113
7.92976	0.106
7.96698	0.102
8.0042	0.125
8.04142	0.1
8.07864	0.063
8.11586	0.041
8.15307	0.037
8.19029	0.03
8.22751	0.027
8.26473	0.024
8.30195	0.02
8.33917	0.024
8.37639	0.018
8.4136	0.021
8.45082	0.024
8.48804	0.02
8.52526	0.029
8.56248	0.026
8.5997	0.027
8.63692	0.024
8.67414	0.027
8.71135	0.026
8.74857	0.041
8.78579	0.038
8.82301	0.037
8.86023	0.027
8.89745	0.024
8.93467	0.034
8.97188	0.069
9.0091	0.126
9.04632	0.174
9.08354	0.178
9.12076	0.171
9.15798	0.199
9.1952	0.264
9.23241	0.331
9.26963	0.376
9.30685	0.386
9.34407	0.385
9.38129	0.399
9.41851	0.39
9.45573	0.337
9.49295	0.272
9.53016	0.19
9.56738	0.133
9.6046	0.125
9.64182	0.162
9.67904	0.221
9.71626	0.222
9.75348	0.215
9.79069	0.261
9.82791	0.351
9.86513	0.441
9.90235	0.527
9.93957	0.563
9.97679	0.575
10.014	0.565
10.0512	0.509
10.0884	0.419
10.1257	0.294
10.1629	0.184
10.2001	0.108
10.2373	0.052
10.2745	0.04
10.3118	0.034
10.349	0.037
10.3862	0.052
10.4234	0.057
10.4606	0.065
10.4978	0.069
10.5351	0.088
10.5723	0.113
10.6095	0.114
10.6467	0.119
10.6839	0.134
10.7212	0.168
10.7584	0.185
10.7956	0.181
10.8328	0.188
10.87	0.207
10.9073	0.229
10.9445	0.226
10.9817	0.199
11.0189	0.176
11.0561	0.167
11.0933	0.164
11.1306	0.202
11.1678	0.227
11.205	0.261
11.2422	0.287
11.2794	0.315
11.3167	0.335
11.3539	0.337
11.3911	0.332
11.4283	0.326
11.4655	0.303
11.5028	0.295
11.54	0.306
11.5772	0.323
11.6144	0.352
11.6516	0.368
11.6888	0.388
11.7261	0.4
11.7633	0.421
11.8005	0.439
11.8377	0.452
11.8749	0.45
11.9122	0.447
11.9494	0.442
11.9866	0.444
12.0238	0.444
12.061	0.442
12.0982	0.431
12.1355	0.402
12.1727	0.369
12.2099	0.343
12.2471	0.337
12.2843	0.349
12.3216	0.359
12.3588	0.369
12.396	0.369
12.4332	0.382
12.4704	0.397
12.5077	0.402
12.5449	0.411
12.5821	0.41
12.6193	0.421
12.6565	0.427
12.6937	0.439
12.731	0.442
12.7682	0.452
12.8054	0.45
12.8426	0.453
12.8798	0.448
12.9171	0.452
12.9543	0.455
12.9915	0.465
13.0287	0.478
13.0659	0.492
13.1032	0.501
13.1404	0.513
13.1776	0.517
13.2148	0.524
13.252	0.526
13.2892	0.527
13.3265	0.541
13.3637	0.546
13.4009	0.558
13.4381	0.552
13.4753	0.546
13.5126	0.527
13.5498	0.515
13.587	0.5
13.6242	0.481
13.6614	0.481
13.6987	0.478
13.7359	0.481
13.7731	0.478
13.8103	0.47
13.8475	0.464
13.8847	0.461
13.922	0.472
13.9592	0.478
13.9964	0.479
14.0336	0.476
14.0708	0.473
14.1081	0.462
14.1453	0.448
14.1825	0.425
14.2197	0.4
14.2569	0.377
14.2941	0.345
14.3314	0.335
14.3686	0.318
14.4058	0.314
14.443	0.301
14.4802	0.311
14.5175	0.317
14.5547	0.329
14.5919	0.339
14.6291	0.36
14.6663	0.366
14.7036	0.382
14.7408	0.386
14.778	0.399
14.8152	0.396
14.8524	0.397
14.8896	0.391
14.9269	0.391
14.9641	0.394
15.0013	0.407
15.0385	0.424
15.0757	0.442
15.113	0.433
15.1502	0.43
15.1874	0.43
15.2246	0.448
15.2618	0.452
15.2991	0.458
15.3363	0.459
15.3735	0.462
15.4107	0.462
15.4479	0.467
15.4851	0.469
15.5224	0.467
15.5596	0.479
15.5968	0.484
15.634	0.49
15.6712	0.492
15.7085	0.49
15.7457	0.503
15.7829	0.504
15.8201	0.506
15.8573	0.507
15.8946	0.51
15.9318	0.513
15.969	0.52
