Infrared Spectrum: 3-Chloro-4-fluoroacetophenone
Formula: C 8 H 6 Cl F O
CAS: 2923-66-2
State: gas
Origin: EPA-IR VAPOR PHASE LIBRARY
1/CM	ABSORBANCE
549.8	0.002542
559.445	0.004342
569.09	0.005772
578.734	0.006782
588.379	0.006492
598.024	0.003332
607.669	0.002312
617.313	0.003402
626.958	0.001812
636.603	0.001372
646.248	0.0007679
655.893	0.001922
665.537	0.003352
675.182	0.002232
684.827	0.0007101
694.472	0.001722
704.116	0.001822
713.761	0.005122
723.406	0.008042
733.051	0.005522
742.695	0.002202
752.34	0.001292
761.985	0.0007351
771.63	0.001062
781.275	0.0009829
790.919	0.001682
800.564	0.002812
810.209	0.005702
819.854	0.009002
829.498	0.008702
839.143	0.004652
848.788	0.003802
858.433	0.004412
868.078	0.004062
877.722	0.003802
887.367	0.002842
897.012	0.002342
906.657	0.002782
916.301	0.001942
925.946	0.002032
935.591	0.002412
945.236	0.002792
954.88	0.004182
964.525	0.004292
974.17	0.002712
983.815	0.001572
993.46	0.001422
1003.1	0.001952
1012.75	0.002112
1022.39	0.002192
1032.04	0.002092
1041.68	0.003212
1051.33	0.005072
1060.97	0.007162
1070.62	0.006752
1080.26	0.007182
1089.91	0.007692
1099.55	0.004162
1109.2	0.0008149
1118.84	0.001812
1128.49	0.003082
1138.13	0.002742
1147.78	0.002302
1157.42	0.0009124
1167.07	0.0006681
1176.71	0.001182
1186.36	0.001452
1196	0.0010358
1205.64	0.003142
1215.29	0.007842
1224.93	0.012232
1234.58	0.017662
1244.22	0.019142
1253.87	0.049112
1263.51	0.090952
1273.16	0.054002
1282.8	0.010812
1292.45	0.005832
1302.09	0.003422
1311.74	0.002962
1321.38	0.002432
1331.03	0.002242
1340.67	0.003192
1350.32	0.007582
1359.96	0.012452
1369.61	0.008732
1379.25	0.008912
1388.9	0.015022
1398.54	0.015012
1408.18	0.006502
1417.83	0.004212
1427.47	0.004072
1437.12	0.003892
1446.76	0.003352
1456.41	0.002802
1466.05	0.003042
1475.7	0.005002
1485.34	0.014332
1494.99	0.022982
1504.63	0.013302
1514.28	0.005702
1523.92	0.003622
1533.57	0.002922
1543.21	0.002922
1552.86	0.002962
1562.5	0.004042
1572.15	0.008402
1581.79	0.015072
1591.44	0.018272
1601.08	0.012302
1610.73	0.005442
1620.37	0.002672
1630.01	0.002452
1639.66	0.002292
1649.3	0.002302
1658.95	0.003272
1668.59	0.003952
1678.24	0.004062
1687.88	0.007202
1697.53	0.024042
1707.17	0.044352
1716.82	0.029872
1726.46	0.007902
1736.11	0.003692
1745.75	0.004252
1755.4	0.003662
1765.04	0.002172
1774.69	0.001472
1784.33	0.001512
1793.98	0.001152
1803.62	0.001152
1813.27	0.001072
1822.91	0.0009997
1832.55	0.0010028
1842.2	0.001172
1851.84	0.0010451
1861.49	0.0010328
1871.13	0.000884
1880.78	0.0008566
1890.42	0.0007572
1900.07	0.001062
1909.71	0.001222
1919.36	0.0010228
1929	0.0009671
1938.65	0.0008998
1948.29	0.0007841
1957.94	0.000546
1967.58	0.0006825
1977.23	0.0009589
1986.87	0.000706
1996.52	0.0007125
2006.16	0.0009407
2015.81	0.000794
2025.45	0.001049
2035.1	0.0006641
2044.74	0.0006471
2054.38	0.0007963
2064.03	0.0006615
2073.67	0.0006033
2083.32	0.0008274
2092.96	0.0008315
2102.61	0.0007569
2112.25	0.000868
2121.9	0.0010077
2131.54	0.0008742
2141.19	0.0007257
2150.83	0.0009385
2160.48	0.0006758
2170.12	0.0006075
2179.77	0.0008223
2189.41	0.0006721
2199.06	0.0007824
2208.7	0.0008975
2218.35	0.0010239
2227.99	0.0010229
2237.64	0.0005898
2247.28	0.0006783
2256.92	0.0006837
2266.57	0.0005923
2276.21	0.0008363
2285.86	0.0008306
2295.5	0.000635
2305.15	0.0005613
2314.79	0.000658
2324.44	0.0008336
2334.08	0.0007474
2343.73	0.0004848
2353.37	0.0006398
2363.02	0.0006794
2372.66	0.0008679
2382.31	0.0007143
2391.95	0.0007704
2401.6	0.0007695
2411.24	0.0005267
2420.89	0.000562
2430.53	0.0010326
2440.18	0.0007876
2449.82	0.00098
2459.47	0.0009341
2469.11	0.0009406
2478.75	0.0008292
2488.4	0.0008445
2498.04	0.0009076
2507.69	0.0007407
2517.33	0.0009576
2526.98	0.0008815
2536.62	0.0009701
2546.27	0.0008578
2555.91	0.0008765
2565.56	0.001242
2575.2	0.001102
2584.85	0.001362
2594.49	0.0006917
2604.14	0.0007762
2613.78	0.0004762
2623.43	0.0007697
2633.07	0.0008765
2642.72	0.0010405
2652.36	0.0009412
2662.01	0.0006312
2671.65	0.000587
2681.29	0.0010137
2690.94	0.0005127
2700.58	0.001172
2710.23	0.0008518
2719.87	0.001142
2729.52	0.0009784
2739.16	0.0009095
2748.81	0.0007793
2758.45	0.0008322
2768.1	0.0005649
2777.74	0.0009702
2787.39	0.0004213
2797.03	0.000775
2806.68	0.0009274
2816.32	0.000981
2825.97	0.0008664
2835.61	0.0007839
2845.26	0.0007892
2854.9	0.001024
2864.55	0.001122
2874.19	0.001252
2883.84	0.001072
2893.48	0.0007245
2903.12	0.0009918
2912.77	0.0008213
2922.41	0.001332
2932.06	0.001642
2941.7	0.001542
2951.35	0.001582
2960.99	0.001632
2970.64	0.001422
2980.28	0.002012
2989.93	0.0009958
2999.57	0.001592
3009.22	0.001982
3018.86	0.001832
3028.51	0.001952
3038.15	0.001752
3047.8	0.001542
3057.44	0.001532
3067.09	0.001642
3076.73	0.002622
3086.38	0.002022
3096.02	0.001612
3105.67	0.000722
3115.31	0.001422
3124.95	0.001122
3134.6	0.001372
3144.24	0.001102
3153.89	0.0008165
3163.53	0.0005307
3173.18	0.0010043
3182.82	0.001242
3192.47	0.000664
3202.11	0.0008021
3211.76	0.0009226
3221.4	0.0008134
3231.05	0.0009389
3240.69	0.0006484
3250.34	0.0009694
3259.98	0.0008216
3269.63	0.0003175
3279.27	0.001062
3288.92	0.0005661
3298.56	0.001192
3308.21	0.0007906
3317.85	0.0005905
3327.49	0.0008027
3337.14	0.0006843
3346.78	0.0006483
3356.43	0.0008551
3366.07	0.0002823
3375.72	0.0009614
3385.36	0.001382
3395.01	0.001992
3404.65	0.001352
3414.3	0.001432
3423.94	0.0009099
3433.59	0.0008418
3443.23	0.0007547
3452.88	0.0005193
3462.52	0.0006756
3472.17	0.0010004
3481.81	0.0008445
3491.46	0.000544
3501.1	0.0007837
3510.75	0.0008088
3520.39	0.0010254
3530.04	0.0006812
3539.68	0.000792
3549.32	0.0007708
3558.97	0.0004444
3568.61	0.0007618
3578.26	0.0008669
3587.9	0.0006384
3597.55	0.0003659
3607.19	0.0002094
3616.84	0.0006606
3626.48	0.0004996
3636.13	0.001132
3645.77	0.0007943
3655.42	0.0006491
3665.06	0.0004709
3674.71	0.0009921
3684.35	0.0003327
3694	0.000537
3703.64	0.0005797
3713.29	0.0005447
3722.93	0.0005269
3732.58	0.0007062
3742.22	0.001132
3751.86	0.0008801
3761.51	0.0005278
3771.15	0.0002632
3780.8	8.19e-05
3790.44	0.0007553
3800.09	0.001452
3809.73	0.0005251
3819.38	0.0006692
3829.02	0.0008304
3838.67	0.001392
3848.31	0.0006528
3857.96	0.000852
3867.6	0.000812
3877.25	0.000724
3886.89	0.0006729
3896.54	0.0008825
3906.18	0.0008334
3915.83	0.0008315
3925.47	0.0010283
3935.12	0.0009068
3944.76	0.0007142
3954.41	0.0005313
3964.05	0.0006017
3973.69	0.001262
3983.34	0.0004844
3992.98	0.001162
