Infrared Spectrum: 4-Fluoro-2-nitrobenzaldehyde
Formula: C7 H4 F N O3
CAS: 2923-96-8
State: SOLUTION (10% CCl4 FOR 3800-1330, 10% CS2 FOR 1330-460 CM^-^1)
Class: COBLENTZ III
Instrument: DOW KBr FOREPRISM-GRATING
Instrument parameters: BLAZED AT 3.5, 12.0, 20.0 MICRON AND CHANGED AT 5.0, 7.5, 14.9 MICRON
Sampling: TRANSMISSION
Path length: 0.010 CM, 0.011 CM
Resolution: 2
Origin: DOW CHEMICAL COMPANY
1/CM	TRANSMITTANCE
3800	0.8471
3791	0.8477
3782	0.8483
3773	0.8478
3764	0.8467
3755	0.8461
3746	0.8462
3737	0.8466
3728	0.847
3719	0.8473
3710	0.8475
3701	0.8478
3692	0.848
3683	0.8478
3674	0.8478
3665	0.8477
3656	0.848
3647	0.8485
3638	0.8491
3629	0.8495
3620	0.8494
3611	0.8491
3602	0.849
3593	0.8484
3584	0.8475
3575	0.8468
3566	0.8464
3557	0.8458
3548	0.8452
3539	0.8445
3530	0.8438
3521	0.8431
3512	0.8425
3503	0.842
3494	0.8415
3485	0.841
3476	0.8405
3467	0.8401
3458	0.8398
3449	0.8394
3440	0.8383
3431	0.8368
3422	0.8348
3413	0.8318
3404	0.8256
3395	0.799
3386	0.7703
3377	0.7742
3368	0.7981
3359	0.8168
3350	0.8248
3341	0.8267
3332	0.8273
3323	0.8278
3314	0.829
3305	0.83
3296	0.831
3287	0.832
3278	0.8331
3269	0.8331
3260	0.8327
3251	0.8318
3242	0.8304
3233	0.8281
3224	0.8248
3215	0.8221
3206	0.8202
3197	0.8185
3188	0.8189
3179	0.8178
3170	0.8161
3161	0.8142
3152	0.8111
3143	0.8043
3134	0.7893
3125	0.768
3116	0.646
3107	0.633
3098	0.536
3089	0.6215
3080	0.7015
3071	0.7315
3062	0.7414
3053	0.7308
3044	0.7832
3035	0.7985
3026	0.8061
3017	0.8098
3008	0.8101
2999	0.8004
2990	0.7922
2981	0.7924
2972	0.7921
2963	0.7897
2954	0.7835
2945	0.7748
2936	0.7542
2927	0.7301
2918	0.673
2909	0.6279
2900	0.6057
2891	0.594
2882	0.5942
2873	0.6309
2864	0.6787
2855	0.7078
2846	0.7272
2837	0.7461
2828	0.7614
2819	0.778
2810	0.7868
2801	0.7861
2792	0.7853
2783	0.7886
2774	0.7858
2765	0.7678
2756	0.7608
2747	0.7786
2738	0.7908
2729	0.8011
2720	0.8076
2711	0.8124
2702	0.8141
2693	0.8147
2684	0.8165
2675	0.8156
2666	0.8065
2657	0.8084
2648	0.8151
2639	0.8171
2630	0.8174
2621	0.8007
2612	0.7918
2603	0.798
2594	0.8121
2585	0.8218
2576	0.8293
2567	0.8331
2558	0.8342
2549	0.8337
2540	0.8328
2531	0.8325
2522	0.8344
2513	0.8377
2504	0.8353
2495	0.8287
2486	0.8286
2477	0.8311
2468	0.8336
2459	0.8354
2450	0.8366
2441	0.8348
2432	0.8309
2423	0.8365
2414	0.8408
2405	0.8413
2396	0.8424
2387	0.8438
2378	0.8453
2369	0.8467
2360	0.8481
2351	0.8495
2342	0.8505
2333	0.8514
2324	0.8523
2315	0.8532
2306	0.8543
2297	0.8554
2288	0.8564
2279	0.8582
2270	0.8601
2261	0.862
2252	0.8639
2243	0.8661
2234	0.8685
2225	0.8699
2216	0.8663
2207	0.8666
2198	0.8671
2189	0.8616
2180	0.8578
2171	0.8653
2162	0.8698
2153	0.8725
2144	0.8741
2135	0.8742
2126	0.8747
2117	0.8751
2108	0.8753
2099	0.8753
2090	0.8753
2081	0.8752
2072	0.8725
2063	0.8628
2054	0.8653
2045	0.8717
2036	0.8756
2027	0.8762
2018	0.8748
2009	0.8728
2000	0.8743
1991	0.8941
1982	0.8889
1973	0.8868
1964	0.8808
1955	0.8632
1946	0.8691
1937	0.8758
1928	0.8575
1919	0.8621
1910	0.8782
1901	0.8846
1892	0.8878
1883	0.8893
1874	0.8895
1865	0.8889
1856	0.8878
1847	0.8859
1838	0.8827
1829	0.8778
1820	0.8749
1811	0.8688
1802	0.8563
1793	0.8467
1784	0.8471
1775	0.8377
1766	0.808
1757	0.8024
1748	0.7986
1739	0.7791
1730	0.714
1721	0.3944
1712	0.1115
1703	0.0032
1694	0.2063
1685	0.535
1676	0.6494
1667	0.6254
1658	0.6899
1649	0.7062
1640	0.6565
1631	0.607
1622	0.4773
1613	0.0372
1604	0.1111
1595	0.4121
1586	0.0768
1577	0.4022
1568	0.3764
1559	0.2096
1550	0.0236
1541	0.0073
1532	0.0148
1523	0.3133
1514	0.4741
1505	0.5512
1496	0.2322
1487	0.4883
1478	0.7026
1469	0.7425
1460	0.7701
1451	0.7755
1442	0.7562
1433	0.74
1424	0.6739
1415	0.4068
1406	0.6369
1397	0.5726
1388	0.4132
1379	0.6054
1370	0.4699
1361	0.1157
1352	0.0155
1343	0.1303
1334	0.3366
1325	0.5268
1316	0.5146
1307	0.4481
1298	0.626
1289	0.7265
1280	0.658
1271	0.3266
1262	0.2938
1253	0.6292
1244	0.4936
1235	0.0467
1226	0.0145
1217	0.3576
1208	0.6641
1199	0.7201
1190	0.7541
1181	0.6386
1172	0.5644
1163	0.7175
1154	0.7905
1145	0.824
1136	0.8153
1127	0.6534
1118	0.7586
1109	0.8089
1100	0.8261
1091	0.8345
1082	0.8397
1073	0.8358
1064	0.7696
1055	0.8096
1046	0.8482
1037	0.862
1028	0.8718
1019	0.8712
1010	0.8685
1001	0.8511
992	0.7876
983	0.8386
974	0.8342
965	0.816
956	0.7971
947	0.355
938	0.5852
929	0.7851
920	0.8234
911	0.8278
902	0.8044
893	0.7032
884	0.1665
875	0.4671
866	0.7261
857	0.7546
848	0.5504
839	0.1933
830	0.1238
821	0.1252
812	0.6176
803	0.6886
794	0.7005
785	0.5406
776	0.675
767	0.7599
758	0.4118
749	0.7568
740	0.8285
731	0.8455
722	0.8543
713	0.8621
704	0.8565
695	0.8239
686	0.7745
677	0.7343
668	0.7361
659	0.7096
650	0.6043
641	0.7498
632	0.814
623	0.8271
614	0.8292
605	0.8178
596	0.8234
587	0.8284
578	0.8105
569	0.6784
560	0.5664
551	0.7125
542	0.8175
533	0.8463
524	0.8564
515	0.8582
506	0.8487
497	0.803
488	0.6701
479	0.7949
470	0.8352
