Infrared Spectrum: 2-Methoxyresorcinol
Formula: C 7 H 8 O 3
CAS: 29267-67-2
State: gas
Instrument: HP-GC/MS/IRD
Origin: NIST Mass Spectrometry Data Center
1/CM	ABSORBANCE
550	0.0004394
562	0.0004472
574	0.0004446
586	0.0001196
598	8.58e-05
610	1.04e-05
622	1.3e-05
634	1.56e-05
646	4.94e-05
658	0.0002886
670	0.0017914
682	0.0029952
694	0.0018356
706	0.0014222
718	0.003653
730	0.0056264
742	0.0026546
754	0.0013494
766	0.0028678
778	0.0048932
790	0.0028834
802	0.0012298
814	0.0007436
826	0.000546
838	0.0004212
850	0.0003874
862	0.0002834
874	0.0002496
886	0.0002158
898	0.0001872
910	0.0002184
922	0.0002782
934	0.0004264
946	0.0006006
958	0.0009776
970	0.0020696
982	0.0048906
994	0.0091858
1006	0.011895
1018	0.0152152
1030	0.0120354
1042	0.005655
1054	0.006253
1066	0.005356
1078	0.0026
1090	0.0014248
1102	0.0012688
1114	0.0014456
1126	0.0021502
1138	0.0046436
1150	0.008463
1162	0.0117806
1174	0.0187902
1186	0.025311
1198	0.0223704
1210	0.0138632
1222	0.0070044
1234	0.0051298
1246	0.0072176
1258	0.0096538
1270	0.007605
1282	0.0049608
1294	0.0070226
1306	0.0101998
1318	0.0085254
1330	0.0069654
1342	0.0093496
1354	0.0081328
1366	0.0044044
1378	0.0017836
1390	0.0008294
1402	0.0006422
1414	0.0007956
1426	0.001417
1438	0.002821
1450	0.0039156
1462	0.0052546
1474	0.0114374
1486	0.0176774
1498	0.0174772
1510	0.0119158
1522	0.0061724
1534	0.0029978
1546	0.0026728
1558	0.0035932
1570	0.004199
1582	0.004602
1594	0.0072072
1606	0.0113386
1618	0.0087776
1630	0.0029978
1642	0.001378
1654	0.0008944
1666	0.000637
1678	0.0005122
1690	0.000429
1702	0.0003328
1714	0.0002886
1726	0.0002158
1738	0.0001716
1750	0.0001586
1762	0.000117
1774	0.0001274
1786	0.0001898
1798	0.0002704
1810	0.00026
1822	0.0001742
1834	0.0001222
1846	0.0001118
1858	0.000117
1870	0.0001846
1882	0.0003016
1894	0.000325
1906	0.0002418
1918	9.88e-05
1930	7.54e-05
1942	0.0001066
1954	0.0001742
1966	0.000247
1978	0.0003146
1990	0.0003536
2002	0.0002886
2014	0.0002522
2026	0.0002054
2038	0.0001716
2050	0.0001872
2062	0.0001898
2074	0.0001144
2086	5.46e-05
2098	3.64e-05
2110	7.8e-06
2122	2.6e-06
2134	1.82e-05
2146	3.9e-05
2158	0.000104
2170	0.0001248
2182	0.0001326
2194	9.36e-05
2206	7.54e-05
2218	6.76e-05
2230	3.64e-05
2242	6.24e-05
2254	7.28e-05
2266	0.000143
2278	0.000169
2290	0.0001664
2302	0.0001716
2314	0.0001404
2326	0.0001534
2338	0.0001274
2350	0.0001248
2362	0.0001092
2374	8.84e-05
2386	9.88e-05
2398	0.0001196
2410	0.0001482
2422	0.0002002
2434	0.0001664
2446	0.0001638
2458	0.0001924
2470	0.000169
2482	0.0002002
2494	0.0002522
2506	0.000312
2518	0.0002912
2530	0.000195
2542	0.0001014
2554	6.5e-05
2566	5.46e-05
2578	5.72e-05
2590	3.38e-05
2602	2.6e-05
2614	3.12e-05
2626	3.38e-05
2638	2.6e-05
2650	2.34e-05
2662	4.68e-05
2674	4.68e-05
2686	4.42e-05
2698	3.12e-05
2710	1.56e-05
2722	2.08e-05
2734	3.38e-05
2746	4.16e-05
2758	5.2e-05
2770	9.62e-05
2782	8.58e-05
2794	0.000143
2806	0.0002418
2818	0.000442
2830	0.001014
2842	0.0021372
2854	0.0020254
2866	0.0009542
2878	0.0007176
2890	0.000871
2902	0.001183
2914	0.0015418
2926	0.001846
2938	0.0028626
2950	0.0039598
2962	0.0035412
2974	0.0025194
2986	0.0020774
2998	0.0022542
3010	0.0021996
3022	0.0015834
3034	0.0014716
3046	0.001651
3058	0.001976
3070	0.0021762
3082	0.0016692
3094	0.0009568
3106	0.0006006
3118	0.0003276
3130	0.0001898
3142	0.0001144
3154	8.06e-05
3166	5.72e-05
3178	4.68e-05
3190	5.2e-05
3202	4.94e-05
3214	4.42e-05
3226	4.68e-05
3238	5.72e-05
3250	9.1e-05
3262	5.2e-05
3274	8.06e-05
3286	9.36e-05
3298	0.0001118
3310	7.54e-05
3322	5.72e-05
3334	6.76e-05
3346	3.12e-05
3358	5.2e-05
3370	5.46e-05
3382	5.46e-05
3394	4.16e-05
3406	5.72e-05
3418	2.86e-05
3430	1.56e-05
3442	3.12e-05
3454	2.34e-05
3466	3.64e-05
3478	3.9e-05
3490	8.58e-05
3502	0.0001508
3514	0.000221
3526	0.0003328
3538	0.0006188
3550	0.0020202
3562	0.0046332
3574	0.0060372
3586	0.0082992
3598	0.0100256
3610	0.0062712
3622	0.0023946
3634	0.0018746
3646	0.0036842
3658	0.0032188
3670	0.0007644
3682	0.0002184
3694	0.0001586
3706	0.0001222
3718	8.58e-05
3730	5.72e-05
3742	2.6e-05
3754	1.82e-05
3766	2.86e-05
3778	3.38e-05
3790	1.56e-05
3802	3.12e-05
3814	6.76e-05
3826	0.0001066
3838	0.0001326
