Infrared Spectrum: 2-CHLORO-4-NITRO-PHENYL DIMETHYL CARBAMATE
Formula: C9 H9 Cl N2 O4
CAS: 29285-59-4
State: SOLUTION (1% CCl4 FOR 5000-1330, 1% CS2 FOR 1330-625 CM^-^1)
Class: COBLENTZ
Instrument: Not specified, most likely a prism, grating, or hybrid spectrometer.
Sampling: TRANSMISSION
Path length: 0.10 CM, 0.10 CM
Resolution: 4
Origin: DOW CHEMICAL COMPANY
MICROMETERS	TRANSMITTANCE
2.034	0.897
2.07512	0.897
2.11624	0.897
2.15735	0.897
2.19847	0.892
2.23959	0.886
2.28071	0.891
2.32182	0.894
2.36294	0.891
2.40406	0.894
2.44518	0.899
2.4863	0.901
2.52741	0.904
2.56853	0.906
2.60965	0.906
2.65077	0.906
2.69189	0.901
2.733	0.894
2.77412	0.879
2.81524	0.867
2.85636	0.858
2.89747	0.858
2.93859	0.863
2.97971	0.863
3.02083	0.862
3.06195	0.857
3.10306	0.857
3.14418	0.845
3.1853	0.789
3.22642	0.773
3.26753	0.807
3.30865	0.799
3.34977	0.7
3.39089	0.554
3.43201	0.683
3.47312	0.748
3.51424	0.809
3.55536	0.846
3.59648	0.863
3.6376	0.867
3.67871	0.872
3.71983	0.882
3.76095	0.882
3.80207	0.872
3.84318	0.867
3.8843	0.887
3.92542	0.88
3.96654	0.88
4.00766	0.869
4.04877	0.879
4.08989	0.889
4.13101	0.886
4.17213	0.869
4.21324	0.835
4.25436	0.787
4.29548	0.748
4.3366	0.722
4.37772	0.772
4.41883	0.845
4.45995	0.877
4.50107	0.892
4.54219	0.899
4.5833	0.901
4.62442	0.897
4.66554	0.894
4.70666	0.894
4.74778	0.896
4.78889	0.894
4.83001	0.887
4.87113	0.869
4.91225	0.867
4.95337	0.848
4.99448	0.829
5.0356	0.858
5.07672	0.865
5.11784	0.875
5.15895	0.886
5.20007	0.882
5.24119	0.841
5.28231	0.858
5.32343	0.852
5.36454	0.816
5.40566	0.821
5.44678	0.826
5.4879	0.801
5.52901	0.777
5.57013	0.738
5.61125	0.641
5.65237	0.448
5.69349	0.113
5.7346	0.045
5.77572	0.36
5.81684	0.666
5.85796	0.697
5.89908	0.772
5.94019	0.799
5.98131	0.795
6.02243	0.785
6.06355	0.753
6.10466	0.687
6.14578	0.566
6.1869	0.403
6.22802	0.2
6.26914	0.078
6.31025	0.054
6.35137	0.044
6.39249	0.034
6.43361	0.03
6.47472	0.03
6.51584	0.028
6.55696	0.034
6.59808	0.061
6.6392	0.122
6.68031	0.178
6.72143	0.122
6.76255	0.13
6.80367	0.25
6.84479	0.312
6.8859	0.302
6.92702	0.403
6.96814	0.612
7.00926	0.557
7.05037	0.437
7.09149	0.369
7.13261	0.297
7.17373	0.142
7.21485	0.124
7.25596	0.345
7.29708	0.401
7.3382	0.231
7.37932	0.093
7.42043	0.034
7.46155	0.285
7.50267	0.549
7.54379	0.627
7.58491	0.646
7.62602	0.598
7.66714	0.537
7.70826	0.559
7.74938	0.6
7.7905	0.544
7.83161	0.486
7.87273	0.469
7.91385	0.384
7.95497	0.175
7.99608	0.057
8.0372	0.117
8.07832	0.068
8.11944	0.073
8.16056	0.263
8.20167	0.433
8.24279	0.602
8.28391	0.642
8.32503	0.639
8.36614	0.608
8.40726	0.539
8.44838	0.496
8.4895	0.414
8.53062	0.309
8.57173	0.178
8.61285	0.062
8.65397	0.022
8.69509	0.011
8.7362	0.011
8.77732	0.04
8.81844	0.119
8.85956	0.231
8.90068	0.284
8.94179	0.311
8.98291	0.448
9.02403	0.59
9.06515	0.647
9.10627	0.698
9.14738	0.732
9.1885	0.751
9.22962	0.741
9.27074	0.719
9.31185	0.67
9.35297	0.608
9.39409	0.569
9.43521	0.506
9.47633	0.295
9.51744	0.217
9.55856	0.491
9.59968	0.654
9.6408	0.731
9.68191	0.761
9.72303	0.777
9.76415	0.79
9.80527	0.789
9.84639	0.751
9.8875	0.654
9.92862	0.511
9.96974	0.377
10.0109	0.358
10.052	0.489
10.0931	0.704
10.1342	0.78
10.1753	0.824
10.2164	0.86
10.2576	0.869
10.2987	0.877
10.3398	0.889
10.3809	0.892
10.422	0.889
10.4632	0.88
10.5043	0.874
10.5454	0.882
10.5865	0.889
10.6276	0.891
10.6687	0.889
10.7099	0.884
10.751	0.875
10.7921	0.872
10.8332	0.865
10.8743	0.853
10.9154	0.829
10.9566	0.792
10.9977	0.729
11.0388	0.619
11.0799	0.452
11.121	0.285
11.1622	0.163
11.2033	0.119
11.2444	0.319
11.2855	0.384
11.3266	0.372
11.3677	0.323
11.4089	0.285
11.45	0.25
11.4911	0.221
11.5322	0.181
11.5733	0.129
11.6145	0.083
11.6556	0.076
11.6967	0.081
11.7378	0.107
11.7789	0.144
11.82	0.238
11.8612	0.335
11.9023	0.437
11.9434	0.532
11.9845	0.579
12.0256	0.615
12.0667	0.637
12.1079	0.671
12.149	0.69
12.1901	0.688
12.2312	0.666
12.2723	0.607
12.3135	0.508
12.3546	0.416
12.3957	0.433
12.4368	0.581
12.4779	0.656
12.519	0.687
12.5602	0.695
12.6013	0.692
12.6424	0.668
12.6835	0.644
12.7246	0.639
12.7658	0.651
12.8069	0.676
12.848	0.683
12.8891	0.688
12.9302	0.681
12.9713	0.678
13.0125	0.675
13.0536	0.666
13.0947	0.661
13.1358	0.641
13.1769	0.612
13.218	0.561
13.2592	0.51
13.3003	0.442
13.3414	0.316
13.3825	0.193
13.4236	0.11
13.4648	0.085
13.5059	0.096
13.547	0.134
13.5881	0.147
13.6292	0.183
13.6703	0.256
13.7115	0.346
13.7526	0.425
13.7937	0.481
13.8348	0.523
13.8759	0.544
13.9171	0.561
13.9582	0.562
13.9993	0.564
14.0404	0.566
14.0815	0.569
14.1226	0.564
14.1638	0.561
14.2049	0.549
14.246	0.525
14.2871	0.5
14.3282	0.491
14.3693	0.496
14.4105	0.513
14.4516	0.517
14.4927	0.523
14.5338	0.518
14.5749	0.513
14.6161	0.503
14.6572	0.496
14.6983	0.479
14.7394	0.465
14.7805	0.447
14.8216	0.433
14.8628	0.425
14.9039	0.418
14.945	0.408
14.9861	0.391
15.0272	0.36
15.0683	0.328
15.1095	0.297
15.1506	0.263
15.1917	0.231
15.2328	0.21
15.2739	0.2
15.3151	0.192
15.3562	0.198
15.3973	0.209
15.4384	0.221
15.4795	0.231
15.5206	0.241
15.5618	0.253
15.6029	0.265
15.644	0.265
15.6851	0.267
15.7262	0.268
15.7674	0.275
15.8085	0.278
15.8496	0.278
