Infrared Spectrum: 1-(4-Fluorophenyl)-2-methyl-2-propanol
Formula: C 10 H 13 F O
CAS: 2928-17-8
State: gas
Origin: EPA-IR VAPOR PHASE LIBRARY
1/CM	ABSORBANCE
549.8	0.005232
559.445	0.007382
569.09	0.009572
578.734	0.006822
588.379	0.002112
598.024	0.002742
607.669	0.0010054
617.313	0.001602
626.958	0.001472
636.603	0.0013168
646.248	0.0005641
655.893	0.001942
665.537	0.0007113
675.182	0.001482
684.827	0.0010949
694.472	0.002352
704.116	0.003052
713.761	0.001572
723.406	0.001592
733.051	0.002532
742.695	0.003682
752.34	0.010532
761.985	0.015022
771.63	0.018162
781.275	0.011812
790.919	0.005152
800.564	0.005492
810.209	0.007882
819.854	0.015972
829.498	0.024602
839.143	0.025342
848.788	0.022782
858.433	0.017152
868.078	0.007912
877.722	0.006412
887.367	0.009142
897.012	0.014212
906.657	0.015502
916.301	0.010652
925.946	0.007042
935.591	0.006312
945.236	0.004922
954.88	0.005002
964.525	0.006802
974.17	0.005942
983.815	0.005262
993.46	0.003222
1003.1	0.003812
1012.75	0.005612
1022.39	0.005312
1032.04	0.002092
1041.68	0.003382
1051.33	0.002852
1060.97	0.003962
1070.62	0.006442
1080.26	0.007602
1089.91	0.010742
1099.55	0.015232
1109.2	0.021162
1118.84	0.025132
1128.49	0.026182
1138.13	0.024232
1147.78	0.026362
1157.42	0.042432
1167.07	0.026582
1176.71	0.014932
1186.36	0.015372
1196	0.015982
1205.64	0.021592
1215.29	0.036982
1224.93	0.072282
1234.58	0.109202
1244.22	0.060602
1253.87	0.019042
1263.51	0.012922
1273.16	0.011682
1282.8	0.010402
1292.45	0.009862
1302.09	0.010062
1311.74	0.010312
1321.38	0.010452
1331.03	0.010632
1340.67	0.011802
1350.32	0.011452
1359.96	0.012932
1369.61	0.019692
1379.25	0.022202
1388.9	0.017622
1398.54	0.009112
1408.18	0.006102
1417.83	0.005932
1427.47	0.006142
1437.12	0.008202
1446.76	0.009372
1456.41	0.009552
1466.05	0.010972
1475.7	0.011552
1485.34	0.012752
1494.99	0.025672
1504.63	0.077302
1514.28	0.097042
1523.92	0.035562
1533.57	0.009862
1543.21	0.005232
1552.86	0.004232
1562.5	0.003752
1572.15	0.003412
1581.79	0.005212
1591.44	0.010942
1601.08	0.021732
1610.73	0.020172
1620.37	0.007302
1630.01	0.003782
1639.66	0.003182
1649.3	0.003132
1658.95	0.002552
1668.59	0.002342
1678.24	0.001712
1687.88	0.001762
1697.53	0.001602
1707.17	0.0010123
1716.82	0.0012374
1726.46	0.0010634
1736.11	0.0012181
1745.75	0.001432
1755.4	0.001912
1765.04	0.001942
1774.69	0.0014039
1784.33	0.0010925
1793.98	0.0010712
1803.62	0.0010603
1813.27	0.0010239
1822.91	0.0009321
1832.55	0.0008569
1842.2	0.0009145
1851.84	0.0010698
1861.49	0.001602
1871.13	0.002372
1880.78	0.003202
1890.42	0.002852
1900.07	0.001902
1909.71	0.0011181
1919.36	0.0010109
1929	0.0008955
1938.65	0.0009476
1948.29	0.00051187
1957.94	0.0007297
1967.58	0.0009923
1977.23	0.0008268
1986.87	0.0010041
1996.52	0.0013357
2006.16	0.0013018
2015.81	0.0011703
2025.45	0.0009744
2035.1	0.0007112
2044.74	0.0010067
2054.38	0.0011845
2064.03	0.0009984
2073.67	0.0012005
2083.32	0.001034
2092.96	0.0012395
2102.61	0.000643
2112.25	0.0005599
2121.9	0.0007912
2131.54	0.0008595
2141.19	0.00048113
2150.83	0.0007817
2160.48	0.000284
2170.12	0.0008762
2179.77	0.0005457
2189.41	0.00051057
2199.06	0.0006941
2208.7	0.0005908
2218.35	0.0008872
2227.99	0.0005596
2237.64	0.0005653
2247.28	0.0005748
2256.92	0.0008975
2266.57	0.0006028
2276.21	0.0009457
2285.86	0.0007394
2295.5	0.0007869
2305.15	0.0006381
2314.79	0.000412307
2324.44	0.0008601
2334.08	0.0010883
2343.73	0.0006472
2353.37	0.0007981
2363.02	0.0011124
2372.66	0.0009618
2382.31	0.0007542
2391.95	0.0010863
2401.6	0.0010033
2411.24	0.0010657
2420.89	0.0008283
2430.53	0.0006649
2440.18	0.0008586
2449.82	0.0012269
2459.47	0.0013622
2469.11	0.0012178
2478.75	0.0006774
2488.4	0.0007885
2498.04	0.0006116
2507.69	0.0007841
2517.33	0.000627
2526.98	0.000998
2536.62	0.0005988
2546.27	0.0006749
2555.91	0.0009797
2565.56	0.0010575
2575.2	0.0010439
2584.85	0.000802
2594.49	0.0007773
2604.14	0.0005251
2613.78	0.0008724
2623.43	0.0009594
2633.07	0.0008817
2642.72	0.0004017
2652.36	0.0008325
2662.01	0.00040579
2671.65	0.0008277
2681.29	0.000175
2690.94	0.0008962
2700.58	0.00046935
2710.23	0.0011044
2719.87	0.0012207
2729.52	0.0009671
2739.16	0.0012369
2748.81	0.0006817
2758.45	0.0008167
2768.1	0.0012546
2777.74	0.0009496
2787.39	0.0013714
2797.03	0.0013796
2806.68	0.001522
2816.32	0.001802
2825.97	0.002512
2835.61	0.003462
2845.26	0.004972
2854.9	0.006862
2864.55	0.008122
2874.19	0.009642
2883.84	0.010902
2893.48	0.012162
2903.12	0.014162
2912.77	0.017672
2922.41	0.025092
2932.06	0.030412
2941.7	0.029212
2951.35	0.023872
2960.99	0.027022
2970.64	0.046302
2980.28	0.056122
2989.93	0.033322
2999.57	0.011702
3009.22	0.006682
3018.86	0.004622
3028.51	0.005002
3038.15	0.008812
3047.8	0.011072
3057.44	0.006612
3067.09	0.004752
3076.73	0.005342
3086.38	0.004362
3096.02	0.003192
3105.67	0.002522
3115.31	0.002942
3124.95	0.0012838
3134.6	0.001892
3144.24	0.0012541
3153.89	0.0009591
3163.53	0.0012382
3173.18	0.0008798
3182.82	0.001612
3192.47	0.0013684
3202.11	0.0011557
3211.76	0.001752
3221.4	0.0010213
3231.05	0.0010154
3240.69	0.001832
3250.34	0.00075
3259.98	0.0010762
3269.63	0.0012912
3279.27	0.00050214
3288.92	0.0009214
3298.56	0.001261
3308.21	0.001742
3317.85	0.0010363
3327.49	0.0011122
3337.14	0.0014016
3346.78	0.0010378
3356.43	0.0007826
3366.07	0.0008868
3375.72	0.0007931
3385.36	0.0005456
3395.01	0.0008208
3404.65	0.0009408
3414.3	0.0006979
3423.94	0.0011376
3433.59	0.0012209
3443.23	0.000275
3452.88	0.00046664
3462.52	0.0008581
3472.17	0.0008719
3481.81	0.0011974
3491.46	0.0010151
3501.1	0.0008124
3510.75	0.0007484
3520.39	0.00024
3530.04	0.0005553
3539.68	0.0009678
3549.32	0.0006727
3558.97	0.0011686
3568.61	0.0013953
3578.26	0.0011398
3587.9	0.001792
3597.55	0.001932
3607.19	0.002202
3616.84	0.004252
3626.48	0.006402
3636.13	0.007082
3645.77	0.005992
3655.42	0.003062
3665.06	0.0012704
3674.71	0.001762
3684.35	0.0009163
3694	0.0012171
3703.64	0.0011397
3713.29	0.0005762
3722.93	0.0008112
3732.58	0.00041999
3742.22	0.0011208
3751.86	0.001165
3761.51	0.00043731
3771.15	0.001592
3780.8	0.0006928
3790.44	0.0014014
3800.09	0.0007713
3809.73	0.0013107
3819.38	0.0013825
3829.02	0.001822
3838.67	0.001502
3848.31	0.0009011
3857.96	0.0008871
3867.6	0.0006164
3877.25	0.0012844
3886.89	0.0008611
3896.54	0.0009438
3906.18	0.0009595
3915.83	0.001622
3925.47	0.0009924
3935.12	0.0009814
3944.76	0.001522
3954.41	0.000858
3964.05	0.0011006
3973.69	0.0007207
3983.34	0.0012254
3992.98	0.000252
