Infrared Spectrum: PHOSPHOROUS ACID, TRIDECYL ESTER
Formula: C30 H63 O3 P
CAS: 2929-86-4
Class: COBLENTZ
Instrument: Not specified, most likely a prism, grating, or hybrid spectrometer.
Sampling: TRANSMISSION
Path length: SMEAR
Resolution: 4
Origin: TENNESSEE EASTMAN COMPANY, RESEARCH LABORATORIES
MICROMETERS	TRANSMITTANCE
2.034	0.929
2.07468	0.929
2.11535	0.931
2.15603	0.933
2.19671	0.934
2.23739	0.936
2.27806	0.917
2.31874	0.902
2.35942	0.898
2.40009	0.902
2.44077	0.907
2.48145	0.909
2.52213	0.916
2.5628	0.921
2.60348	0.921
2.64416	0.921
2.68483	0.921
2.72551	0.919
2.76619	0.91
2.80687	0.893
2.84754	0.88
2.88822	0.854
2.9289	0.837
2.96957	0.835
3.01025	0.835
3.05093	0.84
3.09161	0.849
3.13228	0.852
3.17296	0.854
3.21364	0.864
3.25431	0.871
3.29499	0.849
3.33567	0.763
3.37635	0.059
3.41702	0.111
3.4577	0.174
3.49838	0.339
3.53905	0.702
3.57973	0.811
3.62041	0.847
3.66109	0.842
3.70176	0.849
3.74244	0.875
3.78312	0.885
3.82379	0.895
3.86447	0.897
3.90515	0.902
3.94583	0.917
3.9865	0.929
4.02718	0.933
4.06786	0.936
4.10853	0.934
4.14921	0.929
4.18989	0.928
4.23057	0.934
4.27124	0.928
4.31192	0.924
4.3526	0.929
4.39327	0.95
4.43395	0.95
4.47463	0.952
4.51531	0.955
4.55598	0.955
4.59666	0.955
4.63734	0.957
4.67801	0.957
4.71869	0.957
4.75937	0.957
4.80005	0.957
4.84072	0.955
4.8814	0.957
4.92208	0.957
4.96275	0.957
5.00343	0.962
5.04411	0.96
5.08479	0.958
5.12546	0.958
5.16614	0.958
5.20682	0.962
5.24749	0.962
5.28817	0.96
5.32885	0.96
5.36953	0.96
5.4102	0.958
5.45088	0.953
5.49156	0.95
5.53223	0.95
5.57291	0.945
5.61359	0.943
5.65427	0.934
5.69494	0.936
5.73562	0.926
5.7763	0.916
5.81697	0.922
5.85765	0.914
5.89833	0.904
5.93901	0.91
5.97968	0.905
6.02036	0.9
6.06104	0.892
6.10171	0.892
6.14239	0.893
6.18307	0.89
6.22375	0.851
6.26442	0.813
6.3051	0.869
6.34578	0.886
6.38645	0.89
6.42713	0.89
6.46781	0.885
6.50849	0.881
6.54916	0.861
6.58984	0.842
6.63052	0.768
6.67119	0.695
6.71187	0.676
6.75255	0.47
6.79323	0.289
6.8339	0.364
6.87458	0.554
6.91526	0.669
6.95593	0.743
6.99661	0.799
7.03729	0.827
7.07797	0.83
7.11864	0.787
7.15932	0.643
7.2	0.407
7.24067	0.41
7.28135	0.57
7.32203	0.625
7.36271	0.76
7.40338	0.797
7.44406	0.803
7.48474	0.806
7.52541	0.818
7.56609	0.821
7.60677	0.806
7.64745	0.785
7.68812	0.756
7.7288	0.729
7.76948	0.708
7.81015	0.69
7.85083	0.655
7.89151	0.628
7.93219	0.628
7.97286	0.635
8.01354	0.597
8.05422	0.619
8.09489	0.633
8.13557	0.628
8.17625	0.633
8.21693	0.669
8.2576	0.681
8.29828	0.679
8.33896	0.705
8.37963	0.738
8.42031	0.748
8.46099	0.741
8.50167	0.7
8.54234	0.686
8.58302	0.686
8.6237	0.674
8.66437	0.669
8.70505	0.672
8.74573	0.681
8.78641	0.681
8.82708	0.678
8.86776	0.671
8.90844	0.669
8.94911	0.674
8.98979	0.683
9.03047	0.652
9.07115	0.616
9.11182	0.549
9.1525	0.482
9.19318	0.431
9.23385	0.373
9.27453	0.33
9.31521	0.294
9.35589	0.275
9.39656	0.256
9.43724	0.25
9.47792	0.236
9.51859	0.227
9.55927	0.215
9.59995	0.214
9.64063	0.21
9.6813	0.202
9.72198	0.186
9.76266	0.176
9.80333	0.154
9.84401	0.14
9.88469	0.125
9.92537	0.113
9.96604	0.107
10.0067	0.111
10.0474	0.119
10.0881	0.135
10.1288	0.159
10.1694	0.178
10.2101	0.195
10.2508	0.208
10.2915	0.224
10.3321	0.238
10.3728	0.268
10.4135	0.297
10.4542	0.33
10.4948	0.357
10.5355	0.383
10.5762	0.412
10.6169	0.438
10.6576	0.448
10.6982	0.452
10.7389	0.458
10.7796	0.465
10.8203	0.472
10.8609	0.476
10.9016	0.491
10.9423	0.503
10.983	0.527
11.0236	0.547
11.0643	0.556
11.105	0.547
11.1457	0.541
11.1864	0.535
11.227	0.534
11.2677	0.535
11.3084	0.542
11.3491	0.551
11.3897	0.561
11.4304	0.566
11.4711	0.571
11.5118	0.573
11.5525	0.571
11.5931	0.57
11.6338	0.573
11.6745	0.582
11.7152	0.594
11.7558	0.604
11.7965	0.609
11.8372	0.609
11.8779	0.604
11.9185	0.595
11.9592	0.582
11.9999	0.566
12.0406	0.546
12.0813	0.523
12.1219	0.503
12.1626	0.482
12.2033	0.458
12.244	0.443
12.2846	0.428
12.3253	0.416
12.366	0.407
12.4067	0.402
12.4473	0.392
12.488	0.386
12.5287	0.385
12.5694	0.383
12.6101	0.383
12.6507	0.383
12.6914	0.383
12.7321	0.385
12.7728	0.385
12.8134	0.381
12.8541	0.38
12.8948	0.378
12.9355	0.375
12.9762	0.375
13.0168	0.373
13.0575	0.376
13.0982	0.375
13.1389	0.368
13.1795	0.364
13.2202	0.364
13.2609	0.376
13.3016	0.385
13.3422	0.386
13.3829	0.388
13.4236	0.388
13.4643	0.39
13.505	0.392
13.5456	0.392
13.5863	0.393
13.627	0.397
13.6677	0.4
13.7083	0.405
13.749	0.41
13.7897	0.419
13.8304	0.433
13.871	0.443
13.9117	0.453
13.9524	0.47
13.9931	0.493
14.0338	0.515
14.0744	0.539
14.1151	0.559
14.1558	0.58
14.1965	0.599
14.2371	0.611
14.2778	0.619
14.3185	0.621
14.3592	0.621
14.3999	0.611
14.4405	0.604
14.4812	0.616
14.5219	0.638
14.5626	0.659
14.6032	0.672
14.6439	0.681
14.6846	0.684
14.7253	0.688
14.7659	0.688
14.8066	0.688
14.8473	0.688
14.888	0.688
14.9287	0.688
14.9693	0.686
15.01	0.688
15.0507	0.684
15.0914	0.684
15.132	0.683
15.1727	0.681
15.2134	0.679
15.2541	0.679
15.2947	0.679
15.3354	0.676
15.3761	0.674
15.4168	0.674
15.4575	0.674
15.4981	0.672
15.5388	0.669
15.5795	0.669
15.6202	0.669
15.6608	0.669
15.7015	0.667
15.7422	0.667
15.7829	0.666
15.8236	0.666
15.8642	0.664
15.9049	0.664
15.9456	0.666
