Infrared Spectrum: 2,2'-THIODI-P-CRESOL
Formula: C14 H14 O2 S
CAS: 2929-96-6
State: SOLID (KBr PELLET)
Melting point: 112-113 C
Class: COBLENTZ
Instrument: Not specified, most likely a prism, grating, or hybrid spectrometer.
Sampling: TRANSMISSION
Resolution: 4
Origin: TENNESSEE EASTMAN COMPANY, RESEARCH LABORATORIES
MICROMETERS	TRANSMITTANCE
2.033	0.895
2.07283	0.9
2.11266	0.901
2.15249	0.906
2.19231	0.915
2.23214	0.92
2.27197	0.92
2.3118	0.92
2.35163	0.921
2.39146	0.923
2.43128	0.923
2.47111	0.928
2.51094	0.93
2.55077	0.931
2.5906	0.93
2.63043	0.928
2.67026	0.928
2.71008	0.928
2.74991	0.91
2.78974	0.851
2.82957	0.81
2.8694	0.74
2.90923	0.586
2.94906	0.323
2.98888	0.153
3.02871	0.158
3.06854	0.296
3.10837	0.49
3.1482	0.663
3.18803	0.775
3.22785	0.83
3.26768	0.848
3.30751	0.821
3.34734	0.84
3.38717	0.805
3.427	0.843
3.46683	0.861
3.50665	0.898
3.54648	0.921
3.58631	0.933
3.62614	0.936
3.66597	0.94
3.7058	0.943
3.74563	0.95
3.78545	0.953
3.82528	0.956
3.86511	0.958
3.90494	0.956
3.94477	0.953
3.9846	0.966
4.02442	0.971
4.06425	0.971
4.10408	0.971
4.14391	0.973
4.18374	0.975
4.22357	0.973
4.2634	0.958
4.30322	0.96
4.34305	0.971
4.38288	0.971
4.42271	0.968
4.46254	0.971
4.50237	0.971
4.54219	0.97
4.58202	0.97
4.62185	0.97
4.66168	0.97
4.70151	0.966
4.74134	0.968
4.78117	0.97
4.82099	0.971
4.86082	0.968
4.90065	0.965
4.94048	0.966
4.98031	0.966
5.02014	0.97
5.05997	0.968
5.09979	0.97
5.13962	0.968
5.17945	0.968
5.21928	0.963
5.25911	0.943
5.29894	0.95
5.33876	0.966
5.37859	0.97
5.41842	0.965
5.45825	0.953
5.49808	0.971
5.53791	0.97
5.57774	0.968
5.61756	0.955
5.65739	0.933
5.69722	0.926
5.73705	0.931
5.77688	0.935
5.81671	0.93
5.85654	0.925
5.89636	0.913
5.93619	0.915
5.97602	0.913
6.01585	0.92
6.05568	0.9
6.09551	0.895
6.13533	0.888
6.17516	0.885
6.21499	0.806
6.25482	0.761
6.29465	0.788
6.33448	0.863
6.37431	0.875
6.41413	0.886
6.45396	0.891
6.49379	0.871
6.53362	0.846
6.57345	0.75
6.61328	0.353
6.6531	0.53
6.69293	0.086
6.73276	0.455
6.77259	0.581
6.81242	0.588
6.85225	0.608
6.89208	0.605
6.9319	0.558
6.97173	0.438
7.01156	0.365
7.05139	0.406
7.09122	0.478
7.13105	0.585
7.17088	0.693
7.2107	0.7
7.25053	0.666
7.29036	0.451
7.33019	0.37
7.37002	0.546
7.40985	0.703
7.44967	0.776
7.4895	0.816
7.52933	0.826
7.56916	0.851
7.60899	0.865
7.64882	0.861
7.68865	0.825
7.72847	0.721
7.7683	0.428
7.80813	0.395
7.84796	0.541
7.88779	0.685
7.92762	0.666
7.96745	0.648
8.00727	0.345
8.0471	0.281
8.08693	0.146
8.12676	0.398
8.16659	0.5
8.20642	0.621
8.24624	0.693
8.28607	0.73
8.3259	0.733
8.36573	0.75
8.40556	0.766
8.44539	0.773
8.48522	0.785
8.52504	0.8
8.56487	0.815
8.6047	0.826
8.64453	0.821
8.68436	0.806
8.72419	0.768
8.76401	0.658
8.80384	0.816
8.84367	0.843
8.8835	0.865
8.92333	0.87
8.96316	0.87
9.00299	0.868
9.04281	0.87
9.08264	0.876
9.12247	0.881
9.1623	0.881
9.20213	0.878
9.24196	0.878
9.28179	0.878
9.32161	0.876
9.36144	0.826
9.40127	0.791
9.4411	0.826
9.48093	0.836
9.52076	0.851
9.56058	0.85
9.60041	0.851
9.64024	0.86
9.68007	0.876
9.7199	0.893
9.75973	0.898
9.79956	0.898
9.83938	0.898
9.87921	0.9
9.91904	0.905
9.95887	0.906
9.9987	0.908
10.0385	0.908
10.0784	0.91
10.1182	0.916
10.158	0.926
10.1978	0.933
10.2377	0.941
10.2775	0.943
10.3173	0.941
10.3572	0.94
10.397	0.94
10.4368	0.931
10.4766	0.918
10.5165	0.906
10.5563	0.848
10.5961	0.906
10.636	0.933
10.6758	0.941
10.7156	0.95
10.7554	0.96
10.7953	0.968
10.8351	0.97
10.8749	0.97
10.9148	0.968
10.9546	0.968
10.9944	0.97
11.0342	0.973
11.0741	0.975
11.1139	0.97
11.1537	0.935
11.1936	0.878
11.2334	0.836
11.2732	0.835
11.313	0.831
11.3529	0.846
11.3927	0.918
11.4325	0.948
11.4724	0.956
11.5122	0.96
11.552	0.965
11.5918	0.97
11.6317	0.98
11.6715	0.981
11.7113	0.983
11.7512	0.981
11.791	0.98
11.8308	0.97
11.8706	0.966
11.9105	0.966
11.9503	0.958
11.9901	0.94
12.03	0.881
12.0698	0.63
12.1096	0.428
12.1494	0.59
12.1893	0.446
12.2291	0.241
12.2689	0.42
12.3088	0.7
12.3486	0.828
12.3884	0.88
12.4282	0.92
12.4681	0.931
12.5079	0.94
12.5477	0.941
12.5875	0.941
12.6274	0.943
12.6672	0.943
12.707	0.941
12.7469	0.938
12.7867	0.93
12.8265	0.916
12.8663	0.898
12.9062	0.831
12.946	0.696
12.9858	0.445
13.0257	0.323
13.0655	0.56
13.1053	0.773
13.1451	0.85
13.185	0.891
13.2248	0.911
13.2646	0.92
13.3045	0.923
13.3443	0.93
13.3841	0.935
13.4239	0.933
13.4638	0.931
13.5036	0.93
13.5434	0.926
13.5833	0.913
13.6231	0.848
13.6629	0.8
13.7027	0.826
13.7426	0.853
13.7824	0.866
13.8222	0.87
13.8621	0.87
13.9019	0.87
13.9417	0.868
13.9815	0.866
14.0214	0.868
14.0612	0.871
14.101	0.873
14.1409	0.871
14.1807	0.861
14.2205	0.858
14.2603	0.848
14.3002	0.838
14.34	0.83
14.3798	0.823
14.4197	0.81
14.4595	0.798
14.4993	0.771
14.5391	0.753
14.579	0.75
14.6188	0.765
14.6586	0.78
14.6985	0.786
14.7383	0.781
14.7781	0.773
14.8179	0.76
14.8578	0.748
14.8976	0.731
14.9374	0.716
14.9773	0.695
15.0171	0.676
15.0569	0.67
15.0967	0.665
15.1366	0.655
15.1764	0.646
15.2162	0.638
15.2561	0.633
15.2959	0.631
15.3357	0.623
15.3755	0.618
15.4154	0.615
15.4552	0.616
15.495	0.613
15.5349	0.61
15.5747	0.608
15.6145	0.606
15.6543	0.605
15.6942	0.603
15.734	0.601
15.7738	0.598
15.8137	0.598
15.8535	0.593
15.8933	0.586
15.9331	0.58
15.973	0.578
16.0128	0.576
