Infrared Spectrum: 2-MORPHOLINOETHYL-2-PHENOXYETHYL ETHER
Formula: C14 H21 N O3
CAS: 29293-93-4
State: SOLUTION (10% IN CCl4 FOR 5000-1350 CM^-^1, 10% IN CS2 FOR 1350-625 CM^-^1)
Class: COBLENTZ
Instrument: Not specified, most likely a prism, grating, or hybrid spectrometer.
Sampling: TRANSMISSION
Path length: 0.01 CM, 0.01 CM
Resolution: 4
Origin: DOW CHEMICAL COMPANY
MICROMETERS	TRANSMITTANCE
2.023	0.843
2.0621	0.843
2.10119	0.848
2.14029	0.851
2.17938	0.856
2.21848	0.859
2.25757	0.853
2.29667	0.84
2.33576	0.843
2.37486	0.851
2.41395	0.851
2.45305	0.843
2.49215	0.842
2.53124	0.85
2.57034	0.859
2.60943	0.863
2.64853	0.864
2.68762	0.866
2.72672	0.856
2.76581	0.85
2.80491	0.834
2.844	0.816
2.8831	0.801
2.92219	0.789
2.96129	0.787
3.00039	0.789
3.03948	0.798
3.07858	0.805
3.11767	0.806
3.15677	0.805
3.19586	0.801
3.23496	0.76
3.27405	0.703
3.31315	0.679
3.35224	0.679
3.39134	0.244
3.43044	0.212
3.46953	0.214
3.50863	0.212
3.54772	0.288
3.58682	0.331
3.62591	0.52
3.66501	0.629
3.7041	0.711
3.7432	0.752
3.78229	0.819
3.82139	0.858
3.86049	0.867
3.89958	0.866
3.93868	0.866
3.97777	0.871
4.01687	0.872
4.05596	0.877
4.09506	0.887
4.13415	0.885
4.17325	0.885
4.21234	0.882
4.25144	0.874
4.29053	0.871
4.32963	0.867
4.36873	0.871
4.40782	0.882
4.44692	0.888
4.48601	0.896
4.52511	0.901
4.5642	0.903
4.6033	0.901
4.64239	0.9
4.68149	0.9
4.72058	0.898
4.75968	0.893
4.79878	0.89
4.83787	0.885
4.87697	0.884
4.91606	0.871
4.95516	0.874
4.99425	0.88
5.03335	0.869
5.07244	0.864
5.11154	0.872
5.15063	0.864
5.18973	0.858
5.22883	0.874
5.26792	0.896
5.30702	0.901
5.34611	0.9
5.38521	0.888
5.4243	0.88
5.4634	0.876
5.50249	0.903
5.54159	0.901
5.58068	0.898
5.61978	0.893
5.65887	0.88
5.69797	0.882
5.73707	0.89
5.77616	0.888
5.81526	0.88
5.85435	0.871
5.89345	0.863
5.93254	0.861
5.97164	0.866
6.01073	0.869
6.04983	0.863
6.08892	0.853
6.12802	0.824
6.16712	0.758
6.20621	0.508
6.24531	0.178
6.2844	0.275
6.3235	0.446
6.36259	0.529
6.40169	0.516
6.44078	0.47
6.47988	0.471
6.51897	0.55
6.55807	0.576
6.59717	0.579
6.63626	0.468
6.67536	0.183
6.71445	0.285
6.75355	0.429
6.79264	0.491
6.83174	0.475
6.87083	0.318
6.90993	0.565
6.94902	0.661
6.98812	0.75
7.02721	0.78
7.06631	0.79
7.10541	0.772
7.1445	0.747
7.1836	0.718
7.22269	0.687
7.26179	0.661
7.30088	0.648
7.33998	0.584
7.37907	0.5
7.41817	0.642
7.45726	0.581
7.49636	0.508
7.53546	0.518
7.57455	0.523
7.61365	0.409
7.65274	0.283
7.69184	0.23
7.73093	0.352
7.77003	0.352
7.80912	0.365
7.84822	0.389
7.88731	0.399
7.92641	0.31
7.96551	0.194
8.0046	0.051
8.0437	0.03
8.08279	0.151
8.12189	0.288
8.16098	0.304
8.20008	0.368
8.23917	0.515
8.27827	0.605
8.31736	0.694
8.35646	0.719
8.39555	0.713
8.43465	0.655
8.47375	0.553
8.51284	0.386
8.55194	0.4
8.59103	0.499
8.63013	0.421
8.66922	0.26
8.70832	0.165
8.74741	0.133
8.78651	0.112
8.8256	0.072
8.8647	0.051
8.9038	0.025
8.94289	0.009
8.98199	0.045
9.02108	0.156
9.06018	0.301
9.09927	0.425
9.13837	0.491
9.17746	0.492
9.21656	0.438
9.25565	0.376
9.29475	0.351
9.33385	0.341
9.37294	0.323
9.41204	0.296
9.45113	0.243
9.49023	0.27
9.52932	0.334
9.56842	0.389
9.60751	0.405
9.64661	0.394
9.6857	0.478
9.7248	0.512
9.76389	0.499
9.80299	0.553
9.84209	0.579
9.88118	0.529
9.92028	0.545
9.95937	0.648
9.99847	0.673
10.0376	0.684
10.0767	0.723
10.1158	0.752
10.1548	0.768
10.1939	0.78
10.233	0.779
10.2721	0.748
10.3112	0.708
10.3503	0.66
10.3894	0.619
10.4285	0.59
10.4676	0.568
10.5067	0.539
10.5458	0.512
10.5849	0.499
10.624	0.5
10.6631	0.524
10.7022	0.547
10.7413	0.539
10.7804	0.499
10.8195	0.489
10.8586	0.513
10.8977	0.518
10.9368	0.495
10.9759	0.542
11.0149	0.623
11.054	0.658
11.0931	0.684
11.1322	0.694
11.1713	0.698
11.2104	0.7
11.2495	0.679
11.2886	0.634
11.3277	0.552
11.3668	0.478
11.4059	0.489
11.445	0.505
11.4841	0.458
11.5232	0.407
11.5623	0.378
11.6014	0.344
11.6405	0.301
11.6796	0.36
11.7187	0.491
11.7578	0.573
11.7969	0.639
11.836	0.684
11.875	0.708
11.9141	0.718
11.9532	0.721
11.9923	0.718
12.0314	0.706
12.0705	0.697
12.1096	0.694
12.1487	0.698
12.1878	0.702
12.2269	0.694
12.266	0.663
12.3051	0.634
12.3442	0.623
12.3833	0.64
12.4224	0.661
12.4615	0.663
12.5006	0.639
12.5397	0.59
12.5788	0.56
12.6179	0.57
12.657	0.6
12.6961	0.629
12.7351	0.653
12.7742	0.663
12.8133	0.661
12.8524	0.642
12.8915	0.615
12.9306	0.576
12.9697	0.552
13.0088	0.555
13.0479	0.566
13.087	0.566
13.1261	0.529
13.1652	0.447
13.2043	0.326
13.2434	0.18
13.2825	0.054
13.3216	0.019
13.3607	0.08
13.3998	0.233
13.4389	0.409
13.478	0.549
13.5171	0.629
13.5562	0.681
13.5952	0.71
13.6343	0.729
13.6734	0.74
13.7125	0.745
13.7516	0.747
13.7907	0.748
13.8298	0.748
13.8689	0.747
13.908	0.743
13.9471	0.74
13.9862	0.737
14.0253	0.732
14.0644	0.724
14.1035	0.716
14.1426	0.702
14.1817	0.687
14.2208	0.663
14.2599	0.631
14.299	0.582
14.3381	0.52
14.3772	0.429
14.4163	0.323
14.4553	0.22
14.4944	0.172
14.5335	0.219
14.5726	0.331
14.6117	0.454
14.6508	0.531
14.6899	0.565
14.729	0.582
14.7681	0.587
14.8072	0.589
14.8463	0.587
14.8854	0.579
14.9245	0.57
14.9636	0.566
15.0027	0.565
15.0418	0.557
15.0809	0.549
15.12	0.541
15.1591	0.531
15.1982	0.523
15.2373	0.512
15.2764	0.5
15.3154	0.492
15.3545	0.486
15.3936	0.483
15.4327	0.476
15.4718	0.47
15.5109	0.463
15.55	0.458
15.5891	0.45
15.6282	0.444
15.6673	0.436
15.7064	0.429
15.7455	0.421
15.7846	0.412
15.8237	0.402
15.8628	0.396
15.9019	0.399
15.941	0.399
15.9801	0.399
