Infrared Spectrum: TRIHEXYLSILANE
Formula: C18 H40 Si
CAS: 2929-52-4
State: SOLID (BETWEEN SALTS)
Class: COBLENTZ
Instrument: BECKMAN IR-4 (HYBRID PRISM-GRATING)
Sampling: TRANSMISSION
Resolution: 4
Origin: PENINSULAR CHEMRESEARCH, INC., GAINESVILLE, FLORIDA
MICROMETERS	TRANSMITTANCE
2.015	0.97
2.05	0.972
2.085	0.973
2.12	0.971
2.155	0.97
2.19	0.966
2.225	0.948
2.26	0.933
2.295	0.937
2.33	0.946
2.365	0.94
2.4	0.942
2.435	0.948
2.47	0.952
2.505	0.948
2.54	0.946
2.575	0.948
2.61	0.946
2.645	0.945
2.68	0.946
2.715	0.945
2.75	0.952
2.785	0.947
2.82	0.947
2.855	0.95
2.89	0.951
2.925	0.95
2.96	0.958
2.995	0.956
3.03	0.947
3.065	0.951
3.1	0.94
3.135	0.938
3.17	0.932
3.205	0.925
3.24	0.906
3.275	0.864
3.31	0.761
3.345	0.394
3.38	0.118
3.415	0.117
3.45	0.245
3.485	0.31
3.52	0.72
3.555	0.822
3.59	0.897
3.625	0.906
3.66	0.92
3.695	0.912
3.73	0.916
3.765	0.921
3.8	0.926
3.835	0.936
3.87	0.942
3.905	0.946
3.94	0.947
3.975	0.948
4.01	0.948
4.045	0.95
4.08	0.948
4.115	0.947
4.15	0.942
4.185	0.923
4.22	0.93
4.255	0.941
4.29	0.948
4.325	0.948
4.36	0.946
4.395	0.942
4.43	0.937
4.465	0.937
4.5	0.935
4.535	0.928
4.57	0.917
4.605	0.901
4.64	0.854
4.675	0.739
4.71	0.5
4.745	0.337
4.78	0.647
4.815	0.874
4.85	0.913
4.885	0.921
4.92	0.926
4.955	0.931
4.99	0.937
5.025	0.931
5.06	0.933
5.095	0.936
5.13	0.937
5.165	0.931
5.2	0.933
5.235	0.931
5.27	0.936
5.305	0.928
5.34	0.933
5.375	0.928
5.41	0.936
5.445	0.933
5.48	0.93
5.515	0.937
5.55	0.931
5.585	0.926
5.62	0.931
5.655	0.927
5.69	0.931
5.725	0.921
5.76	0.932
5.795	0.915
5.83	0.908
5.865	0.916
5.9	0.908
5.935	0.916
5.97	0.913
6.005	0.913
6.04	0.92
6.075	0.911
6.11	0.915
6.145	0.921
6.18	0.923
6.215	0.925
6.25	0.917
6.285	0.92
6.32	0.916
6.355	0.912
6.39	0.911
6.425	0.906
6.46	0.895
6.495	0.901
6.53	0.892
6.565	0.896
6.6	0.884
6.635	0.876
6.67	0.861
6.705	0.85
6.74	0.734
6.775	0.492
6.81	0.483
6.845	0.569
6.88	0.63
6.915	0.706
6.95	0.805
6.985	0.816
7.02	0.758
7.055	0.694
7.09	0.741
7.125	0.829
7.16	0.84
7.195	0.78
7.23	0.67
7.265	0.81
7.3	0.809
7.335	0.822
7.37	0.804
7.405	0.779
7.44	0.798
7.475	0.841
7.51	0.875
7.545	0.867
7.58	0.851
7.615	0.836
7.65	0.834
7.685	0.827
7.72	0.835
7.755	0.851
7.79	0.877
7.825	0.89
7.86	0.889
7.895	0.869
7.93	0.845
7.965	0.8
8	0.83
8.035	0.83
8.07	0.811
8.105	0.835
8.14	0.839
8.175	0.861
8.21	0.877
8.245	0.88
8.28	0.869
8.315	0.845
8.35	0.788
8.385	0.706
8.42	0.622
8.455	0.628
8.49	0.673
8.525	0.71
8.56	0.756
8.595	0.807
8.63	0.839
8.665	0.867
8.7	0.874
8.735	0.886
8.77	0.891
8.805	0.891
8.84	0.886
8.875	0.882
8.91	0.88
8.945	0.86
8.98	0.829
9.015	0.741
9.05	0.67
9.085	0.658
9.12	0.704
9.155	0.749
9.19	0.773
9.225	0.77
9.26	0.75
9.295	0.738
9.33	0.744
9.365	0.751
9.4	0.748
9.435	0.764
9.47	0.77
9.505	0.766
9.54	0.746
9.575	0.743
9.61	0.758
9.645	0.775
9.68	0.793
9.715	0.806
9.75	0.822
9.785	0.835
9.82	0.827
9.855	0.804
9.89	0.773
9.925	0.735
9.96	0.703
9.995	0.688
10.03	0.68
10.065	0.693
10.1	0.716
10.135	0.734
10.17	0.739
10.205	0.743
10.24	0.728
10.275	0.683
10.31	0.617
10.345	0.556
10.38	0.549
10.415	0.571
10.45	0.612
10.485	0.649
10.52	0.7
10.555	0.744
10.59	0.785
10.625	0.817
10.66	0.845
10.695	0.857
10.73	0.86
10.765	0.862
10.8	0.861
10.835	0.855
10.87	0.841
10.905	0.824
10.94	0.796
10.975	0.754
11.01	0.739
11.045	0.735
11.08	0.73
11.115	0.728
11.15	0.72
11.185	0.695
11.22	0.658
11.255	0.653
11.29	0.67
11.325	0.67
11.36	0.649
11.395	0.614
11.43	0.554
11.465	0.504
11.5	0.446
11.535	0.42
11.57	0.406
11.605	0.405
11.64	0.411
11.675	0.423
11.71	0.441
11.745	0.461
11.78	0.488
11.815	0.512
11.85	0.536
11.885	0.538
11.92	0.543
11.955	0.541
11.99	0.534
12.025	0.511
12.06	0.487
12.095	0.452
12.13	0.416
12.165	0.399
12.2	0.384
12.235	0.372
12.27	0.369
12.305	0.372
12.34	0.381
12.375	0.394
12.41	0.406
12.445	0.43
12.48	0.46
12.515	0.496
12.55	0.538
12.585	0.582
12.62	0.612
12.655	0.628
12.69	0.639
12.725	0.647
12.76	0.647
12.795	0.647
12.83	0.642
12.865	0.634
12.9	0.632
12.935	0.628
12.97	0.623
13.005	0.62
13.04	0.619
13.075	0.619
13.11	0.619
13.145	0.619
13.18	0.617
13.215	0.613
13.25	0.61
13.285	0.608
13.32	0.604
13.355	0.605
13.39	0.608
13.425	0.609
13.46	0.608
13.495	0.602
13.53	0.603
13.565	0.599
13.6	0.594
13.635	0.591
13.67	0.586
13.705	0.568
13.74	0.552
13.775	0.542
13.81	0.531
13.845	0.526
13.88	0.526
13.915	0.531
13.95	0.538
13.985	0.542
14.02	0.544
14.055	0.553
14.09	0.558
14.125	0.573
14.16	0.586
14.195	0.598
14.23	0.61
14.265	0.623
14.3	0.633
14.335	0.643
14.37	0.648
14.405	0.653
14.44	0.654
14.475	0.654
14.51	0.655
14.545	0.654
14.58	0.654
14.615	0.658
14.65	0.655
14.685	0.657
14.72	0.653
14.755	0.653
14.79	0.653
14.825	0.649
14.86	0.645
14.895	0.634
14.93	0.617
14.965	0.602
15	0.6
