Infrared Spectrum: Cyclodecane
Formula: C 10 H 20
CAS: 293-96-9
State: gas
Instrument: HP-GC/MS/IRD
Origin: NIST Mass Spectrometry Data Center
1/CM	ABSORBANCE
550	9.4e-05
562	9.4e-06
574	9.87e-05
586	2.82e-05
598	7.05e-05
610	0.0001739
622	0.000141
634	0.0001786
646	0.0002209
658	0.0002021
670	0.000282
682	0.0005217
694	0.0006251
706	0.0008413
718	0.001128
730	0.0010669
742	0.0006016
754	0.0005358
766	0.0005781
778	0.0005734
790	0.0004277
802	0.0002679
814	0.000282
826	0.0002209
838	0.0002726
850	0.0002679
862	0.0002303
874	0.0003102
886	0.0002303
898	0.0002115
910	0.0002115
922	0.0002914
934	0.0002867
946	0.0002303
958	0.000235
970	0.0002397
982	0.0002726
994	0.0002961
1006	0.0003713
1018	0.0003384
1030	0.0002867
1042	0.000188
1054	0.0001786
1066	0.0002444
1078	0.0003149
1090	0.0003431
1102	0.0002961
1114	0.0002256
1126	0.0002115
1138	0.0001833
1150	0.0002115
1162	0.0002162
1174	0.0001833
1186	0.0001974
1198	0.0002021
1210	0.0002068
1222	0.0002209
1234	0.0003102
1246	0.0003196
1258	0.0003572
1270	0.0003948
1282	0.0004982
1294	0.0005029
1306	0.0004606
1318	0.0005969
1330	0.0007755
1342	0.0010293
1354	0.0011327
1366	0.0006721
1378	0.0002961
1390	0.0002538
1402	0.0003055
1414	0.0004089
1426	0.0007003
1438	0.0021902
1450	0.0040984
1462	0.0035015
1474	0.0032383
1486	0.0032383
1498	0.0013959
1510	0.0004418
1522	0.0002538
1534	0.0002068
1546	0.0001833
1558	0.0001645
1570	0.0001598
1582	0.0001457
1594	0.0001081
1606	0.0001081
1618	9.87e-05
1630	9.87e-05
1642	0.0001128
1654	8.46e-05
1666	9.4e-05
1678	9.4e-05
1690	0.0001034
1702	8.93e-05
1714	6.58e-05
1726	8.46e-05
1738	7.99e-05
1750	5.64e-05
1762	7.05e-05
1774	6.11e-05
1786	7.52e-05
1798	7.05e-05
1810	6.11e-05
1822	6.11e-05
1834	5.64e-05
1846	4.7e-05
1858	5.17e-05
1870	4.7e-05
1882	4.23e-05
1894	4.23e-05
1906	5.17e-05
1918	3.29e-05
1930	7.52e-05
1942	6.11e-05
1954	6.58e-05
1966	7.05e-05
1978	6.11e-05
1990	4.7e-05
2002	3.76e-05
2014	6.11e-05
2026	6.11e-05
2038	6.58e-05
2050	4.23e-05
2062	2.82e-05
2074	3.76e-05
2086	3.29e-05
2098	5.64e-05
2110	6.11e-05
2122	6.11e-05
2134	6.11e-05
2146	6.58e-05
2158	9.4e-05
2170	5.64e-05
2182	6.58e-05
2194	6.58e-05
2206	8.93e-05
2218	6.58e-05
2230	6.11e-05
2242	8.46e-05
2254	7.05e-05
2266	7.05e-05
2278	6.11e-05
2290	7.99e-05
2302	5.64e-05
2314	6.58e-05
2326	7.05e-05
2338	6.11e-05
2350	4.7e-05
2362	5.64e-05
2374	5.64e-05
2386	4.7e-06
2398	1.41e-05
2410	3.29e-05
2422	3.76e-05
2434	4.7e-05
2446	7.99e-05
2458	6.11e-05
2470	4.7e-05
2482	5.64e-05
2494	7.52e-05
2506	7.05e-05
2518	0.0001269
2530	0.0001551
2542	0.0001504
2554	0.0001786
2566	0.0002068
2578	0.0002162
2590	0.0002115
2602	0.0002021
2614	0.0002209
2626	0.000282
2638	0.0003619
2650	0.0004653
2662	0.0005546
2674	0.0007379
2686	0.000893
2698	0.0008225
2710	0.0006392
2722	0.0005123
2734	0.0004747
2746	0.0004935
2758	0.000517
2770	0.0005781
2782	0.0007943
2794	0.0010481
2806	0.0013019
2818	0.0015745
2830	0.0021526
2842	0.0055742
2854	0.0119897
2866	0.0141987
2878	0.014899
2890	0.0154113
2902	0.0225882
2914	0.0325287
2926	0.0445372
2938	0.043616
2950	0.0245622
2962	0.0123986
2974	0.0089206
2986	0.00705
2998	0.0043663
3010	0.0021761
3022	0.0011797
3034	0.0008178
3046	0.0006392
3058	0.0005076
3070	0.0004653
3082	0.0003572
3094	0.0003431
3106	0.0003102
3118	0.0002632
3130	0.0002538
3142	0.0002021
3154	0.0002115
3166	0.0001739
3178	0.000188
3190	0.0001974
3202	0.0001974
3214	0.0001833
3226	0.0001786
3238	0.0001551
3250	0.000141
3262	0.0001739
3274	0.0001222
3286	0.0001175
3298	0.0001034
3310	7.99e-05
3322	8.93e-05
3334	6.11e-05
3346	7.99e-05
3358	7.52e-05
3370	7.99e-05
3382	0.0001034
3394	7.52e-05
3406	7.52e-05
3418	8.46e-05
3430	8.93e-05
3442	6.11e-05
3454	6.58e-05
3466	4.7e-05
3478	1.88e-05
3490	0
3502	9.4e-06
3514	0
3526	4.23e-05
3538	2.35e-05
3550	3.76e-05
3562	5.64e-05
3574	5.17e-05
3586	8.46e-05
3598	7.99e-05
3610	9.4e-05
3622	7.52e-05
3634	3.76e-05
3646	6.58e-05
3658	5.64e-05
3670	0.0001034
3682	5.64e-05
3694	7.52e-05
3706	9.87e-05
3718	8.93e-05
3730	5.17e-05
3742	5.17e-05
3754	3.76e-05
3766	6.58e-05
3778	7.99e-05
3790	8.46e-05
3802	8.93e-05
3814	9.4e-05
3826	9.87e-05
3838	8.93e-05
