Infrared Spectrum: 3-Hexenedioic acid, trans-
Formula: C6 H8 O4
CAS: 29311-53-3
State: SOLID (SPLIT MULL), FLUOROLUBE FOR 3800-1330 CM^-^1, NUJOL FOR 1330-400 CM^-^1
Melting point: 195-196 C
Class: COBLENTZ III
Instrument: BECKMAN IR-9 (GRATING)
Instrument parameters: ORDER CHANGES: 670, 1200, 2000 CM^-^1
Sampling: TRANSMISSION
Resolution: 2
Origin: DOW CHEMICAL COMPANY
1/CM	TRANSMITTANCE
3796	0.8201
3787	0.8217
3778	0.8236
3769	0.8256
3760	0.827
3751	0.8282
3742	0.83
3733	0.8318
3724	0.834
3715	0.8358
3706	0.8367
3697	0.837
3688	0.8405
3679	0.8442
3670	0.8464
3661	0.8474
3652	0.8484
3643	0.8495
3634	0.8506
3625	0.8517
3616	0.853
3607	0.8541
3598	0.8551
3589	0.8544
3580	0.8567
3571	0.8595
3562	0.8614
3553	0.8631
3544	0.8644
3535	0.8656
3526	0.8666
3517	0.8675
3508	0.8685
3499	0.8693
3490	0.8699
3481	0.8703
3472	0.8703
3463	0.8697
3454	0.8691
3445	0.868
3436	0.8668
3427	0.8657
3418	0.8645
3409	0.863
3400	0.8609
3391	0.8586
3382	0.8564
3373	0.8523
3364	0.8454
3355	0.8343
3346	0.8284
3337	0.824
3328	0.8196
3319	0.8134
3310	0.8033
3301	0.7915
3292	0.779
3283	0.7675
3274	0.7544
3265	0.7424
3256	0.7306
3247	0.7189
3238	0.7062
3229	0.6936
3220	0.6794
3211	0.6642
3202	0.6482
3193	0.6312
3184	0.6167
3175	0.6034
3166	0.5902
3157	0.5756
3148	0.561
3139	0.5478
3130	0.5356
3121	0.5199
3112	0.5097
3103	0.5046
3094	0.5026
3085	0.5012
3076	0.4989
3067	0.4903
3058	0.4782
3049	0.4631
3040	0.4503
3031	0.442
3022	0.4485
3013	0.4574
3004	0.4665
2995	0.4737
2986	0.4759
2977	0.4553
2968	0.4394
2959	0.4357
2950	0.4337
2941	0.433
2932	0.433
2923	0.4379
2914	0.4454
2905	0.4351
2896	0.4173
2887	0.4516
2878	0.4594
2869	0.4631
2860	0.4672
2851	0.4759
2842	0.489
2833	0.5019
2824	0.5152
2815	0.5297
2806	0.5405
2797	0.5473
2788	0.5503
2779	0.5512
2770	0.551
2761	0.5486
2752	0.5385
2743	0.5353
2734	0.5327
2725	0.5334
2716	0.5433
2707	0.5547
2698	0.5634
2689	0.5635
2680	0.5524
2671	0.552
2662	0.5519
2653	0.5528
2644	0.5541
2635	0.5484
2626	0.5367
2617	0.5397
2608	0.5509
2599	0.5621
2590	0.5726
2581	0.5824
2572	0.5886
2563	0.588
2554	0.5749
2545	0.5776
2536	0.5855
2527	0.5937
2518	0.6014
2509	0.6075
2500	0.6173
2491	0.6294
2482	0.6405
2473	0.6493
2464	0.6561
2455	0.6608
2446	0.6644
2437	0.6644
2428	0.666
2419	0.6718
2410	0.6795
2401	0.6855
2392	0.6934
2383	0.7028
2374	0.7108
2365	0.7125
2356	0.714
2347	0.7185
2338	0.7175
2329	0.7183
2320	0.7225
2311	0.7272
2302	0.7328
2293	0.7368
2284	0.7371
2275	0.7371
2266	0.741
2257	0.7468
2248	0.7528
2239	0.7525
2230	0.7531
2221	0.7612
2212	0.7689
2203	0.7761
2194	0.7834
2185	0.7889
2176	0.7937
2167	0.7985
2158	0.8036
2149	0.8071
2140	0.8093
2131	0.8117
2122	0.8156
2113	0.8195
2104	0.8236
2095	0.8278
2086	0.8328
2077	0.8381
2068	0.8431
2059	0.8475
2050	0.8474
2041	0.8445
2032	0.8415
2023	0.8432
2014	0.8474
2005	0.8516
1996	0.8582
1987	0.8645
1978	0.8717
1969	0.8777
1960	0.8771
1951	0.8763
1942	0.8767
1933	0.8763
1924	0.8757
1915	0.8704
1906	0.8702
1897	0.8754
1888	0.8725
1879	0.8678
1870	0.8681
1861	0.8701
1852	0.8707
1843	0.8685
1834	0.8584
1825	0.846
1816	0.8174
1807	0.8224
1798	0.819
1789	0.8087
1780	0.7901
1771	0.7665
1762	0.743
1753	0.7154
1744	0.6805
1735	0.6246
1726	0.5281
1717	0.3914
1708	0.126
1699	0.0614
1690	0.0636
1681	0.1267
1672	0.2777
1663	0.4101
1654	0.5046
1645	0.555
1636	0.6028
1627	0.6419
1618	0.6758
1609	0.7008
1600	0.7196
1591	0.7392
1582	0.7551
1573	0.7654
1564	0.7711
1555	0.7851
1546	0.8037
1537	0.8207
1528	0.8278
1519	0.8292
1510	0.8264
1501	0.8207
1492	0.8148
1483	0.809
1474	0.8024
1465	0.7918
1456	0.7594
1447	0.69
1438	0.4792
1429	0.3766
1420	0.3452
1411	0.4218
1402	0.2121
1393	0.5202
1384	0.5931
1375	0.6371
1366	0.6316
1357	0.493
1348	0.5744
1339	0.6218
1330	0.7101
1321	0.5777
1312	0.4407
1303	0.2764
1294	0.152
1285	0.5116
1276	0.6782
1267	0.7217
1258	0.7107
1249	0.5827
1240	0.2204
1231	0.039
1222	0.1858
1213	0.5229
1204	0.6168
1195	0.678
1186	0.6945
1177	0.2575
1168	0.5903
1159	0.6858
1150	0.7232
1141	0.7419
1132	0.7558
1123	0.7658
1114	0.7735
1105	0.7761
1096	0.7704
1087	0.6751
1078	0.7644
1069	0.7771
1060	0.7844
1051	0.7876
1042	0.7886
1033	0.7876
1024	0.786
1015	0.7844
1006	0.7818
997	0.7725
988	0.741
979	0.5616
970	0.2379
961	0.6762
952	0.6651
943	0.5864
934	0.316
925	0.5099
916	0.4715
907	0.3736
898	0.3993
889	0.4999
880	0.6362
871	0.6983
862	0.7471
853	0.7718
844	0.7901
835	0.8046
826	0.8158
817	0.8247
808	0.8316
799	0.8364
790	0.8363
781	0.8331
772	0.8367
763	0.843
754	0.8457
745	0.8414
736	0.8246
727	0.784
718	0.7943
709	0.7175
700	0.4826
691	0.6861
682	0.8107
673	0.8387
664	0.8468
655	0.8531
646	0.863
637	0.8641
628	0.8643
619	0.8653
610	0.8662
601	0.8647
592	0.8594
583	0.8483
574	0.8381
565	0.8364
556	0.838
547	0.8386
538	0.831
529	0.7826
520	0.6965
511	0.7571
502	0.8044
493	0.8194
484	0.8227
475	0.8154
466	0.7995
457	0.7781
448	0.7478
439	0.7098
430	0.6635
421	0.5956
412	0.5536
403	0.5397
