Infrared Spectrum: p-Propylacetophenone
Formula: C 11 H 14 O
CAS: 2932-65-2
State: gas
Origin: EPA-IR VAPOR PHASE LIBRARY
1/CM	ABSORBANCE
549.8	0.001961
559.445	0.002621
569.09	0.006961
578.734	0.009911
588.379	0.010641
598.024	0.008221
607.669	0.004511
617.313	0.002001
626.958	0.0011632
636.603	0.001124
646.248	0.002081
655.893	0.002641
665.537	0.002131
675.182	0.001951
684.827	0.002151
694.472	0.001511
704.116	0.0009666
713.761	0.00059
723.406	0.0006351
733.051	0.0009906
742.695	0.0009148
752.34	0.0010243
761.985	0.001311
771.63	0.002111
781.275	0.002541
790.919	0.005121
800.564	0.008521
810.209	0.008701
819.854	0.006721
829.498	0.005581
839.143	0.006421
848.788	0.006041
858.433	0.004241
868.078	0.002451
877.722	0.001801
887.367	0.001581
897.012	0.001331
906.657	0.001361
916.301	0.001231
925.946	0.001541
935.591	0.003441
945.236	0.009021
954.88	0.011571
964.525	0.005681
974.17	0.002851
983.815	0.002051
993.46	0.002071
1003.1	0.002891
1012.75	0.005801
1022.39	0.004901
1032.04	0.002071
1041.68	0.001551
1051.33	0.001541
1060.97	0.002721
1070.62	0.004001
1080.26	0.003591
1089.91	0.003251
1099.55	0.002201
1109.2	0.002271
1118.84	0.002961
1128.49	0.003061
1138.13	0.002081
1147.78	0.001501
1157.42	0.002071
1167.07	0.003361
1176.71	0.009621
1186.36	0.014271
1196	0.006301
1205.64	0.004701
1215.29	0.005791
1224.93	0.010611
1234.58	0.015101
1244.22	0.020751
1253.87	0.050971
1263.51	0.070051
1273.16	0.026431
1282.8	0.010951
1292.45	0.008201
1302.09	0.006221
1311.74	0.004361
1321.38	0.003411
1331.03	0.004401
1340.67	0.007421
1350.32	0.013761
1359.96	0.023301
1369.61	0.014871
1379.25	0.007531
1388.9	0.006721
1398.54	0.007581
1408.18	0.010391
1417.83	0.009791
1427.47	0.006921
1437.12	0.006021
1446.76	0.005741
1456.41	0.005751
1466.05	0.005301
1475.7	0.003971
1485.34	0.002951
1494.99	0.002371
1504.63	0.002151
1514.28	0.002061
1523.92	0.002101
1533.57	0.002181
1543.21	0.002181
1552.86	0.002751
1562.5	0.004291
1572.15	0.005101
1581.79	0.004531
1591.44	0.008101
1601.08	0.017901
1610.73	0.020241
1620.37	0.008881
1630.01	0.004461
1639.66	0.003701
1649.3	0.004081
1658.95	0.005031
1668.59	0.006431
1678.24	0.010281
1687.88	0.025821
1697.53	0.067261
1707.17	0.066991
1716.82	0.022801
1726.46	0.008471
1736.11	0.005081
1745.75	0.003881
1755.4	0.003181
1765.04	0.002201
1774.69	0.001331
1784.33	0.001301
1793.98	0.001361
1803.62	0.001421
1813.27	0.0010838
1822.91	0.0008023
1832.55	0.0007893
1842.2	0.0006751
1851.84	0.0007425
1861.49	0.0007004
1871.13	0.000844
1880.78	0.0010379
1890.42	0.0011975
1900.07	0.001371
1909.71	0.001391
1919.36	0.001341
1929	0.001301
1938.65	0.0010363
1948.29	0.0009716
1957.94	0.0008142
1967.58	0.0006438
1977.23	0.0004737
1986.87	0.0005315
1996.52	0.0006016
2006.16	0.0005574
2015.81	0.0006345
2025.45	0.000629
2035.1	0.0006259
2044.74	0.0006038
2054.38	0.0004259
2064.03	0.0004967
2073.67	0.0005498
2083.32	0.000414
2092.96	0.0004088
2102.61	0.0004626
2112.25	0.0005042
2121.9	0.0003917
2131.54	0.0003592
2141.19	0.0004201
2150.83	0.0004304
2160.48	0.0004559
2170.12	0.0004689
2179.77	0.0004075
2189.41	0.0004416
2199.06	0.0004814
2208.7	0.0004535
2218.35	0.000482
2227.99	0.0003398
2237.64	0.0003836
2247.28	0.0004822
2256.92	0.0004159
2266.57	0.00030407
2276.21	0.0004687
2285.86	0.0004787
2295.5	0.0006149
2305.15	0.0007151
2314.79	0.0007027
2324.44	0.0006694
2334.08	0.0006587
2343.73	0.0005135
2353.37	0.0004794
2363.02	0.0005326
2372.66	0.000543
2382.31	0.0004312
2391.95	0.0005247
2401.6	0.0005197
2411.24	0.0006392
2420.89	0.0005256
2430.53	0.000539
2440.18	0.0005688
2449.82	0.0005117
2459.47	0.0004193
2469.11	0.0005708
2478.75	0.0004354
2488.4	0.0005037
2498.04	0.0005826
2507.69	0.0006903
2517.33	0.0007072
2526.98	0.000727
2536.62	0.0005828
2546.27	0.0004838
2555.91	0.0005559
2565.56	0.0007207
2575.2	0.0006141
2584.85	0.0007094
2594.49	0.0005795
2604.14	0.0006127
2613.78	0.0005767
2623.43	0.0007576
2633.07	0.0005712
2642.72	0.0008033
2652.36	0.0007177
2662.01	0.0006369
2671.65	0.0006779
2681.29	0.0006832
2690.94	0.0005557
2700.58	0.0007915
2710.23	0.0006293
2719.87	0.0008295
2729.52	0.0006553
2739.16	0.0008153
2748.81	0.0010209
2758.45	0.0008576
2768.1	0.0009616
2777.74	0.0009201
2787.39	0.0010642
2797.03	0.001241
2806.68	0.001361
2816.32	0.001711
2825.97	0.001961
2835.61	0.002681
2845.26	0.003851
2854.9	0.005861
2864.55	0.008621
2874.19	0.012311
2883.84	0.014561
2893.48	0.010821
2903.12	0.009301
2912.77	0.011531
2922.41	0.016631
2932.06	0.025231
2941.7	0.029721
2951.35	0.023471
2960.99	0.022281
2970.64	0.028111
2980.28	0.022071
2989.93	0.011221
2999.57	0.008491
3009.22	0.008281
3018.86	0.008211
3028.51	0.009671
3038.15	0.009741
3047.8	0.006751
3057.44	0.005581
3067.09	0.005431
3076.73	0.005451
3086.38	0.005371
3096.02	0.004351
3105.67	0.002871
3115.31	0.002491
3124.95	0.001831
3134.6	0.001271
3144.24	0.0010654
3153.89	0.0009219
3163.53	0.0008564
3173.18	0.000753
3182.82	0.0005642
3192.47	0.0009298
3202.11	0.0007396
3211.76	0.0006482
3221.4	0.0006264
3231.05	0.0005183
3240.69	0.000439
3250.34	0.0004856
3259.98	0.00024986
3269.63	0.0005011
3279.27	0.00025448
3288.92	0.0004065
3298.56	0.00023997
3308.21	0.0003934
3317.85	0.0004673
3327.49	0.0003635
3337.14	0.00031808
3346.78	0.0005959
3356.43	0.0005125
3366.07	0.0006884
3375.72	0.001351
3385.36	0.001671
3395.01	0.001291
3404.65	0.001008
3414.3	0.0005532
3423.94	0.0005158
3433.59	0.0005017
3443.23	0.00026427
3452.88	0.0006164
3462.52	0.000558
3472.17	0.00021943
3481.81	0.00028363
3491.46	0.0004263
3501.1	0.0001844
3510.75	0.0001225
3520.39	0.00025921
3530.04	0.00029344
3539.68	0.0003336
3549.32	0.0003923
3558.97	0.0004096
3568.61	0.0003405
3578.26	0.0004419
3587.9	0.0004648
3597.55	0.0004048
3607.19	0.0005386
3616.84	0.000220016
3626.48	0.0004789
3636.13	4.9e-05
3645.77	0.00031477
3655.42	0.000486
3665.06	0.0004322
3674.71	0.0003612
3684.35	0.0004545
3694	0.0004136
3703.64	0.0003948
3713.29	0.00028504
3722.93	0.0003548
3732.58	0.000376
3742.22	0.0001913
3751.86	0.0004125
3761.51	0.0001724
3771.15	0.00028637
3780.8	0.0003809
3790.44	0.0005428
3800.09	0.000438
3809.73	0.0001289
3819.38	0.000325
3829.02	0.0002029
3838.67	0.0003951
3848.31	0.00025524
3857.96	0.00026921
3867.6	0.0003767
3877.25	0.00026539
3886.89	0.0003776
3896.54	0.0001211
3906.18	0.0003577
3915.83	0.0003838
3925.47	0.0005173
3935.12	0.0005171
3944.76	0.0003506
3954.41	0.0005219
3964.05	0.0004498
3973.69	0.0003741
3983.34	0.0004688
3992.98	0.0004055
