Infrared Spectrum: Methanol, bis(4-bromophenyl)-
Formula: C13 H10 Br2 O
CAS: 29334-18-7
State: SOLID (1.2 mg / 300 mg KBr DISC)
Class: COBLENTZ III
Instrument: PERKIN-ELMER 180 (GRATING)
Instrument parameters: GRATINGS: 2000, 1000, 500, 250 CM^-^1; FILTER CHANGE: 2970, 2000, 1485, 1000, 743, 500, 372, 250, 186 CM^-^1.
Sampling: TRANSMISSION
Resolution: 2
Origin: K. K. DEB-NCI FREDERICK CANCER RESEARCH CENTER
1/CM	TRANSMITTANCE
397	0.9315
406	0.9281
415	0.9284
424	0.9627
433	0.9716
442	0.9691
451	0.9637
460	0.9529
469	0.926
478	0.6626
487	0.6123
496	0.6029
505	0.9405
514	0.9451
523	0.9389
532	0.9251
541	0.8937
550	0.6942
559	0.5831
568	0.9191
577	0.9286
586	0.9212
595	0.9088
604	0.8947
613	0.8704
622	0.8207
631	0.7539
640	0.7599
649	0.7227
658	0.8171
667	0.7993
676	0.8873
685	0.7875
694	0.804
703	0.7742
712	0.8854
721	0.76
730	0.8112
739	0.8915
748	0.9044
757	0.901
766	0.8856
775	0.8493
784	0.7626
793	0.2009
802	0.1778
811	0.2168
820	0.4294
829	0.626
838	0.7571
847	0.9023
856	0.7976
865	0.6898
874	0.9013
883	0.9458
892	0.9511
901	0.951
910	0.9487
919	0.9452
928	0.9395
937	0.929
946	0.8592
955	0.9004
964	0.9132
973	0.902
982	0.8885
991	0.8623
1000	0.8193
1009	0.2739
1018	0.4661
1027	0.6947
1036	0.3485
1045	0.286
1054	0.486
1063	0.7595
1072	0.1555
1081	0.5963
1090	0.8785
1099	0.8932
1108	0.8111
1117	0.7782
1126	0.8794
1135	0.9083
1144	0.9076
1153	0.9031
1162	0.8894
1171	0.8563
1180	0.7747
1189	0.6468
1198	0.6592
1207	0.8215
1216	0.8361
1225	0.8104
1234	0.838
1243	0.7987
1252	0.7889
1261	0.8539
1270	0.8281
1279	0.7408
1288	0.8414
1297	0.6747
1306	0.8764
1315	0.8101
1324	0.7764
1333	0.7006
1342	0.7951
1351	0.8175
1360	0.8106
1369	0.8258
1378	0.7787
1387	0.7301
1396	0.575
1405	0.3115
1414	0.5636
1423	0.7725
1432	0.7276
1441	0.7367
1450	0.7752
1459	0.7978
1468	0.7806
1477	0.6651
1486	0.1029
1495	0.5397
1504	0.7721
1513	0.8868
1522	0.9142
1531	0.9192
1540	0.9175
1549	0.9105
1558	0.896
1567	0.8768
1576	0.8339
1585	0.8079
1594	0.6241
1603	0.7847
1612	0.8926
1621	0.8887
1630	0.8737
1639	0.8529
1648	0.8684
1657	0.8853
1666	0.8922
1675	0.8865
1684	0.8728
1693	0.8582
1702	0.8726
1711	0.8823
1720	0.8802
1729	0.8791
1738	0.8802
1747	0.8817
1756	0.8826
1765	0.8823
1774	0.8812
1783	0.873
1792	0.8545
1801	0.8718
1810	0.8867
1819	0.8889
1828	0.8887
1837	0.8889
1846	0.8868
1855	0.8836
1864	0.8799
1873	0.8749
1882	0.8676
1891	0.856
1900	0.832
1909	0.763
1918	0.8227
1927	0.853
1936	0.8695
1945	0.8707
1954	0.8694
1963	0.8674
1972	0.8702
1981	0.871
1990	0.8697
1999	0.8662
2008	0.8635
2017	0.8615
2026	0.8594
2035	0.8573
2044	0.8553
2053	0.8528
2062	0.8499
2071	0.8469
2080	0.8436
2089	0.8474
2098	0.8516
2107	0.852
2116	0.851
2125	0.8489
2134	0.846
2143	0.8428
2152	0.8451
2161	0.8438
2170	0.8419
2179	0.8398
2188	0.8368
2197	0.8344
2206	0.8325
2215	0.8306
2224	0.8287
2233	0.8266
2242	0.8247
2251	0.8226
2260	0.8197
2269	0.8166
2278	0.8135
2287	0.811
2296	0.8126
2305	0.8136
2314	0.8145
2323	0.8149
2332	0.8148
2341	0.8139
2350	0.8123
2359	0.8103
2368	0.8079
2377	0.8054
2386	0.8032
2395	0.8009
2404	0.7988
2413	0.7964
2422	0.794
2431	0.7916
2440	0.7891
2449	0.7866
2458	0.7842
2467	0.7823
2476	0.7804
2485	0.7786
2494	0.7769
2503	0.7752
2512	0.7735
2521	0.7711
2530	0.7685
2539	0.7659
2548	0.7631
2557	0.7603
2566	0.7575
2575	0.7547
2584	0.7518
2593	0.7488
2602	0.7458
2611	0.7429
2620	0.74
2629	0.737
2638	0.7339
2647	0.7316
2656	0.73
2665	0.729
2674	0.7288
2683	0.7289
2692	0.7284
2701	0.7272
2710	0.7253
2719	0.7228
2728	0.7197
2737	0.7164
2746	0.713
2755	0.7097
2764	0.7081
2773	0.7073
2782	0.7066
2791	0.7061
2800	0.7025
2809	0.6979
2818	0.6921
2827	0.6841
2836	0.675
2845	0.6659
2854	0.6597
2863	0.6559
2872	0.6542
2881	0.6415
2890	0.6233
2899	0.6054
2908	0.6143
2917	0.6439
2926	0.6559
2935	0.6622
2944	0.666
2953	0.6677
2962	0.6672
2971	0.6656
2980	0.664
2989	0.6637
2998	0.6605
3007	0.6525
3016	0.6417
3025	0.6307
3034	0.6348
3043	0.6324
3052	0.6209
3061	0.6038
3070	0.6099
3079	0.6132
3088	0.6052
3097	0.6123
3106	0.6136
3115	0.6078
3124	0.6003
3133	0.5916
3142	0.5814
3151	0.5703
3160	0.5585
3169	0.5452
3178	0.5311
3187	0.5165
3196	0.5001
3205	0.4818
3214	0.4553
3223	0.4192
3232	0.3882
3241	0.357
3250	0.3254
3259	0.3028
3268	0.2851
3277	0.2721
3286	0.2628
3295	0.2535
3304	0.2446
3313	0.2372
3322	0.2296
3331	0.2219
3340	0.2149
3349	0.2094
3358	0.2149
3367	0.2286
3376	0.2586
3385	0.2951
3394	0.3316
3403	0.368
3412	0.4046
3421	0.441
3430	0.4756
3439	0.5156
3448	0.5574
3457	0.5839
3466	0.6
3475	0.6161
3484	0.6281
3493	0.6359
3502	0.6403
3511	0.6427
3520	0.6443
3529	0.6455
3538	0.6463
3547	0.6466
3556	0.6468
3565	0.6462
3574	0.6456
3583	0.6444
3592	0.6429
3601	0.6423
3610	0.6428
3619	0.6424
3628	0.6417
3637	0.6405
3646	0.6394
3655	0.6384
3664	0.6375
3673	0.636
3682	0.6346
3691	0.6321
3700	0.6298
3709	0.6278
3718	0.626
3727	0.6242
3736	0.6225
3745	0.621
3754	0.6195
3763	0.6179
3772	0.6164
3781	0.6148
3790	0.6132
