Infrared Spectrum: p-Bromobenzyhdrol
Formula: C 13 H 11 Br O
CAS: 29334-16-5
State: gas
Origin: EPA-IR VAPOR PHASE LIBRARY
1/CM	ABSORBANCE
551.7	0.01
563.274	0.00494
574.848	0.00384
586.421	0.00384
597.995	0.00481
609.569	0.01015
621.143	0.01365
632.717	0.00773
644.291	0.00587
655.864	0.00675
667.438	0.01068
679.012	0.01463
690.586	0.02818
702.16	0.04004
713.734	0.02205
725.307	0.01819
736.881	0.02798
748.455	0.02981
760.029	0.02475
771.603	0.01852
783.177	0.02068
794.75	0.02155
806.324	0.0207
817.898	0.02009
829.472	0.0201
841.046	0.02442
852.619	0.02103
864.193	0.0106
875.767	0.00696
887.341	0.00548
898.915	0.005
910.489	0.00535
922.062	0.00508
933.636	0.00499
945.21	0.00532
956.784	0.00559
968.358	0.00665
979.932	0.00927
991.505	0.01583
1003.08	0.04541
1014.65	0.08345
1026.23	0.04899
1037.8	0.03784
1049.37	0.02016
1060.95	0.02067
1072.52	0.04963
1084.1	0.01742
1095.67	0.00944
1107.24	0.00861
1118.82	0.00696
1130.39	0.00622
1141.97	0.00745
1153.54	0.01144
1165.11	0.02108
1176.69	0.0286
1188.26	0.0202
1199.83	0.01321
1211.41	0.01309
1222.98	0.01312
1234.56	0.01093
1246.13	0.01038
1257.7	0.01176
1269.28	0.01367
1280.85	0.01582
1292.42	0.01771
1304	0.01663
1315.57	0.01564
1327.15	0.01651
1338.72	0.01688
1350.29	0.01792
1361.87	0.01683
1373.44	0.01408
1385.02	0.0135
1396.59	0.01643
1408.16	0.01436
1419.74	0.00951
1431.31	0.00876
1442.88	0.01139
1454.46	0.01502
1466.03	0.01447
1477.61	0.0323
1489.18	0.05867
1500.75	0.02083
1512.33	0.00666
1523.9	0.00441
1535.48	0.00396
1547.05	0.00386
1558.62	0.00427
1570.2	0.00549
1581.77	0.00855
1593.34	0.01481
1604.92	0.01036
1616.49	0.00431
1628.07	0.00328
1639.64	0.00297
1651.21	0.00293
1662.79	0.00312
1674.36	0.00285
1685.93	0.00226
1697.51	0.00193
1709.08	0.00181
1720.66	0.00196
1732.23	0.00228
1743.8	0.00259
1755.38	0.00274
1766.95	0.00297
1778.53	0.00398
1790.1	0.00345
1801.67	0.00372
1813.25	0.00241
1824.82	0.00187
1836.39	0.0016
1847.97	0.00161
1859.54	0.00196
1871.12	0.0028
1882.69	0.00388
1894.26	0.00469
1905.84	0.00368
1917.41	0.00245
1928.99	0.00235
1940.56	0.00295
1952.13	0.00309
1963.71	0.00259
1975.28	0.00154
1986.85	0.00131
1998.43	0.00124
2010	0.00125
2021.58	0.00133
2033.15	0.0013
2044.72	0.00125
2056.3	0.00116
2067.87	0.00109
2079.44	0.0009762
2091.02	0.0009196
2102.59	0.0008375
2114.17	0.0008333
2125.74	0.0007868
2137.31	0.0008409
2148.89	0.0008179
2160.46	0.000772
2172.04	0.0007788
2183.61	0.0008691
2195.18	0.0008878
2206.76	0.0008731
2218.33	0.0008666
2229.9	0.0008518
2241.48	0.0008387
2253.05	0.0008818
2264.63	0.0009626
2276.2	0.00108
2287.77	0.00121
2299.35	0.00116
2310.92	0.00128
2322.5	0.0012
2334.07	0.00114
2345.64	0.00115
2357.22	0.00112
2368.79	0.00113
2380.36	0.00111
2391.94	0.00108
2403.51	0.00105
2415.09	0.00106
2426.66	0.00105
2438.23	0.001
2449.81	0.001
2461.38	0.0009903
2472.96	0.0009926
2484.53	0.0009966
2496.1	0.00101
2507.68	0.00109
2519.25	0.00114
2530.82	0.00113
2542.4	0.00124
2553.97	0.00132
2565.55	0.00131
2577.12	0.00134
2588.69	0.00135
2600.27	0.00141
2611.84	0.00121
2623.41	0.00112
2634.99	0.00116
2646.56	0.00115
2658.14	0.00116
2669.71	0.00123
2681.28	0.00108
2692.86	0.00113
2704.43	0.00113
2716.01	0.00107
2727.58	0.00106
2739.15	0.00119
2750.73	0.00126
2762.3	0.00129
2773.87	0.00138
2785.45	0.00139
2797.02	0.00144
2808.6	0.00151
2820.17	0.00163
2831.74	0.00202
2843.32	0.00266
2854.89	0.00407
2866.47	0.00702
2878.04	0.01127
2889.61	0.01228
2901.19	0.00862
2912.76	0.00496
2924.33	0.00306
2935.91	0.00224
2947.48	0.00194
2959.06	0.00182
2970.63	0.00205
2982.2	0.0024
2993.78	0.00284
3005.35	0.00457
3016.92	0.0089
3028.5	0.01948
3040.07	0.02087
3051.65	0.01513
3063.22	0.01985
3074.79	0.02765
3086.37	0.01965
3097.94	0.01368
3109.52	0.00699
3121.09	0.00342
3132.66	0.00187
3144.24	0.00139
3155.81	0.0013
3167.38	0.00133
3178.96	0.00104
3190.53	0.0009499
3202.11	0.0008249
3213.68	0.000788
3225.25	0.0007701
3236.83	0.0008267
3248.4	0.0007404
3259.98	0.0008074
3271.55	0.0007945
3283.12	0.0007831
3294.7	0.0008446
3306.27	0.0009054
3317.84	0.0008901
3329.42	0.0009684
3340.99	0.001
3352.57	0.0009488
3364.14	0.00105
3375.71	0.00115
3387.29	0.00114
3398.86	0.00109
3410.43	0.00114
3422.01	0.0011
3433.58	0.00115
3445.16	0.00119
3456.73	0.00113
3468.3	0.00116
3479.88	0.00124
3491.45	0.00115
3503.03	0.00109
3514.6	0.00108
3526.17	0.00106
3537.75	0.00104
3549.32	0.00102
3560.89	0.00102
3572.47	0.00111
3584.04	0.00111
3595.62	0.00141
3607.19	0.00184
3618.76	0.00277
3630.34	0.00636
3641.91	0.01876
3653.49	0.01364
3665.06	0.00443
3676.63	0.00256
3688.21	0.00192
3699.78	0.00156
3711.35	0.00149
3722.93	0.00133
3734.5	0.00121
3746.08	0.00112
3757.65	0.00126
3769.22	0.00126
3780.8	0.00123
3792.37	0.00119
3803.94	0.00112
3815.52	0.0012
3827.09	0.00119
3838.67	0.00125
3850.24	0.00119
3861.81	0.00118
3873.39	0.0012
3884.96	0.0013
3896.54	0.00142
3908.11	0.00132
3919.68	0.00138
3931.26	0.00127
3942.83	0.00106
3954.4	0.0009509
3965.98	0.0009124
3977.55	0.000972
3989.13	0.0009402
4000.7	0.0009471
