Infrared Spectrum: BICYCLO[2.2.1]HEPTANE,2-CHLORO-
Formula: C7 H11 Cl
CAS: 29342-53-8
State: LIQUID (NEAT)
Class: COBLENTZ III
Instrument: CARY 90 (GRATING)
Instrument parameters: ORDER CHANGES: 3000, 2000, 1200 CM^-^1
Sampling: TRANSMISSION
Path length: 0.0029 CM
Resolution: 2
Origin: WESTERN REGIONAL RES. USDA
1/CM	TRANSMITTANCE
3932	0.8546
3923	0.8425
3914	0.8282
3905	0.8195
3896	0.8195
3887	0.8211
3878	0.823
3869	0.8256
3860	0.8281
3851	0.8297
3842	0.8314
3833	0.8324
3824	0.8325
3815	0.8323
3806	0.8315
3797	0.8306
3788	0.8294
3779	0.8281
3770	0.8268
3761	0.8252
3752	0.8223
3743	0.8187
3734	0.8181
3725	0.8214
3716	0.8328
3707	0.8407
3698	0.8435
3689	0.8428
3680	0.8416
3671	0.8445
3662	0.8467
3653	0.8478
3644	0.8498
3635	0.8518
3626	0.8544
3617	0.8568
3608	0.8593
3599	0.861
3590	0.8627
3581	0.8639
3572	0.864
3563	0.864
3554	0.8637
3545	0.863
3536	0.8642
3527	0.8671
3518	0.8718
3509	0.875
3500	0.8768
3491	0.8788
3482	0.8784
3473	0.8775
3464	0.8762
3455	0.8725
3446	0.8675
3437	0.8611
3428	0.8575
3419	0.8575
3410	0.8605
3401	0.861
3392	0.8608
3383	0.8603
3374	0.86
3365	0.8599
3356	0.8598
3347	0.8596
3338	0.8591
3329	0.8586
3320	0.8581
3311	0.8575
3302	0.8587
3293	0.8603
3284	0.8635
3275	0.867
3266	0.8703
3257	0.8728
3248	0.8723
3239	0.8701
3230	0.8647
3221	0.8573
3212	0.85
3203	0.8449
3194	0.8411
3185	0.8417
3176	0.8447
3167	0.8478
3158	0.8514
3149	0.8501
3140	0.8489
3131	0.8473
3122	0.8452
3113	0.8423
3104	0.8377
3095	0.8306
3086	0.8228
3077	0.8136
3068	0.8031
3059	0.7914
3050	0.779
3041	0.7526
3032	0.6925
3023	0.6315
3014	0.5326
3005	0.436
2996	0.288
2987	0.0803
2978	0.0199
2969	0.0046
2960	0.0042
2951	0.0042
2942	0.0062
2933	0.0181
2924	0.0411
2915	0.0655
2906	0.0764
2897	0.177
2888	0.2874
2879	0.1442
2870	0.0055
2861	0.152
2852	0.4012
2843	0.6618
2834	0.7695
2825	0.8082
2816	0.8412
2807	0.8468
2798	0.856
2789	0.8809
2780	0.8911
2771	0.8865
2762	0.8838
2753	0.8983
2744	0.9094
2735	0.9174
2726	0.9191
2717	0.9215
2708	0.924
2699	0.9264
2690	0.9288
2681	0.9308
2672	0.9328
2663	0.9338
2654	0.9335
2645	0.931
2636	0.9254
2627	0.9175
2618	0.9078
2609	0.909
2600	0.9149
2591	0.9183
2582	0.9164
2573	0.9046
2564	0.9164
2555	0.9258
2546	0.9267
2537	0.9223
2528	0.918
2519	0.9156
2510	0.9192
2501	0.9206
2492	0.9185
2483	0.9189
2474	0.925
2465	0.9255
2456	0.9178
2447	0.9128
2438	0.9181
2429	0.9228
2420	0.926
2411	0.9251
2402	0.9243
2393	0.9207
2384	0.9135
2375	0.9017
2366	0.8914
2357	0.8897
2348	0.8925
2339	0.8971
2330	0.9025
2321	0.9113
2312	0.9215
2303	0.9317
2294	0.9438
2285	0.9425
2276	0.9402
2267	0.9371
2258	0.9342
2249	0.9331
2240	0.9321
2231	0.9311
2222	0.9302
2213	0.9308
2204	0.9318
2195	0.9331
2186	0.9352
2177	0.938
2168	0.9414
2159	0.9453
2150	0.9483
2141	0.9505
2132	0.9534
2123	0.9578
2114	0.9588
2105	0.9575
2096	0.9567
2087	0.956
2078	0.9589
2069	0.9687
2060	0.9771
2051	0.9832
2042	0.9861
2033	0.989
2024	0.9889
2015	0.988
2006	0.987
1997	0.9859
1988	0.9847
1979	0.9835
1970	0.9828
1961	0.9827
1952	0.9824
1943	0.982
1934	0.9807
1925	0.9788
1916	0.9753
1907	0.9694
1898	0.9645
1889	0.966
1880	0.9735
1871	0.9764
1862	0.9694
1853	0.9616
1844	0.9618
1835	0.9735
1826	0.975
1817	0.9735
1808	0.9708
1799	0.9658
1790	0.964
1781	0.9678
1772	0.964
1763	0.9492
1754	0.8962
1745	0.9147
1736	0.9491
1727	0.9038
1718	0.935
1709	0.9481
1700	0.9528
1691	0.9558
1682	0.9583
1673	0.9596
1664	0.961
1655	0.9621
1646	0.9616
1637	0.9593
1628	0.9566
1619	0.9536
1610	0.9499
1601	0.9465
1592	0.9475
1583	0.9466
1574	0.9432
1565	0.9383
1556	0.9336
1547	0.9289
1538	0.9247
1529	0.9197
1520	0.9137
1511	0.8978
1502	0.8624
1493	0.8374
1484	0.7411
1475	0.5277
1466	0.6397
1457	0.1969
1448	0.2548
1439	0.3024
1430	0.7821
1421	0.8375
1412	0.845
1403	0.8584
1394	0.8809
1385	0.8709
1376	0.871
1367	0.8808
1358	0.865
1349	0.84
1340	0.8232
1331	0.7596
1322	0.395
1313	0.1683
1304	0.1949
1295	0.399
1286	0.4847
1277	0.6515
1268	0.446
1259	0.0427
1250	0.4116
1241	0.4012
1232	0.649
1223	0.693
1214	0.7
1205	0.628
1196	0.8486
1187	0.8913
1178	0.8651
1169	0.84
1160	0.8935
1151	0.8617
1142	0.6895
1133	0.6826
1124	0.851
1115	0.844
1106	0.9071
1097	0.8933
1088	0.9156
1079	0.9295
1070	0.9244
1061	0.8475
1052	0.3392
1043	0.6733
1034	0.7564
1025	0.9183
1016	0.9008
1007	0.824
998	0.9043
989	0.9246
980	0.9135
971	0.8594
962	0.7861
953	0.0469
944	0.3807
935	0.7599
926	0.5943
917	0.5503
908	0.7271
899	0.0821
890	0.5997
881	0.4892
872	0.7308
863	0.8991
854	0.895
845	0.8347
836	0.4133
827	0.7934
818	0.7436
809	0.383
800	0.623
791	0.8139
782	0.7919
773	0.6618
764	0.1412
755	0.4379
746	0.7519
737	0.8433
728	0.8625
719	0.8542
710	0.8189
701	0.766
692	0.6853
683	0.3762
674	0.0115
665	0.2248
656	0.495
647	0.6908
638	0.7542
629	0.7958
620	0.8028
611	0.8019
602	0.7921
593	0.7361
584	0.523
575	0.7432
566	0.764
557	0.7654
548	0.764
539	0.7608
530	0.7599
521	0.7568
512	0.7475
503	0.7311
