Infrared Spectrum: 2-Chloro-2,5-dimethylhexane
Formula: C 8 H 17 Cl
CAS: 29342-44-7
State: gas
Instrument: HP-GC/MS/IRD
Origin: NIST Mass Spectrometry Data Center
1/CM	ABSORBANCE
550	0.000704
562	0.001484
574	0.002992
586	0.003532
598	0.001852
610	0.000996
622	0.001588
634	0.001632
646	0.000532
658	0.000168
670	6e-05
682	0.0001
694	0.000104
706	0.000144
718	0.000124
730	0.000164
742	0.0003
754	0.00058
766	0.000752
778	0.000756
790	0.000988
802	0.001176
814	0.001036
826	0.000868
838	0.000968
850	0.000968
862	0.000692
874	0.000468
886	0.000556
898	0.000524
910	0.000544
922	0.000648
934	0.00062
946	0.0006
958	0.000632
970	0.000772
982	0.000716
994	0.000516
1006	0.000512
1018	0.000528
1030	0.000552
1042	0.000548
1054	0.0007
1066	0.001144
1078	0.002352
1090	0.003192
1102	0.003712
1114	0.003316
1126	0.00364
1138	0.004448
1150	0.004104
1162	0.003744
1174	0.003284
1186	0.0024
1198	0.002088
1210	0.003296
1222	0.003388
1234	0.002452
1246	0.00186
1258	0.001292
1270	0.001284
1282	0.00126
1294	0.001276
1306	0.001408
1318	0.001768
1330	0.002268
1342	0.002
1354	0.002404
1366	0.005704
1378	0.008268
1390	0.006924
1402	0.003068
1414	0.001448
1426	0.0015
1438	0.002416
1450	0.0047
1462	0.006648
1474	0.005784
1486	0.002768
1498	0.001224
1510	0.000724
1522	0.000524
1534	0.000404
1546	0.000336
1558	0.000272
1570	0.000248
1582	0.0002
1594	0.000204
1606	0.000156
1618	0.00016
1630	0.00018
1642	0.000184
1654	0.000148
1666	0.000136
1678	9.2e-05
1690	8.4e-05
1702	0.0001
1714	6e-05
1726	4.4e-05
1738	5.2e-05
1750	4.8e-05
1762	6.8e-05
1774	8.4e-05
1786	5.6e-05
1798	5.6e-05
1810	6e-05
1822	4.8e-05
1834	4.4e-05
1846	4e-05
1858	6e-05
1870	4.4e-05
1882	4.8e-05
1894	2.4e-05
1906	1.6e-05
1918	2e-05
1930	4e-05
1942	2.8e-05
1954	3.6e-05
1966	1.2e-05
1978	2e-05
1990	8e-06
2002	4e-06
2014	2e-05
2026	1.2e-05
2038	3.6e-05
2050	3.2e-05
2062	1.6e-05
2074	1.2e-05
2086	4.4e-05
2098	5.2e-05
2110	4.4e-05
2122	6e-05
2134	6.4e-05
2146	4e-05
2158	6.4e-05
2170	7.6e-05
2182	8.8e-05
2194	7.2e-05
2206	0.000104
2218	8e-05
2230	7.2e-05
2242	6.8e-05
2254	5.2e-05
2266	6e-05
2278	8e-05
2290	7.6e-05
2302	0.000112
2314	7.6e-05
2326	5.6e-05
2338	6.4e-05
2350	7.6e-05
2362	8e-05
2374	0.0001
2386	0.000112
2398	0.0001
2410	8.4e-05
2422	8e-05
2434	9.6e-05
2446	0.000104
2458	0.0001
2470	0.000124
2482	0.000124
2494	0.000124
2506	0.000136
2518	0.000108
2530	0.00014
2542	0.000176
2554	0.000196
2566	0.000256
2578	0.000256
2590	0.000292
2602	0.000288
2614	0.000316
2626	0.000372
2638	0.000372
2650	0.000384
2662	0.00034
2674	0.000352
2686	0.000408
2698	0.000412
2710	0.00048
2722	0.000672
2734	0.000824
2746	0.00078
2758	0.000704
2770	0.000804
2782	0.000844
2794	0.000992
2806	0.00128
2818	0.001664
2830	0.002136
2842	0.003212
2854	0.004952
2866	0.008492
2878	0.01344
2890	0.014192
2902	0.01374
2914	0.016068
2926	0.021696
2938	0.02728
2950	0.028884
2962	0.038592
2974	0.034796
2986	0.021312
2998	0.012188
3010	0.004204
3022	0.00188
3034	0.001276
3046	0.001008
3058	0.000896
3070	0.000924
3082	0.000932
3094	0.000816
3106	0.000696
3118	0.000668
3130	0.000592
3142	0.00058
3154	0.000556
3166	0.000596
3178	0.000536
3190	0.000548
3202	0.000516
3214	0.000508
3226	0.000432
3238	0.000396
3250	0.000372
3262	0.000268
3274	0.000224
3286	0.000168
3298	0.000196
3310	0.000148
3322	0.000204
3334	0.000188
3346	0.000232
3358	0.000224
3370	0.00018
3382	0.000164
3394	0.000172
3406	9.2e-05
3418	0.00012
3430	0.00014
3442	0.000136
3454	0.00014
3466	0.000112
3478	0.000104
3490	8.8e-05
3502	9.2e-05
3514	8e-05
3526	4.8e-05
3538	5.6e-05
3550	9.2e-05
3562	0.000144
3574	0.00018
3586	0.0002
3598	0.000196
3610	0.000188
3622	0.000144
3634	0.000168
3646	0.000124
3658	0.000116
3670	8e-05
3682	0.000148
3694	7.6e-05
3706	0.0001
3718	0.000124
3730	0.00014
3742	9.6e-05
3754	0.00012
3766	0.000168
3778	0.000132
3790	0.00016
3802	0.000224
3814	0.0002
3826	0.000168
3838	0.000188
