Infrared Spectrum: 1,4-BUTANEDIOL, 2-METHYL-
Formula: C5 H12 O2
CAS: 2938-98-9
State: LIQUID (NEAT)
Class: COBLENTZ III
Instrument: DOW KBr FOREPRISM-GRATING
Instrument parameters: BLAZED AT 3.5, 12.0, 20.0 MICRON AND CHANGED AT 5.0, 7.5, 14.9 MICRON
Sampling: TRANSMISSION
Path length: CAPILLARY
Resolution: 2
Origin: DOW CHEMICAL COMPANY
1/CM	TRANSMITTANCE
458	0.7144
467	0.6995
476	0.6951
485	0.7046
494	0.7055
503	0.6951
512	0.6884
521	0.6878
530	0.6876
539	0.6836
548	0.6683
557	0.6578
566	0.6599
575	0.6575
584	0.6488
593	0.6376
602	0.6316
611	0.6291
620	0.6274
629	0.6272
638	0.6283
647	0.6302
656	0.6337
665	0.6398
674	0.6511
683	0.6635
692	0.6722
701	0.6807
710	0.6908
719	0.7018
728	0.7126
737	0.7236
746	0.7345
755	0.7428
764	0.7514
773	0.7558
782	0.7628
791	0.788
800	0.8115
809	0.8253
818	0.8318
827	0.8258
836	0.796
845	0.7862
854	0.826
863	0.868
872	0.883
881	0.874
890	0.8445
899	0.8025
908	0.8075
917	0.837
926	0.8351
935	0.7657
944	0.7898
953	0.7161
962	0.691
971	0.6074
980	0.5259
989	0.4805
998	0.4382
1007	0.4144
1016	0.4232
1025	0.3603
1034	0.2616
1043	0.2754
1052	0.2721
1061	0.2451
1070	0.4093
1079	0.5881
1088	0.6971
1097	0.7069
1106	0.7078
1115	0.7193
1124	0.736
1133	0.7569
1142	0.7576
1151	0.7772
1160	0.7925
1169	0.7643
1178	0.726
1187	0.7085
1196	0.7107
1205	0.7251
1214	0.7456
1223	0.7485
1232	0.7381
1241	0.7374
1250	0.7417
1259	0.7386
1268	0.749
1277	0.7469
1286	0.7288
1295	0.7255
1304	0.7238
1313	0.7095
1322	0.6958
1331	0.6831
1340	0.6682
1349	0.6495
1358	0.6296
1367	0.6066
1376	0.5616
1385	0.5628
1394	0.631
1403	0.6269
1412	0.6081
1421	0.5822
1430	0.5588
1439	0.5782
1448	0.5506
1457	0.4869
1466	0.5234
1475	0.5802
1484	0.6775
1493	0.7485
1502	0.8175
1511	0.8537
1520	0.8757
1529	0.8913
1538	0.9042
1547	0.9115
1556	0.9137
1565	0.9153
1574	0.9154
1583	0.9159
1592	0.9175
1601	0.9189
1610	0.919
1619	0.919
1628	0.9202
1637	0.9224
1646	0.9249
1655	0.9223
1664	0.9228
1673	0.9241
1682	0.925
1691	0.9206
1700	0.904
1709	0.8803
1718	0.8463
1727	0.8274
1736	0.8112
1745	0.8085
1754	0.8065
1763	0.793
1772	0.8367
1781	0.8733
1790	0.8971
1799	0.9411
1808	0.955
1817	0.9591
1826	0.9618
1835	0.9639
1844	0.9656
1853	0.9668
1862	0.9671
1871	0.9666
1880	0.9663
1889	0.968
1898	0.97
1907	0.973
1916	0.975
1925	0.9775
1934	0.9793
1943	0.9793
1952	0.9783
1961	0.9766
1970	0.977
1979	0.9789
1988	0.9791
1997	1.0106
2006	1.0118
2015	1.0118
2024	1.0107
2033	1.0085
2042	1.0067
2051	1.0045
2060	1.0024
2069	1.0027
2078	1.0041
2087	1.0063
2096	1.0068
2105	1.0077
2114	1.0086
2123	1.009
2132	1.0086
2141	1.0078
2150	1.0073
2159	1.0063
2168	1.0053
2177	1.0042
2186	1.0031
2195	1.0012
2204	0.9992
2213	0.997
2222	0.9945
2231	0.992
2240	0.9902
2249	0.9891
2258	0.9878
2267	0.986
2276	0.9844
2285	0.9836
2294	0.983
2303	0.9839
2312	0.9891
2321	0.9966
2330	0.9966
2339	0.9962
2348	0.9949
2357	0.9934
2366	0.9891
2375	0.981
2384	0.9778
2393	0.9771
2402	0.9763
2411	0.9749
2420	0.9733
2429	0.9721
2438	0.9694
2447	0.9668
2456	0.9638
2465	0.96
2474	0.9563
2483	0.9528
2492	0.9496
2501	0.945
2510	0.9404
2519	0.9362
2528	0.9324
2537	0.9291
2546	0.9251
2555	0.9209
2564	0.9168
2573	0.9136
2582	0.9105
2591	0.9073
2600	0.9039
2609	0.9005
2618	0.8967
2627	0.8927
2636	0.8888
2645	0.8845
2654	0.8798
2663	0.8751
2672	0.8691
2681	0.8611
2690	0.8518
2699	0.8425
2708	0.8318
2717	0.8193
2726	0.8017
2735	0.7854
2744	0.785
2753	0.7818
2762	0.7741
2771	0.7604
2780	0.7338
2789	0.7101
2798	0.6844
2807	0.6572
2816	0.5931
2825	0.5341
2834	0.4862
2843	0.4493
2852	0.3993
2861	0.313
2870	0.2307
2879	0.2387
2888	0.2602
2897	0.2638
2906	0.2426
2915	0.2082
2924	0.2016
2933	0.206
2942	0.238
2951	0.2405
2960	0.2408
2969	0.289
2978	0.3462
2987	0.6324
2996	0.6994
3005	0.724
3014	0.7324
3023	0.7318
3032	0.7278
3041	0.7196
3050	0.7075
3059	0.6885
3068	0.6664
3077	0.648
3086	0.6269
3095	0.6078
3104	0.5859
3113	0.554
3122	0.5123
3131	0.4762
3140	0.4455
3149	0.4121
3158	0.383
3167	0.3552
3176	0.3284
3185	0.303
3194	0.28
3203	0.2579
3212	0.2384
3221	0.2227
3230	0.2089
3239	0.1963
3248	0.1848
3257	0.1746
3266	0.1656
3275	0.1573
3284	0.1498
3293	0.1446
3302	0.1406
3311	0.1371
3320	0.1346
3329	0.1331
3338	0.1334
3347	0.1346
3356	0.1371
3365	0.1414
3374	0.1479
3383	0.1565
3392	0.1653
3401	0.1743
3410	0.185
3419	0.1977
3428	0.2107
3437	0.2261
3446	0.2488
3455	0.2726
3464	0.299
3473	0.3318
3482	0.3702
3491	0.4093
3500	0.4488
3509	0.4915
3518	0.532
3527	0.5828
3536	0.626
3545	0.668
3554	0.7051
3563	0.7418
3572	0.7906
3581	0.8311
3590	0.8598
3599	0.8842
3608	0.9065
3617	0.9268
3626	0.9411
3635	0.9492
3644	0.9554
3653	0.961
3662	0.9664
3671	0.9713
3680	0.9748
3689	0.9774
3698	0.9811
3707	0.9855
3716	0.9885
3725	0.9886
3734	0.9878
3743	0.9865
3752	0.985
3761	0.9841
3770	0.9844
3779	0.9873
3788	0.9848
3797	0.981
