Infrared Spectrum: 1,1-Diethyl-1,2,3,4-tetrahydronaphthalene
Formula: C 14 H 20
CAS: 2938-66-1
State: gas
Origin: EPA-IR VAPOR PHASE LIBRARY
1/CM	ABSORBANCE
551.7	0.00607
563.274	0.00709
574.848	0.00519
586.421	0.00205
597.995	0.00109
609.569	0.0006135
621.143	0.0004187
632.717	0.0003319
644.291	0.000745
655.864	0.00157
667.438	0.00405
679.012	0.00462
690.586	0.00363
702.16	0.00522
713.734	0.01681
725.307	0.0533
736.881	0.07234
748.455	0.13772
760.029	0.08063
771.603	0.01963
783.177	0.01353
794.75	0.01035
806.324	0.00521
817.898	0.00455
829.472	0.00665
841.046	0.00801
852.619	0.00909
864.193	0.00775
875.767	0.00898
887.341	0.00799
898.915	0.01172
910.489	0.01249
922.062	0.00976
933.636	0.00982
945.21	0.01232
956.784	0.00674
968.358	0.00425
979.932	0.00619
991.505	0.00587
1003.08	0.00487
1014.65	0.00818
1026.23	0.01259
1037.8	0.0176
1049.37	0.01501
1060.95	0.01276
1072.52	0.00772
1084.1	0.00564
1095.67	0.00481
1107.24	0.00435
1118.82	0.00394
1130.39	0.00382
1141.97	0.0028
1153.54	0.00477
1165.11	0.00717
1176.69	0.00738
1188.26	0.00824
1199.83	0.00478
1211.41	0.00373
1222.98	0.00327
1234.56	0.00258
1246.13	0.00312
1257.7	0.00481
1269.28	0.0088
1280.85	0.01341
1292.42	0.01041
1304	0.00954
1315.57	0.00925
1327.15	0.01136
1338.72	0.01438
1350.29	0.01589
1361.87	0.01326
1373.44	0.02012
1385.02	0.03153
1396.59	0.01447
1408.16	0.00842
1419.74	0.01079
1431.31	0.0221
1442.88	0.05625
1454.46	0.08556
1466.03	0.08521
1477.61	0.07205
1489.18	0.06917
1500.75	0.02936
1512.33	0.01062
1523.9	0.00645
1535.48	0.00508
1547.05	0.00465
1558.62	0.00531
1570.2	0.00752
1581.77	0.00821
1593.34	0.00971
1604.92	0.00991
1616.49	0.00596
1628.07	0.00393
1639.64	0.00268
1651.21	0.00245
1662.79	0.0028
1674.36	0.003
1685.93	0.00389
1697.51	0.00437
1709.08	0.00275
1720.66	0.00226
1732.23	0.00187
1743.8	0.00165
1755.38	0.00158
1766.95	0.00176
1778.53	0.00238
1790.1	0.00341
1801.67	0.00402
1813.25	0.00465
1824.82	0.00406
1836.39	0.00321
1847.97	0.00259
1859.54	0.00209
1871.12	0.00218
1882.69	0.00323
1894.26	0.00344
1905.84	0.00527
1917.41	0.00553
1928.99	0.00444
1940.56	0.00564
1952.13	0.00244
1963.71	0.000924
1975.28	0.0006599
1986.85	0.000511
1998.43	0.0004811
2010	0.0005182
2021.58	0.0005547
2033.15	0.0006137
2044.72	0.0006384
2056.3	0.0006572
2067.87	0.0006233
2079.44	0.0005126
2091.02	0.0004871
2102.59	0.0004979
2114.17	0.0004951
2125.74	0.000518
2137.31	0.000476
2148.89	0.0004868
2160.46	0.0004603
2172.04	0.0004879
2183.61	0.0005239
2195.18	0.0006227
2206.76	0.0007731
2218.33	0.000958
2229.9	0.00107
2241.48	0.00109
2253.05	0.00102
2264.63	0.0009874
2276.2	0.00109
2287.77	0.00132
2299.35	0.00136
2310.92	0.00151
2322.5	0.00207
2334.07	0.00199
2345.64	0.00165
2357.22	0.00158
2368.79	0.00171
2380.36	0.00187
2391.94	0.00201
2403.51	0.00204
2415.09	0.00185
2426.66	0.0016
2438.23	0.00146
2449.81	0.00147
2461.38	0.00147
2472.96	0.00147
2484.53	0.00142
2496.1	0.00154
2507.68	0.00177
2519.25	0.002
2530.82	0.00191
2542.4	0.0018
2553.97	0.00192
2565.55	0.00209
2577.12	0.00229
2588.69	0.0025
2600.27	0.00291
2611.84	0.00351
2623.41	0.00414
2634.99	0.00461
2646.56	0.00502
2658.14	0.00582
2669.71	0.0067
2681.28	0.00646
2692.86	0.00532
2704.43	0.00464
2716.01	0.00482
2727.58	0.00568
2739.15	0.00726
2750.73	0.00831
2762.3	0.00819
2773.87	0.00969
2785.45	0.01201
2797.02	0.01415
2808.6	0.01612
2820.17	0.01954
2831.74	0.02947
2843.32	0.06139
2854.89	0.09711
2866.47	0.14336
2878.04	0.1948
2889.61	0.21073
2901.19	0.17812
2912.76	0.20075
2924.33	0.35172
2935.91	0.50026
2947.48	0.48038
2959.06	0.31714
2970.63	0.30559
2982.2	0.21496
2993.78	0.08978
3005.35	0.06129
3016.92	0.08755
3028.5	0.0827
3040.07	0.05403
3051.65	0.06042
3063.22	0.09957
3074.79	0.09494
3086.37	0.04309
3097.94	0.0279
3109.52	0.01968
3121.09	0.01193
3132.66	0.00971
3144.24	0.00925
3155.81	0.00764
3167.38	0.00544
3178.96	0.00444
3190.53	0.00387
3202.11	0.00341
3213.68	0.00284
3225.25	0.00233
3236.83	0.00197
3248.4	0.00165
3259.98	0.00164
3271.55	0.0015
3283.12	0.00138
3294.7	0.00119
3306.27	0.00106
3317.84	0.000957
3329.42	0.0008705
3340.99	0.0009026
3352.57	0.0009285
3364.14	0.0008692
3375.71	0.0007188
3387.29	0.000608
3398.86	0.0005665
3410.43	0.0004984
3422.01	0.0004783
3433.58	0.0005418
3445.16	0.0005739
3456.73	0.0004623
3468.3	0.0004768
3479.88	0.0005024
3491.45	0.0005043
3503.03	0.0004612
3514.6	0.000553
3526.17	0.0006008
3537.75	0.000643
3549.32	0.000412
3560.89	0.0003377
3572.47	0.0002886
3584.04	0.0002423
3595.62	0.0003218
3607.19	0.0003957
3618.76	0.0004087
3630.34	0.0004623
3641.91	0.0005013
3653.49	0.0005304
3665.06	0.0006263
3676.63	0.0008173
3688.21	0.0009974
3699.78	0.00111
3711.35	0.000802
3722.93	0.0008109
3734.5	0.0008791
3746.08	0.0009689
3757.65	0.0009999
3769.22	0.00101
3780.8	0.0009072
3792.37	0.00103
3803.94	0.00115
3815.52	0.00115
3827.09	0.00112
3838.67	0.00137
3850.24	0.00155
3861.81	0.0015
3873.39	0.00115
3884.96	0.00109
3896.54	0.00111
3908.11	0.0012
3919.68	0.00135
3931.26	0.0012
3942.83	0.00125
3954.4	0.00148
3965.98	0.00173
3977.55	0.0018
3989.13	0.00184
4000.7	0.00191
