Infrared Spectrum: Captafol
Formula: C 10 H 9 Cl 4 N O 2 S
CAS: 2939-80-2
State: gas
Instrument: HP-GC/MS/IRD
Origin: NIST Mass Spectrometry Data Center
1/CM	ABSORBANCE
550	0.0013006
562	0.0010024
574	0.0010906
586	0.0007462
598	0.0004032
610	0.0005432
622	0.0005684
634	0.0004396
646	0.0005208
658	0.0005082
670	0.0009002
682	0.0018088
694	0.0018116
706	0.002156
718	0.0022428
730	0.001379
742	0.0017388
754	0.0021686
766	0.0028714
778	0.0018172
790	0.0010234
802	0.0013174
814	0.0010696
826	0.0006048
838	0.0006272
850	0.0005432
862	0.0004732
874	0.0006664
886	0.0006496
898	0.0003752
910	0.0001596
922	0.0002254
934	0.000182
946	8.82e-05
958	0.0001246
970	0.0001358
982	0.000224
994	0.0004676
1006	0.0008008
1018	0.0009758
1030	0.0008428
1042	0.0008512
1054	0.001295
1066	0.0008694
1078	0.000406
1090	0.0005222
1102	0.000987
1114	0.002401
1126	0.0031962
1138	0.0025648
1150	0.0017206
1162	0.0015414
1174	0.001477
1186	0.0022148
1198	0.0028308
1210	0.0029484
1222	0.0032466
1234	0.0042308
1246	0.0073696
1258	0.0088634
1270	0.0074704
1282	0.0034762
1294	0.001848
1306	0.0015218
1318	0.001379
1330	0.001225
1342	0.0009842
1354	0.0007658
1366	0.0005306
1378	0.0004452
1390	0.0003696
1402	0.0003206
1414	0.0002912
1426	0.0003486
1438	0.0005278
1450	0.0006692
1462	0.0002814
1474	0.0001246
1486	7.98e-05
1498	7.7e-05
1510	3.78e-05
1522	7e-05
1534	0.0001078
1546	0.0001288
1558	7.98e-05
1570	8.68e-05
1582	9.94e-05
1594	9.1e-05
1606	0.0001386
1618	0.0001666
1630	0.0002352
1642	0.0003136
1654	0.0002814
1666	0.0002576
1678	0.0003248
1690	0.000469
1702	0.0006398
1714	0.0010668
1726	0.0020132
1738	0.0046354
1750	0.0113568
1762	0.0132356
1774	0.0066556
1786	0.00259
1798	0.0017318
1810	0.0016478
1822	0.001001
1834	0.000623
1846	0.0004718
1858	0.0003472
1870	0.0002954
1882	0.0002646
1894	0.0002198
1906	0.0002086
1918	0.000175
1930	0.0001708
1942	0.0001666
1954	0.0001568
1966	0.0001582
1978	0.0001274
1990	0.0001568
2002	0.000126
2014	0.0001162
2026	0.000112
2038	0.0001358
2050	0.000133
2062	9.94e-05
2074	0.00014
2086	0.0001358
2098	0.0001134
2110	9.94e-05
2122	0.000112
2134	9.1e-05
2146	0.000112
2158	8.54e-05
2170	6.86e-05
2182	0.0001106
2194	6.02e-05
2206	7.42e-05
2218	5.6e-05
2230	7e-05
2242	7.84e-05
2254	0.0001106
2266	8.12e-05
2278	0.0001218
2290	0.000126
2302	0.0001078
2314	0.0001022
2326	9.66e-05
2338	6.3e-05
2350	6.3e-05
2362	7.56e-05
2374	0.0001204
2386	0.0001512
2398	0.0001204
2410	0.0001022
2422	0.0001078
2434	8.96e-05
2446	6.3e-05
2458	9.94e-05
2470	0.0001064
2482	7.56e-05
2494	9.1e-05
2506	0.0001106
2518	4.2e-05
2530	7.7e-05
2542	7.84e-05
2554	9.24e-05
2566	5.32e-05
2578	0.0001134
2590	9.24e-05
2602	6.72e-05
2614	9.94e-05
2626	8.96e-05
2638	7.28e-05
2650	9.1e-05
2662	8.96e-05
2674	9.24e-05
2686	9.8e-05
2698	6.58e-05
2710	5.04e-05
2722	7.42e-05
2734	0.0001078
2746	8.4e-05
2758	8.4e-05
2770	0.000105
2782	6.58e-05
2794	0.0001232
2806	5.04e-05
2818	0.0001218
2830	0.0001932
2842	0.0002912
2854	0.0005362
2866	0.0007952
2878	0.0004606
2890	0.000532
2902	0.0007028
2914	0.000798
2926	0.000651
2938	0.0007042
2950	0.0006132
2962	0.000651
2974	0.0006188
2986	0.0004886
2998	0.0004928
3010	0.0004662
3022	0.000266
3034	0.000357
3046	0.0008848
3058	0.0009604
3070	0.0003458
3082	0.0003038
3094	0.0001918
3106	0.0001218
3118	0.0001134
3130	6.16e-05
3142	6.16e-05
3154	5.32e-05
3166	5.18e-05
3178	6.3e-05
3190	4.62e-05
3202	9.38e-05
3214	9.8e-05
3226	6.3e-05
3238	0.000126
3250	8.26e-05
3262	5.18e-05
3274	5.46e-05
3286	9.94e-05
3298	5.46e-05
3310	7e-05
3322	0.0001274
3334	5.04e-05
3346	8.26e-05
3358	5.88e-05
3370	9.66e-05
3382	0.0001008
3394	5.18e-05
3406	0.0001554
3418	4.62e-05
3430	0.000112
3442	0.0001694
3454	0.0001302
3466	0.0001498
3478	0.0001246
3490	0.0001092
3502	0.0001862
3514	0.0001778
3526	0.0002716
3538	0.000266
3550	0.0002758
3562	0.0002212
3574	0.0001974
3586	0.0001722
3598	0.0001218
3610	0.0001372
3622	0.0001638
3634	0.0001988
3646	0.0001162
3658	0.0001652
3670	8.54e-05
3682	0.000161
3694	0.0001288
3706	0.0001176
3718	9.8e-05
3730	0.0001316
3742	9.38e-05
3754	4.9e-05
3766	8.82e-05
3778	0.0001526
3790	0.0001848
3802	9.66e-05
3814	7.56e-05
3826	5.32e-05
3838	7.42e-05
