Infrared Spectrum: 4,10-DIOXA-1,7-DITHIACYCLODODECANE
Formula: C8 H16 O2 S2
CAS: 294-95-1
State: LIQUID
Boiling point: 133-142 C AT 0.17 mmHg
Class: COBLENTZ
Instrument: Not specified, most likely a prism, grating, or hybrid spectrometer.
Sampling: TRANSMISSION
Path length: CAPILLARY CELL
Resolution: 4
Origin: EASTMAN KODAK COMPANY, RESEARCH LABORATORIES, ROCHESTER, N.Y.
MICROMETERS	TRANSMITTANCE
2.031	0.802
2.06612	0.802
2.10123	0.804
2.13635	0.804
2.17146	0.804
2.20658	0.8
2.2417	0.772
2.27681	0.791
2.31193	0.795
2.34705	0.793
2.38216	0.797
2.41728	0.798
2.45239	0.798
2.48751	0.798
2.52263	0.798
2.55774	0.798
2.59286	0.802
2.62798	0.807
2.66309	0.818
2.69821	0.816
2.73332	0.798
2.76844	0.779
2.80356	0.765
2.83867	0.739
2.87379	0.723
2.9089	0.727
2.94402	0.741
2.97914	0.756
3.01425	0.767
3.04937	0.774
3.08449	0.777
3.1196	0.779
3.15472	0.784
3.18983	0.79
3.22495	0.795
3.26007	0.793
3.29518	0.779
3.3303	0.736
3.36542	0.445
3.40053	0.243
3.43565	0.213
3.47076	0.218
3.50588	0.169
3.541	0.508
3.57611	0.543
3.61123	0.648
3.64635	0.729
3.68146	0.725
3.71658	0.748
3.75169	0.798
3.78681	0.811
3.82193	0.825
3.85704	0.83
3.89216	0.837
3.92727	0.842
3.96239	0.847
3.99751	0.844
4.03262	0.84
4.06774	0.84
4.10286	0.842
4.13797	0.849
4.17309	0.847
4.2082	0.842
4.24332	0.847
4.27844	0.854
4.31355	0.861
4.34867	0.861
4.38379	0.854
4.4189	0.849
4.45402	0.849
4.48913	0.851
4.52425	0.853
4.55937	0.854
4.59448	0.849
4.6296	0.851
4.66471	0.856
4.69983	0.854
4.73495	0.851
4.77006	0.851
4.80518	0.854
4.8403	0.854
4.87541	0.858
4.91053	0.858
4.94564	0.858
4.98076	0.86
5.01588	0.861
5.05099	0.865
5.08611	0.868
5.12123	0.868
5.15634	0.872
5.19146	0.874
5.22657	0.867
5.26169	0.861
5.29681	0.86
5.33192	0.858
5.36704	0.861
5.40215	0.867
5.43727	0.874
5.47239	0.877
5.5075	0.881
5.54262	0.881
5.57774	0.882
5.61285	0.886
5.64797	0.888
5.68308	0.888
5.7182	0.882
5.75332	0.879
5.78843	0.874
5.82355	0.863
5.85867	0.865
5.89378	0.86
5.9289	0.865
5.96401	0.87
5.99913	0.86
6.03425	0.851
6.06936	0.849
6.10448	0.837
6.1396	0.839
6.17471	0.839
6.20983	0.839
6.24494	0.846
6.28006	0.851
6.31518	0.854
6.35029	0.858
6.38541	0.865
6.42052	0.868
6.45564	0.87
6.49076	0.867
6.52587	0.867
6.56099	0.87
6.59611	0.867
6.63122	0.858
6.66634	0.839
6.70145	0.818
6.73657	0.715
6.77169	0.534
6.8068	0.508
6.84192	0.505
6.87704	0.519
6.91215	0.585
6.94727	0.652
6.98238	0.669
7.0175	0.569
7.05262	0.484
7.08773	0.365
7.12285	0.326
7.15796	0.389
7.19308	0.578
7.2282	0.65
7.26331	0.673
7.29843	0.618
7.33355	0.494
7.36866	0.293
7.40378	0.389
7.43889	0.676
7.47401	0.736
7.50913	0.762
7.54424	0.73
7.57936	0.687
7.61448	0.646
7.64959	0.527
7.68471	0.44
7.71982	0.409
7.75494	0.344
7.79006	0.325
7.82517	0.456
7.86029	0.61
7.8954	0.655
7.93052	0.659
7.96564	0.622
8.00075	0.573
8.03587	0.568
8.07099	0.576
8.1061	0.594
8.14122	0.594
8.17633	0.585
8.21145	0.582
8.24657	0.506
8.28168	0.426
8.3168	0.421
8.35192	0.447
8.38703	0.466
8.42215	0.51
8.45726	0.559
8.49238	0.625
8.5275	0.687
8.56261	0.699
8.59773	0.708
8.63285	0.699
8.66796	0.662
8.70308	0.631
8.73819	0.575
8.77331	0.508
8.80843	0.389
8.84354	0.236
8.87866	0.127
8.91377	0.061
8.94889	0.036
8.98401	0.034
9.01912	0.034
9.05424	0.033
9.08936	0.036
9.12447	0.071
9.15959	0.153
9.1947	0.262
9.22982	0.307
9.26494	0.263
9.30005	0.208
9.33517	0.202
9.37029	0.255
9.4054	0.272
9.44052	0.258
9.47563	0.258
9.51075	0.267
9.54587	0.295
9.58098	0.333
9.6161	0.347
9.65121	0.332
9.68633	0.339
9.72145	0.358
9.75656	0.388
9.79168	0.405
9.8268	0.409
9.86191	0.346
9.89703	0.3
9.93214	0.284
9.96726	0.27
10.0024	0.304
10.0375	0.405
10.0726	0.47
10.1077	0.541
10.1428	0.58
10.178	0.615
10.2131	0.632
10.2482	0.631
10.2833	0.631
10.3184	0.629
10.3535	0.61
10.3887	0.578
10.4238	0.545
10.4589	0.524
10.494	0.529
10.5291	0.568
10.5642	0.601
10.5994	0.625
10.6345	0.631
10.6696	0.634
10.7047	0.639
10.7398	0.666
10.7749	0.685
10.81	0.685
10.8452	0.655
10.8803	0.629
10.9154	0.627
10.9505	0.653
10.9856	0.701
11.0207	0.748
11.0559	0.76
11.091	0.779
11.1261	0.798
11.1612	0.811
11.1963	0.819
11.2314	0.828
11.2666	0.832
11.3017	0.833
11.3368	0.837
11.3719	0.844
11.407	0.844
11.4421	0.844
11.4773	0.844
11.5124	0.844
11.5475	0.842
11.5826	0.84
11.6177	0.84
11.6528	0.83
11.688	0.819
11.7231	0.812
11.7582	0.811
11.7933	0.811
11.8284	0.826
11.8635	0.833
11.8987	0.84
11.9338	0.844
11.9689	0.846
12.004	0.844
12.0391	0.84
12.0742	0.83
12.1093	0.816
12.1445	0.805
12.1796	0.798
12.2147	0.8
12.2498	0.804
12.2849	0.811
12.32	0.818
12.3552	0.823
12.3903	0.83
12.4254	0.823
12.4605	0.816
12.4956	0.804
12.5307	0.791
12.5659	0.769
12.601	0.739
12.6361	0.722
12.6712	0.722
12.7063	0.727
12.7414	0.723
12.7766	0.72
12.8117	0.727
12.8468	0.732
12.8819	0.727
12.917	0.702
12.9521	0.673
12.9873	0.634
13.0224	0.597
13.0575	0.571
13.0926	0.58
13.1277	0.615
13.1628	0.657
13.198	0.708
13.2331	0.743
13.2682	0.756
13.3033	0.779
13.3384	0.784
13.3735	0.788
13.4086	0.783
13.4438	0.783
13.4789	0.779
13.514	0.765
13.5491	0.756
13.5842	0.746
13.6193	0.732
13.6545	0.725
13.6896	0.718
13.7247	0.713
13.7598	0.711
13.7949	0.718
13.83	0.734
13.8652	0.73
13.9003	0.729
13.9354	0.732
13.9705	0.734
14.0056	0.732
14.0407	0.732
14.0759	0.73
14.111	0.725
14.1461	0.716
14.1812	0.704
14.2163	0.694
14.2514	0.683
14.2866	0.673
14.3217	0.662
14.3568	0.652
14.3919	0.627
14.427	0.61
14.4621	0.594
14.4973	0.578
14.5324	0.562
14.5675	0.55
14.6026	0.543
14.6377	0.54
14.6728	0.54
14.7079	0.547
14.7431	0.552
14.7782	0.555
14.8133	0.552
14.8484	0.552
14.8835	0.55
14.9186	0.58
14.9538	0.603
14.9889	0.506
15.024	0.452
15.0591	0.491
15.0942	0.496
15.1293	0.491
15.1645	0.482
15.1996	0.472
15.2347	0.466
15.2698	0.458
15.3049	0.451
15.34	0.445
15.3752	0.442
15.4103	0.44
15.4454	0.435
15.4805	0.433
15.5156	0.433
15.5507	0.433
15.5859	0.442
15.621	0.444
15.6561	0.444
15.6912	0.451
15.7263	0.451
15.7614	0.452
15.7965	0.449
15.8317	0.451
15.8668	0.452
15.9019	0.456
15.937	0.459
15.9721	0.465
