Infrared Spectrum: 12-Crown-4
Formula: C 8 H 16 O 4
CAS: 294-93-9
State: gas
Instrument: HP-GC/MS/IRD
Origin: NIST Mass Spectrometry Data Center
1/CM	ABSORBANCE
550	0.0009163
562	0.0007007
574	0.0004361
586	0.0003626
598	0.0003234
610	0.0001372
622	0.0001568
634	7.35e-05
646	0.0001274
658	9.31e-05
670	4.41e-05
682	5.39e-05
694	9.8e-06
706	4.41e-05
718	0
730	0.0001176
742	0.0001421
754	0.0002107
766	0.0003332
778	0.0005733
790	0.000735
802	0.0008869
814	0.0011907
826	0.0017052
838	0.002793
850	0.0036064
862	0.0026509
874	0.0017395
886	0.0020237
898	0.0039592
910	0.008085
922	0.0097706
934	0.0073451
946	0.0041748
958	0.0032781
970	0.003626
982	0.0027734
994	0.0022785
1006	0.002891
1018	0.0045913
1030	0.0064778
1042	0.0068404
1054	0.0070854
1066	0.0088886
1078	0.0097951
1090	0.0117453
1102	0.0168119
1114	0.0214914
1126	0.0351036
1138	0.048853
1150	0.0421988
1162	0.026901
1174	0.0139944
1186	0.0062279
1198	0.003479
1210	0.0024941
1222	0.0022638
1234	0.0031703
1246	0.0050519
1258	0.0055762
1270	0.0052234
1282	0.0065905
1294	0.0082026
1306	0.00637
1318	0.003626
1330	0.0026852
1342	0.0041111
1354	0.0086926
1366	0.0082467
1378	0.0028371
1390	0.0017787
1402	0.0016072
1414	0.0011711
1426	0.0009653
1438	0.0016807
1450	0.0036652
1462	0.0044492
1474	0.0029939
1486	0.001225
1498	0.0005243
1510	0.0002989
1522	0.0002107
1534	0.0001666
1546	0.0001225
1558	0.0001127
1570	9.31e-05
1582	2.94e-05
1594	4.41e-05
1606	2.94e-05
1618	1.47e-05
1630	4.9e-05
1642	9.8e-06
1654	2.94e-05
1666	5.88e-05
1678	3.92e-05
1690	4.41e-05
1702	9.31e-05
1714	0.0001029
1726	0.0001372
1738	0.0001617
1750	0.0002254
1762	0.0001323
1774	7.35e-05
1786	3.43e-05
1798	1.47e-05
1810	2.45e-05
1822	0
1834	2.45e-05
1846	4.41e-05
1858	7.84e-05
1870	9.8e-05
1882	0.0002156
1894	0.0002891
1906	0.0003675
1918	0.000539
1930	0.0007252
1942	0.0008085
1954	0.0007742
1966	0.000637
1978	0.0004802
1990	0.0003332
2002	0.0002303
2014	0.0001666
2026	0.0001176
2038	0.0001029
2050	0.0001274
2062	0.0001372
2074	0.0001274
2086	0.0001225
2098	0.0001421
2110	0.0001372
2122	0.0001274
2134	0.0001274
2146	0.0001764
2158	0.0002009
2170	0.0002303
2182	0.0002156
2194	0.0001519
2206	0.0001176
2218	8.82e-05
2230	7.84e-05
2242	9.31e-05
2254	8.33e-05
2266	0.0001029
2278	7.84e-05
2290	0.0001029
2302	8.82e-05
2314	7.84e-05
2326	5.88e-05
2338	1.47e-05
2350	3.43e-05
2362	2.45e-05
2374	1.96e-05
2386	4.41e-05
2398	2.94e-05
2410	5.88e-05
2422	4.9e-05
2434	6.37e-05
2446	5.39e-05
2458	0
2470	2.94e-05
2482	7.35e-05
2494	5.88e-05
2506	9.31e-05
2518	8.33e-05
2530	8.33e-05
2542	8.82e-05
2554	0.0001029
2566	0.0001421
2578	0.000196
2590	0.000196
2602	0.0002499
2614	0.0002989
2626	0.0003577
2638	0.0003773
2650	0.0004361
2662	0.0005586
2674	0.0007301
2686	0.0011515
2698	0.0017101
2710	0.002009
2722	0.0021021
2734	0.0025186
2746	0.0025333
2758	0.0026558
2770	0.0030086
2782	0.0034349
2794	0.0036848
2806	0.0041258
2818	0.005292
2830	0.0084819
2842	0.0168217
2854	0.0313943
2866	0.0350791
2878	0.0244853
2890	0.0215943
2902	0.0246225
2914	0.0247107
2926	0.0237895
2938	0.0229124
2950	0.0189189
2962	0.0146167
2974	0.0074431
2986	0.0029253
2998	0.001568
3010	0.0009408
3022	0.0006223
3034	0.0004998
3046	0.0003577
3058	0.0002989
3070	0.0002597
3082	0.0001911
3094	0.0002058
3106	0.0001568
3118	0.0001519
3130	0.0001862
3142	0.0001666
3154	9.8e-05
3166	0.0001372
3178	0.0001421
3190	0.0001617
3202	0.0002156
3214	0.0001421
3226	0.0001911
3238	0.0001225
3250	0.0001029
3262	0.0001225
3274	0.0001225
3286	0.0001323
3298	0.0001323
3310	6.86e-05
3322	7.84e-05
3334	2.94e-05
3346	8.82e-05
3358	1.47e-05
3370	8.33e-05
3382	6.86e-05
3394	7.84e-05
3406	5.88e-05
3418	4.9e-05
3430	8.82e-05
3442	7.84e-05
3454	3.43e-05
3466	6.86e-05
3478	5.39e-05
3490	4.41e-05
3502	7.35e-05
3514	7.84e-05
3526	5.39e-05
3538	4.9e-05
3550	3.92e-05
3562	4.9e-06
3574	7.84e-05
3586	8.33e-05
3598	5.88e-05
3610	6.86e-05
3622	5.88e-05
3634	6.37e-05
3646	9.8e-05
3658	0.0001519
3670	0.0001323
3682	0.0002058
3694	8.33e-05
3706	0.0001568
3718	0.0002205
3730	0.0001519
3742	0.0002058
3754	0.0002303
3766	0.0002009
3778	0.0001372
3790	0.0002352
3802	0.0001911
3814	0.0001862
3826	0.0002352
3838	0.0001862
