Infrared Spectrum: 4,7,10-TRIOXA-1-THIACYCLODODECANE
Formula: C8 H16 O3 S
CAS: 294-94-0
State: LIQUID
Boiling point: 90-95 C AT 1 mmHg
Class: COBLENTZ
Instrument: Not specified, most likely a prism, grating, or hybrid spectrometer.
Sampling: TRANSMISSION
Path length: CAPILLARY CELL
Resolution: 4
Origin: EASTMAN KODAK COMPANY, RESEARCH LABORATORIES, ROCHESTER, N.Y.
MICROMETERS	TRANSMITTANCE
2.04	0.767
2.07504	0.769
2.11008	0.769
2.14512	0.769
2.18016	0.77
2.2152	0.769
2.25024	0.763
2.28528	0.762
2.32032	0.765
2.35536	0.769
2.3904	0.772
2.42545	0.774
2.46049	0.77
2.49553	0.767
2.53057	0.772
2.56561	0.776
2.60065	0.777
2.63569	0.777
2.67073	0.779
2.70577	0.781
2.74081	0.772
2.77585	0.756
2.81089	0.72
2.84593	0.708
2.88097	0.697
2.91601	0.697
2.95105	0.709
2.98609	0.729
3.02113	0.736
3.05617	0.737
3.09121	0.75
3.12625	0.756
3.1613	0.762
3.19634	0.767
3.23138	0.774
3.26642	0.779
3.30146	0.779
3.3365	0.748
3.37154	0.526
3.40658	0.318
3.44162	0.277
3.47666	0.258
3.5117	0.335
3.54674	0.555
3.58178	0.62
3.61682	0.704
3.65186	0.723
3.6869	0.737
3.72194	0.751
3.75698	0.783
3.79202	0.793
3.82706	0.798
3.8621	0.804
3.89715	0.805
3.93219	0.811
3.96723	0.814
4.00227	0.819
4.03731	0.814
4.07235	0.814
4.10739	0.821
4.14243	0.823
4.17747	0.823
4.21251	0.819
4.24755	0.816
4.28259	0.818
4.31763	0.821
4.35267	0.83
4.38771	0.83
4.42275	0.832
4.45779	0.835
4.49283	0.835
4.52787	0.835
4.56291	0.837
4.59795	0.835
4.63299	0.839
4.66804	0.839
4.70308	0.842
4.73812	0.842
4.77316	0.844
4.8082	0.844
4.84324	0.844
4.87828	0.844
4.91332	0.844
4.94836	0.844
4.9834	0.844
5.01844	0.844
5.05348	0.842
5.08852	0.842
5.12356	0.839
5.1586	0.839
5.19364	0.84
5.22868	0.844
5.26372	0.846
5.29876	0.849
5.3338	0.851
5.36884	0.853
5.40389	0.856
5.43893	0.858
5.47397	0.861
5.50901	0.863
5.54405	0.865
5.57909	0.865
5.61413	0.867
5.64917	0.86
5.68421	0.865
5.71925	0.853
5.75429	0.849
5.78933	0.853
5.82437	0.837
5.85941	0.851
5.89445	0.84
5.92949	0.849
5.96453	0.846
5.99957	0.839
6.03461	0.83
6.06965	0.821
6.10469	0.818
6.13974	0.814
6.17478	0.816
6.20982	0.825
6.24486	0.825
6.2799	0.828
6.31494	0.839
6.34998	0.842
6.38502	0.842
6.42006	0.846
6.4551	0.849
6.49014	0.851
6.52518	0.853
6.56022	0.851
6.59526	0.853
6.6303	0.851
6.66534	0.842
6.70038	0.821
6.73542	0.791
6.77046	0.701
6.8055	0.636
6.84054	0.592
6.87559	0.578
6.91063	0.604
6.94567	0.674
6.98071	0.737
7.01575	0.732
7.05079	0.711
7.08583	0.711
7.12087	0.68
7.15591	0.671
7.19095	0.722
7.22599	0.729
7.26103	0.715
7.29607	0.671
7.33111	0.582
7.36615	0.541
7.40119	0.545
7.43623	0.585
7.47127	0.723
7.50631	0.777
7.54135	0.772
7.57639	0.75
7.61144	0.713
7.64648	0.62
7.68152	0.545
7.71656	0.48
7.7516	0.465
7.78664	0.494
7.82168	0.55
7.85672	0.632
7.89176	0.66
7.9268	0.673
7.96184	0.664
7.99688	0.634
8.03192	0.606
8.06696	0.608
8.102	0.613
8.13704	0.622
8.17208	0.634
8.20712	0.664
8.24216	0.634
8.2772	0.643
8.31224	0.671
8.34729	0.688
8.38233	0.706
8.41737	0.72
8.45241	0.727
8.48745	0.729
8.52249	0.72
8.55753	0.69
8.59257	0.625
8.62761	0.496
8.66265	0.321
8.69769	0.23
8.73273	0.174
8.76777	0.15
8.80281	0.132
8.83785	0.122
8.87289	0.111
8.90793	0.103
8.94297	0.104
8.97801	0.11
9.01305	0.111
9.04809	0.099
9.08313	0.115
9.11818	0.178
9.15322	0.241
9.18826	0.305
9.2233	0.342
9.25834	0.374
9.29338	0.409
9.32842	0.402
9.36346	0.372
9.3985	0.377
9.43354	0.405
9.46858	0.428
9.50362	0.431
9.53866	0.473
9.5737	0.5
9.60874	0.522
9.64378	0.531
9.67882	0.548
9.71386	0.554
9.7489	0.568
9.78394	0.596
9.81898	0.62
9.85403	0.629
9.88907	0.601
9.92411	0.58
9.95915	0.589
9.99419	0.608
10.0292	0.576
10.0643	0.552
10.0993	0.606
10.1343	0.65
10.1694	0.669
10.2044	0.664
10.2395	0.636
10.2745	0.582
10.3096	0.541
10.3446	0.529
10.3796	0.554
10.4147	0.582
10.4497	0.625
10.4848	0.671
10.5198	0.709
10.5548	0.715
10.5899	0.72
10.6249	0.72
10.66	0.702
10.695	0.664
10.73	0.634
10.7651	0.624
10.8001	0.624
10.8352	0.622
10.8702	0.624
10.9052	0.652
10.9403	0.694
10.9753	0.711
11.0104	0.734
11.0454	0.737
11.0804	0.737
11.1155	0.73
11.1505	0.725
11.1856	0.727
11.2206	0.736
11.2556	0.746
11.2907	0.751
11.3257	0.743
11.3608	0.727
11.3958	0.708
11.4308	0.704
11.4659	0.723
11.5009	0.746
11.536	0.762
11.571	0.772
11.606	0.776
11.6411	0.784
11.6761	0.788
11.7112	0.779
11.7462	0.772
11.7813	0.779
11.8163	0.8
11.8513	0.807
11.8864	0.807
11.9214	0.807
11.9565	0.805
11.9915	0.8
12.0265	0.783
12.0616	0.77
12.0966	0.76
12.1317	0.751
12.1667	0.746
12.2017	0.746
12.2368	0.743
12.2718	0.744
12.3069	0.774
12.3419	0.797
12.3769	0.793
12.412	0.784
12.447	0.758
12.4821	0.743
12.5171	0.734
12.5521	0.732
12.5872	0.758
12.6222	0.783
12.6573	0.802
12.6923	0.823
12.7273	0.83
12.7624	0.832
12.7974	0.832
12.8325	0.832
12.8675	0.83
12.9025	0.826
12.9376	0.823
12.9726	0.805
13.0077	0.788
13.0427	0.769
13.0777	0.748
13.1128	0.741
13.1478	0.744
13.1829	0.763
13.2179	0.791
13.253	0.802
13.288	0.809
13.323	0.814
13.3581	0.816
13.3931	0.816
13.4282	0.816
13.4632	0.816
13.4982	0.814
13.5333	0.812
13.5683	0.809
13.6034	0.807
13.6384	0.807
13.6734	0.812
13.7085	0.814
13.7435	0.825
13.7786	0.83
13.8136	0.832
13.8486	0.833
13.8837	0.828
13.9187	0.825
13.9538	0.823
13.9888	0.821
14.0238	0.818
14.0589	0.816
14.0939	0.811
14.129	0.805
14.164	0.8
14.199	0.791
14.2341	0.781
14.2691	0.779
14.3042	0.772
14.3392	0.76
14.3742	0.755
14.4093	0.748
14.4443	0.732
14.4794	0.723
14.5144	0.72
14.5494	0.708
14.5845	0.701
14.6195	0.692
14.6546	0.688
14.6896	0.68
14.7247	0.669
14.7597	0.659
14.7947	0.65
14.8298	0.641
14.8648	0.632
14.8999	0.652
14.9349	0.659
14.9699	0.597
15.005	0.54
15.04	0.561
15.0751	0.569
15.1101	0.566
15.1451	0.559
15.1802	0.55
15.2152	0.543
15.2503	0.536
15.2853	0.533
15.3203	0.533
15.3554	0.533
15.3904	0.531
15.4255	0.524
15.4605	0.522
15.4955	0.52
15.5306	0.52
15.5656	0.519
15.6007	0.519
15.6357	0.519
15.6707	0.519
15.7058	0.517
15.7408	0.515
15.7759	0.515
15.8109	0.513
15.8459	0.512
15.881	0.51
15.916	0.508
15.9511	0.506
