Infrared Spectrum: 5-Methoxy-2-methylbenzothiazole
Formula: C 9 H 9 N O S
CAS: 2941-69-7
State: gas
Origin: EPA-IR VAPOR PHASE LIBRARY
1/CM	ABSORBANCE
549.9	0.00624
559.547	0.0041444
569.193	0.0038933
578.84	0.0037924
588.486	0.0038231
598.133	0.003776
607.779	0.00501
617.426	0.01078
627.072	0.02738
636.719	0.04645
646.365	0.04509
656.012	0.02398
665.658	0.00923
675.305	0.00613
684.951	0.01002
694.598	0.02284
704.245	0.02015
713.891	0.00578
723.538	0.0037501
733.184	0.00358537
742.831	0.0039382
752.477	0.00559
762.124	0.01043
771.77	0.01431
781.417	0.01606
791.063	0.02847
800.71	0.04119
810.356	0.02719
820.003	0.01339
829.649	0.01396
839.296	0.02528
848.943	0.03106
858.589	0.02832
868.236	0.02674
877.882	0.01602
887.529	0.00774
897.175	0.00519
906.822	0.00557
916.468	0.00952
926.115	0.01989
935.761	0.02791
945.408	0.01952
955.054	0.01148
964.701	0.01234
974.347	0.01472
983.994	0.01653
993.64	0.01818
1003.29	0.02094
1012.93	0.03534
1022.58	0.0647
1032.23	0.06426
1041.87	0.03848
1051.52	0.02788
1061.17	0.02887
1070.81	0.02836
1080.46	0.0185
1090.11	0.01093
1099.75	0.01009
1109.4	0.01325
1119.05	0.02358
1128.69	0.06843
1138.34	0.15065
1147.99	0.19333
1157.63	0.27612
1167.28	0.22226
1176.92	0.12824
1186.57	0.10438
1196.22	0.12953
1205.86	0.10459
1215.51	0.03464
1225.16	0.01989
1234.8	0.02105
1244.45	0.02932
1254.1	0.04215
1263.74	0.09646
1273.39	0.14902
1283.04	0.10252
1292.68	0.06307
1302.33	0.06834
1311.98	0.08709
1321.62	0.07036
1331.27	0.0304
1340.92	0.01535
1350.56	0.01265
1360.21	0.01294
1369.86	0.01525
1379.5	0.01727
1389.15	0.01633
1398.79	0.0197
1408.44	0.03231
1418.09	0.05312
1427.73	0.09371
1437.38	0.17144
1447.03	0.12824
1456.67	0.12418
1466.32	0.1983
1475.97	0.12602
1485.61	0.04393
1495.26	0.03304
1504.91	0.04195
1514.55	0.07225
1524.2	0.10469
1533.85	0.08296
1543.49	0.05742
1553.14	0.06966
1562.79	0.06618
1572.43	0.0426
1582.08	0.0386
1591.73	0.06803
1601.37	0.10181
1611.02	0.09456
1620.67	0.05501
1630.31	0.02416
1639.96	0.01459
1649.6	0.01048
1659.25	0.00791
1668.9	0.00659
1678.54	0.00642
1688.19	0.00645
1697.84	0.00609
1707.48	0.00549
1717.13	0.00562
1726.78	0.00694
1736.42	0.0066
1746.07	0.00472
1755.72	0.0044448
1765.36	0.0044229
1775.01	0.0041284
1784.66	0.0040436
1794.3	0.0039298
1803.95	0.00365205
1813.6	0.0036723
1823.24	0.0041943
1832.89	0.00472
1842.54	0.00495
1852.18	0.00536
1861.83	0.00609
1871.47	0.00537
1881.12	0.0039136
1890.77	0.0036727
1900.41	0.0041035
1910.06	0.0047
1919.71	0.00494
1929.35	0.00492
1939	0.0040612
1948.65	0.00360142
1958.29	0.0034845
1967.94	0.00364296
1977.59	0.003401
1987.23	0.003039
1996.88	0.003209
2006.53	0.003536
2016.17	0.0038814
2025.82	0.0043423
2035.47	0.00543
2045.11	0.00633
2054.76	0.00583
2064.41	0.00493
2074.05	0.0042076
2083.7	0.0038671
2093.35	0.0036351
2102.99	0.003161
2112.64	0.002692
2122.28	0.00238
2131.93	0.00237
2141.58	0.00253
2151.22	0.002681
2160.87	0.002872
2170.52	0.003345
2180.16	0.0038287
2189.81	0.0040306
2199.46	0.004059
2209.1	0.0039647
2218.75	0.0035506
2228.4	0.003453
2238.04	0.003267
2247.69	0.002745
2257.34	0.00237
2266.98	0.00233
2276.63	0.00243
2286.28	0.002604
2295.92	0.002896
2305.57	0.00288
2315.22	0.00274
2324.86	0.00255
2334.51	0.002665
2344.16	0.002841
2353.8	0.002973
2363.45	0.003211
2373.09	0.003314
2382.74	0.003308
2392.39	0.003408
2402.03	0.00363748
2411.68	0.00356739
2421.33	0.0035405
2430.97	0.0038856
2440.62	0.0039639
2450.27	0.0038188
2459.91	0.00365263
2469.56	0.0034703
2479.21	0.003193
2488.85	0.002906
2498.5	0.00278
2508.15	0.002979
2517.79	0.003216
2527.44	0.00312
2537.09	0.00313
2546.73	0.00331
2556.38	0.003262
2566.03	0.003103
2575.67	0.003049
2585.32	0.003185
2594.96	0.003113
2604.61	0.003056
2614.26	0.002968
2623.9	0.002846
2633.55	0.00256
2643.2	0.00235
2652.84	0.00236
2662.49	0.002584
2672.14	0.002686
2681.78	0.00242
2691.43	0.00229
2701.08	0.00241
2710.72	0.00226
2720.37	0.00236
2730.02	0.00256
2739.66	0.002853
2749.31	0.002726
2758.96	0.002739
2768.6	0.002972
2778.25	0.003339
2787.9	0.0042004
2797.54	0.00504
2807.19	0.00655
2816.84	0.0093
2826.48	0.01484
2836.13	0.02905
2845.77	0.03576
2855.42	0.02589
2865.07	0.02174
2874.71	0.01973
2884.36	0.02029
2894.01	0.0215
2903.65	0.0247
2913.3	0.03183
2922.95	0.0379
2932.59	0.05653
2942.24	0.07414
2951.89	0.06387
2961.53	0.0485
2971.18	0.03291
2980.83	0.02441
2990.47	0.02519
3000.12	0.04165
3009.77	0.05237
3019.41	0.02804
3029.06	0.01619
3038.71	0.01324
3048.35	0.0116
3058	0.01236
3067.64	0.01649
3077.29	0.02012
3086.94	0.01619
3096.58	0.01179
3106.23	0.00765
3115.88	0.0044757
3125.52	0.00326
3135.17	0.00212
3144.82	0.0016
3154.46	0.00121
3164.11	0.001
3173.76	0.00094
3183.4	0.00069
3193.05	0.00056
3202.7	0.00045
3212.34	0.00045
3221.99	0.00033
3231.64	0.0002
3241.28	0.00014
3250.93	6e-05
3260.58	0.00013
3270.22	6e-05
3279.87	0.00013
3289.52	0.00021
3299.16	0.00012
3308.81	0.0001
3318.45	0.00032
3328.1	0.00028
3337.75	9e-05
3347.39	0.00018
3357.04	0.00033
3366.69	0.0004
3376.33	0.00039
3385.98	0.00021
3395.63	0.00054
3405.27	0.00052
3414.92	0.0005
3424.57	0.00077
3434.21	0.00057
3443.86	0.00069
3453.51	0.00082
3463.15	0.00069
3472.8	0.00087
3482.45	0.00089
3492.09	0.00091
3501.74	0.00094
3511.39	0.00088
3521.03	0.00105
3530.68	0.00108
3540.33	0.00104
3549.97	0.00126
3559.62	0.00108
3569.26	0.00114
3578.91	0.0012
3588.56	0.00104
3598.2	0.00121
3607.85	0.00126
3617.5	0.00122
3627.14	0.00119
3636.79	0.00122
3646.44	0.00138
3656.08	0.00132
3665.73	0.00131
3675.38	0.00132
3685.02	0.00147
3694.67	0.00146
3704.32	0.00149
3713.96	0.00155
3723.61	0.00147
3733.26	0.00149
3742.9	0.00146
3752.55	0.00137
3762.2	0.0015
3771.84	0.00146
3781.49	0.00166
3791.13	0.0016
3800.78	0.00166
3810.43	0.00151
3820.07	0.00153
3829.72	0.00162
3839.37	0.00179
3849.01	0.00179
3858.66	0.00184
3868.31	0.00188
3877.95	0.00189
3887.6	0.00183
3897.25	0.0016
3906.89	0.00174
3916.54	0.00175
3926.19	0.00175
3935.83	0.00181
3945.48	0.00181
3955.13	0.00185
3964.77	0.00196
3974.42	0.00199
3984.07	0.00213
3993.71	0.00231
