Infrared Spectrum: 2,6-Dimethylbenzothiazole
Formula: C9 H9 N S
CAS: 2941-71-1
State: SOLUTION (10% CCl4 FOR 3800-1330, 10% CS2 FOR 1330-400 CM^-^1)
Class: COBLENTZ III
Instrument: DOW KBr FOREPRISM-GRATING
Instrument parameters: BLAZED AT 3.5, 12.0, 20.0 MICRON AND CHANGED AT 5.0, 7.5, 14.9 MICRON
Sampling: TRANSMISSION
Path length: 0.011 CM, 0.011 CM
Resolution: 2
Origin: DOW CHEMICAL COMPANY
1/CM	TRANSMITTANCE
3800	0.895
3791	0.8942
3782	0.8934
3773	0.8925
3764	0.8923
3755	0.8923
3746	0.8925
3737	0.8927
3728	0.8928
3719	0.8927
3710	0.8917
3701	0.8898
3692	0.8811
3683	0.8718
3674	0.8713
3665	0.8833
3656	0.8875
3647	0.8892
3638	0.8905
3629	0.8898
3620	0.8883
3611	0.8861
3602	0.8877
3593	0.89
3584	0.8906
3575	0.8885
3566	0.886
3557	0.8846
3548	0.8832
3539	0.8817
3530	0.8796
3521	0.8774
3512	0.8752
3503	0.8728
3494	0.8707
3485	0.8684
3476	0.8664
3467	0.8643
3458	0.8621
3449	0.8598
3440	0.8571
3431	0.8557
3422	0.8553
3413	0.8548
3404	0.8544
3395	0.8556
3386	0.8568
3377	0.8581
3368	0.8593
3359	0.8602
3350	0.861
3341	0.8618
3332	0.8627
3323	0.8635
3314	0.8643
3305	0.8651
3296	0.8659
3287	0.8665
3278	0.8671
3269	0.8677
3260	0.8683
3251	0.8682
3242	0.8681
3233	0.8678
3224	0.8677
3215	0.8675
3206	0.8675
3197	0.8673
3188	0.8673
3179	0.8671
3170	0.867
3161	0.8666
3152	0.8653
3143	0.8639
3134	0.8621
3125	0.8602
3116	0.8581
3107	0.8554
3098	0.8513
3089	0.8068
3080	0.7825
3071	0.7725
3062	0.716
3053	0.6708
3044	0.6834
3035	0.7056
3026	0.6685
3017	0.7065
3008	0.7186
2999	0.7176
2990	0.7012
2981	0.6861
2972	0.6571
2963	0.6377
2954	0.6279
2945	0.6249
2936	0.6256
2927	0.4212
2918	0.4706
2909	0.6018
2900	0.6968
2891	0.7217
2882	0.7288
2873	0.7215
2864	0.7042
2855	0.6878
2846	0.7201
2837	0.7661
2828	0.7958
2819	0.8213
2810	0.8371
2801	0.8463
2792	0.8518
2783	0.8555
2774	0.8584
2765	0.8592
2756	0.8602
2747	0.8609
2738	0.8541
2729	0.8278
2720	0.8363
2711	0.8536
2702	0.8553
2693	0.8562
2684	0.8578
2675	0.8606
2666	0.8666
2657	0.8671
2648	0.8658
2639	0.8658
2630	0.8683
2621	0.8695
2612	0.8681
2603	0.864
2594	0.8643
2585	0.8634
2576	0.8618
2567	0.8628
2558	0.866
2549	0.8666
2540	0.8624
2531	0.8564
2522	0.8528
2513	0.8517
2504	0.8542
2495	0.8571
2486	0.8604
2477	0.8627
2468	0.8638
2459	0.8646
2450	0.8644
2441	0.8642
2432	0.864
2423	0.8645
2414	0.865
2405	0.8659
2396	0.8671
2387	0.8689
2378	0.8707
2369	0.8727
2360	0.8758
2351	0.8804
2342	0.8868
2333	0.891
2324	0.8948
2315	0.8977
2306	0.8924
2297	0.8803
2288	0.8761
2279	0.8749
2270	0.874
2261	0.8737
2252	0.8737
2243	0.8743
2234	0.8751
2225	0.8748
2216	0.8743
2207	0.8735
2198	0.8721
2189	0.871
2180	0.8718
2171	0.873
2162	0.8747
2153	0.876
2144	0.8758
2135	0.8752
2126	0.8743
2117	0.8735
2108	0.8734
2099	0.8745
2090	0.8752
2081	0.875
2072	0.8746
2063	0.8731
2054	0.8725
2045	0.8733
2036	0.8747
2027	0.8757
2018	0.8761
2009	0.8771
2000	0.8739
1991	0.8637
1982	0.8633
1973	0.8623
1964	0.8661
1955	0.8671
1946	0.8689
1937	0.8705
1928	0.8707
1919	0.8673
1910	0.8589
1901	0.8184
1892	0.8193
1883	0.858
1874	0.865
1865	0.8688
1856	0.8718
1847	0.8732
1838	0.8741
1829	0.8746
1820	0.8727
1811	0.8575
1802	0.8663
1793	0.8712
1784	0.8741
1775	0.8704
1766	0.8525
1757	0.824
1748	0.8489
1739	0.8495
1730	0.825
1721	0.7768
1712	0.7892
1703	0.8225
1694	0.8404
1685	0.8337
1676	0.8325
1667	0.8527
1658	0.8556
1649	0.8533
1640	0.8318
1631	0.7982
1622	0.8008
1613	0.7968
1604	0.544
1595	0.7588
1586	0.8206
1577	0.8388
1568	0.8366
1559	0.7268
1550	0.7797
1541	0.4294
1532	0.1846
1523	0.5414
1514	0.6495
1505	0.705
1496	0.7106
1487	0.7124
1478	0.6118
1469	0.4253
1460	0.2977
1451	0.2261
1442	0.4101
1433	0.4904
1424	0.5957
1415	0.5999
1406	0.6339
1397	0.699
1388	0.7578
1379	0.6262
1370	0.7468
1361	0.8031
1352	0.8155
1343	0.8205
1334	0.8292
1325	0.8241
1316	0.7932
1307	0.4367
1298	0.748
1289	0.744
1280	0.5332
1271	0.7689
1262	0.7918
1253	0.7268
1244	0.3995
1235	0.7569
1226	0.7828
1217	0.7071
1208	0.7565
1199	0.7911
1190	0.7733
1181	0.6382
1172	0.313
1163	0.0576
1154	0.525
1145	0.7695
1136	0.8151
1127	0.7422
1118	0.7955
1109	0.84
1100	0.8591
1091	0.8621
1082	0.8635
1073	0.8565
1064	0.7944
1055	0.5979
1046	0.7731
1037	0.7331
1028	0.7471
1019	0.7578
1010	0.7964
1001	0.7706
992	0.6665
983	0.7948
974	0.8571
965	0.8818
956	0.8762
947	0.7911
938	0.8841
929	0.8917
920	0.8988
911	0.9021
902	0.8839
893	0.8817
884	0.9017
875	0.8962
866	0.8205
857	0.7467
848	0.8971
839	0.8932
830	0.8295
821	0.2233
812	0.285
803	0.7981
794	0.9016
785	0.9182
776	0.9378
767	0.9475
758	0.9505
749	0.951
740	0.9528
731	0.9481
722	0.9494
713	0.9456
704	0.8951
695	0.9348
686	0.9627
677	0.9664
668	0.9617
659	0.9461
650	0.703
641	0.6254
632	0.8704
623	0.9268
614	0.9455
605	0.9298
596	0.6397
587	0.6828
578	0.9178
569	0.943
560	0.9478
551	0.9481
542	0.9468
533	0.9168
524	0.9077
515	0.9484
506	0.9594
497	0.964
488	0.9656
479	0.9684
470	0.9678
461	0.9668
452	0.9642
443	0.9598
434	0.9415
425	0.5854
416	0.8935
407	0.9255
398	0.928
389	0.9307
