Infrared Spectrum: BENZOTHIAZOLE, 2-METHYL-6-NITRO-
Formula: C8 H6 N2 O2 S
CAS: 2941-63-1
State: SOLID (KBr DISC)
Class: COBLENTZ II
Instrument: BECKMAN IR-9 (GRATING)
Instrument parameters: ORDER CHANGES: 670, 1200, 2000 CM^-^1
Sampling: TRANSMISSION
Resolution: 2
Origin: DOW CHEMICAL COMPANY
1/CM	TRANSMITTANCE
398	0.8351
407	0.8351
416	0.8346
425	0.776
434	0.754
443	0.7676
452	0.7724
461	0.7731
470	0.7662
479	0.7683
488	0.7846
497	0.8011
506	0.8156
515	0.8164
524	0.836
533	0.8449
542	0.8208
551	0.7808
560	0.8108
569	0.8771
578	0.8783
587	0.8888
596	0.897
605	0.8995
614	0.9036
623	0.8998
632	0.8966
641	0.8808
650	0.6721
659	0.8647
668	0.8859
677	0.6396
686	0.7303
695	0.7515
704	0.7598
713	0.7396
722	0.2921
731	0.8306
740	0.8138
749	0.4773
758	0.2185
767	0.9017
776	0.909
785	0.9018
794	0.8939
803	0.8849
812	0.8547
821	0.6079
830	0.8364
839	0.8345
848	0.91
857	0.9087
866	0.8916
875	0.8827
884	0.8651
893	0.8442
902	0.5773
911	0.7411
920	0.6352
929	0.853
938	0.8736
947	0.8725
956	0.8624
965	0.8606
974	0.8562
983	0.8344
992	0.7865
1001	0.7049
1010	0.7978
1019	0.7794
1028	0.7708
1037	0.7675
1046	0.785
1055	0.8309
1064	0.8265
1073	0.8172
1082	0.8045
1091	0.7841
1100	0.7481
1109	0.6764
1118	0.4308
1127	0.639
1136	0.7805
1145	0.7868
1154	0.7138
1163	0.708
1172	0.5238
1181	0.5768
1190	0.7807
1199	0.8024
1208	0.7867
1217	0.7556
1226	0.7167
1235	0.6179
1244	0.6241
1253	0.6272
1262	0.4566
1271	0.1542
1280	0.6687
1289	0.6375
1298	0.5526
1307	0.4712
1316	0.326
1325	0.1612
1334	0.0297
1343	0.051
1352	0.1228
1361	0.5921
1370	0.7021
1379	0.6601
1388	0.7894
1397	0.8051
1406	0.7453
1415	0.5802
1424	0.5994
1433	0.4381
1442	0.3424
1451	0.4927
1460	0.6532
1469	0.73
1478	0.6901
1487	0.6178
1496	0.4198
1505	0.2001
1514	0.1718
1523	0.1795
1532	0.4453
1541	0.7578
1550	0.7342
1559	0.6818
1568	0.4158
1577	0.6012
1586	0.7456
1595	0.7601
1604	0.5265
1613	0.8435
1622	0.8571
1631	0.8573
1640	0.8618
1649	0.8668
1658	0.8509
1667	0.8496
1676	0.8514
1685	0.8617
1694	0.8634
1703	0.8715
1712	0.8728
1721	0.8709
1730	0.8683
1739	0.8651
1748	0.8615
1757	0.8577
1766	0.8537
1775	0.8465
1784	0.8171
1793	0.8015
1802	0.8199
1811	0.8248
1820	0.8194
1829	0.8051
1838	0.8042
1847	0.8169
1856	0.8221
1865	0.8223
1874	0.8204
1883	0.8168
1892	0.8139
1901	0.8119
1910	0.7897
1919	0.7883
1928	0.8028
1937	0.8025
1946	0.8032
1955	0.8005
1964	0.798
1973	0.7951
1982	0.7921
1991	0.7901
2000	0.7867
2009	0.7835
2018	0.7798
2027	0.7758
2036	0.7733
2045	0.771
2054	0.7683
2063	0.7651
2072	0.761
2081	0.7582
2090	0.7575
2099	0.7574
2108	0.7575
2117	0.7568
2126	0.7551
2135	0.7515
2144	0.7478
2153	0.7442
2162	0.7422
2171	0.7421
2180	0.7414
2189	0.7397
2198	0.7381
2207	0.7355
2216	0.7318
2225	0.7271
2234	0.7261
2243	0.7261
2252	0.7271
2261	0.7272
2270	0.7269
2279	0.7265
2288	0.7254
2297	0.7244
2306	0.7234
2315	0.7222
2324	0.7211
2333	0.7201
2342	0.7193
2351	0.7185
2360	0.7157
2369	0.7124
2378	0.7065
2387	0.7028
2396	0.7007
2405	0.6982
2414	0.6951
2423	0.6911
2432	0.6848
2441	0.6803
2450	0.6812
2459	0.6833
2468	0.6849
2477	0.6858
2486	0.6865
2495	0.6868
2504	0.6871
2513	0.6871
2522	0.6868
2531	0.6864
2540	0.6857
2549	0.6849
2558	0.6837
2567	0.6819
2576	0.6804
2585	0.6787
2594	0.6771
2603	0.6758
2612	0.6741
2621	0.6719
2630	0.6686
2639	0.6643
2648	0.6533
2657	0.6458
2666	0.6481
2675	0.6504
2684	0.6537
2693	0.6555
2702	0.656
2711	0.6551
2720	0.653
2729	0.6507
2738	0.6485
2747	0.6458
2756	0.6437
2765	0.6428
2774	0.6406
2783	0.6348
2792	0.6273
2801	0.6205
2810	0.6151
2819	0.6147
2828	0.6159
2837	0.6189
2846	0.6224
2855	0.6231
2864	0.6218
2873	0.6185
2882	0.6162
2891	0.6138
2900	0.6116
2909	0.6103
2918	0.6095
2927	0.6089
2936	0.6085
2945	0.607
2954	0.6043
2963	0.6005
2972	0.595
2981	0.5871
2990	0.5805
2999	0.5788
3008	0.578
3017	0.5753
3026	0.5709
3035	0.5617
3044	0.5338
3053	0.4816
3062	0.4273
3071	0.5047
3080	0.5208
3089	0.5115
3098	0.5712
3107	0.6038
3116	0.6068
3125	0.6085
3134	0.6101
3143	0.6116
3152	0.6123
3161	0.6129
3170	0.613
3179	0.6122
3188	0.6124
3197	0.6125
3206	0.6126
3215	0.6125
3224	0.6123
3233	0.6101
3242	0.608
3251	0.6059
3260	0.6039
3269	0.6019
3278	0.6
3287	0.598
3296	0.5959
3305	0.5935
3314	0.5912
3323	0.5886
3332	0.5859
3341	0.5814
3350	0.577
3359	0.5727
3368	0.5683
3377	0.5641
3386	0.5605
3395	0.5569
3404	0.5533
3413	0.5497
3422	0.5467
3431	0.544
3440	0.5423
3449	0.5405
3458	0.5395
3467	0.5386
3476	0.5383
3485	0.5387
3494	0.5392
3503	0.5399
3512	0.5406
3521	0.5414
3530	0.5428
3539	0.5444
3548	0.5459
3557	0.5477
3566	0.5492
3575	0.5501
3584	0.551
3593	0.5518
3602	0.5526
3611	0.5537
3620	0.5549
3629	0.5556
3638	0.5559
3647	0.5562
3656	0.5562
3665	0.5565
3674	0.5565
3683	0.5565
3692	0.5564
3701	0.5557
3710	0.555
3719	0.5545
3728	0.5542
3737	0.5539
3746	0.5539
3755	0.5534
3764	0.5516
3773	0.5507
3782	0.5505
3791	0.5503
3800	0.5501
