Infrared Spectrum: 2-Bromobenzhydrazide
Formula: C 7 H 7 Br N 2 O
CAS: 29418-67-5
State: gas
Origin: EPA-IR VAPOR PHASE LIBRARY
1/CM	ABSORBANCE
549.8	0.006464
559.445	0.005124
569.09	0.005074
578.735	0.005094
588.38	0.005064
598.025	0.004684
607.67	0.004394
617.315	0.004374
626.96	0.004194
636.605	0.006004
646.251	0.008294
655.896	0.006024
665.541	0.004854
675.186	0.004674
684.831	0.006004
694.476	0.009104
704.121	0.010004
713.766	0.008224
723.411	0.009214
733.056	0.019864
742.701	0.034324
752.346	0.024564
761.991	0.014374
771.636	0.009394
781.281	0.005424
790.926	0.003884
800.571	0.003914
810.216	0.003934
819.861	0.004024
829.507	0.004494
839.152	0.004974
848.797	0.005504
858.442	0.005844
868.087	0.005474
877.732	0.005164
887.377	0.005854
897.022	0.008654
906.667	0.013074
916.312	0.020674
925.957	0.032234
935.602	0.035524
945.247	0.022884
954.892	0.011584
964.537	0.006604
974.182	0.004754
983.827	0.004024
993.472	0.003894
1003.12	0.004884
1012.76	0.008274
1022.41	0.017644
1032.05	0.020874
1041.7	0.013194
1051.34	0.006454
1060.99	0.003724
1070.63	0.003304
1080.28	0.003144
1089.92	0.003084
1099.57	0.002914
1109.21	0.003104
1118.86	0.003224
1128.5	0.002454
1138.15	0.0015976
1147.79	0.001614
1157.44	0.002244
1167.08	0.004014
1176.73	0.004854
1186.37	0.011664
1196.02	0.065574
1205.66	0.041904
1215.31	0.018654
1224.95	0.011354
1234.6	0.008254
1244.24	0.011024
1253.89	0.012994
1263.53	0.010814
1273.18	0.016394
1282.82	0.030364
1292.47	0.032994
1302.11	0.018114
1311.76	0.008954
1321.4	0.006574
1331.05	0.005554
1340.69	0.005454
1350.34	0.005634
1359.98	0.005234
1369.63	0.004084
1379.27	0.003704
1388.92	0.004254
1398.56	0.005614
1408.21	0.008544
1417.85	0.015234
1427.5	0.028114
1437.14	0.041344
1446.79	0.045504
1456.43	0.037254
1466.08	0.029424
1475.73	0.026774
1485.37	0.026014
1495.02	0.021484
1504.66	0.015804
1514.31	0.012094
1523.95	0.008954
1533.6	0.006604
1543.24	0.005464
1552.89	0.005574
1562.53	0.006684
1572.18	0.007244
1581.82	0.010274
1591.47	0.013974
1601.11	0.012004
1610.76	0.012844
1620.4	0.017104
1630.05	0.022044
1639.69	0.021484
1649.34	0.016504
1658.98	0.015734
1668.63	0.020334
1678.27	0.028694
1687.92	0.039384
1697.56	0.064824
1707.21	0.074624
1716.85	0.048394
1726.5	0.027264
1736.14	0.013784
1745.79	0.007464
1755.43	0.004924
1765.08	0.003794
1774.72	0.003074
1784.37	0.002864
1794.01	0.003104
1803.66	0.003344
1813.3	0.002834
1822.95	0.002114
1832.59	0.002014
1842.24	0.001934
1851.88	0.001624
1861.53	0.0014466
1871.17	0.0013034
1880.82	0.0013142
1890.46	0.001409
1900.11	0.0015199
1909.75	0.001744
1919.4	0.002034
1929.04	0.001894
1938.69	0.0014898
1948.33	0.001694
1957.98	0.001674
1967.62	0.0011937
1977.27	0.0010169
1986.91	0.0009308
1996.56	0.0009263
2006.2	0.0008584
2015.85	0.0008607
2025.49	0.0008813
2035.14	0.0008435
2044.78	0.0007808
2054.43	0.0007877
2064.07	0.0008068
2073.72	0.000812
2083.36	0.0007808
2093.01	0.0007406
2102.65	0.000775
2112.3	0.0007587
2121.94	0.0007838
2131.59	0.0007538
2141.23	0.0007906
2150.88	0.0007992
2160.52	0.0007674
2170.17	0.0007547
2179.81	0.0007318
2189.46	0.0007447
2199.1	0.00069834
2208.75	0.0007079
2218.39	0.00069767
2228.04	0.0007152
2237.68	0.0007279
2247.33	0.00066716
2256.97	0.0008338
2266.62	0.0008963
2276.26	0.0009389
2285.91	0.00099
2295.55	0.0007853
2305.2	0.000839
2314.84	0.0008154
2324.49	0.0008044
2334.13	0.0007249
2343.78	0.00067065
2353.42	0.0006217
2363.07	0.000514
2372.72	0.00069417
2382.36	0.0007139
2392.01	0.00067045
2401.65	0.0006776
2411.3	0.00066432
2420.94	0.0007022
2430.59	0.00066006
2440.23	0.00068567
2449.88	0.00059714
2459.52	0.0007154
2469.17	0.00064408
2478.81	0.00068333
2488.46	0.00067766
2498.1	0.0007293
2507.75	0.0007316
2517.39	0.0007207
2527.04	0.0007625
2536.68	0.0007161
2546.33	0.0008386
2555.97	0.0008963
2565.62	0.0007821
2575.26	0.0008323
2584.91	0.0007283
2594.55	0.0007899
2604.2	0.0007737
2613.84	0.0007747
2623.49	0.00062609
2633.13	0.00061593
2642.78	0.00061926
2652.42	0.0005306
2662.07	0.0005229
2671.71	0.000429
2681.36	0.0005645
2691	0.0005179
2700.65	0.000607168
2710.29	0.00063297
2719.94	0.0005694
2729.58	0.00063326
2739.23	0.00067832
2748.87	0.00061801
2758.52	0.00062661
2768.16	0.0005462
2777.81	0.0005379
2787.45	0.000433
2797.1	0.00062849
2806.74	0.000424
2816.39	0.000461
2826.03	0.000458
2835.68	0.000463
2845.32	0.0005148
2854.97	0.000497
2864.61	0.0005505
2874.26	0.00045
2883.9	0.000475
2893.55	0.000447
2903.19	0.000411
2912.84	0.000461
2922.48	0.000394
2932.13	0.000342
2941.77	0.0005312
2951.42	0.0005913
2961.06	0.000478
2970.71	0.00067947
2980.35	0.00068264
2990	0.0008116
2999.64	0.0008029
3009.29	0.0008685
3018.93	0.0009515
3028.58	0.0007888
3038.22	0.0009908
3047.87	0.001764
3057.51	0.004554
3067.16	0.007794
3076.8	0.008574
3086.45	0.005254
3096.09	0.002064
3105.74	0.00097
3115.38	0.0009111
3125.03	0.001095
3134.67	0.0010759
3144.32	0.0005765
3153.96	0.000351
3163.61	0.000487
3173.25	0.00064732
3182.9	0.00065502
3192.54	0.0007931
3202.19	0.0010224
3211.83	0.0010616
3221.48	0.0008393
3231.12	0.000611081
3240.77	0.000454
3250.41	0.000423
3260.06	0.000375
3269.7	0.000305
3279.35	0.0007415
3289	0.0005506
3298.64	0.00069518
3308.29	0.0007054
3317.93	0.0007392
3327.58	0.0008679
3337.22	0.0011509
3346.87	0.0014285
3356.51	0.0012729
3366.16	0.0011443
3375.8	0.0010567
3385.45	0.0014401
3395.09	0.001774
3404.74	0.002004
3414.38	0.002364
3424.03	0.003634
3433.67	0.006034
3443.32	0.009084
3452.96	0.012744
3462.61	0.014784
3472.25	0.011704
3481.9	0.007474
3491.54	0.004704
3501.19	0.002574
3510.83	0.0015212
3520.48	0.000902
3530.12	0.00068222
3539.77	0.000529
3549.41	0.0005772
3559.06	0.0005835
3568.7	0.0005575
3578.35	0.0005507
3587.99	0.0005922
3597.64	0.0005578
3607.28	0.000496
3616.93	0.000411
3626.57	0.000214
3636.22	0.000171
3645.86	0.000386
3655.51	0.000348
3665.15	0.00023
3674.8	0.000187
3684.44	0.000262
3694.09	0.000314
3703.73	0.000232
3713.38	0.000245
3723.02	0.000479
3732.67	0.000331
3742.31	0.00021
3751.96	0.000239
3761.6	0.000285
3771.25	0.000304
3780.89	0.000218
3790.54	0.000195
3800.18	0.000139
3809.83	0.000221
3819.47	0.000233
3829.12	0.000314
3838.76	0.000247
3848.41	0.000363
3858.05	0.000165
3867.7	0.000156
3877.34	0.000299
3886.99	0.000271
3896.63	0.000172
3906.28	0.000302
3915.92	0.000297
3925.57	0.000242
3935.21	0.000185
3944.86	0.000306
3954.5	0.000223
3964.15	0.000176
3973.79	0.000245
3983.44	8.5e-05
3993.08	0.000301
