Infrared Spectrum: 2-Amino-5-methylbenzoic acid
Formula: C 8 H 9 N O 2
CAS: 2941-78-8
State: gas
Instrument: HP-GC/MS/IRD
Origin: NIST Mass Spectrometry Data Center
1/CM	ABSORBANCE
550	0.0018394
562	0.0034017
574	0.0033779
586	0.0020111
598	0.0009724
610	0.0007072
622	0.0007548
634	0.0011322
646	0.002227
658	0.0033371
670	0.0020349
682	0.0008942
694	0.000918
706	0.0013226
718	0.001513
730	0.0007327
742	0.0003621
754	0.0003553
766	0.0004301
778	0.0007548
790	0.0011985
802	0.0017119
814	0.0025517
826	0.0011815
838	0.0003723
850	0.0002431
862	0.0002006
874	0.0001122
886	0.0001445
898	0.0001955
910	0.0001139
922	1.7e-05
934	3.57e-05
946	6.97e-05
958	5.27e-05
970	0.0001224
982	0.0002601
994	0.0003706
1006	0.0003043
1018	0.0002312
1030	0.0005423
1042	0.0022236
1054	0.0041667
1066	0.0039542
1078	0.0036839
1090	0.0036159
1102	0.0023545
1114	0.0015249
1126	0.0015963
1138	0.003315
1150	0.0102697
1162	0.0135592
1174	0.0073474
1186	0.0021046
1198	0.0008772
1210	0.0009894
1222	0.0014331
1234	0.0014144
1246	0.0016048
1258	0.0020638
1270	0.0016371
1282	0.0010506
1294	0.0013719
1306	0.0025466
1318	0.0027387
1330	0.0021896
1342	0.002482
1354	0.0021641
1366	0.001496
1378	0.0018292
1390	0.0013192
1402	0.000595
1414	0.0006664
1426	0.0007429
1438	0.0004658
1450	0.0003179
1462	0.0004165
1474	0.0007208
1486	0.0018768
1498	0.0037706
1510	0.002941
1522	0.001122
1534	0.0007072
1546	0.0009979
1558	0.0022185
1570	0.0034561
1582	0.0039389
1594	0.0049334
1606	0.0048892
1618	0.0047039
1630	0.0043282
1642	0.0023358
1654	0.0010098
1666	0.0007667
1678	0.0008772
1690	0.0012495
1702	0.0025806
1714	0.0089182
1726	0.017
1738	0.0107746
1750	0.0046036
1762	0.0020825
1774	0.0008687
1786	0.0008483
1798	0.0006545
1810	0.0003264
1822	0.00017
1834	0.000136
1846	0.0001309
1858	7.82e-05
1870	7.65e-05
1882	0.0001105
1894	0.000153
1906	0.0001088
1918	7.65e-05
1930	9.52e-05
1942	9.18e-05
1954	7.99e-05
1966	4.25e-05
1978	3.4e-05
1990	2.21e-05
2002	1.87e-05
2014	2.38e-05
2026	1.36e-05
2038	4.25e-05
2050	5.27e-05
2062	7.14e-05
2074	6.29e-05
2086	9.18e-05
2098	0.0001088
2110	7.65e-05
2122	6.46e-05
2134	4.59e-05
2146	3.91e-05
2158	3.23e-05
2170	4.93e-05
2182	2.72e-05
2194	3.74e-05
2206	5.44e-05
2218	5.78e-05
2230	3.74e-05
2242	1.87e-05
2254	3.57e-05
2266	3.06e-05
2278	2.72e-05
2290	4.76e-05
2302	5.44e-05
2314	5.44e-05
2326	7.31e-05
2338	7.14e-05
2350	5.95e-05
2362	9.86e-05
2374	9.01e-05
2386	0.0001003
2398	8.5e-05
2410	7.82e-05
2422	7.31e-05
2434	3.74e-05
2446	2.72e-05
2458	2.89e-05
2470	3.4e-05
2482	1.53e-05
2494	4.08e-05
2506	3.91e-05
2518	4.59e-05
2530	6.12e-05
2542	5.1e-05
2554	3.91e-05
2566	3.06e-05
2578	2.55e-05
2590	4.93e-05
2602	6.12e-05
2614	5.95e-05
2626	5.1e-05
2638	6.29e-05
2650	7.14e-05
2662	4.59e-05
2674	5.27e-05
2686	3.23e-05
2698	4.42e-05
2710	4.25e-05
2722	6.97e-05
2734	9.18e-05
2746	8.84e-05
2758	7.31e-05
2770	5.44e-05
2782	4.59e-05
2794	5.1e-05
2806	5.1e-05
2818	7.99e-05
2830	0.0001105
2842	0.0001921
2854	0.0003349
2866	0.0006324
2878	0.0008738
2890	0.0007548
2902	0.0006715
2914	0.0008806
2926	0.0013413
2938	0.0013736
2950	0.0007769
2962	0.0004998
2974	0.0004556
2986	0.0004624
2998	0.0005117
3010	0.0007072
3022	0.0011764
3034	0.0012393
3046	0.0009826
3058	0.0008908
3070	0.0005491
3082	0.0002924
3094	0.0001836
3106	0.0001411
3118	0.0001088
3130	0.0001054
3142	2.89e-05
3154	6.63e-05
3166	2.21e-05
3178	6.46e-05
3190	8.16e-05
3202	6.29e-05
3214	4.59e-05
3226	2.89e-05
3238	3.91e-05
3250	5.78e-05
3262	4.25e-05
3274	4.08e-05
3286	4.42e-05
3298	5.61e-05
3310	6.8e-05
3322	0.0001462
3334	0.0001377
3346	0.0001785
3358	0.0002754
3370	0.0005423
3382	0.0019635
3394	0.0026877
3406	0.0013192
3418	0.0004947
3430	0.0004913
3442	0.0004046
3454	0.0002533
3466	0.0002499
3478	0.0003944
3490	0.0006477
3502	0.0011356
3514	0.0016694
3526	0.0014501
3538	0.0007854
3550	0.0003927
3562	0.000748
3574	0.0033473
3586	0.0051561
3598	0.0017323
3610	0.0002057
3622	4.42e-05
3634	5.78e-05
3646	3.91e-05
3658	2.04e-05
3670	3.06e-05
3682	2.04e-05
3694	8.5e-06
3706	1.87e-05
3718	6.8e-06
3730	0
3742	4.25e-05
3754	3.4e-05
3766	2.21e-05
3778	0
3790	2.55e-05
3802	0
3814	0
3826	8.5e-06
3838	0
