Infrared Spectrum: 6-Nitrobenzothiazole
Formula: C 7 H 4 N 2 O 2 S
CAS: 2942-06-5
State: gas
Origin: EPA-IR VAPOR PHASE LIBRARY
1/CM	ABSORBANCE
549.9	0.0007203
559.547	0.0007534
569.193	0.00050765
578.84	0.0004036
588.486	0.000589
598.133	0.0011251
607.779	0.003143
617.426	0.002443
627.072	0.0006407
636.719	0.00045685
646.365	0.00047921
656.012	0.0005236
665.658	0.0007143
675.305	0.0006339
684.951	0.0005507
694.598	0.0007942
704.245	0.0012075
713.891	0.002103
723.538	0.002363
733.184	0.002873
742.831	0.006663
752.477	0.005753
762.124	0.002143
771.77	0.001345
781.417	0.001953
791.063	0.005533
800.71	0.005793
810.356	0.002053
820.003	0.0011546
829.649	0.002643
839.296	0.007553
848.943	0.010103
858.589	0.004403
868.236	0.001633
877.882	0.002423
887.529	0.004383
897.175	0.006083
906.822	0.005213
916.468	0.0013855
926.115	0.0006028
935.761	0.00051034
945.408	0.00050292
955.054	0.00041799
964.701	0.0003425
974.347	0.0003728
983.994	0.000431688
993.64	0.00049084
1003.29	0.0005302
1012.93	0.0005762
1022.58	0.0006116
1032.23	0.0009311
1041.87	0.001294
1051.52	0.0007712
1061.17	0.00049515
1070.81	0.00046619
1080.46	0.00051301
1090.11	0.0007263
1099.75	0.0012189
1109.4	0.001593
1119.05	0.003303
1128.69	0.004383
1138.34	0.001793
1147.99	0.000671
1157.63	0.0003934
1167.28	0.000292
1176.92	0.000282
1186.57	0.00051986
1196.22	0.0008982
1205.86	0.000892
1215.51	0.0005738
1225.16	0.00047246
1234.8	0.0008027
1244.45	0.0013274
1254.1	0.0014055
1263.74	0.0013343
1273.39	0.001773
1283.04	0.003043
1292.68	0.004543
1302.33	0.004053
1311.98	0.006773
1321.62	0.012263
1331.27	0.014833
1340.92	0.022523
1350.56	0.030563
1360.21	0.017493
1369.86	0.005983
1379.5	0.003343
1389.15	0.002573
1398.79	0.003103
1408.44	0.003233
1418.09	0.002843
1427.73	0.003813
1437.38	0.004983
1447.03	0.004013
1456.67	0.003953
1466.32	0.005443
1475.97	0.005453
1485.61	0.003573
1495.26	0.002773
1504.91	0.003873
1514.55	0.007653
1524.2	0.013203
1533.85	0.014983
1543.49	0.013283
1553.14	0.010723
1562.79	0.010553
1572.43	0.012343
1582.08	0.009403
1591.73	0.005243
1601.37	0.003963
1611.02	0.002693
1620.67	0.001593
1630.31	0.001235
1639.96	0.0011671
1649.6	0.0012757
1659.25	0.001773
1668.9	0.001623
1678.54	0.0009265
1688.19	0.0007171
1697.84	0.000687
1707.48	0.0005688
1717.13	0.0005716
1726.78	0.00048594
1736.42	0.0005197
1746.07	0.0005231
1755.72	0.0005987
1765.36	0.000756
1775.01	0.0009487
1784.66	0.0008048
1794.3	0.0005893
1803.95	0.0005851
1813.6	0.0003966
1823.24	0.0003244
1832.89	0.0003519
1842.54	0.00031
1852.18	0.0003384
1861.83	0.0003571
1871.47	0.000307
1881.12	0.000354
1890.77	0.0003746
1900.41	0.0005285
1910.06	0.000645
1919.71	0.0006573
1929.35	0.00046451
1939	0.0003739
1948.65	0.0003371
1958.29	0.0003245
1967.94	0.0003276
1977.59	0.0003382
1987.23	0.0003652
1996.88	0.0003727
2006.53	0.0003571
2016.17	0.0003506
2025.82	0.0003669
2035.47	0.0003772
2045.11	0.00035
2054.76	0.0003614
2064.41	0.0003468
2074.05	0.0003625
2083.7	0.0004024
2093.35	0.0003853
2102.99	0.0003847
2112.64	0.000373
2122.28	0.0003646
2131.93	0.0003549
2141.58	0.0003692
2151.22	0.0003729
2160.87	0.0003655
2170.52	0.0003799
2180.16	0.000384
2189.81	0.000425364
2199.46	0.0003639
2209.1	0.0003873
2218.75	0.0003614
2228.4	0.00045602
2238.04	0.0004935
2247.69	0.00047686
2257.34	0.00044853
2266.98	0.0004113
2276.63	0.00043647
2286.28	0.000425274
2295.92	0.000428108
2305.57	0.0003863
2315.22	0.0003932
2324.86	0.0004093
2334.51	0.00041602
2344.16	0.00047082
2353.8	0.00041496
2363.45	0.00044729
2373.09	0.000426059
2382.74	0.000402
2392.39	0.00041618
2402.03	0.0004603
2411.68	0.0004117
2421.33	0.000426606
2430.97	0.0003934
2440.62	0.00045595
2450.27	0.00050112
2459.91	0.0004784
2469.56	0.0005444
2479.21	0.0005246
2488.85	0.00045394
2498.5	0.00045864
2508.15	0.0004014
2517.79	0.0004104
2527.44	0.00043448
2537.09	0.00048139
2546.73	0.0004418
2556.38	0.000426746
2566.03	0.0004137
2575.67	0.00041899
2585.32	0.00046571
2594.96	0.000404
2604.61	0.000427926
2614.26	0.00046338
2623.9	0.0005237
2633.55	0.0005351
2643.2	0.0006084
2652.84	0.0005272
2662.49	0.00047471
2672.14	0.00050957
2681.78	0.0005522
2691.43	0.0005412
2701.08	0.0005645
2710.72	0.0005592
2720.37	0.00051449
2730.02	0.00052057
2739.66	0.000457
2749.31	0.00047537
2758.96	0.00050983
2768.6	0.000432933
2778.25	0.0005021
2787.9	0.00046646
2797.54	0.0005397
2807.19	0.0005698
2816.84	0.00049314
2826.48	0.00050472
2836.13	0.0006541
2845.77	0.0007278
2855.42	0.0007225
2865.07	0.0007382
2874.71	0.0007323
2884.36	0.0007584
2894.01	0.0007892
2903.65	0.0007691
2913.3	0.0007925
2922.95	0.0006027
2932.59	0.0006409
2942.24	0.00057
2951.89	0.0004811
2961.53	0.0004851
2971.18	0.0005059
2980.83	0.000244
2990.47	0.000431598
3000.12	0.000255
3009.77	0.0003839
3019.41	0.0004034
3029.06	0.000426799
3038.71	0.000423433
3048.35	0.0004092
3058	0.00049231
3067.64	0.0005509
3077.29	0.0007714
3086.94	0.0010621
3096.58	0.0008501
3106.23	0.00045072
3115.88	0.00045097
3125.52	0.0003638
3135.17	0.000214
3144.82	0.000296
3154.46	0.000196
3164.11	0.0003313
3173.76	0.000218
3183.4	0.000249
3193.05	0.000234
3202.7	0.000182
3212.34	0.000196
3221.99	0.000148
3231.64	8.3e-05
3241.28	9.2e-05
3250.93	0.000183
3260.58	0.000264
3270.22	0.000223
3279.87	0.000243
3289.52	0.000192
3299.16	0.000189
3308.81	7e-05
3318.45	0.000176
3328.1	0.000149
3337.75	0.000114
3347.39	0.000151
3357.04	0.000202
3366.69	0.000232
3376.33	7.3e-05
3385.98	6.8e-05
3395.63	0.000264
3405.27	0.000254
3414.92	0.000224
3424.57	0.000121
3434.21	5.6e-05
3443.86	0.000165
3453.51	0.000149
3463.15	0.000106
3472.8	0.000104
3482.45	0.000238
3492.09	0.000188
3501.74	9.1e-05
3511.39	0.000127
3521.03	0.00012
3530.68	0.000176
3540.33	0.000165
3549.97	0.000183
3559.62	0.000274
3569.26	0.000226
3578.91	0.000204
3588.56	0.000219
3598.2	0.000195
3607.85	0.000195
3617.5	0.000212
3627.14	0.000199
3636.79	0.000265
3646.44	0.000164
3656.08	0.000243
3665.73	0.000318
3675.38	0.00026
3685.02	0.000233
3694.67	0.000239
3704.32	0.000274
3713.96	0.000287
3723.61	0.000321
3733.26	0.000283
3742.9	0.000277
3752.55	0.000294
3762.2	0.00032
3771.84	0.000256
3781.49	0.00026
3791.13	0.000296
3800.78	0.0003411
3810.43	0.000289
3820.07	0.000295
3829.72	0.0003611
3839.37	0.0003816
3849.01	0.0003669
3858.66	0.000304
3868.31	0.000342
3877.95	0.000256
3887.6	0.0003551
3897.25	0.000381
3906.89	0.0003909
3916.54	0.000319
3926.19	0.00038
3935.83	0.00049983
3945.48	0.0003908
3955.13	0.0003664
3964.77	0.000305
3974.42	0.0003374
3984.07	0.000246
3993.71	0.000397
