Infrared Spectrum: 7-Nitroindazole
Formula: C 7 H 5 N 3 O 2
CAS: 2942-42-9
State: gas
Origin: EPA-IR VAPOR PHASE LIBRARY
1/CM	ABSORBANCE
549.8	0.00414
559.445	0.00444
569.09	0.00468
578.734	0.00455
588.379	0.00406
598.024	0.00459
607.669	0.00443
617.313	0.00358
626.958	0.00438
636.603	0.00723
646.248	0.01166
655.893	0.01803
665.537	0.02264
675.182	0.0133
684.827	0.00562
694.472	0.0029404
704.116	0.0027421
713.761	0.0033241
723.406	0.00846
733.051	0.01631
742.695	0.01786
752.34	0.0101
761.985	0.00472
771.63	0.00455
781.275	0.00989
790.919	0.01632
800.564	0.01318
810.209	0.00567
819.854	0.00427
829.498	0.00504
839.143	0.01038
848.788	0.02256
858.433	0.01593
868.078	0.01013
877.722	0.0052
887.367	0.0031698
897.012	0.0031393
906.657	0.003485
916.301	0.00577
925.946	0.01246
935.591	0.01383
945.236	0.00801
954.88	0.00482
964.525	0.00555
974.17	0.0066
983.815	0.00889
993.46	0.01549
1003.1	0.01753
1012.75	0.01174
1022.39	0.01026
1032.04	0.01195
1041.68	0.01066
1051.33	0.00779
1060.97	0.00634
1070.62	0.00481
1080.26	0.002291
1089.91	0.00015
1099.55	0.00217
1109.2	0.001708
1118.84	0.002153
1128.49	0.00361
1138.13	0.0034702
1147.78	0.00604
1157.42	0.00697
1167.07	0.00481
1176.71	0.00394
1186.36	0.0054
1196	0.00755
1205.64	0.00745
1215.29	0.00725
1224.93	0.00595
1234.58	0.00575
1244.22	0.00534
1253.87	0.0071
1263.51	0.01184
1273.16	0.0151
1282.8	0.01481
1292.45	0.02191
1302.09	0.02927
1311.74	0.03082
1321.38	0.05583
1331.03	0.09655
1340.67	0.086
1350.32	0.04053
1359.96	0.02649
1369.61	0.02724
1379.25	0.02311
1388.9	0.01037
1398.54	0.00626
1408.18	0.00519
1417.83	0.00577
1427.47	0.00595
1437.12	0.00476
1446.76	0.00481
1456.41	0.00963
1466.05	0.0146
1475.7	0.012
1485.34	0.00871
1494.99	0.01115
1504.63	0.01105
1514.28	0.01096
1523.92	0.02335
1533.57	0.04272
1543.21	0.05239
1552.86	0.04031
1562.5	0.02063
1572.15	0.0122
1581.79	0.00986
1591.44	0.00897
1601.08	0.00782
1610.73	0.00805
1620.37	0.01098
1630.01	0.01892
1639.66	0.01879
1649.3	0.00978
1658.95	0.00494
1668.59	0.00408
1678.24	0.00391
1687.88	0.0047
1697.53	0.00451
1707.17	0.0041
1716.82	0.0039
1726.46	0.00371
1736.11	0.0030283
1745.75	0.0029571
1755.4	0.0031819
1765.04	0.0032534
1774.69	0.0030196
1784.33	0.002824
1793.98	0.00251304
1803.62	0.0029025
1813.27	0.0029894
1822.91	0.0030821
1832.55	0.0031104
1842.2	0.0029317
1851.84	0.0029266
1861.49	0.0028833
1871.13	0.0032612
1880.78	0.00359
1890.42	0.003303
1900.07	0.0028011
1909.71	0.0029085
1919.36	0.0034724
1929	0.00368
1938.65	0.0033676
1948.29	0.0028211
1957.94	0.0026516
1967.58	0.0027992
1977.23	0.0026143
1986.87	0.0026024
1996.52	0.0026879
2006.16	0.00258686
2015.81	0.00249828
2025.45	0.002706
2035.1	0.0024796
2044.74	0.00258219
2054.38	0.002425
2064.03	0.0027021
2073.67	0.00248738
2083.32	0.00251404
2092.96	0.0027333
2102.61	0.0026257
2112.25	0.002374
2121.9	0.0026541
2131.54	0.0027256
2141.19	0.002755
2150.83	0.0028929
2160.48	0.0028862
2170.12	0.00258901
2179.77	0.00251666
2189.41	0.002637
2199.06	0.0027469
2208.7	0.0026816
2218.35	0.0029557
2227.99	0.0028808
2237.64	0.0026859
2247.28	0.0027371
2256.92	0.0026354
2266.57	0.0031031
2276.21	0.0029655
2285.86	0.0027835
2295.5	0.0028402
2305.15	0.0029217
2314.79	0.002814
2324.44	0.0029317
2334.08	0.0031447
2343.73	0.0031019
2353.37	0.0028006
2363.02	0.0027295
2372.66	0.0027933
2382.31	0.0026357
2391.95	0.002814
2401.6	0.0027653
2411.24	0.002602
2420.89	0.0029332
2430.53	0.00251299
2440.18	0.0026382
2449.82	0.002797
2459.47	0.0026704
2469.11	0.0027239
2478.75	0.0030318
2488.4	0.0029041
2498.04	0.0030185
2507.69	0.0030275
2517.33	0.0029014
2526.98	0.0032603
2536.62	0.003179
2546.27	0.0030146
2555.91	0.0032335
2565.56	0.0030968
2575.2	0.0030786
2584.85	0.0029322
2594.49	0.0026759
2604.14	0.00256473
2613.78	0.0027249
2623.43	0.0028261
2633.07	0.0032468
2642.72	0.0029023
2652.36	0.0032277
2662.01	0.0031976
2671.65	0.0030976
2681.29	0.002777
2690.94	0.0031212
2700.58	0.0028059
2710.23	0.0030009
2719.87	0.0026624
2729.52	0.0028031
2739.16	0.0027021
2748.81	0.00251773
2758.45	0.0030303
2768.1	0.0030169
2777.74	0.0030099
2787.39	0.0028062
2797.03	0.0033918
2806.68	0.0030451
2816.32	0.0027445
2825.97	0.0028909
2835.61	0.00363
2845.26	0.00392
2854.9	0.0034519
2864.55	0.0031594
2874.19	0.00379
2883.84	0.0034814
2893.48	0.0033168
2903.12	0.003393
2912.77	0.00368
2922.41	0.0034795
2932.06	0.0031664
2941.7	0.0031577
2951.35	0.0031949
2960.99	0.0034255
2970.64	0.0033571
2980.28	0.0030638
2989.93	0.0032367
2999.57	0.003091
3009.22	0.002336
3018.86	0.0029739
3028.51	0.0033582
3038.15	0.0034479
3047.8	0.00358
3057.44	0.0038
3067.09	0.00413
3076.73	0.00566
3086.38	0.00616
3096.02	0.00506
3105.67	0.00359
3115.31	0.00371
3124.95	0.00357
3134.6	0.0029847
3144.24	0.0032001
3153.89	0.00256737
3163.53	0.0031353
3173.18	0.002072
3182.82	0.0026169
3192.47	0.002377
3202.11	0.002297
3211.76	0.002269
3221.4	0.0029823
3231.05	0.0024453
3240.69	0.00254096
3250.34	0.0026446
3259.98	0.00252893
3269.63	0.002823
3279.27	0.0026353
3288.92	0.00256759
3298.56	0.002019
3308.21	0.0026074
3317.85	0.002576
3327.49	0.0028983
3337.14	0.0029706
3346.78	0.002029
3356.43	0.002317
3366.07	0.0026605
3375.72	0.0024077
3385.36	0.0024436
3395.01	0.0026499
3404.65	0.0028564
3414.3	0.0030612
3423.94	0.0027195
3433.59	0.0027788
3443.23	0.00361
3452.88	0.003075
3462.52	0.00368
3472.17	0.00644
3481.81	0.0124
3491.46	0.02618
3501.1	0.04583
3510.75	0.03745
3520.39	0.01279
3530.04	0.00466
3539.68	0.00372
3549.32	0.0029834
3558.97	0.0028954
3568.61	0.0029131
3578.26	0.0034133
3587.9	0.0034882
3597.55	0.0032544
3607.19	0.002031
3616.84	0.00213
3626.48	0.0030659
3636.13	0.0032027
3645.77	0.0027158
3655.42	0.002126
3665.06	0.0026039
3674.71	0.0024295
3684.35	0.00253066
3694	0.002283
3703.64	0.0023966
3713.29	0.0030406
3722.93	0.00248837
3732.58	0.0032924
3742.22	0.002309
3751.86	0.0024661
3761.51	0.0031645
3771.15	0.0027083
3780.8	0.0024458
3790.44	0.002069
3800.09	0.0028947
3809.73	0.0024338
3819.38	0.0027264
3829.02	0.002147
3838.67	0.00249027
3848.31	0.002455
3857.96	0.0028571
3867.6	0.0027934
3877.25	0.0028021
3886.89	0.0030762
3896.54	0.0026177
3906.18	0.002751
3915.83	0.0026381
3925.47	0.0032249
3935.12	0.003265
3944.76	0.002817
3954.41	0.002352
3964.05	0.0028113
3973.69	0.0024012
3983.34	0.0026429
3992.98	0.002635
