Infrared Spectrum: PHOSPHORIC ACID, TRIS(2,2,4-TRIMETHYLPENTYL) ESTER
Formula: C24 H51 O4 P
CAS: 29420-78-8
Boiling point: 160-164 C AT 0.5 mmHg
Class: COBLENTZ
Instrument: Not specified, most likely a prism, grating, or hybrid spectrometer.
Sampling: TRANSMISSION
Path length: SMEAR
Resolution: 4
Origin: TENNESSEE EASTMAN COMPANY, RESEARCH LABORATORIES
MICROMETERS	TRANSMITTANCE
2.018	0.854
2.05807	0.856
2.09815	0.861
2.13822	0.864
2.17829	0.868
2.21837	0.869
2.25844	0.864
2.29852	0.863
2.33859	0.863
2.37866	0.864
2.41874	0.866
2.45881	0.871
2.49888	0.878
2.53896	0.881
2.57903	0.883
2.61911	0.886
2.65918	0.886
2.69925	0.889
2.73933	0.889
2.7794	0.891
2.81947	0.889
2.85955	0.889
2.89962	0.889
2.9397	0.889
2.97977	0.891
3.01984	0.893
3.05992	0.894
3.09999	0.894
3.14006	0.894
3.18014	0.894
3.22021	0.898
3.26029	0.899
3.30036	0.898
3.34043	0.797
3.38051	0.22
3.42058	0.342
3.46065	0.4
3.50073	0.609
3.5408	0.809
3.58088	0.869
3.62095	0.896
3.66102	0.899
3.7011	0.898
3.74117	0.903
3.78124	0.918
3.82132	0.923
3.86139	0.924
3.90147	0.929
3.94154	0.931
3.98161	0.938
4.02169	0.941
4.06176	0.941
4.10183	0.944
4.14191	0.943
4.18198	0.943
4.22206	0.943
4.26213	0.951
4.3022	0.953
4.34228	0.951
4.38235	0.946
4.42242	0.944
4.4625	0.946
4.50257	0.948
4.54265	0.949
4.58272	0.951
4.62279	0.951
4.66287	0.949
4.70294	0.949
4.74301	0.949
4.78309	0.951
4.82316	0.953
4.86324	0.951
4.90331	0.951
4.94338	0.951
4.98346	0.951
5.02353	0.951
5.0636	0.943
5.10368	0.939
5.14375	0.939
5.18383	0.936
5.2239	0.934
5.26397	0.936
5.30405	0.938
5.34412	0.939
5.38419	0.939
5.42427	0.934
5.46434	0.931
5.50442	0.934
5.54449	0.938
5.58456	0.939
5.62464	0.939
5.66471	0.939
5.70478	0.939
5.74486	0.933
5.78493	0.926
5.82501	0.926
5.86508	0.924
5.90515	0.924
5.94523	0.919
5.9853	0.919
6.02537	0.914
6.06545	0.918
6.10552	0.904
6.1456	0.914
6.18567	0.916
6.22574	0.921
6.26582	0.926
6.30589	0.926
6.34596	0.929
6.38604	0.928
6.42611	0.918
6.46619	0.916
6.50626	0.911
6.54633	0.908
6.58641	0.903
6.62648	0.891
6.66655	0.868
6.70663	0.769
6.7467	0.559
6.78678	0.502
6.82685	0.604
6.86692	0.699
6.907	0.771
6.94707	0.824
6.98714	0.863
7.02722	0.876
7.06729	0.881
7.10737	0.859
7.14744	0.761
7.18751	0.759
7.22759	0.766
7.26766	0.732
7.30773	0.602
7.34781	0.642
7.38788	0.781
7.42796	0.859
7.46803	0.878
7.5081	0.879
7.54818	0.879
7.58825	0.853
7.62832	0.803
7.6684	0.721
7.70847	0.631
7.74855	0.502
7.78862	0.432
7.82869	0.462
7.86877	0.472
7.90884	0.469
7.94891	0.651
7.98899	0.762
8.02906	0.814
8.06914	0.826
8.10921	0.831
8.14928	0.844
8.18936	0.841
8.22943	0.846
8.2695	0.859
8.30958	0.863
8.34965	0.838
8.38973	0.838
8.4298	0.833
8.46987	0.833
8.50995	0.821
8.55002	0.803
8.59009	0.831
8.63017	0.849
8.67024	0.856
8.71032	0.858
8.75039	0.859
8.79046	0.861
8.83054	0.858
8.87061	0.851
8.91068	0.836
8.95076	0.823
8.99083	0.797
9.03091	0.791
9.07098	0.777
9.11105	0.752
9.15113	0.734
9.1912	0.707
9.23127	0.679
9.27135	0.651
9.31142	0.644
9.3515	0.652
9.39157	0.649
9.43164	0.602
9.47172	0.527
9.51179	0.405
9.55186	0.258
9.59194	0.158
9.63201	0.115
9.67209	0.101
9.71216	0.101
9.75223	0.103
9.79231	0.123
9.83238	0.138
9.87245	0.18
9.91253	0.257
9.9526	0.348
9.99268	0.383
10.0327	0.402
10.0728	0.454
10.1129	0.54
10.153	0.624
10.193	0.659
10.2331	0.661
10.2732	0.646
10.3133	0.661
10.3533	0.719
10.3934	0.754
10.4335	0.774
10.4736	0.782
10.5136	0.784
10.5537	0.786
10.5938	0.774
10.6339	0.762
10.6739	0.766
10.714	0.754
10.7541	0.707
10.7942	0.692
10.8342	0.694
10.8743	0.707
10.9144	0.729
10.9544	0.729
10.9945	0.702
11.0346	0.686
11.0747	0.662
11.1147	0.614
11.1548	0.555
11.1949	0.51
11.235	0.5
11.275	0.507
11.3151	0.544
11.3552	0.604
11.3953	0.661
11.4353	0.712
11.4754	0.751
11.5155	0.774
11.5556	0.784
11.5956	0.787
11.6357	0.794
11.6758	0.806
11.7158	0.826
11.7559	0.839
11.796	0.849
11.8361	0.853
11.8761	0.854
11.9162	0.853
11.9563	0.846
11.9964	0.841
12.0364	0.839
12.0765	0.836
12.1166	0.836
12.1567	0.838
12.1967	0.836
12.2368	0.836
12.2769	0.833
12.317	0.833
12.357	0.833
12.3971	0.834
12.4372	0.844
12.4772	0.846
12.5173	0.856
12.5574	0.868
12.5975	0.874
12.6375	0.881
12.6776	0.884
12.7177	0.888
12.7578	0.888
12.7978	0.889
12.8379	0.893
12.878	0.893
12.9181	0.893
12.9581	0.891
12.9982	0.889
13.0383	0.889
13.0784	0.891
13.1184	0.891
13.1585	0.891
13.1986	0.891
13.2386	0.884
13.2787	0.884
13.3188	0.886
13.3589	0.889
13.3989	0.893
13.439	0.893
13.4791	0.894
13.5192	0.894
13.5592	0.894
13.5993	0.893
13.6394	0.893
13.6795	0.893
13.7195	0.893
13.7596	0.891
13.7997	0.889
13.8398	0.888
13.8798	0.888
13.9199	0.886
13.96	0.889
14	0.889
14.0401	0.884
14.0802	0.884
14.1203	0.881
14.1603	0.881
14.2004	0.879
14.2405	0.879
14.2806	0.879
14.3206	0.878
14.3607	0.873
14.4008	0.873
14.4409	0.871
14.4809	0.868
14.521	0.866
14.5611	0.866
14.6012	0.868
14.6412	0.864
14.6813	0.863
14.7214	0.861
14.7615	0.861
14.8015	0.859
14.8416	0.856
14.8817	0.856
14.9217	0.854
14.9618	0.853
15.0019	0.853
15.042	0.849
15.082	0.848
15.1221	0.848
15.1622	0.848
15.2023	0.844
15.2423	0.843
15.2824	0.841
15.3225	0.839
15.3626	0.833
15.4026	0.826
15.4427	0.824
15.4828	0.823
15.5229	0.821
15.5629	0.819
15.603	0.816
15.6431	0.813
15.6831	0.801
15.7232	0.801
15.7633	0.792
15.8034	0.791
15.8434	0.786
15.8835	0.782
15.9236	0.779
15.9637	0.777
