Infrared Spectrum: 2,3-Dimethylanisole
Formula: C 9 H 12 O
CAS: 2944-49-2
State: gas
Instrument: HP-GC/MS/IRD
Origin: NIST Mass Spectrometry Data Center
1/CM	ABSORBANCE
550	0.0004975
562	0.0003475
574	0.0002925
586	0.0001
598	0.00013
610	2e-05
622	9e-05
634	0.0001375
646	6.5e-05
658	0.0003825
670	0.0011425
682	0.0014575
694	0.00155
706	0.003025
718	0.0027675
730	0.00142
742	0.00118
754	0.00297
766	0.00634
778	0.00517
790	0.00213
802	0.0008975
814	0.00056
826	0.000325
838	0.00032
850	0.0003125
862	0.00053
874	0.0006775
886	0.0004525
898	0.0002825
910	0.0002425
922	0.000215
934	0.0003025
946	0.000365
958	0.000525
970	0.00087
982	0.00122
994	0.0016575
1006	0.00218
1018	0.00252
1030	0.00226
1042	0.002305
1054	0.002755
1066	0.0038125
1078	0.0060175
1090	0.0088625
1102	0.01421
1114	0.01704
1126	0.0093775
1138	0.0027275
1150	0.0018725
1162	0.0022275
1174	0.0023025
1186	0.0022075
1198	0.00191
1210	0.0015875
1222	0.0024925
1234	0.00619
1246	0.0177575
1258	0.0248725
1270	0.0122225
1282	0.00427
1294	0.00489
1306	0.0048
1318	0.00223
1330	0.0012775
1342	0.001145
1354	0.001055
1366	0.001
1378	0.001135
1390	0.0012775
1402	0.00114
1414	0.0016625
1426	0.00353
1438	0.006415
1450	0.00803
1462	0.01333
1474	0.0161625
1486	0.00907
1498	0.0034975
1510	0.00214
1522	0.0018675
1534	0.0019175
1546	0.002345
1558	0.00349
1570	0.0057425
1582	0.008225
1594	0.00773
1606	0.00396
1618	0.00179
1630	0.0009875
1642	0.0007
1654	0.0006625
1666	0.0005575
1678	0.0004925
1690	0.0004175
1702	0.00041
1714	0.00046
1726	0.000435
1738	0.0004075
1750	0.00029
1762	0.000235
1774	0.0002575
1786	0.0002775
1798	0.0003475
1810	0.0003575
1822	0.000305
1834	0.000235
1846	0.0001575
1858	0.0001525
1870	0.0001725
1882	0.0003225
1894	0.00054
1906	0.000515
1918	0.0003675
1930	0.0003225
1942	0.0002825
1954	0.0001975
1966	0.0001725
1978	0.0002175
1990	0.00019
2002	0.0001375
2014	0.0001325
2026	0.0001375
2038	0.000135
2050	0.0001225
2062	0.000165
2074	0.000165
2086	0.0001975
2098	0.0002325
2110	0.0003475
2122	0.00046
2134	0.00038
2146	0.0002125
2158	0.00015
2170	0.000125
2182	8e-05
2194	7e-05
2206	3.5e-05
2218	3.75e-05
2230	4e-05
2242	6.75e-05
2254	9.25e-05
2266	0.0001075
2278	0.0001075
2290	5.25e-05
2302	3e-05
2314	4.5e-05
2326	7e-05
2338	0.000145
2350	0.00011
2362	9.5e-05
2374	6e-05
2386	5.75e-05
2398	2e-05
2410	2.75e-05
2422	2.75e-05
2434	3.75e-05
2446	4.75e-05
2458	5.5e-05
2470	8.5e-05
2482	9e-05
2494	0.0001475
2506	0.0002175
2518	0.0001875
2530	0.00012
2542	0.00013
2554	0.0001375
2566	0.0001575
2578	7e-05
2590	6e-05
2602	4e-05
2614	5e-05
2626	3.75e-05
2638	6e-05
2650	1.75e-05
2662	4.5e-05
2674	2.25e-05
2686	6.75e-05
2698	0.0001
2710	0.0001325
2722	0.0002125
2734	0.0003175
2746	0.0003625
2758	0.00029
2770	0.0003275
2782	0.0004075
2794	0.0005275
2806	0.0008325
2818	0.001365
2830	0.002765
2842	0.0046375
2854	0.0044825
2866	0.0041875
2878	0.004545
2890	0.0048825
2902	0.0057475
2914	0.0073775
2926	0.00951
2938	0.0121575
2950	0.012
2962	0.0085425
2974	0.00627
2986	0.00585
2998	0.0063875
3010	0.0056375
3022	0.00442
3034	0.00445
3046	0.004455
3058	0.004765
3070	0.0048275
3082	0.003865
3094	0.002315
3106	0.0011325
3118	0.0006625
3130	0.00045
3142	0.00037
3154	0.0002825
3166	0.0002675
3178	0.0002025
3190	0.0001925
3202	0.000185
3214	0.0001025
3226	8.25e-05
3238	8.75e-05
3250	1.25e-05
3262	2.25e-05
3274	2.75e-05
3286	5.25e-05
3298	1.5e-05
3310	3.5e-05
3322	2e-05
3334	6.25e-05
3346	9e-05
3358	4e-05
3370	5e-05
3382	8.25e-05
3394	4.25e-05
3406	8e-05
3418	3.75e-05
3430	7.25e-05
3442	3.75e-05
3454	0.0001
3466	8e-05
3478	7.75e-05
3490	7.25e-05
3502	0.0001125
3514	0.0001275
3526	0.000115
3538	0.0001225
3550	9.75e-05
3562	0.00012
3574	0.0001025
3586	0.00016
3598	0.000115
3610	0.0001475
3622	0.0001525
3634	0.0001125
3646	0.0001425
3658	6e-05
3670	0.0001275
3682	0.0001525
3694	0.0001475
3706	0.0001175
3718	0.0001125
3730	0.00013
3742	0.0001725
3754	0.000145
3766	0.00013
3778	0.0001
3790	9e-05
3802	0.0002125
3814	0.0002025
3826	0.0001725
3838	0.00023
