Infrared Spectrum: 2-HYDROXYBENZOIC ACID, 2,4-DICHLOROPHENYL ESTER
Formula: C13 H8 Cl2 O3
CAS: 2944-59-4
State: SOLUTION (10% IN CCl4 FOR 5000-1350 CM^-^1, 10% IN CS2 FOR 1350-625 CM^-^1)
Class: COBLENTZ
Instrument: Not specified, most likely a prism, grating, or hybrid spectrometer.
Sampling: TRANSMISSION
Path length: 0.01 CM, 0.01 CM
Resolution: 4
Origin: DOW CHEMICAL COMPANY
MICROMETERS	TRANSMITTANCE
2.042	0.879
2.0811	0.878
2.1202	0.876
2.1593	0.881
2.19839	0.883
2.23749	0.883
2.27659	0.883
2.31569	0.883
2.35479	0.878
2.39389	0.878
2.43298	0.884
2.47208	0.881
2.51118	0.879
2.55028	0.878
2.58938	0.879
2.62848	0.884
2.66758	0.883
2.70667	0.881
2.74577	0.879
2.78487	0.87
2.82397	0.858
2.86307	0.839
2.90217	0.831
2.94126	0.769
2.98036	0.673
3.01946	0.493
3.05856	0.428
3.09766	0.579
3.13676	0.714
3.17586	0.775
3.21495	0.766
3.25405	0.754
3.29315	0.785
3.33225	0.832
3.37135	0.834
3.41045	0.837
3.44954	0.845
3.48864	0.849
3.52774	0.86
3.56684	0.863
3.60594	0.857
3.64504	0.868
3.68414	0.871
3.72323	0.866
3.76233	0.871
3.80143	0.871
3.84053	0.875
3.87963	0.875
3.91873	0.875
3.95782	0.876
3.99692	0.879
4.03602	0.878
4.07512	0.875
4.11422	0.879
4.15332	0.881
4.19241	0.883
4.23151	0.865
4.27061	0.86
4.30971	0.862
4.34881	0.866
4.38791	0.875
4.42701	0.883
4.4661	0.887
4.5052	0.887
4.5443	0.887
4.5834	0.884
4.6225	0.886
4.6616	0.889
4.70069	0.878
4.73979	0.871
4.77889	0.876
4.81799	0.873
4.85709	0.881
4.89619	0.886
4.93529	0.886
4.97438	0.878
5.01348	0.875
5.05258	0.881
5.09168	0.857
5.13078	0.863
5.16988	0.837
5.20897	0.866
5.24807	0.865
5.28717	0.855
5.32627	0.855
5.36537	0.866
5.40447	0.866
5.44357	0.86
5.48266	0.837
5.52176	0.842
5.56086	0.868
5.59996	0.855
5.63906	0.808
5.67816	0.746
5.71725	0.717
5.75635	0.663
5.79545	0.563
5.83455	0.222
5.87365	0.051
5.91275	0.185
5.95185	0.555
5.99094	0.667
6.03004	0.735
6.06914	0.766
6.10824	0.701
6.14734	0.472
6.18644	0.394
6.22553	0.577
6.26463	0.37
6.30373	0.212
6.34283	0.423
6.38193	0.446
6.42103	0.409
6.46013	0.423
6.49922	0.506
6.53832	0.548
6.57742	0.55
6.61652	0.509
6.65562	0.454
6.69472	0.277
6.73381	0.071
6.77291	0.073
6.81201	0.238
6.85111	0.602
6.89021	0.681
6.92931	0.678
6.96841	0.633
7.0075	0.625
7.0466	0.62
7.0857	0.553
7.1248	0.446
7.1639	0.287
7.203	0.253
7.24209	0.394
7.28119	0.548
7.32029	0.62
7.35939	0.637
7.39849	0.602
7.43759	0.491
7.47668	0.295
7.51578	0.417
7.55488	0.392
7.59398	0.313
7.63308	0.212
7.67218	0.045
7.71128	0.063
7.75037	0.188
7.78947	0.285
7.82857	0.431
7.86767	0.459
7.90677	0.417
7.94587	0.227
7.98496	0.061
8.02406	0.053
8.06316	0.142
8.10226	0.196
8.14136	0.142
8.18046	0.063
8.21956	0.048
8.25865	0.056
8.29775	0.022
8.33685	0.021
8.37595	0.102
8.41505	0.199
8.45415	0.188
8.49324	0.224
8.53234	0.422
8.57144	0.483
8.61054	0.272
8.64964	0.129
8.68874	0.41
8.72784	0.5
8.76693	0.517
8.80603	0.488
8.84513	0.297
8.88423	0.144
8.92333	0.188
8.96243	0.345
9.00152	0.49
9.04062	0.469
9.07972	0.219
9.11882	0.069
9.15792	0.371
9.19702	0.563
9.23612	0.607
9.27521	0.584
9.31431	0.461
9.35341	0.207
9.39251	0.038
9.43161	0.05
9.47071	0.128
9.5098	0.068
9.5489	0.238
9.588	0.433
9.6271	0.535
9.6662	0.477
9.7053	0.566
9.7444	0.688
9.78349	0.724
9.82259	0.751
9.86169	0.761
9.90079	0.775
9.93989	0.787
9.97899	0.803
10.0181	0.819
10.0572	0.826
10.0963	0.831
10.1354	0.832
10.1745	0.827
10.2136	0.819
10.2527	0.827
10.2918	0.834
10.3309	0.834
10.37	0.827
10.4091	0.823
10.4482	0.808
10.4873	0.771
10.5264	0.764
10.5655	0.788
10.6046	0.774
10.6437	0.779
10.6828	0.801
10.7219	0.811
10.761	0.813
10.8001	0.814
10.8392	0.814
10.8783	0.811
10.9173	0.806
10.9564	0.801
10.9955	0.795
11.0346	0.79
11.0737	0.782
11.1128	0.771
11.1519	0.762
11.191	0.748
11.2301	0.722
11.2692	0.675
11.3083	0.59
11.3474	0.428
11.3865	0.251
11.4256	0.245
11.4647	0.339
11.5038	0.284
11.5429	0.186
11.582	0.189
11.6211	0.331
11.6602	0.438
11.6993	0.498
11.7384	0.545
11.7775	0.579
11.8166	0.61
11.8557	0.642
11.8948	0.66
11.9339	0.662
11.973	0.642
12.0121	0.569
12.0512	0.464
12.0903	0.491
12.1294	0.589
12.1685	0.647
12.2076	0.662
12.2467	0.662
12.2858	0.65
12.3249	0.629
12.364	0.594
12.4031	0.545
12.4422	0.452
12.4813	0.324
12.5204	0.253
12.5595	0.368
12.5986	0.512
12.6377	0.577
12.6768	0.592
12.7159	0.623
12.755	0.657
12.7941	0.67
12.8332	0.675
12.8723	0.675
12.9114	0.667
12.9505	0.654
12.9896	0.641
13.0287	0.608
13.0678	0.553
13.1069	0.478
13.146	0.342
13.1851	0.17
13.2242	0.045
13.2633	0.03
13.3024	0.147
13.3415	0.292
13.3806	0.363
13.4196	0.358
13.4587	0.316
13.4978	0.287
13.5369	0.301
13.576	0.349
13.6151	0.42
13.6542	0.498
13.6933	0.553
13.7324	0.584
13.7715	0.595
13.8106	0.599
13.8497	0.595
13.8888	0.587
13.9279	0.576
13.967	0.561
14.0061	0.542
14.0452	0.519
14.0843	0.493
14.1234	0.459
14.1625	0.422
14.2016	0.368
14.2407	0.287
14.2798	0.215
14.3189	0.136
14.358	0.097
14.3971	0.112
14.4362	0.152
14.4753	0.199
14.5144	0.219
14.5535	0.227
14.5926	0.222
14.6317	0.212
14.6708	0.204
14.7099	0.198
14.749	0.191
14.7881	0.185
14.8272	0.176
14.8663	0.168
14.9054	0.16
14.9445	0.162
14.9836	0.185
15.0227	0.215
15.0618	0.233
15.1009	0.256
15.14	0.274
15.1791	0.284
15.2182	0.287
15.2573	0.285
15.2964	0.277
15.3355	0.267
15.3746	0.262
15.4137	0.266
15.4528	0.287
15.4919	0.303
15.531	0.313
15.5701	0.321
15.6092	0.326
15.6483	0.329
15.6874	0.331
15.7265	0.331
15.7656	0.331
15.8047	0.331
15.8438	0.327
15.8829	0.329
15.922	0.331
