Infrared Spectrum: 4-CHLOROPHENYL SALICYLATE
Formula: C13 H9 Cl O3
CAS: 2944-58-3
State: SOLUTION (10% CCl4 FOR 5000-1330, 10% CS2 FOR 1330-625 CM^-^1)
Class: COBLENTZ
Instrument: Not specified, most likely a prism, grating, or hybrid spectrometer.
Sampling: TRANSMISSION
Path length: 0.0125 CM, 0.0125 CM
Resolution: 4
Origin: DOW CHEMICAL COMPANY
MICROMETERS	TRANSMITTANCE
2.068	0.901
2.10902	0.894
2.15003	0.894
2.19105	0.899
2.23207	0.901
2.27308	0.902
2.3141	0.904
2.35512	0.906
2.39613	0.904
2.43715	0.897
2.47817	0.902
2.51918	0.904
2.5602	0.902
2.60122	0.901
2.64223	0.904
2.68325	0.904
2.72427	0.902
2.76528	0.899
2.8063	0.885
2.84732	0.865
2.88833	0.851
2.92935	0.817
2.97037	0.735
3.01138	0.6
3.0524	0.428
3.09342	0.407
3.13443	0.602
3.17545	0.747
3.21647	0.75
3.25749	0.735
3.2985	0.805
3.33952	0.86
3.38054	0.861
3.42155	0.865
3.46257	0.872
3.50359	0.882
3.5446	0.887
3.58562	0.878
3.62664	0.889
3.66765	0.894
3.70867	0.892
3.74969	0.892
3.7907	0.895
3.83172	0.901
3.87274	0.897
3.91375	0.899
3.95477	0.909
3.99579	0.909
4.0368	0.912
4.07782	0.907
4.11884	0.899
4.15985	0.89
4.20087	0.882
4.24189	0.882
4.2829	0.885
4.32392	0.887
4.36494	0.889
4.40595	0.902
4.44697	0.919
4.48799	0.923
4.529	0.919
4.57002	0.909
4.61104	0.926
4.65205	0.924
4.69307	0.906
4.73409	0.904
4.7751	0.911
4.81612	0.909
4.85714	0.902
4.89815	0.901
4.93917	0.909
4.98019	0.882
5.0212	0.911
5.06222	0.902
5.10324	0.878
5.14425	0.882
5.18527	0.892
5.22629	0.897
5.2673	0.863
5.30832	0.829
5.34934	0.889
5.39035	0.889
5.43137	0.88
5.47239	0.873
5.5134	0.872
5.55442	0.899
5.59544	0.89
5.63646	0.853
5.67747	0.778
5.71849	0.749
5.75951	0.726
5.80052	0.617
5.84154	0.331
5.88256	0.105
5.92357	0.081
5.96459	0.489
6.00561	0.631
6.04662	0.716
6.08764	0.725
6.12866	0.622
6.16967	0.331
6.21069	0.564
6.25171	0.462
6.29272	0.23
6.33374	0.44
6.37476	0.479
6.41577	0.43
6.45679	0.441
6.49781	0.518
6.53882	0.558
6.57984	0.54
6.62086	0.479
6.66187	0.346
6.70289	0.092
6.74391	0.068
6.78492	0.237
6.82594	0.455
6.86696	0.639
6.90797	0.645
6.94899	0.67
6.99001	0.651
7.03102	0.595
7.07204	0.474
7.11306	0.332
7.15407	0.281
7.19509	0.346
7.23611	0.457
7.27712	0.556
7.31814	0.58
7.35916	0.542
7.40017	0.491
7.44119	0.356
7.48221	0.151
7.52322	0.25
7.56424	0.22
7.60526	0.138
7.64627	0.051
7.68729	0.03
7.72831	0.114
7.76932	0.237
7.81034	0.441
7.85136	0.551
7.89237	0.496
7.93339	0.322
7.97441	0.085
8.01543	0.083
8.05644	0.226
8.09746	0.261
8.13848	0.196
8.17949	0.168
8.22051	0.126
8.26153	0.047
8.30254	0.02
8.34356	0.017
8.38458	0.017
8.42559	0.047
8.46661	0.146
8.50763	0.261
8.54864	0.206
8.58966	0.092
8.63068	0.063
8.67169	0.266
8.71271	0.546
8.75373	0.633
8.79474	0.616
8.83576	0.414
8.87678	0.201
8.91779	0.462
8.95881	0.563
8.99983	0.581
9.04084	0.546
9.08186	0.428
9.12288	0.247
9.16389	0.119
9.20491	0.382
9.24593	0.556
9.28694	0.583
9.32796	0.467
9.36898	0.235
9.40999	0.035
9.45101	0.075
9.49203	0.373
9.53304	0.551
9.57406	0.639
9.61508	0.66
9.65609	0.554
9.69711	0.54
9.73813	0.72
9.77914	0.68
9.82016	0.479
9.86118	0.24
9.90219	0.595
9.94321	0.75
9.98423	0.807
10.0252	0.827
10.0663	0.836
10.1073	0.843
10.1483	0.848
10.1893	0.843
10.2303	0.836
10.2713	0.848
10.3124	0.851
10.3534	0.851
10.3944	0.841
10.4354	0.822
10.4764	0.773
10.5174	0.747
10.5585	0.79
10.5995	0.815
10.6405	0.813
10.6815	0.8
10.7225	0.822
10.7635	0.848
10.8046	0.861
10.8456	0.866
10.8866	0.868
10.9276	0.868
10.9686	0.866
11.0096	0.86
11.0507	0.851
11.0917	0.839
11.1327	0.82
11.1737	0.786
11.2147	0.737
11.2557	0.648
11.2968	0.501
11.3378	0.337
11.3788	0.261
11.4198	0.401
11.4608	0.505
11.5018	0.561
11.5429	0.551
11.5839	0.493
11.6249	0.496
11.6659	0.561
11.7069	0.587
11.7479	0.595
11.789	0.607
11.83	0.638
11.871	0.677
11.912	0.699
11.953	0.708
11.994	0.709
12.0351	0.701
12.0761	0.687
12.1171	0.668
12.1581	0.646
12.1991	0.614
12.2401	0.564
12.2812	0.505
12.3222	0.44
12.3632	0.387
12.4042	0.337
12.4452	0.281
12.4862	0.199
12.5273	0.204
12.5683	0.375
12.6093	0.491
12.6503	0.561
12.6913	0.629
12.7323	0.699
12.7734	0.73
12.8144	0.749
12.8554	0.749
12.8964	0.738
12.9374	0.718
12.9784	0.696
13.0195	0.66
13.0605	0.595
13.1015	0.5
13.1425	0.344
13.1835	0.179
13.2245	0.042
13.2656	0.035
13.3066	0.16
13.3476	0.404
13.3886	0.544
13.4296	0.633
13.4706	0.692
13.5117	0.72
13.5527	0.728
13.5937	0.732
13.6347	0.721
13.6757	0.706
13.7167	0.689
13.7578	0.668
13.7988	0.656
13.8398	0.633
13.8808	0.605
13.9218	0.573
13.9629	0.54
14.0039	0.501
14.0449	0.453
14.0859	0.399
14.1269	0.336
14.1679	0.266
14.209	0.184
14.25	0.126
14.291	0.083
14.332	0.063
14.373	0.078
14.414	0.117
14.4551	0.155
14.4961	0.184
14.5371	0.199
14.5781	0.201
14.6191	0.199
14.6601	0.182
14.7012	0.16
14.7422	0.151
14.7832	0.179
14.8242	0.249
14.8652	0.31
14.9062	0.353
14.9473	0.401
14.9883	0.447
15.0293	0.488
15.0703	0.51
15.1113	0.522
15.1523	0.529
15.1934	0.534
15.2344	0.534
15.2754	0.532
15.3164	0.523
15.3574	0.518
15.3984	0.511
15.4395	0.52
15.4805	0.534
15.5215	0.551
15.5625	0.559
15.6035	0.568
15.6445	0.573
15.6856	0.576
15.7266	0.578
15.7676	0.578
15.8086	0.578
15.8496	0.578
