Infrared Spectrum: Dimethyl phenylphosphonite
Formula: C 8 H 11 O 2 P
CAS: 2946-61-4
State: gas
Origin: EPA-IR VAPOR PHASE LIBRARY
1/CM	ABSORBANCE
549.8	0.035988
559.445	0.013788
569.09	0.006088
578.734	0.003588
588.379	0.003128
598.024	0.002918
607.669	0.003218
617.313	0.003248
626.958	0.003158
636.603	0.003748
646.248	0.004858
655.893	0.007428
665.537	0.012178
675.182	0.019838
684.827	0.041348
694.472	0.088278
704.116	0.119178
713.761	0.149748
723.406	0.214178
733.051	0.245098
742.695	0.213028
752.34	0.135958
761.985	0.065218
771.63	0.027528
781.275	0.015658
790.919	0.010378
800.564	0.007248
810.209	0.005478
819.854	0.004418
829.498	0.003998
839.143	0.004168
848.788	0.004048
858.433	0.004358
868.078	0.004368
877.722	0.004278
887.367	0.003888
897.012	0.003848
906.657	0.004498
916.301	0.005838
925.946	0.006728
935.591	0.007798
945.236	0.008718
954.88	0.010088
964.525	0.013348
974.17	0.018168
983.815	0.028368
993.46	0.055528
1003.1	0.098768
1012.75	0.185068
1022.39	0.318678
1032.04	0.367418
1041.68	0.346318
1051.33	0.362698
1060.97	0.290538
1070.62	0.150048
1080.26	0.078388
1089.91	0.069688
1099.55	0.078288
1109.2	0.061438
1118.84	0.034958
1128.49	0.025108
1138.13	0.021618
1147.78	0.020668
1157.42	0.022978
1167.07	0.027068
1176.71	0.032958
1186.36	0.028878
1196	0.018698
1205.64	0.014898
1215.29	0.011478
1224.93	0.009348
1234.58	0.007888
1244.22	0.006348
1253.87	0.006068
1263.51	0.006198
1273.16	0.005538
1282.8	0.005978
1292.45	0.006868
1302.09	0.007848
1311.74	0.006918
1321.38	0.006548
1331.03	0.006058
1340.67	0.005068
1350.32	0.004578
1359.96	0.005218
1369.61	0.005958
1379.25	0.006208
1388.9	0.006618
1398.54	0.007438
1408.18	0.008548
1417.83	0.012078
1427.47	0.021198
1437.12	0.027618
1446.76	0.022258
1456.41	0.016878
1466.05	0.015628
1475.7	0.016768
1485.34	0.015548
1494.99	0.010588
1504.63	0.007608
1514.28	0.006778
1523.92	0.006398
1533.57	0.006478
1543.21	0.006468
1552.86	0.005668
1562.5	0.005368
1572.15	0.005178
1581.79	0.004908
1591.44	0.004458
1601.08	0.003988
1610.73	0.003218
1620.37	0.002798
1630.01	0.002278
1639.66	0.002118
1649.3	0.002598
1658.95	0.003358
1668.59	0.003048
1678.24	0.002048
1687.88	0.001788
1697.53	0.001738
1707.17	0.002018
1716.82	0.002698
1726.46	0.003318
1736.11	0.004228
1745.75	0.004998
1755.4	0.005418
1765.04	0.005638
1774.69	0.005588
1784.33	0.005338
1793.98	0.005778
1803.62	0.007208
1813.27	0.006788
1822.91	0.004568
1832.55	0.003058
1842.2	0.002288
1851.84	0.001928
1861.49	0.002168
1871.13	0.003078
1880.78	0.004238
1890.42	0.004908
1900.07	0.003928
1909.71	0.002518
1919.36	0.002038
1929	0.002228
1938.65	0.003128
1948.29	0.004408
1957.94	0.004538
1967.58	0.003398
1977.23	0.001668
1986.87	0.001328
1996.52	0.001608
2006.16	0.001658
2015.81	0.002238
2025.45	0.002618
2035.1	0.003418
2044.74	0.003628
2054.38	0.003598
2064.03	0.003838
2073.67	0.003788
2083.32	0.003238
2092.96	0.002758
2102.61	0.002298
2112.25	0.001598
2121.9	0.0011923
2131.54	0.0010512
2141.19	0.0007862
2150.83	0.0008313
2160.48	0.0008254
2170.12	0.0010037
2179.77	0.0009745
2189.41	0.0009818
2199.06	0.0009258
2208.7	0.000866
2218.35	0.0007493
2227.99	0.0006112
2237.64	0.0006786
2247.28	0.000622
2256.92	0.0005073
2266.57	0.0004322
2276.21	0.000559
2285.86	0.0006477
2295.5	0.0005555
2305.15	0.0007904
2314.79	0.0011863
2324.44	0.0009744
2334.08	0.0006675
2343.73	0.0006381
2353.37	0.0007686
2363.02	0.0004472
2372.66	0.00039265
2382.31	0.00039188
2391.95	0.000318285
2401.6	0.00037106
2411.24	0.0003695
2420.89	0.0003008
2430.53	0.000307
2440.18	0.00033657
2449.82	0.0002816
2459.47	0.00041336
2469.11	0.0002706
2478.75	0.00030962
2488.4	0.00038578
2498.04	0.0006017
2507.69	0.00031682
2517.33	0.0004255
2526.98	0.00038863
2536.62	0.0005512
2546.27	0.0004587
2555.91	0.0004827
2565.56	0.0007362
2575.2	0.001068
2584.85	0.001388
2594.49	0.001408
2604.14	0.0012949
2613.78	0.001488
2623.43	0.001508
2633.07	0.001438
2642.72	0.0011676
2652.36	0.0010537
2662.01	0.0008487
2671.65	0.0010977
2681.29	0.001358
2690.94	0.0012155
2700.58	0.001196
2710.23	0.0007267
2719.87	0.0008783
2729.52	0.000802
2739.16	0.0012653
2748.81	0.0012555
2758.45	0.001558
2768.1	0.001898
2777.74	0.002838
2787.39	0.003598
2797.03	0.004978
2806.68	0.007818
2816.32	0.013138
2825.97	0.029008
2835.61	0.062698
2845.26	0.057378
2854.9	0.024118
2864.55	0.016908
2874.19	0.017638
2883.84	0.021168
2893.48	0.028408
2903.12	0.037798
2912.77	0.042738
2922.41	0.048228
2932.06	0.072948
2941.7	0.108418
2951.35	0.094798
2960.99	0.058118
2970.64	0.047708
2980.28	0.047078
2989.93	0.045978
2999.57	0.043858
3009.22	0.040968
3018.86	0.037218
3028.51	0.031888
3038.15	0.029928
3047.8	0.035268
3057.44	0.058138
3067.09	0.069068
3076.73	0.051438
3086.38	0.036218
3096.02	0.019328
3105.67	0.009678
3115.31	0.006458
3124.95	0.004828
3134.6	0.004218
3144.24	0.004038
3153.89	0.003068
3163.53	0.001698
3173.18	0.001438
3182.82	0.001418
3192.47	0.0010571
3202.11	0.0007548
3211.76	0.0007267
3221.4	0.001009
3231.05	0.0006237
3240.69	0.0006143
3250.34	0.000396
3259.98	0.0007113
3269.63	0.0006785
3279.27	0.0003937
3288.92	0.0004641
3298.56	0.0005044
3308.21	0.0005228
3317.85	0.000178
3327.49	0.00037714
3337.14	0.0004521
3346.78	0.000136
3356.43	0.0004735
3366.07	0.000168
3375.72	0.0004679
3385.36	0.00035604
3395.01	0.00037096
3404.65	0.0005302
3414.3	0.00036197
3423.94	9.8e-05
3433.59	0.00037316
3443.23	0.0005097
3452.88	0.000137
3462.52	0.0004686
3472.17	0.000169
3481.81	0.000108
3491.46	0.000183
3501.1	0.0002974
3510.75	0.00040803
3520.39	0.00039906
3530.04	0.0002713
3539.68	0.00040002
3549.32	0.0005876
3558.97	0.000116
3568.61	3.4e-05
3578.26	0.00041464
3587.9	0.000303
3597.55	0.00039114
3607.19	0.0002785
3616.84	0.00034998
3626.48	0.0006706
3636.13	0.0005111
3645.77	9e-05
3655.42	0.00035469
3665.06	0.00040044
3674.71	0.000320196
3684.35	0.0006056
3694	0.0007472
3703.64	0.0007584
3713.29	0.0006903
3722.93	0.0005304
3732.58	0.000182
3742.22	0.0004438
3751.86	0.0005685
3761.51	0.00040097
3771.15	0.0007249
3780.8	0.0004218
3790.44	0.0004981
3800.09	0.00032917
3809.73	0.0005905
3819.38	0.0005591
3829.02	0.00039185
3838.67	0.0005381
3848.31	0.0007137
3857.96	0.0008461
3867.6	0.0011048
3877.25	0.0010201
3886.89	0.00083
3896.54	0.0007621
3906.18	0.0006175
3915.83	0.0009067
3925.47	0.0007101
3935.12	0.0010117
3944.76	0.0011123
3954.41	0.0012018
3964.05	0.001538
3973.69	0.001768
3983.34	0.001898
3992.98	0.001788
