Infrared Spectrum: 4-Methylphenylacetonitrile
Formula: C 9 H 9 N
CAS: 2947-61-7
State: gas
Origin: EPA-IR VAPOR PHASE LIBRARY
1/CM	ABSORBANCE
549.8	0.001462
559.445	0.001332
569.09	0.001852
578.734	0.001322
588.379	0.0011031
598.024	0.0006343
607.669	0.0004598
617.313	0.0004953
626.958	0.0006143
636.603	0.0004788
646.248	0.0005752
655.893	0.0005168
665.537	0.0005994
675.182	0.0005648
684.827	0.0010117
694.472	0.001162
704.116	0.001352
713.761	0.0010892
723.406	0.001592
733.051	0.002342
742.695	0.003402
752.34	0.004772
761.985	0.006202
771.63	0.007752
781.275	0.011182
790.919	0.017012
800.564	0.016812
810.209	0.012142
819.854	0.006892
829.498	0.003922
839.143	0.002542
848.788	0.001662
858.433	0.001132
868.078	0.0008419
877.722	0.0010743
887.367	0.001172
897.012	0.001212
906.657	0.001462
916.301	0.001282
925.946	0.001452
935.591	0.001852
945.236	0.001582
954.88	0.001322
964.525	0.001362
974.17	0.0010307
983.815	0.000772
993.46	0.0008588
1003.1	0.0007902
1012.75	0.002722
1022.39	0.004212
1032.04	0.002112
1041.68	0.001622
1051.33	0.001622
1060.97	0.001452
1070.62	0.0008649
1080.26	0.001362
1089.91	0.0011226
1099.55	0.002232
1109.2	0.002282
1118.84	0.003122
1128.49	0.003042
1138.13	0.001652
1147.78	0.0008937
1157.42	0.0006812
1167.07	0.0010034
1176.71	0.0010161
1186.36	0.002032
1196	0.001632
1205.64	0.002212
1215.29	0.002112
1224.93	0.002002
1234.58	0.002652
1244.22	0.002082
1253.87	0.001502
1263.51	0.001532
1273.16	0.001522
1282.8	0.001472
1292.45	0.001862
1302.09	0.002102
1311.74	0.001762
1321.38	0.001612
1331.03	0.001612
1340.67	0.001532
1350.32	0.001342
1359.96	0.001332
1369.61	0.001442
1379.25	0.001972
1388.9	0.002532
1398.54	0.003012
1408.18	0.004952
1417.83	0.008232
1427.47	0.010272
1437.12	0.007952
1446.76	0.004742
1456.41	0.003662
1466.05	0.003242
1475.7	0.003182
1485.34	0.003662
1494.99	0.005642
1504.63	0.012492
1514.28	0.022582
1523.92	0.017152
1533.57	0.004242
1543.21	0.002592
1552.86	0.001942
1562.5	0.001642
1572.15	0.001422
1581.79	0.001492
1591.44	0.001422
1601.08	0.001322
1610.73	0.001792
1620.37	0.002002
1630.01	0.001812
1639.66	0.001462
1649.3	0.0010699
1658.95	0.0007568
1668.59	0.0006411
1678.24	0.0004677
1687.88	0.000543
1697.53	0.0006019
1707.17	0.0005111
1716.82	0.0005957
1726.46	0.0005791
1736.11	0.0006937
1745.75	0.0007575
1755.4	0.0008063
1765.04	0.0008887
1774.69	0.001202
1784.33	0.001732
1793.98	0.001352
1803.62	0.0007205
1813.27	0.0005316
1822.91	0.0004819
1832.55	0.0005572
1842.2	0.0006114
1851.84	0.0007647
1861.49	0.0010058
1871.13	0.001232
1880.78	0.001462
1890.42	0.001532
1900.07	0.001752
1909.71	0.001542
1919.36	0.001142
1929	0.0007445
1938.65	0.0004739
1948.29	0.0004387
1957.94	0.0003718
1967.58	0.0003505
1977.23	0.0004112
1986.87	0.0003513
1996.52	0.0002672
2006.16	0.0003701
2015.81	0.0003367
2025.45	0.0003395
2035.1	0.000288
2044.74	0.0003169
2054.38	0.0003391
2064.03	0.0002847
2073.67	0.0002417
2083.32	0.0003012
2092.96	0.0002966
2102.61	0.0002845
2112.25	0.0004211
2121.9	0.0003281
2131.54	0.000397
2141.19	0.0003068
2150.83	0.0003026
2160.48	0.0003359
2170.12	0.0002802
2179.77	0.000284
2189.41	0.00021557
2199.06	0.0003124
2208.7	0.0004022
2218.35	0.0003214
2227.99	0.0004363
2237.64	0.0006374
2247.28	0.001162
2256.92	0.001562
2266.57	0.001132
2276.21	0.0005978
2285.86	0.0004907
2295.5	0.0004547
2305.15	0.0005579
2314.79	0.0006064
2324.44	0.0006067
2334.08	0.0006483
2343.73	0.0005413
2353.37	0.0004896
2363.02	0.0004845
2372.66	0.0004185
2382.31	0.0004363
2391.95	0.0004452
2401.6	0.0003625
2411.24	0.000464
2420.89	0.000436
2430.53	0.0003458
2440.18	0.0003198
2449.82	0.0003463
2459.47	0.0003726
2469.11	0.0003092
2478.75	0.0002966
2488.4	0.0003832
2498.04	0.0002846
2507.69	0.0003438
2517.33	0.0002715
2526.98	0.0003352
2536.62	0.0004729
2546.27	0.0002481
2555.91	0.000469
2565.56	0.0003577
2575.2	0.0006294
2584.85	0.0005974
2594.49	0.0006679
2604.14	0.0006645
2613.78	0.000476
2623.43	0.0004533
2633.07	0.0004855
2642.72	0.0004249
2652.36	0.0003948
2662.01	0.0003498
2671.65	0.0002578
2681.29	0.00021435
2690.94	0.000284
2700.58	0.0003139
2710.23	0.0004826
2719.87	0.0005687
2729.52	0.0006856
2739.16	0.0008458
2748.81	0.0009527
2758.45	0.0006053
2768.1	0.0003812
2777.74	0.0003103
2787.39	0.0005304
2797.03	0.0007764
2806.68	0.0007847
2816.32	0.001142
2825.97	0.001442
2835.61	0.001862
2845.26	0.002392
2854.9	0.002902
2864.55	0.004462
2874.19	0.006332
2883.84	0.006972
2893.48	0.006402
2903.12	0.006402
2912.77	0.007852
2922.41	0.012352
2932.06	0.017382
2941.7	0.015282
2951.35	0.008932
2960.99	0.006072
2970.64	0.005222
2980.28	0.005722
2989.93	0.007222
2999.57	0.009012
3009.22	0.011062
3018.86	0.013772
3028.51	0.017762
3038.15	0.016442
3047.8	0.012042
3057.44	0.011192
3067.09	0.009292
3076.73	0.006392
3086.38	0.004472
3096.02	0.003592
3105.67	0.002882
3115.31	0.002092
3124.95	0.001712
3134.6	0.001432
3144.24	0.001182
3153.89	0.0005798
3163.53	0.0007107
3173.18	0.0004624
3182.82	0.0005203
3192.47	0.0005639
3202.11	0.0005577
3211.76	0.0003846
3221.4	0.0003395
3231.05	0.0003559
3240.69	0.0002538
3250.34	0.0001078
3259.98	0.00019679
3269.63	0.0004145
3279.27	0.0002991
3288.92	0.00023001
3298.56	0.00016123
3308.21	0.0002534
3317.85	0.00016996
3327.49	0.000244
3337.14	0.0003304
3346.78	0.00015382
3356.43	0
3366.07	0.0002826
3375.72	0.00012873
3385.36	0.0005146
3395.01	0.0002489
3404.65	0.0003304
3414.3	0.0003004
3423.94	0.00021297
3433.59	0.00018755
3443.23	0.00016958
3452.88	0.0004822
3462.52	0.0004091
3472.17	0.0002543
3481.81	0.0003558
3491.46	0.0002597
3501.1	0.0004016
3510.75	0.0003398
3520.39	0.0004734
3530.04	0.0004516
3539.68	0.0003464
3549.32	0.00022826
3558.97	0.00019431
3568.61	0.00021662
3578.26	0.00015454
3587.9	0.0003215
3597.55	0.0002338
3607.19	0.000136875
3616.84	0.0002888
3626.48	0.0002421
3636.13	0.000483
3645.77	0.000312
3655.42	0.0003656
3665.06	0.0004046
3674.71	0.0003331
3684.35	0.0003161
3694	0.000329
3703.64	0.0003131
3713.29	0.000335
3722.93	0.0003528
3732.58	0.0001031
3742.22	0.0002726
3751.86	0.0003989
3761.51	0.00019902
3771.15	0.0004122
3780.8	0.0003959
3790.44	0.000406
3800.09	0.0005348
3809.73	0.0002998
3819.38	0.00022556
3829.02	0.0003362
3838.67	0.000398
3848.31	0.0004696
3857.96	0.0003184
3867.6	0.0003435
3877.25	0.0003286
3886.89	0.0007024
3896.54	0.0002745
3906.18	0.0004899
3915.83	0.0004714
3925.47	0.0002911
3935.12	0.0003263
3944.76	0.0004311
3954.41	0.0002508
3964.05	0.0003598
3973.69	0.0003379
3983.34	0.0003424
3992.98	0.0003681
