Infrared Spectrum: 3-Methylbenzylcyanide
Formula: C 9 H 9 N
CAS: 2947-60-6
State: gas
Origin: EPA-IR VAPOR PHASE LIBRARY
1/CM	ABSORBANCE
549.8	0.0005469
559.445	0.0006536
569.09	0.0003962
578.734	0.0004489
588.379	0.0006439
598.024	0.000572
607.669	0.000868
617.313	0.0019701
626.958	0.0020901
636.603	0.0012801
646.248	0.0011701
655.893	0.0018801
665.537	0.0032901
675.182	0.0077301
684.827	0.0144301
694.472	0.0187901
704.116	0.0136101
713.761	0.0091901
723.406	0.0081301
733.051	0.0097201
742.695	0.0139501
752.34	0.0211601
761.985	0.0277701
771.63	0.0320401
781.275	0.0261301
790.919	0.0143201
800.564	0.0060101
810.209	0.0027601
819.854	0.0015001
829.498	0.0012601
839.143	0.0015701
848.788	0.0021001
858.433	0.0035601
868.078	0.0052601
877.722	0.0050101
887.367	0.0040101
897.012	0.0025401
906.657	0.0023101
916.301	0.0025301
925.946	0.0026601
935.591	0.0026801
945.236	0.0025101
954.88	0.0019601
964.525	0.0013401
974.17	0.0010497
983.815	0.0014801
993.46	0.0018401
1003.1	0.0017901
1012.75	0.0010701
1022.39	0.0008819
1032.04	0.0013101
1041.68	0.0016801
1051.33	0.0022401
1060.97	0.0022601
1070.62	0.0021301
1080.26	0.0033701
1089.91	0.0046201
1099.55	0.0041101
1109.2	0.0021901
1118.84	0.0016301
1128.49	0.0015301
1138.13	0.0012301
1147.78	0.0015601
1157.42	0.0017401
1167.07	0.0018101
1176.71	0.0018601
1186.36	0.0020401
1196	0.0022201
1205.64	0.0021001
1215.29	0.0024501
1224.93	0.0032301
1234.58	0.0031801
1244.22	0.0030201
1253.87	0.0025801
1263.51	0.0027601
1273.16	0.0029501
1282.8	0.0031101
1292.45	0.0035301
1302.09	0.0036601
1311.74	0.0034001
1321.38	0.0027501
1331.03	0.0021501
1340.67	0.0019401
1350.32	0.0020801
1359.96	0.0026201
1369.61	0.0033301
1379.25	0.0047501
1388.9	0.0057301
1398.54	0.0057701
1408.18	0.0073201
1417.83	0.0121901
1427.47	0.0167101
1437.12	0.0168901
1446.76	0.0143301
1456.41	0.0120401
1466.05	0.0106001
1475.7	0.0125501
1485.34	0.0183001
1494.99	0.0199501
1504.63	0.0143201
1514.28	0.0086301
1523.92	0.0076101
1533.57	0.0068301
1543.21	0.0058001
1552.86	0.0048401
1562.5	0.0048301
1572.15	0.0060901
1581.79	0.0088101
1591.44	0.0127001
1601.08	0.0214501
1610.73	0.0266301
1620.37	0.0173701
1630.01	0.0056201
1639.66	0.0025501
1649.3	0.0019601
1658.95	0.0019001
1668.59	0.0017101
1678.24	0.0014301
1687.88	0.0013301
1697.53	0.0014101
1707.17	0.0013901
1716.82	0.0014701
1726.46	0.0016901
1736.11	0.0020101
1745.75	0.0020801
1755.4	0.0020301
1765.04	0.0018701
1774.69	0.0018301
1784.33	0.0017101
1793.98	0.0016201
1803.62	0.0016201
1813.27	0.0016101
1822.91	0.0016901
1832.55	0.0018401
1842.2	0.0023501
1851.84	0.0026101
1861.49	0.0022301
1871.13	0.0015401
1880.78	0.0012001
1890.42	0.0011401
1900.07	0.0011801
1909.71	0.0013101
1919.36	0.0016901
1929	0.0022201
1938.65	0.0023101
1948.29	0.0016001
1957.94	0.0008384
1967.58	0.0005344
1977.23	0.0004767
1986.87	0.0004131
1996.52	0.0003482
2006.16	0.0004021
2015.81	0.0003682
2025.45	0.0004033
2035.1	0.0003585
2044.74	0.0004029
2054.38	0.0003766
2064.03	0.0003621
2073.67	0.0003957
2083.32	0.0003729
2092.96	0.000436
2102.61	0.0004528
2112.25	0.0004686
2121.9	0.0004692
2131.54	0.0004341
2141.19	0.0004619
2150.83	0.000387
2160.48	0.0003541
2170.12	0.0003504
2179.77	0.0003475
2189.41	0.000375
2199.06	0.0003869
2208.7	0.0004168
2218.35	0.0004348
2227.99	0.0006204
2237.64	0.0011501
2247.28	0.0020201
2256.92	0.0025301
2266.57	0.0020101
2276.21	0.0011401
2285.86	0.0008354
2295.5	0.0007309
2305.15	0.0007731
2314.79	0.0007511
2324.44	0.0008016
2334.08	0.0008913
2343.73	0.0009665
2353.37	0.0009503
2363.02	0.0008281
2372.66	0.000773
2382.31	0.0005996
2391.95	0.0005843
2401.6	0.0006052
2411.24	0.0005908
2420.89	0.0006919
2430.53	0.000587
2440.18	0.0005629
2449.82	0.0005551
2459.47	0.0005501
2469.11	0.0005509
2478.75	0.0005537
2488.4	0.0005755
2498.04	0.0006184
2507.69	0.0005179
2517.33	0.0004925
2526.98	0.0005758
2536.62	0.0005145
2546.27	0.000542
2555.91	0.000542
2565.56	0.0005459
2575.2	0.0007025
2584.85	0.0008287
2594.49	0.0008814
2604.14	0.0008153
2613.78	0.0007859
2623.43	0.0006258
2633.07	0.0005409
2642.72	0.0004419
2652.36	0.0004716
2662.01	0.0004417
2671.65	0.0004252
2681.29	0.0004163
2690.94	0.0004402
2700.58	0.0004605
2710.23	0.0005786
2719.87	0.0007893
2729.52	0.000974
2739.16	0.0014901
2748.81	0.0015901
2758.45	0.0010701
2768.1	0.0007724
2777.74	0.0007212
2787.39	0.0007676
2797.03	0.0009139
2806.68	0.0012001
2816.32	0.0016601
2825.97	0.0023701
2835.61	0.0032401
2845.26	0.0040401
2854.9	0.0052901
2864.55	0.0076601
2874.19	0.0102201
2883.84	0.0107501
2893.48	0.0101801
2903.12	0.0117101
2912.77	0.0154601
2922.41	0.0229301
2932.06	0.0286701
2941.7	0.0252501
2951.35	0.0167401
2960.99	0.0117401
2970.64	0.0092701
2980.28	0.0084901
2989.93	0.0093001
2999.57	0.0113601
3009.22	0.0152601
3018.86	0.0209201
3028.51	0.0283101
3038.15	0.0313501
3047.8	0.0262501
3057.44	0.0228401
3067.09	0.0213901
3076.73	0.0170401
3086.38	0.0101501
3096.02	0.0067201
3105.67	0.0054201
3115.31	0.0043201
3124.95	0.0027601
3134.6	0.0015201
3144.24	0.0009497
3153.89	0.0009063
3163.53	0.0008023
3173.18	0.0008403
3182.82	0.0008401
3192.47	0.0009841
3202.11	0.0009381
3211.76	0.0007788
3221.4	0.0005027
3231.05	0.0004632
3240.69	0.0004451
3250.34	0.0003875
3259.98	0.0003325
3269.63	0.0003078
3279.27	0.0001965
3288.92	0.0002903
3298.56	0.0003039
3308.21	0.0002361
3317.85	0.000308
3327.49	0.0002433
3337.14	0.0003197
3346.78	0.0002432
3356.43	0.0003691
3366.07	0.0002379
3375.72	0.0003049
3385.36	0.0003611
3395.01	0.0003441
3404.65	0.0002511
3414.3	0.000252
3423.94	0.0002721
3433.59	0.00015839
3443.23	0.0002633
3452.88	0.0003455
3462.52	0.0002785
3472.17	0.0001859
3481.81	0.000292
3491.46	0.0002891
3501.1	0.00012806
3510.75	0.0001848
3520.39	0.0003424
3530.04	0.0002357
3539.68	0.0002754
3549.32	0.0003253
3558.97	0.0005721
3568.61	0.0003361
3578.26	0.0004304
3587.9	0.0004154
3597.55	0.0003835
3607.19	0.000225
3616.84	0.0003072
3626.48	0.0002624
3636.13	0.0001833
3645.77	0.000308
3655.42	0.0002371
3665.06	0.000344
3674.71	0.0002421
3684.35	0.0003869
3694	0.000269
3703.64	0.0002365
3713.29	0.0002146
3722.93	0.0003073
3732.58	0.0001711
3742.22	0.0002583
3751.86	0.0002858
3761.51	0.0002542
3771.15	0.0003746
3780.8	0.0003356
3790.44	0.000192
3800.09	0.000386
3809.73	0.0004076
3819.38	0.0003635
3829.02	0.0003901
3838.67	0.0004057
3848.31	0.0004302
3857.96	0.0004126
3867.6	0.0004643
3877.25	0.0004235
3886.89	0.000571
3896.54	0.000453
3906.18	0.0003154
3915.83	0.0003489
3925.47	0.0003935
3935.12	0.0004386
3944.76	0.0004102
3954.41	0.0003859
3964.05	0.0003657
3973.69	0.0003674
3983.34	0.000488
3992.98	0.0004825
