Infrared Spectrum: .alpha.,.alpha.,.alpha.',.alpha.'-Tetramethyl-1,4-benzenedimethanol
Formula: C 12 H 18 O 2
CAS: 2948-46-1
State: gas
Origin: EPA-IR VAPOR PHASE LIBRARY
1/CM	ABSORBANCE
549.8	0.00286
559.445	0.00333
569.09	0.00595
578.734	0.01188
588.379	0.01612
598.024	0.00979
607.669	0.00472
617.313	0.00345
626.958	0.00415
636.603	0.00347
646.248	0.00219
655.893	0.00149
665.537	0.00101
675.182	0.00122
684.827	0.00152
694.472	0.0013
704.116	0.00102
713.761	0.0009002
723.406	0.0008821
733.051	0.00116
742.695	0.00151
752.34	0.00165
761.985	0.00122
771.63	0.0012
781.275	0.00149
790.919	0.00177
800.564	0.00285
810.209	0.00448
819.854	0.00795
829.498	0.01434
839.143	0.0184
848.788	0.01808
858.433	0.01489
868.078	0.01053
877.722	0.00643
887.367	0.00381
897.012	0.00325
906.657	0.00374
916.301	0.00481
925.946	0.0082
935.591	0.01505
945.236	0.02392
954.88	0.02174
964.525	0.01122
974.17	0.00556
983.815	0.00355
993.46	0.00332
1003.1	0.00497
1012.75	0.01245
1022.39	0.00845
1032.04	0.00408
1041.68	0.00376
1051.33	0.00371
1060.97	0.0055
1070.62	0.00794
1080.26	0.01333
1089.91	0.01862
1099.55	0.02769
1109.2	0.03646
1118.84	0.03372
1128.49	0.02289
1138.13	0.0188
1147.78	0.02108
1157.42	0.02961
1167.07	0.03599
1176.71	0.02686
1186.36	0.01436
1196	0.0099
1205.64	0.00839
1215.29	0.0095
1224.93	0.01132
1234.58	0.01302
1244.22	0.01717
1253.87	0.02334
1263.51	0.0252
1273.16	0.02228
1282.8	0.0207
1292.45	0.02029
1302.09	0.02275
1311.74	0.02648
1321.38	0.02582
1331.03	0.01998
1340.67	0.01553
1350.32	0.01509
1359.96	0.01951
1369.61	0.02285
1379.25	0.02032
1388.9	0.01895
1398.54	0.01734
1408.18	0.01354
1417.83	0.00807
1427.47	0.0057
1437.12	0.00556
1446.76	0.00633
1456.41	0.00802
1466.05	0.0081
1475.7	0.00615
1485.34	0.00483
1494.99	0.0059
1504.63	0.00897
1514.28	0.00775
1523.92	0.00328
1533.57	0.00224
1543.21	0.00159
1552.86	0.00108
1562.5	0.0008327
1572.15	0.0006863
1581.79	0.0006108
1591.44	0.0008306
1601.08	0.0007348
1610.73	0.0006781
1620.37	0.0007374
1630.01	0.0007557
1639.66	0.0008888
1649.3	0.00113
1658.95	0.00112
1668.59	0.00121
1678.24	0.0009533
1687.88	0.0007192
1697.53	0.0006185
1707.17	0.000445
1716.82	0.0004746
1726.46	0.0004298
1736.11	0.0003706
1745.75	0.0003843
1755.4	0.0005824
1765.04	0.0008185
1774.69	0.00101
1784.33	0.00139
1793.98	0.00141
1803.62	0.00105
1813.27	0.0007822
1822.91	0.0004035
1832.55	0.0002859
1842.2	0.0002042
1851.84	0.0001754
1861.49	0.000291
1871.13	0.0004664
1880.78	0.0006628
1890.42	0.0008004
1900.07	0.00103
1909.71	0.00115
1919.36	0.0008348
1929	0.0006492
1938.65	0.0004666
1948.29	0.0002559
1957.94	0.0001559
1967.58	0.0001807
1977.23	0.0001666
1986.87	8.182e-05
1996.52	0.0001068
2006.16	0.0001766
2015.81	0.0001695
2025.45	0.0001549
2035.1	0.0002385
2044.74	0.0001549
2054.38	0.0001658
2064.03	0.0001211
2073.67	2.463e-06
2083.32	0.0001202
2092.96	0.0001057
2102.61	0.0001975
2112.25	0.0002458
2121.9	0.0002047
2131.54	0.0001629
2141.19	0.0001824
2150.83	7.505e-05
2160.48	6.07e-05
2170.12	0.000144
2179.77	0.0001207
2189.41	0.0002053
2199.06	0.0002384
2208.7	0.0002418
2218.35	0.0002267
2227.99	0.0002845
2237.64	0.0002672
2247.28	0.0001681
2256.92	0.0001645
2266.57	0.0001925
2276.21	9.391e-05
2285.86	0.0002829
2295.5	0.000309
2305.15	0.0003862
2314.79	0.0003735
2324.44	0.0003329
2334.08	0.0002109
2343.73	0.0001824
2353.37	0.0002549
2363.02	0.0002993
2372.66	0.0002818
2382.31	0.0003198
2391.95	0.0002842
2401.6	0.000311
2411.24	0.0003226
2420.89	0.0003097
2430.53	0.0002003
2440.18	0.0002412
2449.82	0.0001854
2459.47	0.0001081
2469.11	0.0002441
2478.75	0.0002409
2488.4	0.0002552
2498.04	0.0002534
2507.69	0.0002203
2517.33	0.0002494
2526.98	0.0001766
2536.62	0.0002843
2546.27	0.0002666
2555.91	0.0002238
2565.56	0.0004444
2575.2	0.0001765
2584.85	0.0002397
2594.49	0.000289
2604.14	0.00037
2613.78	0.0002707
2623.43	0.0003735
2633.07	0.0004144
2642.72	0.0003644
2652.36	0.0003333
2662.01	0.000327
2671.65	0.0003564
2681.29	0.0004564
2690.94	0.000302
2700.58	0.0004753
2710.23	0.0006104
2719.87	0.0007003
2729.52	0.0007863
2739.16	0.0006979
2748.81	0.000718
2758.45	0.000686
2768.1	0.0006738
2777.74	0.0007488
2787.39	0.0008389
2797.03	0.00107
2806.68	0.00142
2816.32	0.00163
2825.97	0.00177
2835.61	0.00201
2845.26	0.00272
2854.9	0.00425
2864.55	0.00673
2874.19	0.00969
2883.84	0.01055
2893.48	0.01057
2903.12	0.01227
2912.77	0.01431
2922.41	0.01754
2932.06	0.02373
2941.7	0.0258
2951.35	0.01931
2960.99	0.0231
2970.64	0.05143
2980.28	0.08671
2989.93	0.05519
2999.57	0.02106
3009.22	0.00959
3018.86	0.00618
3028.51	0.00674
3038.15	0.00843
3047.8	0.00713
3057.44	0.00589
3067.09	0.0055
3076.73	0.00551
3086.38	0.0061
3096.02	0.00546
3105.67	0.00366
3115.31	0.00253
3124.95	0.00192
3134.6	0.00136
3144.24	0.00107
3153.89	0.0009596
3163.53	0.0007249
3173.18	0.0008911
3182.82	0.0008772
3192.47	0.00101
3202.11	0.0009518
3211.76	0.00101
3221.4	0.0009686
3231.05	0.0009607
3240.69	0.0008352
3250.34	0.0006922
3259.98	0.000516
3269.63	0.0005141
3279.27	0.0005739
3288.92	0.0004701
3298.56	0.0005326
3308.21	0.0004287
3317.85	0.0004244
3327.49	0.0005479
3337.14	0.0006371
3346.78	0.0006267
3356.43	0.0006134
3366.07	0.0005967
3375.72	0.0006212
3385.36	0.000732
3395.01	0.0005811
3404.65	0.0006247
3414.3	0.0006386
3423.94	0.0005806
3433.59	0.0005572
3443.23	0.0006743
3452.88	0.0005655
3462.52	0.0005999
3472.17	0.0006237
3481.81	0.000376
3491.46	0.0003769
3501.1	0.0005045
3510.75	0.000416
3520.39	0.0002042
3530.04	0.0004168
3539.68	0.0002901
3549.32	0.0002652
3558.97	0.0005401
3568.61	0.0005499
3578.26	0.0003977
3587.9	0.0008242
3597.55	0.0008803
3607.19	0.00146
3616.84	0.00303
3626.48	0.00639
3636.13	0.01014
3645.77	0.00936
3655.42	0.00473
3665.06	0.00193
3674.71	0.00131
3684.35	0.0007102
3694	0.0006204
3703.64	0.0005097
3713.29	0.0004823
3722.93	0.0005906
3732.58	0.0005304
3742.22	0.0005941
3751.86	0.0004887
3761.51	0.0004439
3771.15	0.0003607
3780.8	0.0002522
3790.44	0.000274
3800.09	0.0005583
3809.73	0.0001871
3819.38	0.0005268
3829.02	0.0005863
3838.67	0.0008815
3848.31	0.000625
3857.96	0.0005266
3867.6	0.000744
3877.25	0.0006001
3886.89	0.0007057
3896.54	0.0006335
3906.18	0.0007002
3915.83	0.000613
3925.47	0.0006979
3935.12	0.0005467
3944.76	0.0002908
3954.41	0.0004095
3964.05	0.0003083
3973.69	0.0004567
3983.34	0.0005275
3992.98	0.0004856
