Infrared Spectrum: Acetic acid, isocyanato-, ethyl ester
Formula: C5 H7 N O3
CAS: 2949-22-6
State: SOLUTION (10% CCl4 FOR 3800-1330, 10% CS2 FOR 1330-450 CM^-^1)
Class: COBLENTZ III
Instrument: DOW KBr FOREPRISM-GRATING
Instrument parameters: BLAZED AT 3.5, 12.0, 20.0 MICRON AND CHANGED AT 5.0, 7.5, 14.9 MICRON
Sampling: TRANSMISSION
Path length: 0.011 CM, 0.011 CM
Resolution: 2
Origin: DOW CHEMICAL COMPANY
1/CM	TRANSMITTANCE
3798	0.9252
3789	0.9298
3780	0.9297
3771	0.9253
3762	0.9215
3753	0.9191
3744	0.9167
3735	0.9143
3726	0.9034
3717	0.8806
3708	0.8513
3699	0.8311
3690	0.8191
3681	0.8236
3672	0.8537
3663	0.8506
3654	0.8494
3645	0.8674
3636	0.8813
3627	0.8943
3618	0.9019
3609	0.9033
3600	0.8996
3591	0.9063
3582	0.9094
3573	0.9023
3564	0.906
3555	0.9112
3546	0.9135
3537	0.9145
3528	0.9145
3519	0.9136
3510	0.9112
3501	0.9027
3492	0.8908
3483	0.8807
3474	0.8815
3465	0.8905
3456	0.8986
3447	0.9005
3438	0.9002
3429	0.8992
3420	0.8993
3411	0.9015
3402	0.9036
3393	0.9052
3384	0.9052
3375	0.9048
3366	0.9045
3357	0.9013
3348	0.8992
3339	0.8985
3330	0.8982
3321	0.8975
3312	0.8986
3303	0.897
3294	0.8967
3285	0.8962
3276	0.8961
3267	0.8964
3258	0.8957
3249	0.8949
3240	0.8931
3231	0.8878
3222	0.876
3213	0.8616
3204	0.8428
3195	0.836
3186	0.8338
3177	0.8325
3168	0.8308
3159	0.8307
3150	0.848
3141	0.8662
3132	0.8709
3123	0.868
3114	0.8599
3105	0.8661
3096	0.8783
3087	0.8788
3078	0.8784
3069	0.8781
3060	0.8731
3051	0.8664
3042	0.8585
3033	0.8223
3024	0.7849
3015	0.6713
3006	0.4738
2997	0.2917
2988	0.2707
2979	0.4594
2970	0.5418
2961	0.5906
2952	0.4933
2943	0.4367
2934	0.4888
2925	0.6176
2916	0.6298
2907	0.6338
2898	0.7098
2889	0.7565
2880	0.7435
2871	0.779
2862	0.817
2853	0.8268
2844	0.8394
2835	0.8499
2826	0.8617
2817	0.8691
2808	0.8778
2799	0.8845
2790	0.8875
2781	0.8858
2772	0.8848
2763	0.8895
2754	0.8908
2745	0.8877
2736	0.8858
2727	0.8875
2718	0.8912
2709	0.8902
2700	0.889
2691	0.8914
2682	0.8936
2673	0.8936
2664	0.8933
2655	0.8941
2646	0.8945
2637	0.8937
2628	0.8932
2619	0.8921
2610	0.8912
2601	0.8926
2592	0.8938
2583	0.8947
2574	0.8954
2565	0.8964
2556	0.8967
2547	0.8971
2538	0.8975
2529	0.8976
2520	0.8972
2511	0.8937
2502	0.8899
2493	0.8825
2484	0.8723
2475	0.8624
2466	0.8514
2457	0.8398
2448	0.8272
2439	0.8121
2430	0.7859
2421	0.74
2412	0.6886
2403	0.6825
2394	0.6842
2385	0.6106
2376	0.5551
2367	0.5196
2358	0.5246
2349	0.4919
2340	0.4315
2331	0.315
2322	0.2303
2313	0.2273
2304	0.2102
2295	0.0324
2286	0.0025
2277	0.0022
2268	0.0019
2259	0.0017
2250	0.0017
2241	0.0451
2232	0.2226
2223	0.2605
2214	0.2748
2205	0.3129
2196	0.3505
2187	0.4155
2178	0.5115
2169	0.5752
2160	0.6378
2151	0.7011
2142	0.7377
2133	0.761
2124	0.7716
2115	0.7724
2106	0.7585
2097	0.7762
2088	0.8132
2079	0.8281
2070	0.8293
2061	0.8379
2052	0.8569
2043	0.87
2034	0.8754
2025	0.8764
2016	0.8775
2007	0.8784
1998	0.868
1989	0.8869
1980	0.8868
1971	0.8842
1962	0.8749
1953	0.8805
1944	0.882
1935	0.8807
1926	0.8805
1917	0.881
1908	0.879
1899	0.8749
1890	0.8626
1881	0.8471
1872	0.8424
1863	0.8374
1854	0.8301
1845	0.8174
1836	0.8011
1827	0.7788
1818	0.7493
1809	0.7173
1800	0.6806
1791	0.6351
1782	0.5406
1773	0.2878
1764	0.0573
1755	0.0026
1746	0.0021
1737	0.2148
1728	0.4641
1719	0.5385
1710	0.5499
1701	0.6638
1692	0.7372
1683	0.7635
1674	0.7798
1665	0.8064
1656	0.8326
1647	0.8487
1638	0.8592
1629	0.8612
1620	0.8569
1611	0.8644
1602	0.8616
1593	0.812
1584	0.8061
1575	0.7868
1566	0.7061
1557	0.7179
1548	0.7558
1539	0.7664
1530	0.7641
1521	0.7506
1512	0.7466
1503	0.7414
1494	0.7435
1485	0.7097
1476	0.5362
1467	0.4406
1458	0.4877
1449	0.4139
1440	0.5564
1431	0.3728
1422	0.6183
1413	0.6406
1404	0.5319
1395	0.5098
1386	0.4712
1377	0.123
1368	0.6027
1359	0.3328
1350	0.5486
1341	0.6308
1332	0.592
1323	0.6974
1314	0.6404
1305	0.5288
1296	0.5257
1287	0.5602
1278	0.467
1269	0.3755
1260	0.3555
1251	0.3642
1242	0.2796
1233	0.1418
1224	0.0199
1215	0.0033
1206	0.0016
1197	0.029
1188	0.1611
1179	0.3814
1170	0.4272
1161	0.5385
1152	0.6435
1143	0.7141
1134	0.7582
1125	0.7679
1116	0.6971
1107	0.6702
1098	0.5104
1089	0.7178
1080	0.7763
1071	0.7875
1062	0.7812
1053	0.7442
1044	0.663
1035	0.2745
1026	0.0539
1017	0.2668
1008	0.596
999	0.7319
990	0.7668
981	0.7437
972	0.7992
963	0.7991
954	0.568
945	0.4357
936	0.5071
927	0.7079
918	0.7088
909	0.291
900	0.6956
891	0.8183
882	0.8565
873	0.8522
864	0.8133
855	0.6854
846	0.8012
837	0.847
828	0.8608
819	0.861
810	0.8308
801	0.8365
792	0.829
783	0.8293
774	0.8272
765	0.8013
756	0.7291
747	0.608
738	0.5235
729	0.4815
720	0.5195
711	0.5519
702	0.5992
693	0.6726
684	0.7233
675	0.7605
666	0.7516
657	0.7145
648	0.7138
639	0.6437
630	0.4874
621	0.558
612	0.6003
603	0.5875
594	0.4495
585	0.371
576	0.4873
567	0.6319
558	0.7329
549	0.7746
540	0.7991
531	0.8101
522	0.8128
513	0.8132
504	0.8131
495	0.8131
486	0.807
477	0.7936
468	0.7785
459	0.7673
