Infrared Spectrum: Cyclotridecane
Formula: C 13 H 26
CAS: 295-02-3
State: gas
Instrument: HP-GC/MS/IRD
Origin: NIST Mass Spectrometry Data Center
1/CM	ABSORBANCE
550	0.000204
562	0.000306
574	0.0002856
586	0.0002448
598	0.000153
610	0.0001071
622	0.0002091
634	0.0002601
646	0.0001989
658	0.0002397
670	0.0002754
682	0.0002856
694	0.0005202
706	0.00102
718	0.0011628
730	0.0007905
742	0.0004845
754	0.0003213
766	0.0002754
778	0.0003264
790	0.0002856
802	0.0003009
814	0.0002856
826	0.0001938
838	0.0001581
850	0.0002346
862	0.0001632
874	0.0001581
886	0.0001377
898	0.0001122
910	0.0001173
922	6.12e-05
934	8.67e-05
946	0.000102
958	0.0001071
970	9.69e-05
982	0.0001173
994	0.0001224
1006	8.16e-05
1018	9.69e-05
1030	7.65e-05
1042	0.0001071
1054	0.0001581
1066	0.0001479
1078	0.0001683
1090	9.69e-05
1102	5.61e-05
1114	6.63e-05
1126	0.0001275
1138	0.0001275
1150	0.0001887
1162	0.0001632
1174	0.0001785
1186	0.0002091
1198	0.000255
1210	0.0002448
1222	0.000255
1234	0.0002856
1246	0.0003825
1258	0.0004896
1270	0.0004284
1282	0.0005151
1294	0.0006222
1306	0.000663
1318	0.0005814
1330	0.0006477
1342	0.0011067
1354	0.0011628
1366	0.0006273
1378	0.0003468
1390	0.0002805
1402	0.000306
1414	0.000357
1426	0.000459
1438	0.0013515
1450	0.0034833
1462	0.0038658
1474	0.0023358
1486	0.0007956
1498	0.0003927
1510	0.0002856
1522	0.0002397
1534	0.0001989
1546	0.0001683
1558	0.0001836
1570	0.0001224
1582	9.18e-05
1594	7.65e-05
1606	7.14e-05
1618	0.0001071
1630	8.16e-05
1642	9.18e-05
1654	0.0001224
1666	9.18e-05
1678	0.000102
1690	9.18e-05
1702	0.0001071
1714	9.69e-05
1726	7.14e-05
1738	8.67e-05
1750	9.18e-05
1762	7.14e-05
1774	7.14e-05
1786	5.61e-05
1798	4.08e-05
1810	4.59e-05
1822	5.1e-05
1834	4.59e-05
1846	5.1e-05
1858	5.1e-05
1870	6.12e-05
1882	3.57e-05
1894	6.63e-05
1906	2.55e-05
1918	5.1e-05
1930	4.08e-05
1942	3.57e-05
1954	3.57e-05
1966	2.04e-05
1978	4.08e-05
1990	4.59e-05
2002	4.59e-05
2014	7.65e-05
2026	6.12e-05
2038	4.59e-05
2050	6.63e-05
2062	5.61e-05
2074	6.63e-05
2086	6.63e-05
2098	5.61e-05
2110	4.59e-05
2122	3.57e-05
2134	6.12e-05
2146	7.14e-05
2158	7.14e-05
2170	5.61e-05
2182	6.12e-05
2194	6.63e-05
2206	4.59e-05
2218	4.59e-05
2230	5.61e-05
2242	7.14e-05
2254	6.63e-05
2266	6.63e-05
2278	7.65e-05
2290	7.14e-05
2302	7.65e-05
2314	7.65e-05
2326	6.12e-05
2338	3.06e-05
2350	4.08e-05
2362	4.59e-05
2374	7.14e-05
2386	8.67e-05
2398	9.18e-05
2410	8.67e-05
2422	0.000102
2434	0.000102
2446	0.000102
2458	7.14e-05
2470	0.000102
2482	0.0001275
2494	0.0001377
2506	0.0001581
2518	0.0001785
2530	0.0001887
2542	0.0001836
2554	0.0001734
2566	0.0001989
2578	0.0002193
2590	0.000255
2602	0.000255
2614	0.0002754
2626	0.0003315
2638	0.0003876
2650	0.0004488
2662	0.0005406
2674	0.0006273
2686	0.0006273
2698	0.0005814
2710	0.0004641
2722	0.0004488
2734	0.0004539
2746	0.0004692
2758	0.0005355
2770	0.0005763
2782	0.0007038
2794	0.0009231
2806	0.0011628
2818	0.001479
2830	0.0018972
2842	0.0036006
2854	0.0119442
2866	0.0183753
2878	0.0129744
2890	0.0084813
2902	0.013821
2914	0.0260355
2926	0.0432633
2938	0.0480216
2950	0.0248064
2962	0.0112047
2974	0.0057987
2986	0.0030549
2998	0.0018156
3010	0.0012138
3022	0.0008517
3034	0.0006885
3046	0.0005712
3058	0.0005049
3070	0.0003927
3082	0.0003927
3094	0.0003264
3106	0.0002907
3118	0.0003009
3130	0.0002856
3142	0.0003009
3154	0.000255
3166	0.0002244
3178	0.0001938
3190	0.0001785
3202	0.000204
3214	0.0002244
3226	0.0001581
3238	0.0001785
3250	0.000153
3262	9.69e-05
3274	0.0001428
3286	0.0001275
3298	0.0001275
3310	9.69e-05
3322	0.0001071
3334	0.0001326
3346	8.16e-05
3358	0.000102
3370	0.0001173
3382	8.16e-05
3394	0.0001122
3406	0.0001071
3418	9.18e-05
3430	0.0001122
3442	9.69e-05
3454	7.14e-05
3466	7.14e-05
3478	7.65e-05
3490	5.61e-05
3502	8.67e-05
3514	8.16e-05
3526	8.16e-05
3538	7.65e-05
3550	9.69e-05
3562	0.000102
3574	5.1e-05
3586	0.0001224
3598	0.000153
3610	0.0001122
3622	0.0001377
3634	0.0001479
3646	0.0001581
3658	0.0001224
3670	0.0001632
3682	0.0001173
3694	9.69e-05
3706	0.0001377
3718	0.0001479
3730	7.14e-05
3742	0.0001275
3754	0.0001734
3766	0.0001326
3778	0.0001479
3790	0.0001173
3802	0.0001275
3814	0.0001428
3826	0.0001632
3838	0.0001581
