Infrared Spectrum: Cyclopentadecane
Formula: C 15 H 30
CAS: 295-48-7
State: gas
Instrument: HP-GC/MS/IRD
Origin: NIST Mass Spectrometry Data Center
1/CM	ABSORBANCE
550	0.0003201
562	0.0002037
574	0.0001358
586	7.76e-05
598	0.0001746
610	0.0001261
622	0.0001358
634	0.0001358
646	0.0001649
658	0.0001358
670	0.0002522
682	0.0004365
694	0.0007178
706	0.001552
718	0.0016199
730	0.0012319
742	0.0011252
754	0.0008342
766	0.000582
778	0.0004656
790	0.0004656
802	0.0004171
814	0.0003783
826	0.0003298
838	0.0003977
850	0.0003492
862	0.0003492
874	0.0003007
886	0.0003201
898	0.0003007
910	0.000291
922	0.0002425
934	0.0002619
946	0.0002619
958	0.0002619
970	0.0002813
982	0.0002716
994	0.0002619
1006	0.0003395
1018	0.0003492
1030	0.0003686
1042	0.0003492
1054	0.0003783
1066	0.0003589
1078	0.0004074
1090	0.0003686
1102	0.0003201
1114	0.0002328
1126	0.0002522
1138	0.0002522
1150	0.000291
1162	0.0002813
1174	0.0002813
1186	0.0003007
1198	0.0002813
1210	0.0003395
1222	0.0003783
1234	0.0004268
1246	0.0004365
1258	0.0004947
1270	0.0007372
1282	0.0010282
1294	0.0011931
1306	0.0011155
1318	0.000873
1330	0.0010185
1342	0.0019594
1354	0.0023765
1366	0.001358
1378	0.0006887
1390	0.0004559
1402	0.0005044
1414	0.0006499
1426	0.0008827
1438	0.0021437
1450	0.0058782
1462	0.0069646
1474	0.0030652
1486	0.0010573
1498	0.000582
1510	0.0004074
1522	0.0002813
1534	0.0002425
1546	0.0001843
1558	0.0001746
1570	0.0001649
1582	0.0001455
1594	0.0001358
1606	0.0001164
1618	0.0001067
1630	8.73e-05
1642	6.79e-05
1654	6.79e-05
1666	4.85e-05
1678	6.79e-05
1690	3.88e-05
1702	1.94e-05
1714	3.88e-05
1726	3.88e-05
1738	3.88e-05
1750	2.91e-05
1762	2.91e-05
1774	4.85e-05
1786	2.91e-05
1798	2.91e-05
1810	2.91e-05
1822	1.94e-05
1834	1.94e-05
1846	1.94e-05
1858	9.7e-06
1870	2.91e-05
1882	1.94e-05
1894	9.7e-06
1906	9.7e-06
1918	0
1930	0
1942	9.7e-06
1954	0
1966	2.91e-05
1978	9.7e-06
1990	2.91e-05
2002	3.88e-05
2014	3.88e-05
2026	6.79e-05
2038	5.82e-05
2050	4.85e-05
2062	3.88e-05
2074	4.85e-05
2086	5.82e-05
2098	5.82e-05
2110	4.85e-05
2122	3.88e-05
2134	5.82e-05
2146	8.73e-05
2158	7.76e-05
2170	4.85e-05
2182	3.88e-05
2194	3.88e-05
2206	4.85e-05
2218	3.88e-05
2230	4.85e-05
2242	5.82e-05
2254	6.79e-05
2266	5.82e-05
2278	5.82e-05
2290	4.85e-05
2302	5.82e-05
2314	3.88e-05
2326	3.88e-05
2338	4.85e-05
2350	2.91e-05
2362	2.91e-05
2374	9.7e-06
2386	9.7e-06
2398	3.88e-05
2410	3.88e-05
2422	5.82e-05
2434	3.88e-05
2446	2.91e-05
2458	1.94e-05
2470	2.91e-05
2482	5.82e-05
2494	7.76e-05
2506	0.0001164
2518	0.0001552
2530	0.0001843
2542	0.0002134
2554	0.0002231
2566	0.0002328
2578	0.0002522
2590	0.0002813
2602	0.0003395
2614	0.0004268
2626	0.0004559
2638	0.0005723
2650	0.0006887
2662	0.0007954
2674	0.0009409
2686	0.0010185
2698	0.0008633
2710	0.0007372
2722	0.0006984
2734	0.0007178
2746	0.0007663
2758	0.000873
2770	0.0010088
2782	0.0012222
2794	0.0016296
2806	0.0020661
2818	0.0028421
2830	0.0038024
2842	0.0065766
2854	0.0220287
2866	0.0354923
2878	0.019982
2890	0.0140747
2902	0.0232121
2914	0.0436015
2926	0.07954
2938	0.0894437
2950	0.0404102
2962	0.015811
2974	0.0072362
2986	0.0040158
2998	0.0025414
3010	0.0017751
3022	0.0013677
3034	0.0010767
3046	0.0009409
3058	0.0007954
3070	0.0006499
3082	0.0005723
3094	0.0005238
3106	0.0004171
3118	0.0003977
3130	0.0003589
3142	0.0003589
3154	0.0003589
3166	0.0003104
3178	0.0002813
3190	0.0003007
3202	0.0002522
3214	0.0002328
3226	0.0002425
3238	0.000194
3250	0.0001552
3262	0.0001358
3274	0.0001358
3286	0.0001164
3298	0.0001261
3310	0.0001164
3322	0.0001067
3334	7.76e-05
3346	0.0001261
3358	0.0001164
3370	0.0001261
3382	9.7e-05
3394	5.82e-05
3406	0.0001164
3418	0.0001164
3430	0.0001067
3442	6.79e-05
3454	4.85e-05
3466	5.82e-05
3478	1.94e-05
3490	2.91e-05
3502	4.85e-05
3514	9.7e-06
3526	3.88e-05
3538	4.85e-05
3550	2.91e-05
3562	5.82e-05
3574	7.76e-05
3586	4.85e-05
3598	0.0001455
3610	0.0001164
3622	0.0001164
3634	0.0001261
3646	0.0001358
3658	0.0001358
3670	0.0001261
3682	0.0001358
3694	0.0001455
3706	0.0001261
3718	0.0001649
3730	0.0001164
3742	0.0001358
3754	0.0001067
3766	0.0001261
3778	0.0001358
3790	0.0001552
3802	0.0001552
3814	0.0001843
3826	0.0001552
3838	7.76e-05
