Infrared Spectrum: Cyclotetradecane
Formula: C 14 H 28
CAS: 295-17-0
State: gas
Instrument: HP-GC/MS/IRD
Origin: NIST Mass Spectrometry Data Center
1/CM	ABSORBANCE
550	0.0001248
562	8.58e-05
574	0.0001014
586	9.36e-05
598	2.34e-05
610	9.36e-05
622	0.0001248
634	7.02e-05
646	0.0001794
658	0.0001794
670	0.0002574
682	0.000351
694	0.0007878
706	0.0018174
718	0.0016224
730	0.0007956
742	0.0006474
754	0.0005772
766	0.0004602
778	0.0003978
790	0.000351
802	0.000273
814	0.0002808
826	0.0002106
838	0.0001872
850	0.0001482
862	0.0001794
874	0.0002652
886	0.0002652
898	0.0002496
910	0.000195
922	0.000195
934	0.000195
946	0.0001638
958	0.0001794
970	0.000195
982	0.0001794
994	0.0001872
1006	0.000195
1018	0.0002184
1030	0.0002184
1042	0.0002808
1054	0.0003588
1066	0.000273
1078	0.0002262
1090	0.0002028
1102	0.0002496
1114	0.000234
1126	0.0002418
1138	0.000195
1150	0.0001404
1162	0.0001716
1174	0.0001794
1186	0.0002028
1198	0.0002028
1210	0.000273
1222	0.0003822
1234	0.0003744
1246	0.0003822
1258	0.0006084
1270	0.0008034
1282	0.000819
1294	0.0010296
1306	0.0008658
1318	0.000702
1330	0.0008346
1342	0.0016926
1354	0.0019734
1366	0.0010998
1378	0.0005694
1390	0.0003822
1402	0.0004524
1414	0.0005382
1426	0.0006942
1438	0.0018564
1450	0.0049764
1462	0.005928
1474	0.0030108
1486	0.0009516
1498	0.0005148
1510	0.0003978
1522	0.0002964
1534	0.0002418
1546	0.0001872
1558	0.0001716
1570	0.0001482
1582	0.000117
1594	0.0001014
1606	0.0001014
1618	8.58e-05
1630	9.36e-05
1642	7.02e-05
1654	7.8e-05
1666	6.24e-05
1678	7.02e-05
1690	5.46e-05
1702	5.46e-05
1714	5.46e-05
1726	3.9e-05
1738	3.9e-05
1750	4.68e-05
1762	4.68e-05
1774	3.9e-05
1786	5.46e-05
1798	3.9e-05
1810	2.34e-05
1822	2.34e-05
1834	4.68e-05
1846	4.68e-05
1858	1.56e-05
1870	3.9e-05
1882	1.56e-05
1894	7.8e-06
1906	1.56e-05
1918	0
1930	7.8e-06
1942	3.9e-05
1954	2.34e-05
1966	1.56e-05
1978	2.34e-05
1990	3.12e-05
2002	3.12e-05
2014	3.12e-05
2026	4.68e-05
2038	5.46e-05
2050	7.8e-05
2062	3.9e-05
2074	5.46e-05
2086	6.24e-05
2098	3.9e-05
2110	3.12e-05
2122	2.34e-05
2134	3.9e-05
2146	5.46e-05
2158	4.68e-05
2170	4.68e-05
2182	7.02e-05
2194	5.46e-05
2206	4.68e-05
2218	3.9e-05
2230	3.9e-05
2242	5.46e-05
2254	5.46e-05
2266	6.24e-05
2278	5.46e-05
2290	3.12e-05
2302	3.9e-05
2314	5.46e-05
2326	5.46e-05
2338	6.24e-05
2350	4.68e-05
2362	5.46e-05
2374	3.12e-05
2386	4.68e-05
2398	2.34e-05
2410	1.56e-05
2422	3.12e-05
2434	4.68e-05
2446	3.9e-05
2458	3.9e-05
2470	3.9e-05
2482	5.46e-05
2494	0.0001014
2506	0.0001014
2518	0.0001092
2530	0.0001248
2542	0.0001638
2554	0.000156
2566	0.0001872
2578	0.000234
2590	0.000234
2602	0.0002808
2614	0.0003042
2626	0.0003744
2638	0.0004602
2650	0.0005694
2662	0.0006708
2674	0.000819
2686	0.0008502
2698	0.0007254
2710	0.0005928
2722	0.0005616
2734	0.0005928
2746	0.0006162
2758	0.0006864
2770	0.00078
2782	0.0009984
2794	0.0012714
2806	0.0016224
2818	0.0022464
2830	0.002925
2842	0.005148
2854	0.0179088
2866	0.0288756
2878	0.0185328
2890	0.011856
2902	0.0196326
2914	0.0373074
2926	0.0654732
2938	0.0724698
2950	0.0359268
2962	0.015912
2974	0.0069342
2986	0.0036192
2998	0.0022308
3010	0.001599
3022	0.0011466
3034	0.0008658
3046	0.0007332
3058	0.0006318
3070	0.000507
3082	0.0004446
3094	0.0003666
3106	0.0003666
3118	0.0003432
3130	0.0003042
3142	0.0002574
3154	0.0002496
3166	0.0002496
3178	0.000195
3190	0.0001638
3202	0.0002028
3214	0.0001716
3226	0.0001482
3238	0.0001326
3250	0.0001092
3262	0.000117
3274	0.000117
3286	0.0001014
3298	0.0001092
3310	9.36e-05
3322	9.36e-05
3334	0.0001014
3346	0.0001092
3358	8.58e-05
3370	0.0001014
3382	0.0001248
3394	7.8e-05
3406	8.58e-05
3418	0.0001092
3430	9.36e-05
3442	9.36e-05
3454	7.8e-05
3466	8.58e-05
3478	6.24e-05
3490	4.68e-05
3502	6.24e-05
3514	5.46e-05
3526	5.46e-05
3538	8.58e-05
3550	7.8e-05
3562	9.36e-05
3574	9.36e-05
3586	0.000117
3598	0.0001248
3610	0.0001794
3622	0.000156
3634	0.0001638
3646	0.0001872
3658	0.0001872
3670	0.0001638
3682	0.0001638
3694	0.0001404
3706	0.0001872
3718	0.0001872
3730	0.0001638
3742	0.000156
3754	0.0001716
3766	0.0001872
3778	0.0001794
3790	0.0001794
3802	0.000156
3814	0.0002184
3826	0.0001638
3838	0.0001872
