Infrared Spectrum: 3-(Octylamino)propionitrile
Formula: C 11 H 22 N 2
CAS: 29504-89-0
State: gas
Origin: EPA-IR VAPOR PHASE LIBRARY
1/CM	ABSORBANCE
549.8	0.003238
559.445	0.003238
569.09	0.003168
578.734	0.003318
588.379	0.003678
598.024	0.004038
607.669	0.004578
617.313	0.004908
626.958	0.005538
636.603	0.006328
646.248	0.007488
655.893	0.008388
665.537	0.009138
675.182	0.009588
684.827	0.009808
694.472	0.009668
704.116	0.009768
713.761	0.010318
723.406	0.009978
733.051	0.008728
742.695	0.007098
752.34	0.005928
761.985	0.004898
771.63	0.004468
781.275	0.003818
790.919	0.003308
800.564	0.002678
810.209	0.003048
819.854	0.003008
829.498	0.002958
839.143	0.002718
848.788	0.002638
858.433	0.002258
868.078	0.002588
877.722	0.002428
887.367	0.002148
897.012	0.002248
906.657	0.002498
916.301	0.002168
925.946	0.002638
935.591	0.002748
945.236	0.002838
954.88	0.003408
964.525	0.003638
974.17	0.003558
983.815	0.003718
993.46	0.003578
1003.1	0.003378
1012.75	0.003508
1022.39	0.004058
1032.04	0.003988
1041.68	0.004058
1051.33	0.003928
1060.97	0.003998
1070.62	0.003768
1080.26	0.004228
1089.91	0.005018
1099.55	0.006298
1109.2	0.010128
1118.84	0.017468
1128.49	0.028978
1138.13	0.033728
1147.78	0.022318
1157.42	0.012198
1167.07	0.007768
1176.71	0.006138
1186.36	0.005218
1196	0.004498
1205.64	0.004208
1215.29	0.004258
1224.93	0.004858
1234.58	0.004188
1244.22	0.004258
1253.87	0.004088
1263.51	0.003848
1273.16	0.004098
1282.8	0.004888
1292.45	0.005258
1302.09	0.006068
1311.74	0.006968
1321.38	0.007598
1331.03	0.009008
1340.67	0.012088
1350.32	0.015138
1359.96	0.015908
1369.61	0.012868
1379.25	0.010198
1388.9	0.007728
1398.54	0.005648
1408.18	0.005698
1417.83	0.007608
1427.47	0.011638
1437.12	0.014058
1446.76	0.017638
1456.41	0.024178
1466.05	0.029108
1475.7	0.025218
1485.34	0.012608
1494.99	0.006398
1504.63	0.004058
1514.28	0.002938
1523.92	0.002298
1533.57	0.001818
1543.21	0.001568
1552.86	0.001348
1562.5	0.0012492
1572.15	0.0012585
1581.79	0.0011282
1591.44	0.0010857
1601.08	0.0009995
1610.73	0.000865
1620.37	0.0009574
1630.01	0.0009149
1639.66	0.0008171
1649.3	0.0008613
1658.95	0.0007722
1668.59	0.0007498
1678.24	0.0007638
1687.88	0.0006112
1697.53	0.0006917
1707.17	0.00064
1716.82	0.0007551
1726.46	0.0005955
1736.11	0.0006961
1745.75	0.0007301
1755.4	0.0006825
1765.04	0.0007383
1774.69	0.0006687
1784.33	0.0006644
1793.98	0.0008104
1803.62	0.0007822
1813.27	0.0009077
1822.91	0.0008154
1832.55	0.000716
1842.2	0.0006897
1851.84	0.0007038
1861.49	0.0007539
1871.13	0.0007629
1880.78	0.0006505
1890.42	0.0006707
1900.07	0.0006926
1909.71	0.0007047
1919.36	0.0005875
1929	0.0004599
1938.65	0.0005791
1948.29	0.0006233
1957.94	0.0005696
1967.58	0.0006403
1977.23	0.0006483
1986.87	0.0006357
1996.52	0.0006354
2006.16	0.000635
2015.81	0.0007835
2025.45	0.0008537
2035.1	0.0007983
2044.74	0.0007349
2054.38	0.0008436
2064.03	0.0008479
2073.67	0.0008137
2083.32	0.0007463
2092.96	0.000706
2102.61	0.0006882
2112.25	0.0007358
2121.9	0.0008005
2131.54	0.0007332
2141.19	0.0008371
2150.83	0.0007825
2160.48	0.000755
2170.12	0.0007888
2179.77	0.000787
2189.41	0.0008253
2199.06	0.0009116
2208.7	0.0008925
2218.35	0.0009223
2227.99	0.0011064
2237.64	0.001598
2247.28	0.002508
2256.92	0.002428
2266.57	0.001338
2276.21	0.0011084
2285.86	0.0009417
2295.5	0.0009337
2305.15	0.0008568
2314.79	0.000877
2324.44	0.0008213
2334.08	0.0008023
2343.73	0.0008131
2353.37	0.0007475
2363.02	0.000763
2372.66	0.0008377
2382.31	0.0008923
2391.95	0.0008311
2401.6	0.000917
2411.24	0.000997
2420.89	0.0009719
2430.53	0.0009019
2440.18	0.0008675
2449.82	0.0008847
2459.47	0.0008294
2469.11	0.0008809
2478.75	0.0009738
2488.4	0.0008578
2498.04	0.0010549
2507.69	0.0010259
2517.33	0.0010177
2526.98	0.0012087
2536.62	0.001328
2546.27	0.0012232
2555.91	0.0012634
2565.56	0.001368
2575.2	0.001438
2584.85	0.001598
2594.49	0.001818
2604.14	0.002118
2613.78	0.002068
2623.43	0.002268
2633.07	0.002378
2642.72	0.002578
2652.36	0.002838
2662.01	0.003158
2671.65	0.003538
2681.29	0.003948
2690.94	0.004168
2700.58	0.004428
2710.23	0.004678
2719.87	0.004668
2729.52	0.004988
2739.16	0.005608
2748.81	0.005978
2758.45	0.006308
2768.1	0.006698
2777.74	0.007438
2787.39	0.009078
2797.03	0.012238
2806.68	0.016928
2816.32	0.024168
2825.97	0.032358
2835.61	0.039338
2845.26	0.045628
2854.9	0.061938
2864.55	0.075518
2874.19	0.064758
2883.84	0.055038
2893.48	0.051358
2903.12	0.060098
2912.77	0.084058
2922.41	0.131328
2932.06	0.182548
2941.7	0.162098
2951.35	0.105008
2960.99	0.082248
2970.64	0.072448
2980.28	0.038348
2989.93	0.020358
2999.57	0.012888
3009.22	0.008918
3018.86	0.006978
3028.51	0.005538
3038.15	0.004468
3047.8	0.003618
3057.44	0.003108
3067.09	0.002868
3076.73	0.002498
3086.38	0.002268
3096.02	0.001968
3105.67	0.001898
3115.31	0.001708
3124.95	0.001438
3134.6	0.001488
3144.24	0.001398
3153.89	0.001288
3163.53	0.001338
3173.18	0.0011129
3182.82	0.0012101
3192.47	0.0012424
3202.11	0.0008802
3211.76	0.0008441
3221.4	0.0007189
3231.05	0.0006446
3240.69	0.0007395
3250.34	0.0005605
3259.98	0.0003733
3269.63	0.000535
3279.27	0.0004748
3288.92	0.0003284
3298.56	0.0004083
3308.21	0.0005027
3317.85	0.0005022
3327.49	0.000441
3337.14	0.0005418
3346.78	0.0007499
3356.43	0.0007486
3366.07	0.0006815
3375.72	0.0008952
3385.36	0.0007105
3395.01	0.0006508
3404.65	0.0006015
3414.3	0.0005177
3423.94	0.0005322
3433.59	0.0003268
3443.23	0.0004672
3452.88	0.00026314
3462.52	0.0003052
3472.17	0.00035601
3481.81	0.00035759
3491.46	0.00033229
3501.1	0.00032192
3510.75	0.00025989
3520.39	0.0002557
3530.04	0.00027471
3539.68	8.5e-05
3549.32	0.000273084
3558.97	0.0004253
3568.61	0.00029429
3578.26	0.00033871
3587.9	0.00036636
3597.55	0.00032005
3607.19	0.0002093
3616.84	0.000164
3626.48	0.0003758
3636.13	0.0002239
3645.77	0.00029926
3655.42	0.0002264
3665.06	0.0004819
3674.71	0.00032785
3684.35	0.000399
3694	0.0005867
3703.64	0.00032542
3713.29	0.00035274
3722.93	0.00033406
3732.58	0.0002167
3742.22	0.00030217
3751.86	0.00032495
3761.51	0.0004822
3771.15	0.000163
3780.8	0.00024
3790.44	0.0004775
3800.09	0.00033055
3809.73	0.00032434
3819.38	0.0004267
3829.02	0.000257
3838.67	0.00034871
3848.31	0.0004383
3857.96	0.0004265
3867.6	0.000464
3877.25	0.00026393
3886.89	0.0004484
3896.54	0.000429
3906.18	0.0002363
3915.83	0.00026254
3925.47	0.0004607
3935.12	0.0006266
3944.76	0.0004369
3954.41	0.0004062
3964.05	0.0007816
3973.69	0.0006887
3983.34	0.0006765
3992.98	0.0006529
