Infrared Spectrum: TETRAPHOSPHONITRILIC CHLORIDE
Formula: P4 N4 Cl8
CAS: 2950-45-0
State: SOLID (MINERAL OIL MULL)
Class: COBLENTZ
Instrument: Not specified, most likely a prism, grating, or hybrid spectrometer.
Sampling: TRANSMISSION
Resolution: 4
Origin: WYANDOTTE CHEMICALS CORP., WYANDOTTE, MICHIGAN, USA
MICROMETERS	TRANSMITTANCE
2.02	0.418
2.06072	0.421
2.10144	0.426
2.14215	0.433
2.18287	0.438
2.22359	0.438
2.26431	0.442
2.30503	0.452
2.34574	0.459
2.38646	0.462
2.42718	0.471
2.4679	0.479
2.50862	0.488
2.54933	0.493
2.59005	0.506
2.63077	0.501
2.67149	0.51
2.71221	0.513
2.75293	0.52
2.79364	0.522
2.83436	0.52
2.87508	0.52
2.9158	0.52
2.95652	0.513
2.99723	0.517
3.03795	0.52
3.07867	0.52
3.11939	0.522
3.16011	0.517
3.20082	0.511
3.24154	0.51
3.28226	0.472
3.32298	0.357
3.3637	0.127
3.40441	0.068
3.44513	0.086
3.48585	0.17
3.52657	0.26
3.56729	0.676
3.608	0.709
3.64872	0.717
3.68944	0.709
3.73016	0.715
3.77088	0.721
3.8116	0.727
3.85231	0.738
3.89303	0.748
3.93375	0.753
3.97447	0.767
4.01519	0.77
4.0559	0.768
4.09662	0.773
4.13734	0.777
4.17806	0.784
4.21878	0.789
4.25949	0.782
4.30021	0.792
4.34093	0.799
4.38165	0.816
4.42237	0.826
4.46308	0.821
4.5038	0.823
4.54452	0.829
4.58524	0.829
4.62596	0.828
4.66667	0.823
4.70739	0.831
4.74811	0.855
4.78883	0.858
4.82955	0.863
4.87027	0.858
4.91098	0.843
4.9517	0.829
4.99242	0.838
5.03314	0.806
5.07386	0.821
5.11457	0.87
5.15529	0.889
5.19601	0.897
5.23673	0.903
5.27745	0.906
5.31816	0.899
5.35888	0.891
5.3996	0.903
5.44032	0.901
5.48104	0.903
5.52175	0.918
5.56247	0.916
5.60319	0.921
5.64391	0.913
5.68463	0.913
5.72534	0.916
5.76606	0.916
5.80678	0.899
5.8475	0.896
5.88822	0.899
5.92894	0.892
5.96965	0.889
6.01037	0.879
6.05109	0.891
6.09181	0.896
6.13253	0.903
6.17324	0.923
6.21396	0.923
6.25468	0.935
6.2954	0.933
6.33612	0.931
6.37683	0.923
6.41755	0.901
6.45827	0.903
6.49899	0.884
6.53971	0.877
6.58042	0.879
6.62114	0.853
6.66186	0.831
6.70258	0.761
6.7433	0.647
6.78401	0.397
6.82473	0.36
6.86545	0.399
6.90617	0.496
6.94689	0.579
6.98761	0.622
7.02832	0.596
7.06904	0.54
7.10976	0.488
7.15048	0.431
7.1912	0.348
7.23191	0.241
7.27263	0.243
7.31335	0.263
7.35407	0.318
7.39479	0.309
7.4355	0.263
7.47622	0.202
7.51694	0.153
7.55766	0.127
7.59838	0.103
7.63909	0.091
7.67981	0.081
7.72053	0.073
7.76125	0.081
7.80197	0.086
7.84268	0.083
7.8834	0.071
7.92412	0.076
7.96484	0.088
8.00556	0.112
8.04628	0.132
8.08699	0.156
8.12771	0.181
8.16843	0.202
8.20915	0.239
8.24987	0.263
8.29058	0.292
8.3313	0.314
8.37202	0.333
8.41274	0.363
8.45346	0.391
8.49417	0.431
8.53489	0.46
8.57561	0.491
8.61633	0.51
8.65705	0.532
8.69776	0.561
8.73848	0.588
8.7792	0.602
8.81992	0.608
8.86064	0.602
8.90135	0.613
8.94207	0.634
8.98279	0.649
9.02351	0.659
9.06423	0.663
9.10495	0.673
9.14566	0.683
9.18638	0.687
9.2271	0.692
9.26782	0.698
9.30854	0.702
9.34925	0.712
9.38997	0.719
9.43069	0.727
9.47141	0.732
9.51213	0.739
9.55284	0.751
9.59356	0.751
9.63428	0.753
9.675	0.767
9.71572	0.763
9.75643	0.767
9.79715	0.768
9.83787	0.775
9.87859	0.78
9.91931	0.792
9.96002	0.799
10.0007	0.802
10.0415	0.802
10.0822	0.811
10.1229	0.811
10.1636	0.802
10.2043	0.799
10.2451	0.792
10.2858	0.795
10.3265	0.797
10.3672	0.801
10.4079	0.802
10.4486	0.804
10.4894	0.812
10.5301	0.812
10.5708	0.818
10.6115	0.819
10.6522	0.819
10.693	0.826
10.7337	0.826
10.7744	0.828
10.8151	0.828
10.8558	0.823
10.8965	0.818
10.9373	0.801
10.978	0.778
11.0187	0.719
11.0594	0.651
11.1001	0.559
11.1408	0.493
11.1816	0.489
11.2223	0.52
11.263	0.586
11.3037	0.663
11.3444	0.707
11.3852	0.755
11.4259	0.778
11.4666	0.802
11.5073	0.819
11.548	0.831
11.5887	0.86
11.6295	0.879
11.6702	0.889
11.7109	0.894
11.7516	0.896
11.7923	0.896
11.8331	0.899
11.8738	0.901
11.9145	0.908
11.9552	0.909
11.9959	0.913
12.0366	0.916
12.0774	0.918
12.1181	0.92
12.1588	0.921
12.1995	0.921
12.2402	0.926
12.281	0.926
12.3217	0.921
12.3624	0.918
12.4031	0.916
12.4438	0.901
12.4845	0.882
12.5253	0.831
12.566	0.739
12.6067	0.658
12.6474	0.675
12.6881	0.777
12.7289	0.826
12.7696	0.85
12.8103	0.857
12.851	0.862
12.8917	0.872
12.9324	0.879
12.9732	0.879
13.0139	0.882
13.0546	0.882
13.0953	0.879
13.136	0.877
13.1768	0.879
13.2175	0.875
13.2582	0.875
13.2989	0.872
13.3396	0.874
13.3803	0.879
13.4211	0.88
13.4618	0.88
13.5025	0.879
13.5432	0.879
13.5839	0.877
13.6247	0.879
13.6654	0.882
13.7061	0.879
13.7468	0.882
13.7875	0.88
13.8282	0.877
13.869	0.877
13.9097	0.867
13.9504	0.879
13.9911	0.882
14.0318	0.88
14.0726	0.886
14.1133	0.886
14.154	0.887
14.1947	0.889
14.2354	0.887
14.2761	0.891
14.3169	0.887
14.3576	0.887
14.3983	0.887
14.439	0.886
14.4797	0.879
14.5204	0.877
14.5612	0.872
14.6019	0.865
14.6426	0.867
14.6833	0.86
14.724	0.857
14.7648	0.85
14.8055	0.846
14.8462	0.838
14.8869	0.838
14.9276	0.828
14.9683	0.811
15.0091	0.775
15.0498	0.746
15.0905	0.751
15.1312	0.777
15.1719	0.778
15.2127	0.765
15.2534	0.758
15.2941	0.736
15.3348	0.726
15.3755	0.709
15.4162	0.693
15.457	0.681
15.4977	0.673
15.5384	0.658
15.5791	0.651
15.6198	0.646
15.6606	0.63
15.7013	0.619
15.742	0.612
15.7827	0.6
15.8234	0.588
15.8641	0.579
15.9049	0.571
15.9456	0.566
15.9863	0.547
