Infrared Spectrum: METHANOL, CYCLOUNDECANE-
Formula: C12 H24 O
CAS: 29518-02-3
State: SOLUTION (10% CCl4 FOR 3800-1330, 10% CS2 FOR 1330-400 CM^-^1)
Boiling point: 147 C AT 11 mmHg
Class: COBLENTZ III
Instrument: BECKMAN IR-9 (GRATING)
Instrument parameters: ORDER CHANGES: 670, 1200, 2000 CM^-^1
Sampling: TRANSMISSION
Path length: 0.011 CM, 0.011 CM
Resolution: 2
Origin: DOW CHEMICAL COMPANY
1/CM	TRANSMITTANCE
400	0.1296
409	0.1602
418	0.3588
427	0.4991
436	0.5846
445	0.6286
454	0.6698
463	0.6971
472	0.7178
481	0.7244
490	0.7312
499	0.7286
508	0.7269
517	0.7315
526	0.7311
535	0.729
544	0.7272
553	0.7288
562	0.7343
571	0.739
580	0.7398
589	0.7398
598	0.739
607	0.7365
616	0.7333
625	0.7294
634	0.7247
643	0.7172
652	0.7001
661	0.7098
670	0.7336
679	0.7558
688	0.7461
697	0.7021
706	0.6818
715	0.6778
724	0.6419
733	0.6494
742	0.6836
751	0.7289
760	0.7551
769	0.769
778	0.7884
787	0.7965
796	0.7899
805	0.7898
814	0.8022
823	0.815
832	0.8144
841	0.798
850	0.7181
859	0.6772
868	0.6883
877	0.7284
886	0.7698
895	0.8007
904	0.7982
913	0.8055
922	0.7992
931	0.7875
940	0.7751
949	0.749
958	0.7637
967	0.7715
976	0.7406
985	0.6851
994	0.6393
1003	0.6053
1012	0.5559
1021	0.398
1030	0.1694
1039	0.255
1048	0.3623
1057	0.3822
1066	0.4859
1075	0.5785
1084	0.6328
1093	0.6771
1102	0.7046
1111	0.729
1120	0.7528
1129	0.7712
1138	0.7611
1147	0.7158
1156	0.6754
1165	0.649
1174	0.6501
1183	0.6519
1192	0.6734
1201	0.6864
1210	0.6949
1219	0.6965
1228	0.6997
1237	0.7045
1246	0.7011
1255	0.6869
1264	0.6706
1273	0.6575
1282	0.6621
1291	0.6412
1300	0.6307
1309	0.6333
1318	0.6389
1327	0.634
1336	0.6808
1345	0.6478
1354	0.6236
1363	0.658
1372	0.6617
1381	0.64
1390	0.656
1399	0.6718
1408	0.6774
1417	0.6981
1426	0.7111
1435	0.6764
1444	0.4174
1453	0.4167
1462	0.4955
1471	0.3198
1480	0.3129
1489	0.6865
1498	0.7384
1507	0.7295
1516	0.6954
1525	0.6553
1534	0.6098
1543	0.5282
1552	0.4662
1561	0.4803
1570	0.5633
1579	0.6221
1588	0.6379
1597	0.6962
1606	0.7819
1615	0.819
1624	0.8386
1633	0.8498
1642	0.859
1651	0.8667
1660	0.87
1669	0.8706
1678	0.87
1687	0.8681
1696	0.8624
1705	0.8447
1714	0.8035
1723	0.7392
1732	0.6551
1741	0.7196
1750	0.8253
1759	0.8595
1768	0.8712
1777	0.8795
1786	0.8838
1795	0.885
1804	0.8874
1813	0.8886
1822	0.8893
1831	0.89
1840	0.8908
1849	0.8913
1858	0.8917
1867	0.8924
1876	0.8933
1885	0.894
1894	0.8939
1903	0.8938
1912	0.8938
1921	0.894
1930	0.8941
1939	0.893
1948	0.8917
1957	0.8904
1966	0.8891
1975	0.8866
1984	0.8841
1993	0.8755
2002	0.8721
2011	0.8742
2020	0.8743
2029	0.8746
2038	0.8741
2047	0.8728
2056	0.8716
2065	0.8711
2074	0.8731
2083	0.8756
2092	0.8763
2101	0.8763
2110	0.8759
2119	0.8759
2128	0.876
2137	0.8759
2146	0.8758
2155	0.8756
2164	0.8752
2173	0.8746
2182	0.8741
2191	0.8734
2200	0.8724
2209	0.8711
2218	0.8699
2227	0.8686
2236	0.8673
2245	0.8656
2254	0.864
2263	0.8623
2272	0.8593
2281	0.8561
2290	0.8546
2299	0.8531
2308	0.8517
2317	0.8535
2326	0.8557
2335	0.8586
2344	0.8621
2353	0.8645
2362	0.8665
2371	0.8671
2380	0.8678
2389	0.8675
2398	0.8617
2407	0.8608
2416	0.8599
2425	0.8591
2434	0.8584
2443	0.8581
2452	0.858
2461	0.8564
2470	0.8548
2479	0.8521
2488	0.8493
2497	0.8468
2506	0.8445
2515	0.8425
2524	0.8413
2533	0.8401
2542	0.8388
2551	0.8374
2560	0.836
2569	0.8344
2578	0.8317
2587	0.829
2596	0.8264
2605	0.8237
2614	0.8189
2623	0.8138
2632	0.8088
2641	0.8021
2650	0.7951
2659	0.7869
2668	0.7753
2677	0.7639
2686	0.7588
2695	0.7599
2704	0.7626
2713	0.7661
2722	0.7685
2731	0.7687
2740	0.7662
2749	0.7619
2758	0.7537
2767	0.743
2776	0.7315
2785	0.7164
2794	0.6991
2803	0.6754
2812	0.6366
2821	0.5872
2830	0.4765
2839	0.2916
2848	0.0781
2857	0.0358
2866	0.0318
2875	0.0568
2884	0.0972
2893	0.0785
2902	0.0405
2911	0.0085
2920	0.0028
2929	0.0013
2938	0.0017
2947	0.0086
2956	0.0425
2965	0.1873
2974	0.3327
2983	0.4404
2992	0.4964
3001	0.5472
3010	0.6017
3019	0.6608
3028	0.7207
3037	0.7499
3046	0.7633
3055	0.7701
3064	0.7725
3073	0.7721
3082	0.7705
3091	0.7674
3100	0.7635
3109	0.7588
3118	0.7548
3127	0.7506
3136	0.743
3145	0.7335
3154	0.7233
3163	0.7124
3172	0.701
3181	0.6862
3190	0.6717
3199	0.6547
3208	0.6368
3217	0.6178
3226	0.5972
3235	0.576
3244	0.5548
3253	0.5345
3262	0.5143
3271	0.4884
3280	0.472
3289	0.4585
3298	0.4476
3307	0.4384
3316	0.4293
3325	0.4212
3334	0.4156
3343	0.414
3352	0.4158
3361	0.4216
3370	0.4294
3379	0.4371
3388	0.4445
3397	0.4543
3406	0.4605
3415	0.4704
3424	0.4847
3433	0.4996
3442	0.5115
3451	0.5244
3460	0.5374
3469	0.5506
3478	0.5639
3487	0.5799
3496	0.5968
3505	0.6103
3514	0.6237
3523	0.6368
3532	0.6528
3541	0.6742
3550	0.6983
3559	0.7236
3568	0.743
3577	0.7608
3586	0.7725
3595	0.779
3604	0.7734
3613	0.7314
3622	0.6665
3631	0.6188
3640	0.5912
3649	0.7225
3658	0.7711
3667	0.793
3676	0.7993
3685	0.8044
3694	0.8081
3703	0.8118
3712	0.8158
3721	0.819
3730	0.8218
3739	0.8228
3748	0.8235
3757	0.8228
3766	0.8221
3775	0.8205
3784	0.8207
3793	0.822
