Infrared Spectrum: 2-BUTANOL, 3,3,4,4-TETRAFLUORO-2-METHYL-
Formula: C5 H8 F4 O
CAS: 29553-26-2
State: SOLUTION (10% CCl4 FOR 3800-400 CM^-^1)
Boiling point: 117 C AT 760 mmHg
Class: COBLENTZ
Instrument: DOW KBr FOREPRISM-GRATING
Instrument parameters: BLAZED AT 3.5, 12.0, 20.0 MICRON AND CHANGED AT 5.0, 7.5, 14.9 MICRON
Sampling: TRANSMISSION
Path length: 0.011 CM
Resolution: 2
Origin: DOW CHEMICAL COMPANY
1/CM	TRANSMITTANCE
383	0.6431
392	0.6468
401	0.6528
410	0.6605
419	0.6765
428	0.6896
437	0.674
446	0.6371
455	0.5773
464	0.585
473	0.6658
482	0.7008
491	0.7633
500	0.7864
509	0.7668
518	0.6954
527	0.6901
536	0.6878
545	0.7569
554	0.7234
563	0.3724
572	0.6151
581	0.7686
590	0.8344
599	0.8585
608	0.8538
617	0.8401
626	0.8012
635	0.7386
644	0.5948
653	0.8768
662	0.8858
671	0.8816
680	0.8653
689	0.8019
698	0.4679
707	0.676
716	0.5977
725	0.3266
734	0.1003
743	0.0001
752	0.0001
761	0.0001
770	0.0001
779	0.0001
788	0.0001
797	0.0001
806	0.0001
815	0.0039
824	0.1929
833	0.4553
842	0.6097
851	0.4293
860	0.2113
869	0.7685
878	0.8454
887	0.8736
896	0.8889
905	0.8911
914	0.9066
923	0.9021
932	0.8734
941	0.8424
950	0.7945
959	0.5633
968	0.2551
977	0.4801
986	0.6159
995	0.4948
1004	0.5485
1013	0.6164
1022	0.6631
1031	0.5069
1040	0.2509
1049	0.02
1058	0.1372
1067	0.348
1076	0.3547
1085	0.2194
1094	0.1071
1103	0.0088
1112	0.0024
1121	0.0046
1130	0.0207
1139	0.1087
1148	0.1977
1157	0.2866
1166	0.3169
1175	0.2741
1184	0.1604
1193	0.0527
1202	0.224
1211	0.3536
1220	0.3977
1229	0.4112
1238	0.3158
1247	0.2091
1256	0.4179
1265	0.4943
1274	0.5301
1283	0.6815
1292	0.7954
1301	0.8164
1310	0.8022
1319	0.7634
1328	0.6661
1337	0.4695
1346	0.5805
1355	0.5631
1364	0.6226
1373	0.3812
1382	0.5006
1391	0.4028
1400	0.402
1409	0.6647
1418	0.8235
1427	0.8299
1436	0.8068
1445	0.7199
1454	0.6715
1463	0.6117
1472	0.4538
1481	0.6918
1490	0.7514
1499	0.7578
1508	0.7142
1517	0.6721
1526	0.6522
1535	0.5882
1544	0.4964
1553	0.4996
1562	0.5838
1571	0.6395
1580	0.6556
1589	0.6817
1598	0.7711
1607	0.8287
1616	0.8656
1625	0.8911
1634	0.9083
1643	0.9212
1652	0.9248
1661	0.9266
1670	0.9323
1679	0.9334
1688	0.9298
1697	0.9225
1706	0.9216
1715	0.9318
1724	0.9355
1733	0.9363
1742	0.9363
1751	0.9356
1760	0.9384
1769	0.9428
1778	0.9462
1787	0.9492
1796	0.9486
1805	0.947
1814	0.9464
1823	0.9503
1832	0.9534
1841	0.955
1850	0.9564
1859	0.958
1868	0.9628
1877	0.9613
1886	0.961
1895	0.9597
1904	0.9568
1913	0.9531
1922	0.9523
1931	0.9558
1940	0.96
1949	0.9628
1958	0.9615
1967	0.9595
1976	0.9592
1985	0.9577
1994	0.9536
2003	0.9611
2012	0.962
2021	0.9621
2030	0.9628
2039	0.9634
2048	0.9634
2057	0.9638
2066	0.9643
2075	0.9644
2084	0.9645
2093	0.9644
2102	0.9642
2111	0.9638
2120	0.9625
2129	0.96
2138	0.9583
2147	0.9578
2156	0.9571
2165	0.9562
2174	0.9552
2183	0.9525
2192	0.9487
2201	0.9442
2210	0.9418
2219	0.9407
2228	0.9407
2237	0.9418
2246	0.9443
2255	0.9468
2264	0.9451
2273	0.9392
2282	0.9332
2291	0.9335
2300	0.9359
2309	0.9443
2318	0.9624
2327	0.9694
2336	0.968
2345	0.9662
2354	0.9651
2363	0.9642
2372	0.9633
2381	0.9625
2390	0.9618
2399	0.9608
2408	0.957
2417	0.9562
2426	0.9555
2435	0.9547
2444	0.9541
2453	0.9541
2462	0.954
2471	0.9539
2480	0.9544
2489	0.9549
2498	0.9556
2507	0.9568
2516	0.9582
2525	0.9595
2534	0.9604
2543	0.9613
2552	0.9618
2561	0.9621
2570	0.962
2579	0.9615
2588	0.9608
2597	0.9592
2606	0.9578
2615	0.9565
2624	0.9559
2633	0.9552
2642	0.9551
2651	0.9555
2660	0.9553
2669	0.9537
2678	0.9521
2687	0.9506
2696	0.9491
2705	0.9475
2714	0.9463
2723	0.9454
2732	0.9444
2741	0.9432
2750	0.9416
2759	0.9415
2768	0.9437
2777	0.944
2786	0.9413
2795	0.9371
2804	0.9336
2813	0.9288
2822	0.9221
2831	0.9163
2840	0.9142
2849	0.9086
2858	0.8946
2867	0.8714
2876	0.8593
2885	0.8603
2894	0.8593
2903	0.8461
2912	0.8254
2921	0.7937
2930	0.7347
2939	0.7037
2948	0.7167
2957	0.7755
2966	0.7361
2975	0.5846
2984	0.4264
2993	0.4273
3002	0.5098
3011	0.6958
3020	0.8193
3029	0.8859
3038	0.9213
3047	0.9234
3056	0.9249
3065	0.9267
3074	0.9286
3083	0.9305
3092	0.9325
3101	0.9343
3110	0.9351
3119	0.9343
3128	0.9328
3137	0.9302
3146	0.9271
3155	0.9228
3164	0.9183
3173	0.9134
3182	0.9078
3191	0.9009
3200	0.8941
3209	0.8878
3218	0.8813
3227	0.8737
3236	0.866
3245	0.8575
3254	0.8475
3263	0.8362
3272	0.8246
3281	0.8124
3290	0.8003
3299	0.7868
3308	0.7736
3317	0.7591
3326	0.7436
3335	0.7283
3344	0.7136
3353	0.6988
3362	0.6826
3371	0.6658
3380	0.6525
3389	0.6396
3398	0.6269
3407	0.6144
3416	0.6025
3425	0.5909
3434	0.5808
3443	0.576
3452	0.5727
3461	0.5765
3470	0.5827
3479	0.5908
3488	0.603
3497	0.6272
3506	0.6697
3515	0.7038
3524	0.7353
3533	0.7651
3542	0.785
3551	0.7934
3560	0.7912
3569	0.7724
3578	0.6636
3587	0.5036
3596	0.3436
3605	0.4227
3614	0.5884
3623	0.7541
3632	0.8802
3641	0.9158
3650	0.9186
3659	0.9192
3668	0.9217
3677	0.9323
3686	0.9478
3695	0.9635
3704	0.9751
3713	0.9814
3722	0.9848
3731	0.9865
3740	0.9871
3749	0.9875
3758	0.9878
3767	0.9873
3776	0.9868
3785	0.986
3794	0.985
