Infrared Spectrum: N,N'-Ethylenebisacrylamide
Formula: C 8 H 12 N 2 O 2
CAS: 2956-58-3
State: gas
Origin: EPA-IR VAPOR PHASE LIBRARY
1/CM	ABSORBANCE
549.8	0.00412
559.445	0.00263
569.09	0.0037
578.734	0.00332
588.379	0.00314
598.024	0.00344
607.669	0.00249
617.313	0.00267
626.958	0.00279
636.603	0.00243
646.248	0.0019
655.893	0.00174
665.537	0.00259
675.182	0.00156
684.827	0.00179
694.472	0.0009045
704.116	0.0009883
713.761	0.0011238
723.406	0.00159
733.051	0.0014079
742.695	0.00178
752.34	0.0015
761.985	0.00152
771.63	0.0012841
781.275	0.0029
790.919	0.00449
800.564	0.00611
810.209	0.00411
819.854	0.00334
829.498	0.00253
839.143	0.00264
848.788	0.00227
858.433	0.00275
868.078	0.00247
877.722	0.00225
887.367	0.00282
897.012	0.00249
906.657	0.00274
916.301	0.00324
925.946	0.0037
935.591	0.00565
945.236	0.00683
954.88	0.00797
964.525	0.00982
974.17	0.011
983.815	0.00954
993.46	0.00625
1003.1	0.0041
1012.75	0.00404
1022.39	0.0034
1032.04	0.00307
1041.68	0.00303
1051.33	0.00258
1060.97	0.00345
1070.62	0.00348
1080.26	0.0035
1089.91	0.0029
1099.55	0.00379
1109.2	0.00424
1118.84	0.00348
1128.49	0.00264
1138.13	0.00194
1147.78	0.00188
1157.42	0.00169
1167.07	0.00193
1176.71	0.00423
1186.36	0.0109
1196	0.01816
1205.64	0.0181
1215.29	0.01339
1224.93	0.01008
1234.58	0.00995
1244.22	0.0095
1253.87	0.00995
1263.51	0.00949
1273.16	0.00848
1282.8	0.00678
1292.45	0.00602
1302.09	0.00584
1311.74	0.00569
1321.38	0.00424
1331.03	0.00352
1340.67	0.00328
1350.32	0.00413
1359.96	0.00485
1369.61	0.00463
1379.25	0.00389
1388.9	0.00484
1398.54	0.00845
1408.18	0.01022
1417.83	0.00903
1427.47	0.00832
1437.12	0.01052
1446.76	0.01158
1456.41	0.01244
1466.05	0.01416
1475.7	0.01855
1485.34	0.02825
1494.99	0.04605
1504.63	0.05887
1514.28	0.04774
1523.92	0.02676
1533.57	0.01478
1543.21	0.00938
1552.86	0.00601
1562.5	0.00492
1572.15	0.00427
1581.79	0.00382
1591.44	0.00441
1601.08	0.0051
1610.73	0.00708
1620.37	0.00894
1630.01	0.00961
1639.66	0.00832
1649.3	0.0073
1658.95	0.00799
1668.59	0.01029
1678.24	0.01576
1687.88	0.02969
1697.53	0.05185
1707.17	0.05007
1716.82	0.02487
1726.46	0.01118
1736.11	0.00611
1745.75	0.00388
1755.4	0.00315
1765.04	0.00229
1774.69	0.00158
1784.33	0.00148
1793.98	0.0012451
1803.62	0.0011107
1813.27	0.0011337
1822.91	0.0011219
1832.55	0.0010896
1842.2	0.0011838
1851.84	0.001149
1861.49	0.0010706
1871.13	0.0012895
1880.78	0.0012359
1890.42	0.0013007
1900.07	0.0012925
1909.71	0.00154
1919.36	0.00172
1929	0.00181
1938.65	0.0014155
1948.29	0.001178
1957.94	0.0010926
1967.58	0.0011083
1977.23	0.0009055
1986.87	0.0012856
1996.52	0.0010298
2006.16	0.0009675
2015.81	0.0009807
2025.45	0.0009527
2035.1	0.0011634
2044.74	0.0011908
2054.38	0.0011061
2064.03	0.0011627
2073.67	0.0011541
2083.32	0.0009967
2092.96	0.0011592
2102.61	0.000905
2112.25	0.0011663
2121.9	0.0006974
2131.54	0.0009521
2141.19	0.0009345
2150.83	0.0011061
2160.48	0.0011735
2170.12	0.001296
2179.77	0.0008668
2189.41	0.0009392
2199.06	0.0007586
2208.7	0.0008381
2218.35	0.0010198
2227.99	0.0010512
2237.64	0.0009244
2247.28	0.0008631
2256.92	0.0009595
2266.57	0.0011248
2276.21	0.0010887
2285.86	0.0011942
2295.5	0.001171
2305.15	0.0014175
2314.79	0.0012437
2324.44	0.00167
2334.08	0.0013604
2343.73	0.0011881
2353.37	0.00147
2363.02	0.0013827
2372.66	0.0011255
2382.31	0.0007873
2391.95	0.0008177
2401.6	0.0006435
2411.24	0.000787
2420.89	0.0008983
2430.53	0.0011473
2440.18	0.0008498
2449.82	0.0010152
2459.47	0.0008544
2469.11	0.0007566
2478.75	0.000684
2488.4	0.0009349
2498.04	0.0010958
2507.69	0.0010252
2517.33	0.0007303
2526.98	0.0008545
2536.62	0.0010228
2546.27	0.0010619
2555.91	0.0010275
2565.56	0.0009452
2575.2	0.0009836
2584.85	0.0008952
2594.49	0.0006673
2604.14	0.0010377
2613.78	0.0007031
2623.43	0.0014102
2633.07	0.0011078
2642.72	0.0008839
2652.36	0.001004
2662.01	0.0007384
2671.65	0.0012276
2681.29	0.0013769
2690.94	0.0012292
2700.58	0.0010242
2710.23	0.0010585
2719.87	0.0010426
2729.52	0.0013009
2739.16	0.0011987
2748.81	0.0012626
2758.45	0.0008022
2768.1	0.0010195
2777.74	0.0006562
2787.39	0.0008481
2797.03	0.0012478
2806.68	0.0009243
2816.32	0.0012563
2825.97	0.0009881
2835.61	0.00162
2845.26	0.00192
2854.9	0.00203
2864.55	0.00253
2874.19	0.00303
2883.84	0.00312
2893.48	0.00296
2903.12	0.00306
2912.77	0.00322
2922.41	0.00461
2932.06	0.00571
2941.7	0.00691
2951.35	0.00577
2960.99	0.00481
2970.64	0.0036
2980.28	0.00355
2989.93	0.00352
2999.57	0.00273
3009.22	0.0025
3018.86	0.00268
3028.51	0.00329
3038.15	0.00254
3047.8	0.00249
3057.44	0.00209
3067.09	0.00204
3076.73	0.00173
3086.38	0.00277
3096.02	0.00306
3105.67	0.00328
3115.31	0.00224
3124.95	0.00193
3134.6	0.0006369
3144.24	0.0009938
3153.89	0.0011972
3163.53	0.0010757
3173.18	0.00151
3182.82	0.0009795
3192.47	0.0011674
3202.11	0.000854
3211.76	0.0011782
3221.4	0.0013463
3231.05	0.000756
3240.69	0.00145
3250.34	0.0010248
3259.98	0.0010828
3269.63	0.0011416
3279.27	0.00148
3288.92	0.00162
3298.56	0.00154
3308.21	0.00143
3317.85	0.00174
3327.49	0.00212
3337.14	0.00257
3346.78	0.00187
3356.43	0.00258
3366.07	0.00308
3375.72	0.00364
3385.36	0.00504
3395.01	0.00591
3404.65	0.00603
3414.3	0.0059
3423.94	0.00376
3433.59	0.00347
3443.23	0.00362
3452.88	0.00364
3462.52	0.00394
3472.17	0.00485
3481.81	0.00374
3491.46	0.00231
3501.1	0.0009823
3510.75	0.0010158
3520.39	0.0007076
3530.04	0.0013192
3539.68	0.0005847
3549.32	0.0012377
3558.97	0.0011748
3568.61	0.0010637
3578.26	0.0009737
3587.9	0.0010652
3597.55	0.00041195
3607.19	0.0005734
3616.84	0.0009365
3626.48	0.0008122
3636.13	0.0008072
3645.77	0.0007029
3655.42	0.000426819
3665.06	0.0007944
3674.71	0.0010051
3684.35	0.000217
3694	0.0007162
3703.64	0.00048485
3713.29	0.0008686
3722.93	0.0012106
3732.58	0.0007024
3742.22	0
3751.86	0.0009928
3761.51	0.0007291
3771.15	0.0005722
3780.8	0.00051811
3790.44	0.0006336
3800.09	0.00045698
3809.73	0.00044699
3819.38	0.0007779
3829.02	0.0006639
3838.67	0.0014199
3848.31	0.0008103
3857.96	0.000837
3867.6	0.0008449
3877.25	0.00048426
3886.89	0.00043129
3896.54	0.0009354
3906.18	0.0003443
3915.83	0.0006656
3925.47	0.0006645
3935.12	0.0008602
3944.76	0.0008444
3954.41	0.0011007
3964.05	0.0006234
3973.69	0.0007093
3983.34	0.0007793
3992.98	0.000896
