Infrared Spectrum: o-Methoxybenzaldehyde oxime
Formula: C 8 H 9 N O 2
CAS: 29577-53-5
State: gas
Origin: EPA-IR VAPOR PHASE LIBRARY
1/CM	ABSORBANCE
549.8	0.004061
559.445	0.004571
569.09	0.005851
578.734	0.006741
588.379	0.005951
598.024	0.004041
607.669	0.003751
617.313	0.005731
626.958	0.016761
636.603	0.023121
646.248	0.013131
655.893	0.006651
665.537	0.006461
675.182	0.006761
684.827	0.006111
694.472	0.006291
704.116	0.007661
713.761	0.009411
723.406	0.012041
733.051	0.022531
742.695	0.041381
752.34	0.054771
761.985	0.032511
771.63	0.017761
781.275	0.014641
790.919	0.011251
800.564	0.006471
810.209	0.005151
819.854	0.004801
829.498	0.004341
839.143	0.005301
848.788	0.009041
858.433	0.023031
868.078	0.039201
877.722	0.033121
887.367	0.017261
897.012	0.011271
906.657	0.011701
916.301	0.017361
925.946	0.032181
935.591	0.068751
945.236	0.094801
954.88	0.056891
964.525	0.013791
974.17	0.007891
983.815	0.007181
993.46	0.008191
1003.1	0.011031
1012.75	0.017941
1022.39	0.027401
1032.04	0.033131
1041.68	0.031401
1051.33	0.023481
1060.97	0.012981
1070.62	0.007881
1080.26	0.006371
1089.91	0.008041
1099.55	0.016951
1109.2	0.021811
1118.84	0.014541
1128.49	0.006191
1138.13	0.004591
1147.78	0.007521
1157.42	0.012291
1167.07	0.013171
1176.71	0.012621
1186.36	0.014191
1196	0.012661
1205.64	0.011031
1215.29	0.014251
1224.93	0.027321
1234.58	0.063381
1244.22	0.114951
1253.87	0.134211
1263.51	0.094871
1273.16	0.058501
1282.8	0.047041
1292.45	0.036901
1302.09	0.024741
1311.74	0.014841
1321.38	0.008631
1331.03	0.006211
1340.67	0.005361
1350.32	0.005051
1359.96	0.004951
1369.61	0.005711
1379.25	0.009331
1388.9	0.017121
1398.54	0.020661
1408.18	0.014471
1417.83	0.010571
1427.47	0.016621
1437.12	0.027031
1446.76	0.028881
1456.41	0.032061
1466.05	0.041671
1475.7	0.046261
1485.34	0.054991
1494.99	0.047441
1504.63	0.022591
1514.28	0.009351
1523.92	0.005661
1533.57	0.003761
1543.21	0.003511
1552.86	0.004541
1562.5	0.008031
1572.15	0.012881
1581.79	0.015621
1591.44	0.019461
1601.08	0.023541
1610.73	0.018651
1620.37	0.012381
1630.01	0.008421
1639.66	0.003531
1649.3	0.002261
1658.95	0.001821
1668.59	0.001871
1678.24	0.002181
1687.88	0.002351
1697.53	0.002071
1707.17	0.001861
1716.82	0.001661
1726.46	0.001421
1736.11	0.0012414
1745.75	0.0011949
1755.4	0.001341
1765.04	0.001641
1774.69	0.001961
1784.33	0.002081
1793.98	0.002101
1803.62	0.002231
1813.27	0.002281
1822.91	0.001951
1832.55	0.001781
1842.2	0.001671
1851.84	0.001981
1861.49	0.002521
1871.13	0.002961
1880.78	0.003291
1890.42	0.003501
1900.07	0.003241
1909.71	0.002521
1919.36	0.001951
1929	0.001871
1938.65	0.001931
1948.29	0.001431
1957.94	0.0008718
1967.58	0.0008297
1977.23	0.0009326
1986.87	0.0009019
1996.52	0.0010233
2006.16	0.001531
2015.81	0.002201
2025.45	0.002851
2035.1	0.002911
2044.74	0.002501
2054.38	0.002081
2064.03	0.001831
2073.67	0.001571
2083.32	0.0011182
2092.96	0.000883
2102.61	0.0007547
2112.25	0.0007638
2121.9	0.0007549
2131.54	0.0008309
2141.19	0.0008816
2150.83	0.000786
2160.48	0.000743
2170.12	0.0005874
2179.77	0.0005895
2189.41	0.0006352
2199.06	0.0006867
2208.7	0.0007084
2218.35	0.000694
2227.99	0.0007392
2237.64	0.0008889
2247.28	0.0010009
2256.92	0.0010567
2266.57	0.0011305
2276.21	0.0011344
2285.86	0.001025
2295.5	0.0008482
2305.15	0.0008675
2314.79	0.0008642
2324.44	0.0010676
2334.08	0.0009467
2343.73	0.0009356
2353.37	0.0008807
2363.02	0.0008087
2372.66	0.0009428
2382.31	0.0009053
2391.95	0.0008071
2401.6	0.0007298
2411.24	0.0007689
2420.89	0.000588
2430.53	0.0005393
2440.18	0.0005382
2449.82	0.0005999
2459.47	0.0006985
2469.11	0.0009212
2478.75	0.0012137
2488.4	0.001601
2498.04	0.001631
2507.69	0.001591
2517.33	0.0012901
2526.98	0.0012534
2536.62	0.0012669
2546.27	0.0012612
2555.91	0.001381
2565.56	0.0011427
2575.2	0.000922
2584.85	0.0009706
2594.49	0.0009054
2604.14	0.0009599
2613.78	0.0010037
2623.43	0.0011382
2633.07	0.001321
2642.72	0.001351
2652.36	0.0012061
2662.01	0.0007958
2671.65	0.000738
2681.29	0.0006832
2690.94	0.0007408
2700.58	0.0008128
2710.23	0.0008891
2719.87	0.0008557
2729.52	0.0005858
2739.16	0.0007184
2748.81	0.0007065
2758.45	0.0010449
2768.1	0.0012245
2777.74	0.001401
2787.39	0.001541
2797.03	0.001901
2806.68	0.002301
2816.32	0.003161
2825.97	0.005151
2835.61	0.009761
2845.26	0.014111
2854.9	0.012001
2864.55	0.007221
2874.19	0.005981
2883.84	0.006421
2893.48	0.007341
2903.12	0.008611
2912.77	0.010761
2922.41	0.012361
2932.06	0.014531
2941.7	0.021451
2951.35	0.024921
2960.99	0.021391
2970.64	0.015331
2980.28	0.012471
2989.93	0.012581
2999.57	0.015371
3009.22	0.016531
3018.86	0.013031
3028.51	0.009861
3038.15	0.009891
3047.8	0.010361
3057.44	0.011591
3067.09	0.014701
3076.73	0.017571
3086.38	0.014481
3096.02	0.007561
3105.67	0.004681
3115.31	0.003181
3124.95	0.002101
3134.6	0.001441
3144.24	0.001531
3153.89	0.001481
3163.53	0.0009579
3173.18	0.0008922
3182.82	0.0006598
3192.47	0.0005938
3202.11	0.00033012
3211.76	0.0004762
3221.4	0.00028474
3231.05	0.00028753
3240.69	0.00037749
3250.34	0.0004999
3259.98	0.0008305
3269.63	0.0011675
3279.27	0.000754
3288.92	0.0004768
3298.56	0.00037183
3308.21	0.0004853
3317.85	0.00034148
3327.49	0.0002693
3337.14	0.0004381
3346.78	0.000290135
3356.43	0.00014
3366.07	0.000144
3375.72	0.000257
3385.36	0.0002045
3395.01	0.000168
3404.65	0.00038099
3414.3	0.000112
3423.94	0.00038331
3433.59	0.0002259
3443.23	0.000134
3452.88	0.0002127
3462.52	0.0002037
3472.17	0.0002474
3481.81	0.0002119
3491.46	0.0002044
3501.1	0.0004151
3510.75	0.00028504
3520.39	0.0004659
3530.04	0.0004922
3539.68	0.0005521
3549.32	0.0004742
3558.97	0.0010018
3568.61	0.001441
3578.26	0.001511
3587.9	0.001801
3597.55	0.002401
3607.19	0.004451
3616.84	0.010101
3626.48	0.025051
3636.13	0.060421
3645.77	0.068191
3655.42	0.024961
3665.06	0.003031
3674.71	0.001931
3684.35	0.001601
3694	0.001631
3703.64	0.001461
3713.29	0.001431
3722.93	0.0009315
3732.58	0.0007829
3742.22	0.0005162
3751.86	0.0006
3761.51	0.00030961
3771.15	0.0004528
3780.8	0.00030153
3790.44	0.000211
3800.09	0.0002335
3809.73	0.00038871
3819.38	0.00031224
3829.02	0.000105
3838.67	0.0004286
3848.31	0.00031862
3857.96	0.0004001
3867.6	0.00033942
3877.25	0.0005644
3886.89	0.000300609
3896.54	0.0004314
3906.18	0.0002705
3915.83	0.0004597
3925.47	0.00048
3935.12	0.0005196
3944.76	0.0005542
3954.41	0.0004107
3964.05	0.0006999
3973.69	0.0005227
3983.34	0.0007108
3992.98	0.0007278
