Infrared Spectrum: PHOSPHORIC ACID, OCTADECYL ESTER
Formula: C18 H39 O4 P
CAS: 2958-09-0
State: SOLID (SPLIT MULL), FLUOROLUBE FOR 3800-1330 CM^-^1, NUJOL FOR 1330-460 CM^-^1
Melting point: 84-85 C
Class: COBLENTZ III
Instrument: DOW KBr FOREPRISM-GRATING
Instrument parameters: BLAZED AT 3.5, 12.0, 20.0 MICRON AND CHANGED AT 5.0, 7.5, 14.9 MICRON
Sampling: TRANSMISSION
Resolution: 2
Origin: DOW CHEMICAL COMPANY
1/CM	TRANSMITTANCE
455	0.5903
464	0.5524
473	0.5048
482	0.385
491	0.2497
500	0.2891
509	0.4532
518	0.6794
527	0.699
536	0.4375
545	0.2196
554	0.6497
563	0.7299
572	0.7954
581	0.8303
590	0.8452
599	0.8485
608	0.8464
617	0.8444
626	0.8408
635	0.8375
644	0.8428
653	0.838
662	0.8268
671	0.8017
680	0.785
689	0.7612
698	0.7278
707	0.6738
716	0.3473
725	0.4579
734	0.5517
743	0.5803
752	0.5741
761	0.5533
770	0.5348
779	0.5023
788	0.536
797	0.5597
806	0.6176
815	0.6465
824	0.6348
833	0.6293
842	0.4045
851	0.5707
860	0.7128
869	0.7315
878	0.7282
887	0.6925
896	0.7034
905	0.6971
914	0.6733
923	0.6385
932	0.5945
941	0.5269
950	0.4121
959	0.2844
968	0.1125
977	0.1217
986	0.2043
995	0.2499
1004	0.1586
1013	0.0989
1022	0.0184
1031	0.0067
1040	0.0079
1049	0.0243
1058	0.0243
1067	0.0892
1076	0.1244
1085	0.0626
1094	0.1517
1103	0.1221
1112	0.1568
1121	0.2956
1130	0.3394
1139	0.3603
1148	0.3775
1157	0.3825
1166	0.3593
1175	0.3902
1184	0.3941
1193	0.3864
1202	0.3622
1211	0.3193
1220	0.2495
1229	0.1221
1238	0.0561
1247	0.0816
1256	0.3306
1265	0.475
1274	0.5715
1283	0.6291
1292	0.6531
1301	0.6374
1310	0.674
1319	0.7194
1328	0.7096
1337	0.6415
1346	0.622
1355	0.6751
1364	0.704
1373	0.7058
1382	0.681
1391	0.7282
1400	0.7008
1409	0.6653
1418	0.6941
1427	0.7146
1436	0.7153
1445	0.6994
1454	0.6136
1463	0.6044
1472	0.1192
1481	0.5127
1490	0.7061
1499	0.7534
1508	0.7654
1517	0.7708
1526	0.7783
1535	0.785
1544	0.7886
1553	0.7898
1562	0.7897
1571	0.7886
1580	0.7868
1589	0.7847
1598	0.7828
1607	0.7825
1616	0.7882
1625	0.7893
1634	0.791
1643	0.7925
1652	0.7921
1661	0.7954
1670	0.8067
1679	0.8026
1688	0.7936
1697	0.7572
1706	0.7164
1715	0.7078
1724	0.7246
1733	0.7494
1742	0.7806
1751	0.7857
1760	0.7986
1769	0.8004
1778	0.7892
1787	0.8039
1796	0.8214
1805	0.8336
1814	0.837
1823	0.8375
1832	0.8365
1841	0.8342
1850	0.8301
1859	0.8246
1868	0.8194
1877	0.8178
1886	0.8158
1895	0.8172
1904	0.8217
1913	0.8237
1922	0.8215
1931	0.8165
1940	0.8128
1949	0.8098
1958	0.8039
1967	0.7947
1976	0.7865
1985	0.7788
1994	0.8068
2003	0.8249
2012	0.8175
2021	0.8005
2030	0.7961
2039	0.7928
2048	0.785
2057	0.7776
2066	0.7665
2075	0.7505
2084	0.7342
2093	0.7171
2102	0.7043
2111	0.6919
2120	0.6789
2129	0.6658
2138	0.6501
2147	0.6336
2156	0.6166
2165	0.6023
2174	0.5887
2183	0.5754
2192	0.5632
2201	0.555
2210	0.548
2219	0.5364
2228	0.5235
2237	0.5105
2246	0.5004
2255	0.491
2264	0.4828
2273	0.4747
2282	0.4677
2291	0.4616
2300	0.4574
2309	0.4538
2318	0.454
2327	0.4526
2336	0.4471
2345	0.4419
2354	0.4367
2363	0.43
2372	0.4258
2381	0.4251
2390	0.4246
2399	0.4264
2408	0.4293
2417	0.4362
2426	0.4469
2435	0.4605
2444	0.4745
2453	0.4871
2462	0.4955
2471	0.5015
2480	0.505
2489	0.5046
2498	0.5035
2507	0.5018
2516	0.4995
2525	0.4955
2534	0.4898
2543	0.482
2552	0.4719
2561	0.4609
2570	0.4495
2579	0.4357
2588	0.419
2597	0.4009
2606	0.3868
2615	0.374
2624	0.3634
2633	0.3532
2642	0.3432
2651	0.3332
2660	0.323
2669	0.3153
2678	0.3079
2687	0.3002
2696	0.2923
2705	0.2861
2714	0.2805
2723	0.2749
2732	0.2698
2741	0.2651
2750	0.2605
2759	0.2558
2768	0.2508
2777	0.2457
2786	0.24
2795	0.2323
2804	0.2235
2813	0.2131
2822	0.1995
2831	0.1744
2840	0.0759
2849	0.0001
2858	0.0986
2867	0.1163
2876	0.1146
2885	0.0865
2894	0.0572
2903	0.0088
2912	0.0005
2921	0.0044
2930	0.0271
2939	0.0819
2948	0.067
2957	0.0767
2966	0.1751
2975	0.2452
2984	0.2197
2993	0.3005
3002	0.3189
3011	0.3262
3020	0.3322
3029	0.3379
3038	0.344
3047	0.3506
3056	0.358
3065	0.366
3074	0.3755
3083	0.3859
3092	0.3994
3101	0.4158
3110	0.4304
3119	0.4483
3128	0.4662
3137	0.4827
3146	0.499
3155	0.5132
3164	0.5281
3173	0.5434
3182	0.5578
3191	0.5707
3200	0.5837
3209	0.5995
3218	0.617
3227	0.6377
3236	0.6584
3245	0.6747
3254	0.6939
3263	0.7143
3272	0.7286
3281	0.7398
3290	0.7508
3299	0.7621
3308	0.7739
3317	0.7839
3326	0.7937
3335	0.8018
3344	0.8091
3353	0.8155
3362	0.8212
3371	0.8263
3380	0.83
3389	0.8335
3398	0.8361
3407	0.8385
3416	0.8417
3425	0.8449
3434	0.8477
3443	0.8505
3452	0.8537
3461	0.8568
3470	0.8602
3479	0.8637
3488	0.8666
3497	0.8685
3506	0.8706
3515	0.8728
3524	0.8751
3533	0.8771
3542	0.8787
3551	0.8802
3560	0.88
3569	0.8799
3578	0.8803
3587	0.8795
3596	0.8815
3605	0.8862
3614	0.8878
3623	0.8892
3632	0.8909
3641	0.8923
3650	0.8935
3659	0.894
3668	0.8943
3677	0.8951
3686	0.8971
3695	0.8985
3704	0.8988
3713	0.8971
3722	0.8945
3731	0.8928
3740	0.8912
3749	0.8896
3758	0.8882
3767	0.8873
3776	0.8862
3785	0.8849
3794	0.8838
