Infrared Spectrum: Isopropyl diphenyl phosphine oxide
Formula: C 15 H 17 O P
CAS: 2959-75-3
State: gas
Origin: EPA-IR VAPOR PHASE LIBRARY
1/CM	ABSORBANCE
549.9	0.04577
559.547	0.00842
569.193	0.00412
578.84	0.00294
588.486	0.00258
598.133	0.0024
607.779	0.00265
617.426	0.00393
627.072	0.00424
636.719	0.0099
646.365	0.01884
656.012	0.01636
665.658	0.00935
675.305	0.01082
684.951	0.01805
694.598	0.04773
704.245	0.07977
713.891	0.07211
723.538	0.04425
733.184	0.01161
742.831	0.00939
752.477	0.0084
762.124	0.00464
771.77	0.00325
781.417	0.00267
791.063	0.00222
800.71	0.0018177
810.356	0.001427
820.003	0.0014041
829.649	0.001293
839.296	0.0013081
848.943	0.0017788
858.589	0.0035
868.236	0.00755
877.882	0.0084
887.529	0.00426
897.175	0.00214
906.822	0.0016706
916.468	0.0018211
926.115	0.00279
935.761	0.00332
945.408	0.001996
955.054	0.00164
964.701	0.0016029
974.347	0.0016523
983.994	0.00217
993.64	0.00407
1003.29	0.00432
1012.93	0.00451
1022.58	0.00833
1032.23	0.00661
1041.87	0.00312
1051.52	0.00299
1061.17	0.00505
1070.81	0.00642
1080.46	0.00661
1090.11	0.0106
1099.75	0.02377
1109.4	0.04849
1119.05	0.04281
1128.69	0.00933
1138.34	0.00416
1147.99	0.00343
1157.63	0.00393
1167.28	0.00375
1176.92	0.00565
1186.57	0.00975
1196.22	0.01619
1205.86	0.04246
1215.51	0.07246
1225.16	0.0292
1234.8	0.00734
1244.45	0.00545
1254.1	0.00575
1263.74	0.00585
1273.39	0.00474
1283.04	0.00387
1292.68	0.00345
1302.33	0.00386
1311.98	0.00352
1321.62	0.00291
1331.27	0.00304
1340.92	0.00228
1350.56	0.0019008
1360.21	0.00219
1369.86	0.00317
1379.5	0.00369
1389.15	0.00487
1398.79	0.00402
1408.44	0.00324
1418.09	0.00423
1427.73	0.00862
1437.38	0.01821
1447.03	0.01011
1456.67	0.00665
1466.32	0.00834
1475.97	0.00805
1485.61	0.00609
1495.26	0.00305
1504.91	0.0018134
1514.55	0.0015675
1524.2	0.0014775
1533.85	0.0015681
1543.49	0.0015061
1553.14	0.0013894
1562.79	0.0013655
1572.43	0.0015717
1582.08	0.00212
1591.73	0.00254
1601.37	0.0018186
1611.02	0.0014703
1620.67	0.0013335
1630.31	0.00118166
1639.96	0.0013043
1649.6	0.0015408
1659.25	0.0020352
1668.9	0.0020594
1678.54	0.0014011
1688.19	0.0010331
1697.84	0.000965
1707.48	0.000866
1717.13	0.000937
1726.78	0.000861
1736.42	0.000851
1746.07	0.000931
1755.72	0.0012927
1765.36	0.0014684
1775.01	0.0014117
1784.66	0.00113955
1794.3	0.0012665
1803.95	0.00249
1813.6	0.00342
1823.24	0.00238
1832.89	0.0017107
1842.54	0.0011915
1852.18	0.0010324
1861.83	0.00109975
1871.47	0.0014215
1881.12	0.0020799
1890.77	0.00249
1900.41	0.00247
1910.06	0.0018772
1919.71	0.0012306
1929.35	0.001049
1939	0.0013411
1948.65	0.00217
1958.29	0.00267
1967.94	0.00239
1977.59	0.0015114
1987.23	0.000813
1996.88	0.000719
2006.53	0.00065
2016.17	0.000598
2025.82	0.000582
2035.47	0.00058
2045.11	0.000595
2054.76	0.000625
2064.41	0.000523
2074.05	0.000495
2083.7	0.000536
2093.35	0.000505
2102.99	0.000507
2112.64	0.000563
2122.28	0.00058
2131.93	0.000624
2141.58	0.000555
2151.22	0.000541
2160.87	0.000518
2170.52	0.000541
2180.16	0.000549
2189.81	0.000643
2199.46	0.000689
2209.1	0.000743
2218.75	0.000837
2228.4	0.00072
2238.04	0.000687
2247.69	0.000747
2257.34	0.000672
2266.98	0.000699
2276.63	0.00069
2286.28	0.000796
2295.92	0.000783
2305.57	0.000897
2315.22	0.00118517
2324.86	0.000992
2334.51	0.000753
2344.16	0.000868
2353.8	0.000766
2363.45	0.000688
2373.09	0.000685
2382.74	0.000659
2392.39	0.000728
2402.03	0.000709
2411.68	0.000725
2421.33	0.000722
2430.97	0.000668
2440.62	0.000625
2450.27	0.000585
2459.91	0.000519
2469.56	0.00057
2479.21	0.00055
2488.85	0.000542
2498.5	0.000559
2508.15	0.000518
2517.79	0.000546
2527.44	0.000601
2537.09	0.000606
2546.73	0.000594
2556.38	0.000569
2566.03	0.000651
2575.67	0.00064
2585.32	0.000767
2594.96	0.000766
2604.61	0.000665
2614.26	0.000688
2623.9	0.000656
2633.55	0.000546
2643.2	0.000516
2652.84	0.000489
2662.49	0.000513
2672.14	0.000638
2681.78	0.000722
2691.43	0.000959
2701.08	0.000937
2710.72	0.00075
2720.37	0.000771
2730.02	0.000814
2739.66	0.000931
2749.31	0.000783
2758.96	0.000704
2768.6	0.000763
2778.25	0.000828
2787.9	0.00085
2797.54	0.00078
2807.19	0.00093
2816.84	0.0010255
2826.48	0.0013096
2836.13	0.0013877
2845.77	0.001678
2855.42	0.00244
2865.07	0.00422
2874.71	0.00922
2884.36	0.01452
2894.01	0.01383
2903.65	0.01322
2913.3	0.01051
2922.95	0.01036
2932.59	0.01402
2942.24	0.01821
2951.89	0.01375
2961.53	0.01641
2971.18	0.02668
2980.83	0.02296
2990.47	0.01066
3000.12	0.00577
3009.77	0.00634
3019.41	0.00743
3029.06	0.00769
3038.71	0.00728
3048.35	0.01018
3058	0.0236
3067.64	0.03404
3077.29	0.02296
3086.94	0.01705
3096.58	0.00881
3106.23	0.00419
3115.88	0.0025
3125.52	0.0017652
3135.17	0.0018052
3144.82	0.00218
3154.46	0.001828
3164.11	0.0010641
3173.76	0.000802
3183.4	0.000586
3193.05	0.000515
3202.7	0.000476
3212.34	0.00026
3221.99	0.000361
3231.64	0.000415
3241.28	0.000223
3250.93	0.000309
3260.58	0.000199
3270.22	0.000184
3279.87	0.000293
3289.52	0.000152
3299.16	0.0002
3308.81	0.00035
3318.45	0.00012
3328.1	0.000244
3337.75	0.000222
3347.39	0.000195
3357.04	0.000389
3366.69	8e-05
3376.33	0.000232
3385.98	0.00011
3395.63	0.000204
3405.27	0.000151
3414.92	0.000236
3424.57	0.000227
3434.21	0.000257
3443.86	0.000223
3453.51	0.000326
3463.15	0.000246
3472.8	0.000186
3482.45	0.000299
3492.09	0.000283
3501.74	0.000405
3511.39	0.000462
3521.03	0.00031
3530.68	0.000389
3540.33	0.000256
3549.97	0.00033
3559.62	0.000463
3569.26	0.000371
3578.91	0.00036
3588.56	0.00032
3598.2	0.000296
3607.85	0.000548
3617.5	0.00051
3627.14	0.000485
3636.79	0.00051
3646.44	0.000654
3656.08	0.000496
3665.73	0.000427
3675.38	0.000343
3685.02	0.00052
3694.67	0.000558
3704.32	0.000601
3713.96	0.000556
3723.61	0.00049
3733.26	0.000403
3742.9	0.000485
3752.55	0.000662
3762.2	0.000504
3771.84	0.000604
3781.49	0.000691
3791.13	0.000569
3800.78	0.000644
3810.43	0.000405
3820.07	0.00037
3829.72	0.000438
3839.37	0.00045
3849.01	0.000506
3858.66	0.000474
3868.31	0.000488
3877.95	0.000451
3887.6	0.00053
3897.25	0.000528
3906.89	0.000498
3916.54	0.000522
3926.19	0.00059
3935.83	0.000454
3945.48	0.000453
3955.13	0.000324
3964.77	0.0005
3974.42	0.000602
3984.07	0.000548
3993.71	0.000529
