Infrared Spectrum: 1-Chloro-2,3-indoledione
Formula: C 8 H 4 Cl N O 2
CAS: 2959-03-7
State: gas
Origin: EPA-IR VAPOR PHASE LIBRARY
1/CM	ABSORBANCE
549.8	0.0011663
559.445	0.0010784
569.09	0.001494
578.734	0.002584
588.379	0.001534
598.024	0.0005619
607.669	0.0006358
617.313	0.0005994
626.958	0.0008402
636.603	0.0007532
646.248	0.001784
655.893	0.002194
665.537	0.001504
675.182	0.001263
684.827	0.002844
694.472	0.007774
704.116	0.006124
713.761	0.001934
723.406	0.001824
733.051	0.003014
742.695	0.003104
752.34	0.0012577
761.985	0.0008583
771.63	0.0005006
781.275	0.000931
790.919	0.0012261
800.564	0.002604
810.209	0.005974
819.854	0.007034
829.498	0.003744
839.143	0.001364
848.788	0.0007869
858.433	0.0010371
868.078	0.0012275
877.722	0.001314
887.367	0.001874
897.012	0.003204
906.657	0.002704
916.301	0.001834
925.946	0.0010387
935.591	0.0009774
945.236	0.0008031
954.88	0.0009006
964.525	0.0009404
974.17	0.0011265
983.815	0.0010878
993.46	0.0008659
1003.1	0.0006371
1012.75	0.000455
1022.39	0.0005859
1032.04	0.0006628
1041.68	0.0011
1051.33	0.002514
1060.97	0.003684
1070.62	0.003034
1080.26	0.001644
1089.91	0.002054
1099.55	0.004434
1109.2	0.011574
1118.84	0.014294
1128.49	0.006794
1138.13	0.002954
1147.78	0.004704
1157.42	0.006514
1167.07	0.011064
1176.71	0.025444
1186.36	0.018394
1196	0.006994
1205.64	0.002744
1215.29	0.002764
1224.93	0.005054
1234.58	0.005734
1244.22	0.004904
1253.87	0.007204
1263.51	0.013364
1273.16	0.014104
1282.8	0.009284
1292.45	0.004214
1302.09	0.003034
1311.74	0.001944
1321.38	0.001434
1331.03	0.0010911
1340.67	0.0011656
1350.32	0.002434
1359.96	0.005234
1369.61	0.006004
1379.25	0.001884
1388.9	0.0010968
1398.54	0.001574
1408.18	0.002864
1417.83	0.003784
1427.47	0.006754
1437.12	0.014574
1446.76	0.019444
1456.41	0.016554
1466.05	0.028764
1475.7	0.030074
1485.34	0.009044
1494.99	0.002654
1504.63	0.001354
1514.28	0.0010285
1523.92	0.0009696
1533.57	0.0011683
1543.21	0.0011143
1552.86	0.0008643
1562.5	0.0009891
1572.15	0.001454
1581.79	0.003024
1591.44	0.006664
1601.08	0.015954
1610.73	0.026104
1620.37	0.023034
1630.01	0.016004
1639.66	0.007684
1649.3	0.003684
1658.95	0.002214
1668.59	0.001414
1678.24	0.001504
1687.88	0.002254
1697.53	0.003244
1707.17	0.003914
1716.82	0.004284
1726.46	0.005444
1736.11	0.008644
1745.75	0.017364
1755.4	0.042164
1765.04	0.051204
1774.69	0.032454
1784.33	0.062724
1793.98	0.062484
1803.62	0.017524
1813.27	0.008354
1822.91	0.004244
1832.55	0.002524
1842.2	0.001854
1851.84	0.001624
1861.49	0.001694
1871.13	0.001544
1880.78	0.001314
1890.42	0.0010211
1900.07	0.0008507
1909.71	0.0008843
1919.36	0.0008811
1929	0.0008731
1938.65	0.0007543
1948.29	0.0006097
1957.94	0.0005096
1967.58	0.0006138
1977.23	0.0006147
1986.87	0.0005258
1996.52	0.0006563
2006.16	0.0006124
2015.81	0.000554
2025.45	0.0004607
2035.1	0.0004531
2044.74	0.0004779
2054.38	0.0004589
2064.03	0.0005385
2073.67	0.0004735
2083.32	0.0005954
2092.96	0.0006499
2102.61	0.0006852
2112.25	0.0006887
2121.9	0.0006697
2131.54	0.0006779
2141.19	0.0007145
2150.83	0.000669
2160.48	0.0006407
2170.12	0.0004521
2179.77	0.000548
2189.41	0.0005318
2199.06	0.000585
2208.7	0.0005513
2218.35	0.0006054
2227.99	0.0006128
2237.64	0.000509
2247.28	0.0005524
2256.92	0.0005358
2266.57	0.0004596
2276.21	0.0005434
2285.86	0.0005897
2295.5	0.0007005
2305.15	0.0007347
2314.79	0.0007118
2324.44	0.0007516
2334.08	0.0007394
2343.73	0.0006047
2353.37	0.0006676
2363.02	0.000588
2372.66	0.0006958
2382.31	0.0006478
2391.95	0.0006432
2401.6	0.0006168
2411.24	0.0006129
2420.89	0.000548
2430.53	0.000599
2440.18	0.0004403
2449.82	0.0005064
2459.47	0.0005962
2469.11	0.0006441
2478.75	0.0005148
2488.4	0.0006014
2498.04	0.000566
2507.69	0.0005863
2517.33	0.0005755
2526.98	0.0005548
2536.62	0.000488
2546.27	0.0004776
2555.91	0.0005214
2565.56	0.0005228
2575.2	0.000622
2584.85	0.0005712
2594.49	0.0006942
2604.14	0.0005583
2613.78	0.0005258
2623.43	0.0005675
2633.07	0.0004385
2642.72	0.0004754
2652.36	0.0005051
2662.01	0.0004738
2671.65	0.0005389
2681.29	0.0004341
2690.94	0.000588
2700.58	0.000488
2710.23	0.0005363
2719.87	0.0004813
2729.52	0.0005262
2739.16	0.000527
2748.81	0.0005011
2758.45	0.00066
2768.1	0.0004919
2777.74	0.0004156
2787.39	0.0004883
2797.03	0.000516
2806.68	0.0004702
2816.32	0.0005077
2825.97	0.0004447
2835.61	0.0005248
2845.26	0.0005864
2854.9	0.0004974
2864.55	0.0005795
2874.19	0.0005298
2883.84	0.00034074
2893.48	0.00036547
2903.12	0.0004194
2912.77	0.0004126
2922.41	0.0005206
2932.06	0.00030071
2941.7	0.0005255
2951.35	0.0005029
2960.99	0.0004915
2970.64	0.0004447
2980.28	0.0005292
2989.93	0.0005546
2999.57	0.0005112
3009.22	0.0005252
3018.86	0.000603
3028.51	0.0007837
3038.15	0.0008279
3047.8	0.0008473
3057.44	0.0009095
3067.09	0.0010478
3076.73	0.0010611
3086.38	0.0008554
3096.02	0.000645
3105.67	0.0004995
3115.31	0.00032398
3124.95	0.0003755
3134.6	0.00028562
3144.24	0.0004722
3153.89	0.00032978
3163.53	0.0004477
3173.18	0.0004358
3182.82	0.00036182
3192.47	0.0004549
3202.11	0.0004745
3211.76	0.0005026
3221.4	0.0005223
3231.05	0.0004758
3240.69	0.0002516
3250.34	0.0002511
3259.98	0.00028142
3269.63	0.0004539
3279.27	0.0003798
3288.92	0.0004194
3298.56	0.0004502
3308.21	0.00034435
3317.85	0.0004293
3327.49	0.0004353
3337.14	0.0002509
3346.78	0.00034187
3356.43	0.0004244
3366.07	0.0004183
3375.72	0.0005189
3385.36	0.00035748
3395.01	0.0003859
3404.65	0.0004347
3414.3	0.00033464
3423.94	0.0005348
3433.59	0.0006416
3443.23	0.001604
3452.88	0.004054
3462.52	0.008214
3472.17	0.008764
3481.81	0.004704
3491.46	0.001854
3501.1	0.001474
3510.75	0.001274
3520.39	0.0007916
3530.04	0.0007112
3539.68	0.0008333
3549.32	0.0010945
3558.97	0.001294
3568.61	0.001223
3578.26	0.0007355
3587.9	0.0004797
3597.55	0.0003905
3607.19	0.000126
3616.84	0.00012
3626.48	7.4e-05
3636.13	0.000133
3645.77	0.00027719
3655.42	8.7e-05
3665.06	0.000125
3674.71	0.00035916
3684.35	0.00035489
3694	0.00026878
3703.64	0.000115
3713.29	0.0002404
3722.93	7e-05
3732.58	0.00033442
3742.22	0.0002528
3751.86	0.0002202
3761.51	0.00037031
3771.15	0.0002408
3780.8	0.00033526
3790.44	0.000277937
3800.09	0.00034882
3809.73	0.00034146
3819.38	0.0002465
3829.02	0.0002571
3838.67	0.000157
3848.31	0.0002219
3857.96	0.0002705
3867.6	0.0003928
3877.25	0.0002325
3886.89	0.00029107
3896.54	0.0002265
3906.18	5.6e-05
3915.83	0.000168
3925.47	3.5e-05
3935.12	0.0002436
3944.76	0.0002059
3954.41	0.0002185
3964.05	0.0002269
3973.69	0.000125
3983.34	0.0002098
3992.98	8.2e-05
