Infrared Spectrum: 4,7,13,16-TETRAOXA-1,10-DITHIACYCLOOCTADECANE
Formula: C12 H24 O4 S2
CAS: 296-39-9
State: SOLID (KBr PRESSING)
Melting point: 90-91 C
Class: COBLENTZ
Instrument: Not specified, most likely a prism, grating, or hybrid spectrometer.
Sampling: TRANSMISSION
Resolution: 4
Origin: EASTMAN KODAK COMPANY, RESEARCH LABORATORIES, ROCHESTER, N.Y.
MICROMETERS	TRANSMITTANCE
2.052	0.859
2.0871	0.859
2.1222	0.862
2.1573	0.871
2.19239	0.873
2.22749	0.853
2.26259	0.843
2.29769	0.848
2.33279	0.857
2.36789	0.86
2.40298	0.862
2.43808	0.862
2.47318	0.859
2.50828	0.864
2.54338	0.869
2.57848	0.874
2.61358	0.885
2.64867	0.886
2.68377	0.899
2.71887	0.9
2.75397	0.9
2.78907	0.89
2.82417	0.859
2.85926	0.84
2.89436	0.829
2.92946	0.812
2.96456	0.824
2.99966	0.85
3.03476	0.86
3.06985	0.869
3.10495	0.876
3.14005	0.886
3.17515	0.89
3.21025	0.892
3.24535	0.897
3.28045	0.897
3.31554	0.883
3.35064	0.824
3.38574	0.655
3.42084	0.382
3.45594	0.212
3.49104	0.17
3.52613	0.321
3.56123	0.511
3.59633	0.612
3.63143	0.626
3.66653	0.798
3.70163	0.796
3.73673	0.786
3.77182	0.85
3.80692	0.871
3.84202	0.885
3.87712	0.893
3.91222	0.892
3.94732	0.907
3.98241	0.921
4.01751	0.914
4.05261	0.913
4.08771	0.913
4.12281	0.914
4.15791	0.921
4.193	0.921
4.2281	0.928
4.2632	0.93
4.2983	0.935
4.3334	0.939
4.3685	0.939
4.4036	0.939
4.43869	0.935
4.47379	0.923
4.50889	0.904
4.54399	0.911
4.57909	0.916
4.61419	0.918
4.64928	0.925
4.68438	0.933
4.71948	0.935
4.75458	0.921
4.78968	0.921
4.82478	0.916
4.85988	0.926
4.89497	0.921
4.93007	0.918
4.96517	0.902
5.00027	0.92
5.03537	0.914
5.07047	0.928
5.10556	0.944
5.14066	0.928
5.17576	0.914
5.21086	0.923
5.24596	0.926
5.28106	0.933
5.31615	0.951
5.35125	0.953
5.38635	0.949
5.42145	0.953
5.45655	0.958
5.49165	0.96
5.52675	0.954
5.56184	0.954
5.59694	0.966
5.63204	0.958
5.66714	0.954
5.70224	0.949
5.73734	0.953
5.77243	0.951
5.80753	0.944
5.84263	0.937
5.87773	0.937
5.91283	0.939
5.94793	0.94
5.98303	0.937
6.01812	0.93
6.05322	0.925
6.08832	0.914
6.12342	0.907
6.15852	0.906
6.19362	0.906
6.22871	0.914
6.26381	0.92
6.29891	0.918
6.33401	0.923
6.36911	0.928
6.40421	0.932
6.4393	0.932
6.4744	0.93
6.5095	0.925
6.5446	0.914
6.5797	0.918
6.6148	0.918
6.6499	0.902
6.68499	0.89
6.72009	0.859
6.75519	0.645
6.79029	0.459
6.82539	0.608
6.86049	0.76
6.89558	0.471
6.93068	0.777
6.96578	0.78
7.00088	0.634
7.03598	0.622
7.07108	0.558
7.10618	0.8
7.14127	0.834
7.17637	0.782
7.21147	0.801
7.24657	0.82
7.28167	0.805
7.31677	0.514
7.35186	0.606
7.38696	0.499
7.42206	0.2
7.45716	0.601
7.49226	0.8
7.52736	0.841
7.56245	0.843
7.59755	0.843
7.63265	0.843
7.66775	0.786
7.70285	0.62
7.73795	0.45
7.77305	0.652
7.80814	0.587
7.84324	0.509
7.87834	0.666
7.91344	0.726
7.94854	0.678
7.98364	0.528
8.01873	0.612
8.05383	0.702
8.08893	0.573
8.12403	0.579
8.15913	0.54
8.19423	0.794
8.22933	0.782
8.26442	0.589
8.29952	0.474
8.33462	0.645
8.36972	0.737
8.40482	0.772
8.43992	0.77
8.47501	0.742
8.51011	0.704
8.54521	0.655
8.58031	0.612
8.61541	0.554
8.65051	0.483
8.6856	0.401
8.7207	0.306
8.7558	0.184
8.7909	0.099
8.826	0.086
8.8611	0.114
8.8962	0.1
8.93129	0.048
8.96639	0.033
9.00149	0.06
9.03659	0.142
9.07169	0.234
9.10679	0.318
9.14188	0.403
9.17698	0.453
9.21208	0.453
9.24718	0.281
9.28228	0.135
9.31738	0.173
9.35248	0.342
9.38757	0.406
9.42267	0.285
9.45777	0.3
9.49287	0.215
9.52797	0.175
9.56307	0.231
9.59816	0.252
9.63326	0.267
9.66836	0.398
9.70346	0.473
9.73856	0.532
9.77366	0.549
9.80876	0.57
9.84385	0.542
9.87895	0.441
9.91405	0.507
9.94915	0.587
9.98425	0.627
10.0193	0.655
10.0544	0.681
10.0895	0.685
10.1246	0.702
10.1597	0.704
10.1948	0.706
10.2299	0.674
10.265	0.657
10.3001	0.657
10.3352	0.685
10.3703	0.72
10.4054	0.737
10.4405	0.751
10.4756	0.77
10.5107	0.782
10.5458	0.787
10.5809	0.793
10.616	0.796
10.6511	0.801
10.6862	0.801
10.7213	0.81
10.7564	0.813
10.7915	0.82
10.8266	0.82
10.8617	0.812
10.8968	0.779
10.9319	0.685
10.967	0.506
11.0021	0.372
11.0372	0.561
11.0723	0.667
11.1074	0.72
11.1425	0.763
11.1776	0.772
11.2127	0.747
11.2478	0.58
11.2829	0.434
11.318	0.495
11.3531	0.606
11.3882	0.709
11.4233	0.744
11.4584	0.772
11.4935	0.798
11.5286	0.808
11.5637	0.812
11.5988	0.822
11.6339	0.824
11.669	0.827
11.7041	0.826
11.7392	0.833
11.7743	0.833
11.8094	0.846
11.8445	0.85
11.8796	0.85
11.9147	0.859
11.9498	0.859
11.9849	0.86
12.02	0.86
12.0551	0.86
12.0902	0.864
12.1253	0.866
12.1604	0.864
12.1954	0.86
12.2305	0.855
12.2656	0.834
12.3007	0.747
12.3358	0.561
12.3709	0.523
12.406	0.673
12.4411	0.753
12.4762	0.791
12.5113	0.805
12.5464	0.822
12.5815	0.829
12.6166	0.827
12.6517	0.836
12.6868	0.852
12.7219	0.852
12.757	0.852
12.7921	0.859
12.8272	0.86
12.8623	0.859
12.8974	0.857
12.9325	0.853
12.9676	0.833
13.0027	0.726
13.0378	0.704
13.0729	0.756
13.108	0.791
13.1431	0.796
13.1782	0.766
13.2133	0.648
13.2484	0.64
13.2835	0.688
13.3186	0.746
13.3537	0.775
13.3888	0.8
13.4239	0.824
13.459	0.831
13.4941	0.829
13.5292	0.831
13.5643	0.836
13.5994	0.841
13.6345	0.841
13.6696	0.841
13.7047	0.846
13.7398	0.846
13.7749	0.846
13.81	0.846
13.8451	0.843
13.8802	0.838
13.9153	0.834
13.9504	0.833
13.9855	0.831
14.0206	0.829
14.0557	0.829
14.0908	0.827
14.1259	0.822
14.161	0.808
14.1961	0.801
14.2312	0.794
14.2663	0.793
14.3014	0.787
14.3365	0.779
14.3716	0.77
14.4067	0.763
14.4417	0.758
14.4768	0.754
14.5119	0.747
14.547	0.739
14.5821	0.723
14.6172	0.72
14.6523	0.711
14.6874	0.707
14.7225	0.692
14.7576	0.683
14.7927	0.676
14.8278	0.66
14.8629	0.657
14.898	0.662
14.9331	0.686
14.9682	0.6
15.0033	0.544
15.0384	0.56
15.0735	0.518
15.1086	0.471
15.1437	0.466
15.1788	0.481
15.2139	0.516
15.249	0.535
15.2841	0.542
15.3192	0.553
15.3543	0.556
15.3894	0.556
15.4245	0.551
15.4596	0.549
15.4947	0.549
15.5298	0.551
15.5649	0.549
15.6	0.544
15.6351	0.539
15.6702	0.539
15.7053	0.539
15.7404	0.537
15.7755	0.535
15.8106	0.533
15.8457	0.533
15.8808	0.533
15.9159	0.532
15.951	0.532
15.9861	0.53
