Infrared Spectrum: (S)-(-)-2-Chloropropionic acid
Formula: C 3 H 5 Cl O 2
CAS: 29617-66-1
State: gas
Origin: EPA-IR VAPOR PHASE LIBRARY
1/CM	ABSORBANCE
549.8	0.007552
559.445	0.007552
569.09	0.006972
578.734	0.007352
588.379	0.008502
598.024	0.007772
607.669	0.007472
617.313	0.006722
626.958	0.004822
636.603	0.005402
646.248	0.006002
655.893	0.006382
665.537	0.006622
675.182	0.005952
684.827	0.005952
694.472	0.004912
704.116	0.004802
713.761	0.003862
723.406	0.003532
733.051	0.002402
742.695	0.003022
752.34	0.002302
761.985	0.002342
771.63	0.002182
781.275	0.001852
790.919	0.002382
800.564	0.002092
810.209	0.002252
819.854	0.002692
829.498	0.002532
839.143	0.002232
848.788	0.002032
858.433	0.0014706
868.078	0.0011839
877.722	0.0015591
887.367	0.0011244
897.012	0.001802
906.657	0.0014378
916.301	0.001424
925.946	0.0014689
935.591	0.0014917
945.236	0.0013753
954.88	0.001882
964.525	0.002652
974.17	0.003052
983.815	0.004392
993.46	0.004572
1003.1	0.003392
1012.75	0.002682
1022.39	0.003512
1032.04	0.003692
1041.68	0.005152
1051.33	0.007622
1060.97	0.008662
1070.62	0.011432
1080.26	0.013372
1089.91	0.012282
1099.55	0.009552
1109.2	0.011152
1118.84	0.012042
1128.49	0.014172
1138.13	0.015672
1147.78	0.016032
1157.42	0.012972
1167.07	0.011012
1176.71	0.009722
1186.36	0.008402
1196	0.005772
1205.64	0.005542
1215.29	0.004542
1224.93	0.005592
1234.58	0.005952
1244.22	0.006462
1253.87	0.004722
1263.51	0.004282
1273.16	0.004712
1282.8	0.004102
1292.45	0.004002
1302.09	0.004732
1311.74	0.004932
1321.38	0.005842
1331.03	0.006752
1340.67	0.006802
1350.32	0.006712
1359.96	0.006142
1369.61	0.005712
1379.25	0.005602
1388.9	0.005152
1398.54	0.003962
1408.18	0.002642
1417.83	0.002062
1427.47	0.002182
1437.12	0.002572
1446.76	0.003312
1456.41	0.003032
1466.05	0.002472
1475.7	0.001812
1485.34	0.0012429
1494.99	0.00081991
1504.63	0.0006781
1514.28	0.0008051
1523.92	0.0008383
1533.57	0.00075135
1543.21	0.0008333
1552.86	0.0010855
1562.5	0.0008476
1572.15	0.0012423
1581.79	0.0012381
1591.44	0.0010783
1601.08	0.001527
1610.73	0.002062
1620.37	0.002012
1630.01	0.001992
1639.66	0.0016415
1649.3	0.001732
1658.95	0.001822
1668.59	0.001902
1678.24	0.001882
1687.88	0.002142
1697.53	0.002092
1707.17	0.002602
1716.82	0.003002
1726.46	0.003852
1736.11	0.005552
1745.75	0.008132
1755.4	0.012982
1765.04	0.020672
1774.69	0.028032
1784.33	0.031842
1793.98	0.028412
1803.62	0.020392
1813.27	0.013012
1822.91	0.007502
1832.55	0.004232
1842.2	0.002842
1851.84	0.002042
1861.49	0.002042
1871.13	0.0017055
1880.78	0.0015632
1890.42	0.0015657
1900.07	0.0015093
1909.71	0.0014568
1919.36	0.0013867
1929	0.0015145
1938.65	0.0014037
1948.29	0.0014466
1957.94	0.0015176
1967.58	0.0014475
1977.23	0.0014395
1986.87	0.0014122
1996.52	0.0013337
2006.16	0.0010702
2015.81	0.0012249
2025.45	0.001504
2035.1	0.0011934
2044.74	0.0012852
2054.38	0.00122
2064.03	0.0010556
2073.67	0.0011946
2083.32	0.0012689
2092.96	0.0011892
2102.61	0.0010005
2112.25	0.000957
2121.9	0.0010786
2131.54	0.0013591
2141.19	0.0010834
2150.83	0.001138
2160.48	0.0009434
2170.12	0.001141
2179.77	0.0009896
2189.41	0.0011699
2199.06	0.0012122
2208.7	0.0010477
2218.35	0.0011798
2227.99	0.001049
2237.64	0.0014169
2247.28	0.0009424
2256.92	0.0012765
2266.57	0.0012582
2276.21	0.0009838
2285.86	0.0011404
2295.5	0.0015156
2305.15	0.0014092
2314.79	0.001464
2324.44	0.0013
2334.08	0.0014653
2343.73	0.001752
2353.37	0.0015984
2363.02	0.0016732
2372.66	0.0016815
2382.31	0.0014591
2391.95	0.0011189
2401.6	0.0013386
2411.24	0.0012127
2420.89	0.0010112
2430.53	0.000677
2440.18	0.0012119
2449.82	0.0008893
2459.47	0.0010947
2469.11	0.0013451
2478.75	0.0009137
2488.4	0.0012644
2498.04	0.0013111
2507.69	0.0013294
2517.33	0.0008894
2526.98	0.0011189
2536.62	0.0008888
2546.27	0.0007002
2555.91	0.0011162
2565.56	0.0008713
2575.2	0.0010262
2584.85	0.0010394
2594.49	0.0011852
2604.14	0.0008757
2613.78	0.0012294
2623.43	0.0011535
2633.07	0.000834
2642.72	0.00093
2652.36	0.00071612
2662.01	0.0007921
2671.65	0.0009988
2681.29	0.00080034
2690.94	0.0008674
2700.58	0.001152
2710.23	0.0010698
2719.87	0.0010484
2729.52	0.0012144
2739.16	0.0009528
2748.81	0.0008431
2758.45	0.0011332
2768.1	0.0008255
2777.74	0.0014658
2787.39	0.000894
2797.03	0.0009459
2806.68	0.0011211
2816.32	0.0009667
2825.97	0.0009562
2835.61	0.0011469
2845.26	0.0013835
2854.9	0.0013539
2864.55	0.0008772
2874.19	0.0014216
2883.84	0.0013595
2893.48	0.0013695
2903.12	0.0017117
2912.77	0.0015606
2922.41	0.0013524
2932.06	0.002262
2941.7	0.002382
2951.35	0.002662
2960.99	0.002422
2970.64	0.002102
2980.28	0.002602
2989.93	0.003172
2999.57	0.003542
3009.22	0.003002
3018.86	0.002372
3028.51	0.0016896
3038.15	0.0015129
3047.8	0.0009947
3057.44	0.0014514
3067.09	0.0015492
3076.73	0.0013209
3086.38	0.000958
3096.02	0.0016777
3105.67	0.0010575
3115.31	0.0008666
3124.95	0.002092
3134.6	0.0010209
3144.24	0.0011718
3153.89	0.001351
3163.53	0.0010979
3173.18	0.0011568
3182.82	0.0008838
3192.47	0.0015538
3202.11	0.0013916
3211.76	0.0011563
3221.4	0.0009162
3231.05	0.0012312
3240.69	0.0010736
3250.34	0.000546
3259.98	0.001034
3269.63	0.0009583
3279.27	0.0016629
3288.92	0.0010443
3298.56	0.0013102
3308.21	0.0009182
3317.85	0.000945
3327.49	0.0014127
3337.14	0.0012806
3346.78	0.001423
3356.43	0.000913
3366.07	0.0012559
3375.72	0.0007455
3385.36	0.0010068
3395.01	0.0013856
3404.65	0.0011223
3414.3	0.00056
3423.94	0.0015809
3433.59	0.0010841
3443.23	0.0010001
3452.88	0.0010811
3462.52	0.001269
3472.17	0.0011209
3481.81	0.0014866
3491.46	0.0013459
3501.1	0.0014016
3510.75	0.001952
3520.39	0.002322
3530.04	0.002452
3539.68	0.003092
3549.32	0.003082
3558.97	0.006422
3568.61	0.011242
3578.26	0.013222
3587.9	0.010682
3597.55	0.004672
3607.19	0.002182
3616.84	0.001617
3626.48	0.001862
3636.13	0.001043
3645.77	0.0011749
3655.42	0.0010237
3665.06	0.000565
3674.71	0.0012203
3684.35	0.0009651
3694	0.0015301
3703.64	0.000651
3713.29	0.0009471
3722.93	0.0013355
3732.58	0.00077204
3742.22	0.0013199
3751.86	0.000107
3761.51	0.0012317
3771.15	0.001882
3780.8	0.001571
3790.44	0.0014795
3800.09	0.00072067
3809.73	0.0009361
3819.38	0.0008602
3829.02	0.001176
3838.67	0.000452
3848.31	0.0015811
3857.96	0.0010614
3867.6	0.0010544
3877.25	0.0010259
3886.89	0.0011211
3896.54	0.000707
3906.18	0.0009562
3915.83	0.0013158
3925.47	0.0012714
3935.12	0.0006462
3944.76	0.0010604
3954.41	0.0008967
3964.05	0.0015331
3973.69	0.0010748
3983.34	0.0009242
3992.98	0.00076204
