Infrared Spectrum: Octadecane-1-sulfonic acid, 4-hydroxy-, Delta-sultone
Formula: C18 H36 O3 S
CAS: 29638-66-2
State: SOLID (2 mg / 200 mg (1%) KBr DISC)
Class: COBLENTZ III
Instrument: BECKMAN IR-12 (GRATING)
Instrument parameters: GRATING
Sampling: TRANSMISSION
Resolution: 2
Origin: COLGATE-PALMOLIVE COMPANY (KELLENBACH)
1/CM	TRANSMITTANCE
203	0.0522
213	0.038
223	0.0291
233	0.0669
243	0.167
253	0.2504
263	0.3891
273	0.5256
283	0.5441
293	0.6337
303	0.6359
313	0.6403
323	0.6573
333	0.6211
343	0.6491
353	0.6703
363	0.6894
373	0.703
383	0.7391
393	0.7903
403	0.8049
413	0.8483
423	0.8049
433	0.858
443	0.8675
453	0.8429
463	0.8064
473	0.8154
483	0.9264
493	0.9314
503	0.8082
513	0.8413
523	0.707
533	0.5068
543	0.4572
553	0.867
563	0.8968
573	0.8941
583	0.9063
593	0.8182
603	0.9004
613	0.9271
623	0.9375
633	0.944
643	0.9537
653	0.9596
663	0.9674
673	0.9615
683	0.9597
693	0.9473
703	0.8229
713	0.7603
723	0.469
733	0.7381
743	0.7886
753	0.9051
763	0.8011
773	0.9032
783	0.7699
793	0.8053
803	0.8245
813	0.4772
823	0.5171
833	0.4443
843	0.7354
853	0.7784
863	0.7369
873	0.4968
883	0.3054
893	0.0247
903	0.0126
913	0.208
923	0.5469
933	0.7817
943	0.8832
953	0.8897
963	0.8778
973	0.8817
983	0.8268
993	0.8223
1003	0.8633
1013	0.794
1023	0.8572
1033	0.8427
1043	0.8115
1053	0.8107
1063	0.7749
1073	0.7904
1083	0.8594
1093	0.8582
1103	0.8373
1113	0.8654
1123	0.8318
1133	0.7835
1143	0.7488
1153	0.505
1163	0.1397
1173	0.0802
1183	0.1605
1193	0.3008
1203	0.5665
1213	0.7209
1223	0.7799
1233	0.8232
1243	0.8028
1253	0.7652
1263	0.8022
1273	0.7974
1283	0.7473
1293	0.5216
1303	0.4434
1313	0.543
1323	0.4084
1333	0.2087
1343	0.1184
1353	0.1297
1363	0.06
1373	0.3848
1383	0.692
1393	0.7445
1403	0.8123
1413	0.7884
1423	0.8007
1433	0.75
1443	0.6353
1453	0.6244
1463	0.5274
1473	0.313
1483	0.5876
1493	0.8348
1503	0.8753
1513	0.8606
1523	0.868
1533	0.8761
1543	0.8678
1553	0.8764
1563	0.8566
1573	0.8864
1583	0.8832
1593	0.8848
1603	0.8723
1613	0.8555
1623	0.838
1633	0.824
1643	0.8298
1653	0.8254
1663	0.8551
1673	0.8594
1683	0.8555
1693	0.8463
1703	0.833
1713	0.8261
1723	0.8092
1733	0.8323
1743	0.8316
1753	0.8502
1763	0.8704
1773	0.8685
1783	0.8763
1793	0.8788
1803	0.8793
1813	0.8753
1823	0.877
1833	0.868
1843	0.8766
1853	0.8811
1863	0.8872
1873	0.8809
1883	0.873
1893	0.8655
1903	0.8621
1913	0.868
1923	0.867
1933	0.8645
1943	0.8613
1953	0.8594
1963	0.8591
1973	0.8584
1983	0.857
1993	0.8546
2003	0.8497
2013	0.8448
2023	0.8411
2033	0.84
2043	0.8426
2053	0.8445
2063	0.844
2073	0.8418
2083	0.8397
2093	0.8377
2103	0.8365
2113	0.8363
2123	0.832
2133	0.828
2143	0.8257
2153	0.8248
2163	0.8246
2173	0.826
2183	0.8259
2193	0.8241
2203	0.8221
2213	0.82
2223	0.8178
2233	0.8156
2243	0.8134
2253	0.811
2263	0.8083
2273	0.8051
2283	0.8016
2293	0.7978
2303	0.7918
2313	0.7842
2323	0.7768
2333	0.7703
2343	0.7626
2353	0.7601
2363	0.7594
2373	0.7728
2383	0.7882
2393	0.7939
2403	0.7915
2413	0.7839
2423	0.7829
2433	0.7908
2443	0.7937
2453	0.792
2463	0.7879
2473	0.783
2483	0.7768
2493	0.7713
2503	0.7671
2513	0.7666
2523	0.7699
2533	0.7739
2543	0.7742
2553	0.7707
2563	0.7659
2573	0.7618
2583	0.7578
2593	0.7569
2603	0.7535
2613	0.7436
2623	0.7322
2633	0.7273
2643	0.7316
2653	0.7308
2663	0.7286
2673	0.727
2683	0.7288
2693	0.7299
2703	0.7256
2713	0.7176
2723	0.7087
2733	0.7038
2743	0.7069
2753	0.7055
2763	0.698
2773	0.6861
2783	0.6716
2793	0.6555
2803	0.6353
2813	0.5955
2823	0.5168
2833	0.4584
2843	0.2707
2853	0.0493
2863	0.0618
2873	0.1648
2883	0.226
2893	0.168
2903	0.0968
2913	0.0255
2923	0.0006
2933	0.0021
2943	0.0227
2953	0.0703
2963	0.1752
2973	0.3211
2983	0.4617
2993	0.4904
3003	0.5411
3013	0.565
3023	0.5803
3033	0.5948
3043	0.6045
3053	0.6116
3063	0.6184
3073	0.6248
3083	0.63
3093	0.6343
3103	0.6378
3113	0.6412
3123	0.6436
3133	0.6457
3143	0.6465
3153	0.6466
3163	0.6463
3173	0.6446
3183	0.6422
3193	0.639
3203	0.6358
3213	0.6318
3223	0.6276
3233	0.6245
3243	0.6215
3253	0.618
3263	0.6142
3273	0.6101
3283	0.606
3293	0.6015
3303	0.5964
3313	0.5898
3323	0.582
3333	0.5737
3343	0.5654
3353	0.5571
3363	0.5489
3373	0.5402
3383	0.5315
3393	0.5231
3403	0.5152
3413	0.5083
3423	0.502
3433	0.4975
3443	0.4958
3453	0.4956
3463	0.4971
3473	0.5003
3483	0.5052
3493	0.51
3503	0.5149
3513	0.5201
3523	0.5244
3533	0.5282
3543	0.5318
3553	0.5354
3563	0.5376
3573	0.5387
3583	0.5448
3593	0.5538
3603	0.5595
3613	0.5637
3623	0.5688
3633	0.5743
3643	0.5804
3653	0.5866
3663	0.5882
3673	0.5883
3683	0.5871
3693	0.5875
3703	0.5908
3713	0.5937
3723	0.5926
3733	0.5898
3743	0.5858
3753	0.5822
3763	0.58
3773	0.5812
3783	0.5842
3793	0.5844
3803	0.5776
3813	0.5729
3823	0.5707
3833	0.5697
3843	0.5686
3853	0.5671
3863	0.5663
3873	0.5679
3883	0.5686
3893	0.5679
3903	0.5672
3913	0.5662
3923	0.5652
3933	0.5644
3943	0.5634
3953	0.5621
3963	0.5606
3973	0.5594
3983	0.5585
3993	0.5575
