Infrared Spectrum: UREA, 1-(2-CHLOROETHYL)-3-METHYL-3-NITROSO-
Formula: C4 H8 Cl N3 O2
CAS: 29655-34-3
State: SOLID (1 mg / 650 mg KBr DISC)
Class: COBLENTZ III
Instrument: PERKIN-ELMER 521 (GRATING)
Sampling: TRANSMISSION
Resolution: 4
Origin: SOUTHERN RESEARCH INSTITUTE
1/CM	TRANSMITTANCE
257.895	0.347
268.421	0.4139
278.948	0.472
289.474	0.531
300	0.602
310.527	0.648
321.053	0.669
331.579	0.669
342.106	0.637
352.632	0.699
363.158	0.661
373.685	0.7439
384.211	0.808
394.737	0.826
405.264	0.839
415.79	0.824
426.316	0.7481
436.843	0.846
447.369	0.859
457.895	0.863
468.422	0.864
478.948	0.856
489.474	0.849
500.001	0.829
510.527	0.77
521.053	0.606
531.58	0.846
542.106	0.851
552.632	0.832
563.159	0.816
573.685	0.804
584.211	0.795
594.738	0.761
605.264	0.725
615.79	0.677
626.317	0.597
636.843	0.5031
647.369	0.412
657.896	0.4919
668.422	0.713
678.948	0.787
689.475	0.809
700.001	0.824
710.527	0.834
721.054	0.832
731.58	0.824
742.106	0.8
752.633	0.727
763.159	0.719
773.685	0.406
784.212	0.834
794.738	0.847
805.264	0.854
815.791	0.832
826.317	0.766
836.843	0.5561
847.37	0.7831
857.896	0.8329
868.422	0.824
878.949	0.787
889.475	0.748
900.001	0.704
910.528	0.6371
921.054	0.532
931.58	0.372
942.107	0.347
952.633	0.353
963.159	0.3319
973.686	0.607
984.212	0.775
994.738	0.813
1005.26	0.766
1015.79	0.528
1026.32	0.4849
1036.84	0.75
1047.37	0.795
1057.9	0.744
1068.42	0.548
1078.95	0.645
1089.48	0.851
1100	0.829
1110.53	0.797
1121.05	0.767
1131.58	0.729
1142.11	0.622
1152.63	0.46
1163.16	0.3181
1173.69	0.244
1184.21	0.379
1194.74	0.572
1205.26	0.698
1215.79	0.749
1226.32	0.685
1236.84	0.664
1247.37	0.639
1257.9	0.6031
1268.42	0.737
1278.95	0.715
1289.48	0.685
1300	0.606
1310.53	0.66
1321.05	0.552
1331.58	0.6309
1342.11	0.775
1352.63	0.723
1363.16	0.498
1373.69	0.769
1384.21	0.746
1394.74	0.661
1405.27	0.644
1415.79	0.5719
1426.32	0.442
1436.84	0.3601
1447.37	0.437
1457.9	0.349
1468.42	0.244
1478.95	0.16
1489.48	0.265
1500	0.509
1510.53	0.434
1521.05	0.183
1531.58	0.179
1542.11	0.3629
1552.63	0.532
1563.16	0.632
1573.69	0.688
1584.21	0.723
1594.74	0.741
1605.27	0.736
1615.79	0.728
1626.32	0.73
1636.84	0.712
1647.37	0.682
1657.9	0.619
1668.42	0.557
1678.95	0.4839
1689.48	0.3371
1700	0.242
1710.53	0.245
1721.06	0.241
1731.58	0.293
1742.11	0.4769
1752.63	0.623
1763.16	0.695
1773.69	0.745
1784.21	0.78
1794.74	0.796
1805.27	0.813
1815.79	0.835
1826.32	0.849
1836.84	0.856
1847.37	0.87
1857.9	0.879
1868.42	0.885
1878.95	0.889
1889.48	0.891
1900	0.896
1910.53	0.902
1921.06	0.905
1931.58	0.906
1942.11	0.909
1952.63	0.909
1963.16	0.913
1973.69	0.914
1984.21	0.914
1994.74	0.914
2005.27	0.914
2015.79	0.912
2026.32	0.913
2036.84	0.913
2047.37	0.912
2057.9	0.916
2068.42	0.918
2078.95	0.916
2089.48	0.918
2100	0.9187
2110.53	0.919
2121.06	0.919
2131.58	0.921
2142.11	0.922
2152.63	0.922
2163.16	0.919
2173.69	0.921
2184.21	0.921
2194.74	0.919
2205.27	0.9187
2215.79	0.9167
2226.32	0.914
2236.85	0.912
2247.37	0.91
2257.9	0.91
2268.42	0.91
2278.95	0.912
2289.48	0.912
2300	0.913
2310.53	0.912
2321.06	0.912
2331.58	0.91
2342.11	0.909
2352.63	0.9082
2363.16	0.909
2373.69	0.91
2384.21	0.91
2394.74	0.91
2405.27	0.909
2415.79	0.906
2426.32	0.905
2436.85	0.904
2447.37	0.902
2457.9	0.9
2468.42	0.896
2478.95	0.893
2489.48	0.891
2500	0.892
2510.53	0.892
2521.06	0.895
2531.58	0.891
2542.11	0.8838
2552.64	0.88
2563.16	0.884
2573.69	0.888
2584.21	0.887
2594.74	0.883
2605.27	0.884
2615.79	0.8909
2626.32	0.891
2636.85	0.8881
2647.37	0.888
2657.9	0.888
2668.42	0.888
2678.95	0.8855
2689.48	0.879
2700	0.8767
2710.53	0.879
2721.06	0.881
2731.58	0.883
2742.11	0.88
2752.64	0.877
2763.16	0.876
2773.69	0.8746
2784.21	0.872
2794.74	0.872
2805.27	0.871
2815.79	0.8677
2826.32	0.8558
2836.85	0.846
2847.37	0.8366
2857.9	0.8331
2868.43	0.8432
2878.95	0.845
2889.48	0.837
2900	0.832
2910.53	0.821
2921.06	0.8091
2931.58	0.7864
2942.11	0.7359
2952.64	0.7647
2963.16	0.775
2973.69	0.7945
2984.21	0.783
2994.74	0.792
3005.27	0.8003
3015.79	0.7996
3026.32	0.8152
3036.85	0.8115
3047.37	0.805
3057.9	0.822
3068.43	0.828
3078.95	0.8286
3089.48	0.828
3100	0.8257
3110.53	0.822
3121.06	0.821
3131.58	0.822
3142.11	0.8026
3152.64	0.797
3163.16	0.79
3173.69	0.7759
3184.22	0.7627
3194.74	0.744
3205.27	0.738
3215.79	0.7172
3226.32	0.6874
3236.85	0.6584
3247.37	0.6336
3257.9	0.6076
3268.43	0.5729
3278.95	0.5418
3289.48	0.5077
3300	0.4787
3310.53	0.4305
3321.06	0.3598
3331.58	0.2821
3342.11	0.318
3352.64	0.3839
3363.16	0.4632
3373.69	0.5058
3384.22	0.5295
3394.74	0.5444
3405.27	0.5496
3415.79	0.5683
3426.32	0.5965
3436.85	0.6294
3447.37	0.6487
3457.9	0.6641
3468.43	0.6731
3478.95	0.6851
3489.48	0.691
3500.01	0.706
3510.53	0.7159
3521.06	0.729
3531.58	0.7419
3542.11	0.7526
3552.64	0.765
3563.16	0.7796
3573.69	0.79
3584.22	0.7984
3594.74	0.8077
3605.27	0.8217
3615.79	0.8326
3626.32	0.8426
3636.85	0.849
3647.37	0.85
3657.9	0.8495
3668.43	0.8456
3678.95	0.846
3689.48	0.853
3700.01	0.854
3710.53	0.856
3721.06	0.856
3731.58	0.8558
3742.11	0.855
3752.64	0.855
3763.16	0.855
3773.69	0.8549
3784.22	0.854
3794.74	0.851
3805.27	0.851
3815.79	0.851
3826.32	0.8501
3836.85	0.85
3847.37	0.849
3857.9	0.849
3868.43	0.849
3878.95	0.847
3889.48	0.847
3900.01	0.847
3910.53	0.847
3921.06	0.8464
3931.58	0.846
3942.11	0.845
3952.64	0.845
3963.16	0.843
3973.69	0.842
3984.22	0.839
3994.74	0.838
