Infrared Spectrum: Aniline, N-sec-octyl-
Formula: C14 H23 N
CAS: 29675-81-8
State: LIQUID (NEAT)
Class: COBLENTZ III
Instrument: BECKMAN IR-4 (HYBRID PRISM-GRATING)
Instrument parameters: NaCl PRISM
Sampling: TRANSMISSION
Path length: CAPILLARY
Resolution: 2
Origin: MONSANTO (J. FREEMAN)
1/CM	TRANSMITTANCE
3952.57	0.9053
3943.7	0.9061
3934.83	0.9068
3925.96	0.9078
3917.09	0.9088
3908.22	0.9092
3899.35	0.9095
3890.48	0.9099
3881.61	0.9103
3872.74	0.9107
3863.87	0.911
3855	0.9114
3846.13	0.9116
3837.26	0.9118
3828.39	0.9121
3819.52	0.9124
3810.65	0.9127
3801.78	0.913
3792.91	0.9133
3784.04	0.9136
3775.17	0.9137
3766.3	0.9137
3757.43	0.9138
3748.56	0.9138
3739.69	0.9138
3730.82	0.9138
3721.95	0.9136
3713.08	0.9136
3704.21	0.9134
3695.34	0.9133
3686.47	0.913
3677.6	0.9126
3668.73	0.9117
3659.86	0.9104
3650.98	0.9083
3642.11	0.9056
3633.24	0.9028
3624.37	0.9008
3615.5	0.8995
3606.63	0.8983
3597.76	0.8986
3588.89	0.8994
3580.02	0.9002
3571.15	0.9013
3562.28	0.902
3553.41	0.9021
3544.54	0.9021
3535.67	0.9009
3526.8	0.8994
3517.93	0.8969
3509.06	0.8942
3500.19	0.8891
3491.32	0.8832
3482.45	0.8757
3473.58	0.8678
3464.71	0.8566
3455.84	0.8389
3446.97	0.8027
3438.1	0.7554
3429.23	0.708
3420.36	0.6603
3411.49	0.6457
3402.62	0.649
3393.75	0.679
3384.88	0.7123
3376.01	0.7461
3367.14	0.7799
3358.27	0.8138
3349.4	0.848
3340.53	0.8789
3331.66	0.8893
3322.79	0.8966
3313.92	0.9013
3305.05	0.9061
3296.18	0.9113
3287.31	0.9145
3278.44	0.917
3269.57	0.9185
3260.7	0.9194
3251.83	0.9197
3242.96	0.9185
3234.09	0.9157
3225.22	0.9129
3216.35	0.9101
3207.48	0.9074
3198.61	0.9062
3189.74	0.9052
3180.87	0.9052
3172	0.9051
3163.13	0.9051
3154.26	0.9043
3145.39	0.8968
3136.52	0.8863
3127.65	0.8568
3118.78	0.8144
3109.91	0.7717
3101.04	0.7324
3092.17	0.7097
3083.3	0.6722
3074.43	0.6345
3065.56	0.5967
3056.69	0.5965
3047.81	0.6
3038.94	0.6079
3030.07	0.6153
3021.2	0.6174
3012.33	0.597
3003.46	0.5254
2994.59	0.4533
2985.72	0.3809
2976.85	0.2829
2967.98	0.2436
2959.11	0.204
2950.24	0.1645
2941.37	0.1432
2932.5	0.1212
2923.63	0.1167
2914.76	0.1816
2905.89	0.3103
2897.02	0.3135
2888.15	0.2956
2879.28	0.2775
2870.41	0.2594
2861.54	0.2696
2852.67	0.6217
2843.8	0.6752
2834.93	0.7239
2826.06	0.781
2817.19	0.819
2808.32	0.8389
2799.45	0.8539
2790.58	0.8655
2781.71	0.8732
2772.84	0.8785
2763.97	0.8812
2755.1	0.8841
2746.23	0.8873
2737.36	0.8905
2728.49	0.8943
2719.62	0.8992
2710.75	0.9025
2701.88	0.9023
2693.01	0.9007
2684.14	0.8985
2675.27	0.8978
2666.4	0.8995
2657.53	0.9014
2648.66	0.903
2639.79	0.9044
2630.92	0.905
2622.05	0.9041
2613.18	0.9016
2604.31	0.8973
2595.44	0.895
2586.57	0.8943
2577.7	0.9006
2568.83	0.91
2559.96	0.9185
2551.09	0.9238
2542.22	0.9272
2533.35	0.9304
2524.48	0.9332
2515.61	0.9354
2506.74	0.9374
2497.87	0.9389
2489	0.9399
2480.13	0.9401
2471.26	0.94
2462.39	0.9389
2453.51	0.9382
2444.64	0.9385
2435.77	0.9388
2426.9	0.9395
2418.03	0.9399
2409.16	0.9396
2400.29	0.9349
2391.42	0.9254
2382.55	0.9178
2373.68	0.9174
2364.81	0.9194
2355.94	0.9225
2347.07	0.9256
2338.2	0.9283
2329.33	0.931
2320.46	0.9337
2311.59	0.9362
2302.72	0.9385
2293.85	0.9409
2284.98	0.9427
2276.11	0.9445
2267.24	0.9463
2258.37	0.947
2249.5	0.9478
2240.63	0.9481
2231.76	0.9481
2222.89	0.9482
2214.02	0.948
2205.15	0.9477
2196.28	0.9475
2187.41	0.9471
2178.54	0.9471
2169.67	0.9474
2160.8	0.9477
2151.93	0.9478
2143.06	0.9475
2134.19	0.9474
2125.32	0.9474
2116.45	0.9478
2107.58	0.9482
2098.71	0.9487
2089.84	0.9495
2080.97	0.9503
2072.1	0.9495
2063.23	0.9487
2054.36	0.9483
2045.49	0.948
2036.62	0.9483
2027.75	0.9489
2018.88	0.9495
2010.01	0.9496
2001.14	0.9493
1992.27	0.9488
1983.4	0.9481
1974.53	0.9472
1965.66	0.946
1956.79	0.9393
1947.92	0.9296
1939.05	0.9164
1930.18	0.9015
1921.31	0.8965
1912.44	0.9099
1903.57	0.9265
1894.7	0.9362
1885.83	0.9404
1876.96	0.942
1868.09	0.9409
1859.22	0.9377
1850.34	0.9322
1841.47	0.9236
1832.6	0.9135
1823.73	0.911
1814.86	0.9204
1805.99	0.9355
1797.12	0.9407
1788.25	0.9396
1779.38	0.9334
1770.51	0.9251
1761.64	0.9278
1752.77	0.9366
1743.9	0.9439
1735.03	0.9438
1726.16	0.94
1717.29	0.9334
1708.42	0.9162
1699.55	0.9026
1690.68	0.8913
1681.81	0.8805
1672.94	0.8823
1664.07	0.8864
1655.2	0.8705
1646.33	0.854
1637.46	0.8064
1628.59	0.6739
1619.72	0.486
1610.85	0.2959
1601.98	0.1071
1593.11	0.2599
1584.24	0.5751
1575.37	0.7043
1566.5	0.803
1557.63	0.8021
1548.76	0.7827
1539.89	0.7015
1531.02	0.5218
1522.15	0.3417
1513.28	0.1662
1504.41	0.091
1495.54	0.2632
1486.67	0.5506
1477.8	0.5759
1468.93	0.401
1460.06	0.3897
1451.19	0.4763
1442.32	0.5994
1433.45	0.4719
1424.58	0.5538
1415.71	0.7565
1406.84	0.8291
1397.97	0.8255
1389.1	0.6964
1380.23	0.4708
1371.36	0.5991
1362.49	0.7211
1353.62	0.7132
1344.75	0.6146
1335.88	0.5258
1327.01	0.3573
1318.14	0.2314
1309.27	0.3912
1300.4	0.574
1291.53	0.6357
1282.66	0.6091
1273.79	0.5427
1264.92	0.4981
1256.04	0.4202
1247.17	0.532
1238.3	0.7393
1229.43	0.8021
1220.56	0.8236
1211.69	0.8368
1202.82	0.7514
1193.95	0.7211
1185.08	0.5861
1176.21	0.5748
1167.34	0.6222
1158.47	0.4843
1149.6	0.4737
1140.73	0.6083
1131.86	0.7229
1122.99	0.7378
1114.12	0.7825
1105.25	0.8324
1096.38	0.8483
1087.51	0.8066
1078.64	0.7407
1069.77	0.7542
1060.9	0.8186
1052.03	0.8228
1043.16	0.8091
1034.29	0.792
1025.42	0.8118
1016.55	0.8928
1007.68	0.8914
998.811	0.8192
989.941	0.6959
981.07	0.8696
972.2	0.8822
963.33	0.8799
954.46	0.8911
945.59	0.8992
936.72	0.9167
927.849	0.919
918.979	0.9033
910.109	0.9002
901.239	0.8966
892.369	0.8834
883.499	0.8566
874.629	0.7919
865.758	0.6648
856.888	0.7959
848.018	0.8668
839.148	0.8792
830.278	0.8661
821.408	0.8555
812.538	0.8362
803.667	0.856
794.797	0.8544
785.927	0.835
777.057	0.8042
768.187	0.7559
759.317	0.6082
750.447	0.2223
741.576	0.2108
732.706	0.605
723.836	0.6294
714.966	0.7299
706.096	0.7474
697.226	0.4771
688.355	0.2523
679.485	0.697
670.615	0.6727
661.745	0.6496
652.875	0.6931
644.005	0.6852
635.135	0.6879
