Infrared Spectrum: Nicotinamidoxime, o-acetyl-,
Formula: C8 H9 N3 O2
CAS: 296767-16-3
State: SOLID (NUJOL MULL)
Melting point: 147 C
Class: COBLENTZ III
Instrument: PERKIN-ELMER 21 (GRATING)
Instrument parameters: FILTER AT ABOUT 10 MICRONS
Resolution: 2
Origin: ABBOTT LABORATORIES
1/CM	TRANSMITTANCE
656	0.4564
665	0.449
674	0.511
683	0.5966
692	0.6033
701	0.5376
710	0.2779
719	0.4867
728	0.5699
737	0.5944
746	0.6334
755	0.6527
764	0.6655
773	0.6729
782	0.6753
791	0.6419
800	0.5858
809	0.5102
818	0.5279
827	0.6903
836	0.6892
845	0.68
854	0.6755
863	0.6568
872	0.6277
881	0.5581
890	0.397
899	0.2259
908	0.5855
917	0.645
926	0.6292
935	0.5655
944	0.5163
953	0.3473
962	0.4477
971	0.6159
980	0.5711
989	0.5364
998	0.3589
1007	0.4365
1016	0.607
1025	0.404
1034	0.5131
1043	0.5147
1052	0.6136
1061	0.6071
1070	0.6511
1079	0.5777
1088	0.5412
1097	0.5035
1106	0.4979
1115	0.4605
1124	0.5266
1133	0.4946
1142	0.4625
1151	0.4831
1160	0.4637
1169	0.4224
1178	0.3717
1187	0.2987
1196	0.2141
1205	0.1326
1214	0.0816
1223	0.0943
1232	0.1307
1241	0.2269
1250	0.4037
1259	0.4768
1268	0.4934
1277	0.4968
1286	0.5223
1295	0.5291
1304	0.5393
1313	0.5338
1322	0.5117
1331	0.4691
1340	0.4291
1349	0.2336
1358	0.2262
1367	0.226
1376	0.2986
1385	0.423
1394	0.318
1403	0.348
1412	0.4675
1421	0.4264
1430	0.2112
1439	0.1667
1448	0.1164
1457	0.1081
1466	0.3062
1475	0.4221
1484	0.4652
1493	0.5452
1502	0.5442
1511	0.5327
1520	0.516
1529	0.5041
1538	0.4693
1547	0.4572
1556	0.3402
1565	0.3311
1574	0.38
1583	0.2691
1592	0.1917
1601	0.1285
1610	0.1489
1619	0.3169
1628	0.1979
1637	0.1121
1646	0.1704
1655	0.247
1664	0.4839
1673	0.5762
1682	0.6056
1691	0.5925
1700	0.556
1709	0.5277
1718	0.3974
1727	0.216
1736	0.0829
1745	0.3307
1754	0.5814
1763	0.6548
1772	0.7293
1781	0.7499
1790	0.7542
1799	0.7571
1808	0.7674
1817	0.7729
1826	0.7729
1835	0.7613
1844	0.7523
1853	0.7495
1862	0.7483
1871	0.7458
1880	0.7355
1889	0.7244
1898	0.7222
1907	0.7215
1916	0.7205
1925	0.7187
1934	0.7168
1943	0.714
1952	0.7109
1961	0.708
1970	0.7048
1979	0.7017
1988	0.6986
1997	0.6948
2006	0.6903
2015	0.6859
2024	0.6817
2033	0.6778
2042	0.6741
2051	0.6713
2060	0.6686
2069	0.6658
2078	0.6626
2087	0.6595
2096	0.6564
2105	0.6533
2114	0.6502
2123	0.647
2132	0.6438
2141	0.6407
2150	0.6375
2159	0.6343
2168	0.6312
2177	0.6281
2186	0.6248
2195	0.6216
2204	0.6184
2213	0.6152
2222	0.6113
2231	0.6075
2240	0.6039
2249	0.6023
2258	0.6007
2267	0.5991
2276	0.5975
2285	0.5945
2294	0.5885
2303	0.5782
2312	0.5724
2321	0.5687
2330	0.5668
2339	0.5655
2348	0.5642
2357	0.5627
2366	0.5611
2375	0.5595
2384	0.5579
2393	0.5559
2402	0.5534
2411	0.551
2420	0.5501
2429	0.5494
2438	0.5484
2447	0.5474
2456	0.5465
2465	0.5455
2474	0.5444
2483	0.5432
2492	0.5413
2501	0.533
2510	0.5219
2519	0.517
2528	0.5166
2537	0.5147
2546	0.5107
2555	0.5015
2564	0.491
2573	0.4865
2582	0.4832
2591	0.4808
2600	0.4782
2609	0.4756
2618	0.472
2627	0.4675
2636	0.4595
2645	0.4555
2654	0.4536
2663	0.4514
2672	0.4474
2681	0.4423
2690	0.4367
2699	0.4307
2708	0.4263
2717	0.4263
2726	0.4271
2735	0.4282
2744	0.4279
2753	0.4245
2762	0.4109
2771	0.392
2780	0.3675
2789	0.3474
2798	0.2855
2807	0.2028
2816	0.1207
2825	0.0395
2834	0.0151
2843	0.0087
2852	0.0074
2861	0.0071
2870	0.0071
2879	0.0076
2888	0.0082
2897	0.0103
2906	0.0132
2915	0.017
2924	0.0227
2933	0.0343
2942	0.0465
2951	0.0684
2960	0.1082
2969	0.1478
2978	0.1726
2987	0.1822
2996	0.1896
3005	0.1945
3014	0.1969
3023	0.1976
3032	0.1978
3041	0.1964
3050	0.1945
3059	0.1891
3068	0.181
3077	0.1719
3086	0.1649
3095	0.1582
3104	0.1515
3113	0.145
3122	0.1425
3131	0.1488
3140	0.1564
3149	0.1951
3158	0.2361
3167	0.2769
3176	0.3015
3185	0.3022
3194	0.3019
3203	0.2997
3212	0.2935
3221	0.282
3230	0.2705
3239	0.2591
3248	0.2478
3257	0.2365
3266	0.2253
3275	0.2142
3284	0.2053
3293	0.2011
3302	0.1989
3311	0.1968
3320	0.1964
3329	0.2121
3338	0.2765
3347	0.3405
3356	0.4043
3365	0.4629
3374	0.4854
3383	0.4874
3392	0.4879
3401	0.4878
3410	0.4868
3419	0.4853
3428	0.4823
3437	0.4789
3446	0.4754
3455	0.4719
3464	0.4679
3473	0.4638
3482	0.4597
3491	0.4558
3500	0.4525
3509	0.4492
3518	0.4459
3527	0.4426
3536	0.4395
3545	0.4371
3554	0.4349
3563	0.4326
3572	0.4304
3581	0.4282
3590	0.4261
3599	0.424
3608	0.4219
3617	0.4199
3626	0.4178
3635	0.4159
3644	0.4138
3653	0.4118
3662	0.4099
3671	0.4079
3680	0.4059
3689	0.404
3698	0.402
3707	0.4002
3716	0.3984
3725	0.3966
3734	0.3949
3743	0.3932
3752	0.3914
3761	0.3896
3770	0.3876
3779	0.3857
3788	0.3836
3797	0.3816
3806	0.3797
3815	0.3777
3824	0.3757
3833	0.3738
3842	0.3718
3851	0.3699
3860	0.3679
3869	0.366
3878	0.364
3887	0.3621
3896	0.3601
3905	0.3582
3914	0.3563
3923	0.3545
3932	0.353
3941	0.3516
3950	0.3502
3959	0.3487
3968	0.3473
3977	0.3459
3986	0.3444
3995	0.3432
