Infrared Spectrum: VALERAMIDE, 5-HYDROXY-
Formula: C5 H11 N O2
CAS: 29686-12-2
State: SOLID (NUJOL MULL)
Class: COBLENTZ
Instrument: Not specified, most likely a prism, grating, or hybrid spectrometer.
Sampling: TRANSMISSION
Resolution: 4
Origin: TENNESSEE EASTMAN COMPANY, RESEARCH LABORATORIES
MICROMETERS	TRANSMITTANCE
2.08	0.7
2.11731	0.704
2.15462	0.709
2.19194	0.715
2.22925	0.714
2.26656	0.7
2.30387	0.664
2.34118	0.67
2.3785	0.682
2.41581	0.697
2.45312	0.706
2.49043	0.731
2.52774	0.755
2.56506	0.769
2.60237	0.781
2.63968	0.791
2.67699	0.821
2.71431	0.847
2.75162	0.88
2.78893	0.89
2.82624	0.91
2.86355	0.886
2.90087	0.704
2.93818	0.475
2.97549	0.313
3.0128	0.392
3.05011	0.403
3.08743	0.464
3.12474	0.434
3.16205	0.35
3.19936	0.392
3.23667	0.433
3.27399	0.439
3.3113	0.394
3.34861	0.158
3.38592	0.051
3.42323	0.032
3.46055	0.031
3.49786	0.032
3.53517	0.329
3.57248	0.472
3.60979	0.54
3.64711	0.551
3.68442	0.546
3.72173	0.555
3.75904	0.59
3.79635	0.591
3.83367	0.615
3.87098	0.638
3.90829	0.67
3.9456	0.684
3.98292	0.701
4.02023	0.717
4.05754	0.717
4.09485	0.728
4.13216	0.747
4.16948	0.748
4.20679	0.756
4.2441	0.766
4.28141	0.764
4.31872	0.764
4.35604	0.775
4.39335	0.788
4.43066	0.8
4.46797	0.805
4.50528	0.813
4.5426	0.814
4.57991	0.821
4.61722	0.833
4.65453	0.841
4.69184	0.852
4.72916	0.85
4.76647	0.857
4.80378	0.869
4.84109	0.872
4.8784	0.869
4.91572	0.868
4.95303	0.877
4.99034	0.882
5.02765	0.886
5.06497	0.894
5.10228	0.899
5.13959	0.907
5.1769	0.913
5.21421	0.916
5.25153	0.924
5.28884	0.927
5.32615	0.93
5.36346	0.932
5.40077	0.934
5.43809	0.934
5.4754	0.934
5.51271	0.929
5.55002	0.921
5.58733	0.894
5.62465	0.879
5.66196	0.855
5.69927	0.813
5.73658	0.777
5.77389	0.758
5.81121	0.726
5.84852	0.697
5.88583	0.671
5.92314	0.61
5.96045	0.536
5.99777	0.508
6.03508	0.452
6.07239	0.354
6.1097	0.291
6.14701	0.351
6.18433	0.383
6.22164	0.386
6.25895	0.456
6.29626	0.494
6.33358	0.53
6.37089	0.549
6.4082	0.565
6.44551	0.602
6.48282	0.612
6.52014	0.627
6.55745	0.629
6.59476	0.638
6.63207	0.642
6.66938	0.638
6.7067	0.529
6.74401	0.412
6.78132	0.207
6.81863	0.103
6.85594	0.102
6.89326	0.133
6.93057	0.248
6.96788	0.321
7.00519	0.324
7.0425	0.332
7.07982	0.414
7.11713	0.459
7.15444	0.472
7.19175	0.346
7.22906	0.215
7.26638	0.16
7.30369	0.224
7.341	0.268
7.37831	0.346
7.41563	0.354
7.45294	0.368
7.49025	0.414
7.52756	0.447
7.56487	0.477
7.60219	0.505
7.6395	0.518
7.67681	0.518
7.71412	0.513
7.75143	0.522
7.78875	0.505
7.82606	0.47
7.86337	0.48
7.90068	0.497
7.93799	0.519
7.97531	0.535
8.01262	0.543
8.04993	0.552
8.08724	0.56
8.12455	0.583
8.16187	0.579
8.19918	0.535
8.23649	0.51
8.2738	0.532
8.31111	0.547
8.34843	0.562
8.38574	0.579
8.42305	0.583
8.46036	0.585
8.49767	0.585
8.53499	0.587
8.5723	0.599
8.60961	0.607
8.64692	0.616
8.68424	0.631
8.72155	0.654
8.75886	0.671
8.79617	0.671
8.83348	0.635
8.8708	0.58
8.90811	0.569
8.94542	0.583
8.98273	0.594
9.02004	0.583
9.05736	0.58
9.09467	0.599
9.13198	0.621
9.16929	0.631
9.2066	0.629
9.24392	0.602
9.28123	0.587
9.31854	0.554
9.35585	0.505
9.39316	0.436
9.43048	0.362
9.46779	0.351
9.5051	0.42
9.54241	0.477
9.57972	0.511
9.61704	0.549
9.65435	0.562
9.69166	0.61
9.72897	0.632
9.76629	0.654
9.8036	0.67
9.84091	0.66
9.87822	0.572
9.91553	0.464
9.95285	0.397
9.99016	0.408
10.0275	0.459
10.0648	0.497
10.1021	0.524
10.1394	0.543
10.1767	0.551
10.214	0.552
10.2513	0.555
10.2887	0.566
10.326	0.591
10.3633	0.596
10.4006	0.602
10.4379	0.609
10.4752	0.621
10.5125	0.627
10.5498	0.632
10.5872	0.643
10.6245	0.648
10.6618	0.651
10.6991	0.654
10.7364	0.659
10.7737	0.664
10.811	0.667
10.8483	0.673
10.8856	0.684
10.923	0.703
10.9603	0.709
10.9976	0.717
11.0349	0.722
11.0722	0.72
11.1095	0.723
11.1468	0.722
11.1841	0.723
11.2215	0.722
11.2588	0.722
11.2961	0.722
11.3334	0.72
11.3707	0.706
11.408	0.695
11.4453	0.684
11.4826	0.675
11.52	0.673
11.5573	0.681
11.5946	0.692
11.6319	0.698
11.6692	0.7
11.7065	0.7
11.7438	0.701
11.7811	0.701
11.8184	0.701
11.8558	0.701
11.8931	0.701
11.9304	0.701
11.9677	0.7
12.005	0.693
12.0423	0.689
12.0796	0.676
12.1169	0.667
12.1543	0.651
12.1916	0.637
12.2289	0.626
12.2662	0.62
12.3035	0.618
12.3408	0.623
12.3781	0.632
12.4154	0.631
12.4528	0.626
12.4901	0.621
12.5274	0.618
12.5647	0.623
12.602	0.626
12.6393	0.631
12.6766	0.634
12.7139	0.635
12.7513	0.642
12.7886	0.653
12.8259	0.656
12.8632	0.664
12.9005	0.673
12.9378	0.682
12.9751	0.69
13.0124	0.704
13.0497	0.708
13.0871	0.711
13.1244	0.712
13.1617	0.712
13.199	0.712
13.2363	0.711
13.2736	0.709
13.3109	0.706
13.3482	0.706
13.3856	0.7
13.4229	0.69
13.4602	0.675
13.4975	0.662
13.5348	0.651
13.5721	0.646
13.6094	0.643
13.6467	0.638
13.6841	0.635
13.7214	0.632
13.7587	0.626
13.796	0.62
13.8333	0.616
13.8706	0.618
13.9079	0.621
13.9452	0.627
13.9825	0.635
14.0199	0.637
14.0572	0.637
14.0945	0.638
14.1318	0.64
14.1691	0.638
14.2064	0.638
14.2437	0.635
14.281	0.634
14.3184	0.626
14.3557	0.623
14.393	0.616
14.4303	0.609
14.4676	0.602
14.5049	0.596
14.5422	0.587
14.5795	0.574
14.6169	0.56
14.6542	0.555
14.6915	0.549
14.7288	0.544
14.7661	0.543
14.8034	0.536
14.8407	0.527
14.878	0.521
14.9153	0.518
14.9527	0.519
14.99	0.516
15.0273	0.508
15.0646	0.496
15.1019	0.485
15.1392	0.485
15.1765	0.481
15.2138	0.481
15.2512	0.481
15.2885	0.483
15.3258	0.483
15.3631	0.483
15.4004	0.483
