Infrared Spectrum: 4,7,10,16,19,22-HEXAOXA-1,13-DITHIACYCLOTETRACOSANE
Formula: C16 H32 O6 S2
CAS: 297-13-2
State: LIQUID
Boiling point: 200 C (MOLEC. STILL)
Class: COBLENTZ
Instrument: Not specified, most likely a prism, grating, or hybrid spectrometer.
Sampling: TRANSMISSION
Path length: CAPILLARY CELL
Resolution: 4
Origin: EASTMAN KODAK COMPANY, RESEARCH LABORATORIES, ROCHESTER, N.Y.
MICROMETERS	TRANSMITTANCE
2.039	0.802
2.07408	0.802
2.10916	0.801
2.14423	0.801
2.17931	0.802
2.21439	0.797
2.24947	0.787
2.28455	0.795
2.31963	0.799
2.3547	0.799
2.38978	0.797
2.42486	0.795
2.45994	0.792
2.49502	0.79
2.53009	0.79
2.56517	0.792
2.60025	0.804
2.63533	0.809
2.67041	0.816
2.70549	0.813
2.74056	0.774
2.77564	0.715
2.81072	0.65
2.8458	0.584
2.88088	0.556
2.91595	0.554
2.95103	0.582
2.98611	0.612
3.02119	0.654
3.05627	0.689
3.09134	0.712
3.12642	0.732
3.1615	0.741
3.19658	0.755
3.23166	0.773
3.26674	0.776
3.30181	0.774
3.33689	0.734
3.37197	0.453
3.40705	0.225
3.44213	0.181
3.4772	0.169
3.51228	0.15
3.54736	0.446
3.58244	0.539
3.61752	0.645
3.6526	0.698
3.68767	0.712
3.72275	0.734
3.75783	0.78
3.79291	0.794
3.82799	0.813
3.86306	0.815
3.89814	0.816
3.93322	0.827
3.9683	0.83
4.00338	0.835
4.03846	0.835
4.07353	0.839
4.10861	0.839
4.14369	0.841
4.17877	0.839
4.21385	0.827
4.24892	0.83
4.284	0.834
4.31908	0.846
4.35416	0.851
4.38924	0.851
4.42432	0.849
4.45939	0.848
4.49447	0.848
4.52955	0.848
4.56463	0.848
4.59971	0.848
4.63478	0.848
4.66986	0.849
4.70494	0.849
4.74002	0.849
4.7751	0.849
4.81017	0.849
4.84525	0.849
4.88033	0.849
4.91541	0.851
4.95049	0.853
4.98557	0.853
5.02064	0.855
5.05572	0.855
5.0908	0.855
5.12588	0.842
5.16096	0.846
5.19603	0.849
5.23111	0.853
5.26619	0.858
5.30127	0.86
5.33635	0.865
5.37143	0.869
5.4065	0.877
5.44158	0.877
5.47666	0.872
5.51174	0.874
5.54682	0.876
5.58189	0.874
5.61697	0.876
5.65205	0.858
5.68713	0.856
5.72221	0.811
5.75729	0.755
5.79236	0.719
5.82744	0.759
5.86252	0.794
5.8976	0.809
5.93268	0.832
5.96775	0.837
6.00283	0.832
6.03791	0.813
6.07299	0.787
6.10807	0.781
6.14315	0.778
6.17822	0.781
6.2133	0.813
6.24838	0.821
6.28346	0.834
6.31854	0.841
6.35361	0.849
6.38869	0.853
6.42377	0.844
6.45885	0.858
6.49393	0.848
6.52901	0.853
6.56408	0.851
6.59916	0.855
6.63424	0.846
6.66932	0.851
6.7044	0.823
6.73947	0.766
6.77455	0.635
6.80963	0.554
6.84471	0.511
6.87979	0.518
6.91486	0.523
6.94994	0.568
6.98502	0.61
7.0201	0.64
7.05518	0.63
7.09026	0.638
7.12533	0.609
7.16041	0.609
7.19549	0.647
7.23057	0.664
7.26565	0.661
7.30072	0.621
7.3358	0.547
7.37088	0.485
7.40596	0.401
7.44104	0.434
7.47612	0.621
7.51119	0.696
7.54627	0.68
7.58135	0.668
7.61643	0.65
7.65151	0.565
7.68658	0.471
7.72166	0.424
7.75674	0.413
7.79182	0.418
7.8269	0.446
7.86198	0.511
7.89705	0.567
7.93213	0.591
7.96721	0.574
8.00229	0.525
8.03737	0.497
8.07244	0.488
8.10752	0.507
8.1426	0.542
8.17768	0.574
8.21276	0.591
8.24784	0.605
8.28291	0.605
8.31799	0.595
8.35307	0.579
8.38815	0.574
8.42323	0.575
8.4583	0.584
8.49338	0.593
8.52846	0.589
8.56354	0.567
8.59862	0.514
8.63369	0.441
8.66877	0.326
8.70385	0.207
8.73893	0.153
8.77401	0.106
8.80909	0.085
8.84416	0.076
8.87924	0.066
8.91432	0.057
8.9494	0.052
8.98448	0.045
9.01955	0.043
9.05463	0.045
9.08971	0.048
9.12479	0.059
9.15987	0.078
9.19495	0.104
9.23002	0.137
9.2651	0.178
9.30018	0.249
9.33526	0.275
9.37034	0.294
9.40541	0.301
9.44049	0.308
9.47557	0.308
9.51065	0.31
9.54573	0.308
9.58081	0.294
9.61588	0.289
9.65096	0.287
9.68604	0.298
9.72112	0.324
9.7562	0.361
9.79127	0.394
9.82635	0.431
9.86143	0.452
9.89651	0.467
9.93159	0.486
9.96667	0.492
10.0017	0.497
10.0368	0.5
10.0719	0.502
10.107	0.504
10.1421	0.509
10.1771	0.513
10.2122	0.518
10.2473	0.52
10.2824	0.528
10.3174	0.541
10.3525	0.574
10.3876	0.593
10.4227	0.612
10.4578	0.63
10.4928	0.636
10.5279	0.643
10.563	0.649
10.5981	0.65
10.6332	0.649
10.6682	0.63
10.7033	0.617
10.7384	0.612
10.7735	0.612
10.8085	0.612
10.8436	0.612
10.8787	0.619
10.9138	0.623
10.9489	0.626
10.9839	0.628
11.019	0.623
11.0541	0.623
11.0892	0.623
11.1242	0.633
11.1593	0.635
11.1944	0.636
11.2295	0.636
11.2646	0.636
11.2996	0.635
11.3347	0.635
11.3698	0.635
11.4049	0.642
11.4399	0.654
11.475	0.682
11.5101	0.692
11.5452	0.71
11.5803	0.713
11.6153	0.719
11.6504	0.724
11.6855	0.731
11.7206	0.724
11.7557	0.726
11.7907	0.731
11.8258	0.732
11.8609	0.738
11.896	0.738
11.931	0.738
11.9661	0.738
12.0012	0.738
12.0363	0.732
12.0714	0.734
12.1064	0.731
12.1415	0.731
12.1766	0.731
12.2117	0.734
12.2467	0.743
12.2818	0.75
12.3169	0.759
12.352	0.764
12.3871	0.773
12.4221	0.773
12.4572	0.774
12.4923	0.778
12.5274	0.783
12.5624	0.787
12.5975	0.788
12.6326	0.79
12.6677	0.794
12.7028	0.797
12.7378	0.799
12.7729	0.799
12.808	0.799
12.8431	0.795
12.8782	0.792
12.9132	0.788
12.9483	0.787
12.9834	0.785
13.0185	0.783
13.0535	0.781
13.0886	0.78
13.1237	0.78
13.1588	0.783
13.1939	0.788
13.2289	0.792
13.264	0.792
13.2991	0.794
13.3342	0.794
13.3692	0.794
13.4043	0.792
13.4394	0.792
13.4745	0.792
13.5096	0.794
13.5446	0.797
13.5797	0.797
13.6148	0.794
13.6499	0.79
13.685	0.783
13.72	0.783
13.7551	0.781
13.7902	0.78
13.8253	0.78
13.8603	0.778
13.8954	0.778
13.9305	0.781
13.9656	0.783
14.0007	0.783
14.0357	0.78
14.0708	0.778
14.1059	0.778
14.141	0.776
14.176	0.774
14.2111	0.766
14.2462	0.755
14.2813	0.752
14.3164	0.738
14.3514	0.724
14.3865	0.722
14.4216	0.715
14.4567	0.706
14.4917	0.705
14.5268	0.698
14.5619	0.689
14.597	0.685
14.6321	0.678
14.6671	0.67
14.7022	0.659
14.7373	0.652
14.7724	0.642
14.8075	0.635
14.8425	0.624
14.8776	0.614
14.9127	0.616
14.9478	0.647
14.9828	0.602
15.0179	0.53
15.053	0.541
15.0881	0.553
15.1232	0.556
15.1582	0.551
15.1933	0.547
15.2284	0.541
15.2635	0.537
15.2985	0.537
15.3336	0.534
15.3687	0.534
15.4038	0.532
15.4389	0.528
15.4739	0.527
15.509	0.525
15.5441	0.523
15.5792	0.521
15.6142	0.52
15.6493	0.518
15.6844	0.516
15.7195	0.516
15.7546	0.514
15.7896	0.516
15.8247	0.516
15.8598	0.516
15.8949	0.516
15.93	0.514
