Infrared Spectrum: Thionazin
Formula: C 8 H 13 N 2 O 3 P S
CAS: 297-97-2
State: gas
Instrument: HP-GC/MS/IRD
Origin: NIST Mass Spectrometry Data Center
1/CM	ABSORBANCE
550	0.0006675
562	0.000105
574	0.000345
586	0.0004725
598	0.00093
610	0.0013425
622	0.00159
634	0.0023925
646	0.0054525
658	0.0047175
670	0.0025275
682	0.00105
694	0.0006075
706	0.000555
718	0.000735
730	0.0011175
742	0.00216
754	0.0035775
766	0.0062325
778	0.016785
790	0.01938
802	0.01389
814	0.017475
826	0.0238425
838	0.0225525
850	0.0206325
862	0.0090225
874	0.0050325
886	0.00513
898	0.0091575
910	0.02409
922	0.04446
934	0.04209
946	0.030615
958	0.030555
970	0.0277275
982	0.0182025
994	0.0131475
1006	0.0181125
1018	0.032925
1030	0.0616875
1042	0.075
1054	0.06357
1066	0.042885
1078	0.0252975
1090	0.0173025
1102	0.0141975
1114	0.0100725
1126	0.009315
1138	0.01176
1150	0.01182
1162	0.010365
1174	0.00882
1186	0.00549
1198	0.0037725
1210	0.00357
1222	0.0050475
1234	0.0111375
1246	0.028575
1258	0.037785
1270	0.0238575
1282	0.01221
1294	0.00591
1306	0.0035175
1318	0.00246
1330	0.002445
1342	0.0028275
1354	0.002535
1366	0.0037725
1378	0.0076425
1390	0.0211725
1402	0.041235
1414	0.0123825
1426	0.0042075
1438	0.0033825
1450	0.004425
1462	0.0111
1474	0.0090225
1486	0.00354
1498	0.0025425
1510	0.003435
1522	0.0088125
1534	0.0104325
1546	0.003555
1558	0.002955
1570	0.004635
1582	0.0030975
1594	0.00111
1606	0.0006975
1618	0.000585
1630	0.0004875
1642	0.00042
1654	0.000405
1666	0.0004125
1678	0.0004725
1690	0.0005475
1702	0.0005625
1714	0.0005625
1726	0.0004575
1738	0.0004425
1750	0.00045
1762	0.000465
1774	0.000435
1786	0.0004425
1798	0.00057
1810	0.0006375
1822	0.0007275
1834	0.0008625
1846	0.0009075
1858	0.00093
1870	0.0009075
1882	0.0007575
1894	0.00057
1906	0.0005475
1918	0.0005625
1930	0.000315
1942	0.0001575
1954	9.75e-05
1966	4.5e-05
1978	3.75e-05
1990	4.5e-05
2002	4.5e-05
2014	0.00012
2026	0.000135
2038	0.000195
2050	0.0001875
2062	0.00012
2074	9.75e-05
2086	6.75e-05
2098	6e-05
2110	8.25e-05
2122	7.5e-05
2134	5.25e-05
2146	5.25e-05
2158	0.00012
2170	0.0001575
2182	0.00018
2194	0.0001575
2206	7.5e-05
2218	0
2230	3.75e-05
2242	8.25e-05
2254	3.75e-05
2266	6.75e-05
2278	6.75e-05
2290	7.5e-05
2302	0.0001275
2314	0.00018
2326	0.0002025
2338	0.0002025
2350	0.000165
2362	0.00012
2374	0.000105
2386	7.5e-05
2398	7.5e-05
2410	0.00012
2422	0.0001725
2434	0.000165
2446	0.00024
2458	0.0002175
2470	0.0002025
2482	0.00024
2494	0.0002475
2506	0.000195
2518	0.00018
2530	0.00015
2542	0.000165
2554	0.000105
2566	8.25e-05
2578	6.75e-05
2590	8.25e-05
2602	0.0001125
2614	9.75e-05
2626	0.000105
2638	0.00012
2650	0.0001725
2662	0.00015
2674	0.0001725
2686	0.0001575
2698	0.00021
2710	0.0001875
2722	0.000195
2734	0.000285
2746	0.0002775
2758	0.0003075
2770	0.000345
2782	0.00036
2794	0.0003075
2806	0.0003375
2818	0.00045
2830	0.0005475
2842	0.000645
2854	0.0008175
2866	0.0012375
2878	0.001935
2890	0.0023475
2902	0.002925
2914	0.003915
2926	0.0042075
2938	0.0068475
2950	0.0066525
2962	0.0052875
2974	0.0074625
2986	0.0111825
2998	0.0095325
3010	0.0056025
3022	0.00342
3034	0.0021675
3046	0.002055
3058	0.0044925
3070	0.00726
3082	0.00273
3094	0.001095
3106	0.0006375
3118	0.00048
3130	0.000405
3142	0.00036
3154	0.00036
3166	0.00024
3178	0.0002175
3190	0.0002925
3202	0.000255
3214	0.0001875
3226	0.0002325
3238	0.0002325
3250	0.000195
3262	0.0002325
3274	0.0001125
3286	0.0001425
3298	0.0001425
3310	0.0001575
3322	0.00015
3334	0.0001725
3346	0.000135
3358	9.75e-05
3370	0.000195
3382	0.00015
3394	0.0001275
3406	0.000195
3418	0.0001575
3430	0.0001275
3442	0.0001575
3454	0.000135
3466	0.00012
3478	0.00012
3490	0.000225
3502	0.000165
3514	0.00018
3526	0.000195
3538	0.000195
3550	0.0001425
3562	0.00018
3574	0.000135
3586	0.0001275
3598	0.00015
3610	9.75e-05
3622	0.000285
3634	0.0001725
3646	0.000165
3658	0.000165
3670	5.25e-05
3682	0.00021
3694	0.0001425
3706	0.0001425
3718	0.000165
3730	0.00021
3742	0.0001725
3754	0.0002325
3766	0.000195
3778	0.0001725
3790	0.00018
3802	0.00021
3814	0.000135
3826	0.00024
3838	0.0001875
