Infrared Spectrum: 2,3-Dibromo-4-hydroxy-5-methoxybenzaldehyde
Formula: C 8 H 6 Br 2 O 3
CAS: 2973-75-3
State: gas
Origin: EPA-IR VAPOR PHASE LIBRARY
1/CM	ABSORBANCE
549.8	0.0013187
559.445	0.0007515
569.09	0.001825
578.734	0.001645
588.379	0.003025
598.024	0.002485
607.669	0.002335
617.313	0.002145
626.958	0.0010916
636.603	0.0011903
646.248	0.001118
655.893	0.0009177
665.537	0.0013045
675.182	0.002975
684.827	0.003415
694.472	0.002385
704.116	0.001365
713.761	0.0012911
723.406	0.0012567
733.051	0.001545
742.695	0.0012534
752.34	0.0010278
761.985	0.0007303
771.63	0.00035369
781.275	0.001665
790.919	0.0010569
800.564	0.0008157
810.209	0.0010198
819.854	0.001675
829.498	0.001895
839.143	0.003245
848.788	0.004605
858.433	0.003655
868.078	0.003085
877.722	0.002175
887.367	0.001725
897.012	0.0013067
906.657	0.0010143
916.301	0.0010827
925.946	0.0013188
935.591	0.001925
945.236	0.002115
954.88	0.002765
964.525	0.003605
974.17	0.004835
983.815	0.004595
993.46	0.002925
1003.1	0.001835
1012.75	0.002235
1022.39	0.001595
1032.04	0.002785
1041.68	0.003225
1051.33	0.006005
1060.97	0.010945
1070.62	0.009025
1080.26	0.003635
1089.91	0.0012793
1099.55	0.002575
1109.2	0.001725
1118.84	0.002515
1128.49	0.002695
1138.13	0.002285
1147.78	0.005605
1157.42	0.012335
1167.07	0.014275
1176.71	0.010765
1186.36	0.008315
1196	0.006845
1205.64	0.004885
1215.29	0.003365
1224.93	0.003455
1234.58	0.005585
1244.22	0.010635
1253.87	0.012145
1263.51	0.010775
1273.16	0.014745
1282.8	0.009335
1292.45	0.004935
1302.09	0.003925
1311.74	0.005105
1321.38	0.007125
1331.03	0.006985
1340.67	0.005895
1350.32	0.004215
1359.96	0.005495
1369.61	0.013705
1379.25	0.023225
1388.9	0.011205
1398.54	0.007615
1408.18	0.009515
1417.83	0.005385
1427.47	0.003555
1437.12	0.004625
1446.76	0.007305
1456.41	0.010245
1466.05	0.017835
1475.7	0.018085
1485.34	0.008195
1494.99	0.003985
1504.63	0.002965
1514.28	0.002225
1523.92	0.002165
1533.57	0.002035
1543.21	0.002065
1552.86	0.003115
1562.5	0.003845
1572.15	0.004545
1581.79	0.008145
1591.44	0.008505
1601.08	0.003465
1610.73	0.002205
1620.37	0.001685
1630.01	0.001575
1639.66	0.001705
1649.3	0.001535
1658.95	0.001655
1668.59	0.002055
1678.24	0.002125
1687.88	0.004335
1697.53	0.020815
1707.17	0.030575
1716.82	0.005635
1726.46	0.003325
1736.11	0.002325
1745.75	0.001425
1755.4	0.0012849
1765.04	0.0012055
1774.69	0.0009759
1784.33	0.0010649
1793.98	0.0011746
1803.62	0.0009941
1813.27	0.0009516
1822.91	0.0008073
1832.55	0.0007397
1842.2	0.0008655
1851.84	0.0009045
1861.49	0.0008022
1871.13	0.0010272
1880.78	0.0009567
1890.42	0.0009052
1900.07	0.0009088
1909.71	0.000658
1919.36	0.0008873
1929	0.0009277
1938.65	0.0006744
1948.29	0.0009002
1957.94	0.0009788
1967.58	0.0007931
1977.23	0.0009924
1986.87	0.0010225
1996.52	0.0012403
2006.16	0.0008352
2015.81	0.0009168
2025.45	0.0011185
2035.1	0.0011665
2044.74	0.0012344
2054.38	0.0009394
2064.03	0.0009618
2073.67	0.0008694
2083.32	0.001025
2092.96	0.0010155
2102.61	0.0009158
2112.25	0.0009739
2121.9	0.0009502
2131.54	0.0010244
2141.19	0.0010443
2150.83	0.000866
2160.48	0.0009936
2170.12	0.0007696
2179.77	0.0010251
2189.41	0.0009584
2199.06	0.000857
2208.7	0.0010453
2218.35	0.0009064
2227.99	0.0010588
2237.64	0.0009254
2247.28	0.0008761
2256.92	0.0009821
2266.57	0.0009422
2276.21	0.0006299
2285.86	0.0008642
2295.5	0.0008137
2305.15	0.0009401
2314.79	0.0009033
2324.44	0.0011827
2334.08	0.0008926
2343.73	0.0008254
2353.37	0.0009523
2363.02	0.0007692
2372.66	0.0010175
2382.31	0.0008809
2391.95	0.0010276
2401.6	0.0009383
2411.24	0.0009686
2420.89	0.0011522
2430.53	0.0010154
2440.18	0.0008815
2449.82	0.0009779
2459.47	0.0010933
2469.11	0.0008142
2478.75	0.0010644
2488.4	0.0011437
2498.04	0.0010945
2507.69	0.0011473
2517.33	0.0010077
2526.98	0.0009857
2536.62	0.001375
2546.27	0.0008899
2555.91	0.0011646
2565.56	0.0010516
2575.2	0.001325
2584.85	0.0012402
2594.49	0.0012317
2604.14	0.0011134
2613.78	0.001405
2623.43	0.0007825
2633.07	0.0012778
2642.72	0.001248
2652.36	0.0011176
2662.01	0.0012687
2671.65	0.0011763
2681.29	0.0008863
2690.94	0.0009517
2700.58	0.0012041
2710.23	0.001415
2719.87	0.001355
2729.52	0.001475
2739.16	0.001645
2748.81	0.001495
2758.45	0.001455
2768.1	0.001545
2777.74	0.001251
2787.39	0.001415
2797.03	0.001345
2806.68	0.001535
2816.32	0.001445
2825.97	0.001515
2835.61	0.001875
2845.26	0.002225
2854.9	0.003495
2864.55	0.005215
2874.19	0.004585
2883.84	0.002605
2893.48	0.001785
2903.12	0.001585
2912.77	0.002345
2922.41	0.001875
2932.06	0.001955
2941.7	0.002665
2951.35	0.003625
2960.99	0.002965
2970.64	0.002445
2980.28	0.002775
2989.93	0.002085
2999.57	0.002005
3009.22	0.002115
3018.86	0.002845
3028.51	0.002335
3038.15	0.001695
3047.8	0.0010368
3057.44	0.0011855
3067.09	0.0011715
3076.73	0.001425
3086.38	0.001317
3096.02	0.0009621
3105.67	0.0007591
3115.31	0.0010514
3124.95	0.0005025
3134.6	0.0010935
3144.24	0.0010608
3153.89	0.0009487
3163.53	0.0009829
3173.18	0.00065
3182.82	0.0012389
3192.47	0.0006804
3202.11	0.0012778
3211.76	0.0008416
3221.4	0.0008651
3231.05	0.0010199
3240.69	0.0007287
3250.34	0.0008629
3259.98	0.0011072
3269.63	0.0007464
3279.27	0.0006291
3288.92	0.000565
3298.56	0.0007866
3308.21	0.0009198
3317.85	0.0006779
3327.49	0.0010465
3337.14	0.0008598
3346.78	0.0006376
3356.43	0.0010976
3366.07	0.0006386
3375.72	0.0011179
3385.36	0.001475
3395.01	0.0013214
3404.65	0.0011863
3414.3	0.0010252
3423.94	0.0011207
3433.59	0.0004701
3443.23	0.0010064
3452.88	0.0008944
3462.52	0.0010872
3472.17	0.00032155
3481.81	0.0012737
3491.46	0.0008541
3501.1	0.0010846
3510.75	0.001915
3520.39	0.004695
3530.04	0.005175
3539.68	0.005215
3549.32	0.010065
3558.97	0.010285
3568.61	0.004825
3578.26	0.001425
3587.9	0.001485
3597.55	0.0009422
3607.19	0.0012397
3616.84	0.0010144
3626.48	0.0011012
3636.13	0.0008034
3645.77	0.0005868
3655.42	0.0010994
3665.06	0.00040941
3674.71	0.0010572
3684.35	0.001345
3694	0.00083
3703.64	0.0011477
3713.29	0.0006195
3722.93	0.0004381
3732.58	0.0007377
3742.22	0.0007531
3751.86	0.000787
3761.51	0.0008686
3771.15	0.0007202
3780.8	0.0007701
3790.44	0.0005596
3800.09	0.00041487
3809.73	0.0005501
3819.38	0.0005245
3829.02	0.0008495
3838.67	0.0006053
3848.31	0.0006946
3857.96	0.0007382
3867.6	0.0011588
3877.25	0.0005297
3886.89	0.000729
3896.54	0.00115
3906.18	0.0008123
3915.83	0.0006555
3925.47	0.00038065
3935.12	0.0007505
3944.76	0.0008656
3954.41	0.0005473
3964.05	0.0008946
3973.69	0.0011743
3983.34	0.0006922
3992.98	0.0007959
