Infrared Spectrum: 2-(Chloromethyl)-4-nitrophenol
Formula: C 7 H 6 Cl N O 3
CAS: 2973-19-5
State: gas
Instrument: HP-GC/MS/IRD
Origin: NIST Mass Spectrometry Data Center
1/CM	ABSORBANCE
550	0.0029547
562	0.002499
574	0.0031899
586	0.004116
598	0.0049098
610	0.0059682
622	0.0076146
634	0.0130536
646	0.018375
658	0.0162141
670	0.0056007
682	0.002646
694	0.0020727
706	0.0028812
718	0.0048804
730	0.0039543
742	0.0080262
754	0.0104664
766	0.0066738
778	0.0032193
790	0.0007056
802	0.0011025
814	0.0057036
826	0.0121716
838	0.0100401
850	0.0025431
862	0.0004263
874	0.0014112
886	0.0051744
898	0.0093051
910	0.0097902
922	0.011613
934	0.0118188
946	0.0052479
958	0.0052773
970	0.00441
982	0.0032634
994	0.0039837
1006	0.004557
1018	0.0038514
1030	0.0050715
1042	0.005733
1054	0.0102018
1066	0.0191247
1078	0.0374115
1090	0.063063
1102	0.0734265
1114	0.0452319
1126	0.0217707
1138	0.0143472
1150	0.0140973
1162	0.0182427
1174	0.0198891
1186	0.0184926
1198	0.0156849
1210	0.0147882
1222	0.0227556
1234	0.0448791
1246	0.0498918
1258	0.0447468
1270	0.0450702
1282	0.0415863
1294	0.0233877
1306	0.0118776
1318	0.0148617
1330	0.0390138
1342	0.114719
1354	0.13499
1366	0.0529641
1378	0.020139
1390	0.0116277
1402	0.008085
1414	0.0075852
1426	0.0102606
1438	0.015141
1450	0.0206094
1462	0.027195
1474	0.0334425
1486	0.0559041
1498	0.0487599
1510	0.0232407
1522	0.0297822
1534	0.0597114
1546	0.0778071
1558	0.0423948
1570	0.0232848
1582	0.0382347
1594	0.0476133
1606	0.0233142
1618	0.0202419
1630	0.022197
1642	0.0083202
1654	0.0028812
1666	0.0023373
1678	0.0020874
1690	0.0013818
1702	0.0009849
1714	0.000882
1726	0.0006174
1738	0.000441
1750	0.000294
1762	0.0002352
1774	0.0005292
1786	0.0008967
1798	0.0006321
1810	0.0003381
1822	0.0002205
1834	8.82e-05
1846	0
1858	1.47e-05
1870	0.0002058
1882	0.000441
1894	0.0007938
1906	0.001323
1918	0.0009555
1930	0.0003234
1942	0.0002793
1954	0.0003969
1966	0.0004704
1978	0.0004557
1990	0.0005439
2002	0.0006762
2014	0.0008232
2026	0.0008673
2038	0.0009408
2050	0.0011025
2062	0.0011025
2074	0.0009849
2086	0.0008085
2098	0.0006321
2110	0.0005292
2122	0.000441
2134	0.0003969
2146	0.0004116
2158	0.0004263
2170	0.0004851
2182	0.0004851
2194	0.0005145
2206	0.0004998
2218	0.0004557
2230	0.0004851
2242	0.0006468
2254	0.000735
2266	0.0007938
2278	0.0007203
2290	0.0006174
2302	0.0005292
2314	0.0005292
2326	0.0005292
2338	0.0006321
2350	0.0007791
2362	0.0008379
2374	0.0007203
2386	0.0006174
2398	0.0006174
2410	0.0006321
2422	0.0007056
2434	0.0008085
2446	0.0008379
2458	0.0008526
2470	0.0008967
2482	0.000882
2494	0.0009408
2506	0.0010878
2518	0.0012936
2530	0.0014112
2542	0.0014847
2554	0.0013377
2566	0.0010878
2578	0.0009261
2590	0.0009996
2602	0.0011613
2614	0.0012348
2626	0.0010584
2638	0.0009114
2650	0.0009114
2662	0.0008673
2674	0.0009702
2686	0.001029
2698	0.0011319
2710	0.0012201
2722	0.0013524
2734	0.0015141
2746	0.0016464
2758	0.0017493
2770	0.001911
2782	0.0022932
2794	0.0031164
2806	0.004704
2818	0.007644
2830	0.0136857
2842	0.0162288
2854	0.0119364
2866	0.0127596
2878	0.0141708
2890	0.0144501
2902	0.015141
2914	0.0153321
2926	0.0178752
2938	0.0225645
2950	0.0203007
2962	0.0116865
2974	0.007791
2986	0.0074088
2998	0.0095991
3010	0.0098196
3022	0.0049686
3034	0.0036897
3046	0.0032046
3058	0.0029988
3070	0.0036897
3082	0.0037926
3094	0.0031899
3106	0.0025137
3118	0.0020286
3130	0.0018081
3142	0.0017052
3154	0.0016023
3166	0.0016611
3178	0.0016464
3190	0.0016317
3202	0.0017052
3214	0.0018228
3226	0.0018228
3238	0.0018228
3250	0.0021021
3262	0.0022491
3274	0.0026166
3286	0.0031164
3298	0.003822
3310	0.0044394
3322	0.0051303
3334	0.0063651
3346	0.0088494
3358	0.0125391
3370	0.0162876
3382	0.0192423
3394	0.022491
3406	0.0289149
3418	0.0376026
3430	0.038073
3442	0.0289149
3454	0.0214032
3466	0.0180516
3478	0.0164052
3490	0.0141267
3502	0.011172
3514	0.0085848
3526	0.0071001
3538	0.0061446
3550	0.0052038
3562	0.0041601
3574	0.003234
3586	0.0026607
3598	0.0023373
3610	0.0020433
3622	0.002058
3634	0.003675
3646	0.0070413
3658	0.0034104
3670	0.0010878
3682	0.0007791
3694	0.0004998
3706	0.0004557
3718	0.0003969
3730	0.0002499
3742	0.0002352
3754	5.88e-05
3766	0
3778	2.94e-05
3790	0
3802	0
3814	0
3826	0
3838	1.47e-05
