Infrared Spectrum: p-Butoxybenzylidene p-butylaniline
Formula: C 21 H 27 N O
CAS: 29743-09-7
State: gas
Origin: EPA-IR VAPOR PHASE LIBRARY
1/CM	ABSORBANCE
549.8	0.0087004
559.445	0.0083904
569.09	0.0054304
578.734	0.0033204
588.379	0.0029104
598.024	0.0033104
607.669	0.0046404
617.313	0.0046904
626.958	0.0028904
636.603	0.0025604
646.248	0.0014004
655.893	0.0008502
665.537	0.0008814
675.182	0.0006682
684.827	0.0008753
694.472	0.0011904
704.116	0.0016904
713.761	0.0028304
723.406	0.0028404
733.051	0.0027004
742.695	0.0026704
752.34	0.0028704
761.985	0.0031604
771.63	0.0034704
781.275	0.0040504
790.919	0.0051204
800.564	0.0074204
810.209	0.0100504
819.854	0.0145804
829.498	0.0229204
839.143	0.0232404
848.788	0.0127404
858.433	0.0080104
868.078	0.0080804
877.722	0.0132104
887.367	0.0190204
897.012	0.0094804
906.657	0.0053604
916.301	0.0036604
925.946	0.0035804
935.591	0.0037604
945.236	0.0046204
954.88	0.0064604
964.525	0.0094004
974.17	0.0116004
983.815	0.0087404
993.46	0.0081204
1003.1	0.0114904
1012.75	0.0207004
1022.39	0.0194704
1032.04	0.0165804
1041.68	0.0113404
1051.33	0.0083804
1060.97	0.0111904
1070.62	0.0126904
1080.26	0.0092104
1089.91	0.0072104
1099.55	0.0093304
1109.2	0.0112704
1118.84	0.0092404
1128.49	0.0074304
1138.13	0.0084504
1147.78	0.0134104
1157.42	0.0529304
1167.07	0.0979704
1176.71	0.0192104
1186.36	0.0198804
1196	0.0278104
1205.64	0.0279404
1215.29	0.0430004
1224.93	0.0568504
1234.58	0.0770404
1244.22	0.10379
1253.87	0.0826604
1263.51	0.0419704
1273.16	0.0254104
1282.8	0.0239304
1292.45	0.0283704
1302.09	0.0363104
1311.74	0.0237304
1321.38	0.0132404
1331.03	0.0103904
1340.67	0.0095904
1350.32	0.0085104
1359.96	0.0084304
1369.61	0.0086004
1379.25	0.0106704
1388.9	0.0130504
1398.54	0.0088404
1408.18	0.0081604
1417.83	0.0151204
1427.47	0.0089704
1437.12	0.0077504
1446.76	0.0093204
1456.41	0.0127304
1466.05	0.0181004
1475.7	0.0242604
1485.34	0.0171504
1494.99	0.0263904
1504.63	0.0789604
1514.28	0.0892904
1523.92	0.0233804
1533.57	0.0112404
1543.21	0.0083404
1552.86	0.0087604
1562.5	0.0134804
1572.15	0.0323504
1581.79	0.0301004
1591.44	0.0533804
1601.08	0.0961404
1610.73	0.0519504
1620.37	0.0294204
1630.01	0.0556604
1639.66	0.0342604
1649.3	0.0139304
1658.95	0.0084904
1668.59	0.0061604
1678.24	0.0046204
1687.88	0.0036404
1697.53	0.0030004
1707.17	0.0025504
1716.82	0.0024104
1726.46	0.0022704
1736.11	0.0022204
1745.75	0.0022504
1755.4	0.0026904
1765.04	0.0030804
1774.69	0.0024704
1784.33	0.0017804
1793.98	0.0016104
1803.62	0.0014404
1813.27	0.0013304
1822.91	0.0011304
1832.55	0.0012504
1842.2	0.0013404
1851.84	0.0014204
1861.49	0.0015504
1871.13	0.0019104
1880.78	0.0024004
1890.42	0.0025904
1900.07	0.0021104
1909.71	0.0017504
1919.36	0.0016304
1929	0.0019904
1938.65	0.0019204
1948.29	0.0015904
1957.94	0.0014304
1967.58	0.0014304
1977.23	0.0015204
1986.87	0.0015904
1996.52	0.0016404
2006.16	0.0018404
2015.81	0.0021404
2025.45	0.0019804
2035.1	0.0020104
2044.74	0.0021104
2054.38	0.0019504
2064.03	0.0017304
2073.67	0.0017004
2083.32	0.0015804
2092.96	0.0013504
2102.61	0.0011104
2112.25	0.00104
2121.9	0.0009736
2131.54	0.0008483
2141.19	0.0008283
2150.83	0.0007887
2160.48	0.0006479
2170.12	0.0007174
2179.77	0.0006831
2189.41	0.0006909
2199.06	0.0005596
2208.7	0.0006762
2218.35	0.0006516
2227.99	0.0006404
2237.64	0.000648
2247.28	0.000698
2256.92	0.0008594
2266.57	0.0008346
2276.21	0.0008992
2285.86	0.0008082
2295.5	0.0009093
2305.15	0.0008662
2314.79	0.0008284
2324.44	0.0008762
2334.08	0.0009206
2343.73	0.00095
2353.37	0.0009976
2363.02	0.0009824
2372.66	0.0011804
2382.31	0.0011404
2391.95	0.0011704
2401.6	0.0013504
2411.24	0.0012804
2420.89	0.0011904
2430.53	0.0012304
2440.18	0.0012704
2449.82	0.0014104
2459.47	0.0015604
2469.11	0.0015404
2478.75	0.0016604
2488.4	0.0016804
2498.04	0.0015904
2507.69	0.0015204
2517.33	0.0016604
2526.98	0.0017504
2536.62	0.0019404
2546.27	0.0021004
2555.91	0.0019504
2565.56	0.0018704
2575.2	0.0018004
2584.85	0.0015704
2594.49	0.0014104
2604.14	0.0012404
2613.78	0.0012304
2623.43	0.0011704
2633.07	0.0011904
2642.72	0.0012404
2652.36	0.0013604
2662.01	0.0013304
2671.65	0.0014104
2681.29	0.0014504
2690.94	0.0014404
2700.58	0.0014704
2710.23	0.0016704
2719.87	0.0018504
2729.52	0.0021204
2739.16	0.0024704
2748.81	0.0028004
2758.45	0.0028304
2768.1	0.0027204
2777.74	0.0027904
2787.39	0.0029804
2797.03	0.0034004
2806.68	0.0038404
2816.32	0.0047204
2825.97	0.0060104
2835.61	0.0083304
2845.26	0.0131704
2854.9	0.0221904
2864.55	0.0318904
2874.19	0.0360804
2883.84	0.0380504
2893.48	0.0304604
2903.12	0.0290404
2912.77	0.0365704
2922.41	0.0492104
2932.06	0.0635704
2941.7	0.0678804
2951.35	0.0552304
2960.99	0.0592704
2970.64	0.0659304
2980.28	0.0361104
2989.93	0.0203404
2999.57	0.0148004
3009.22	0.0124004
3018.86	0.0141804
3028.51	0.0214204
3038.15	0.0146004
3047.8	0.0095604
3057.44	0.0086304
3067.09	0.0094804
3076.73	0.0118304
3086.38	0.0082804
3096.02	0.0063704
3105.67	0.0047004
3115.31	0.0036004
3124.95	0.0026104
3134.6	0.0019704
3144.24	0.0016804
3153.89	0.0013804
3163.53	0.0013204
3173.18	0.0010308
3182.82	0.0011904
3192.47	0.0011804
3202.11	0.0012604
3211.76	0.0010546
3221.4	0.0010904
3231.05	0.0011704
3240.69	0.0010904
3250.34	0.0011104
3259.98	0.000886
3269.63	0.0007524
3279.27	0.0005395
3288.92	0.0004747
3298.56	0.0003968
3308.21	0.0002946
3317.85	0.000435
3327.49	0.0003464
3337.14	0.0002738
3346.78	0.0002953
3356.43	0.0002421
3366.07	0.0003489
3375.72	0.0002645
3385.36	0.000257
3395.01	0.0002882
3404.65	0.0002918
3414.3	0.0001851
3423.94	0.0003304
3433.59	0.0002256
3443.23	0.0002877
3452.88	0.0002162
3462.52	0.0002441
3472.17	0.0002365
3481.81	0.000206
3491.46	0.0002705
3501.1	0
3510.75	0.0001728
3520.39	0.0002861
3530.04	0.00016679
3539.68	0.00012146
3549.32	0.0002349
3558.97	0.00016492
3568.61	0.0002547
3578.26	0.0003097
3587.9	0.0001845
3597.55	0.0002636
3607.19	0.0003229
3616.84	0.0003646
3626.48	0.0003683
3636.13	0.0003723
3645.77	0.0003433
3655.42	0.0003915
3665.06	0.0003844
3674.71	0.0003719
3684.35	0.0004765
3694	0.0003231
3703.64	0.000375
3713.29	0.0004618
3722.93	0.0004115
3732.58	0.000369
3742.22	0.0002705
3751.86	0.0003925
3761.51	0.0005266
3771.15	0.0003241
3780.8	0.0004292
3790.44	0.0004536
3800.09	0.0005381
3809.73	0.0003045
3819.38	0.0004435
3829.02	0.00037
3838.67	0.0003339
3848.31	0.0004862
3857.96	0.0005241
3867.6	0.0004119
3877.25	0.0004522
3886.89	0.0002778
3896.54	0.000365
3906.18	0.0003942
3915.83	0.0005321
3925.47	0.0004564
3935.12	0.000233
3944.76	0.0003755
3954.41	0.0004316
3964.05	0.0004446
3973.69	0.0003541
3983.34	0.0003901
3992.98	0.0003309
