Infrared Spectrum: p-Ethoxybenzylidene p-butylaniline
Formula: C 19 H 23 N O
CAS: 29743-08-6
State: gas
Origin: EPA-IR VAPOR PHASE LIBRARY
1/CM	ABSORBANCE
549.8	0.009918
559.445	0.009038
569.09	0.005648
578.734	0.003558
588.379	0.002828
598.024	0.003738
607.669	0.005368
617.313	0.004818
626.958	0.002708
636.603	0.002408
646.248	0.001478
655.893	0.0010283
665.537	0.0007887
675.182	0.0008397
684.827	0.0008321
694.472	0.0010414
704.116	0.001678
713.761	0.002718
723.406	0.002858
733.051	0.002048
742.695	0.002178
752.34	0.002318
761.985	0.002588
771.63	0.003098
781.275	0.003988
790.919	0.005368
800.564	0.007968
810.209	0.011428
819.854	0.016408
829.498	0.023738
839.143	0.024028
848.788	0.014168
858.433	0.008588
868.078	0.007958
877.722	0.012648
887.367	0.017788
897.012	0.011718
906.657	0.009378
916.301	0.008728
925.946	0.007868
935.591	0.005038
945.236	0.003698
954.88	0.003448
964.525	0.004378
974.17	0.004678
983.815	0.003598
993.46	0.003518
1003.1	0.004858
1012.75	0.011608
1022.39	0.010778
1032.04	0.017848
1041.68	0.027238
1051.33	0.022778
1060.97	0.013118
1070.62	0.009038
1080.26	0.009418
1089.91	0.012368
1099.55	0.014288
1109.2	0.015508
1118.84	0.013238
1128.49	0.008848
1138.13	0.008588
1147.78	0.014488
1157.42	0.055588
1167.07	0.104298
1176.71	0.021248
1186.36	0.021048
1196	0.027678
1205.64	0.023438
1215.29	0.033338
1224.93	0.056928
1234.58	0.102778
1244.22	0.118308
1253.87	0.083878
1263.51	0.036588
1273.16	0.021978
1282.8	0.021918
1292.45	0.027568
1302.09	0.039798
1311.74	0.026098
1321.38	0.012598
1331.03	0.009478
1340.67	0.008998
1350.32	0.008178
1359.96	0.008518
1369.61	0.009418
1379.25	0.009918
1388.9	0.014098
1398.54	0.014968
1408.18	0.011138
1417.83	0.015828
1427.47	0.009438
1437.12	0.007348
1446.76	0.008808
1456.41	0.010768
1466.05	0.012298
1475.7	0.016848
1485.34	0.023488
1494.99	0.027388
1504.63	0.080198
1514.28	0.094998
1523.92	0.024088
1533.57	0.011618
1543.21	0.008648
1552.86	0.008948
1562.5	0.013508
1572.15	0.031498
1581.79	0.034148
1591.44	0.053058
1601.08	0.095918
1610.73	0.056588
1620.37	0.032328
1630.01	0.059518
1639.66	0.037888
1649.3	0.015538
1658.95	0.009628
1668.59	0.006878
1678.24	0.005158
1687.88	0.003938
1697.53	0.003148
1707.17	0.002748
1716.82	0.002518
1726.46	0.002408
1736.11	0.002208
1745.75	0.002228
1755.4	0.002698
1765.04	0.003128
1774.69	0.002548
1784.33	0.001808
1793.98	0.001638
1803.62	0.001478
1813.27	0.001368
1822.91	0.001298
1832.55	0.001348
1842.2	0.001478
1851.84	0.001568
1861.49	0.001748
1871.13	0.002028
1880.78	0.002678
1890.42	0.002868
1900.07	0.002448
1909.71	0.001998
1919.36	0.002018
1929	0.002438
1938.65	0.002428
1948.29	0.001978
1957.94	0.001768
1967.58	0.001718
1977.23	0.001678
1986.87	0.001648
1996.52	0.001548
2006.16	0.001698
2015.81	0.001928
2025.45	0.001788
2035.1	0.001738
2044.74	0.001918
2054.38	0.001958
2064.03	0.001688
2073.67	0.001708
2083.32	0.001638
2092.96	0.001348
2102.61	0.001208
2112.25	0.0010864
2121.9	0.0009027
2131.54	0.0009342
2141.19	0.0008404
2150.83	0.0008306
2160.48	0.000756
2170.12	0.0007844
2179.77	0.0006886
2189.41	0.0006672
2199.06	0.0006148
2208.7	0.0006482
2218.35	0.0006798
2227.99	0.0005556
2237.64	0.0006273
2247.28	0.0007321
2256.92	0.0008247
2266.57	0.0009119
2276.21	0.0009161
2285.86	0.0009296
2295.5	0.0009046
2305.15	0.0008401
2314.79	0.0008443
2324.44	0.0008687
2334.08	0.0009463
2343.73	0.0010105
2353.37	0.0009426
2363.02	0.0009067
2372.66	0.0010237
2382.31	0.001138
2391.95	0.001298
2401.6	0.001278
2411.24	0.001368
2420.89	0.001278
2430.53	0.001218
2440.18	0.001348
2449.82	0.001588
2459.47	0.001708
2469.11	0.001748
2478.75	0.001708
2488.4	0.001718
2498.04	0.001548
2507.69	0.001678
2517.33	0.001728
2526.98	0.001768
2536.62	0.002038
2546.27	0.002248
2555.91	0.002048
2565.56	0.001778
2575.2	0.001668
2584.85	0.001608
2594.49	0.001338
2604.14	0.001318
2613.78	0.001138
2623.43	0.001088
2633.07	0.001128
2642.72	0.001108
2652.36	0.001178
2662.01	0.001178
2671.65	0.001188
2681.29	0.001188
2690.94	0.001308
2700.58	0.001268
2710.23	0.001478
2719.87	0.001768
2729.52	0.001988
2739.16	0.002188
2748.81	0.002428
2758.45	0.002328
2768.1	0.002488
2777.74	0.002668
2787.39	0.002808
2797.03	0.003198
2806.68	0.003488
2816.32	0.004278
2825.97	0.005448
2835.61	0.007568
2845.26	0.011748
2854.9	0.020168
2864.55	0.028878
2874.19	0.030138
2883.84	0.029928
2893.48	0.024788
2903.12	0.024648
2912.77	0.030248
2922.41	0.041508
2932.06	0.054058
2941.7	0.055508
2951.35	0.039328
2960.99	0.038928
2970.64	0.044668
2980.28	0.032718
2989.93	0.029268
2999.57	0.021418
3009.22	0.015268
3018.86	0.015978
3028.51	0.023008
3038.15	0.015368
3047.8	0.010228
3057.44	0.009268
3067.09	0.010118
3076.73	0.012918
3086.38	0.008948
3096.02	0.006568
3105.67	0.005178
3115.31	0.004008
3124.95	0.002578
3134.6	0.001908
3144.24	0.001688
3153.89	0.001478
3163.53	0.001148
3173.18	0.001118
3182.82	0.001198
3192.47	0.001258
3202.11	0.001198
3211.76	0.0010732
3221.4	0.001086
3231.05	0.0010049
3240.69	0.001198
3250.34	0.001148
3259.98	0.001108
3269.63	0.0007773
3279.27	0.0005682
3288.92	0.0003647
3298.56	0.0004198
3308.21	0.0003632
3317.85	0.0002843
3327.49	0.0002794
3337.14	0.0003674
3346.78	0.0004126
3356.43	0.0002374
3366.07	0.0004528
3375.72	0.0002975
3385.36	0.0002065
3395.01	0.0003055
3404.65	0.00018507
3414.3	0.0001923
3423.94	0.0002212
3433.59	0.00018133
3443.23	0.0002317
3452.88	0.0002206
3462.52	0.00016594
3472.17	0.00016204
3481.81	0.0002261
3491.46	0.0002615
3501.1	0.000215
3510.75	6.94e-05
3520.39	0.0002014
3530.04	0.0002961
3539.68	9.877e-05
3549.32	0.0001957
3558.97	9.995e-05
3568.61	0.0002095
3578.26	0.000289
3587.9	0.000237
3597.55	0.0002793
3607.19	0.00015323
3616.84	0.000206
3626.48	9.5542e-05
3636.13	0.0001941
3645.77	0.0003344
3655.42	0.0002769
3665.06	0.0003298
3674.71	0.0003721
3684.35	0.0003224
3694	0.0003645
3703.64	0.0002414
3713.29	0.0002749
3722.93	0.000339
3732.58	0.0002748
3742.22	0.0001938
3751.86	0.0002472
3761.51	0.0003763
3771.15	0.0003715
3780.8	0.0002317
3790.44	0.0002999
3800.09	0.0003433
3809.73	0.0003937
3819.38	0.000274
3829.02	0.0003077
3838.67	0.000407
3848.31	0.0004092
3857.96	0.0004112
3867.6	0.0003797
3877.25	0.0003999
3886.89	0.0003119
3896.54	0.0003528
3906.18	0.00018394
3915.83	0.0002406
3925.47	0.0003429
3935.12	0.0004092
3944.76	0.0004242
3954.41	0.0002451
3964.05	0.0005189
3973.69	0.0004269
3983.34	0.000403
3992.98	0.0003793
