Infrared Spectrum: p-Hexyloxybenzylidene p-butylaniline
Formula: C 23 H 31 N O
CAS: 29743-11-1
State: gas
Origin: EPA-IR VAPOR PHASE LIBRARY
1/CM	ABSORBANCE
549.8	0.002853
559.445	0.003153
569.09	0.001733
578.734	0.0010522
588.379	0.0011317
598.024	0.001463
607.669	0.001423
617.313	0.001823
626.958	0.0010861
636.603	0.0011569
646.248	0.0008286
655.893	0.0006291
665.537	0.0008885
675.182	0.0004703
684.827	0.0004197
694.472	0.000658
704.116	0.0009164
713.761	0.0011846
723.406	0.001343
733.051	0.001353
742.695	0.0009441
752.34	0.0012398
761.985	0.001363
771.63	0.001403
781.275	0.001543
790.919	0.001983
800.564	0.002563
810.209	0.003143
819.854	0.004403
829.498	0.006803
839.143	0.006703
848.788	0.003663
858.433	0.002733
868.078	0.002523
877.722	0.003913
887.367	0.005243
897.012	0.002543
906.657	0.001763
916.301	0.001613
925.946	0.002133
935.591	0.002473
945.236	0.002363
954.88	0.002223
964.525	0.002143
974.17	0.002583
983.815	0.002333
993.46	0.002823
1003.1	0.003943
1012.75	0.006883
1022.39	0.006553
1032.04	0.005413
1041.68	0.004633
1051.33	0.004143
1060.97	0.003313
1070.62	0.002853
1080.26	0.002653
1089.91	0.002483
1099.55	0.002983
1109.2	0.002503
1118.84	0.002913
1128.49	0.002763
1138.13	0.002433
1147.78	0.004073
1157.42	0.015713
1167.07	0.028053
1176.71	0.006413
1186.36	0.006293
1196	0.008903
1205.64	0.008573
1215.29	0.011513
1224.93	0.016493
1234.58	0.024423
1244.22	0.031063
1253.87	0.022463
1263.51	0.011303
1273.16	0.007603
1282.8	0.007493
1292.45	0.008793
1302.09	0.010933
1311.74	0.006893
1321.38	0.004143
1331.03	0.003233
1340.67	0.003103
1350.32	0.002753
1359.96	0.002783
1369.61	0.002833
1379.25	0.003413
1388.9	0.004033
1398.54	0.002713
1408.18	0.002633
1417.83	0.004563
1427.47	0.002813
1437.12	0.002513
1446.76	0.003143
1456.41	0.004273
1466.05	0.005493
1475.7	0.007363
1485.34	0.005023
1494.99	0.007643
1504.63	0.022313
1514.28	0.025283
1523.92	0.006613
1533.57	0.003273
1543.21	0.002493
1552.86	0.002643
1562.5	0.004063
1572.15	0.009123
1581.79	0.008893
1591.44	0.015223
1601.08	0.027053
1610.73	0.014573
1620.37	0.008303
1630.01	0.015633
1639.66	0.009683
1649.3	0.004193
1658.95	0.002673
1668.59	0.002013
1678.24	0.001623
1687.88	0.001353
1697.53	0.0010895
1707.17	0.0009912
1716.82	0.0009473
1726.46	0.0008622
1736.11	0.0008935
1745.75	0.0009333
1755.4	0.0010453
1765.04	0.0010853
1774.69	0.0009326
1784.33	0.0006705
1793.98	0.0006752
1803.62	0.0006464
1813.27	0.0005854
1822.91	0.0005858
1832.55	0.000557
1842.2	0.0005702
1851.84	0.0006228
1861.49	0.0007187
1871.13	0.0008682
1880.78	0.0009666
1890.42	0.0009629
1900.07	0.0008514
1909.71	0.0006801
1919.36	0.0008049
1929	0.000794
1938.65	0.0008177
1948.29	0.0006977
1957.94	0.000638
1967.58	0.000714
1977.23	0.0005806
1986.87	0.0006336
1996.52	0.0007719
2006.16	0.0007524
2015.81	0.0007688
2025.45	0.0007624
2035.1	0.0008507
2044.74	0.0007719
2054.38	0.0007343
2064.03	0.0007805
2073.67	0.0007057
2083.32	0.0006468
2092.96	0.0006036
2102.61	0.000597
2112.25	0.0006374
2121.9	0.0005139
2131.54	0.0004288
2141.19	0.0004984
2150.83	0.0004949
2160.48	0.0003995
2170.12	0.0004435
2179.77	0.0004412
2189.41	0.0004273
2199.06	0.0004119
2208.7	0.00035447
2218.35	0.0004124
2227.99	0.00034998
2237.64	0.00031241
2247.28	0.00033653
2256.92	0.0004508
2266.57	0.0004208
2276.21	0.000464
2285.86	0.0004929
2295.5	0.0004236
2305.15	0.0004201
2314.79	0.0004421
2324.44	0.0004542
2334.08	0.0005132
2343.73	0.0005093
2353.37	0.0006063
2363.02	0.0005378
2372.66	0.0005079
2382.31	0.0004926
2391.95	0.0005278
2401.6	0.000557
2411.24	0.0005151
2420.89	0.0005138
2430.53	0.0005464
2440.18	0.0005738
2449.82	0.000673
2459.47	0.0006721
2469.11	0.0006765
2478.75	0.000605
2488.4	0.00057
2498.04	0.0006904
2507.69	0.0007732
2517.33	0.0006536
2526.98	0.0007567
2536.62	0.0006327
2546.27	0.0007979
2555.91	0.0007549
2565.56	0.0007738
2575.2	0.0007549
2584.85	0.0006296
2594.49	0.0006245
2604.14	0.0005699
2613.78	0.0006198
2623.43	0.0004893
2633.07	0.0004947
2642.72	0.0005666
2652.36	0.0005031
2662.01	0.0004924
2671.65	0.0004612
2681.29	0.0006496
2690.94	0.0006367
2700.58	0.000638
2710.23	0.0006909
2719.87	0.0006984
2729.52	0.0007866
2739.16	0.0010166
2748.81	0.0009343
2758.45	0.0009111
2768.1	0.0010643
2777.74	0.0009209
2787.39	0.0011242
2797.03	0.0012044
2806.68	0.001413
2816.32	0.001733
2825.97	0.002163
2835.61	0.002923
2845.26	0.004613
2854.9	0.008113
2864.55	0.011923
2874.19	0.012543
2883.84	0.011903
2893.48	0.009763
2903.12	0.009813
2912.77	0.012933
2922.41	0.018333
2932.06	0.024753
2941.7	0.025103
2951.35	0.019503
2960.99	0.019113
2970.64	0.018973
2980.28	0.009933
2989.93	0.005743
2999.57	0.004463
3009.22	0.003653
3018.86	0.004383
3028.51	0.006073
3038.15	0.004343
3047.8	0.002813
3057.44	0.002613
3067.09	0.002903
3076.73	0.003433
3086.38	0.002403
3096.02	0.001883
3105.67	0.001423
3115.31	0.0011687
3124.95	0.0009138
3134.6	0.0005717
3144.24	0.0006678
3153.89	0.00048
3163.53	0.0005065
3173.18	0.000445
3182.82	0.000408
3192.47	0.000488
3202.11	0.0005557
3211.76	0.0005111
3221.4	0.0005305
3231.05	0.0005846
3240.69	0.0005282
3250.34	0.0004694
3259.98	0.0004789
3269.63	0.0003975
3279.27	0.00033492
3288.92	0.0004282
3298.56	0.0003865
3308.21	0.00030716
3317.85	0.00016
3327.49	0.0005056
3337.14	0.000286448
3346.78	0.00031294
3356.43	0.000132
3366.07	0.00037373
3375.72	0.0002575
3385.36	0.0004283
3395.01	0.0001894
3404.65	0.0001862
3414.3	0.00032669
3423.94	0.0003947
3433.59	0.0002127
3443.23	0.0001863
3452.88	0.0002243
3462.52	0.000239
3472.17	0.00029468
3481.81	0.00035832
3491.46	0.00027636
3501.1	0.000108
3510.75	0.000138
3520.39	0.0002476
3530.04	0.0004327
3539.68	0.0002358
3549.32	0.000148
3558.97	0.0004314
3568.61	0.0001879
3578.26	0.000174
3587.9	0.00032332
3597.55	0.0001989
3607.19	0.0002171
3616.84	0.0002132
3626.48	0.00036462
3636.13	0.0003835
3645.77	0.00033553
3655.42	0.000282142
3665.06	0.000291097
3674.71	0.0003949
3684.35	0.0004038
3694	0.00035441
3703.64	0.00034041
3713.29	0.0004292
3722.93	0.00030986
3732.58	0.00032748
3742.22	0.0004254
3751.86	0.00036423
3761.51	0.00030525
3771.15	0.00033328
3780.8	0.0002083
3790.44	0.0004323
3800.09	9.6e-05
3809.73	0.0002555
3819.38	0.00034638
3829.02	0.000236
3838.67	0.000179
3848.31	0.0002033
3857.96	0.00034134
3867.6	0.0004799
3877.25	0.00034508
3886.89	0.0004055
3896.54	0.0002162
3906.18	0.0002444
3915.83	0.000179
3925.47	0.00029689
3935.12	0.0002078
3944.76	0.00030749
3954.41	0.000290506
3964.05	0.00036613
3973.69	0.000124
3983.34	0.0004836
3992.98	0.000482
