Infrared Spectrum: p-Methoxybenzylidene p-ethylaniline
Formula: C 16 H 17 N O
CAS: 29743-18-8
State: gas
Origin: EPA-IR VAPOR PHASE LIBRARY
1/CM	ABSORBANCE
549.8	0.017925
559.445	0.014425
569.09	0.010285
578.734	0.009785
588.379	0.011585
598.024	0.008635
607.669	0.004395
617.313	0.002245
626.958	0.002345
636.603	0.002585
646.248	0.001755
655.893	0.001305
665.537	0.0010997
675.182	0.001145
684.827	0.001145
694.472	0.001635
704.116	0.001985
713.761	0.003085
723.406	0.004565
733.051	0.005045
742.695	0.003185
752.34	0.002865
761.985	0.003225
771.63	0.004095
781.275	0.005265
790.919	0.006755
800.564	0.010815
810.209	0.017765
819.854	0.029265
829.498	0.045875
839.143	0.049525
848.788	0.029785
858.433	0.015925
868.078	0.013295
877.722	0.019025
887.367	0.027505
897.012	0.012465
906.657	0.005375
916.301	0.003475
925.946	0.003365
935.591	0.003795
945.236	0.004305
954.88	0.005425
964.525	0.008055
974.17	0.008835
983.815	0.006625
993.46	0.006835
1003.1	0.009495
1012.75	0.018485
1022.39	0.021975
1032.04	0.037645
1041.68	0.043135
1051.33	0.023105
1060.97	0.014855
1070.62	0.008675
1080.26	0.006615
1089.91	0.007435
1099.55	0.011635
1109.2	0.013945
1118.84	0.010425
1128.49	0.008485
1138.13	0.009505
1147.78	0.017415
1157.42	0.073585
1167.07	0.184525
1176.71	0.040335
1186.36	0.039885
1196	0.042095
1205.64	0.027625
1215.29	0.028855
1224.93	0.041885
1234.58	0.078025
1244.22	0.162575
1253.87	0.189055
1263.51	0.079245
1273.16	0.041425
1282.8	0.040895
1292.45	0.051645
1302.09	0.065475
1311.74	0.038495
1321.38	0.021155
1331.03	0.014375
1340.67	0.011245
1350.32	0.009875
1359.96	0.009705
1369.61	0.009885
1379.25	0.008215
1388.9	0.007285
1398.54	0.007745
1408.18	0.012125
1417.83	0.026635
1427.47	0.016235
1437.12	0.014335
1446.76	0.022935
1456.41	0.021185
1466.05	0.029865
1475.7	0.027255
1485.34	0.024415
1494.99	0.038415
1504.63	0.112935
1514.28	0.183895
1523.92	0.046565
1533.57	0.018525
1543.21	0.013465
1552.86	0.014135
1562.5	0.021275
1572.15	0.047615
1581.79	0.061635
1591.44	0.080215
1601.08	0.149685
1610.73	0.098245
1620.37	0.056775
1630.01	0.093885
1639.66	0.061085
1649.3	0.027455
1658.95	0.018015
1668.59	0.011935
1678.24	0.008005
1687.88	0.005915
1697.53	0.004595
1707.17	0.004005
1716.82	0.003545
1726.46	0.003515
1736.11	0.003275
1745.75	0.003565
1755.4	0.004325
1765.04	0.005205
1774.69	0.003895
1784.33	0.002775
1793.98	0.002415
1803.62	0.002205
1813.27	0.002115
1822.91	0.002005
1832.55	0.002125
1842.2	0.002455
1851.84	0.002545
1861.49	0.002705
1871.13	0.003385
1880.78	0.004415
1890.42	0.004665
1900.07	0.003835
1909.71	0.002675
1919.36	0.002435
1929	0.003075
1938.65	0.003265
1948.29	0.002425
1957.94	0.002045
1967.58	0.002135
1977.23	0.002265
1986.87	0.002175
1996.52	0.002225
2006.16	0.002775
2015.81	0.003695
2025.45	0.003865
2035.1	0.003615
2044.74	0.003625
2054.38	0.003975
2064.03	0.004065
2073.67	0.003935
2083.32	0.003275
2092.96	0.002295
2102.61	0.001565
2112.25	0.001275
2121.9	0.0011277
2131.54	0.0010094
2141.19	0.0008645
2150.83	0.0007552
2160.48	0.0006848
2170.12	0.0007687
2179.77	0.0007382
2189.41	0.0007428
2199.06	0.0007409
2208.7	0.0008349
2218.35	0.0008407
2227.99	0.0008581
2237.64	0.0009559
2247.28	0.0010602
2256.92	0.001134
2266.57	0.001285
2276.21	0.001655
2285.86	0.001765
2295.5	0.001575
2305.15	0.001185
2314.79	0.001155
2324.44	0.001275
2334.08	0.001305
2343.73	0.001295
2353.37	0.001094
2363.02	0.0010975
2372.66	0.001185
2382.31	0.001315
2391.95	0.001375
2401.6	0.001365
2411.24	0.001565
2420.89	0.001605
2430.53	0.001435
2440.18	0.001515
2449.82	0.001665
2459.47	0.001865
2469.11	0.001895
2478.75	0.002045
2488.4	0.002135
2498.04	0.002065
2507.69	0.002165
2517.33	0.002235
2526.98	0.002375
2536.62	0.002835
2546.27	0.003615
2555.91	0.003455
2565.56	0.002435
2575.2	0.002085
2584.85	0.001965
2594.49	0.001905
2604.14	0.001805
2613.78	0.001835
2623.43	0.001595
2633.07	0.001495
2642.72	0.001355
2652.36	0.001245
2662.01	0.0010265
2671.65	0.0010294
2681.29	0.0011339
2690.94	0.001265
2700.58	0.001415
2710.23	0.001625
2719.87	0.001685
2729.52	0.001955
2739.16	0.002355
2748.81	0.002405
2758.45	0.002895
2768.1	0.003245
2777.74	0.003245
2787.39	0.003355
2797.03	0.003955
2806.68	0.004725
2816.32	0.006655
2825.97	0.009365
2835.61	0.015585
2845.26	0.031385
2854.9	0.029225
2864.55	0.030205
2874.19	0.031435
2883.84	0.031015
2893.48	0.026575
2903.12	0.025955
2912.77	0.029615
2922.41	0.030945
2932.06	0.037655
2941.7	0.054045
2951.35	0.047525
2960.99	0.045245
2970.64	0.073455
2980.28	0.043435
2989.93	0.027725
2999.57	0.028555
3009.22	0.037995
3018.86	0.030435
3028.51	0.036925
3038.15	0.024445
3047.8	0.016505
3057.44	0.014755
3067.09	0.015975
3076.73	0.021025
3086.38	0.015055
3096.02	0.011025
3105.67	0.008415
3115.31	0.006305
3124.95	0.004355
3134.6	0.002905
3144.24	0.002605
3153.89	0.002285
3163.53	0.002115
3173.18	0.001915
3182.82	0.001675
3192.47	0.001615
3202.11	0.001715
3211.76	0.001595
3221.4	0.001455
3231.05	0.001535
3240.69	0.001755
3250.34	0.001775
3259.98	0.001475
3269.63	0.0010789
3279.27	0.0007865
3288.92	0.0005335
3298.56	0.0005076
3308.21	0.0004264
3317.85	0.0004933
3327.49	0.0003389
3337.14	0.00032
3346.78	0.0004698
3356.43	0.0005598
3366.07	0.0003718
3375.72	0.0003291
3385.36	0.0002698
3395.01	0.00013272
3404.65	0.0001496
3414.3	8.76e-05
3423.94	0.00023461
3433.59	0.0003786
3443.23	0.0004443
3452.88	0.000487
3462.52	0.0002577
3472.17	0.0002946
3481.81	0.0002973
3491.46	0.000135728
3501.1	0.000215
3510.75	0.00017395
3520.39	0.0003115
3530.04	0.00021113
3539.68	0.0002485
3549.32	0.0002367
3558.97	0.0003242
3568.61	8.84e-05
3578.26	0.0002582
3587.9	0.00021356
3597.55	0.0002505
3607.19	0.00021747
3616.84	0.00018759
3626.48	0.0002455
3636.13	0.000144064
3645.77	0.00023084
3655.42	0.00018396
3665.06	0.0004985
3674.71	0.0005889
3684.35	0.0004894
3694	0.0003405
3703.64	0.0004159
3713.29	0.0005598
3722.93	0.0004061
3732.58	0.0002665
3742.22	0.0002964
3751.86	0.0002522
3761.51	0.0003242
3771.15	0.0003732
3780.8	0.0005036
3790.44	0.0004445
3800.09	0.0003083
3809.73	0.0003593
3819.38	0.0002562
3829.02	0.0002735
3838.67	0.0003806
3848.31	0.000542
3857.96	0.0003039
3867.6	0.0004017
3877.25	0.0006505
3886.89	0.000654
3896.54	0.0003033
3906.18	0.0003789
3915.83	0.0004221
3925.47	0.0005632
3935.12	0.0006155
3944.76	0.0005285
3954.41	0.0007636
3964.05	0.0003828
3973.69	0.0005105
3983.34	0.0006899
3992.98	0.0004892
