Infrared Spectrum: p-Heptyloxybenzylidene p-butylaniline
Formula: C 24 H 33 N O
CAS: 29743-12-2
State: gas
Origin: EPA-IR VAPOR PHASE LIBRARY
1/CM	ABSORBANCE
549.8	0.004101
559.445	0.004471
569.09	0.003141
578.734	0.001771
588.379	0.001571
598.024	0.001511
607.669	0.002811
617.313	0.002181
626.958	0.001541
636.603	0.001461
646.248	0.00073
655.893	0.0007967
665.537	0.0006286
675.182	0.0005502
684.827	0.000578
694.472	0.0007981
704.116	0.001239
713.761	0.001941
723.406	0.002031
733.051	0.001731
742.695	0.001511
752.34	0.001681
761.985	0.001651
771.63	0.001751
781.275	0.002171
790.919	0.002831
800.564	0.003971
810.209	0.005041
819.854	0.007221
829.498	0.011911
839.143	0.011841
848.788	0.006331
858.433	0.004221
868.078	0.004101
877.722	0.006411
887.367	0.009131
897.012	0.004871
906.657	0.003021
916.301	0.002631
925.946	0.002371
935.591	0.002471
945.236	0.002931
954.88	0.003361
964.525	0.004591
974.17	0.004981
983.815	0.003711
993.46	0.004381
1003.1	0.005451
1012.75	0.009641
1022.39	0.010411
1032.04	0.011031
1041.68	0.008841
1051.33	0.006881
1060.97	0.006021
1070.62	0.004701
1080.26	0.003671
1089.91	0.003651
1099.55	0.004301
1109.2	0.004671
1118.84	0.003851
1128.49	0.003391
1138.13	0.004091
1147.78	0.006541
1157.42	0.027381
1167.07	0.048441
1176.71	0.009771
1186.36	0.010271
1196	0.014841
1205.64	0.014061
1215.29	0.018771
1224.93	0.028151
1234.58	0.043991
1244.22	0.052441
1253.87	0.039371
1263.51	0.020031
1273.16	0.012421
1282.8	0.012411
1292.45	0.015011
1302.09	0.019371
1311.74	0.012021
1321.38	0.007031
1331.03	0.005511
1340.67	0.005261
1350.32	0.004831
1359.96	0.004891
1369.61	0.004851
1379.25	0.005961
1388.9	0.006831
1398.54	0.004381
1408.18	0.004271
1417.83	0.007981
1427.47	0.004821
1437.12	0.004481
1446.76	0.005741
1456.41	0.007801
1466.05	0.010101
1475.7	0.013231
1485.34	0.008701
1494.99	0.013571
1504.63	0.039911
1514.28	0.045081
1523.92	0.011521
1533.57	0.005551
1543.21	0.004191
1552.86	0.004451
1562.5	0.006911
1572.15	0.016551
1581.79	0.015251
1591.44	0.027241
1601.08	0.048471
1610.73	0.025681
1620.37	0.014941
1630.01	0.027741
1639.66	0.017151
1649.3	0.007201
1658.95	0.004481
1668.59	0.003181
1678.24	0.002421
1687.88	0.001841
1697.53	0.001601
1707.17	0.001441
1716.82	0.0013104
1726.46	0.0012725
1736.11	0.0012193
1745.75	0.001308
1755.4	0.001501
1765.04	0.001681
1774.69	0.001441
1784.33	0.0010327
1793.98	0.0009667
1803.62	0.0008508
1813.27	0.0008246
1822.91	0.0007835
1832.55	0.0008346
1842.2	0.0007669
1851.84	0.0008453
1861.49	0.0009401
1871.13	0.0011303
1880.78	0.0013463
1890.42	0.001461
1900.07	0.0012292
1909.71	0.0010284
1919.36	0.0010592
1929	0.0011188
1938.65	0.0011233
1948.29	0.0009725
1957.94	0.000934
1967.58	0.0008928
1977.23	0.0009171
1986.87	0.0010105
1996.52	0.0010434
2006.16	0.0011237
2015.81	0.0011936
2025.45	0.0011642
2035.1	0.0011698
2044.74	0.0011909
2054.38	0.0011858
2064.03	0.0010326
2073.67	0.0010259
2083.32	0.0009811
2092.96	0.0008862
2102.61	0.0007875
2112.25	0.0006909
2121.9	0.0006466
2131.54	0.0005971
2141.19	0.000509
2150.83	0.0005014
2160.48	0.0005662
2170.12	0.0005273
2179.77	0.000481
2189.41	0.0005834
2199.06	0.0004872
2208.7	0.0005854
2218.35	0.0004827
2227.99	0.0005767
2237.64	0.000518
2247.28	0.0004807
2256.92	0.000634
2266.57	0.0005193
2276.21	0.0005819
2285.86	0.0006144
2295.5	0.0006571
2305.15	0.0006805
2314.79	0.0005428
2324.44	0.0006751
2334.08	0.0006365
2343.73	0.0007309
2353.37	0.0006003
2363.02	0.0006818
2372.66	0.0007495
2382.31	0.0007123
2391.95	0.0008251
2401.6	0.000823
2411.24	0.0007823
2420.89	0.0007599
2430.53	0.000802
2440.18	0.0008564
2449.82	0.0009125
2459.47	0.0009172
2469.11	0.0010571
2478.75	0.0009452
2488.4	0.0010064
2498.04	0.0009735
2507.69	0.0009856
2517.33	0.000943
2526.98	0.0011673
2536.62	0.0012854
2546.27	0.0013204
2555.91	0.0012295
2565.56	0.0011162
2575.2	0.001152
2584.85	0.0011447
2594.49	0.001053
2604.14	0.0008921
2613.78	0.0008902
2623.43	0.0008817
2633.07	0.0009246
2642.72	0.0010131
2652.36	0.0009505
2662.01	0.0010005
2671.65	0.0009996
2681.29	0.0010264
2690.94	0.0010116
2700.58	0.0011637
2710.23	0.0010891
2719.87	0.0012742
2729.52	0.001431
2739.16	0.001611
2748.81	0.001671
2758.45	0.001671
2768.1	0.001741
2777.74	0.001861
2787.39	0.001921
2797.03	0.002191
2806.68	0.002541
2816.32	0.003081
2825.97	0.004001
2835.61	0.005661
2845.26	0.008901
2854.9	0.016371
2864.55	0.024041
2874.19	0.024361
2883.84	0.022371
2893.48	0.018361
2903.12	0.019371
2912.77	0.026181
2922.41	0.037891
2932.06	0.051491
2941.7	0.050591
2951.35	0.038061
2960.99	0.035541
2970.64	0.034701
2980.28	0.017771
2989.93	0.010221
2999.57	0.007721
3009.22	0.006701
3018.86	0.007481
3028.51	0.010951
3038.15	0.007501
3047.8	0.005071
3057.44	0.004581
3067.09	0.004961
3076.73	0.005941
3086.38	0.004231
3096.02	0.003271
3105.67	0.002461
3115.31	0.002111
3124.95	0.001471
3134.6	0.001229
3144.24	0.0010663
3153.89	0.0009972
3163.53	0.0007096
3173.18	0.0008377
3182.82	0.0007381
3192.47	0.0007962
3202.11	0.0009357
3211.76	0.0005388
3221.4	0.0007151
3231.05	0.0006572
3240.69	0.000639
3250.34	0.0006653
3259.98	0.0006808
3269.63	0.0004928
3279.27	0.0003592
3288.92	0.00040642
3298.56	0.000206
3308.21	0.0003175
3317.85	0.0002882
3327.49	0.0003034
3337.14	0.000127
3346.78	0.0003481
3356.43	0.00043205
3366.07	0.0002952
3375.72	0.000317
3385.36	0.0003254
3395.01	0.0003334
3404.65	0.000122
3414.3	8.9e-05
3423.94	0.000186
3433.59	0.00037999
3443.23	0.0002669
3452.88	0.0002614
3462.52	0.000233
3472.17	0.000144
3481.81	0.0002838
3491.46	0.000221
3501.1	0.0003005
3510.75	0.000202
3520.39	0.000195
3530.04	0.000166
3539.68	0
3549.32	0.000189
3558.97	7e-05
3568.61	0.000143
3578.26	0.0003134
3587.9	0.000237
3597.55	0.0003844
3607.19	0.000122
3616.84	0.0003022
3626.48	0.0003288
3636.13	0.000261
3645.77	0.000236
3655.42	0.000247
3665.06	0.0003243
3674.71	0.000146
3684.35	0.0002903
3694	0.000209
3703.64	0.000244
3713.29	0.000169
3722.93	0.000369224
3732.58	0.0005016
3742.22	0.0002749
3751.86	0.000218
3761.51	0.0003226
3771.15	0.000370501
3780.8	0.0002834
3790.44	0.0004555
3800.09	0.000178
3809.73	0.00015
3819.38	0.000209
3829.02	0.0002784
3838.67	0.0003502
3848.31	0.000223
3857.96	0.0003283
3867.6	0.00043939
3877.25	0.0003119
3886.89	0.000366259
3896.54	0.0003155
3906.18	0.000244
3915.83	0.0004164
3925.47	0.0003173
3935.12	0.00034
3944.76	0.00040487
3954.41	0.0002846
3964.05	0.0004895
3973.69	0.0003181
3983.34	0.0002695
3992.98	0.00039141
