Infrared Spectrum: 2,6-Dimethyl-1,6-heptadien-4-ol
Formula: C 9 H 16 O
CAS: 29765-76-2
State: gas
Instrument: HP-GC/MS/IRD
Origin: NIST Mass Spectrometry Data Center
1/CM	ABSORBANCE
550	0.0007711
562	0.000594
574	0.000836
586	0.0008844
598	0.0004983
610	0.0003278
622	0.0002541
634	0.0002453
646	0.0001386
658	4.4e-05
670	2.86e-05
682	7.7e-06
694	0.0001331
706	3.96e-05
718	0.0002002
730	2.2e-06
742	1.21e-05
754	9.24e-05
766	8.47e-05
778	8.8e-05
790	0.0001826
802	0.0002178
814	0.0003377
826	0.0006149
838	0.0010901
850	0.0019734
862	0.0026367
874	0.0037169
886	0.0083028
898	0.01023
910	0.0047146
922	0.0016566
934	0.0009779
946	0.000781
958	0.0009504
970	0.0011396
982	0.0012375
994	0.0014278
1006	0.0019272
1018	0.0025817
1030	0.0030283
1042	0.0033242
1054	0.0041228
1066	0.0051425
1078	0.0045958
1090	0.0027302
1102	0.0013959
1114	0.0008811
1126	0.0006985
1138	0.0006963
1150	0.0009647
1162	0.0013002
1174	0.0013761
1186	0.0013761
1198	0.0014267
1210	0.0016236
1222	0.0019217
1234	0.0021153
1246	0.0023485
1258	0.0027401
1270	0.0027775
1282	0.0024662
1294	0.0021879
1306	0.001826
1318	0.0015686
1330	0.0016115
1342	0.0019525
1354	0.0025707
1366	0.0034364
1378	0.0048257
1390	0.0040678
1402	0.00264
1414	0.0022726
1426	0.0027489
1438	0.0035112
1450	0.0038038
1462	0.0030184
1474	0.0016445
1486	0.0008943
1498	0.0005577
1510	0.0003696
1522	0.0002893
1534	0.0003014
1546	0.0002893
1558	0.0002508
1570	0.0003938
1582	0.0004675
1594	0.0005874
1606	0.0008173
1618	0.0012232
1630	0.0023639
1642	0.0039314
1654	0.0034199
1666	0.0014476
1678	0.0005522
1690	0.0002893
1702	0.0001716
1714	9.35e-05
1726	9.13e-05
1738	7.37e-05
1750	9.24e-05
1762	0.0001419
1774	0.0002882
1786	0.0005764
1798	0.0006677
1810	0.0004477
1822	0.0002035
1834	8.25e-05
1846	5.06e-05
1858	4.29e-05
1870	2.09e-05
1882	2.75e-05
1894	5.61e-05
1906	2.86e-05
1918	2.09e-05
1930	3.19e-05
1942	4.29e-05
1954	5.17e-05
1966	5.06e-05
1978	2.2e-05
1990	2.75e-05
2002	4.29e-05
2014	2.09e-05
2026	5.5e-06
2038	3.52e-05
2050	4.18e-05
2062	3.08e-05
2074	2.31e-05
2086	4.73e-05
2098	4.18e-05
2110	7.92e-05
2122	4.18e-05
2134	2.09e-05
2146	4.51e-05
2158	3.19e-05
2170	1.87e-05
2182	3.96e-05
2194	1.43e-05
2206	3.3e-05
2218	4.4e-06
2230	4.4e-05
2242	6.05e-05
2254	2.42e-05
2266	3.08e-05
2278	1.43e-05
2290	3.52e-05
2302	2.86e-05
2314	2.2e-05
2326	3.3e-06
2338	3.3e-06
2350	8.8e-06
2362	3.3e-06
2374	3.3e-06
2386	0
2398	2.09e-05
2410	3.3e-05
2422	3.85e-05
2434	3.85e-05
2446	3.3e-06
2458	1.98e-05
2470	9.9e-06
2482	2.2e-06
2494	1.43e-05
2506	2.64e-05
2518	1.65e-05
2530	6.6e-06
2542	2.97e-05
2554	2.2e-05
2566	3.41e-05
2578	2.53e-05
2590	1.87e-05
2602	2.42e-05
2614	8.69e-05
2626	2.42e-05
2638	8.91e-05
2650	7.04e-05
2662	8.58e-05
2674	0.000143
2686	0.0001441
2698	0.000165
2710	0.0001485
2722	0.0002552
2734	0.0003465
2746	0.0003707
2758	0.0003102
2770	0.0003421
2782	0.0003762
2794	0.0004983
2806	0.0006963
2818	0.0010065
2830	0.0014289
2842	0.0020108
2854	0.0027302
2866	0.0034408
2878	0.0043186
2890	0.0054571
2902	0.007139
2914	0.0090816
2926	0.0104445
2938	0.0109549
2950	0.0087846
2962	0.0061435
2974	0.00759
2986	0.0068838
2998	0.0038929
3010	0.002178
3022	0.0014311
3034	0.0011737
3046	0.0012386
3058	0.0018744
3070	0.0039336
3082	0.006061
3094	0.0030272
3106	0.0009526
3118	0.0005412
3130	0.000319
3142	0.0002497
3154	0.0001562
3166	4.18e-05
3178	8.8e-05
3190	7.7e-06
3202	3.74e-05
3214	6.27e-05
3226	3.85e-05
3238	1.21e-05
3250	0.0001078
3262	9.13e-05
3274	4.95e-05
3286	9.46e-05
3298	7.92e-05
3310	0.0001397
3322	7.81e-05
3334	7.04e-05
3346	0.0001122
3358	7.7e-05
3370	8.91e-05
3382	8.58e-05
3394	0.0001067
3406	0.0001397
3418	0.0001144
3430	0.0001177
3442	0.0001012
3454	7.7e-05
3466	0.0001001
3478	0.0001067
3490	0.0001221
3502	0.0001793
3514	0.0001749
3526	0.0001727
3538	0.0002002
3550	0.0002387
3562	0.0001892
3574	0.0003707
3586	0.0007293
3598	0.0015026
3610	0.0018073
3622	0.0014377
3634	0.0011539
3646	0.0009878
3658	0.0006919
3670	0.0003542
3682	0.0002387
3694	0.0002266
3706	0.0001001
3718	0.0001584
3730	0.0001672
3742	9.46e-05
3754	9.9e-05
3766	0.000132
3778	0.0001441
3790	9.24e-05
3802	0.0001859
3814	0.0001342
3826	0.000132
3838	0.0001364
