Infrared Spectrum: Di(2-ethylhexyl)phosphoric acid
Formula: C 16 H 35 O 4 P
CAS: 298-07-7
State: gas
Origin: EPA-IR VAPOR PHASE LIBRARY
1/CM	ABSORBANCE
501.5	0.00566
513.074	0.00611
524.648	0.00635
536.222	0.00617
547.796	0.00563
559.37	0.0051
570.944	0.00409
582.518	0.00367
594.092	0.00335
605.666	0.00304
617.24	0.00236
628.814	0.00175
640.388	0.0013755
651.962	0.0010757
663.536	0.0011123
675.11	0.0010957
686.684	0.001142
698.258	0.0012406
709.832	0.0016719
721.406	0.00243
732.98	0.00288
744.554	0.00307
756.128	0.0039
767.702	0.0059
779.276	0.00646
790.85	0.00555
802.423	0.00448
813.997	0.00516
825.571	0.00623
837.145	0.00727
848.719	0.00994
860.293	0.01499
871.867	0.01888
883.441	0.01781
895.015	0.0132
906.589	0.01147
918.163	0.01059
929.737	0.01063
941.311	0.01125
952.885	0.01403
964.459	0.02246
976.033	0.03469
987.607	0.04642
999.181	0.05695
1010.76	0.08182
1022.33	0.11556
1033.9	0.1153
1045.48	0.07414
1057.05	0.04121
1068.63	0.02631
1080.2	0.0186
1091.77	0.01268
1103.35	0.00948
1114.92	0.00836
1126.49	0.0073
1138.07	0.00734
1149.64	0.00745
1161.22	0.00562
1172.79	0.00383
1184.36	0.00336
1195.94	0.00342
1207.51	0.00364
1219.09	0.00405
1230.66	0.00473
1242.23	0.00636
1253.81	0.0089
1265.38	0.01408
1276.96	0.0222
1288.53	0.02246
1300.1	0.02212
1311.68	0.01201
1323.25	0.0065
1334.83	0.00488
1346.4	0.00439
1357.97	0.00397
1369.55	0.00436
1381.12	0.00722
1392.7	0.00675
1404.27	0.00373
1415.84	0.00312
1427.42	0.00342
1438.99	0.0048
1450.57	0.00889
1462.14	0.01439
1473.71	0.01253
1485.29	0.00604
1496.86	0.00326
1508.44	0.00223
1520.01	0.00184
1531.58	0.0016361
1543.16	0.0014202
1554.73	0.001322
1566.31	0.00127
1577.88	0.0012195
1589.45	0.0012138
1601.03	0.0011828
1612.6	0.001143
1624.18	0.0011176
1635.75	0.0010263
1647.32	0.0010056
1658.9	0.0009759
1670.47	0.0009242
1682.05	0.000841
1693.62	0.00083704
1705.19	0.0008688
1716.77	0.00077994
1728.34	0.0008504
1739.92	0.000853
1751.49	0.0008951
1763.06	0.0009707
1774.64	0.0010735
1786.21	0.0011372
1797.79	0.0011985
1809.36	0.0012082
1820.93	0.0011569
1832.51	0.0011441
1844.08	0.0011137
1855.66	0.0011735
1867.23	0.001173
1878.8	0.0012436
1890.38	0.0012277
1901.95	0.0012525
1913.53	0.0012383
1925.1	0.0011783
1936.67	0.0011323
1948.25	0.0011042
1959.82	0.0010033
1971.4	0.0009074
1982.97	0.00083612
1994.54	0.00074398
2006.12	0.000747334
2017.69	0.00074892
2029.27	0.0007254
2040.84	0.0007348
2052.41	0.0007083
2063.99	0.0006834
2075.56	0.0006678
2087.14	0.0006565
2098.71	0.000636
2110.28	0.000632
2121.86	0.000626
2133.43	0.0006606
2145.01	0.0006929
2156.58	0.0006634
2168.15	0.0006934
2179.73	0.0006742
2191.3	0.0006756
2202.88	0.000633
2214.45	0.0006671
2226.02	0.0006703
2237.6	0.000691
2249.17	0.00071
2260.74	0.0007026
2272.32	0.0006937
2283.89	0.0006834
2295.47	0.0006834
2307.04	0.0006863
2318.61	0.000699
2330.19	0.0007086
2341.76	0.0006851
2353.34	0.000724
2364.91	0.0007065
2376.48	0.0007239
2388.06	0.0007276
2399.63	0.00073333
2411.21	0.00075543
2422.78	0.000704
2434.35	0.0006923
2445.93	0.0006439
2457.5	0.0006635
2469.08	0.0006452
2480.65	0.0006723
2492.22	0.0006414
2503.8	0.0006965
2515.37	0.000715
2526.95	0.000745624
2538.52	0.00077113
2550.09	0.00079661
2561.67	0.0008635
2573.24	0.0009545
2584.82	0.0009861
2596.39	0.0010585
2607.96	0.0010982
2619.54	0.0010874
2631.11	0.0011352
2642.69	0.0011856
2654.26	0.0012842
2665.83	0.0013743
2677.41	0.0014586
2688.98	0.0015125
2700.56	0.0015663
2712.13	0.0016373
2723.7	0.00178
2735.28	0.00211
2746.85	0.00252
2758.43	0.00256
2770	0.00261
2781.57	0.00277
2793.15	0.00313
2804.72	0.00373
2816.3	0.00458
2827.87	0.00594
2839.44	0.00847
2851.02	0.01458
2862.59	0.02925
2874.17	0.03747
2885.74	0.0391
2897.31	0.03675
2908.89	0.042
2920.46	0.05552
2932.04	0.07505
2943.61	0.07741
2955.18	0.06585
2966.76	0.08573
2978.33	0.0507
2989.91	0.02036
3001.48	0.01097
3013.05	0.00728
3024.63	0.00539
3036.2	0.00429
3047.78	0.00348
3059.35	0.00293
3070.92	0.00261
3082.5	0.00236
3094.07	0.00219
3105.65	0.00185
3117.22	0.0016111
3128.79	0.001482
3140.37	0.0014017
3151.94	0.001226
3163.52	0.0011155
3175.09	0.0010244
3186.66	0.0009411
3198.24	0.0008648
3209.81	0.0006764
3221.39	0.000679
3232.96	0.000496
3244.53	0.000488
3256.11	0.000517
3267.68	0.000465
3279.26	0.000354
3290.83	0.000362
3302.4	0.000338
3313.98	0.000331
3325.55	0.000274
3337.13	0.00029
3348.7	0.000275
3360.27	0.000273
3371.85	0.000267
3383.42	0.000261
3395	0.00028
3406.57	0.000256
3418.14	0.000185
3429.72	0.000167
3441.29	0.000102
3452.86	0.000155
3464.44	0.000177
3476.01	0.000117
3487.59	0.000119
3499.16	7.5e-05
3510.73	4.5e-05
3522.31	0.000118
3533.88	0
3545.46	4.3e-05
3557.03	2e-05
3568.6	8.1e-05
3580.18	4.1e-05
3591.75	2.2e-05
3603.33	8.8e-05
3614.9	5.5e-05
3626.47	0.00017
3638.05	0.000114
3649.62	6.1e-05
3661.2	0.000117
3672.77	8.1e-05
3684.34	8.5e-05
3695.92	0.000247
3707.49	0.000168
3719.07	8e-05
3730.64	9.5e-05
3742.21	0.000109
3753.79	0.000167
3765.36	0.000164
3776.94	0.000123
3788.51	0.000154
3800.08	0.000134
3811.66	0.000154
3823.23	0.00024
3834.81	0.000172
3846.38	0.000163
3857.95	0.000146
3869.53	8.9e-05
3881.1	0.000203
3892.68	0.000153
3904.25	0.000188
3915.82	0.000201
3927.4	0.000229
3938.97	0.000196
3950.55	0.000236
3962.12	0.000222
3973.69	0.000282
3985.27	0.000285
3996.84	0.000369
