Infrared Spectrum: Methyl parathion
Formula: C 8 H 10 N O 5 P S
CAS: 298-00-0
State: gas
Instrument: HP-GC/MS/IRD
Origin: NIST Mass Spectrometry Data Center
1/CM	ABSORBANCE
550	0.0004059
562	0.0001353
574	0.0006027
586	0.0015744
598	0.0016359
610	0.0013284
622	0.001722
634	0.0039237
646	0.0080565
658	0.0061869
670	0.0040221
682	0.0047109
694	0.0037884
706	0.0025215
718	0.0024231
730	0.0038253
742	0.0096432
754	0.0239235
766	0.0416724
778	0.0123738
790	0.0087576
802	0.0142188
814	0.0278595
826	0.0496059
838	0.0629637
850	0.0641568
862	0.0621027
874	0.0284745
886	0.0176259
898	0.0219555
910	0.0465678
922	0.105682
934	0.101241
946	0.0367524
958	0.020664
970	0.0140343
982	0.0105288
994	0.0094341
1006	0.0142434
1018	0.0234807
1030	0.0431976
1042	0.0900606
1054	0.122557
1066	0.106727
1078	0.0774654
1090	0.0402825
1102	0.0293847
1114	0.0251289
1126	0.015621
1138	0.0122631
1150	0.0142557
1162	0.0280932
1174	0.020541
1186	0.0216972
1198	0.022755
1210	0.0423612
1222	0.0774039
1234	0.0809586
1246	0.029766
1258	0.0146616
1270	0.010455
1282	0.0093234
1294	0.0080565
1306	0.0068388
1318	0.0078105
1330	0.0163098
1342	0.048585
1354	0.0570843
1366	0.0267771
1378	0.0127674
1390	0.0060516
1402	0.0042189
1414	0.0039237
1426	0.0045387
1438	0.0058056
1450	0.0085977
1462	0.0103197
1474	0.0140835
1486	0.0422628
1498	0.0484743
1510	0.0205779
1522	0.0262605
1534	0.0454608
1546	0.0490401
1558	0.026937
1570	0.0161253
1582	0.0244401
1594	0.0386343
1606	0.0220539
1618	0.0158178
1630	0.0069495
1642	0.0033087
1654	0.0026199
1666	0.0024477
1678	0.002091
1690	0.0017712
1702	0.0013899
1714	0.0010578
1726	0.0007995
1738	0.0007626
1750	0.0008979
1762	0.0012546
1774	0.0013407
1786	0.0009348
1798	0.0010455
1810	0.0013161
1822	0.0012177
1834	0.0009963
1846	0.0010578
1858	0.0013776
1870	0.0017466
1882	0.0020787
1894	0.0023124
1906	0.0023985
1918	0.001845
1930	0.0010947
1942	0.0006642
1954	0.0005412
1966	0.0006765
1978	0.0008733
1990	0.0010701
2002	0.0009102
2014	0.0005412
2026	0.0004551
2038	0.0003567
2050	0.0003198
2062	0.0003321
2074	0.0004797
2086	0.0005904
2098	0.000492
2110	0.0003813
2122	0.0002706
2134	0.0001968
2146	0.0001599
2158	9.84e-05
2170	7.38e-05
2182	7.38e-05
2194	4.92e-05
2206	9.84e-05
2218	0.0001353
2230	0.0001353
2242	0.0001599
2254	0.0002706
2266	0.0003198
2278	0.0002706
2290	0.0002091
2302	0.0002091
2314	0.0001476
2326	0.0001107
2338	8.61e-05
2350	0.0001599
2362	0.0002091
2374	0.0002583
2386	0.0003444
2398	0.0003936
2410	0.0003321
2422	0.0004551
2434	0.0006765
2446	0.0008979
2458	0.0009102
2470	0.0005904
2482	0.0003444
2494	0.0002829
2506	0.0003444
2518	0.000369
2530	0.0002829
2542	0.0002214
2554	0.0002706
2566	0.0003567
2578	0.0004428
2590	0.0004674
2602	0.0005289
2614	0.0005043
2626	0.0003567
2638	0.0003321
2650	0.000369
2662	0.0002706
2674	0.0002829
2686	0.0003567
2698	0.0004797
2710	0.0005043
2722	0.000369
2734	0.0002706
2746	0.0002091
2758	0.0002583
2770	0.0002706
2782	0.0003198
2794	0.000369
2806	0.0005289
2818	0.0008856
2830	0.0014268
2842	0.0025461
2854	0.0062484
2866	0.0059532
2878	0.0032472
2890	0.0028536
2902	0.0031734
2914	0.0037392
2926	0.0038376
2938	0.0049446
2950	0.0111315
2962	0.0209469
2974	0.0096555
2986	0.0056088
2998	0.0054489
3010	0.0052767
3022	0.0050922
3034	0.0042435
3046	0.0030627
3058	0.0025584
3070	0.0025584
3082	0.0028659
3094	0.0031365
3106	0.0018081
3118	0.0012669
3130	0.0008856
3142	0.0006273
3154	0.000492
3166	0.0004182
3178	0.0003075
3190	0.0003198
3202	0.0002829
3214	0.0003321
3226	0.0003075
3238	0.0001476
3250	0.0001353
3262	0.0001107
3274	0.0001107
3286	0.0001845
3298	9.84e-05
3310	0.0001476
3322	9.84e-05
3334	0.0001476
3346	0.000123
3358	9.84e-05
3370	0.0001599
3382	8.61e-05
3394	9.84e-05
3406	4.92e-05
3418	8.61e-05
3430	0.0001353
3442	9.84e-05
3454	9.84e-05
3466	0.000123
3478	0.0001599
3490	0.0001107
3502	0.000123
3514	9.84e-05
3526	0.0001107
3538	0.0001476
3550	7.38e-05
3562	0.0001968
3574	0.0001599
3586	0.0002091
3598	9.84e-05
3610	0.0001599
3622	0.0001599
3634	0.0001722
3646	0.0001722
3658	0.0001845
3670	0.0001845
3682	0.0002091
3694	0.0002706
3706	0.0002337
3718	0.0001968
3730	0.0002583
3742	0.0002952
3754	0.0001968
3766	0.0002583
3778	0.0001845
3790	0.0002583
3802	0.0002337
3814	0.0002214
3826	0.000246
3838	0.0002337
