Infrared Spectrum: Carbazepine
Formula: C 15 H 12 N 2 O
CAS: 298-46-4
State: gas
Instrument: HP-GC/MS/IRD
Origin: NIST Mass Spectrometry Data Center
1/CM	ABSORBANCE
550	9.88e-05
562	8.93e-05
574	1.71e-05
586	0.0001007
598	0.0007771
610	0.0017518
622	0.0007923
634	0.0006707
646	0.0011609
658	0.0005643
670	0.0006156
682	0.0005586
694	0.0006403
706	0.0010184
718	0.0009956
730	0.00095
742	0.0013889
754	0.0031939
766	0.0036613
778	0.0014326
790	0.0021888
802	0.0022078
814	0.0009272
826	0.0006308
838	0.000627
850	0.0007334
862	0.0009044
874	0.0011571
886	0.000836
898	0.000456
910	0.0004142
922	0.0003553
934	0.00038
946	0.0003306
958	0.0002983
970	0.0002641
982	0.0002527
994	0.0002508
1006	0.0002147
1018	0.0002413
1030	0.0003743
1042	0.0004598
1054	0.0002565
1066	0.0004693
1078	0.0008056
1090	0.0007467
1102	0.00057
1114	0.0009082
1126	0.0004161
1138	0.000247
1150	0.0003287
1162	0.0003857
1174	0.0003629
1186	0.0003952
1198	0.000418
1210	0.000513
1222	0.0005567
1234	0.000912
1246	0.0014402
1258	0.0010374
1270	0.000893
1282	0.0007315
1294	0.0011894
1306	0.0017461
1318	0.0018354
1330	0.0025897
1342	0.0060135
1354	0.0120365
1366	0.0094696
1378	0.0028025
1390	0.0011571
1402	0.0009614
1414	0.0007182
1426	0.0008379
1438	0.0011552
1450	0.0012236
1462	0.0017955
1474	0.0018677
1486	0.0041477
1498	0.0024073
1510	0.0007562
1522	0.000437
1534	0.000418
1546	0.0005643
1558	0.0012787
1570	0.0035986
1582	0.0060458
1594	0.0031407
1606	0.0015599
1618	0.0008797
1630	0.0006441
1642	0.0006745
1654	0.0005909
1666	0.0007334
1678	0.0009025
1690	0.0011438
1702	0.001615
1714	0.0046037
1726	0.0174344
1738	0.0100225
1750	0.0018905
1762	0.0008968
1774	0.0006365
1786	0.0004883
1798	0.0004503
1810	0.0005358
1822	0.0004294
1834	0.000285
1846	0.0001995
1858	0.0001957
1870	0.0001615
1882	0.00019
1894	0.0001995
1906	0.0002622
1918	0.0002603
1930	0.0002375
1942	0.0003154
1954	0.0002071
1966	0.0001254
1978	0.0001007
1990	7.41e-05
2002	6.65e-05
2014	7.79e-05
2026	6.27e-05
2038	7.22e-05
2050	9.31e-05
2062	6.27e-05
2074	5.89e-05
2086	9.12e-05
2098	8.36e-05
2110	8.74e-05
2122	6.65e-05
2134	8.36e-05
2146	0.0001045
2158	0.0001235
2170	0.000133
2182	0.0001368
2194	0.0001805
2206	0.0001881
2218	0.0002489
2230	0.0003629
2242	0.0004997
2254	0.0005073
2266	0.0004332
2278	0.0005529
2290	0.0005377
2302	0.0002337
2314	0.0001444
2326	0.0001235
2338	8.93e-05
2350	7.6e-05
2362	7.79e-05
2374	6.27e-05
2386	7.6e-05
2398	3.23e-05
2410	5.32e-05
2422	4.94e-05
2434	3.42e-05
2446	4.94e-05
2458	5.32e-05
2470	4.37e-05
2482	5.7e-05
2494	6.46e-05
2506	5.51e-05
2518	7.98e-05
2530	7.03e-05
2542	5.51e-05
2554	6.65e-05
2566	5.89e-05
2578	4.75e-05
2590	6.27e-05
2602	6.84e-05
2614	7.22e-05
2626	6.65e-05
2638	6.84e-05
2650	5.13e-05
2662	5.13e-05
2674	6.46e-05
2686	4.18e-05
2698	7.98e-05
2710	6.46e-05
2722	7.98e-05
2734	8.36e-05
2746	7.22e-05
2758	6.65e-05
2770	5.51e-05
2782	7.03e-05
2794	9.69e-05
2806	0.0001254
2818	8.93e-05
2830	0.0001178
2842	9.5e-05
2854	0.0001026
2866	8.74e-05
2878	8.17e-05
2890	9.88e-05
2902	0.0001007
2914	0.0001444
2926	0.0001292
2938	0.0001026
2950	0.0001311
2962	0.0001216
2974	0.0001273
2986	0.0001634
2998	0.0002261
3010	0.0003477
3022	0.0012236
3034	0.0021052
3046	0.0012616
3058	0.0014459
3070	0.0022116
3082	0.0018582
3094	0.0006308
3106	0.0003344
3118	0.0002356
3130	0.0001995
3142	0.0001843
3154	9.88e-05
3166	0.0001197
3178	0.0001045
3190	0.0001045
3202	7.98e-05
3214	7.6e-05
3226	6.08e-05
3238	7.6e-05
3250	5.13e-05
3262	8.74e-05
3274	7.22e-05
3286	1.9e-05
3298	8.74e-05
3310	9.12e-05
3322	3.99e-05
3334	3.61e-05
3346	5.51e-05
3358	8.17e-05
3370	5.7e-05
3382	8.17e-05
3394	0.0001064
3406	0.0002052
3418	0.0004484
3430	0.0007391
3442	0.0005586
3454	0.0002432
3466	0.0001444
3478	0.0001463
3490	0.0002736
3502	0.0003401
3514	0.000589
3526	0.0010127
3538	0.0013224
3550	0.0011571
3562	0.0005529
3574	0.0001957
3586	6.08e-05
3598	9.5e-05
3610	6.84e-05
3622	5.13e-05
3634	5.7e-05
3646	3.61e-05
3658	5.7e-05
3670	2.09e-05
3682	3.61e-05
3694	2.85e-05
3706	7.98e-05
3718	5.32e-05
3730	1.9e-06
3742	0
3754	0
3766	4.56e-05
3778	4.75e-05
3790	1.71e-05
3802	5.51e-05
3814	3.04e-05
3826	3.99e-05
3838	5.32e-05
