Infrared Spectrum: Demeton-O
Formula: C 8 H 19 O 3 P S 2
CAS: 298-03-3
State: gas
Instrument: HP-GC/MS/IRD
Origin: NIST Mass Spectrometry Data Center
1/CM	ABSORBANCE
550	0.000372
562	9.92e-05
574	0.0002666
586	0.0004402
598	0.0007812
610	0.0012214
622	0.0011284
634	0.0008618
646	0.0006076
658	0.0003596
670	0.0002356
682	0.0003286
694	0.0003286
706	0.0002418
718	0.0003906
730	0.0007254
742	0.0016864
754	0.0030256
766	0.00527
778	0.0081034
790	0.010261
802	0.0122202
814	0.0147436
826	0.0138818
838	0.0094798
850	0.007192
862	0.005921
874	0.0048794
886	0.004557
898	0.004991
910	0.0052328
922	0.0054808
934	0.0085126
946	0.0162812
958	0.0234298
970	0.0204166
982	0.0151714
994	0.0180048
1006	0.031837
1018	0.0436604
1030	0.0527434
1042	0.062
1054	0.0454646
1066	0.0265608
1078	0.0169694
1090	0.0124372
1102	0.0089342
1114	0.0061752
1126	0.0047244
1138	0.0042284
1150	0.0040796
1162	0.00372
1174	0.0031558
1186	0.0025792
1198	0.0021638
1210	0.0018352
1222	0.0014818
1234	0.0015376
1246	0.00186
1258	0.0027962
1270	0.0033604
1282	0.0024242
1294	0.0020274
1306	0.001581
1318	0.0009362
1330	0.0006076
1342	0.0005704
1354	0.0006696
1366	0.001147
1378	0.0021824
1390	0.0034162
1402	0.0028272
1414	0.0019468
1426	0.0018724
1438	0.0019406
1450	0.0021948
1462	0.0021762
1474	0.0017112
1486	0.0011966
1498	0.0007006
1510	0.0004216
1522	0.0002728
1534	0.0001922
1546	0.0001302
1558	6.2e-05
1570	0.000124
1582	0.0001116
1594	9.92e-05
1606	0.0001178
1618	0.0001116
1630	0.0001178
1642	0.0001426
1654	0.0001116
1666	0.0001178
1678	9.92e-05
1690	7.44e-05
1702	7.44e-05
1714	9.3e-05
1726	0.0001364
1738	0.0001054
1750	0.0001178
1762	0.000186
1774	0.0002108
1786	0.0002666
1798	0.0002914
1810	0.000372
1822	0.000465
1834	0.0005456
1846	0.0005766
1858	0.0005952
1870	0.0005208
1882	0.0004278
1894	0.00031
1906	0.0002542
1918	0.0001984
1930	0.0001426
1942	0.0001054
1954	3.72e-05
1966	5.58e-05
1978	7.44e-05
1990	3.72e-05
2002	4.96e-05
2014	8.68e-05
2026	6.82e-05
2038	5.58e-05
2050	5.58e-05
2062	5.58e-05
2074	6.2e-05
2086	7.44e-05
2098	6.2e-05
2110	6.82e-05
2122	0.0001054
2134	4.96e-05
2146	6.82e-05
2158	6.2e-05
2170	6.82e-05
2182	6.82e-05
2194	8.68e-05
2206	8.06e-05
2218	8.06e-05
2230	6.2e-05
2242	8.06e-05
2254	6.2e-05
2266	0.0001054
2278	6.82e-05
2290	8.06e-05
2302	6.82e-05
2314	6.2e-05
2326	3.1e-05
2338	6.2e-05
2350	7.44e-05
2362	4.96e-05
2374	6.82e-05
2386	0.0001054
2398	6.2e-05
2410	9.92e-05
2422	0.0001364
2434	0.0001426
2446	0.0001364
2458	0.0001116
2470	0.0001364
2482	0.0001178
2494	0.000124
2506	6.2e-05
2518	8.68e-05
2530	6.82e-05
2542	6.2e-05
2554	3.72e-05
2566	5.58e-05
2578	9.92e-05
2590	8.06e-05
2602	6.2e-05
2614	9.3e-05
2626	0.0001054
2638	0.0001488
2650	0.0001178
2662	0.0001488
2674	0.0001798
2686	0.000155
2698	0.0001798
2710	0.0002542
2722	0.0003348
2734	0.000372
2746	0.0004216
2758	0.0003596
2770	0.0003658
2782	0.0004712
2794	0.0004278
2806	0.0005828
2818	0.000713
2830	0.0009238
2842	0.0011966
2854	0.0015686
2866	0.0021452
2878	0.0033604
2890	0.0042904
2902	0.0047554
2914	0.0059954
2926	0.0072292
2938	0.0104904
2950	0.009362
2962	0.0088474
2974	0.0109244
2986	0.012338
2998	0.0082894
3010	0.0045136
3022	0.0027714
3034	0.0016678
3046	0.0011346
3058	0.0007936
3070	0.0005828
3082	0.000434
3094	0.0004154
3106	0.0004216
3118	0.0003286
3130	0.000372
3142	0.000279
3154	0.0002728
3166	0.00031
3178	0.00031
3190	0.00031
3202	0.0002852
3214	0.0003162
3226	0.000279
3238	0.0001984
3250	0.0001922
3262	0.0001674
3274	0.0002356
3286	0.000124
3298	0.000155
3310	0.0001426
3322	0.0001674
3334	0.0001302
3346	0.0001426
3358	0.0001302
3370	0.0001364
3382	0.0001426
3394	9.92e-05
3406	0.0001364
3418	0.0001736
3430	0.0001426
3442	0.0001116
3454	0.0001674
3466	0.0001488
3478	0.0001612
3490	6.82e-05
3502	0.0001612
3514	0.0001178
3526	7.44e-05
3538	9.92e-05
3550	8.68e-05
3562	0.0001488
3574	0.000248
3586	0.000217
3598	0.0001984
3610	0.000155
3622	0.0001922
3634	0.0001612
3646	0.0001798
3658	0.0002976
3670	0.0001922
3682	0.0001612
3694	0.0001984
3706	0.0002046
3718	0.0001674
3730	0.0002728
3742	0.000217
3754	0.0002666
3766	0.0002356
3778	0.000279
3790	0.0001798
3802	0.0002232
3814	0.0001984
3826	0.0002294
3838	0.000217
