Infrared Spectrum: Disulfoton
Formula: C 8 H 19 O 2 P S 3
CAS: 298-04-4
State: gas
Instrument: HP-GC/MS/IRD
Origin: NIST Mass Spectrometry Data Center
1/CM	ABSORBANCE
550	0.0053375
562	0.00259
574	0.000665
586	1.75e-05
598	0.00021
610	0.0007525
622	0.0025025
634	0.007035
646	0.0244825
658	0.07924
670	0.0610225
682	0.023135
694	0.0139825
706	0.008015
718	0.004515
730	0.00441
742	0.0062825
754	0.011375
766	0.0225225
778	0.03549
790	0.0474075
802	0.04963
814	0.0367675
826	0.0214025
838	0.0115325
850	0.0071225
862	0.00504
874	0.00448
886	0.0052325
898	0.007455
910	0.012005
922	0.0228025
934	0.049875
946	0.0936775
958	0.09408
970	0.0536725
982	0.030555
994	0.0330225
1006	0.0664475
1018	0.141067
1030	0.174842
1042	0.14252
1054	0.10185
1066	0.05782
1078	0.0362775
1090	0.03185
1102	0.02513
1114	0.0170975
1126	0.014525
1138	0.014
1150	0.0133875
1162	0.01169
1174	0.0100275
1186	0.008295
1198	0.0099575
1210	0.0089075
1222	0.0040775
1234	0.0042525
1246	0.0077
1258	0.0148225
1270	0.0119175
1282	0.0077525
1294	0.0052325
1306	0.0038325
1318	0.002555
1330	0.00189
1342	0.0019425
1354	0.0027475
1366	0.0047075
1378	0.00896
1390	0.0168875
1402	0.0126875
1414	0.0095375
1426	0.010325
1438	0.009625
1450	0.0094675
1462	0.0076125
1474	0.0062475
1486	0.0046725
1498	0.0027125
1510	0.0017325
1522	0.0011375
1534	0.0007875
1546	0.0005775
1558	0.00042
1570	0.00035
1582	0.0003675
1594	0.00042
1606	0.0005075
1618	0.0004725
1630	0.0003675
1642	0.0002625
1654	0.00021
1666	0.00035
1678	0.00056
1690	0.00077
1702	0.0009275
1714	0.00105
1726	0.00098
1738	0.0008575
1750	0.0008575
1762	0.00084
1774	0.0008925
1786	0.0011725
1798	0.00154
1810	0.0018375
1822	0.0019075
1834	0.0016625
1846	0.001295
1858	0.0008575
1870	0.00056
1882	0.000385
1894	0.00028
1906	0.0001925
1918	0.000105
1930	0.0001225
1942	7e-05
1954	3.5e-05
1966	5.25e-05
1978	7e-05
1990	5.25e-05
2002	3.5e-05
2014	3.5e-05
2026	0
2038	5.25e-05
2050	5.25e-05
2062	7e-05
2074	7e-05
2086	8.75e-05
2098	0.00014
2110	0.000175
2122	0.0001575
2134	0.000175
2146	0.00014
2158	0.00014
2170	0.000105
2182	0.0001575
2194	0.0001225
2206	8.75e-05
2218	8.75e-05
2230	7e-05
2242	8.75e-05
2254	7e-05
2266	0.0001225
2278	0.000105
2290	1.75e-05
2302	5.25e-05
2314	8.75e-05
2326	0.0001225
2338	0.0001925
2350	0.0002275
2362	0.0001225
2374	0.0001225
2386	0.00014
2398	0.0001575
2410	0.000245
2422	0.00028
2434	0.0002975
2446	0.0002625
2458	0.0002625
2470	0.000245
2482	0.000175
2494	0.000105
2506	5.25e-05
2518	0
2530	0
2542	5.25e-05
2554	5.25e-05
2566	5.25e-05
2578	0
2590	8.75e-05
2602	0.000175
2614	0.00021
2626	0.00028
2638	0.0002275
2650	0.00021
2662	0.00021
2674	0.0002975
2686	0.00049
2698	0.0006475
2710	0.0007525
2722	0.0008925
2734	0.0009975
2746	0.0010325
2758	0.00105
2770	0.00126
2782	0.0013825
2794	0.00147
2806	0.0019775
2818	0.002765
2830	0.00378
2842	0.0048125
2854	0.005985
2866	0.008505
2878	0.013125
2890	0.0158025
2902	0.018375
2914	0.0238
2926	0.0304675
2938	0.04515
2950	0.0364175
2962	0.0322525
2974	0.0416325
2986	0.04781
2998	0.0316225
3010	0.0169925
3022	0.01029
3034	0.0062125
3046	0.00392
3058	0.0027825
3070	0.0020825
3082	0.001715
3094	0.001505
3106	0.0013825
3118	0.0012775
3130	0.00119
3142	0.001085
3154	0.00105
3166	0.0009275
3178	0.00091
3190	0.000875
3202	0.000805
3214	0.000735
3226	0.0007
3238	0.000525
3250	0.000385
3262	0.0003675
3274	0.000315
3286	0.0003325
3298	0.00028
3310	0.0002275
3322	0.00028
3334	0.0001925
3346	0.0001925
3358	0.0001925
3370	0.0001925
3382	0.000105
3394	0.0001575
3406	0.000105
3418	7e-05
3430	3.5e-05
3442	7e-05
3454	7e-05
3466	5.25e-05
3478	1.75e-05
3490	1.75e-05
3502	1.75e-05
3514	1.75e-05
3526	0
3538	0.00014
3550	5.25e-05
3562	5.25e-05
3574	7e-05
3586	0.000105
3598	0.0001225
3610	0.0001225
3622	0.0001575
3634	0.000175
3646	8.75e-05
3658	0.000105
3670	0.0001575
3682	0.000105
3694	0.00014
3706	0.0001575
3718	0.000175
3730	0.00014
3742	0.00021
3754	0.0001925
3766	0.0001925
3778	0.0001925
3790	0.0001575
3802	0.00014
3814	0.00014
3826	0.0001925
3838	0.0001575
