Infrared Spectrum: PHOSPHOROTHIOTHIONIC ACID, O,O-DIETHYL ESTER
Formula: C4 H11 O2 P S2
CAS: 298-06-6
Class: COBLENTZ
Instrument: Not specified, most likely a prism, grating, or hybrid spectrometer.
Sampling: TRANSMISSION
Path length: SMEAR
Resolution: 4
Origin: TENNESSEE EASTMAN COMPANY, RESEARCH LABORATORIES
MICROMETERS	TRANSMITTANCE
2	0.968
2.03949	0.968
2.07898	0.968
2.11848	0.968
2.15797	0.968
2.19746	0.968
2.23695	0.956
2.27645	0.943
2.31594	0.943
2.35543	0.943
2.39492	0.943
2.43442	0.943
2.47391	0.943
2.5134	0.941
2.55289	0.941
2.59238	0.941
2.63188	0.941
2.67137	0.946
2.71086	0.946
2.75035	0.943
2.78985	0.94
2.82934	0.928
2.86883	0.918
2.90832	0.915
2.94782	0.906
2.98731	0.9
3.0268	0.891
3.06629	0.883
3.10579	0.88
3.14528	0.87
3.18477	0.87
3.22426	0.868
3.26375	0.861
3.30325	0.801
3.34274	0.306
3.38223	0.537
3.42172	0.574
3.46122	0.74
3.50071	0.821
3.5402	0.85
3.57969	0.883
3.61919	0.886
3.65868	0.886
3.69817	0.891
3.73766	0.908
3.77715	0.916
3.81665	0.918
3.85614	0.915
3.89563	0.875
3.93512	0.805
3.97462	0.76
4.01411	0.722
4.0536	0.702
4.09309	0.677
4.13259	0.685
4.17208	0.718
4.21157	0.787
4.25106	0.843
4.29055	0.85
4.33005	0.853
4.36954	0.883
4.40903	0.9
4.44852	0.906
4.48802	0.918
4.52751	0.92
4.567	0.92
4.60649	0.923
4.64599	0.928
4.68548	0.93
4.72497	0.931
4.76446	0.933
4.80395	0.941
4.84345	0.941
4.88294	0.943
4.92243	0.943
4.96192	0.946
5.00142	0.946
5.04091	0.946
5.0804	0.941
5.11989	0.941
5.15939	0.938
5.19888	0.931
5.23837	0.93
5.27786	0.93
5.31736	0.92
5.35685	0.908
5.39634	0.908
5.43583	0.881
5.47532	0.871
5.51482	0.866
5.55431	0.865
5.5938	0.863
5.63329	0.876
5.67279	0.878
5.71228	0.876
5.75177	0.871
5.79126	0.875
5.83076	0.868
5.87025	0.886
5.90974	0.87
5.94923	0.886
5.98872	0.893
6.02822	0.91
6.06771	0.9
6.1072	0.9
6.14669	0.896
6.18619	0.895
6.22568	0.898
6.26517	0.913
6.30466	0.92
6.34416	0.91
6.38365	0.915
6.42314	0.89
6.46263	0.898
6.50212	0.89
6.54162	0.886
6.58111	0.873
6.6206	0.853
6.66009	0.84
6.69959	0.765
6.73908	0.577
6.77857	0.589
6.81806	0.667
6.85756	0.605
6.89705	0.489
6.93654	0.613
6.97603	0.74
7.01552	0.787
7.05502	0.787
7.09451	0.742
7.134	0.564
7.17349	0.332
7.21299	0.504
7.25248	0.675
7.29197	0.74
7.33146	0.773
7.37096	0.84
7.41045	0.866
7.44994	0.878
7.48943	0.878
7.52893	0.881
7.56842	0.88
7.60791	0.866
7.6474	0.846
7.68689	0.8
7.72639	0.748
7.76588	0.74
7.80537	0.795
7.84486	0.836
7.88436	0.851
7.92385	0.868
7.96334	0.875
8.00283	0.878
8.04233	0.881
8.08182	0.881
8.12131	0.881
8.1608	0.878
8.20029	0.876
8.23979	0.871
8.27928	0.868
8.31877	0.865
8.35826	0.855
8.39776	0.825
8.43725	0.793
8.47674	0.733
8.51623	0.597
8.55573	0.412
8.59522	0.361
8.63471	0.479
8.6742	0.569
8.71369	0.637
8.75319	0.66
8.79268	0.667
8.83217	0.667
8.87166	0.657
8.91116	0.638
8.95065	0.594
8.99014	0.525
9.02963	0.414
9.06913	0.366
9.10862	0.377
9.14811	0.449
9.1876	0.465
9.22709	0.442
9.26659	0.389
9.30608	0.334
9.34557	0.269
9.38506	0.212
9.42456	0.164
9.46405	0.114
9.50354	0.078
9.54303	0.058
9.58253	0.039
9.62202	0.038
9.66151	0.033
9.701	0.028
9.7405	0.026
9.77999	0.026
9.81948	0.019
9.85897	0.019
9.89846	0.019
9.93796	0.039
9.97745	0.101
10.0169	0.188
10.0564	0.232
10.0959	0.237
10.1354	0.198
10.1749	0.128
10.2144	0.074
10.2539	0.048
10.2934	0.036
10.3329	0.029
10.3724	0.029
10.4119	0.029
10.4514	0.029
10.4908	0.036
10.5303	0.049
10.5698	0.073
10.6093	0.096
10.6488	0.139
10.6883	0.198
10.7278	0.266
10.7673	0.347
10.8068	0.429
10.8463	0.497
10.8858	0.544
10.9253	0.587
10.9648	0.627
11.0042	0.662
11.0437	0.688
11.0832	0.717
11.1227	0.737
11.1622	0.748
11.2017	0.76
11.2412	0.767
11.2807	0.772
11.3202	0.772
11.3597	0.773
11.3992	0.757
11.4387	0.738
11.4782	0.697
11.5176	0.637
11.5571	0.559
11.5966	0.455
11.6361	0.376
11.6756	0.307
11.7151	0.267
11.7546	0.247
11.7941	0.247
11.8336	0.259
11.8731	0.277
11.9126	0.297
11.9521	0.321
11.9916	0.344
12.031	0.369
12.0705	0.399
12.11	0.412
12.1495	0.43
12.189	0.449
12.2285	0.452
12.268	0.452
12.3075	0.449
12.347	0.437
12.3865	0.429
12.426	0.417
12.4655	0.397
12.505	0.377
12.5445	0.342
12.5839	0.317
12.6234	0.277
12.6629	0.247
12.7024	0.226
12.7419	0.216
12.7814	0.206
12.8209	0.198
12.8604	0.193
12.8999	0.184
12.9394	0.179
12.9789	0.179
13.0184	0.179
13.0579	0.188
13.0973	0.207
13.1368	0.232
13.1763	0.277
13.2158	0.331
13.2553	0.389
13.2948	0.457
13.3343	0.504
13.3738	0.56
13.4133	0.615
13.4528	0.647
13.4923	0.67
13.5318	0.698
13.5713	0.718
13.6107	0.733
13.6502	0.748
13.6897	0.757
13.7292	0.765
13.7687	0.772
13.8082	0.777
13.8477	0.78
13.8872	0.782
13.9267	0.785
13.9662	0.785
14.0057	0.787
14.0452	0.785
14.0847	0.787
14.1241	0.785
14.1636	0.785
14.2031	0.78
14.2426	0.775
14.2821	0.77
14.3216	0.762
14.3611	0.75
14.4006	0.74
14.4401	0.727
14.4796	0.703
14.5191	0.687
14.5586	0.652
14.5981	0.622
14.6375	0.58
14.677	0.529
14.7165	0.469
14.756	0.412
14.7955	0.359
14.835	0.319
14.8745	0.279
14.914	0.266
14.9535	0.261
14.993	0.244
15.0325	0.212
15.072	0.181
15.1115	0.171
15.1509	0.171
15.1904	0.171
15.2299	0.171
15.2694	0.189
15.3089	0.214
15.3484	0.232
15.3879	0.256
15.4274	0.297
15.4669	0.337
15.5064	0.371
15.5459	0.417
15.5854	0.442
15.6249	0.474
15.6643	0.49
15.7038	0.505
15.7433	0.517
15.7828	0.52
15.8223	0.527
15.8618	0.53
15.9013	0.539
15.9408	0.547
