Infrared Spectrum: Phorate
Formula: C 7 H 17 O 2 P S 3
CAS: 298-02-2
State: gas
Instrument: HP-GC/MS/IRD
Origin: NIST Mass Spectrometry Data Center
1/CM	ABSORBANCE
550	0.0113078
562	0.0025019
574	0.000394
586	1.97e-05
598	0.000394
610	0.0016154
622	0.0052205
634	0.0161934
646	0.0482256
658	0.0899896
670	0.0473391
682	0.0192075
694	0.0103622
706	0.0067768
718	0.0094363
730	0.0177103
742	0.013987
754	0.0129429
766	0.0222019
778	0.0354206
790	0.0485014
802	0.05122
814	0.0401486
826	0.0273633
838	0.0143219
850	0.0065207
862	0.0040188
874	0.0036642
886	0.0046295
898	0.0068753
910	0.0115836
922	0.022655
934	0.0505305
946	0.0987364
958	0.104469
970	0.0621338
982	0.0350266
994	0.037233
1006	0.0757859
1018	0.161048
1030	0.194892
1042	0.154606
1054	0.110044
1066	0.0628824
1078	0.0393015
1090	0.0341795
1102	0.0271466
1114	0.0182225
1126	0.015169
1138	0.0152084
1150	0.0149917
1162	0.0133172
1174	0.0120958
1186	0.0134551
1198	0.0233051
1210	0.0136521
1222	0.0042355
1234	0.0029156
1246	0.0036839
1258	0.006304
1270	0.0085498
1282	0.0050235
1294	0.0035657
1306	0.0030535
1318	0.002167
1330	0.0016745
1342	0.0019109
1354	0.0029944
1366	0.0054569
1378	0.0109729
1390	0.020291
1402	0.0150114
1414	0.0078603
1426	0.0070329
1438	0.0076042
1450	0.0089241
1462	0.0076436
1474	0.0063237
1486	0.0046689
1498	0.002561
1510	0.0015563
1522	0.0009653
1534	0.0006107
1546	0.000394
1558	0.000197
1570	0.0002167
1582	0.000197
1594	0.0002955
1606	0.0003743
1618	0.0003152
1630	0.0002167
1642	0.0001576
1654	0.0001773
1666	0.0003152
1678	0.0005319
1690	0.0007486
1702	0.0008668
1714	0.0010244
1726	0.0010047
1738	0.0009062
1750	0.0008865
1762	0.0008865
1774	0.0010047
1786	0.0012805
1798	0.0016745
1810	0.0020291
1822	0.0021079
1834	0.0018715
1846	0.0014381
1858	0.0010244
1870	0.0006698
1882	0.0004531
1894	0.0003546
1906	0.0002561
1918	0.0002167
1930	0.000197
1942	0.0001576
1954	0.0001773
1966	0.0001182
1978	5.91e-05
1990	3.94e-05
2002	1.97e-05
2014	0
2026	0
2038	1.97e-05
2050	5.91e-05
2062	9.85e-05
2074	0.0001182
2086	0.0001379
2098	0.0002364
2110	0.0002364
2122	0.0002364
2134	0.0002561
2146	0.0002364
2158	0.0002561
2170	0.0002758
2182	0.0002561
2194	0.0002364
2206	0.0002561
2218	0.0002758
2230	0.0002364
2242	0.0002167
2254	0.0002167
2266	0.000197
2278	0.0001773
2290	9.85e-05
2302	9.85e-05
2314	0.0001182
2326	0.0002167
2338	0.0002364
2350	0.0002167
2362	0.0002167
2374	0.0001773
2386	0.0001576
2398	0.0002364
2410	0.0002758
2422	0.0003546
2434	0.000394
2446	0.0003546
2458	0.0003743
2470	0.0002955
2482	0.0002561
2494	0.0002167
2506	0.0001576
2518	0.0001182
2530	9.85e-05
2542	5.91e-05
2554	0.0001182
2566	0.000197
2578	0.0002364
2590	0.0003546
2602	0.0003152
2614	0.0002561
2626	0.0002167
2638	0.000197
2650	0.0001773
2662	0.0002364
2674	0.0002955
2686	0.000394
2698	0.0005516
2710	0.0006698
2722	0.0008668
2734	0.0010244
2746	0.0011032
2758	0.001182
2770	0.0013987
2782	0.0014972
2794	0.0014578
2806	0.0017336
2818	0.0023049
2830	0.0030929
2842	0.0040188
2854	0.0052008
2866	0.0081164
2878	0.0133369
2890	0.0161737
2902	0.0178482
2914	0.0223595
2926	0.0288211
2938	0.0434385
2950	0.0346129
2962	0.0304562
2974	0.0428475
2986	0.0505699
2998	0.0337264
3010	0.0180649
3022	0.0109335
3034	0.0065601
3046	0.0042552
3058	0.0029747
3070	0.0022458
3082	0.0018715
3094	0.0016548
3106	0.0014972
3118	0.0013987
3130	0.0012411
3142	0.0011426
3154	0.0010244
3166	0.0009653
3178	0.0008668
3190	0.0009062
3202	0.0008471
3214	0.0007486
3226	0.0006304
3238	0.0005319
3250	0.0004531
3262	0.0003349
3274	0.0003349
3286	0.0002758
3298	0.0003152
3310	0.0002758
3322	0.0002364
3334	0.0002758
3346	0.0002364
3358	0.0002364
3370	0.0001576
3382	0.0001379
3394	0.000197
3406	0.0001773
3418	9.85e-05
3430	0.0001182
3442	9.85e-05
3454	7.88e-05
3466	9.85e-05
3478	0.0001182
3490	7.88e-05
3502	1.97e-05
3514	0.0001182
3526	5.91e-05
3538	5.91e-05
3550	0.0001182
3562	9.85e-05
3574	9.85e-05
3586	0.0001379
3598	7.88e-05
3610	7.88e-05
3622	7.88e-05
3634	9.85e-05
3646	0.0001379
3658	9.85e-05
3670	0.0001182
3682	9.85e-05
3694	9.85e-05
3706	0.0001182
3718	0.0001576
3730	0.000197
3742	0.0001773
3754	0.0001773
3766	0.000197
3778	0.0002561
3790	0.000197
3802	7.88e-05
3814	0.0001576
3826	7.88e-05
3838	0.0001379
