Infrared Spectrum: 2-Methyl-1-nonene
Formula: C 10 H 20
CAS: 2980-71-4
State: gas
Instrument: HP-GC/MS/IRD
Origin: NIST Mass Spectrometry Data Center
1/CM	ABSORBANCE
550	0.0005254
562	0.0004625
574	0.0003996
586	0.0001924
598	8.14e-05
610	5.18e-05
622	0.0001258
634	0.0001332
646	9.25e-05
658	9.25e-05
670	0.0002146
682	0.0002183
694	0.000222
706	0.0003663
718	0.0006031
730	0.0005772
742	0.000444
754	0.0003663
766	0.0003589
778	0.0003108
790	0.0001998
802	0.0002701
814	0.0002997
826	0.0003515
838	0.0004181
850	0.0006475
862	0.0012469
874	0.0026973
886	0.0059903
898	0.0047027
910	0.0018204
922	0.0008991
934	0.0005735
946	0.0004588
958	0.0003145
970	0.0002923
982	0.0003256
994	0.0003589
1006	0.0003441
1018	0.0003293
1030	0.0003108
1042	0.0002664
1054	0.0002886
1066	0.0002664
1078	0.0002405
1090	0.0002294
1102	0.0002738
1114	0.0003478
1126	0.0002072
1138	0.0002035
1150	0.0001739
1162	0.000259
1174	0.0002405
1186	0.0002886
1198	0.0003367
1210	0.0004033
1222	0.0004699
1234	0.0006068
1246	0.0006586
1258	0.0006623
1270	0.0008066
1282	0.0008288
1294	0.0007955
1306	0.0007585
1318	0.0007215
1330	0.0007807
1342	0.001073
1354	0.0013098
1366	0.0016428
1378	0.002405
1390	0.0017797
1402	0.0011655
1414	0.0012099
1426	0.001628
1438	0.0025567
1450	0.0038998
1462	0.0042624
1474	0.0027972
1486	0.001369
1498	0.0007511
1510	0.0005291
1522	0.0003774
1534	0.0003367
1546	0.0003071
1558	0.0003108
1570	0.0003293
1582	0.0003774
1594	0.0004403
1606	0.0005476
1618	0.0007844
1630	0.0013727
1642	0.0023162
1654	0.0021534
1666	0.0009916
1678	0.0004514
1690	0.0002516
1702	0.0001554
1714	0.000111
1726	7.4e-05
1738	0.0001036
1750	0.000111
1762	0.0001591
1774	0.0002997
1786	0.0003996
1798	0.0002775
1810	0.0001517
1822	8.88e-05
1834	2.96e-05
1846	3.7e-05
1858	2.59e-05
1870	1.85e-05
1882	5.55e-05
1894	4.07e-05
1906	4.07e-05
1918	2.22e-05
1930	2.59e-05
1942	7.4e-06
1954	1.48e-05
1966	3.7e-06
1978	2.96e-05
1990	2.59e-05
2002	2.96e-05
2014	2.22e-05
2026	4.81e-05
2038	4.44e-05
2050	5.55e-05
2062	5.18e-05
2074	3.7e-05
2086	4.07e-05
2098	3.7e-05
2110	3.33e-05
2122	1.48e-05
2134	3.33e-05
2146	4.81e-05
2158	6.29e-05
2170	2.96e-05
2182	2.59e-05
2194	1.85e-05
2206	4.07e-05
2218	1.11e-05
2230	3.33e-05
2242	2.59e-05
2254	3.7e-05
2266	3.33e-05
2278	4.07e-05
2290	0
2302	2.96e-05
2314	6.29e-05
2326	4.44e-05
2338	5.18e-05
2350	3.33e-05
2362	3.7e-05
2374	5.18e-05
2386	3.7e-05
2398	4.07e-05
2410	1.11e-05
2422	2.59e-05
2434	2.96e-05
2446	3.7e-05
2458	4.07e-05
2470	3.33e-05
2482	4.44e-05
2494	4.81e-05
2506	4.07e-05
2518	6.66e-05
2530	5.92e-05
2542	6.66e-05
2554	0.000111
2566	9.25e-05
2578	0.0001036
2590	8.88e-05
2602	0.0001517
2614	0.0001702
2626	0.0002072
2638	0.0002109
2650	0.0002553
2662	0.0003145
2674	0.0003404
2686	0.0003552
2698	0.000333
2710	0.0003552
2722	0.0003885
2734	0.0004921
2746	0.0005328
2758	0.0005291
2770	0.0006216
2782	0.0007733
2794	0.0010064
2806	0.001332
2818	0.0018981
2830	0.002886
2842	0.0050986
2854	0.0098975
2866	0.0137122
2878	0.0129685
2890	0.011877
2902	0.0134273
2914	0.0197728
2926	0.0317386
2938	0.0364894
2950	0.025345
2962	0.0187627
2974	0.0162726
2986	0.0087468
2998	0.0049025
3010	0.003071
3022	0.0021497
3034	0.0016687
3046	0.0015725
3058	0.0018796
3070	0.0030266
3082	0.00407
3094	0.0020905
3106	0.000999
3118	0.0006179
3130	0.0004403
3142	0.000333
3154	0.0003034
3166	0.0001998
3178	0.0001924
3190	0.0001554
3202	0.0001554
3214	9.99e-05
3226	8.88e-05
3238	0.0001147
3250	3.33e-05
3262	6.66e-05
3274	6.66e-05
3286	6.66e-05
3298	4.81e-05
3310	7.03e-05
3322	9.62e-05
3334	8.51e-05
3346	6.66e-05
3358	7.77e-05
3370	8.14e-05
3382	9.62e-05
3394	2.96e-05
3406	4.81e-05
3418	4.44e-05
3430	2.96e-05
3442	5.55e-05
3454	4.07e-05
3466	2.59e-05
3478	7.4e-06
3490	4.07e-05
3502	3.7e-05
3514	7.4e-06
3526	2.96e-05
3538	3.7e-05
3550	8.14e-05
3562	7.4e-05
3574	2.59e-05
3586	5.92e-05
3598	6.66e-05
3610	5.92e-05
3622	8.51e-05
3634	0.0001258
3646	7.77e-05
3658	8.14e-05
3670	8.14e-05
3682	0.0001295
3694	8.88e-05
3706	0.0001221
3718	8.51e-05
3730	8.14e-05
3742	8.51e-05
3754	9.99e-05
3766	9.99e-05
3778	0.0001369
3790	0.0001147
3802	8.88e-05
3814	0.0001036
3826	0.0001147
3838	6.29e-05
