Infrared Spectrum: 1,2-Epoxyoctane
Formula: C 8 H 16 O
CAS: 2984-50-1
State: gas
Instrument: HP-GC/MS/IRD
Origin: NIST Mass Spectrometry Data Center
1/CM	ABSORBANCE
550	0.0002548
562	0.0002496
574	0.0001976
586	1.04e-05
598	1.04e-05
610	0
622	0.0001144
634	0.0001352
646	0.0001456
658	0.0001716
670	0.000104
682	0.000208
694	0.00039
706	0.000624
718	0.0010244
730	0.0013624
742	0.0016692
754	0.0017628
766	0.0018512
778	0.0019968
790	0.0022932
802	0.0028704
814	0.0039832
826	0.0058916
838	0.0073008
850	0.00546
862	0.00377
874	0.0029432
886	0.0026832
898	0.0027248
910	0.0034164
922	0.0039676
934	0.00338
946	0.0022516
958	0.001612
970	0.0013
982	0.0013156
994	0.0014196
1006	0.0012896
1018	0.0009204
1030	0.0007384
1042	0.0007072
1054	0.0007436
1066	0.00078
1078	0.0007436
1090	0.0006292
1102	0.0006812
1114	0.0009672
1126	0.0013364
1138	0.0011492
1150	0.0008372
1162	0.0005772
1174	0.0004888
1186	0.000676
1198	0.000754
1210	0.000702
1222	0.0007904
1234	0.000936
1246	0.0014144
1258	0.0018356
1270	0.0015756
1282	0.0011856
1294	0.0010972
1306	0.0011128
1318	0.0012116
1330	0.0013208
1342	0.001456
1354	0.0014976
1366	0.0015236
1378	0.0019812
1390	0.002496
1402	0.0035516
1414	0.003562
1426	0.0024128
1438	0.002938
1450	0.0043472
1462	0.0052468
1474	0.0043524
1486	0.0030992
1498	0.00169
1510	0.0009828
1522	0.0007072
1534	0.0005928
1546	0.000442
1558	0.0003432
1570	0.0003432
1582	0.0003276
1594	0.0002652
1606	0.0002964
1618	0.0002548
1630	0.0002184
1642	0.0002028
1654	0.000182
1666	0.000208
1678	0.0001664
1690	0.0001508
1702	0.0001248
1714	0.0001248
1726	0.0001248
1738	0.0001456
1750	0.0001508
1762	0.000104
1774	8.84e-05
1786	7.8e-05
1798	7.28e-05
1810	4.68e-05
1822	8.32e-05
1834	7.8e-05
1846	6.76e-05
1858	7.8e-05
1870	6.76e-05
1882	6.24e-05
1894	6.76e-05
1906	8.84e-05
1918	8.84e-05
1930	8.32e-05
1942	7.28e-05
1954	8.32e-05
1966	0.0001352
1978	0.0001144
1990	9.88e-05
2002	0.0001352
2014	0.0001456
2026	0.00013
2038	0.000156
2050	0.0001404
2062	0.0001144
2074	0.0001144
2086	0.00013
2098	7.8e-05
2110	0.0001092
2122	7.8e-05
2134	0.000104
2146	0.0001352
2158	0.0001248
2170	0.000156
2182	0.000156
2194	0.0001352
2206	0.0001716
2218	0.0001872
2230	0.0001872
2242	0.000286
2254	0.0002964
2266	0.0002392
2278	0.0001924
2290	0.0001924
2302	0.0001196
2314	0.0001404
2326	0.000104
2338	7.8e-05
2350	9.36e-05
2362	3.64e-05
2374	6.76e-05
2386	5.2e-05
2398	5.72e-05
2410	8.32e-05
2422	7.28e-05
2434	7.8e-05
2446	1.56e-05
2458	4.68e-05
2470	2.08e-05
2482	5.2e-05
2494	7.8e-05
2506	7.28e-05
2518	0.000104
2530	0.0001612
2542	0.000156
2554	0.0001716
2566	0.0001872
2578	0.0002028
2590	0.0002652
2602	0.0003328
2614	0.000312
2626	0.0003328
2638	0.0003536
2650	0.0004368
2662	0.000494
2674	0.0005616
2686	0.0005772
2698	0.0005876
2710	0.0005772
2722	0.0006188
2734	0.0007176
2746	0.0007904
2758	0.0008268
2770	0.0009204
2782	0.0010972
2794	0.0014456
2806	0.0018928
2818	0.0024856
2830	0.003588
2842	0.0063388
2854	0.0123812
2866	0.0183716
2878	0.018798
2890	0.0164112
2902	0.0178412
2914	0.027898
2926	0.0445224
2938	0.052
2950	0.0403052
2962	0.0325884
2974	0.0287404
2986	0.0185276
2998	0.0127036
3010	0.0084656
3022	0.0061152
3034	0.0073268
3046	0.009854
3058	0.0055432
3070	0.0023556
3082	0.0014352
3094	0.0010608
3106	0.0008632
3118	0.0006812
3130	0.000546
3142	0.0005148
3154	0.0004368
3166	0.0003848
3178	0.000338
3190	0.0003276
3202	0.0002756
3214	0.000182
3226	0.0001456
3238	0.000104
3250	0.0001092
3262	9.88e-05
3274	0.0001196
3286	5.72e-05
3298	7.8e-05
3310	0.000104
3322	0.000104
3334	0.0001664
3346	0.0001352
3358	0.0001352
3370	0.0001092
3382	4.68e-05
3394	8.32e-05
3406	9.36e-05
3418	0.0001092
3430	9.36e-05
3442	0.00013
3454	9.36e-05
3466	5.2e-05
3478	8.84e-05
3490	6.24e-05
3502	6.76e-05
3514	6.24e-05
3526	7.8e-05
3538	7.8e-05
3550	3.12e-05
3562	3.64e-05
3574	6.76e-05
3586	6.76e-05
3598	4.68e-05
3610	5.72e-05
3622	0.0001196
3634	0.0001248
3646	7.8e-05
3658	0.0001456
3670	0.0001508
3682	0.0001612
3694	0.0001872
3706	0.0001612
3718	0.0002236
3730	0.0001664
3742	0.0001924
3754	0.000208
3766	0.000234
3778	0.000234
3790	0.000234
3802	0.0002288
3814	0.0002496
3826	0.0002236
3838	0.0002132
