Infrared Spectrum: Dodecanoic acid, 2-hydroxy-
Formula: C12 H24 O3
CAS: 2984-55-6
State: SOLID (SPLIT MULL), FLUOROLUBE FOR 3800-1335 CM^-^1, NUJOL FOR 1335-400 CM^-^1
Melting point: 75 C
Class: COBLENTZ III
Instrument: DOW KBr FOREPRISM-GRATING
Instrument parameters: BLAZED AT 3.5, 12.0, 20.0 MICRON AND CHANGED AT 5.0, 7.5, 14.9 MICRON
Sampling: TRANSMISSION
Resolution: 2
Origin: DOW CHEMICAL COMPANY
1/CM	TRANSMITTANCE
3800	0.8555
3791	0.8562
3782	0.857
3773	0.8578
3764	0.8586
3755	0.8605
3746	0.8633
3737	0.8632
3728	0.8632
3719	0.8639
3710	0.8637
3701	0.8625
3692	0.8586
3683	0.8628
3674	0.8635
3665	0.8628
3656	0.8616
3647	0.8601
3638	0.8591
3629	0.8581
3620	0.8571
3611	0.8561
3602	0.8546
3593	0.8531
3584	0.851
3575	0.8487
3566	0.8466
3557	0.8442
3548	0.8418
3539	0.8388
3530	0.8355
3521	0.8314
3512	0.8255
3503	0.8161
3494	0.8028
3485	0.7803
3476	0.7332
3467	0.6339
3458	0.4143
3449	0.2018
3440	0.2535
3431	0.4662
3422	0.6606
3413	0.7157
3404	0.7371
3395	0.7507
3386	0.7612
3377	0.7675
3368	0.7726
3359	0.7761
3350	0.7789
3341	0.781
3332	0.7826
3323	0.7844
3314	0.7855
3305	0.7865
3296	0.7871
3287	0.7874
3278	0.7875
3269	0.7855
3260	0.7826
3251	0.7795
3242	0.7758
3233	0.7711
3224	0.7661
3215	0.7607
3206	0.7539
3197	0.7469
3188	0.7385
3179	0.7275
3170	0.7171
3161	0.7071
3152	0.6971
3143	0.6862
3134	0.6751
3125	0.6641
3116	0.653
3107	0.6418
3098	0.63
3089	0.616
3080	0.6022
3071	0.588
3062	0.5736
3053	0.5594
3044	0.546
3035	0.5326
3026	0.5181
3017	0.503
3008	0.486
2999	0.4705
2990	0.4566
2981	0.4445
2972	0.41
2963	0.2821
2954	0.2196
2945	0.3059
2936	0.2562
2927	0.1818
2918	0.0509
2909	0.1201
2900	0.2542
2891	0.3429
2882	0.3943
2873	0.3928
2864	0.4004
2855	0.2689
2846	0.1942
2837	0.4566
2828	0.5145
2819	0.5396
2810	0.5582
2801	0.5744
2792	0.5858
2783	0.5928
2774	0.6
2765	0.6072
2756	0.6157
2747	0.6245
2738	0.6332
2729	0.6411
2720	0.6486
2711	0.6539
2702	0.6586
2693	0.6628
2684	0.6668
2675	0.6694
2666	0.6718
2657	0.6737
2648	0.6748
2639	0.6751
2630	0.6758
2621	0.679
2612	0.6834
2603	0.6881
2594	0.6941
2585	0.6999
2576	0.7058
2567	0.7114
2558	0.7171
2549	0.7226
2540	0.7288
2531	0.7365
2522	0.7456
2513	0.7578
2504	0.7697
2495	0.7761
2486	0.7798
2477	0.7826
2468	0.7857
2459	0.7886
2450	0.7915
2441	0.7942
2432	0.7962
2423	0.7984
2414	0.8005
2405	0.8025
2396	0.8047
2387	0.8065
2378	0.8083
2369	0.8099
2360	0.8115
2351	0.8084
2342	0.8055
2333	0.804
2324	0.8031
2315	0.8026
2306	0.8022
2297	0.8018
2288	0.8034
2279	0.8051
2270	0.8075
2261	0.8108
2252	0.8145
2243	0.8184
2234	0.8231
2225	0.8281
2216	0.8331
2207	0.8355
2198	0.8365
2189	0.8374
2180	0.8382
2171	0.8389
2162	0.8401
2153	0.8416
2144	0.8432
2135	0.8448
2126	0.8465
2117	0.8482
2108	0.8499
2099	0.8515
2090	0.8531
2081	0.8546
2072	0.8563
2063	0.8578
2054	0.8589
2045	0.8598
2036	0.8607
2027	0.8617
2018	0.8627
2009	0.8632
2000	0.8635
1991	0.8789
1982	0.884
1973	0.8871
1964	0.8913
1955	0.8927
1946	0.8935
1937	0.8935
1928	0.8936
1919	0.8931
1910	0.892
1901	0.8911
1892	0.89
1883	0.8882
1874	0.8853
1865	0.8802
1856	0.88
1847	0.8789
1838	0.8781
1829	0.877
1820	0.875
1811	0.87
1802	0.8578
1793	0.8446
1784	0.8281
1775	0.7989
1766	0.7342
1757	0.58
1748	0.1586
1739	0.0959
1730	0.4584
1721	0.6525
1712	0.7288
1703	0.7657
1694	0.7775
1685	0.7872
1676	0.7987
1667	0.809
1658	0.818
1649	0.8275
1640	0.8371
1631	0.8444
1622	0.8515
1613	0.8557
1604	0.8599
1595	0.864
1586	0.8681
1577	0.8728
1568	0.8768
1559	0.8802
1550	0.8815
1541	0.8823
1532	0.8827
1523	0.8825
1514	0.88
1505	0.8784
1496	0.8778
1487	0.8745
1478	0.8573
1469	0.416
1460	0.7658
1451	0.7892
1442	0.7867
1433	0.8241
1424	0.8349
1415	0.8331
1406	0.8275
1397	0.8174
1388	0.7955
1379	0.7637
1370	0.7453
1361	0.7458
1352	0.7333
1343	0.6894
1334	0.7088
1325	0.6976
1316	0.6905
1307	0.6421
1298	0.5865
1289	0.5622
1280	0.3982
1271	0.2975
1262	0.1892
1253	0.3257
1244	0.4935
1235	0.4539
1226	0.612
1217	0.6091
1208	0.5066
1199	0.5073
1190	0.609
1181	0.6593
1172	0.6975
1163	0.7199
1154	0.7032
1145	0.546
1136	0.4437
1127	0.5987
1118	0.6471
1109	0.6084
1100	0.2582
1091	0.3527
1082	0.555
1073	0.552
1064	0.6508
1055	0.668
1046	0.6669
1037	0.7224
1028	0.7474
1019	0.7598
1010	0.7678
1001	0.7603
992	0.7646
983	0.7821
974	0.7824
965	0.7815
956	0.7821
947	0.7744
938	0.7839
929	0.7817
920	0.7425
911	0.6707
902	0.7547
893	0.7358
884	0.5827
875	0.6778
866	0.5973
857	0.5789
848	0.6431
839	0.6803
830	0.734
821	0.7746
812	0.7908
803	0.8033
794	0.8097
785	0.8078
776	0.8104
767	0.8008
758	0.7968
749	0.7815
740	0.749
731	0.6428
722	0.5255
713	0.6645
704	0.7722
695	0.7897
686	0.7962
677	0.7955
668	0.7835
659	0.7508
650	0.6187
641	0.6356
632	0.7708
623	0.7805
614	0.7842
605	0.7868
596	0.7865
587	0.7833
578	0.7701
569	0.7536
560	0.7601
551	0.7595
542	0.7512
533	0.7255
524	0.6718
515	0.634
506	0.618
497	0.6373
488	0.6588
479	0.6393
470	0.6711
461	0.6875
452	0.6958
443	0.6945
434	0.6567
425	0.6358
416	0.6401
407	0.6492
398	0.6581
389	0.6646
