Infrared Spectrum: 2-Methyl-5-nonanol
Formula: C 10 H 22 O
CAS: 29843-62-7
State: gas
Instrument: HP-GC/MS/IRD
Origin: NIST Mass Spectrometry Data Center
1/CM	ABSORBANCE
550	0.00069
562	0.00048
574	0.00029
586	0.000165
598	0.000205
610	0.000295
622	0.00014
634	0.0001
646	0.00014
658	7.5e-05
670	0.00011
682	5e-05
694	9e-05
706	0.00012
718	0.000265
730	0.00039
742	0.000495
754	0.000565
766	0.000525
778	0.000555
790	0.00061
802	0.00055
814	0.00052
826	0.00061
838	0.000495
850	0.000695
862	0.000975
874	0.00129
886	0.00148
898	0.00153
910	0.0016
922	0.001785
934	0.001625
946	0.001515
958	0.001505
970	0.001735
982	0.00249
994	0.00377
1006	0.005385
1018	0.00666
1030	0.00725
1042	0.00621
1054	0.004725
1066	0.00381
1078	0.00339
1090	0.003155
1102	0.00326
1114	0.003295
1126	0.003415
1138	0.00345
1150	0.00279
1162	0.002685
1174	0.002685
1186	0.00263
1198	0.00294
1210	0.002975
1222	0.002985
1234	0.003165
1246	0.003345
1258	0.00344
1270	0.00311
1282	0.00267
1294	0.00248
1306	0.00243
1318	0.002465
1330	0.00282
1342	0.00348
1354	0.004145
1366	0.005595
1378	0.0069
1390	0.00659
1402	0.00378
1414	0.002375
1426	0.002225
1438	0.00311
1450	0.004715
1462	0.00638
1474	0.0054
1486	0.00256
1498	0.001305
1510	0.000835
1522	0.00059
1534	0.000435
1546	0.00033
1558	0.000325
1570	0.000245
1582	0.000195
1594	0.00018
1606	0.00016
1618	0.00016
1630	0.000145
1642	0.000125
1654	0.00016
1666	0.00011
1678	0.000115
1690	9e-05
1702	0.000105
1714	8e-05
1726	6e-05
1738	5.5e-05
1750	3.5e-05
1762	2e-05
1774	2e-05
1786	2.5e-05
1798	4e-05
1810	5e-06
1822	2.5e-05
1834	3e-05
1846	2.5e-05
1858	2.5e-05
1870	4.5e-05
1882	5.5e-05
1894	3e-05
1906	4.5e-05
1918	2.5e-05
1930	3e-05
1942	4e-05
1954	1e-05
1966	1e-05
1978	2.5e-05
1990	2e-05
2002	2e-05
2014	1.5e-05
2026	3e-05
2038	5e-05
2050	5.5e-05
2062	5e-05
2074	3.5e-05
2086	5e-06
2098	2.5e-05
2110	1.5e-05
2122	3e-05
2134	2.5e-05
2146	5e-06
2158	2e-05
2170	2.5e-05
2182	3.5e-05
2194	3.5e-05
2206	3.5e-05
2218	2e-05
2230	2.5e-05
2242	2.5e-05
2254	3e-05
2266	3.5e-05
2278	5e-05
2290	3.5e-05
2302	3.5e-05
2314	4.5e-05
2326	8e-05
2338	7.5e-05
2350	6.5e-05
2362	0.00011
2374	9.5e-05
2386	9e-05
2398	8.5e-05
2410	8.5e-05
2422	7e-05
2434	6.5e-05
2446	7e-05
2458	6.5e-05
2470	5.5e-05
2482	5e-05
2494	9.5e-05
2506	0.0001
2518	0.000115
2530	0.000125
2542	0.00013
2554	0.00017
2566	0.000235
2578	0.000285
2590	0.00036
2602	0.00038
2614	0.000425
2626	0.000465
2638	0.00053
2650	0.00057
2662	0.00063
2674	0.00065
2686	0.00068
2698	0.00072
2710	0.000795
2722	0.000915
2734	0.001065
2746	0.00112
2758	0.00111
2770	0.00123
2782	0.00139
2794	0.001745
2806	0.00219
2818	0.002895
2830	0.004135
2842	0.00692
2854	0.01253
2866	0.019425
2878	0.024155
2890	0.021975
2902	0.022275
2914	0.0301
2926	0.040875
2938	0.04951
2950	0.042815
2962	0.04944
2974	0.035465
2986	0.01208
2998	0.00574
3010	0.003435
3022	0.00241
3034	0.00179
3046	0.001405
3058	0.00116
3070	0.00107
3082	0.00095
3094	0.00085
3106	0.000715
3118	0.00062
3130	0.00058
3142	0.000545
3154	0.000525
3166	0.00049
3178	0.000445
3190	0.000435
3202	0.000355
3214	0.000245
3226	0.000165
3238	0.00011
3250	7e-05
3262	8e-05
3274	4.5e-05
3286	7.5e-05
3298	6e-05
3310	7e-05
3322	6.5e-05
3334	9e-05
3346	0.00012
3358	0.000105
3370	0.000105
3382	0.000115
3394	0.00013
3406	0.000135
3418	0.000125
3430	0.000115
3442	0.00014
3454	0.0001
3466	0.000115
3478	0.00011
3490	0.000115
3502	9.5e-05
3514	8e-05
3526	1.5e-05
3538	4.5e-05
3550	5.5e-05
3562	6e-05
3574	9.5e-05
3586	0.0001
3598	0.00015
3610	0.000275
3622	0.000545
3634	0.001005
3646	0.001965
3658	0.00227
3670	0.001065
3682	0.000425
3694	0.00025
3706	0.00019
3718	0.00014
3730	0.00015
3742	0.00016
3754	0.000165
3766	0.000125
3778	0.000175
3790	0.000185
3802	0.000255
3814	0.000245
3826	0.000265
3838	0.000285
