Infrared Spectrum: BENZOPHENONE, 4-DODECYLOXY-2-HYDROXY-
Formula: C25 H34 O3
CAS: 2985-59-3
State: SOLID (KBr PELLET)
Class: COBLENTZ
Instrument: Not specified, most likely a prism, grating, or hybrid spectrometer.
Sampling: TRANSMISSION
Resolution: 4
Origin: TENNESSEE EASTMAN COMPANY, RESEARCH LABORATORIES
MICROMETERS	TRANSMITTANCE
2.021	0.715
2.06202	0.715
2.10305	0.718
2.14407	0.732
2.18509	0.739
2.22612	0.749
2.26714	0.747
2.30816	0.751
2.34919	0.756
2.39021	0.765
2.43123	0.77
2.47226	0.78
2.51328	0.799
2.5543	0.801
2.59533	0.809
2.63635	0.818
2.67737	0.825
2.7184	0.826
2.75942	0.828
2.80044	0.826
2.84147	0.823
2.88249	0.818
2.92351	0.814
2.96454	0.818
3.00556	0.819
3.04658	0.818
3.08761	0.802
3.12863	0.785
3.16965	0.785
3.21068	0.758
3.2517	0.691
3.29272	0.703
3.33375	0.535
3.37477	0.094
3.4158	0.207
3.45682	0.217
3.49784	0.569
3.53887	0.756
3.57989	0.802
3.62091	0.809
3.66194	0.819
3.70296	0.833
3.74398	0.838
3.78501	0.857
3.82603	0.859
3.86705	0.883
3.90808	0.914
3.9491	0.933
3.99012	0.941
4.03115	0.945
4.07217	0.946
4.11319	0.957
4.15422	0.96
4.19524	0.96
4.23626	0.962
4.27729	0.96
4.31831	0.963
4.35933	0.989
4.40036	1
4.44138	1.003
4.4824	1.005
4.52343	0.994
4.56445	0.977
4.60547	0.977
4.6465	0.965
4.68752	0.963
4.72854	0.96
4.76957	0.96
4.81059	0.962
4.85161	0.953
4.89264	0.953
4.93366	0.953
4.97468	0.96
5.01571	0.953
5.05673	0.95
5.09775	0.948
5.13878	0.95
5.1798	0.95
5.22082	0.934
5.26185	0.945
5.30287	0.953
5.34389	0.957
5.38492	0.962
5.42594	0.96
5.46696	0.951
5.50799	0.948
5.54901	0.951
5.59003	0.95
5.63106	0.941
5.67208	0.941
5.7131	0.933
5.75413	0.921
5.79515	0.915
5.83617	0.893
5.8772	0.866
5.91822	0.85
5.95925	0.802
6.00027	0.708
6.04129	0.566
6.08232	0.202
6.12334	0.054
6.16436	0.06
6.20539	0.077
6.24641	0.128
6.28743	0.245
6.32846	0.169
6.36948	0.425
6.4105	0.596
6.45153	0.624
6.49255	0.641
6.53357	0.588
6.5746	0.397
6.61562	0.3
6.65664	0.442
6.69767	0.584
6.73869	0.502
6.77971	0.312
6.82074	0.452
6.86176	0.5
6.90278	0.572
6.94381	0.648
6.98483	0.62
7.02585	0.595
7.06688	0.651
7.1079	0.62
7.14892	0.483
7.18995	0.432
7.23097	0.341
7.27199	0.341
7.31302	0.36
7.35404	0.293
7.39506	0.15
7.43609	0.099
7.47711	0.296
7.51813	0.535
7.55916	0.627
7.60018	0.547
7.6412	0.411
7.68223	0.394
7.72325	0.37
7.76427	0.219
7.8053	0.089
7.84632	0.09
7.88734	0.075
7.92837	0.065
7.96939	0.084
8.01041	0.231
8.05144	0.396
8.09246	0.415
8.13348	0.329
8.17451	0.473
8.21553	0.579
8.25655	0.562
8.29758	0.382
8.3386	0.2
8.37962	0.224
8.42065	0.348
8.46167	0.399
8.50269	0.394
8.54372	0.231
8.58474	0.325
8.62577	0.586
8.66679	0.72
8.70781	0.775
8.74884	0.768
8.78986	0.605
8.83088	0.343
8.87191	0.312
8.91293	0.233
8.95395	0.166
8.99498	0.459
9.036	0.696
9.07702	0.785
9.11805	0.802
9.15907	0.821
9.20009	0.823
9.24112	0.746
9.28214	0.722
9.32316	0.78
9.36419	0.792
9.40521	0.794
9.44623	0.795
9.48726	0.78
9.52828	0.765
9.5693	0.754
9.61033	0.722
9.65135	0.632
9.69237	0.59
9.7334	0.603
9.77442	0.6
9.81544	0.602
9.85647	0.644
9.89749	0.672
9.93851	0.66
9.97954	0.698
10.0206	0.716
10.0616	0.689
10.1026	0.696
10.1436	0.74
10.1847	0.747
10.2257	0.753
10.2667	0.792
10.3077	0.831
10.3487	0.849
10.3898	0.854
10.4308	0.861
10.4718	0.874
10.5128	0.89
10.5539	0.888
10.5949	0.826
10.6359	0.716
10.6769	0.62
10.718	0.667
10.759	0.761
10.8	0.778
10.841	0.706
10.8821	0.627
10.9231	0.615
10.9641	0.638
11.0051	0.672
11.0461	0.728
11.0872	0.785
11.1282	0.814
11.1692	0.838
11.2102	0.861
11.2513	0.873
11.2923	0.878
11.3333	0.878
11.3743	0.885
11.4154	0.885
11.4564	0.878
11.4974	0.855
11.5384	0.825
11.5794	0.778
11.6205	0.703
11.6615	0.674
11.7025	0.672
11.7435	0.674
11.7846	0.665
11.8256	0.614
11.8666	0.554
11.9076	0.519
11.9487	0.552
11.9897	0.622
12.0307	0.691
12.0717	0.706
12.1128	0.689
12.1538	0.626
12.1948	0.578
12.2358	0.543
12.2768	0.526
12.3179	0.519
12.3589	0.516
12.3999	0.518
12.4409	0.528
12.482	0.55
12.523	0.564
12.564	0.578
12.605	0.583
12.6461	0.581
12.6871	0.579
12.7281	0.584
12.7691	0.605
12.8102	0.629
12.8512	0.643
12.8922	0.663
12.9332	0.677
12.9742	0.691
13.0153	0.699
13.0563	0.704
13.0973	0.704
13.1383	0.704
13.1794	0.699
13.2204	0.691
13.2614	0.677
13.3024	0.663
13.3435	0.66
13.3845	0.67
13.4255	0.722
13.4665	0.775
13.5075	0.806
13.5486	0.83
13.5896	0.837
13.6306	0.842
13.6716	0.842
13.7127	0.831
13.7537	0.823
13.7947	0.814
13.8357	0.814
13.8768	0.825
13.9178	0.831
13.9588	0.825
13.9998	0.77
14.0409	0.67
14.0819	0.562
14.1229	0.463
14.1639	0.384
14.2049	0.303
14.246	0.25
14.287	0.234
14.328	0.313
14.369	0.468
14.4101	0.622
14.4511	0.734
14.4921	0.782
14.5331	0.802
14.5742	0.819
14.6152	0.842
14.6562	0.867
14.6972	0.905
14.7382	0.934
14.7793	0.957
14.8203	0.967
14.8613	0.97
14.9023	0.972
14.9434	0.962
14.9844	0.951
15.0254	0.95
15.0664	0.953
15.1075	0.955
15.1485	0.948
15.1895	0.936
15.2305	0.905
15.2716	0.881
15.3126	0.849
15.3536	0.813
15.3946	0.789
15.4356	0.763
15.4767	0.74
15.5177	0.723
15.5587	0.711
15.5997	0.703
15.6408	0.699
15.6818	0.699
15.7228	0.699
15.7638	0.696
15.8049	0.679
15.8459	0.629
15.8869	0.59
15.9279	0.54
15.969	0.516
