Infrared Spectrum: 2,2-Dimethylbutanal
Formula: C 6 H 12 O
CAS: 2987-16-8
State: gas
Instrument: HP-GC/MS/IRD
Origin: NIST Mass Spectrometry Data Center
1/CM	ABSORBANCE
550	0.0002478
562	0.0002338
574	0.0002954
586	0.00014
598	0.0002422
610	0.0002842
622	0.0001792
634	0.0001512
646	0.000126
658	0.0001946
670	0
682	9.66e-05
694	6.86e-05
706	0.0001498
718	0.0003276
730	0.0004522
742	0.0005488
754	0.0005642
766	0.0006776
778	0.00098
790	0.0008862
802	0.0005348
814	0.0001848
826	0.0002954
838	0.0004522
850	0.000875
862	0.001316
874	0.0014826
886	0.0015722
898	0.0014854
910	0.0012194
922	0.0008204
934	0.0004788
946	0.0004396
958	0.00035
970	0.0004074
982	0.0004368
994	0.0004914
1006	0.0006594
1018	0.0007028
1030	0.0003906
1042	0.0003696
1054	0.0003934
1066	0.0004158
1078	0.0002324
1090	0.000168
1102	0.0001512
1114	0.0001652
1126	0.0001274
1138	0.0001568
1150	0.0001946
1162	0.0002856
1174	0.0003458
1186	0.000322
1198	0.0002982
1210	0.00021
1222	0.0001834
1234	0.0002576
1246	0.0002576
1258	0.0002058
1270	0.0001414
1282	0.0001106
1294	0.0001232
1306	0.0001316
1318	0.0001708
1330	0.000217
1342	0.0003402
1354	0.000784
1366	0.001533
1378	0.0018942
1390	0.0018634
1402	0.0013916
1414	0.000819
1426	0.0006328
1438	0.0010024
1450	0.0019334
1462	0.0028294
1474	0.0028434
1486	0.001771
1498	0.0006664
1510	0.0002814
1522	0.0002002
1534	0.0001316
1546	0.000105
1558	0.000126
1570	0.0001428
1582	0.0001288
1594	0.0001512
1606	0.000175
1618	0.0001638
1630	0.0001918
1642	0.0002856
1654	0.0004046
1666	0.000567
1678	0.00077
1690	0.0011466
1702	0.001855
1714	0.0039606
1726	0.0089782
1738	0.013398
1750	0.0120694
1762	0.0062062
1774	0.0030254
1786	0.0017738
1798	0.001085
1810	0.0007294
1822	0.0004466
1834	0.0002884
1846	0.0001778
1858	0.0001064
1870	6.86e-05
1882	6.16e-05
1894	3.92e-05
1906	4.62e-05
1918	4.48e-05
1930	1.96e-05
1942	1.12e-05
1954	4.2e-05
1966	3.22e-05
1978	3.92e-05
1990	5.32e-05
2002	2.66e-05
2014	9.8e-06
2026	3.5e-05
2038	5.46e-05
2050	2.94e-05
2062	6.58e-05
2074	4.9e-05
2086	5.6e-05
2098	5.74e-05
2110	7.56e-05
2122	4.9e-05
2134	2.52e-05
2146	3.78e-05
2158	2.52e-05
2170	6.44e-05
2182	1.26e-05
2194	4.9e-05
2206	2.8e-05
2218	5.32e-05
2230	2.38e-05
2242	5.18e-05
2254	3.78e-05
2266	3.08e-05
2278	3.78e-05
2290	4.48e-05
2302	3.36e-05
2314	4.76e-05
2326	4.34e-05
2338	5.46e-05
2350	4.48e-05
2362	6.72e-05
2374	6.86e-05
2386	3.22e-05
2398	4.76e-05
2410	3.5e-05
2422	5.32e-05
2434	4.06e-05
2446	5.46e-05
2458	3.08e-05
2470	3.92e-05
2482	5.46e-05
2494	4.48e-05
2506	5.04e-05
2518	5.46e-05
2530	8.82e-05
2542	7e-05
2554	8.12e-05
2566	0.0001456
2578	0.0001862
2590	0.000273
2602	0.0003794
2614	0.0005334
2626	0.0007014
2638	0.000903
2650	0.0011844
2662	0.0018844
2674	0.0033544
2686	0.0050176
2698	0.0047782
2710	0.0035084
2722	0.0023786
2734	0.001974
2746	0.0018802
2758	0.0019474
2770	0.0020356
2782	0.0025256
2794	0.0027482
2806	0.0026012
2818	0.002009
2830	0.001645
2842	0.0018396
2854	0.0025452
2866	0.0036078
2878	0.0046172
2890	0.0051156
2902	0.0053858
2914	0.0060788
2926	0.007182
2938	0.0080416
2950	0.0085064
2962	0.011788
2974	0.014
2986	0.0104692
2998	0.004557
3010	0.001659
3022	0.0009016
3034	0.0006286
3046	0.0004844
3058	0.0005124
3070	0.0005026
3082	0.0004676
3094	0.0004018
3106	0.0003388
3118	0.0003458
3130	0.0003346
3142	0.0002828
3154	0.0002884
3166	0.0002324
3178	0.0001988
3190	0.0002338
3202	0.0002086
3214	0.0001848
3226	0.0001428
3238	9.38e-05
3250	4.9e-05
3262	3.5e-05
3274	9.1e-05
3286	0.0001106
3298	8.12e-05
3310	9.8e-05
3322	8.96e-05
3334	0.0001288
3346	1.82e-05
3358	8.96e-05
3370	7.7e-05
3382	0.000126
3394	8.96e-05
3406	4.2e-05
3418	0.0001624
3430	0.0001456
3442	0.0002506
3454	0.000385
3466	0.0003654
3478	0.000287
3490	0.0001764
3502	0.0001638
3514	0.0001148
3526	8.26e-05
3538	0.0001134
3550	0.0001246
3562	0.0001232
3574	5.88e-05
3586	0.0001218
3598	0.0001554
3610	0.0001596
3622	0.0001064
3634	0.0001372
3646	0.0001358
3658	9.24e-05
3670	0.000133
3682	0.0001274
3694	0.0001218
3706	0.000196
3718	0.0001134
3730	0.0002016
3742	0.000168
3754	0.0001456
3766	0.0001876
3778	0.000112
3790	0.0001092
3802	0.0001106
3814	0.0001876
3826	0.0002072
3838	0.0002058
