Infrared Spectrum: 1,2-Diphenylcyclopropane
Formula: C 15 H 14
CAS: 29881-14-9
State: gas
Origin: EPA-IR VAPOR PHASE LIBRARY
1/CM	ABSORBANCE
549.8	0.0019683
559.445	0.0034683
569.09	0.0068583
578.734	0.0028283
588.379	0.0017583
598.024	0.0013083
607.669	0.0011383
617.313	0.0007068
626.958	0.000854
636.603	0.0011183
646.248	0.0016583
655.893	0.0034983
665.537	0.0075983
675.182	0.0161083
684.827	0.0326283
694.472	0.0499083
704.116	0.0385583
713.761	0.0230583
723.406	0.0185083
733.051	0.0226083
742.695	0.0302683
752.34	0.0330983
761.985	0.0240983
771.63	0.0183583
781.275	0.0101483
790.919	0.0043783
800.564	0.0025183
810.209	0.0019083
819.854	0.0017683
829.498	0.0017183
839.143	0.0019983
848.788	0.0025683
858.433	0.0031883
868.078	0.0037283
877.722	0.0042283
887.367	0.0054183
897.012	0.0073883
906.657	0.0082483
916.301	0.0056783
925.946	0.0050083
935.591	0.0061683
945.236	0.0041283
954.88	0.0022683
964.525	0.0020483
974.17	0.0022183
983.815	0.0036583
993.46	0.0039083
1003.1	0.0037683
1012.75	0.0038583
1022.39	0.0110683
1032.04	0.0176683
1041.68	0.0073283
1051.33	0.0055383
1060.97	0.0063783
1070.62	0.0070083
1080.26	0.0050483
1089.91	0.0040983
1099.55	0.0054083
1109.2	0.0096283
1118.84	0.0097683
1128.49	0.0042683
1138.13	0.0021283
1147.78	0.0012583
1157.42	0.0012383
1167.07	0.0008636
1176.71	0.0009465
1186.36	0.0012483
1196	0.0025183
1205.64	0.0080883
1215.29	0.0090483
1224.93	0.0048983
1234.58	0.0047083
1244.22	0.0026183
1253.87	0.0016983
1263.51	0.0013983
1273.16	0.0014083
1282.8	0.0016683
1292.45	0.0018583
1302.09	0.0021483
1311.74	0.0020683
1321.38	0.0018783
1331.03	0.0015683
1340.67	0.0012783
1350.32	0.0015083
1359.96	0.0014583
1369.61	0.0015083
1379.25	0.0015383
1388.9	0.0015883
1398.54	0.0015983
1408.18	0.0017383
1417.83	0.0022383
1427.47	0.0038583
1437.12	0.0067783
1446.76	0.0105383
1456.41	0.0119283
1466.05	0.0109683
1475.7	0.0099483
1485.34	0.0161583
1494.99	0.0416183
1504.63	0.0329883
1514.28	0.0063683
1523.92	0.0035083
1533.57	0.0026183
1543.21	0.0021683
1552.86	0.0024383
1562.5	0.0034283
1572.15	0.0054483
1581.79	0.0098483
1591.44	0.0201683
1601.08	0.0397283
1610.73	0.0263583
1620.37	0.0060983
1630.01	0.0027783
1639.66	0.0019883
1649.3	0.0019483
1658.95	0.0018183
1668.59	0.0016483
1678.24	0.0014183
1687.88	0.0012883
1697.53	0.0013583
1707.17	0.0015283
1716.82	0.0016783
1726.46	0.0019183
1736.11	0.0020483
1745.75	0.0018783
1755.4	0.0016383
1765.04	0.0017283
1774.69	0.0027983
1784.33	0.0043383
1793.98	0.0048783
1803.62	0.0029083
1813.27	0.0020483
1822.91	0.0016083
1832.55	0.0017383
1842.2	0.0020283
1851.84	0.0022883
1861.49	0.0027083
1871.13	0.0030383
1880.78	0.0028483
1890.42	0.0019483
1900.07	0.0014983
1909.71	0.0018383
1919.36	0.0025883
1929	0.0035683
1938.65	0.0040983
1948.29	0.0049783
1957.94	0.0032183
1967.58	0.0015483
1977.23	0.0011483
1986.87	0.0009254
1996.52	0.0006462
2006.16	0.0006437
2015.81	0.0005997
2025.45	0.0007337
2035.1	0.0007406
2044.74	0.0009716
2054.38	0.0010883
2064.03	0.0011783
2073.67	0.0010883
2083.32	0.0008192
2092.96	0.0006663
2102.61	0.0005492
2112.25	0.0005873
2121.9	0.0005721
2131.54	0.0005945
2141.19	0.0006257
2150.83	0.0006782
2160.48	0.0007647
2170.12	0.0008658
2179.77	0.0008439
2189.41	0.0007793
2199.06	0.0006691
2208.7	0.0004999
2218.35	0.0005228
2227.99	0.0004705
2237.64	0.0005717
2247.28	0.0005703
2256.92	0.0005922
2266.57	0.0005876
2276.21	0.0005462
2285.86	0.0005091
2295.5	0.0005236
2305.15	0.000789
2314.79	0.0010983
2324.44	0.000823
2334.08	0.0009195
2343.73	0.0008479
2353.37	0.0008925
2363.02	0.0006974
2372.66	0.0006598
2382.31	0.000582
2391.95	0.000572
2401.6	0.0006585
2411.24	0.0006557
2420.89	0.000855
2430.53	0.0009216
2440.18	0.0008875
2449.82	0.0007631
2459.47	0.0005942
2469.11	0.0007653
2478.75	0.000707
2488.4	0.0007534
2498.04	0.0006507
2507.69	0.0006839
2517.33	0.0006306
2526.98	0.0006628
2536.62	0.0005411
2546.27	0.0005974
2555.91	0.0005318
2565.56	0.000537
2575.2	0.0005932
2584.85	0.0005762
2594.49	0.0007089
2604.14	0.0008219
2613.78	0.000702
2623.43	0.0005309
2633.07	0.0005837
2642.72	0.0005542
2652.36	0.0004497
2662.01	0.0004086
2671.65	0.0004496
2681.29	0.000388
2690.94	0.0002556
2700.58	0.0002525
2710.23	0.0003506
2719.87	0.000237
2729.52	0.0002772
2739.16	0.0004065
2748.81	0.0003157
2758.45	0.0002946
2768.1	0.0005341
2777.74	0.0005213
2787.39	0.0005235
2797.03	0.0003715
2806.68	0.0004724
2816.32	0.0004953
2825.97	0.0005008
2835.61	0.0005915
2845.26	0.00078
2854.9	0.0008952
2864.55	0.0010448
2874.19	0.0011783
2883.84	0.0014683
2893.48	0.0015583
2903.12	0.0016283
2912.77	0.0014383
2922.41	0.0013383
2932.06	0.0014383
2941.7	0.0014383
2951.35	0.0013983
2960.99	0.0014383
2970.64	0.0018183
2980.28	0.0026683
2989.93	0.0050983
2999.57	0.0111583
3009.22	0.0209083
3018.86	0.0320083
3028.51	0.0464983
3038.15	0.0482183
3047.8	0.0321583
3057.44	0.0323183
3067.09	0.0570383
3076.73	0.0527383
3086.38	0.0335983
3096.02	0.0206183
3105.67	0.0134883
3115.31	0.0082783
3124.95	0.0033783
3134.6	0.0014983
3144.24	0.0011683
3153.89	0.0011883
3163.53	0.0009848
3173.18	0.0007828
3182.82	0.0003734
3192.47	0.0004441
3202.11	0.0004997
3211.76	0.0004231
3221.4	0.0004322
3231.05	0.0001767
3240.69	0.0002261
3250.34	0.0002102
3259.98	0.0002627
3269.63	0.0004083
3279.27	0.0003688
3288.92	0.0002051
3298.56	0.00016685
3308.21	0.0001694
3317.85	0.0002211
3327.49	0.0003809
3337.14	0.00013388
3346.78	7.897e-05
3356.43	0.0003223
3366.07	0.00014771
3375.72	0.0002218
3385.36	8.122e-05
3395.01	9.621e-05
3404.65	0.0002639
3414.3	0.0003411
3423.94	0.0002074
3433.59	0.0003269
3443.23	0.000395
3452.88	0.0003439
3462.52	4.62e-05
3472.17	0.0001865
3481.81	0
3491.46	0.0002119
3501.1	0.0003133
3510.75	7.5832e-05
3520.39	0.0002963
3530.04	0.0003438
3539.68	0.0003489
3549.32	0.0001901
3558.97	0.00013589
3568.61	0.00010169
3578.26	0.0002771
3587.9	0.0003116
3597.55	0.0003275
3607.19	0.000199
3616.84	0.0003232
3626.48	0.0003941
3636.13	0.0006182
3645.77	0.0005084
3655.42	0.0006062
3665.06	0.0004126
3674.71	0.000385
3684.35	0.0003359
3694	0.0004394
3703.64	0.0002314
3713.29	0.0004282
3722.93	0.0003032
3732.58	0.0002097
3742.22	0.0003414
3751.86	0.000277
3761.51	0.0004998
3771.15	0.0003139
3780.8	0.000367
3790.44	0.0004039
3800.09	0.0005422
3809.73	0.0003524
3819.38	0.0004287
3829.02	0.0004151
3838.67	0.0005038
3848.31	0.0004124
3857.96	0.0003996
3867.6	0.0001965
3877.25	0.0004665
3886.89	0.0003507
3896.54	0.000549
3906.18	0.0004067
3915.83	0.0004799
3925.47	0.000541
3935.12	0.0005502
3944.76	0.0004931
3954.41	0.0005142
3964.05	0.0003209
3973.69	0.0003605
3983.34	0.0003484
3992.98	0.0004336
