Infrared Spectrum: Crufomate
Formula: C 12 H 19 Cl N O 3 P
CAS: 299-86-5
State: gas
Instrument: HP-GC/MS/IRD
Origin: NIST Mass Spectrometry Data Center
1/CM	ABSORBANCE
550	0.0037568
562	0.0027264
574	0.0011136
586	0.000608
598	0.0006656
610	0.001552
622	0.0018784
634	0.0005152
646	0.0002624
658	0.0002656
670	0.0001504
682	0.0011488
694	0.002144
706	0.0009472
718	0.0008512
730	0.000992
742	0.0009312
754	0.0015136
766	0.0015712
778	0.0017856
790	0.004704
802	0.0075808
814	0.0036352
826	0.004176
838	0.0051552
850	0.009696
862	0.0184384
874	0.011792
886	0.005632
898	0.0038912
910	0.0055744
922	0.0168416
934	0.0309824
946	0.0131808
958	0.0057344
970	0.0026176
982	0.001376
994	0.0009696
1006	0.0011552
1018	0.0023264
1030	0.0059104
1042	0.0171488
1054	0.032
1066	0.0218912
1078	0.0127904
1090	0.0097888
1102	0.0115776
1114	0.0095424
1126	0.0050208
1138	0.002832
1150	0.0023008
1162	0.0024576
1174	0.0023072
1186	0.0029344
1198	0.0028384
1210	0.0026464
1222	0.0037184
1234	0.008112
1246	0.0156
1258	0.0204608
1270	0.0182112
1282	0.014048
1294	0.0135968
1306	0.0077664
1318	0.0037952
1330	0.002048
1342	0.0017824
1354	0.0022528
1366	0.0035232
1378	0.005328
1390	0.0077248
1402	0.006864
1414	0.003648
1426	0.002288
1438	0.0021472
1450	0.0028512
1462	0.003904
1474	0.006272
1486	0.0147648
1498	0.0169312
1510	0.0117472
1522	0.0028768
1534	0.0014272
1546	0.0011552
1558	0.0013152
1570	0.0012864
1582	0.0010048
1594	0.0012672
1606	0.0011904
1618	0.0004704
1630	0.0002592
1642	0.0002176
1654	0.000192
1666	9.6e-05
1678	1.92e-05
1690	2.56e-05
1702	4.48e-05
1714	5.44e-05
1726	0.0001152
1738	0.0001248
1750	0.0002656
1762	0.000144
1774	0.000112
1786	9.92e-05
1798	0.0001312
1810	0.0001696
1822	0.0001984
1834	0.0001664
1846	0.0001664
1858	0.0002112
1870	0.000224
1882	0.000256
1894	0.0002784
1906	0.00032
1918	0.0002528
1930	0.0002624
1942	0.0002816
1954	0.0002368
1966	0.0002304
1978	0.0001728
1990	0.0001408
2002	0.0001216
2014	0.0001248
2026	0.000128
2038	0.0001504
2050	0.000208
2062	0.0001568
2074	0.0001696
2086	0.00016
2098	0.0001984
2110	0.000176
2122	0.0001728
2134	0.0002048
2146	0.0001728
2158	0.0002144
2170	0.0002208
2182	0.0002368
2194	0.0002336
2206	0.0001664
2218	0.0002432
2230	0.0001888
2242	0.000176
2254	0.0001984
2266	0.0001472
2278	0.0001856
2290	0.000176
2302	0.0002048
2314	0.0001696
2326	0.0001824
2338	0.000192
2350	0.0001568
2362	0.0001632
2374	0.0001536
2386	0.000176
2398	0.0001696
2410	0.0001856
2422	0.0001728
2434	0.0001824
2446	0.000176
2458	0.0001952
2470	0.000208
2482	0.0002208
2494	0.0002784
2506	0.0003264
2518	0.0003104
2530	0.0003232
2542	0.0003296
2554	0.0003104
2566	0.0002336
2578	0.0002624
2590	0.0002144
2602	0.0002432
2614	0.00024
2626	0.0002176
2638	0.0002432
2650	0.000224
2662	0.00024
2674	0.0002528
2686	0.0002432
2698	0.0002432
2710	0.000272
2722	0.0002912
2734	0.000352
2746	0.0003552
2758	0.0004192
2770	0.0004064
2782	0.0004448
2794	0.0005504
2806	0.0006688
2818	0.0009664
2830	0.0016
2842	0.0022432
2854	0.002528
2866	0.0035168
2878	0.0039424
2890	0.0040128
2902	0.0045504
2914	0.0060544
2926	0.0061344
2938	0.0067008
2950	0.0099616
2962	0.0179328
2974	0.0184192
2986	0.0070624
2998	0.0034784
3010	0.0024384
3022	0.0020736
3034	0.0017184
3046	0.0015328
3058	0.0014144
3070	0.001376
3082	0.0013984
3094	0.0010656
3106	0.0007296
3118	0.000624
3130	0.000544
3142	0.0004576
3154	0.000368
3166	0.0004032
3178	0.0003648
3190	0.000352
3202	0.0002784
3214	0.000352
3226	0.0004032
3238	0.000336
3250	0.0002816
3262	0.0002976
3274	0.0003136
3286	0.0002528
3298	0.0002688
3310	0.000224
3322	0.000224
3334	0.0002656
3346	0.0002464
3358	0.0002272
3370	0.0002336
3382	0.0003264
3394	0.0004128
3406	0.0004
3418	0.0004064
3430	0.000832
3442	0.0017536
3454	0.0026272
3466	0.0019424
3478	0.00088
3490	0.000448
3502	0.000352
3514	0.0003072
3526	0.000272
3538	0.0002752
3550	0.0002592
3562	0.0002368
3574	0.0002144
3586	0.0002272
3598	0.0002336
3610	0.0001952
3622	0.0002752
3634	0.0002304
3646	0.0001984
3658	0.0002272
3670	0.0002496
3682	0.0001504
3694	0.0002368
3706	0.0002272
3718	0.0002016
3730	0.0002048
3742	0.0002144
3754	0.0002336
3766	0.0001984
3778	0.00024
3790	0.000208
3802	0.0001632
3814	0.0002656
3826	0.000272
3838	0.0003296
