Infrared Spectrum: Ephedrine
Formula: C 10 H 15 N O
CAS: 299-42-3
State: gas
Instrument: HP-GC/MS/IRD
Origin: NIST Mass Spectrometry Data Center
1/CM	ABSORBANCE
550	0.002769
562	0.001107
574	0.0013095
586	0.0010635
598	0.001122
610	0.0022215
622	0.003198
634	0.00231
646	0.00192
658	0.0025425
670	0.0036195
682	0.005733
694	0.01305
706	0.013224
718	0.006546
730	0.0054465
742	0.006765
754	0.006981
766	0.0045315
778	0.001941
790	0.001026
802	0.00081
814	0.000789
826	0.000795
838	0.000693
850	0.0007635
862	0.000726
874	0.000339
886	6.6e-05
898	0.0004665
910	0.00096
922	0.000738
934	0.000462
946	0.0002985
958	0.000666
970	0.001983
982	0.004206
994	0.005427
1006	0.006285
1018	0.007308
1030	0.006519
1042	0.0047115
1054	0.004761
1066	0.0057885
1078	0.0055995
1090	0.004836
1102	0.004884
1114	0.0063705
1126	0.007821
1138	0.0068325
1150	0.0058065
1162	0.005226
1174	0.0049605
1186	0.0053205
1198	0.005628
1210	0.00459
1222	0.0036615
1234	0.0035325
1246	0.0030675
1258	0.0023685
1270	0.002343
1282	0.002604
1294	0.003315
1306	0.0043185
1318	0.0044145
1330	0.0040215
1342	0.0034275
1354	0.003144
1366	0.004305
1378	0.0060105
1390	0.0052635
1402	0.0037815
1414	0.002547
1426	0.0024255
1438	0.0043065
1450	0.0070845
1462	0.006318
1474	0.0054555
1486	0.0052575
1498	0.0035655
1510	0.001194
1522	0.0004965
1534	0.000354
1546	0.0002895
1558	0.0001845
1570	0.000153
1582	0.0003825
1594	0.000969
1606	0.001101
1618	0.0002835
1630	6.9e-05
1642	9.6e-05
1654	0.000201
1666	0.000225
1678	0.0002235
1690	0.0002025
1702	0.0002445
1714	0.0005295
1726	0.000603
1738	0.00039
1750	0.000195
1762	9.3e-05
1774	4.2e-05
1786	0.0001395
1798	0.0004875
1810	0.000366
1822	0.0001215
1834	1.5e-05
1846	5.1e-05
1858	0.0001755
1870	0.000318
1882	0.000414
1894	0.0002955
1906	9.75e-05
1918	0.000123
1930	0.0003285
1942	0.0005775
1954	0.000531
1966	0.0002715
1978	8.1e-05
1990	7.35e-05
2002	5.25e-05
2014	8.85e-05
2026	0.000108
2038	6.75e-05
2050	9.15e-05
2062	8.4e-05
2074	0.0001005
2086	0.000123
2098	0.0001215
2110	0.0001305
2122	0.000105
2134	9.75e-05
2146	8.4e-05
2158	8.85e-05
2170	0.000108
2182	0.0001245
2194	0.0001155
2206	8.55e-05
2218	0.0001155
2230	0.000108
2242	0.000123
2254	9e-05
2266	0.000108
2278	0.0001005
2290	0.0001365
2302	0.000162
2314	0.000201
2326	0.000207
2338	0.0002475
2350	0.0001905
2362	0.0002085
2374	0.000174
2386	0.0001335
2398	7.8e-05
2410	0.0001365
2422	0.00012
2434	0.0001635
2446	0.0001005
2458	0.000108
2470	0.000135
2482	0.000156
2494	0.0001695
2506	0.0001695
2518	0.0002415
2530	0.000213
2542	0.0002745
2554	0.0003135
2566	0.0004035
2578	0.0004605
2590	0.0004845
2602	0.000507
2614	0.000495
2626	0.0005175
2638	0.000522
2650	0.000516
2662	0.0005145
2674	0.000585
2686	0.0006105
2698	0.0006405
2710	0.000753
2722	0.0009375
2734	0.00102
2746	0.001251
2758	0.001677
2770	0.0023625
2782	0.003894
2794	0.006732
2806	0.008406
2818	0.006492
2830	0.005397
2842	0.006552
2854	0.0085815
2866	0.0102135
2878	0.010926
2890	0.0109365
2902	0.010212
2914	0.009231
2926	0.008853
2938	0.009756
2950	0.0102615
2962	0.01197
2974	0.013863
2986	0.011097
2998	0.0058995
3010	0.0035175
3022	0.0049185
3034	0.006897
3046	0.0052095
3058	0.005487
3070	0.0079695
3082	0.0059385
3094	0.003888
3106	0.0022425
3118	0.0011925
3130	0.0006795
3142	0.000513
3154	0.0004605
3166	0.000441
3178	0.0003045
3190	0.0002445
3202	0.0002175
3214	0.0001995
3226	0.0001275
3238	9.75e-05
3250	0.00012
3262	0.0001605
3274	8.25e-05
3286	0.000105
3298	0.000141
3310	0.000129
3322	0.0001965
3334	0.0002715
3346	0.00033
3358	0.0004995
3370	0.0006345
3382	0.0005715
3394	0.0005925
3406	0.0005865
3418	0.0006555
3430	0.000795
3442	0.0009795
3454	0.001038
3466	0.001011
3478	0.001146
3490	0.001704
3502	0.002133
3514	0.00177
3526	0.0013875
3538	0.001407
3550	0.0015465
3562	0.00138
3574	0.000933
3586	0.0007335
3598	0.000633
3610	0.000588
3622	0.0006435
3634	0.001017
3646	0.0021735
3658	0.0018735
3670	0.000837
3682	0.0003735
3694	0.000252
3706	0.000216
3718	9.75e-05
3730	0.0001365
3742	0.000135
3754	0.000114
3766	3.75e-05
3778	0.000108
3790	4.5e-05
3802	7.05e-05
3814	0.0001155
3826	0.000114
3838	8.4e-05
