Infrared Spectrum: Ronnel
Formula: C 8 H 8 Cl 3 O 3 P S
CAS: 299-84-3
State: gas
Instrument: HP-GC/MS/IRD
Origin: NIST Mass Spectrometry Data Center
1/CM	ABSORBANCE
550	0.0043771
562	0.0016055
574	0.0002028
586	0.0001859
598	0.001183
610	0.0050193
622	0.0052221
634	0.0052897
646	0.0044785
658	0.0025181
670	0.007267
682	0.0202124
694	0.0107991
706	0.01014
718	0.021463
730	0.0086866
742	0.0029744
754	0.002704
766	0.0033293
778	0.004901
790	0.0087373
802	0.0173732
814	0.037349
826	0.071825
838	0.122948
850	0.1485
862	0.109259
874	0.0648453
886	0.0530998
898	0.0161564
910	0.0086021
922	0.0081627
934	0.0098189
946	0.0208377
958	0.0862914
970	0.101282
982	0.0261105
994	0.0167817
1006	0.0195702
1018	0.0275132
1030	0.0544349
1042	0.119534
1054	0.169
1066	0.15935
1078	0.116644
1090	0.0836888
1102	0.0438893
1114	0.0398164
1126	0.0505479
1138	0.0259077
1150	0.0158015
1162	0.0144664
1174	0.0178295
1186	0.0207701
1198	0.0155818
1210	0.0132158
1222	0.0182182
1234	0.031772
1246	0.0562432
1258	0.0289666
1270	0.0105287
1282	0.0063882
1294	0.00507
1306	0.0046306
1318	0.0057629
1330	0.0118469
1342	0.0388024
1354	0.0315523
1366	0.0082303
1378	0.0058981
1390	0.0057967
1402	0.0061516
1414	0.0073853
1426	0.0097344
1438	0.0217841
1450	0.0752219
1462	0.135521
1474	0.0495508
1486	0.0294567
1498	0.0202969
1510	0.011492
1522	0.007436
1534	0.0059319
1546	0.0066248
1558	0.0067938
1570	0.0066417
1582	0.0101907
1594	0.0041067
1606	0.0019435
1618	0.0014365
1630	0.0012506
1642	0.0012844
1654	0.0013182
1666	0.0015379
1678	0.0019097
1690	0.0015886
1702	0.0011999
1714	0.0012844
1726	0.0015717
1738	0.0015548
1750	0.001014
1762	0.0005915
1774	0.0006084
1786	0.000676
1798	0.0007267
1810	0.0008281
1822	0.0007605
1834	0.0008112
1846	0.0009802
1858	0.0013182
1870	0.0017238
1882	0.0020449
1894	0.0019604
1906	0.0015379
1918	0.0011154
1930	0.0008281
1942	0.0007436
1954	0.0007774
1966	0.0007774
1978	0.0004732
1990	0.0002366
2002	0.0001521
2014	0.0001521
2026	0.0001014
2038	3.38e-05
2050	1.69e-05
2062	3.38e-05
2074	0.0001014
2086	0.0001521
2098	0.0002197
2110	0.0002535
2122	0.0002028
2134	0.000169
2146	0.0001014
2158	8.45e-05
2170	0.0001521
2182	0.0002704
2194	0.0002366
2206	0.0002028
2218	0.0001352
2230	5.07e-05
2242	8.45e-05
2254	5.07e-05
2266	0.0001014
2278	0.0001521
2290	0.0002197
2302	0.000338
2314	0.0003042
2326	0.000169
2338	6.76e-05
2350	8.45e-05
2362	8.45e-05
2374	8.45e-05
2386	1.69e-05
2398	0
2410	6.76e-05
2422	0.0001014
2434	6.76e-05
2446	5.07e-05
2458	0.0001183
2470	0.0002873
2482	0.000338
2494	0.0004056
2506	0.0003042
2518	0.000169
2530	0.0001521
2542	0.0002028
2554	0.0001859
2566	0.0001859
2578	0.0002535
2590	0.0003042
2602	0.0002366
2614	0.0001521
2626	0.0001014
2638	0.0001183
2650	0.0001352
2662	0.0001183
2674	0.0002535
2686	0.0003042
2698	0.0002366
2710	0.0001521
2722	6.76e-05
2734	8.45e-05
2746	0.000169
2758	0.0001859
2770	0.0003211
2782	0.0006084
2794	0.0008112
2806	0.000845
2818	0.0010309
2830	0.0015379
2842	0.0027716
2854	0.0076895
2866	0.0072163
2878	0.0029744
2890	0.002535
2902	0.0031434
2914	0.0041236
2926	0.0042588
2938	0.005746
2950	0.0138918
2962	0.029744
2974	0.0127257
2986	0.0070811
2998	0.0069966
3010	0.0070135
3022	0.0069628
3034	0.0056953
3046	0.0039377
3058	0.0032448
3070	0.0031265
3082	0.0030758
3094	0.0031941
3106	0.0027209
3118	0.0016055
3130	0.0011492
3142	0.0008619
3154	0.0006422
3166	0.0004225
3178	0.0002873
3190	0.0002873
3202	0.0001521
3214	0.000169
3226	8.45e-05
3238	0.0001014
3250	0.0001183
3262	8.45e-05
3274	6.76e-05
3286	8.45e-05
3298	8.45e-05
3310	0.0001183
3322	0.0001859
3334	8.45e-05
3346	8.45e-05
3358	0.0001014
3370	0.0001014
3382	0.0001352
3394	0.0001521
3406	0.0001014
3418	0.0001352
3430	0.000169
3442	0.0001352
3454	0.0002366
3466	0.0001521
3478	0.0001352
3490	0.000169
3502	6.76e-05
3514	0.000169
3526	0.0001014
3538	8.45e-05
3550	0.0002028
3562	0.0002028
3574	0.0002197
3586	0.0002028
3598	0.0001859
3610	0.000169
3622	0.0001859
3634	0.0002197
3646	0.0002028
3658	0.0001521
3670	0.0002704
3682	0.0002704
3694	0.000338
3706	0.000169
3718	0.0002704
3730	0.0002197
3742	0.0002704
3754	0.0002873
3766	0.0003211
3778	0.0004056
3790	0.000338
3802	0.0003718
3814	0.0002366
3826	0.0002366
3838	0.0003042
