Infrared Spectrum: PROPANOL, 3,3,3-TRICHLORO-2-METHYL-
Formula: C4 H7 Cl3 O
CAS: 29903-32-0
State: SOLUTION 0.75% (CS2 FOR 2-6.2 AND 7.2-15 microns, AND C2Cl4 FOR 6.2-7.2 microns)
Class: COBLENTZ III
Instrument: PERKIN-ELMER 21 (GRATING)
Instrument parameters: FILTER AT ABOUT 10 MICRONS
Sampling: TRANSMISSION
Path length: 0.1 CM
Resolution: 2
1/CM	TRANSMITTANCE
4000	0.9733
3991	0.9744
3982	0.9754
3973	0.9765
3964	0.9777
3955	0.9788
3946	0.9795
3937	0.9797
3928	0.9798
3919	0.98
3910	0.9799
3901	0.9795
3892	0.9792
3883	0.9784
3874	0.9771
3865	0.9756
3856	0.9739
3847	0.9725
3838	0.9723
3829	0.9721
3820	0.9723
3811	0.9727
3802	0.9731
3793	0.9738
3784	0.9756
3775	0.9775
3766	0.9803
3757	0.9823
3748	0.9831
3739	0.983
3730	0.982
3721	0.9804
3712	0.9794
3703	0.9798
3694	0.9809
3685	0.9828
3676	0.9847
3667	0.9859
3658	0.9861
3649	0.9853
3640	0.9843
3631	0.983
3622	0.981
3613	0.9783
3604	0.9733
3595	0.9633
3586	0.9118
3577	0.7951
3568	0.6782
3559	0.6019
3550	0.6095
3541	0.6841
3532	0.7706
3523	0.8575
3514	0.8928
3505	0.914
3496	0.9414
3487	0.9538
3478	0.9612
3469	0.9675
3460	0.9725
3451	0.9757
3442	0.9789
3433	0.9813
3424	0.9836
3415	0.9858
3406	0.988
3397	0.9898
3388	0.9913
3379	0.9921
3370	0.9928
3361	0.9937
3352	0.9941
3343	0.9946
3334	0.995
3325	0.9952
3316	0.9952
3307	0.9953
3298	0.9954
3289	0.9954
3280	0.9954
3271	0.9953
3262	0.9953
3253	0.9953
3244	0.9954
3235	0.9955
3226	0.9955
3217	0.9957
3208	0.9959
3199	0.9962
3190	0.9968
3181	0.9974
3172	0.9981
3163	0.9989
3154	0.9995
3145	1.0002
3136	1.0006
3127	1.0009
3118	1.0008
3109	1.0004
3100	1
3091	0.9994
3082	0.9989
3073	0.9978
3064	0.997
3055	0.9951
3046	0.9925
3037	0.9886
3028	0.9707
3019	0.9077
3010	0.8424
3001	0.7768
2992	0.7334
2983	0.7801
2974	0.8539
2965	0.8907
2956	0.886
2947	0.865
2938	0.8591
2929	0.8757
2920	0.8946
2911	0.9144
2902	0.9268
2893	0.9375
2884	0.9442
2875	0.9471
2866	0.9518
2857	0.9595
2848	0.9678
2839	0.9708
2830	0.9725
2821	0.9771
2812	0.9808
2803	0.9825
2794	0.9848
2785	0.987
2776	0.9896
2767	0.9924
2758	0.9959
2749	1
2740	1.0053
2731	1.0086
2722	1.0078
2713	1.0063
2704	1.0065
2695	1.007
2686	1.0075
2677	1.0081
2668	1.0083
2659	1.0078
2650	1.0074
2641	1.0071
2632	1.007
2623	1.0068
2614	1.0064
2605	1.0074
2596	1.0118
2587	1.0183
2578	1.0247
2569	1.0274
2560	1.0287
2551	1.0297
2542	1.0307
2533	1.0311
2524	1.031
2515	1.031
2506	1.031
2497	1.0309
2488	1.0309
2479	1.0309
2470	1.0308
2461	1.0308
2452	1.0308
2443	1.0306
2434	1.0298
2425	1.0292
2416	1.0285
2407	1.0281
2398	1.0281
2389	1.028
2380	1.028
2371	1.028
2362	1.0283
2353	1.0285
2344	1.0287
2335	1.0291
2326	1.03
2317	1.0309
2308	1.0308
2299	1.0303
2290	1.0298
2281	1.0293
2272	1.0293
2263	1.0297
2254	1.0308
2245	1.032
2236	1.0324
2227	1.0325
2218	1.0314
2209	1.0296
2200	1.0285
2191	1.0282
2182	1.0287
2173	1.0291
2164	1.0286
2155	1.0278
2146	1.0263
2137	1.0278
2128	1.0294
2119	1.031
2110	1.0314
2101	1.0318
2092	1.031
2083	1.0292
2074	1.0286
2065	1.0284
2056	1.0282
2047	1.028
2038	1.0277
2029	1.0268
2020	1.0262
2011	1.0255
2002	1.0247
1993	1.0244
1984	1.0243
1975	1.0236
1966	1.0221
1957	1.0205
1948	1.0184
1939	1.017
1930	1.0192
1921	1.0217
1912	1.0158
1903	1.0095
1894	1.0064
1885	1.0045
1876	1.0094
1867	1.0133
1858	1.0123
1849	1.0109
1840	1.0086
1831	1.0054
1822	1.001
1813	1
1804	1.0003
1795	1.0021
1786	1.003
1777	1.003
1768	1.0018
1759	1.0007
1750	0.9991
1741	0.9973
1732	0.9945
1723	0.9924
1714	0.9935
1705	0.988
1696	0.9878
1687	0.9898
1678	0.9915
1669	0.9884
1660	0.9861
1651	0.9853
1642	0.9862
1633	0.987
1624	0.9858
1615	0.9809
1606	0.941
1597	0.9338
1588	0.9397
1579	0.9474
1570	0.955
1561	0.9692
1552	0.9631
1543	0.9609
1534	0.9507
1525	0.961
1516	0.9591
1507	0.94
1498	0.9312
1489	0.9086
1480	0.8806
1471	0.7869
1462	0.6242
1453	0.8121
1444	0.8333
1435	0.844
1426	0.8774
1417	0.887
1408	0.8867
1399	0.8478
1390	0.7139
1381	0.6874
1372	0.4612
1363	0.7764
1354	0.833
1345	0.6767
1336	0.3843
1327	0.4442
1318	0.7467
1309	0.8594
1300	0.905
1291	0.9234
1282	0.9234
1273	0.9247
1264	0.9117
1255	0.9241
1246	0.9371
1237	0.9336
1228	0.9068
1219	0.8683
1210	0.7692
1201	0.5345
1192	0.451
1183	0.4544
1174	0.5512
1165	0.725
1156	0.8164
1147	0.8339
1138	0.8082
1129	0.6951
1120	0.4162
1111	0.4875
1102	0.7718
1093	0.8643
1084	0.901
1075	0.9183
1066	0.9261
1057	0.932
1048	0.9385
1039	0.9397
1030	0.9354
1021	0.9277
1012	0.8994
1003	0.7784
994	0.8433
985	0.7235
976	0.6518
967	0.8506
958	0.8985
949	0.9208
940	0.9097
931	0.9125
922	0.8499
913	0.4874
904	0.7258
895	0.8663
886	0.8935
877	0.8934
868	0.897
859	0.8977
850	0.8368
841	0.624
832	0.2176
823	0.3173
814	0.6059
805	0.4359
796	0.053
787	0.0544
778	0.4934
769	0.7644
760	0.8331
751	0.8653
742	0.8936
733	0.9335
724	0.942
715	0.9475
706	0.951
697	0.9477
688	0.9468
679	0.9637
