Infrared Spectrum: 1,1-Bis-(4-bromophenyl)-2,2,2-trichloroethane
Formula: C 14 H 9 Br 2 Cl 3
CAS: 2990-17-2
State: gas
Origin: EPA-IR VAPOR PHASE LIBRARY
1/CM	ABSORBANCE
549.8	0.002471
559.445	0.00072
569.09	0.0017875
578.734	0.00089
588.379	0.00141
598.024	0.00345
607.669	0.00465
617.313	0.0136
626.958	0.00467
636.603	0.00651
646.248	0.00645
655.893	0.00456
665.537	0.00619
675.182	0.00797
684.827	0.00604
694.472	0.00583
704.116	0.00739
713.761	0.00669
723.406	0.00619
733.051	0.00483
742.695	0.00686
752.34	0.01566
761.985	0.06019
771.63	0.05673
781.275	0.03923
790.919	0.01375
800.564	0.01484
810.209	0.01528
819.854	0.00787
829.498	0.01134
839.143	0.00919
848.788	0.01645
858.433	0.00882
868.078	0.0055
877.722	0.00432
887.367	0.00457
897.012	0.00513
906.657	0.0033
916.301	0.00361
925.946	0.00322
935.591	0.00314
945.236	0.00362
954.88	0.00295
964.525	0.002718
974.17	0.00308
983.815	0.00435
993.46	0.00553
1003.1	0.01454
1012.75	0.05293
1022.39	0.00901
1032.04	0.00293
1041.68	0.0023788
1051.33	0.00312
1060.97	0.0049
1070.62	0.01548
1080.26	0.03227
1089.91	0.00729
1099.55	0.00509
1109.2	0.00563
1118.84	0.00379
1128.49	0.00309
1138.13	0.001615
1147.78	0.0025644
1157.42	0.00190213
1167.07	0.001374
1176.71	0.00138
1186.36	0.001729
1196	0.000939
1205.64	0.001047
1215.29	0.001326
1224.93	0.001024
1234.58	0.00332
1244.22	0.0024451
1253.87	0.00374
1263.51	0.00413
1273.16	0.00345
1282.8	0.00319
1292.45	0.0027899
1302.09	0.00288
1311.74	0.00329
1321.38	0.0033
1331.03	0.00311
1340.67	0.00304
1350.32	0.0027206
1359.96	0.002684
1369.61	0.0025267
1379.25	0.0029
1388.9	0.00371
1398.54	0.00755
1408.18	0.00776
1417.83	0.00371
1427.47	0.00372
1437.12	0.00448
1446.76	0.00472
1456.41	0.00462
1466.05	0.00501
1475.7	0.01071
1485.34	0.04223
1494.99	0.04013
1504.63	0.00833
1514.28	0.00408
1523.92	0.00294
1533.57	0.00358
1543.21	0.00324
1552.86	0.00334
1562.5	0.00355
1572.15	0.00509
1581.79	0.00699
1591.44	0.00976
1601.08	0.00539
1610.73	0.00357
1620.37	0.00295
1630.01	0.0027928
1639.66	0.00314
1649.3	0.00307
1658.95	0.0025918
1668.59	0.0022553
1678.24	0.0024034
1687.88	0.0021752
1697.53	0.00189845
1707.17	0.0022607
1716.82	0.001714
1726.46	0.0023254
1736.11	0.0026752
1745.75	0.0023029
1755.4	0.0023698
1765.04	0.00294
1774.69	0.00361
1784.33	0.0026012
1793.98	0.0021754
1803.62	0.0021933
1813.27	0.0022075
1822.91	0.0024018
1832.55	0.0018889
1842.2	0.0019793
1851.84	0.0021787
1861.49	0.0021904
1871.13	0.0022378
1880.78	0.0027352
1890.42	0.0038
1900.07	0.00363
1909.71	0.0025043
1919.36	0.0022201
1929	0.00189863
1938.65	0.0023859
1948.29	0.0022367
1957.94	0.0023506
1967.58	0.002419
1977.23	0.0023206
1986.87	0.0020788
1996.52	0.0022291
2006.16	0.0023536
2015.81	0.0021024
2025.45	0.0022939
2035.1	0.0019799
2044.74	0.0021519
2054.38	0.0021848
2064.03	0.0020941
2073.67	0.0024165
2083.32	0.0021707
2092.96	0.0022725
2102.61	0.002186
2112.25	0.002307
2121.9	0.0023805
2131.54	0.0024439
2141.19	0.0020789
2150.83	0.0020079
2160.48	0.0021753
2170.12	0.002503
2179.77	0.0022976
2189.41	0.0020101
2199.06	0.0019937
2208.7	0.0023364
2218.35	0.002078
2227.99	0.0020034
2237.64	0.002065
2247.28	0.0025004
2256.92	0.0023054
2266.57	0.002263
2276.21	0.0024889
2285.86	0.0021659
2295.5	0.0023624
2305.15	0.002135
2314.79	0.0021479
2324.44	0.001785
2334.08	0.0020976
2343.73	0.0020542
2353.37	0.00188488
2363.02	0.0025688
2372.66	0.0024819
2382.31	0.0025154
2391.95	0.0020351
2401.6	0.002308
2411.24	0.0027055
2420.89	0.0021556
2430.53	0.0026103
2440.18	0.0025203
2449.82	0.0022017
2459.47	0.0019416
2469.11	0.0020719
2478.75	0.001984
2488.4	0.0022585
2498.04	0.0023675
2507.69	0.0023554
2517.33	0.0022227
2526.98	0.0021573
2536.62	0.0022801
2546.27	0.00195197
2555.91	0.0025699
2565.56	0.0022244
2575.2	0.0021866
2584.85	0.0025969
2594.49	0.0028211
2604.14	0.002048
2613.78	0.0024795
2623.43	0.0022116
2633.07	0.0020988
2642.72	0.0023608
2652.36	0.0024814
2662.01	0.0024098
2671.65	0.002219
2681.29	0.0027193
2690.94	0.0020751
2700.58	0.0023042
2710.23	0.0022968
2719.87	0.0021408
2729.52	0.0022156
2739.16	0.0021319
2748.81	0.0026576
2758.45	0.0023659
2768.1	0.0027328
2777.74	0.0021899
2787.39	0.0024069
2797.03	0.0021958
2806.68	0.0022985
2816.32	0.0021376
2825.97	0.0024824
2835.61	0.002408
2845.26	0.0021907
2854.9	0.0021947
2864.55	0.00163
2874.19	0.0023369
2883.84	0.0019716
2893.48	0.0023836
2903.12	0.0022817
2912.77	0.0027076
2922.41	0.00358
2932.06	0.00367
2941.7	0.0021852
2951.35	0.002409
2960.99	0.00289
2970.64	0.0027595
2980.28	0.0020551
2989.93	0.00309
2999.57	0.0027247
3009.22	0.002246
3018.86	0.0020742
3028.51	0.00445
3038.15	0.00456
3047.8	0.00346
3057.44	0.0037
3067.09	0.00288
3076.73	0.00386
3086.38	0.00477
3096.02	0.00373
3105.67	0.0027014
3115.31	0.00292
3124.95	0.0028334
3134.6	0.0021085
3144.24	0.0025626
3153.89	0.00289
3163.53	0.0023645
3173.18	0.00192041
3182.82	0.0018139
3192.47	0.0021811
3202.11	0.001645
3211.76	0.001287
3221.4	0.00153
3231.05	0.0025494
3240.69	0.00348
3250.34	0.001424
3259.98	0.0020054
3269.63	0.0022212
3279.27	0.001735
3288.92	0.0022808
3298.56	0.001617
3308.21	0.0027238
3317.85	0.001741
3327.49	0.001377
3337.14	0.001755
3346.78	0.0024758
3356.43	0.0020556
3366.07	0.0020449
3375.72	0.00187926
3385.36	0.0022987
3395.01	0.0020043
3404.65	0.0022696
3414.3	0.001685
3423.94	0.00188053
3433.59	0.00155
3443.23	0.0022511
3452.88	0.001657
3462.52	0.00186699
3472.17	0.001608
3481.81	0.0025089
3491.46	0.001515
3501.1	0.00196884
3510.75	0.001582
3520.39	0.001507
3530.04	0.0018762
3539.68	0.0022404
3549.32	0.000973
3558.97	0.0024552
3568.61	0.002028
3578.26	0.001594
3587.9	0.00167
3597.55	0.0026214
3607.19	0.001456
3616.84	0.0020468
3626.48	0.0018441
3636.13	0.001756
3645.77	0.0023848
3655.42	0.001758
3665.06	0.001738
3674.71	0.001086
3684.35	0.0023317
3694	0.0021595
3703.64	0.001764
3713.29	0.001396
3722.93	0.0017962
3732.58	0.00075
3742.22	0.001139
3751.86	0.001705
3761.51	0.0022084
3771.15	0.0017789
3780.8	0.00189047
3790.44	0.0020422
3800.09	0.001157
3809.73	0.001258
3819.38	0.001629
3829.02	0.001258
3838.67	0.001192
3848.31	0.0021514
3857.96	0.001506
3867.6	0.0007
3877.25	0.001287
3886.89	0.0028322
3896.54	0.0022047
3906.18	0.0019683
3915.83	0.0020323
3925.47	0.0021158
3935.12	0.0024193
3944.76	0.00186368
3954.41	0.0020455
3964.05	0.001638
3973.69	0.00122
3983.34	0.001505
3992.98	0.002146
