Infrared Spectrum: 2,5-Difluorobenzoic acid
Formula: C 7 H 4 F 2 O 2
CAS: 2991-28-8
State: gas
Origin: EPA-IR VAPOR PHASE LIBRARY
1/CM	ABSORBANCE
549.8	0.022038
559.445	0.028298
569.09	0.035598
578.734	0.046368
588.379	0.053588
598.024	0.048358
607.669	0.032688
617.313	0.019038
626.958	0.018518
636.603	0.043818
646.248	0.046988
655.893	0.019678
665.537	0.007488
675.182	0.006068
684.827	0.008338
694.472	0.012458
704.116	0.018488
713.761	0.059268
723.406	0.067848
733.051	0.029648
742.695	0.015918
752.34	0.016208
761.985	0.025468
771.63	0.050768
781.275	0.055678
790.919	0.027798
800.564	0.016318
810.209	0.029028
819.854	0.055348
829.498	0.050128
839.143	0.023308
848.788	0.006808
858.433	0.004868
868.078	0.006168
877.722	0.012978
887.367	0.021528
897.012	0.020788
906.657	0.014088
916.301	0.017088
925.946	0.024958
935.591	0.017138
945.236	0.006168
954.88	0.004008
964.525	0.003008
974.17	0.002968
983.815	0.002368
993.46	0.002408
1003.1	0.003068
1012.75	0.005298
1022.39	0.008338
1032.04	0.016798
1041.68	0.038268
1051.33	0.044408
1060.97	0.030198
1070.62	0.022908
1080.26	0.020808
1089.91	0.019928
1099.55	0.035008
1109.2	0.060088
1118.84	0.058278
1128.49	0.044548
1138.13	0.067578
1147.78	0.122948
1157.42	0.151918
1167.07	0.116098
1176.71	0.073118
1186.36	0.066068
1196	0.094138
1205.64	0.104378
1215.29	0.069178
1224.93	0.035028
1234.58	0.028548
1244.22	0.062848
1253.87	0.094658
1263.51	0.085258
1273.16	0.054718
1282.8	0.036128
1292.45	0.031458
1302.09	0.037138
1311.74	0.049468
1321.38	0.059878
1331.03	0.065808
1340.67	0.066538
1350.32	0.051428
1359.96	0.027798
1369.61	0.016498
1379.25	0.012558
1388.9	0.009548
1398.54	0.010158
1408.18	0.024748
1417.83	0.065518
1427.47	0.118398
1437.12	0.112168
1446.76	0.047138
1456.41	0.024998
1466.05	0.032578
1475.7	0.055218
1485.34	0.127638
1494.99	0.229448
1504.63	0.196198
1514.28	0.071278
1523.92	0.020478
1533.57	0.008858
1543.21	0.006028
1552.86	0.005938
1562.5	0.006688
1572.15	0.007798
1581.79	0.009588
1591.44	0.012478
1601.08	0.014908
1610.73	0.013668
1620.37	0.012058
1630.01	0.010308
1639.66	0.007558
1649.3	0.006418
1658.95	0.005568
1668.59	0.004498
1678.24	0.004758
1687.88	0.005738
1697.53	0.008148
1707.17	0.011778
1716.82	0.018038
1726.46	0.030638
1736.11	0.049718
1745.75	0.113208
1755.4	0.195978
1765.04	0.232788
1774.69	0.213338
1784.33	0.162028
1793.98	0.070888
1803.62	0.042818
1813.27	0.025788
1822.91	0.012888
1832.55	0.007848
1842.2	0.005438
1851.84	0.004318
1861.49	0.004888
1871.13	0.006408
1880.78	0.005738
1890.42	0.003508
1900.07	0.002468
1909.71	0.002128
1919.36	0.002088
1929	0.001908
1938.65	0.001918
1948.29	0.001668
1957.94	0.001638
1967.58	0.001668
1977.23	0.001888
1986.87	0.001968
1996.52	0.001638
2006.16	0.001398
2015.81	0.001618
2025.45	0.001858
2035.1	0.002188
2044.74	0.001918
2054.38	0.001588
2064.03	0.001468
2073.67	0.001968
2083.32	0.002088
2092.96	0.001888
2102.61	0.001368
2112.25	0.0012513
2121.9	0.0011572
2131.54	0.0009556
2141.19	0.0009786
2150.83	0.0010503
2160.48	0.0009399
2170.12	0.0010708
2179.77	0.0012155
2189.41	0.0010665
2199.06	0.0009494
2208.7	0.0011416
2218.35	0.001328
2227.99	0.0012567
2237.64	0.001358
2247.28	0.0011538
2256.92	0.0010052
2266.57	0.0011708
2276.21	0.0012138
2285.86	0.0011467
2295.5	0.0011995
2305.15	0.0012313
2314.79	0.0012877
2324.44	0.0012257
2334.08	0.0011189
2343.73	0.0009463
2353.37	0.000977
2363.02	0.0011651
2372.66	0.001308
2382.31	0.0010882
2391.95	0.001398
2401.6	0.001468
2411.24	0.001668
2420.89	0.001828
2430.53	0.001878
2440.18	0.001598
2449.82	0.001718
2459.47	0.002048
2469.11	0.001898
2478.75	0.001628
2488.4	0.001328
2498.04	0.001528
2507.69	0.001378
2517.33	0.001368
2526.98	0.0012668
2536.62	0.001308
2546.27	0.0009121
2555.91	0.0008416
2565.56	0.0007654
2575.2	0.000853
2584.85	0.0007579
2594.49	0.0007088
2604.14	0.0007588
2613.78	0.0006206
2623.43	0.0006685
2633.07	0.0005454
2642.72	0.0006698
2652.36	0.0004345
2662.01	0.0005138
2671.65	0.0005444
2681.29	0.000632
2690.94	0.0008067
2700.58	0.0005317
2710.23	0.0005595
2719.87	0.0006258
2729.52	0.0006775
2739.16	0.0006838
2748.81	0.0006853
2758.45	0.0007696
2768.1	0.0007844
2777.74	0.0005155
2787.39	0.0007179
2797.03	0.0006146
2806.68	0.0007466
2816.32	0.0008941
2825.97	0.0008326
2835.61	0.0009643
2845.26	0.0008313
2854.9	0.0007832
2864.55	0.0011133
2874.19	0.0011693
2883.84	0.0009798
2893.48	0.000983
2903.12	0.0009774
2912.77	0.0009326
2922.41	0.0009321
2932.06	0.0008634
2941.7	0.0008087
2951.35	0.0005808
2960.99	0.0005152
2970.64	0.0007188
2980.28	0.0007754
2989.93	0.0006352
2999.57	0.0007258
3009.22	0.0006555
3018.86	0.0007436
3028.51	0.0007767
3038.15	0.0012722
3047.8	0.001518
3057.44	0.002118
3067.09	0.002768
3076.73	0.003348
3086.38	0.004658
3096.02	0.004178
3105.67	0.001948
3115.31	0.0010941
3124.95	0.0011263
3134.6	0.0006667
3144.24	0.0006632
3153.89	0.0004206
3163.53	0.0005577
3173.18	0.000293279
3182.82	0.0005707
3192.47	0.0006533
3202.11	0.0007274
3211.76	0.0005025
3221.4	0.0005035
3231.05	0.000157
3240.69	0.0003904
3250.34	0.0003914
3259.98	0.0002424
3269.63	0.000425
3279.27	0.0005129
3288.92	0.0002763
3298.56	0.0002745
3308.21	0.0004289
3317.85	0.0002075
3327.49	0.00028352
3337.14	0.000179
3346.78	0.0004874
3356.43	0.00033106
3366.07	0.0002112
3375.72	0.0005153
3385.36	0.0005942
3395.01	0.0009492
3404.65	0.0007855
3414.3	0.0007099
3423.94	0.0002491
3433.59	0.0002304
3443.23	0.000481
3452.88	0.0005503
3462.52	0.0005905
3472.17	0.0007827
3481.81	0.001408
3491.46	0.001618
3501.1	0.002168
3510.75	0.002028
3520.39	0.002118
3530.04	0.002648
3539.68	0.003808
3549.32	0.005708
3558.97	0.023328
3568.61	0.089228
3578.26	0.103778
3587.9	0.045088
3597.55	0.017778
3607.19	0.012658
3616.84	0.006868
3626.48	0.003018
3636.13	0.001768
3645.77	0.001328
3655.42	0.0008599
3665.06	0.0007299
3674.71	0.0004694
3684.35	0.0006899
3694	0.0007604
3703.64	0.0006741
3713.29	0.0008018
3722.93	0.0005317
3732.58	0.0007115
3742.22	0.0006198
3751.86	0.0004181
3761.51	0.0005566
3771.15	0.00029544
3780.8	0.0005842
3790.44	0.0004988
3800.09	0.0004965
3809.73	0.0007001
3819.38	0.0005762
3829.02	0.00015
3838.67	0.0003907
3848.31	0.0006309
3857.96	0.00031339
3867.6	0.00035065
3877.25	0.00030569
3886.89	0.0004303
3896.54	0.0002456
3906.18	0.0002601
3915.83	0.0006361
3925.47	0.000273
3935.12	0.00034563
3944.76	0.00036591
3954.41	0.0007863
3964.05	0.0007323
3973.69	0.0005346
3983.34	0.0004964
3992.98	0.0005404
