Infrared Spectrum: 2-Chlorodiphenylmethane
Formula: C 13 H 11 Cl
CAS: 29921-41-3
State: gas
Origin: EPA-IR VAPOR PHASE LIBRARY
1/CM	ABSORBANCE
549.8	0.0009318
559.445	0.00377
569.09	0.00566
578.734	0.00194
588.379	0.00159
598.024	0.00305
607.669	0.00602
617.313	0.00552
626.958	0.00265
636.603	0.00179
646.248	0.00164
655.893	0.00239
665.537	0.00566
675.182	0.0132
684.827	0.02224
694.472	0.0279
704.116	0.02507
713.761	0.02263
723.406	0.02535
733.051	0.03935
742.695	0.07819
752.34	0.05191
761.985	0.0127
771.63	0.00463
781.275	0.00292
790.919	0.00254
800.564	0.00284
810.209	0.00274
819.854	0.00198
829.498	0.00226
839.143	0.00197
848.788	0.00145
858.433	0.00179
868.078	0.00201
877.722	0.00164
887.367	0.00204
897.012	0.00204
906.657	0.00214
916.301	0.00232
925.946	0.00251
935.591	0.00314
945.236	0.00251
954.88	0.00139
964.525	0.0010457
974.17	0.0011195
983.815	0.00179
993.46	0.00248
1003.1	0.0032
1012.75	0.00297
1022.39	0.00911
1032.04	0.023
1041.68	0.02912
1051.33	0.02733
1060.97	0.01665
1070.62	0.00845
1080.26	0.00523
1089.91	0.00319
1099.55	0.0029
1109.2	0.00372
1118.84	0.00688
1128.49	0.00914
1138.13	0.00402
1147.78	0.00164
1157.42	0.00225
1167.07	0.00216
1176.71	0.00242
1186.36	0.00331
1196	0.00276
1205.64	0.00332
1215.29	0.00157
1224.93	0.00134
1234.58	0.00154
1244.22	0.00158
1253.87	0.00156
1263.51	0.00168
1273.16	0.00214
1282.8	0.002
1292.45	0.00166
1302.09	0.00166
1311.74	0.00198
1321.38	0.00251
1331.03	0.00228
1340.67	0.00176
1350.32	0.00159
1359.96	0.00153
1369.61	0.00146
1379.25	0.00151
1388.9	0.00166
1398.54	0.00215
1408.18	0.00309
1417.83	0.00435
1427.47	0.00926
1437.12	0.0221
1446.76	0.02754
1456.41	0.01914
1466.05	0.01896
1475.7	0.02289
1485.34	0.02204
1494.99	0.02248
1504.63	0.01034
1514.28	0.00265
1523.92	0.00186
1533.57	0.00191
1543.21	0.00201
1552.86	0.00286
1562.5	0.00524
1572.15	0.0077
1581.79	0.00825
1591.44	0.01135
1601.08	0.01192
1610.73	0.0076
1620.37	0.00292
1630.01	0.00153
1639.66	0.00135
1649.3	0.00133
1658.95	0.00135
1668.59	0.00133
1678.24	0.00158
1687.88	0.0018
1697.53	0.00132
1707.17	0.00125
1716.82	0.00137
1726.46	0.00129
1736.11	0.00124
1745.75	0.00128
1755.4	0.00138
1765.04	0.00145
1774.69	0.00173
1784.33	0.00263
1793.98	0.00404
1803.62	0.00307
1813.27	0.00199
1822.91	0.00188
1832.55	0.00178
1842.2	0.00146
1851.84	0.00141
1861.49	0.00152
1871.13	0.00186
1880.78	0.00195
1890.42	0.00182
1900.07	0.00221
1909.71	0.00276
1919.36	0.00244
1929	0.00269
1938.65	0.00358
1948.29	0.00322
1957.94	0.0019
1967.58	0.0007936
1977.23	0.0005972
1986.87	0.0005863
1996.52	0.0004691
2006.16	0.0004253
2015.81	0.0004868
2025.45	0.0005037
2035.1	0.0004507
2044.74	0.0004415
2054.38	0.0004813
2064.03	0.0004808
2073.67	0.0004814
2083.32	0.0004867
2092.96	0.0004964
2102.61	0.000408
2112.25	0.000455
2121.9	0.0004485
2131.54	0.0004756
2141.19	0.0003973
2150.83	0.0003839
2160.48	0.0004522
2170.12	0.0004823
2179.77	0.000395
2189.41	0.0004333
2199.06	0.0004306
2208.7	0.0004333
2218.35	0.0004698
2227.99	0.0004882
2237.64	0.0005144
2247.28	0.000531
2256.92	0.0005254
2266.57	0.0004718
2276.21	0.0004867
2285.86	0.0005815
2295.5	0.0005441
2305.15	0.0007251
2314.79	0.0010308
2324.44	0.0009404
2334.08	0.0007625
2343.73	0.0007384
2353.37	0.0006372
2363.02	0.0006112
2372.66	0.0005508
2382.31	0.0005262
2391.95	0.000511
2401.6	0.0005422
2411.24	0.0005387
2420.89	0.0005659
2430.53	0.0005518
2440.18	0.000528
2449.82	0.0004207
2459.47	0.000472
2469.11	0.0003912
2478.75	0.0006233
2488.4	0.0004575
2498.04	0.0004777
2507.69	0.0005058
2517.33	0.0005285
2526.98	0.0005929
2536.62	0.0005452
2546.27	0.0005364
2555.91	0.0006689
2565.56	0.0006164
2575.2	0.0004996
2584.85	0.0006894
2594.49	0.0007473
2604.14	0.0007453
2613.78	0.0007199
2623.43	0.0006945
2633.07	0.0006487
2642.72	0.0007387
2652.36	0.0004661
2662.01	0.0004532
2671.65	0.0003141
2681.29	0.0004765
2690.94	0.0003456
2700.58	0.0003611
2710.23	0.0004513
2719.87	0.0004472
2729.52	0.0004701
2739.16	0.0004729
2748.81	0.0005856
2758.45	0.0007376
2768.1	0.0006552
2777.74	0.0006768
2787.39	0.0006673
2797.03	0.0006532
2806.68	0.0006144
2816.32	0.0006388
2825.97	0.0010545
2835.61	0.00141
2845.26	0.00222
2854.9	0.0029
2864.55	0.00291
2874.19	0.00246
2883.84	0.00217
2893.48	0.00261
2903.12	0.00377
2912.77	0.00647
2922.41	0.00992
2932.06	0.0091
2941.7	0.00615
2951.35	0.00425
2960.99	0.00296
2970.64	0.00235
2980.28	0.00218
2989.93	0.00247
2999.57	0.00377
3009.22	0.00715
3018.86	0.01393
3028.51	0.02338
3038.15	0.02403
3047.8	0.0164
3057.44	0.02068
3067.09	0.0404
3076.73	0.0384
3086.38	0.02177
3096.02	0.01339
3105.67	0.00761
3115.31	0.00433
3124.95	0.00246
3134.6	0.00183
3144.24	0.00176
3153.89	0.0011423
3163.53	0.0010587
3173.18	0.0008725
3182.82	0.0005659
3192.47	0.0005152
3202.11	0.0004887
3211.76	0.0002606
3221.4	0.000337
3231.05	0.0004816
3240.69	0.0003717
3250.34	0.0003618
3259.98	0.0003454
3269.63	0.0001079
3279.27	0.0004862
3288.92	0.0003314
3298.56	0.00024585
3308.21	0.00025742
3317.85	0.0003077
3327.49	0.0003311
3337.14	0.00034
3346.78	0.0002435
3356.43	0.00025548
3366.07	0.0004308
3375.72	0.0003746
3385.36	0.000318
3395.01	0.0003759
3404.65	0.0002588
3414.3	0.0001623
3423.94	0.00024529
3433.59	0.0003432
3443.23	0.00023218
3452.88	0.0003682
3462.52	0.00025925
3472.17	0.00028919
3481.81	0.00026854
3491.46	0.00024075
3501.1	0.0001653
3510.75	0.0002971
3520.39	0.0004324
3530.04	0.0001363
3539.68	0.0003139
3549.32	0.00022409
3558.97	0.0002811
3568.61	0.00028319
3578.26	0.00021737
3587.9	0.0003414
3597.55	0.0001211
3607.19	0.00029002
3616.84	0.000411
3626.48	0.0003811
3636.13	0.0006221
3645.77	0.000446
3655.42	0.0003894
3665.06	0.0005208
3674.71	0.0003918
3684.35	0.000603
3694	0.0005137
3703.64	0.0005209
3713.29	0.0004713
3722.93	0.0004103
3732.58	0.0003946
3742.22	0.0003829
3751.86	0.0004555
3761.51	0.0003924
3771.15	0.0004376
3780.8	0.000334
3790.44	0.00024436
3800.09	0.00029454
3809.73	0.0003062
3819.38	0.0005358
3829.02	0.0005527
3838.67	0.0005477
3848.31	0.0005426
3857.96	0.00029491
3867.6	0.000592
3877.25	0.0004341
3886.89	0.000594
3896.54	0.00062
3906.18	0.0007451
3915.83	0.0005729
3925.47	0.000365
3935.12	0.00029
3944.76	0.0004195
3954.41	0.000386
3964.05	0.00024777
3973.69	0.000453
3983.34	0.0004374
3992.98	0.0004243
