Infrared Spectrum: n-Amylcyclohexane
Formula: C 11 H 22
CAS: 29949-27-7
State: gas
Instrument: HP-GC/MS/IRD
Origin: NIST Mass Spectrometry Data Center
1/CM	ABSORBANCE
550	0.0001176
562	0.0001078
574	0.0002254
586	0.0001176
598	8.82e-05
610	0.0001176
622	7.84e-05
634	0
646	5.88e-05
658	3.92e-05
670	5.88e-05
682	5.88e-05
694	0.0001862
706	0.0003136
718	0.0005096
730	0.0005194
742	0.0003626
754	0.0002646
766	0.0002548
778	0.0002156
790	0.0001568
802	5.88e-05
814	0.0001372
826	0.0002254
838	0.0004998
850	0.000294
862	0.0002548
874	0.0004606
886	0.0009016
898	0.0007546
910	0.0003822
922	0.0002058
934	0.0001568
946	0.000196
958	0.0003626
970	0.0003332
982	0.0002156
994	6.86e-05
1006	0.0001666
1018	0.0002156
1030	0.0002744
1042	0.0001666
1054	0.0001372
1066	0.000196
1078	0.0002842
1090	0.0002352
1102	0.0002254
1114	0.0002548
1126	0.0002058
1138	0.000196
1150	0.0001764
1162	0.000196
1174	0.0002156
1186	0.0002744
1198	0.0003332
1210	0.0003822
1222	0.000343
1234	0.0004214
1246	0.000588
1258	0.00098
1270	0.0010486
1282	0.000784
1294	0.0006468
1306	0.0006566
1318	0.0007154
1330	0.0009212
1342	0.0013916
1354	0.0013622
1366	0.001176
1378	0.0012936
1390	0.0011074
1402	0.0007546
1414	0.0008232
1426	0.0011564
1438	0.0029204
1450	0.0063994
1462	0.0061936
1474	0.0032536
1486	0.0013034
1498	0.000637
1510	0.0004116
1522	0.0003136
1534	0.0002058
1546	0.0001764
1558	0.0001274
1570	0.0001372
1582	9.8e-05
1594	9.8e-05
1606	8.82e-05
1618	7.84e-05
1630	6.86e-05
1642	4.9e-05
1654	0.0001078
1666	6.86e-05
1678	6.86e-05
1690	7.84e-05
1702	0.0001078
1714	6.86e-05
1726	6.86e-05
1738	5.88e-05
1750	8.82e-05
1762	6.86e-05
1774	9.8e-05
1786	7.84e-05
1798	6.86e-05
1810	4.9e-05
1822	9.8e-06
1834	2.94e-05
1846	2.94e-05
1858	5.88e-05
1870	3.92e-05
1882	1.96e-05
1894	2.94e-05
1906	5.88e-05
1918	3.92e-05
1930	1.96e-05
1942	2.94e-05
1954	2.94e-05
1966	0
1978	0
1990	2.94e-05
2002	9.8e-06
2014	3.92e-05
2026	5.88e-05
2038	5.88e-05
2050	5.88e-05
2062	4.9e-05
2074	6.86e-05
2086	6.86e-05
2098	9.8e-06
2110	1.96e-05
2122	4.9e-05
2134	3.92e-05
2146	4.9e-05
2158	8.82e-05
2170	7.84e-05
2182	8.82e-05
2194	6.86e-05
2206	4.9e-05
2218	5.88e-05
2230	6.86e-05
2242	5.88e-05
2254	5.88e-05
2266	4.9e-05
2278	4.9e-05
2290	6.86e-05
2302	5.88e-05
2314	2.94e-05
2326	4.9e-05
2338	9.8e-05
2350	0.0001078
2362	8.82e-05
2374	7.84e-05
2386	7.84e-05
2398	5.88e-05
2410	6.86e-05
2422	7.84e-05
2434	4.9e-05
2446	0
2458	3.92e-05
2470	7.84e-05
2482	0.0001176
2494	8.82e-05
2506	5.88e-05
2518	9.8e-05
2530	0.0001862
2542	0.000147
2554	0.0001764
2566	0.0002352
2578	0.0002646
2590	0.000392
2602	0.000441
2614	0.0004802
2626	0.000539
2638	0.0006272
2650	0.0008036
2662	0.0010388
2674	0.0010192
2686	0.000833
2698	0.000735
2710	0.0007056
2722	0.0007154
2734	0.0007546
2746	0.0008428
2758	0.0008526
2770	0.001029
2782	0.0014112
2794	0.0019894
2806	0.0024402
2818	0.0031654
2830	0.0048216
2842	0.0111524
2854	0.0270872
2866	0.0328496
2878	0.0218148
2890	0.0196
2902	0.0270088
2914	0.047775
2926	0.0864752
2938	0.08967
2950	0.0414638
2962	0.0229908
2974	0.0167678
2986	0.0070364
2998	0.0037632
3010	0.0025088
3022	0.001813
3034	0.0013622
3046	0.0010192
3058	0.0008036
3070	0.0006762
3082	0.000637
3094	0.000588
3106	0.0005096
3118	0.0004508
3130	0.0004312
3142	0.0004018
3154	0.0004214
3166	0.0003528
3178	0.0002744
3190	0.0002254
3202	0.0002058
3214	0.0001372
3226	0.0001764
3238	0.0001372
3250	0.0001372
3262	0.0001176
3274	8.82e-05
3286	9.8e-05
3298	9.8e-05
3310	8.82e-05
3322	4.9e-05
3334	0.0001764
3346	0.0001078
3358	8.82e-05
3370	0.0001176
3382	5.88e-05
3394	0.0001176
3406	2.94e-05
3418	4.9e-05
3430	5.88e-05
3442	2.94e-05
3454	4.9e-05
3466	6.86e-05
3478	2.94e-05
3490	7.84e-05
3502	3.92e-05
3514	2.94e-05
3526	4.9e-05
3538	5.88e-05
3550	3.92e-05
3562	4.9e-05
3574	2.94e-05
3586	8.82e-05
3598	7.84e-05
3610	8.82e-05
3622	0.0001274
3634	9.8e-05
3646	0.0001078
3658	0.0001078
3670	0.0001078
3682	0.0001764
3694	0.0001568
3706	0.000147
3718	0.0001568
3730	0.0001568
3742	0.0002058
3754	0.0001274
3766	0.0001862
3778	0.000196
3790	0.0001078
3802	0.0001666
3814	0.0002254
3826	0.0001862
3838	0.0001372
