Infrared Spectrum: Tris(3-chlorophenyl)phosphine
Formula: C 18 H 12 Cl 3 P
CAS: 29949-85-7
State: gas
Origin: EPA-IR VAPOR PHASE LIBRARY
1/CM	ABSORBANCE
549.8	0.004588
559.445	0.002858
569.09	0.0014788
578.734	0.000702
588.379	0.0010471
598.024	0.000937986
607.669	0.00048
617.313	0.000749
626.958	0.0012577
636.603	0.0016824
646.248	0.003218
655.893	0.009558
665.537	0.013038
675.182	0.008608
684.827	0.028168
694.472	0.011598
704.116	0.004468
713.761	0.002108
723.406	0.001958
733.051	0.0016733
742.695	0.0018796
752.34	0.003578
761.985	0.007558
771.63	0.022138
781.275	0.051978
790.919	0.011238
800.564	0.003958
810.209	0.002218
819.854	0.002108
829.498	0.002018
839.143	0.0008461
848.788	0.0015004
858.433	0.001232
868.078	0.002138
877.722	0.003758
887.367	0.006128
897.012	0.003228
906.657	0.002648
916.301	0.0016739
925.946	0.0008961
935.591	0.00098253
945.236	0.0014094
954.88	0.0012701
964.525	0.0013263
974.17	0.0019068
983.815	0.0017581
993.46	0.003328
1003.1	0.002628
1012.75	0.0016206
1022.39	0.000503
1032.04	0.0017744
1041.68	0.0013591
1051.33	0.003588
1060.97	0.006898
1070.62	0.012428
1080.26	0.012928
1089.91	0.020158
1099.55	0.022558
1109.2	0.031788
1118.84	0.036258
1128.49	0.019418
1138.13	0.006608
1147.78	0.0019103
1157.42	0.001137
1167.07	0.003198
1176.71	0.003298
1186.36	0.002848
1196	0.002888
1205.64	0.002658
1215.29	0.004878
1224.93	0.003108
1234.58	0.002308
1244.22	0.002478
1253.87	0.004328
1263.51	0.002298
1273.16	0.0015073
1282.8	0.001529
1292.45	0.003158
1302.09	0.002188
1311.74	0.0015557
1321.38	0.001437
1331.03	0.0018127
1340.67	0.0017471
1350.32	0.0017601
1359.96	0.0015685
1369.61	0.002548
1379.25	0.005838
1388.9	0.015828
1398.54	0.017288
1408.18	0.008538
1417.83	0.005858
1427.47	0.006608
1437.12	0.006058
1446.76	0.005908
1456.41	0.012478
1466.05	0.031218
1475.7	0.008578
1485.34	0.003668
1494.99	0.002918
1504.63	0.002968
1514.28	0.002928
1523.92	0.003138
1533.57	0.003778
1543.21	0.007928
1552.86	0.018308
1562.5	0.029018
1572.15	0.031128
1581.79	0.016878
1591.44	0.004758
1601.08	0.002758
1610.73	0.0015324
1620.37	0.0014965
1630.01	0.0011276
1639.66	0.0010436
1649.3	0.001254
1658.95	0.00102964
1668.59	0.0016248
1678.24	0.002638
1687.88	0.002628
1697.53	0.0012551
1707.17	0.0010493
1716.82	0.0012069
1726.46	0.001163
1736.11	0.0012102
1745.75	0.0016849
1755.4	0.0018633
1765.04	0.002288
1774.69	0.002138
1784.33	0.0018973
1793.98	0.0018208
1803.62	0.0019273
1813.27	0.0017607
1822.91	0.0011598
1832.55	0.0011713
1842.2	0.0010973
1851.84	0.00161
1861.49	0.002138
1871.13	0.002908
1880.78	0.001948
1890.42	0.0012072
1900.07	0.00097717
1909.71	0.0009031
1919.36	0.00102039
1929	0.0016726
1938.65	0.002218
1948.29	0.00155
1957.94	0.0010643
1967.58	0.0008602
1977.23	0.000798
1986.87	0.000739
1996.52	0.000576
2006.16	0.000769
2015.81	0.00077
2025.45	0.00095539
2035.1	0.000765
2044.74	0.00066
2054.38	0.000613
2064.03	0.000793
2073.67	0.000696
2083.32	0.00098608
2092.96	0.0009195
2102.61	0.000658
2112.25	0.000756
2121.9	0.000723
2131.54	0.000742
2141.19	0.000699
2150.83	0.000668
2160.48	0.000756
2170.12	0.000458
2179.77	0.000709
2189.41	0.000832
2199.06	0.0009088
2208.7	0.0008578
2218.35	0.000725
2227.99	0.000628
2237.64	0.00095568
2247.28	0.000555
2256.92	0.000831
2266.57	0.000742
2276.21	0.0008492
2285.86	0.000593
2295.5	0.000661
2305.15	0.000735
2314.79	0.00062
2324.44	0.000603
2334.08	0.00097642
2343.73	0.00101736
2353.37	0.000756
2363.02	0.0011168
2372.66	0.00097625
2382.31	0.0011613
2391.95	0.00096888
2401.6	0.0008807
2411.24	0.000637
2420.89	0.00095254
2430.53	0.000514
2440.18	0.000644
2449.82	0.000472
2459.47	0.000808
2469.11	0.000767
2478.75	0.0009067
2488.4	0.0010569
2498.04	0.000591
2507.69	0.0010798
2517.33	0.000776
2526.98	0.00100211
2536.62	0.0008843
2546.27	0.000769
2555.91	0.0008
2565.56	0.00068
2575.2	0.0009037
2584.85	0.000645
2594.49	0.000731
2604.14	0.000554
2613.78	0.000715
2623.43	0.000744
2633.07	0.0008986
2642.72	0.000828
2652.36	0.0011987
2662.01	0.000828
2671.65	0.0009021
2681.29	0.00100207
2690.94	0.0008625
2700.58	0.00054
2710.23	0.000462
2719.87	0.0008414
2729.52	0.000658
2739.16	0.000836
2748.81	0.000686
2758.45	0.000689
2768.1	0.0008921
2777.74	0.000746
2787.39	0.000488
2797.03	0.0008455
2806.68	0.000742
2816.32	0.000552
2825.97	0.001124
2835.61	0.000645
2845.26	0.00098474
2854.9	0.000328
2864.55	0.0008787
2874.19	7.5e-05
2883.84	0.00093368
2893.48	0.000727
2903.12	0.000649
2912.77	0.0010625
2922.41	0.0013048
2932.06	0.000506
2941.7	0.000724
2951.35	0.00057
2960.99	0.000537
2970.64	0.000818
2980.28	0.000785
2989.93	0.0012305
2999.57	0.0013295
3009.22	0.0010929
3018.86	0.0014515
3028.51	0.001337
3038.15	0.0016813
3047.8	0.004418
3057.44	0.007188
3067.09	0.008738
3076.73	0.008218
3086.38	0.004538
3096.02	0.002088
3105.67	0.0012496
3115.31	0.0017537
3124.95	0.00095245
3134.6	0.0014583
3144.24	0.0012334
3153.89	0.0010483
3163.53	0.0008632
3173.18	0.000832
3182.82	0.000396
3192.47	0.0010381
3202.11	0.000513
3211.76	0.000181
3221.4	0.000497
3231.05	0.000473
3240.69	0.000508
3250.34	0.00039
3259.98	0.000355
3269.63	0.00029
3279.27	0.000733
3288.92	0.000562
3298.56	0.0008904
3308.21	0.000645
3317.85	0.000667
3327.49	0.00082
3337.14	0.0008907
3346.78	0.000279
3356.43	0.000699
3366.07	0.000837
3375.72	0.000214
3385.36	0.000739
3395.01	8.6e-05
3404.65	0.00044
3414.3	0.000217
3423.94	0.000803
3433.59	0.0009612
3443.23	0.000241
3452.88	0.0010899
3462.52	0.000308
3472.17	0.0009014
3481.81	0.0008434
3491.46	0.000269
3501.1	0.000637
3510.75	0.0008579
3520.39	3.5e-05
3530.04	0.000584
3539.68	0.0008735
3549.32	0.000183
3558.97	0.000332
3568.61	0.0010779
3578.26	0.0008656
3587.9	0.000277
3597.55	0.000711
3607.19	0.000532
3616.84	0.000438
3626.48	0.000767
3636.13	0.000648
3645.77	0.000161
3655.42	0.000231
3665.06	0.000658
3674.71	0.0008923
3684.35	0.000406
3694	0.000622
3703.64	0.000506
3713.29	0.000581
3722.93	0.000664
3732.58	0.00102727
3742.22	0.000798
3751.86	0.00035
3761.51	0.000413
3771.15	0.000291
3780.8	0.000378
3790.44	0.000449
3800.09	0.000764
3809.73	0.000276
3819.38	0.000641
3829.02	0.000664
3838.67	0.000499
3848.31	0.000468
3857.96	0.0010489
3867.6	0.0014015
3877.25	0.000679
3886.89	0.0008753
3896.54	0.00078
3906.18	0.000756
3915.83	0.000561
3925.47	0.00095039
3935.12	0.00078
3944.76	0.0012594
3954.41	0.00099415
3964.05	0.000731
3973.69	0.00077
3983.34	0.000355
3992.98	0.000451
