Infrared Spectrum: 2-Ethoxy-2-cyclohexenone
Formula: C 8 H 12 O 2
CAS: 29941-82-0
State: gas
Origin: EPA-IR VAPOR PHASE LIBRARY
1/CM	ABSORBANCE
549.8	0.011996
559.445	0.008536
569.09	0.004856
578.734	0.002976
588.379	0.002566
598.024	0.002776
607.669	0.003096
617.313	0.003706
626.958	0.003306
636.603	0.003076
646.248	0.002776
655.893	0.002996
665.537	0.004436
675.182	0.006356
684.827	0.007036
694.472	0.007466
704.116	0.008346
713.761	0.008096
723.406	0.006276
733.051	0.003816
742.695	0.002006
752.34	0.001766
761.985	0.001946
771.63	0.002276
781.275	0.002946
790.919	0.005786
800.564	0.009376
810.209	0.009336
819.854	0.007976
829.498	0.007376
839.143	0.008476
848.788	0.011596
858.433	0.013006
868.078	0.013796
877.722	0.019296
887.367	0.021936
897.012	0.019746
906.657	0.022886
916.301	0.034746
925.946	0.036836
935.591	0.024366
945.236	0.013196
954.88	0.008326
964.525	0.011326
974.17	0.016666
983.815	0.016756
993.46	0.011516
1003.1	0.012686
1012.75	0.021696
1022.39	0.039876
1032.04	0.052356
1041.68	0.048156
1051.33	0.033796
1060.97	0.021816
1070.62	0.022246
1080.26	0.028376
1089.91	0.045776
1099.55	0.089296
1109.2	0.124716
1118.84	0.115826
1128.49	0.089706
1138.13	0.100876
1147.78	0.130996
1157.42	0.108446
1167.07	0.067966
1176.71	0.107566
1186.36	0.189126
1196	0.161276
1205.64	0.055536
1215.29	0.023726
1224.93	0.023846
1234.58	0.045126
1244.22	0.083446
1253.87	0.092756
1263.51	0.059226
1273.16	0.027556
1282.8	0.019086
1292.45	0.018236
1302.09	0.017586
1311.74	0.020096
1321.38	0.028426
1331.03	0.041786
1340.67	0.050936
1350.32	0.045686
1359.96	0.034206
1369.61	0.029866
1379.25	0.029436
1388.9	0.029956
1398.54	0.028236
1408.18	0.021976
1417.83	0.022546
1427.47	0.024366
1437.12	0.022726
1446.76	0.023736
1456.41	0.022456
1466.05	0.017536
1475.7	0.013076
1485.34	0.010636
1494.99	0.007176
1504.63	0.005156
1514.28	0.004176
1523.92	0.003766
1533.57	0.003886
1543.21	0.003746
1552.86	0.003746
1562.5	0.003926
1572.15	0.004486
1581.79	0.005576
1591.44	0.008616
1601.08	0.015036
1610.73	0.034526
1620.37	0.080836
1630.01	0.095966
1639.66	0.052086
1649.3	0.019336
1658.95	0.015996
1668.59	0.019486
1678.24	0.032096
1687.88	0.078406
1697.53	0.187266
1707.17	0.260986
1716.82	0.212276
1726.46	0.116106
1736.11	0.044666
1745.75	0.019846
1755.4	0.012186
1765.04	0.009506
1774.69	0.008206
1784.33	0.007166
1793.98	0.005646
1803.62	0.004296
1813.27	0.003556
1822.91	0.003156
1832.55	0.002886
1842.2	0.002856
1851.84	0.003086
1861.49	0.003106
1871.13	0.003236
1880.78	0.003296
1890.42	0.003116
1900.07	0.002686
1909.71	0.002446
1919.36	0.002536
1929	0.002546
1938.65	0.002526
1948.29	0.002396
1957.94	0.002406
1967.58	0.002286
1977.23	0.002166
1986.87	0.002056
1996.52	0.001836
2006.16	0.001916
2015.81	0.002056
2025.45	0.002066
2035.1	0.002146
2044.74	0.002296
2054.38	0.001876
2064.03	0.001636
2073.67	0.001566
2083.32	0.001386
2092.96	0.001546
2102.61	0.001736
2112.25	0.001676
2121.9	0.001456
2131.54	0.001266
2141.19	0.001121
2150.83	0.0010861
2160.48	0.0011315
2170.12	0.0011158
2179.77	0.001176
2189.41	0.001196
2199.06	0.001286
2208.7	0.001386
2218.35	0.001616
2227.99	0.001386
2237.64	0.0010571
2247.28	0.0010892
2256.92	0.001246
2266.57	0.001156
2276.21	0.001386
2285.86	0.001506
2295.5	0.001486
2305.15	0.001536
2314.79	0.001586
2324.44	0.001476
2334.08	0.001336
2343.73	0.001356
2353.37	0.001426
2363.02	0.001566
2372.66	0.001776
2382.31	0.001686
2391.95	0.001376
2401.6	0.001616
2411.24	0.001856
2420.89	0.002146
2430.53	0.002346
2440.18	0.002326
2449.82	0.001856
2459.47	0.001556
2469.11	0.001486
2478.75	0.001686
2488.4	0.001626
2498.04	0.001746
2507.69	0.001556
2517.33	0.001396
2526.98	0.001456
2536.62	0.0010939
2546.27	0.0009914
2555.91	0.0010452
2565.56	0.0010596
2575.2	0.001143
2584.85	0.0009997
2594.49	0.001176
2604.14	0.001206
2613.78	0.001276
2623.43	0.0011134
2633.07	0.001416
2642.72	0.001466
2652.36	0.002096
2662.01	0.002736
2671.65	0.003096
2681.29	0.002766
2690.94	0.002306
2700.58	0.002106
2710.23	0.002006
2719.87	0.002256
2729.52	0.002616
2739.16	0.002946
2748.81	0.003316
2758.45	0.003636
2768.1	0.004366
2777.74	0.005156
2787.39	0.005536
2797.03	0.005906
2806.68	0.006966
2816.32	0.008816
2825.97	0.013176
2835.61	0.023976
2845.26	0.040026
2854.9	0.043126
2864.55	0.042636
2874.19	0.055996
2883.84	0.062756
2893.48	0.061076
2903.12	0.059146
2912.77	0.061816
2922.41	0.078996
2932.06	0.110126
2941.7	0.149406
2951.35	0.145986
2960.99	0.103066
2970.64	0.073826
2980.28	0.073436
2989.93	0.064136
2999.57	0.043146
3009.22	0.025606
3018.86	0.018906
3028.51	0.020546
3038.15	0.021486
3047.8	0.018686
3057.44	0.012046
3067.09	0.007306
3076.73	0.004406
3086.38	0.003386
3096.02	0.002866
3105.67	0.002516
3115.31	0.002536
3124.95	0.002236
3134.6	0.002156
3144.24	0.002146
3153.89	0.001946
3163.53	0.001736
3173.18	0.001666
3182.82	0.001436
3192.47	0.001256
3202.11	0.001426
3211.76	0.001466
3221.4	0.001616
3231.05	0.001756
3240.69	0.0011427
3250.34	0.0010475
3259.98	0.0007214
3269.63	0.0004287
3279.27	0.0006585
3288.92	0.000513
3298.56	0.0008124
3308.21	0.0008052
3317.85	0.000902
3327.49	0.0009582
3337.14	0.000894
3346.78	0.001286
3356.43	0.001426
3366.07	0.001696
3375.72	0.002716
3385.36	0.003656
3395.01	0.003956
3404.65	0.003646
3414.3	0.003086
3423.94	0.002396
3433.59	0.001656
3443.23	0.0008923
3452.88	0.000739
3462.52	0.0004581
3472.17	0.0003368
3481.81	0.0003127
3491.46	0.0003853
3501.1	0.0003646
3510.75	0.0004063
3520.39	0.0002519
3530.04	0.00020024
3539.68	0.00021027
3549.32	0.0004329
3558.97	0.0005243
3568.61	0.00021287
3578.26	0.00019972
3587.9	0.0003039
3597.55	0.0004291
3607.19	0.0003066
3616.84	0.00021425
3626.48	0.0001953
3636.13	0.0001237
3645.77	0.00020831
3655.42	0.000251
3665.06	0.0004591
3674.71	0.0003641
3684.35	0.0002469
3694	8.25e-05
3703.64	0.00019293
3713.29	0.0003851
3722.93	0.0003285
3732.58	0.0004615
3742.22	0.0005267
3751.86	0.0005065
3761.51	0.0002472
3771.15	0.0006255
3780.8	0.0007382
3790.44	0.0007676
3800.09	0.0004805
3809.73	0.0006751
3819.38	0.0004792
3829.02	0.000148823
3838.67	0.0006726
3848.31	0.0006369
3857.96	0.0005783
3867.6	0.0003533
3877.25	0.000312
3886.89	0.0004919
3896.54	0.0004235
3906.18	0.0004743
3915.83	0.0004676
3925.47	0.0008251
3935.12	0.0006693
3944.76	0.0003555
3954.41	0.0005337
3964.05	0.000571
3973.69	0.0009532
3983.34	0.0008542
3992.98	0.0008797
