Infrared Spectrum: Phenyltrimethoxysilane
Formula: C9 H14 O3 Si
CAS: 2996-92-1
State: SOLUTION (5% CCl4 FOR 3800-1300, 2% CS2 FOR 1300-600, AND 5% CCl4 FOR 600-240) VS SOLVENT
Boiling point: 120 C AT 30 mmHg
Class: COBLENTZ III
Instrument: PERKIN-ELMER 521 (GRATING)
Instrument parameters: FILTERS AT 3150, 2500, 2000, 1150, 700, 410. GRATING CHANGES: 2000, 630
Path length: 0.011 CM, 0.011 CM, AND 0.020 CM
Resolution: 2
Origin: DOW CORNING CORP.
1/CM	TRANSMITTANCE
241	0.7598
250	0.7564
259	0.7437
268	0.7396
277	0.7383
286	0.7497
295	0.7904
304	0.7923
313	0.79
322	0.7769
331	0.7261
340	0.6701
349	0.6157
358	0.5981
367	0.6126
376	0.6201
385	0.6247
394	0.6522
403	0.6846
412	0.7161
421	0.7246
430	0.6974
439	0.652
448	0.6103
457	0.5541
466	0.43
475	0.175
484	0.0989
493	0.2456
502	0.4559
511	0.646
520	0.6879
529	0.7324
538	0.736
547	0.7362
556	0.7311
565	0.7283
574	0.7174
583	0.709
592	0.6973
601	0.9206
610	0.9291
619	0.9267
628	0.8544
637	0.8287
646	0.7595
655	0.7885
664	0.8286
673	0.8211
682	0.8006
691	0.6139
700	0.754
709	0.8246
718	0.8128
727	0.6915
736	0.5089
745	0.3081
754	0.7866
763	0.8411
772	0.8341
781	0.8008
790	0.7313
799	0.493
808	0.3999
817	0.403
826	0.5803
835	0.8131
844	0.8484
853	0.8588
862	0.862
871	0.8618
880	0.86
889	0.8575
898	0.8559
907	0.8548
916	0.8547
925	0.8569
934	0.8582
943	0.8561
952	0.8522
961	0.8532
970	0.8527
979	0.8508
988	0.8404
997	0.8395
1006	0.8322
1015	0.8218
1024	0.8056
1033	0.793
1042	0.7564
1051	0.7077
1060	0.5639
1069	0.3986
1078	0.1882
1087	0.1101
1096	0.179
1105	0.3085
1114	0.4522
1123	0.3115
1132	0.5699
1141	0.6827
1150	0.6955
1159	0.6897
1168	0.6522
1177	0.5443
1186	0.4748
1195	0.5488
1204	0.7145
1213	0.7731
1222	0.8141
1231	0.8276
1240	0.8405
1249	0.8527
1258	0.8651
1267	0.8773
1276	0.8784
1285	0.878
1294	0.8692
1303	0.8749
1312	0.8778
1321	0.8862
1330	0.9007
1339	0.8988
1348	0.8929
1357	0.8848
1366	0.8785
1375	0.8757
1384	0.8733
1393	0.8703
1402	0.867
1411	0.8452
1420	0.7576
1429	0.8084
1438	0.8044
1447	0.7403
1456	0.7104
1465	0.7298
1474	0.7877
1483	0.7961
1492	0.8618
1501	0.8735
1510	0.8873
1519	0.8886
1528	0.8899
1537	0.8905
1546	0.8896
1555	0.8882
1564	0.8863
1573	0.8773
1582	0.8545
1591	0.7053
1600	0.8902
1609	0.8923
1618	0.898
1627	0.9036
1636	0.9025
1645	0.8966
1654	0.8939
1663	0.9056
1672	0.9114
1681	0.9156
1690	0.9166
1699	0.9158
1708	0.915
1717	0.9127
1726	0.9077
1735	0.9038
1744	0.9037
1753	0.9061
1762	0.9034
1771	0.9036
1780	0.9109
1789	0.9137
1798	0.9131
1807	0.9041
1816	0.8874
1825	0.889
1834	0.8953
1843	0.9007
1852	0.9025
1861	0.9017
1870	0.8953
1879	0.8833
1888	0.8661
1897	0.8647
1906	0.8622
1915	0.8691
1924	0.8808
1933	0.8927
1942	0.8933
1951	0.8862
1960	0.8823
1969	0.8892
1978	0.8832
1987	0.9174
1996	0.93
2005	0.9334
2014	0.9345
2023	0.9362
2032	0.9385
2041	0.9398
2050	0.9409
2059	0.9398
2068	0.9375
2077	0.9377
2086	0.9363
2095	0.9357
2104	0.935
2113	0.9339
2122	0.933
2131	0.9323
2140	0.9305
2149	0.9285
2158	0.9292
2167	0.9304
2176	0.9324
2185	0.9334
2194	0.9346
2203	0.9356
2212	0.9362
2221	0.9363
2230	0.9357
2239	0.9357
2248	0.9363
2257	0.9368
2266	0.9379
2275	0.9381
2284	0.9367
2293	0.9371
2302	0.9389
2311	0.9406
2320	0.9416
2329	0.9418
2338	0.9421
2347	0.9425
2356	0.9423
2365	0.9411
2374	0.9392
2383	0.9378
2392	0.9368
2401	0.936
2410	0.9359
2419	0.9358
2428	0.9357
2437	0.9355
2446	0.9342
2455	0.9329
2464	0.9319
2473	0.9316
2482	0.932
2491	0.9318
2500	0.9315
2509	0.9312
2518	0.9306
2527	0.9297
2536	0.9286
2545	0.9263
2554	0.9233
2563	0.9214
2572	0.9204
2581	0.9198
2590	0.9191
2599	0.9178
2608	0.9169
2617	0.9163
2626	0.9167
2635	0.918
2644	0.9201
2653	0.9215
2662	0.9203
2671	0.9195
2680	0.9218
2689	0.9207
2698	0.9186
2707	0.9152
2716	0.9133
2725	0.915
2734	0.9156
2743	0.9146
2752	0.9124
2761	0.9093
2770	0.9058
2779	0.902
2788	0.8961
2797	0.885
2806	0.8712
2815	0.8445
2824	0.7563
2833	0.603
2842	0.2785
2851	0.6699
2860	0.7501
2869	0.7821
2878	0.7757
2887	0.7518
2896	0.712
2905	0.6489
2914	0.5785
2923	0.5588
2932	0.5332
2941	0.3664
2950	0.2352
2959	0.3871
2968	0.4178
2977	0.4383
2986	0.4946
2995	0.5967
3004	0.6245
3013	0.6665
3022	0.6929
3031	0.7055
3040	0.7244
3049	0.6961
3058	0.6732
3067	0.7332
3076	0.6576
3085	0.7987
3094	0.8373
3103	0.8565
3112	0.8822
3121	0.8949
3130	0.8979
3139	0.8923
3148	0.89
3157	0.9055
3166	0.9077
3175	0.9094
3184	0.9103
3193	0.9104
3202	0.9103
3211	0.9102
3220	0.9102
3229	0.9101
3238	0.9102
3247	0.9103
3256	0.9103
3265	0.9103
3274	0.9103
3283	0.9103
3292	0.9103
3301	0.9102
3310	0.9098
3319	0.9093
3328	0.9089
3337	0.9084
3346	0.9082
3355	0.9079
3364	0.9078
3373	0.9075
3382	0.9077
3391	0.9079
3400	0.9083
3409	0.9086
3418	0.909
3427	0.9094
3436	0.9097
3445	0.9099
3454	0.9102
3463	0.9104
3472	0.9107
3481	0.911
3490	0.9115
3499	0.9118
3508	0.9123
3517	0.9127
3526	0.9132
3535	0.9135
3544	0.9143
3553	0.915
3562	0.9157
3571	0.9158
3580	0.9159
3589	0.9157
3598	0.9154
3607	0.9153
3616	0.9169
3625	0.918
3634	0.9176
3643	0.917
3652	0.9167
3661	0.9166
3670	0.9171
3679	0.9174
3688	0.9165
3697	0.9144
3706	0.9151
3715	0.9156
3724	0.9159
3733	0.9162
3742	0.9173
3751	0.9181
3760	0.918
3769	0.917
3778	0.916
3787	0.9158
3796	0.9156
3805	0.9146
3814	0.9135
