Infrared Spectrum: 2-Butenedioic acid (E), dioctyl ester
Formula: C20 H36 O4
CAS: 2997-85-5
State: SOLUTION (10% CCl4 FOR 2.7-7.5, 10% CS2 FOR 7.5-26 MICRON) VS SOLVENT
Class: COBLENTZ III
Instrument: DOW KBr FOREPRISM-GRATING
Instrument parameters: BLAZED AT 3.5, 12.0, 20.0 MICRON AND CHANGED AT 5.0, 7.5, 14.9 MICRON
Sampling: TRANSMISSION
Path length: 0.011 CM, 0.011 CM
Resolution: 2
Origin: DOW CHEMICAL COMPANY
1/CM	TRANSMITTANCE
3796	0.8628
3787	0.8625
3778	0.8628
3769	0.8632
3760	0.8633
3751	0.8634
3742	0.8635
3733	0.8639
3724	0.8644
3715	0.8647
3706	0.8652
3697	0.8657
3688	0.8662
3679	0.8666
3670	0.8668
3661	0.8671
3652	0.8675
3643	0.8685
3634	0.8696
3625	0.869
3616	0.8654
3607	0.8647
3598	0.8662
3589	0.8678
3580	0.8702
3571	0.8764
3562	0.8777
3553	0.8783
3544	0.8784
3535	0.8784
3526	0.879
3517	0.8797
3508	0.8825
3499	0.885
3490	0.8874
3481	0.8882
3472	0.8889
3463	0.8889
3454	0.8884
3445	0.8868
3436	0.8825
3427	0.872
3418	0.8586
3409	0.8633
3400	0.875
3391	0.8827
3382	0.8871
3373	0.8889
3364	0.8899
3355	0.89
3346	0.8901
3337	0.89
3328	0.8898
3319	0.8896
3310	0.8895
3301	0.8892
3292	0.8889
3283	0.8885
3274	0.8883
3265	0.8877
3256	0.8873
3247	0.8867
3238	0.8858
3229	0.8845
3220	0.883
3211	0.8816
3202	0.8807
3193	0.8795
3184	0.8773
3175	0.8752
3166	0.8737
3157	0.8734
3148	0.8732
3139	0.8731
3130	0.8727
3121	0.8721
3112	0.8703
3103	0.8671
3094	0.8592
3085	0.8525
3076	0.8471
3067	0.8425
3058	0.8398
3049	0.8367
3040	0.8318
3031	0.8237
3022	0.8103
3013	0.7849
3004	0.6958
2995	0.4419
2986	0.2872
2977	0.1933
2968	0.1481
2959	0.0742
2950	0.0794
2941	0.0792
2932	0.034
2923	0.0278
2914	0.0872
2905	0.2074
2896	0.2946
2887	0.3814
2878	0.4037
2869	0.2113
2860	0.1566
2851	0.2233
2842	0.513
2833	0.6075
2824	0.6851
2815	0.7351
2806	0.7642
2797	0.7854
2788	0.8039
2779	0.8198
2770	0.8321
2761	0.8407
2752	0.8454
2743	0.8454
2734	0.8378
2725	0.8315
2716	0.8318
2707	0.8357
2698	0.8404
2689	0.8441
2680	0.8468
2671	0.8462
2662	0.8458
2653	0.8475
2644	0.85
2635	0.8518
2626	0.8536
2617	0.8553
2608	0.8571
2599	0.8588
2590	0.8606
2581	0.8624
2572	0.8641
2563	0.8659
2554	0.8681
2545	0.8701
2536	0.8718
2527	0.8728
2518	0.874
2509	0.874
2500	0.8742
2491	0.8754
2482	0.8767
2473	0.878
2464	0.8795
2455	0.8809
2446	0.882
2437	0.8828
2428	0.8835
2419	0.8836
2410	0.8838
2401	0.884
2392	0.8831
2383	0.8816
2374	0.8804
2365	0.8802
2356	0.8801
2347	0.8801
2338	0.88
2329	0.8797
2320	0.8792
2311	0.8781
2302	0.8761
2293	0.8744
2284	0.8733
2275	0.8746
2266	0.8766
2257	0.8785
2248	0.8804
2239	0.8823
2230	0.8842
2221	0.8852
2212	0.8863
2203	0.8868
2194	0.886
2185	0.8859
2176	0.8947
2167	0.8942
2158	0.8906
2149	0.891
2140	0.8914
2131	0.8918
2122	0.8921
2113	0.8921
2104	0.8921
2095	0.8921
2086	0.892
2077	0.8916
2068	0.891
2059	0.8904
2050	0.8899
2041	0.8893
2032	0.8887
2023	0.8885
2014	0.8884
2005	0.8882
1996	0.8878
1987	0.8871
1978	0.8865
1969	0.8862
1960	0.8865
1951	0.8866
1942	0.8864
1933	0.8863
1924	0.8862
1915	0.8857
1906	0.8847
1897	0.8831
1888	0.881
1879	0.8784
1870	0.8727
1861	0.8701
1852	0.87
1843	0.8695
1834	0.8674
1825	0.8666
1816	0.8628
1807	0.8562
1798	0.8495
1789	0.8433
1780	0.8304
1771	0.8133
1762	0.7848
1753	0.7245
1744	0.4799
1735	0.1985
1726	0.0246
1717	0.0075
1708	0.0582
1699	0.4005
1690	0.6033
1681	0.648
1672	0.7156
1663	0.7397
1654	0.7411
1645	0.5203
1636	0.6814
1627	0.7788
1618	0.821
1609	0.842
1600	0.8534
1591	0.859
1582	0.8618
1573	0.8636
1564	0.8651
1555	0.8657
1546	0.8656
1537	0.8649
1528	0.8606
1519	0.8549
1510	0.8499
1501	0.8424
1492	0.8225
1483	0.7921
1474	0.7239
1465	0.3232
1456	0.3492
1447	0.4793
1438	0.6408
1429	0.7039
1420	0.7296
1411	0.7224
1402	0.5934
1393	0.6148
1384	0.4006
1375	0.4473
1366	0.5014
1357	0.3692
1348	0.4672
1339	0.525
1330	0.539
1321	0.477
1312	0.3084
1303	0.0932
1294	0.0279
1285	0.0645
1276	0.1733
1267	0.1148
1258	0.0672
1249	0.1585
1240	0.3816
1231	0.4396
1222	0.321
1213	0.3185
1204	0.3725
1195	0.441
1186	0.4521
1177	0.1457
1168	0.1865
1159	0.0926
1150	0.1926
1141	0.3475
1132	0.3859
1123	0.1844
1114	0.1604
1105	0.4412
1096	0.66
1087	0.6905
1078	0.539
1069	0.5506
1060	0.5262
1051	0.5119
1042	0.4956
1033	0.4567
1024	0.47
1015	0.5927
1006	0.5609
997	0.5566
988	0.436
979	0.1476
970	0.3724
961	0.6187
952	0.7426
943	0.7968
934	0.8018
925	0.7875
916	0.7874
907	0.7749
898	0.7757
889	0.7778
880	0.7551
871	0.7749
862	0.7868
853	0.7683
844	0.7248
835	0.6983
826	0.7604
817	0.8021
808	0.8237
799	0.8128
790	0.8107
781	0.7524
772	0.6608
763	0.7705
754	0.8205
745	0.8418
736	0.8467
727	0.7972
718	0.7472
709	0.8552
700	0.8843
691	0.894
682	0.8867
673	0.8784
664	0.8121
655	0.8103
646	0.809
637	0.8104
628	0.8155
619	0.8209
610	0.8238
601	0.8262
592	0.8283
583	0.8301
574	0.8314
565	0.8315
556	0.8316
547	0.8275
538	0.8223
529	0.8038
520	0.7983
511	0.801
502	0.7975
493	0.7922
484	0.7912
475	0.7918
466	0.7918
457	0.7856
448	0.7803
439	0.7787
430	0.7786
421	0.7792
412	0.7815
403	0.7854
394	0.7878
