Infrared Spectrum: Diallyl adipate
Formula: C12 H18 O4
CAS: 2998-04-1
State: LIQUID (NEAT)
Class: COBLENTZ III
Instrument: DOW KBr FOREPRISM-GRATING
Instrument parameters: BLAZED AT 3.5, 12.0, 20.0 MICRON AND CHANGED AT 5.0, 7.5, 14.9 MICRON
Sampling: TRANSMISSION
Path length: CAPILLARY
Resolution: 2
Origin: DOW CHEMICAL COMPANY
1/CM	TRANSMITTANCE
3784	0.8621
3775	0.8615
3766	0.8608
3757	0.861
3748	0.861
3739	0.8609
3730	0.8609
3721	0.8615
3712	0.8623
3703	0.8621
3694	0.8618
3685	0.8614
3676	0.8611
3667	0.8608
3658	0.8605
3649	0.8601
3640	0.8597
3631	0.8593
3622	0.8591
3613	0.8588
3604	0.8585
3595	0.8577
3586	0.8568
3577	0.8539
3568	0.8509
3559	0.8478
3550	0.8446
3541	0.8413
3532	0.8381
3523	0.8375
3514	0.8373
3505	0.8373
3496	0.8374
3487	0.8375
3478	0.8378
3469	0.8377
3460	0.8338
3451	0.8283
3442	0.8246
3433	0.8274
3424	0.8318
3415	0.836
3406	0.8389
3397	0.8409
3388	0.8411
3379	0.8411
3370	0.8409
3361	0.8404
3352	0.84
3343	0.8393
3334	0.8388
3325	0.8382
3316	0.8373
3307	0.8363
3298	0.8356
3289	0.835
3280	0.8344
3271	0.8338
3262	0.8333
3253	0.8327
3244	0.8321
3235	0.8325
3226	0.8346
3217	0.8363
3208	0.8373
3199	0.838
3190	0.8383
3181	0.8385
3172	0.8387
3163	0.8388
3154	0.8388
3145	0.8386
3136	0.8381
3127	0.8367
3118	0.8354
3109	0.8337
3100	0.8264
3091	0.8034
3082	0.7882
3073	0.785
3064	0.7984
3055	0.8133
3046	0.8207
3037	0.8214
3028	0.816
3019	0.7965
3010	0.7899
3001	0.7871
2992	0.7837
2983	0.7298
2974	0.7015
2965	0.6636
2956	0.5777
2947	0.524
2938	0.5208
2929	0.539
2920	0.5782
2911	0.6285
2902	0.6708
2893	0.7028
2884	0.7154
2875	0.7188
2866	0.7107
2857	0.7117
2848	0.7381
2839	0.7849
2830	0.8114
2821	0.8263
2812	0.8348
2803	0.841
2794	0.846
2785	0.8498
2776	0.8507
2767	0.8514
2758	0.8521
2749	0.8527
2740	0.8534
2731	0.8541
2722	0.8549
2713	0.8555
2704	0.8563
2695	0.8568
2686	0.8573
2677	0.8577
2668	0.8582
2659	0.8587
2650	0.859
2641	0.8591
2632	0.8594
2623	0.8596
2614	0.8598
2605	0.86
2596	0.8604
2587	0.8607
2578	0.8611
2569	0.8615
2560	0.8618
2551	0.8615
2542	0.8613
2533	0.8611
2524	0.8613
2515	0.8615
2506	0.8617
2497	0.8618
2488	0.8621
2479	0.8621
2470	0.8624
2461	0.8625
2452	0.8627
2443	0.8628
2434	0.8633
2425	0.8636
2416	0.8641
2407	0.8646
2398	0.8653
2389	0.8657
2380	0.8662
2371	0.8665
2362	0.8671
2353	0.8678
2344	0.8685
2335	0.8688
2326	0.8689
2317	0.8674
2308	0.8625
2299	0.8589
2290	0.8603
2281	0.8613
2272	0.8624
2263	0.8634
2254	0.8645
2245	0.8656
2236	0.8667
2227	0.8677
2218	0.8687
2209	0.8697
2200	0.8704
2191	0.8708
2182	0.8716
2173	0.8757
2164	0.8721
2155	0.8724
2146	0.8728
2137	0.8728
2128	0.8723
2119	0.8716
2110	0.8712
2101	0.8707
2092	0.8703
2083	0.8698
2074	0.8689
2065	0.868
2056	0.867
2047	0.8659
2038	0.8616
2029	0.8568
2020	0.8602
2011	0.8594
2002	0.8587
1993	0.8555
1984	0.8549
1975	0.8559
1966	0.8574
1957	0.8562
1948	0.8172
1939	0.8524
1930	0.8528
1921	0.8533
1912	0.8532
1903	0.8523
1894	0.8513
1885	0.85
1876	0.8433
1867	0.8391
1858	0.8364
1849	0.8382
1840	0.8399
1831	0.8355
1822	0.8339
1813	0.8299
1804	0.8233
1795	0.8158
1786	0.8058
1777	0.7854
1768	0.754
1759	0.6953
1750	0.476
1741	0.1886
1732	0.0408
1723	0.0512
1714	0.2694
1705	0.4577
1696	0.5512
1687	0.6472
1678	0.7256
1669	0.7689
1660	0.7862
1651	0.7868
1642	0.6606
1633	0.7936
1624	0.811
1615	0.8174
1606	0.8218
1597	0.8258
1588	0.8289
1579	0.8304
1570	0.8311
1561	0.8318
1552	0.8325
1543	0.8336
1534	0.8325
1525	0.8304
1516	0.828
1507	0.825
1498	0.821
1489	0.8136
1480	0.8011
1471	0.7608
1462	0.6112
1453	0.5621
1444	0.5755
1435	0.6155
1426	0.5874
1417	0.5477
1408	0.6359
1399	0.6801
1390	0.555
1381	0.4777
1372	0.5006
1363	0.5387
1354	0.5698
1345	0.5844
1336	0.6018
1327	0.641
1318	0.6266
1309	0.5673
1300	0.5664
1291	0.5082
1282	0.4627
1273	0.423
1264	0.4037
1255	0.3932
1246	0.3718
1237	0.346
1228	0.3462
1219	0.3532
1210	0.3552
1201	0.3459
1192	0.3045
1183	0.25
1174	0.2065
1165	0.2031
1156	0.2339
1147	0.2721
1138	0.2744
1129	0.3788
1120	0.5391
1111	0.6107
1102	0.6544
1093	0.6498
1084	0.6327
1075	0.5959
1066	0.5994
1057	0.6131
1048	0.6346
1039	0.6618
1030	0.6693
1021	0.6436
1012	0.6138
1003	0.5744
994	0.4727
985	0.4145
976	0.5156
967	0.5741
958	0.6271
949	0.6494
940	0.5473
931	0.4804
922	0.489
913	0.5656
904	0.6615
895	0.744
886	0.7682
877	0.7819
868	0.7928
859	0.8025
850	0.8081
841	0.8115
832	0.8144
823	0.8147
814	0.8194
805	0.8243
796	0.823
787	0.8169
778	0.8118
769	0.8103
760	0.7987
751	0.7928
742	0.798
733	0.8054
724	0.8184
715	0.8227
706	0.8225
697	0.8238
688	0.8262
679	0.8271
670	0.8238
661	0.8394
652	0.8315
643	0.8281
634	0.8182
625	0.8097
616	0.8025
607	0.8011
598	0.8021
589	0.7968
580	0.7903
571	0.7926
562	0.7906
553	0.7807
544	0.7808
535	0.7864
526	0.7894
517	0.7905
508	0.7903
499	0.7903
490	0.7884
481	0.7812
472	0.7807
463	0.7811
454	0.7815
445	0.7778
436	0.7728
427	0.7701
418	0.7697
409	0.7692
400	0.7681
