Infrared Spectrum: s-Butyl acrylate
Formula: C 7 H 12 O 2
CAS: 2998-08-5
State: gas
Instrument: HP-GC/MS/IRD
Origin: NIST Mass Spectrometry Data Center
1/CM	ABSORBANCE
550	0.0001505
562	3.01e-05
574	7.74e-05
586	0.0002107
598	0.0002279
610	0.0002236
622	0.0001591
634	0.0001161
646	0.0001462
658	0.0002752
670	0.0005289
682	0.0004171
694	0.0001462
706	9.46e-05
718	9.03e-05
730	5.59e-05
742	9.46e-05
754	0.0002279
766	0.0002838
778	0.000645
790	0.0012255
802	0.0024424
814	0.0026445
826	0.0015007
838	0.0010105
850	0.0014147
862	0.0021887
874	0.0021156
886	0.0011008
898	0.0009546
910	0.0017587
922	0.0025499
934	0.0020769
946	0.0024381
958	0.0045709
970	0.006063
982	0.0063597
994	0.0053836
1006	0.0034228
1018	0.0029627
1030	0.0043602
1042	0.0089999
1054	0.009116
1066	0.0045451
1078	0.003569
1090	0.005375
1102	0.0076239
1114	0.0086473
1126	0.0092235
1138	0.0061662
1150	0.004386
1162	0.0061533
1174	0.0132225
1186	0.0333164
1198	0.0415724
1210	0.0152564
1222	0.0051256
1234	0.0047429
1246	0.0080883
1258	0.0165851
1270	0.0197671
1282	0.0118121
1294	0.0098083
1306	0.0066693
1318	0.0025714
1330	0.0017028
1342	0.0016168
1354	0.0018447
1366	0.0024037
1378	0.0039775
1390	0.005547
1402	0.0098943
1414	0.0097782
1426	0.003225
1438	0.0020683
1450	0.0026144
1462	0.0030143
1474	0.0023435
1486	0.00129
1498	0.0007783
1510	0.0006149
1522	0.0005633
1534	0.000559
1546	0.0004902
1558	0.0004214
1570	0.0004257
1582	0.0005418
1594	0.0007955
1606	0.0012513
1618	0.0019264
1630	0.0025069
1642	0.0022618
1654	0.001118
1666	0.0008428
1678	0.0010965
1690	0.0017157
1702	0.0026961
1714	0.0054223
1726	0.0152349
1738	0.027391
1750	0.0204981
1762	0.0072197
1774	0.0027348
1786	0.0015867
1798	0.0010535
1810	0.0007095
1822	0.0005375
1834	0.0004687
1846	0.0004644
1858	0.0004085
1870	0.0003311
1882	0.0003268
1894	0.0003827
1906	0.0004601
1918	0.0006364
1930	0.0006364
1942	0.00043
1954	0.0002881
1966	0.0002365
1978	0.0001892
1990	0.000172
2002	0.0001677
2014	0.0001634
2026	0.0001892
2038	0.0002451
2050	0.0003268
2062	0.0003354
2074	0.0002666
2086	0.0001935
2098	0.000172
2110	0.0001892
2122	0.0001935
2134	0.0001462
2146	0.000129
2158	0.0001591
2170	0.0001333
2182	0.000129
2194	0.0001075
2206	8.6e-05
2218	6.45e-05
2230	5.59e-05
2242	1.72e-05
2254	5.59e-05
2266	9.89e-05
2278	9.03e-05
2290	6.02e-05
2302	0.0001032
2314	0.0001204
2326	0.0001247
2338	0.0001333
2350	0.0001333
2362	0.0002064
2374	0.0002537
2386	0.0002064
2398	0.0001161
2410	7.31e-05
2422	3.87e-05
2434	8.6e-06
2446	0.0001161
2458	9.46e-05
2470	6.02e-05
2482	0.0001118
2494	5.16e-05
2506	2.58e-05
2518	4.73e-05
2530	6.02e-05
2542	2.58e-05
2554	8.6e-06
2566	4.3e-05
2578	6.02e-05
2590	2.15e-05
2602	9.03e-05
2614	7.31e-05
2626	5.16e-05
2638	7.74e-05
2650	9.89e-05
2662	3.01e-05
2674	5.16e-05
2686	7.74e-05
2698	0.0001505
2710	0.0001634
2722	0.000172
2734	0.0001591
2746	0.0001935
2758	0.0002752
2770	0.0002107
2782	0.0001935
2794	0.0001419
2806	0.0001978
2818	0.0003225
2830	0.0004429
2842	0.0005848
2854	0.0009245
2866	0.0014878
2878	0.002408
2890	0.0033712
2902	0.003053
2914	0.0030788
2926	0.0047214
2938	0.0069058
2950	0.0071896
2962	0.0070821
2974	0.0109048
2986	0.011954
2998	0.0062436
3010	0.0024252
3022	0.0012556
3034	0.0012556
3046	0.0012814
3058	0.0008643
3070	0.0007181
3082	0.0006837
3094	0.0007353
3106	0.0010922
3118	0.0008514
3130	0.0003526
3142	0.0002838
3154	0.000215
3166	0.0002107
3178	0.0001591
3190	0.0001978
3202	0.0001419
3214	0.000129
3226	0.0001591
3238	6.88e-05
3250	0.0001548
3262	7.31e-05
3274	3.44e-05
3286	0.0001247
3298	9.89e-05
3310	5.16e-05
3322	8.17e-05
3334	0.0001376
3346	0.0001892
3358	7.31e-05
3370	0.000129
3382	0.0001075
3394	0.0001075
3406	0.0001634
3418	0.0001247
3430	0.0001634
3442	0.0003053
3454	0.0004429
3466	0.0004558
3478	0.0003096
3490	0.0002236
3502	0.0002021
3514	0.0002279
3526	0.0001118
3538	0.0001204
3550	0.0001677
3562	0.0001505
3574	9.89e-05
3586	0.0001462
3598	6.02e-05
3610	8.6e-05
3622	9.03e-05
3634	0.0002537
3646	0.0001204
3658	9.46e-05
3670	5.59e-05
3682	0.0001118
3694	0.0001462
3706	5.59e-05
3718	0.0001505
3730	0.0001548
3742	0.0001849
3754	0.0001118
3766	0.0002064
3778	9.89e-05
3790	0.0001204
3802	0.0002021
3814	0.0001892
3826	0.0001376
3838	6.88e-05
