Infrared Spectrum: 4-THIAZOLIDINONE, 5-(P-HYDROXYBENZYLIDENE)-2-IMINO-
Formula: C10 H8 N2 O2 S
CAS: 299953-00-7
Melting point: 290 C DECOMPOSES
Class: COBLENTZ
Instrument: Not specified, most likely a prism, grating, or hybrid spectrometer.
Sampling: TRANSMISSION
Resolution: 4
Origin: TENNESSEE EASTMAN COMPANY, RESEARCH LABORATORIES
MICROMETERS	TRANSMITTANCE
1.993	0.72
2.03405	0.718
2.07511	0.725
2.11616	0.732
2.15721	0.744
2.19826	0.753
2.23932	0.758
2.28037	0.766
2.32142	0.775
2.36248	0.79
2.40353	0.799
2.44458	0.804
2.48563	0.813
2.52669	0.821
2.56774	0.826
2.60879	0.833
2.64985	0.838
2.6909	0.845
2.73195	0.813
2.773	0.692
2.81406	0.615
2.85511	0.543
2.89616	0.452
2.93722	0.394
2.97827	0.344
3.01932	0.281
3.06037	0.178
3.10143	0.113
3.14248	0.109
3.18353	0.157
3.22459	0.192
3.26564	0.198
3.30669	0.171
3.34774	0.198
3.3888	0.262
3.42985	0.344
3.4709	0.428
3.51196	0.425
3.55301	0.432
3.59406	0.475
3.63511	0.504
3.67617	0.554
3.71722	0.574
3.75827	0.605
3.79933	0.638
3.84038	0.665
3.88143	0.701
3.92248	0.739
3.96354	0.751
4.00459	0.758
4.04564	0.777
4.0867	0.802
4.12775	0.825
4.1688	0.84
4.20985	0.85
4.25091	0.855
4.29196	0.859
4.33301	0.864
4.37407	0.89
4.41512	0.914
4.45617	0.927
4.49722	0.938
4.53828	0.945
4.57933	0.95
4.62038	0.95
4.66144	0.951
4.70249	0.955
4.74354	0.955
4.78459	0.955
4.82565	0.958
4.8667	0.963
4.90775	0.962
4.94881	0.963
4.98986	0.986
5.03091	0.989
5.07196	0.993
5.11302	0.996
5.15407	0.994
5.19512	0.994
5.23618	0.989
5.27723	0.975
5.31828	0.965
5.35933	0.965
5.40039	0.975
5.44144	0.977
5.48249	0.975
5.52355	0.969
5.5646	0.962
5.60565	0.962
5.6467	0.958
5.68776	0.946
5.72881	0.922
5.76986	0.866
5.81092	0.804
5.85197	0.773
5.89302	0.626
5.93407	0.456
5.97513	0.271
6.01618	0.214
6.05723	0.224
6.09829	0.259
6.13934	0.337
6.18039	0.322
6.22144	0.113
6.2625	0.094
6.30355	0.089
6.3446	0.279
6.38566	0.339
6.42671	0.305
6.46776	0.233
6.50881	0.162
6.54987	0.101
6.59092	0.048
6.63197	0.051
6.67303	0.07
6.71408	0.132
6.75513	0.195
6.79619	0.222
6.83724	0.229
6.87829	0.25
6.91934	0.301
6.9604	0.416
7.00145	0.451
7.0425	0.471
7.08356	0.433
7.12461	0.32
7.16566	0.224
7.20671	0.174
7.24777	0.142
7.28882	0.166
7.32987	0.243
7.37093	0.372
7.41198	0.481
7.45303	0.493
7.49408	0.49
7.53514	0.55
7.57619	0.598
7.61724	0.615
7.6583	0.502
7.69935	0.295
7.7404	0.193
7.78145	0.162
7.82251	0.111
7.86356	0.09
7.90461	0.07
7.94567	0.063
7.98672	0.077
8.02777	0.123
8.06882	0.209
8.10988	0.286
8.15093	0.343
8.19198	0.327
8.23304	0.241
8.27409	0.246
8.31514	0.384
8.35619	0.519
8.39725	0.576
8.4383	0.303
8.47935	0.248
8.52041	0.396
8.56146	0.449
8.60251	0.421
8.64356	0.319
8.68462	0.202
8.72567	0.255
8.76672	0.42
8.80778	0.512
8.84883	0.548
8.88988	0.567
8.93093	0.6
8.97199	0.603
9.01304	0.643
9.05409	0.728
9.09515	0.763
9.1362	0.801
9.17725	0.821
9.2183	0.833
9.25936	0.85
9.30041	0.857
9.34146	0.859
9.38252	0.866
9.42357	0.874
9.46462	0.878
9.50567	0.881
9.54673	0.881
9.58778	0.883
9.62883	0.885
9.66989	0.885
9.71094	0.883
9.75199	0.869
9.79304	0.811
9.8341	0.753
9.87515	0.756
9.9162	0.797
9.95726	0.831
9.99831	0.85
10.0394	0.857
10.0804	0.876
10.1215	0.883
10.1625	0.886
10.2036	0.897
10.2446	0.903
10.2857	0.905
10.3267	0.907
10.3678	0.909
10.4088	0.91
10.4499	0.91
10.4909	0.91
10.532	0.91
10.573	0.91
10.6141	0.91
10.6552	0.912
10.6962	0.912
10.7373	0.91
10.7783	0.91
10.8194	0.914
10.8604	0.915
10.9015	0.914
10.9425	0.914
10.9836	0.888
11.0246	0.823
11.0657	0.77
11.1067	0.756
11.1478	0.766
11.1888	0.809
11.2299	0.855
11.2709	0.873
11.312	0.876
11.3531	0.876
11.3941	0.878
11.4352	0.874
11.4762	0.869
11.5173	0.84
11.5583	0.787
11.5994	0.756
11.6404	0.794
11.6815	0.825
11.7225	0.833
11.7636	0.833
11.8046	0.831
11.8457	0.809
11.8867	0.783
11.9278	0.737
11.9688	0.677
12.0099	0.584
12.051	0.428
12.092	0.351
12.1331	0.348
12.1741	0.416
12.2152	0.509
12.2562	0.614
12.2973	0.662
12.3383	0.687
12.3794	0.706
12.4204	0.735
12.4615	0.754
12.5025	0.775
12.5436	0.797
12.5846	0.804
12.6257	0.814
12.6667	0.819
12.7078	0.823
12.7489	0.823
12.7899	0.818
12.831	0.804
12.872	0.77
12.9131	0.732
12.9541	0.679
12.9952	0.627
13.0362	0.608
13.0773	0.605
13.1183	0.605
13.1594	0.62
13.2004	0.634
13.2415	0.646
13.2825	0.674
13.3236	0.747
13.3646	0.789
13.4057	0.818
13.4467	0.823
13.4878	0.818
13.5289	0.795
13.5699	0.765
13.611	0.74
13.652	0.725
13.6931	0.715
13.7341	0.708
13.7752	0.699
13.8162	0.689
13.8573	0.68
13.8983	0.672
13.9394	0.67
13.9804	0.672
14.0215	0.684
14.0625	0.692
14.1036	0.704
14.1446	0.704
14.1857	0.682
14.2268	0.648
14.2678	0.622
14.3089	0.615
14.3499	0.627
14.391	0.663
14.432	0.689
14.4731	0.708
14.5141	0.72
14.5552	0.732
14.5962	0.746
14.6373	0.751
14.6783	0.758
14.7194	0.763
14.7604	0.766
14.8015	0.773
14.8425	0.785
14.8836	0.794
14.9247	0.795
14.9657	0.795
15.0068	0.795
15.0478	0.794
15.0889	0.795
15.1299	0.795
15.171	0.797
15.212	0.797
15.2531	0.794
15.2941	0.782
15.3352	0.754
15.3762	0.737
15.4173	0.72
15.4583	0.711
15.4994	0.711
15.5404	0.711
15.5815	0.711
15.6226	0.716
15.6636	0.716
15.7047	0.716
15.7457	0.718
15.7868	0.713
15.8278	0.699
15.8689	0.689
15.9099	0.679
15.951	0.674
