Infrared Spectrum: 3,5-DIIODO-L-TYROSINE
Formula: C9 H9 I2 N O3
CAS: 300-39-0
State: SOLID (MINERAL OIL MULL)
Class: COBLENTZ
Instrument: Not specified, most likely a prism, grating, or hybrid spectrometer.
Sampling: TRANSMISSION
Resolution: 4
Origin: WYANDOTTE CHEMICALS CORP., WYANDOTTE, MICHIGAN, USA
MICROMETERS	TRANSMITTANCE
2.027	0.424
2.0678	0.429
2.10859	0.444
2.14939	0.454
2.19019	0.461
2.23099	0.456
2.27178	0.463
2.31258	0.483
2.35338	0.504
2.39417	0.514
2.43497	0.524
2.47577	0.531
2.51656	0.553
2.55736	0.584
2.59816	0.589
2.63896	0.62
2.67975	0.642
2.72055	0.626
2.76135	0.495
2.80214	0.313
2.84294	0.32
2.88374	0.35
2.92454	0.337
2.96533	0.252
3.00613	0.197
3.04693	0.148
3.08772	0.151
3.12852	0.172
3.16932	0.204
3.21012	0.219
3.25091	0.221
3.29171	0.212
3.33251	0.093
3.3733	0.025
3.4141	0.03
3.4549	0.034
3.49569	0.047
3.53649	0.206
3.57729	0.293
3.61809	0.325
3.65888	0.313
3.69968	0.32
3.74048	0.304
3.78127	0.321
3.82207	0.333
3.86287	0.345
3.90367	0.359
3.94446	0.373
3.98526	0.366
4.02606	0.403
4.06685	0.431
4.10765	0.459
4.14845	0.478
4.18925	0.497
4.23004	0.516
4.27084	0.511
4.31164	0.538
4.35243	0.572
4.39323	0.618
4.43403	0.632
4.47482	0.643
4.51562	0.652
4.55642	0.66
4.59722	0.667
4.63801	0.678
4.67881	0.686
4.71961	0.686
4.7604	0.679
4.8012	0.679
4.842	0.684
4.8828	0.689
4.92359	0.713
4.96439	0.734
5.00519	0.761
5.04598	0.781
5.08678	0.8
5.12758	0.819
5.16838	0.833
5.20917	0.851
5.24997	0.858
5.29077	0.873
5.33156	0.885
5.37236	0.892
5.41316	0.904
5.45395	0.908
5.49475	0.918
5.53555	0.928
5.57635	0.931
5.61714	0.928
5.65794	0.896
5.69874	0.926
5.73953	0.919
5.78033	0.938
5.82113	0.916
5.86193	0.897
5.90272	0.867
5.94352	0.737
5.98432	0.557
6.02511	0.5
6.06591	0.466
6.10671	0.293
6.1475	0.137
6.1883	0.083
6.2291	0.069
6.2699	0.12
6.31069	0.19
6.35149	0.264
6.39229	0.379
6.43308	0.27
6.47388	0.248
6.51468	0.359
6.55548	0.446
6.59627	0.488
6.63707	0.531
6.67787	0.55
6.71866	0.533
6.75946	0.422
6.80026	0.146
6.84106	0.081
6.88185	0.149
6.92265	0.308
6.96345	0.475
7.00424	0.413
7.04504	0.328
7.08584	0.444
7.12663	0.219
7.16743	0.275
7.20823	0.349
7.24903	0.287
7.28982	0.432
7.33062	0.521
7.37142	0.519
7.41221	0.587
7.45301	0.599
7.49381	0.504
7.53461	0.233
7.5754	0.194
7.6162	0.294
7.657	0.282
7.69779	0.248
7.73859	0.356
7.77939	0.485
7.82019	0.548
7.86098	0.436
7.90178	0.526
7.94258	0.586
7.98337	0.555
8.02417	0.396
8.06497	0.316
8.10576	0.495
8.14656	0.567
8.18736	0.534
8.22816	0.594
8.26895	0.563
8.30975	0.638
8.35055	0.618
8.39134	0.497
8.43214	0.48
8.47294	0.494
8.51374	0.359
8.55453	0.453
8.59533	0.538
8.63613	0.49
8.67692	0.321
8.71772	0.287
8.75852	0.367
8.79932	0.465
8.84011	0.54
8.88091	0.574
8.92171	0.536
8.9625	0.487
9.0033	0.548
9.0441	0.618
9.08489	0.652
9.12569	0.681
9.16649	0.7
9.20729	0.713
9.24808	0.72
9.28888	0.737
9.32968	0.749
9.37047	0.758
9.41127	0.752
9.45207	0.703
9.49287	0.749
9.53366	0.761
9.57446	0.773
9.61526	0.776
9.65605	0.771
9.69685	0.725
9.73765	0.635
9.77844	0.698
9.81924	0.754
9.86004	0.778
9.90084	0.778
9.94163	0.739
9.98243	0.73
10.0232	0.775
10.064	0.797
10.1048	0.814
10.1456	0.817
10.1864	0.817
10.2272	0.819
10.268	0.81
10.3088	0.819
10.3496	0.819
10.3904	0.829
10.4312	0.829
10.472	0.817
10.5128	0.781
10.5536	0.688
10.5944	0.724
10.6352	0.797
10.676	0.817
10.7168	0.831
10.7576	0.839
10.7984	0.846
10.8392	0.851
10.88	0.853
10.9208	0.85
10.9616	0.85
11.0024	0.867
11.0432	0.865
11.084	0.858
11.1247	0.829
11.1655	0.816
11.2063	0.766
11.2471	0.798
11.2879	0.746
11.3287	0.536
11.3695	0.275
11.4103	0.422
11.4511	0.666
11.4919	0.758
11.5327	0.809
11.5735	0.831
11.6143	0.846
11.6551	0.85
11.6959	0.833
11.7367	0.785
11.7775	0.763
11.8183	0.797
11.8591	0.821
11.8999	0.834
11.9407	0.846
11.9815	0.851
12.0223	0.858
12.0631	0.858
12.1039	0.86
12.1447	0.86
12.1855	0.86
12.2263	0.863
12.2671	0.858
12.3079	0.862
12.3487	0.856
12.3895	0.85
12.4303	0.846
12.4711	0.838
12.5118	0.807
12.5526	0.693
12.5934	0.623
12.6342	0.671
12.675	0.667
12.7158	0.632
12.7566	0.683
12.7974	0.739
12.8382	0.766
12.879	0.77
12.9198	0.763
12.9606	0.754
13.0014	0.744
13.0422	0.734
13.083	0.727
13.1238	0.717
13.1646	0.708
13.2054	0.7
13.2462	0.691
13.287	0.688
13.3278	0.684
13.3686	0.683
13.4094	0.678
13.4502	0.671
13.491	0.667
13.5318	0.659
13.5726	0.657
13.6134	0.654
13.6542	0.649
13.695	0.647
13.7358	0.638
13.7766	0.637
13.8174	0.63
13.8582	0.625
13.8989	0.62
13.9397	0.609
13.9805	0.608
14.0213	0.575
14.0621	0.502
14.1029	0.417
14.1437	0.34
14.1845	0.359
14.2253	0.429
14.2661	0.475
14.3069	0.505
14.3477	0.517
14.3885	0.526
14.4293	0.528
14.4701	0.524
14.5109	0.524
14.5517	0.521
14.5925	0.522
14.6333	0.519
14.6741	0.519
14.7149	0.519
14.7557	0.519
14.7965	0.519
14.8373	0.519
14.8781	0.519
14.9189	0.521
14.9597	0.522
15.0005	0.516
15.0413	0.504
15.0821	0.497
15.1229	0.511
15.1637	0.521
15.2045	0.521
15.2453	0.516
15.2861	0.514
15.3268	0.511
15.3676	0.507
15.4084	0.504
15.4492	0.494
15.49	0.485
15.5308	0.483
15.5716	0.475
15.6124	0.473
15.6532	0.465
15.694	0.456
15.7348	0.448
15.7756	0.444
15.8164	0.439
15.8572	0.436
15.898	0.432
15.9388	0.425
15.9796	0.422
