Infrared Spectrum: O-(1,2-Dibromo-2,2-dichloroethyl)-O,O-dimethyl phosphate
Formula: C4 H7 Br2 Cl2 O4 P
CAS: 300-76-5
State: SOLUTION, SALTED (CCl4 FOR 2.7-7.5, CS2 FOR 7.5-26 MICRON)
Class: COBLENTZ III
Instrument: DOW KBr FOREPRISM-GRATING
Instrument parameters: BLAZED AT 3.5, 12.0, 20.0 MICRON AND CHANGED AT 5.0, 7.5, 14.9 MICRON
Sampling: TRANSMISSION
Path length: 0.011 CM, 0.010 CM
Resolution: 2
Origin: DOW CHEMICAL COMPANY
1/CM	TRANSMITTANCE
385	0.3009
394	0.3243
403	0.4344
412	0.5765
421	0.6279
430	0.6446
439	0.6471
448	0.6241
457	0.521
466	0.4037
475	0.3962
484	0.48
493	0.5962
502	0.5849
511	0.5286
520	0.6243
529	0.754
538	0.781
547	0.7769
556	0.7299
565	0.7357
574	0.7894
583	0.7595
592	0.6025
601	0.5406
610	0.7211
619	0.7615
628	0.7362
637	0.6494
646	0.5088
655	0.4394
664	0.548
673	0.4534
682	0.3749
691	0.5276
700	0.7226
709	0.7432
718	0.7271
727	0.5908
736	0.4657
745	0.4456
754	0.462
763	0.511
772	0.6758
781	0.5904
790	0.6346
799	0.4802
808	0.3458
817	0.5588
826	0.6965
835	0.6626
844	0.5508
853	0.208
862	0.2907
871	0.3045
880	0.1382
889	0.0668
898	0.1323
907	0.4783
916	0.7254
925	0.7597
934	0.768
943	0.7648
952	0.7534
961	0.7251
970	0.678
979	0.6288
988	0.5443
997	0.3039
1006	0.0657
1015	0.0936
1024	0.3305
1033	0.1094
1042	0.0002
1051	0.0019
1060	0.0048
1069	0.139
1078	0.3907
1087	0.4615
1096	0.3946
1105	0.2222
1114	0.2843
1123	0.4473
1132	0.62
1141	0.6987
1150	0.706
1159	0.6934
1168	0.6551
1177	0.5476
1186	0.4362
1195	0.559
1204	0.5814
1213	0.5155
1222	0.6518
1231	0.655
1240	0.6434
1249	0.6274
1258	0.6002
1267	0.5454
1276	0.2643
1285	0.176
1294	0.1226
1303	0.2663
1312	0.5746
1321	0.5983
1330	0.6153
1339	0.7549
1348	0.8044
1357	0.8217
1366	0.8311
1375	0.8311
1384	0.8314
1393	0.84
1402	0.8363
1411	0.8305
1420	0.8228
1429	0.8099
1438	0.7796
1447	0.7015
1456	0.5752
1465	0.628
1474	0.7515
1483	0.7638
1492	0.7576
1501	0.7255
1510	0.6806
1519	0.6358
1528	0.5925
1537	0.5157
1546	0.433
1555	0.442
1564	0.5182
1573	0.5812
1582	0.6005
1591	0.6449
1600	0.7358
1609	0.7971
1618	0.8275
1627	0.8463
1636	0.8565
1645	0.8607
1654	0.8587
1663	0.8588
1672	0.8657
1681	0.8673
1690	0.8688
1699	0.8702
1708	0.8712
1717	0.8713
1726	0.8712
1735	0.8652
1744	0.8563
1753	0.8314
1762	0.8471
1771	0.8611
1780	0.8613
1789	0.8582
1798	0.8541
1807	0.8505
1816	0.8474
1825	0.8412
1834	0.8325
1843	0.8312
1852	0.8478
1861	0.8548
1870	0.862
1879	0.8732
1888	0.8725
1897	0.8678
1906	0.8621
1915	0.8596
1924	0.8645
1933	0.8752
1942	0.8781
1951	0.8771
1960	0.8744
1969	0.8727
1978	0.8724
1987	0.8718
1996	0.8683
2005	0.8615
2014	0.866
2023	0.8733
2032	0.8734
2041	0.8737
2050	0.8732
2059	0.8727
2068	0.8732
2077	0.872
2086	0.8702
2095	0.8684
2104	0.8668
2113	0.8651
2122	0.8659
2131	0.8692
2140	0.8718
2149	0.8718
2158	0.8712
2167	0.8713
2176	0.8704
2185	0.8691
2194	0.8678
2203	0.8666
2212	0.8655
2221	0.8643
2230	0.8631
2239	0.8616
2248	0.86
2257	0.8575
2266	0.8552
2275	0.853
2284	0.8511
2293	0.8492
2302	0.8489
2311	0.8521
2320	0.8571
2329	0.8665
2338	0.8731
2347	0.8737
2356	0.8732
2365	0.8721
2374	0.8708
2383	0.8689
2392	0.8668
2401	0.8647
2410	0.8621
2419	0.8616
2428	0.8628
2437	0.8671
2446	0.8704
2455	0.8715
2464	0.8712
2473	0.8703
2482	0.8693
2491	0.8685
2500	0.8678
2509	0.8668
2518	0.8655
2527	0.8641
2536	0.8625
2545	0.8611
2554	0.8596
2563	0.8585
2572	0.8574
2581	0.8567
2590	0.8562
2599	0.8557
2608	0.8555
2617	0.8556
2626	0.8556
2635	0.8558
2644	0.856
2653	0.8562
2662	0.8564
2671	0.8565
2680	0.8562
2689	0.8559
2698	0.8557
2707	0.8553
2716	0.855
2725	0.8546
2734	0.8543
2743	0.8539
2752	0.8536
2761	0.8532
2770	0.8527
2779	0.8518
2788	0.8512
2797	0.8495
2806	0.8477
2815	0.845
2824	0.842
2833	0.8377
2842	0.8314
2851	0.8104
2860	0.6951
2869	0.6357
2878	0.8254
2887	0.8288
2896	0.8235
2905	0.8136
2914	0.808
2923	0.8115
2932	0.8125
2941	0.8045
2950	0.7871
2959	0.7078
2968	0.4171
2977	0.5249
2986	0.6294
2995	0.7475
3004	0.7545
3013	0.7291
3022	0.7393
3031	0.7453
3040	0.7725
3049	0.8071
3058	0.8289
3067	0.8368
3076	0.8428
3085	0.8488
3094	0.8541
3103	0.8586
3112	0.8623
3121	0.8647
3130	0.8663
3139	0.8681
3148	0.8698
3157	0.8716
3166	0.874
3175	0.8773
3184	0.8746
3193	0.8802
3202	0.8832
3211	0.8845
3220	0.8852
3229	0.8863
3238	0.8862
3247	0.8861
3256	0.8858
3265	0.8854
3274	0.8849
3283	0.8837
3292	0.8852
3301	0.8875
3310	0.8875
3319	0.8868
3328	0.8865
3337	0.8861
3346	0.886
3355	0.886
3364	0.8864
3373	0.8867
3382	0.8883
3391	0.89
3400	0.8917
3409	0.8928
3418	0.8923
3427	0.8917
3436	0.8912
3445	0.8912
3454	0.8913
3463	0.8913
3472	0.8914
3481	0.8914
3490	0.8915
3499	0.8918
3508	0.8921
3517	0.8925
3526	0.8928
3535	0.8932
3544	0.8936
3553	0.8943
3562	0.895
3571	0.8958
3580	0.8965
3589	0.8973
3598	0.8983
3607	0.8994
3616	0.8997
3625	0.8998
3634	0.9
3643	0.8999
3652	0.8996
3661	0.8992
3670	0.8989
3679	0.8986
3688	0.8983
3697	0.898
3706	0.8978
3715	0.8975
3724	0.8973
3733	0.8968
3742	0.8966
3751	0.8962
3760	0.8959
3769	0.896
3778	0.896
3787	0.8958
3796	0.8955
