Infrared Spectrum: Amphetamine
Formula: C 9 H 13 N
CAS: 300-62-9
State: gas
Instrument: HP-GC/MS/IRD
Origin: NIST Mass Spectrometry Data Center
1/CM	ABSORBANCE
550	0.0006918
562	0.0003654
574	0.0003186
586	0.0005178
598	0.0007152
610	0.0004986
622	0.0004626
634	0.0005094
646	0.0005082
658	0.0008826
670	0.0012468
682	0.0025068
694	0.0047568
706	0.0049584
718	0.0042348
730	0.0056826
742	0.0052188
754	0.0031878
766	0.003126
778	0.0038844
790	0.0042144
802	0.0033078
814	0.0021126
826	0.001632
838	0.0013182
850	0.0008784
862	0.0005286
874	0.0003852
886	0.0003498
898	0.000333
910	0.0002946
922	0.0001758
934	0.0002136
946	0.0002088
958	0.000126
970	7.38e-05
982	4.38e-05
994	7.26e-05
1006	9.54e-05
1018	0.000321
1030	0.0007362
1042	0.0004584
1054	0.0005262
1066	0.0006864
1078	0.0009978
1090	0.0011382
1102	0.0012324
1114	0.0012618
1126	0.0010998
1138	0.0008952
1150	0.000621
1162	0.0004188
1174	0.000429
1186	0.000324
1198	0.0003084
1210	0.0003024
1222	0.0003288
1234	0.0003078
1246	0.0002574
1258	0.0001404
1270	0.0001584
1282	0.000219
1294	0.0002658
1306	0.0003096
1318	0.0003942
1330	0.0006162
1342	0.0010056
1354	0.0012456
1366	0.001377
1378	0.0016836
1390	0.0011514
1402	0.0005322
1414	0.0003606
1426	0.0004794
1438	0.001029
1450	0.0015408
1462	0.0014148
1474	0.0009834
1486	0.001407
1498	0.0018132
1510	0.0007152
1522	0.0003258
1534	0.0002856
1546	0.000258
1558	0.0003204
1570	0.0004608
1582	0.0008268
1594	0.0014778
1606	0.001863
1618	0.0018114
1630	0.0014202
1642	0.0007842
1654	0.000477
1666	0.0002664
1678	0.0001512
1690	0.000141
1702	0.0001122
1714	9.54e-05
1726	9.42e-05
1738	0.000144
1750	0.0001512
1762	9.18e-05
1774	0.0001092
1786	0.0001896
1798	0.0002856
1810	0.0001722
1822	0.0001086
1834	6.24e-05
1846	7.26e-05
1858	0.0001662
1870	0.0001908
1882	0.000201
1894	0.0001242
1906	7.38e-05
1918	0.0001308
1930	0.0002304
1942	0.000288
1954	0.0002352
1966	7.86e-05
1978	4.56e-05
1990	3.12e-05
2002	1.62e-05
2014	2.52e-05
2026	3.6e-06
2038	2.46e-05
2050	4.14e-05
2062	4.2e-05
2074	4.08e-05
2086	1.86e-05
2098	6.66e-05
2110	4.86e-05
2122	6.48e-05
2134	7.8e-05
2146	3.96e-05
2158	6.78e-05
2170	0.0001032
2182	7.62e-05
2194	7.08e-05
2206	7.74e-05
2218	0.0001014
2230	5.64e-05
2242	7.5e-05
2254	9.66e-05
2266	9.3e-05
2278	0.0001038
2290	4.92e-05
2302	6.54e-05
2314	8.82e-05
2326	7.5e-05
2338	0.0001122
2350	9.06e-05
2362	8.7e-05
2374	0.0001116
2386	8.1e-05
2398	9.24e-05
2410	7.68e-05
2422	6.66e-05
2434	6.18e-05
2446	4.5e-05
2458	0.0001032
2470	8.16e-05
2482	0.0001026
2494	9.18e-05
2506	8.28e-05
2518	8.46e-05
2530	7.86e-05
2542	9.72e-05
2554	0.0001254
2566	0.0001158
2578	0.0001116
2590	0.0001212
2602	0.0001614
2614	0.0001878
2626	0.0002076
2638	0.0002064
2650	0.0001926
2662	0.0001746
2674	0.0002316
2686	0.0002016
2698	0.0001548
2710	0.0002028
2722	0.000255
2734	0.0002412
2746	0.0002568
2758	0.0002358
2770	0.0002562
2782	0.000294
2794	0.0004056
2806	0.0004806
2818	0.0006504
2830	0.0009564
2842	0.0015906
2854	0.00234
2866	0.0024402
2878	0.0025512
2890	0.0026154
2902	0.0033594
2914	0.0048414
2926	0.0056616
2938	0.0049086
2950	0.0039414
2962	0.0053052
2974	0.0052176
2986	0.002991
2998	0.0014418
3010	0.0014538
3022	0.0028062
3034	0.0040074
3046	0.0027426
3058	0.0025044
3070	0.0037032
3082	0.0028968
3094	0.0018228
3106	0.0010278
3118	0.0005616
3130	0.0002874
3142	0.0001896
3154	0.000216
3166	0.0002634
3178	0.0001452
3190	0.0001848
3202	0.0001422
3214	0.0001152
3226	0.00012
3238	0.0001098
3250	9e-05
3262	0.0001356
3274	0.0001284
3286	0.0001482
3298	8.34e-05
3310	0.0001362
3322	0.0001536
3334	0.0002496
3346	0.0001728
3358	0.0001728
3370	0.0001194
3382	0.000141
3394	0.0001722
3406	0.0001524
3418	0.0001296
3430	0.0001452
3442	0.0001632
3454	7.68e-05
3466	0.0001518
3478	0.0001026
3490	8.88e-05
3502	0.0001716
3514	0.0001374
3526	0.0001284
3538	7.8e-05
3550	9.66e-05
3562	0.0001182
3574	0.000129
3586	0.0001296
3598	0.0001134
3610	0.0001464
3622	0.0001392
3634	0.0001512
3646	0.0002406
3658	0.0001092
3670	0.0001524
3682	0.0001692
3694	0.0001038
3706	0.0001488
3718	0.000144
3730	0.0001278
3742	0.0001656
3754	0.0001758
3766	0.0001494
3778	0.000117
3790	0.0001554
3802	0.0001842
3814	0.0001542
3826	8.7e-05
3838	0.0001842
