Infrared Spectrum: 5-Methyl-1,10-phenanthroline
Formula: C 13 H 10 N 2
CAS: 3002-78-6
State: gas
Origin: EPA-IR VAPOR PHASE LIBRARY
1/CM	ABSORBANCE
549.8	0.0009966
559.445	0.001586
569.09	0.0012618
578.734	0.001094
588.379	0.0008662
598.024	0.0014118
607.669	0.002046
617.313	0.006366
626.958	0.004146
636.603	0.002216
646.248	0.003866
655.893	0.002636
665.537	0.0010986
675.182	0.0012664
684.827	0.0014427
694.472	0.002026
704.116	0.002906
713.761	0.002186
723.406	0.004966
733.051	0.018066
742.695	0.029666
752.34	0.009946
761.985	0.002466
771.63	0.004456
781.275	0.012666
790.919	0.012496
800.564	0.005886
810.209	0.002656
819.854	0.002466
829.498	0.001946
839.143	0.002026
848.788	0.002026
858.433	0.006536
868.078	0.016956
877.722	0.011746
887.367	0.003676
897.012	0.0015494
906.657	0.001716
916.301	0.0015589
925.946	0.001586
935.591	0.0012193
945.236	0.0010281
954.88	0.0012684
964.525	0.0014851
974.17	0.002306
983.815	0.002686
993.46	0.003106
1003.1	0.002516
1012.75	0.001676
1022.39	0.0015573
1032.04	0.003316
1041.68	0.003216
1051.33	0.003486
1060.97	0.002236
1070.62	0.002016
1080.26	0.003686
1089.91	0.005426
1099.55	0.004676
1109.2	0.002446
1118.84	0.0015204
1128.49	0.001916
1138.13	0.004726
1147.78	0.007906
1157.42	0.003116
1167.07	0.002296
1176.71	0.001706
1186.36	0.0013079
1196	0.002436
1205.64	0.0015081
1215.29	0.003086
1224.93	0.003556
1234.58	0.002206
1244.22	0.001806
1253.87	0.001796
1263.51	0.001776
1273.16	0.001696
1282.8	0.002876
1292.45	0.003246
1302.09	0.002226
1311.74	0.001846
1321.38	0.0013995
1331.03	0.0015549
1340.67	0.001576
1350.32	0.001736
1359.96	0.002186
1369.61	0.004416
1379.25	0.008486
1388.9	0.007896
1398.54	0.006036
1408.18	0.011366
1417.83	0.025726
1427.47	0.017356
1437.12	0.005366
1446.76	0.006066
1456.41	0.006116
1466.05	0.005576
1475.7	0.007126
1485.34	0.010486
1494.99	0.010986
1504.63	0.012616
1514.28	0.008186
1523.92	0.003976
1533.57	0.003496
1543.21	0.005596
1552.86	0.012326
1562.5	0.009326
1572.15	0.005036
1581.79	0.006376
1591.44	0.008336
1601.08	0.007466
1610.73	0.006526
1620.37	0.006586
1630.01	0.004486
1639.66	0.003076
1649.3	0.002426
1658.95	0.002076
1668.59	0.0014886
1678.24	0.0013612
1687.88	0.0012064
1697.53	0.0013637
1707.17	0.001786
1716.82	0.002566
1726.46	0.003016
1736.11	0.003456
1745.75	0.002696
1755.4	0.001866
1765.04	0.001596
1774.69	0.0013143
1784.33	0.0012167
1793.98	0.001209
1803.62	0.001321
1813.27	0.0012522
1822.91	0.0011483
1832.55	0.0010622
1842.2	0.0010798
1851.84	0.0012214
1861.49	0.001826
1871.13	0.002836
1880.78	0.002356
1890.42	0.001916
1900.07	0.002296
1909.71	0.002666
1919.36	0.001906
1929	0.002086
1938.65	0.003576
1948.29	0.002766
1957.94	0.0011779
1967.58	0.0012806
1977.23	0.0011556
1986.87	0.0010167
1996.52	0.0012094
2006.16	0.0011643
2015.81	0.001147
2025.45	0.0011654
2035.1	0.0007681
2044.74	0.0012447
2054.38	0.0010695
2064.03	0.0009748
2073.67	0.001147
2083.32	0.0011134
2092.96	0.0009393
2102.61	0.0010351
2112.25	0.001086
2121.9	0.0009102
2131.54	0.0009698
2141.19	0.0010163
2150.83	0.0010545
2160.48	0.0010412
2170.12	0.0008796
2179.77	0.0009818
2189.41	0.0009395
2199.06	0.0011172
2208.7	0.0011641
2218.35	0.0009563
2227.99	0.000865
2237.64	0.0011806
2247.28	0.0010688
2256.92	0.0010681
2266.57	0.001117
2276.21	0.0011397
2285.86	0.0009363
2295.5	0.0010205
2305.15	0.0011678
2314.79	0.0008628
2324.44	0.0009875
2334.08	0.0011927
2343.73	0.0007826
2353.37	0.0010211
2363.02	0.0010698
2372.66	0.0010119
2382.31	0.0008309
2391.95	0.0010749
2401.6	0.0010522
2411.24	0.0008702
2420.89	0.0008975
2430.53	0.0010878
2440.18	0.0010508
2449.82	0.0011643
2459.47	0.0009859
2469.11	0.0010569
2478.75	0.0009402
2488.4	0.0010905
2498.04	0.0009715
2507.69	0.0010644
2517.33	0.0009791
2526.98	0.0010065
2536.62	0.0011694
2546.27	0.00057883
2555.91	0.000995
2565.56	0.0009584
2575.2	0.0010211
2584.85	0.000936
2594.49	0.0010299
2604.14	0.0009772
2613.78	0.0010334
2623.43	0.0010012
2633.07	0.0010375
2642.72	0.0011597
2652.36	0.0009594
2662.01	0.0011386
2671.65	0.0010269
2681.29	0.0009708
2690.94	0.0009289
2700.58	0.0009971
2710.23	0.0008693
2719.87	0.0009098
2729.52	0.0011911
2739.16	0.0013343
2748.81	0.0010124
2758.45	0.0011832
2768.1	0.0008417
2777.74	0.000695
2787.39	0.0010705
2797.03	0.0012572
2806.68	0.0014454
2816.32	0.0014795
2825.97	0.001656
2835.61	0.0015352
2845.26	0.0015092
2854.9	0.002076
2864.55	0.003056
2874.19	0.004876
2883.84	0.004946
2893.48	0.004236
2903.12	0.004436
2912.77	0.004516
2922.41	0.006556
2932.06	0.009366
2941.7	0.008796
2951.35	0.007946
2960.99	0.007296
2970.64	0.006416
2980.28	0.009136
2989.93	0.009306
2999.57	0.008556
3009.22	0.009756
3018.86	0.014796
3028.51	0.021696
3038.15	0.020766
3047.8	0.016266
3057.44	0.016096
3067.09	0.016656
3076.73	0.019026
3086.38	0.013076
3096.02	0.005806
3105.67	0.003276
3115.31	0.002246
3124.95	0.001776
3134.6	0.0012527
3144.24	0.001866
3153.89	0.0012707
3163.53	0.0012204
3173.18	0.0013591
3182.82	0.0008944
3192.47	0.0010437
3202.11	0.0008648
3211.76	0.000984
3221.4	0.00057661
3231.05	0.0006903
3240.69	0.0007348
3250.34	0.00065191
3259.98	0.00065827
3269.63	0.0004699
3279.27	0.0004981
3288.92	0.0010568
3298.56	0.0007563
3308.21	0.000349
3317.85	0.0007464
3327.49	0.000421
3337.14	0.0009011
3346.78	0.00059038
3356.43	0.0006727
3366.07	0.00065907
3375.72	0.0004752
3385.36	0.00062506
3395.01	0.000379
3404.65	0.000412
3414.3	0.000364
3423.94	0.0005123
3433.59	0.00064894
3443.23	0.000374
3452.88	0.0007195
3462.52	0.0005401
3472.17	0.0005491
3481.81	0.0005465
3491.46	0.0007882
3501.1	0.000215
3510.75	0.0001
3520.39	0.000275
3530.04	0.00058984
3539.68	0.00039
3549.32	0.0008041
3558.97	0.00060243
3568.61	0.0005508
3578.26	0.0005095
3587.9	0.000416
3597.55	0.00058718
3607.19	0.000462
3616.84	0.00061851
3626.48	0.0007522
3636.13	0.0005408
3645.77	0.0004873
3655.42	0.00033
3665.06	0.0005125
3674.71	0.000504
3684.35	0.000469
3694	0.000194
3703.64	0.0007131
3713.29	0.0007276
3722.93	0.00041
3732.58	0.00060936
3742.22	0.00064537
3751.86	0.0008153
3761.51	0.0005067
3771.15	0
3780.8	0.0006843
3790.44	0.000454
3800.09	0.000567256
3809.73	0.000237
3819.38	0.00055807
3829.02	0.00064987
3838.67	0.000341
3848.31	0.000344
3857.96	0.0006695
3867.6	0.00065417
3877.25	0.00065768
3886.89	0.0007767
3896.54	0.0007305
3906.18	0.000465
3915.83	0.0006728
3925.47	0.000831
3935.12	0.0004727
3944.76	0.00062932
3954.41	0.0006752
3964.05	0.000418
3973.69	0.000376
3983.34	0.0006766
3992.98	0.00061702
