Infrared Spectrum: 5,6-Dimethyl-1,10-phenanthroline
Formula: C 14 H 12 N 2
CAS: 3002-81-1
State: gas
Origin: EPA-IR VAPOR PHASE LIBRARY
1/CM	ABSORBANCE
501.5	0
513.074	0.000277
524.648	0.00030774
536.222	0.0004173
547.796	0.0002377
559.37	0.0002629
570.944	0.0001962
582.518	0.0003759
594.092	0.0006316
605.666	0.002288
617.24	0.003588
628.814	0.002468
640.388	0.001318
651.962	0.0012392
663.536	0.001738
675.11	0.0009612
686.684	0.0007445
698.258	0.0008451
709.832	0.0012709
721.406	0.003218
732.98	0.017658
744.554	0.017548
756.128	0.003098
767.702	0.001598
779.276	0.004128
790.85	0.018058
802.423	0.011788
813.997	0.002418
825.571	0.0010028
837.145	0.0009034
848.719	0.0008674
860.293	0.0012536
871.867	0.0012586
883.441	0.000828
895.015	0.0008249
906.589	0.0009834
918.163	0.0010411
929.737	0.001758
941.311	0.001568
952.885	0.0011231
964.459	0.0012556
976.033	0.001428
987.607	0.001618
999.181	0.001508
1010.76	0.001598
1022.33	0.001598
1033.9	0.002258
1045.48	0.001628
1057.05	0.002638
1068.63	0.004328
1080.2	0.003038
1091.77	0.002288
1103.35	0.004408
1114.92	0.003108
1126.49	0.001348
1138.07	0.0009652
1149.64	0.001668
1161.22	0.006418
1172.79	0.003808
1184.36	0.000927
1195.94	0.0004816
1207.51	0.0004606
1219.09	0.000586
1230.66	0.000633
1242.23	0.0007373
1253.81	0.0012403
1265.38	0.002568
1276.96	0.003508
1288.53	0.005168
1300.1	0.003248
1311.68	0.001308
1323.25	0.0012863
1334.83	0.001478
1346.4	0.002088
1357.97	0.001828
1369.55	0.002758
1381.12	0.004538
1392.7	0.006048
1404.27	0.005848
1415.84	0.014228
1427.42	0.020158
1438.99	0.007088
1450.57	0.004728
1462.14	0.005718
1473.71	0.012278
1485.29	0.010438
1496.86	0.008798
1508.44	0.007828
1520.01	0.004748
1531.58	0.003588
1543.16	0.004758
1554.73	0.011148
1566.31	0.007838
1577.88	0.005848
1589.45	0.008698
1601.03	0.010188
1612.6	0.004888
1624.18	0.002128
1635.75	0.001498
1647.32	0.001338
1658.9	0.0011764
1670.47	0.0011135
1682.05	0.0008674
1693.62	0.0008293
1705.19	0.0011021
1716.77	0.001368
1728.34	0.001558
1739.92	0.0011537
1751.49	0.0012503
1763.06	0.0011507
1774.64	0.0006942
1786.21	0.0005947
1797.79	0.0006939
1809.36	0.0006825
1820.93	0.0006618
1832.51	0.0006798
1844.08	0.0007605
1855.66	0.0012387
1867.23	0.001988
1878.8	0.001488
1890.38	0.001368
1901.95	0.001968
1913.53	0.001398
1925.1	0.001488
1936.67	0.002978
1948.25	0.001698
1959.82	0.0007895
1971.4	0.0007301
1982.97	0.0007017
1994.54	0.0006795
2006.12	0.0007226
2017.69	0.0007005
2029.27	0.0006564
2040.84	0.0006463
2052.41	0.0006492
2063.99	0.0006918
2075.56	0.0007112
2087.14	0.0007494
2098.71	0.0007217
2110.28	0.0006925
2121.86	0.0007062
2133.43	0.0007073
2145.01	0.0007203
2156.58	0.00068
2168.15	0.0006725
2179.73	0.0006965
2191.3	0.0006937
2202.88	0.0007767
2214.45	0.0008311
2226.02	0.0008053
2237.6	0.0006983
2249.17	0.0006697
2260.74	0.0007057
2272.32	0.0007291
2283.89	0.0006611
2295.47	0.000625
2307.04	0.0006388
2318.61	0.000661
2330.19	0.0006268
2341.76	0.0006555
2353.34	0.0006622
2364.91	0.0007432
2376.48	0.0007662
2388.06	0.0007804
2399.63	0.0007866
2411.21	0.0007667
2422.78	0.0007758
2434.35	0.0008463
2445.93	0.0008567
2457.5	0.0007965
2469.08	0.0007661
2480.65	0.0007415
2492.22	0.0007847
2503.8	0.0008346
2515.37	0.0008616
2526.95	0.0008116
2538.52	0.0007619
2550.09	0.0007205
2561.67	0.0007724
2573.24	0.0007775
2584.82	0.0008034
2596.39	0.0007999
2607.96	0.0008483
2619.54	0.0008566
2631.11	0.0008845
2642.69	0.0008424
2654.26	0.0007852
2665.83	0.0007921
2677.41	0.0007865
2688.98	0.0008364
2700.56	0.0008754
2712.13	0.0009502
2723.7	0.000982
2735.28	0.0011354
2746.85	0.0012159
2758.43	0.0011363
2770	0.0011375
2781.57	0.001082
2793.15	0.0011674
2804.72	0.001298
2816.3	0.001378
2827.87	0.001618
2839.44	0.001978
2851.02	0.002608
2862.59	0.003908
2874.17	0.006168
2885.74	0.007668
2897.31	0.007048
2908.89	0.006748
2920.46	0.008258
2932.04	0.011608
2943.61	0.013018
2955.18	0.009908
2966.76	0.007228
2978.33	0.006178
2989.91	0.006768
3001.48	0.008408
3013.05	0.011248
3024.63	0.015878
3036.2	0.017538
3047.78	0.013848
3059.35	0.012768
3070.92	0.015818
3082.5	0.021458
3094.07	0.009818
3105.65	0.003698
3117.22	0.002288
3128.79	0.001828
3140.37	0.001628
3151.94	0.001558
3163.52	0.001498
3175.09	0.001528
3186.66	0.001418
3198.24	0.0010755
3209.81	0.0009494
3221.39	0.0009122
3232.96	0.0008729
3244.53	0.0008357
3256.11	0.0008174
3267.68	0.0007463
3279.26	0.0008182
3290.83	0.0008317
3302.4	0.0008011
3313.98	0.0007945
3325.55	0.0007886
3337.13	0.0007877
3348.7	0.0007528
3360.27	0.0008403
3371.85	0.0007883
3383.42	0.0007606
3395	0.0007708
3406.57	0.0007704
3418.14	0.0007998
3429.72	0.0007891
3441.29	0.0007583
3452.86	0.000821
3464.44	0.0007793
3476.01	0.0008461
3487.59	0.0008178
3499.16	0.0007641
3510.73	0.00082
3522.31	0.0007779
3533.88	0.0008384
3545.46	0.0008555
3557.03	0.0007731
3568.6	0.0007159
3580.18	0.0007908
3591.75	0.0007821
3603.33	0.0008169
3614.9	0.0006884
3626.47	0.0007989
3638.05	0.0007241
3649.62	0.0008161
3661.2	0.0008392
3672.77	0.0007534
3684.34	0.0008792
3695.92	0.0008687
3707.49	0.0009222
3719.07	0.0008084
3730.64	0.000847
3742.21	0.0008506
3753.79	0.0008437
3765.36	0.0008475
3776.94	0.000811
3788.51	0.0008231
3800.08	0.0008129
3811.66	0.0008335
3823.23	0.0009451
3834.81	0.0009405
3846.38	0.0009153
3857.95	0.0009508
3869.53	0.0009379
3881.1	0.0010854
3892.68	0.0009455
3904.25	0.0009745
3915.82	0.0009212
3927.4	0.0009115
3938.97	0.0009008
3950.55	0.0008994
3962.12	0.0009659
3973.69	0.0009316
3985.27	0.0010168
3996.84	0.0009981
