Infrared Spectrum: 2-CHLORO-1,4-DIBENZAMIDO BENZENE
Formula: C20 H15 N2 Cl O2
CAS: 300360-38-7
State: SOLID (1.0% IN KBr PELLET)
Class: COBLENTZ
Instrument: Not specified, most likely a prism, grating, or hybrid spectrometer.
Sampling: TRANSMISSION
Path length: 0.0355 CM
Resolution: 4
Origin: ANDERSON PHYSICAL LABORATORY
1/CM	TRANSMITTANCE
669.159	0.697
677.57	0.689
685.981	0.5151
694.393	0.602
702.804	0.5411
711.215	0.7488
719.626	0.838
728.038	0.953
736.449	0.943
744.86	0.943
753.271	0.95
761.682	0.932
770.094	0.931
778.505	0.91
786.916	0.853
795.327	0.695
803.739	0.827
812.15	0.698
820.561	0.688
828.972	0.869
837.383	0.898
845.795	0.866
854.206	0.868
862.617	0.7822
871.028	0.8229
879.44	0.877
887.851	0.82
896.262	0.815
904.673	0.805
913.084	0.877
921.496	0.877
929.907	0.833
938.318	0.815
946.729	0.889
955.141	0.905
963.552	0.908
971.963	0.899
980.374	0.892
988.785	0.887
997.197	0.881
1005.61	0.851
1014.02	0.869
1022.43	0.862
1030.84	0.76
1039.25	0.847
1047.66	0.848
1056.08	0.697
1064.49	0.85
1072.9	0.796
1081.31	0.733
1089.72	0.832
1098.13	0.847
1106.54	0.808
1114.95	0.8
1123.36	0.788
1131.78	0.835
1140.19	0.835
1148.6	0.821
1157.01	0.82
1165.42	0.803
1173.83	0.805
1182.24	0.779
1190.65	0.746
1199.07	0.757
1207.48	0.751
1215.89	0.697
1224.3	0.677
1232.71	0.736
1241.12	0.685
1249.53	0.58
1257.94	0.524
1266.36	0.602
1274.77	0.587
1283.18	0.595
1291.59	0.542
1300	0.43
1308.41	0.368
1316.82	0.238
1325.23	0.365
1333.65	0.593
1342.06	0.706
1350.47	0.728
1358.88	0.733
1367.29	0.703
1375.7	0.643
1384.11	0.52
1392.52	0.332
1400.94	0.344
1409.35	0.437
1417.76	0.79
1426.17	0.817
1434.58	0.812
1442.99	0.769
1451.4	0.68
1459.81	0.712
1468.23	0.697
1476.64	0.635
1485.05	0.58
1493.46	0.514
1501.87	0.415
1510.28	0.365
1518.69	0.319
1527.1	0.229
1535.51	0.122
1543.93	0.059
1552.34	0.2319
1560.75	0.443
1569.16	0.71
1577.57	0.721
1585.98	0.593
1594.39	0.725
1602.8	0.6291
1611.22	0.664
1619.63	0.676
1628.04	0.622
1636.45	0.481
1644.86	0.235
1653.27	0.172
1661.68	0.256
1670.09	0.475
1678.51	0.637
1686.92	0.7359
1695.33	0.812
1703.74	0.856
1712.15	0.893
1720.56	0.904
1728.97	0.905
1737.38	0.907
1745.8	0.911
1754.21	0.914
1762.62	0.913
1771.03	0.898
1779.44	0.919
1787.85	0.929
1796.26	0.932
1804.67	0.932
1813.09	0.928
1821.5	0.929
1829.91	0.935
1838.32	0.934
1846.73	0.938
1855.14	0.935
1863.55	0.931
1871.96	0.929
1880.37	0.923
1888.79	0.913
1897.2	0.91
1905.61	0.914
1914.02	0.914
1922.43	0.917
1930.84	0.919
1939.25	0.914
1947.66	0.913
1956.08	0.904
1964.49	0.898
1972.9	0.896
1981.31	0.901
1989.72	0.901
1998.13	0.901
2006.54	0.8995
2014.95	0.899
2023.37	0.8988
2031.78	0.898
2040.19	0.896
2048.6	0.895
2057.01	0.8928
2065.42	0.8911
2073.83	0.8893
2082.24	0.887
2090.66	0.8856
2099.07	0.884
2107.48	0.8816
2115.89	0.8781
2124.3	0.877
2132.71	0.875
2141.12	0.8743
2149.53	0.872
2157.95	0.8707
2166.36	0.8686
2174.77	0.868
2183.18	0.866
2191.59	0.8647
2200	0.8612
2208.41	0.8577
2216.82	0.857
2225.24	0.856
2233.65	0.856
2242.06	0.854
2250.47	0.8531
2258.88	0.85
2267.29	0.848
2275.7	0.8474
2284.11	0.8453
2292.52	0.8438
2300.94	0.841
2309.35	0.8362
2317.76	0.824
2326.17	0.8073
2334.58	0.797
2342.99	0.7996
2351.4	0.8
2359.81	0.782
2368.23	0.7829
2376.64	0.7951
2385.05	0.8082
2393.46	0.82
2401.87	0.8194
2410.28	0.8154
2418.69	0.8124
2427.1	0.811
2435.52	0.811
2443.93	0.8095
2452.34	0.8065
2460.75	0.806
2469.16	0.805
2477.57	0.803
2485.98	0.7997
2494.39	0.799
2502.81	0.7955
2511.22	0.7935
2519.63	0.7915
2528.04	0.79
2536.45	0.7865
2544.86	0.784
2553.27	0.7813
2561.68	0.781
2570.1	0.778
2578.51	0.776
2586.92	0.775
2595.33	0.773
2603.74	0.7662
2612.15	0.7621
2620.56	0.76
2628.97	0.76
2637.38	0.7578
2645.8	0.757
2654.21	0.755
2662.62	0.755
2671.03	0.754
2679.44	0.754
2687.85	0.754
2696.26	0.7522
2704.67	0.7486
2713.09	0.7442
2721.5	0.7424
2729.91	0.7402
2738.32	0.7399
2746.73	0.7359
2755.14	0.7318
2763.55	0.7274
2771.96	0.724
2780.38	0.7217
2788.79	0.7198
2797.2	0.719
2805.61	0.7177
2814.02	0.7143
2822.43	0.713
2830.84	0.712
2839.25	0.709
2847.67	0.707
2856.08	0.706
2864.49	0.7044
2872.9	0.7
2881.31	0.698
2889.72	0.698
2898.13	0.697
2906.54	0.695
2914.96	0.6911
2923.37	0.6844
2931.78	0.6822
2940.19	0.68
2948.6	0.6797
2957.01	0.679
2965.42	0.674
2973.83	0.67
2982.24	0.6672
2990.66	0.6605
2999.07	0.6528
3007.48	0.6371
3015.89	0.628
3024.3	0.6196
3032.71	0.6146
3041.12	0.61
3049.53	0.6078
3057.95	0.607
3066.36	0.607
3074.77	0.608
3083.18	0.6084
3091.59	0.6119
3100	0.6181
3108.41	0.622
3116.82	0.6185
3125.24	0.6106
3133.65	0.605
3142.06	0.602
3150.47	0.598
3158.88	0.5956
3167.29	0.5823
3175.7	0.5696
3184.11	0.5583
3192.53	0.5464
3200.94	0.5351
3209.35	0.516
3217.76	0.4945
3226.17	0.4693
3234.58	0.4435
3242.99	0.4192
3251.4	0.3882
3259.82	0.3627
3268.23	0.3406
3276.64	0.3267
3285.05	0.3251
3293.46	0.3294
3301.87	0.3463
3310.28	0.3683
3318.69	0.3927
3327.11	0.4126
3335.52	0.4506
3343.93	0.4872
3352.34	0.5133
3360.75	0.5468
3369.16	0.5642
3377.57	0.5738
3385.98	0.5811
3394.39	0.5846
3402.81	0.586
3411.22	0.586
3419.63	0.586
3428.04	0.5854
3436.45	0.5835
3444.86	0.581
3453.27	0.58
3461.68	0.58
3470.1	0.581
3478.51	0.584
3486.92	0.586
3495.33	0.587
3503.74	0.589
3512.15	0.59
3520.56	0.592
3528.97	0.593
3537.39	0.593
3545.8	0.5957
3554.21	0.598
3562.62	0.601
3571.03	0.6045
3579.44	0.6098
3587.85	0.613
3596.26	0.614
3604.68	0.614
3613.09	0.614
3621.5	0.616
3629.91	0.6174
3638.32	0.6208
3646.73	0.627
3655.14	0.6338
3663.55	0.635
3671.97	0.635
3680.38	0.6344
3688.79	0.632
3697.2	0.631
3705.61	0.6322
3714.02	0.634
3722.43	0.634
3730.84	0.634
3739.25	0.6333
3747.67	0.6279
3756.08	0.6224
3764.49	0.6199
3772.9	0.619
3781.31	0.6226
3789.72	0.623
3798.13	0.6218
3806.54	0.6183
3814.96	0.617
3823.37	0.616
3831.78	0.614
3840.19	0.614
3848.6	0.613
3857.01	0.6114
3865.42	0.611
3873.83	0.6094
3882.25	0.6074
3890.66	0.607
3899.07	0.605
3907.48	0.605
3915.89	0.6045
3924.3	0.604
3932.71	0.602
3941.12	0.6017
3949.54	0.601
3957.95	0.601
3966.36	0.601
