Infrared Spectrum: Alpha,Alpha,Alpha,M-TETRACHLOROACETANILIDE
Formula: C8 H5 Cl4 N O
CAS: 3004-73-7
State: SOLID (MINERAL OIL MULL)
Class: COBLENTZ
Instrument: Not specified, most likely a prism, grating, or hybrid spectrometer.
Sampling: TRANSMISSION
Resolution: 4
Origin: DOW CHEMICAL COMPANY
MICROMETERS	TRANSMITTANCE
2.033	0.588
2.0731	0.598
2.11319	0.603
2.15329	0.608
2.19338	0.613
2.23348	0.615
2.27357	0.616
2.31367	0.62
2.35377	0.631
2.39386	0.636
2.43396	0.646
2.47405	0.66
2.51415	0.666
2.55424	0.673
2.59434	0.681
2.63444	0.688
2.67453	0.695
2.71463	0.698
2.75472	0.7
2.79482	0.703
2.83491	0.71
2.87501	0.715
2.91511	0.71
2.9552	0.678
2.9953	0.428
3.03539	0.238
3.07549	0.436
3.11558	0.541
3.15568	0.586
3.19578	0.558
3.23587	0.583
3.27597	0.565
3.31606	0.505
3.35616	0.175
3.39625	0.09
3.43635	0.195
3.47645	0.228
3.51654	0.673
3.55664	0.72
3.59673	0.731
3.63683	0.733
3.67692	0.748
3.71702	0.746
3.75712	0.765
3.79721	0.77
3.83731	0.778
3.8774	0.79
3.9175	0.79
3.95759	0.796
3.99769	0.801
4.03779	0.803
4.07788	0.81
4.11798	0.806
4.15807	0.808
4.19817	0.811
4.23826	0.82
4.27836	0.823
4.31846	0.823
4.35855	0.825
4.39865	0.831
4.43874	0.833
4.47884	0.835
4.51893	0.836
4.55903	0.838
4.59913	0.841
4.63922	0.841
4.67932	0.841
4.71941	0.845
4.75951	0.848
4.7996	0.853
4.8397	0.856
4.8798	0.856
4.91989	0.86
4.95999	0.861
5.00008	0.863
5.04018	0.863
5.08027	0.865
5.12037	0.863
5.16047	0.85
5.20056	0.871
5.24066	0.866
5.28075	0.866
5.32085	0.87
5.36094	0.863
5.40104	0.871
5.44114	0.873
5.48123	0.87
5.52133	0.863
5.56142	0.853
5.60152	0.856
5.64161	0.85
5.68171	0.806
5.72181	0.798
5.7619	0.771
5.802	0.723
5.84209	0.376
5.88219	0.123
5.92228	0.141
5.96238	0.495
6.00248	0.603
6.04257	0.681
6.08267	0.73
6.12276	0.743
6.16286	0.711
6.20295	0.508
6.24305	0.233
6.28315	0.601
6.32324	0.696
6.36334	0.705
6.40343	0.665
6.44353	0.526
6.48362	0.283
6.52372	0.245
6.56382	0.496
6.60391	0.631
6.64401	0.691
6.6841	0.645
6.7242	0.501
6.76429	0.425
6.80439	0.383
6.84449	0.433
6.88458	0.461
6.92468	0.511
6.96477	0.286
7.00487	0.37
7.04496	0.55
7.08506	0.571
7.12516	0.671
7.16525	0.665
7.20535	0.566
7.24544	0.521
7.28554	0.625
7.32563	0.67
7.36573	0.678
7.40583	0.681
7.44592	0.696
7.48602	0.718
7.52611	0.718
7.56621	0.715
7.6063	0.701
7.6464	0.696
7.6865	0.723
7.72659	0.69
7.76669	0.515
7.80678	0.615
7.84688	0.738
7.88697	0.741
7.92707	0.7
7.96717	0.568
8.00726	0.623
8.04736	0.696
8.08745	0.74
8.12755	0.703
8.16764	0.676
8.20774	0.496
8.24784	0.561
8.28793	0.706
8.32803	0.751
8.36812	0.761
8.40822	0.775
8.44831	0.78
8.48841	0.776
8.52851	0.763
8.5686	0.75
8.6087	0.785
8.64879	0.786
8.68889	0.783
8.72898	0.786
8.76908	0.788
8.80918	0.79
8.84927	0.783
8.88937	0.78
8.92946	0.775
8.96956	0.768
9.00965	0.761
9.04975	0.746
9.08985	0.655
9.12994	0.645
9.17004	0.726
9.21013	0.746
9.25023	0.698
9.29032	0.681
9.33042	0.765
9.37052	0.781
9.41061	0.786
9.45071	0.8
9.4908	0.808
9.5309	0.811
9.57099	0.81
9.61109	0.813
9.65119	0.818
9.69128	0.821
9.73138	0.83
9.77147	0.835
9.81157	0.838
9.85166	0.841
9.89176	0.84
9.93186	0.82
9.97195	0.746
10.012	0.746
10.0521	0.856
10.0922	0.843
10.1323	0.845
10.1724	0.831
10.2125	0.795
10.2526	0.803
10.2927	0.82
10.3328	0.821
10.3729	0.85
10.413	0.853
10.4531	0.858
10.4932	0.86
10.5333	0.86
10.5734	0.856
10.6135	0.853
10.6536	0.843
10.6937	0.83
10.7338	0.785
10.7739	0.716
10.814	0.52
10.8541	0.425
10.8942	0.646
10.9342	0.773
10.9743	0.816
11.0144	0.833
11.0545	0.84
11.0946	0.825
11.1347	0.798
11.1748	0.808
11.2149	0.825
11.255	0.821
11.2951	0.776
11.3352	0.665
11.3753	0.431
11.4154	0.626
11.4555	0.78
11.4956	0.801
11.5357	0.811
11.5758	0.811
11.6159	0.808
11.656	0.79
11.6961	0.771
11.7362	0.751
11.7763	0.705
11.8164	0.611
11.8565	0.445
11.8965	0.251
11.9366	0.12
11.9767	0.121
12.0168	0.205
12.0569	0.271
12.097	0.236
12.1371	0.161
12.1772	0.185
12.2173	0.365
12.2574	0.546
12.2975	0.626
12.3376	0.685
12.3777	0.715
12.4178	0.733
12.4579	0.75
12.498	0.758
12.5381	0.736
12.5782	0.681
12.6183	0.51
12.6584	0.36
12.6985	0.368
12.7386	0.556
12.7787	0.618
12.8187	0.64
12.8588	0.611
12.8989	0.521
12.939	0.373
12.9791	0.245
13.0192	0.215
13.0593	0.351
13.0994	0.535
13.1395	0.623
13.1796	0.673
13.2197	0.706
13.2598	0.73
13.2999	0.741
13.34	0.745
13.3801	0.75
13.4202	0.75
13.4603	0.741
13.5004	0.736
13.5405	0.731
13.5806	0.728
13.6207	0.725
13.6608	0.718
13.7009	0.713
13.7409	0.703
13.781	0.695
13.8211	0.686
13.8612	0.685
13.9013	0.685
13.9414	0.685
13.9815	0.686
14.0216	0.681
14.0617	0.673
14.1018	0.663
14.1419	0.655
14.182	0.646
14.2221	0.631
14.2622	0.618
14.3023	0.603
14.3424	0.588
14.3825	0.568
14.4226	0.536
14.4627	0.49
14.5028	0.435
14.5429	0.406
14.583	0.398
14.6231	0.386
14.6632	0.355
14.7032	0.295
14.7433	0.261
14.7834	0.25
14.8235	0.255
14.8636	0.263
14.9037	0.266
14.9438	0.268
14.9839	0.27
15.024	0.25
15.0641	0.241
15.1042	0.238
15.1443	0.238
15.1844	0.24
15.2245	0.246
15.2646	0.26
15.3047	0.271
15.3448	0.285
15.3849	0.301
15.425	0.32
15.4651	0.33
15.5052	0.345
15.5453	0.353
15.5854	0.356
15.6254	0.36
15.6655	0.363
15.7056	0.366
15.7457	0.371
15.7858	0.375
15.8259	0.38
15.866	0.38
15.9061	0.38
