Infrared Spectrum: Germane, bromotriphenyl-
Formula: C18 H15 Br Ge
CAS: 3005-32-1
State: SOLUTION (10% CCl4 FOR 3800-1330, 10% CS2 FOR 1330-470 CM^-^1) VS SOLVENT
Class: COBLENTZ II
Instrument: DOW KBr FOREPRISM-GRATING
Instrument parameters: BLAZED AT 3.5, 12.0, 20.0 MICRON AND CHANGED AT 5.0, 7.5, 14.9 MICRON
Sampling: TRANSMISSION
Path length: 0.011 CM, 0.011 CM
Resolution: 2
Origin: DOW CHEMICAL COMPANY
1/CM	TRANSMITTANCE
3800	0.8449
3791	0.8441
3782	0.8433
3773	0.8435
3764	0.8452
3755	0.8458
3746	0.8447
3737	0.8432
3728	0.842
3719	0.8415
3710	0.8416
3701	0.842
3692	0.842
3683	0.8425
3674	0.8451
3665	0.8485
3656	0.8468
3647	0.8451
3638	0.8441
3629	0.8433
3620	0.8453
3611	0.8485
3602	0.8482
3593	0.847
3584	0.8484
3575	0.8496
3566	0.8509
3557	0.8512
3548	0.851
3539	0.8506
3530	0.8499
3521	0.8481
3512	0.8473
3503	0.8473
3494	0.8475
3485	0.8475
3476	0.8471
3467	0.8465
3458	0.8461
3449	0.8458
3440	0.8458
3431	0.8458
3422	0.8458
3413	0.8457
3404	0.8455
3395	0.8452
3386	0.845
3377	0.8448
3368	0.8445
3359	0.8446
3350	0.8448
3341	0.8449
3332	0.8451
3323	0.8451
3314	0.845
3305	0.8449
3296	0.8448
3287	0.8444
3278	0.8438
3269	0.8432
3260	0.8425
3251	0.8421
3242	0.8418
3233	0.8414
3224	0.8411
3215	0.8409
3206	0.8407
3197	0.8403
3188	0.84
3179	0.8396
3170	0.839
3161	0.8374
3152	0.8249
3143	0.8111
3134	0.8259
3125	0.829
3116	0.8286
3107	0.8178
3098	0.7693
3089	0.6732
3080	0.459
3071	0.5632
3062	0.4823
3053	0.5522
3044	0.7191
3035	0.6989
3026	0.7272
3017	0.7201
3008	0.7068
2999	0.7591
2990	0.8011
2981	0.8128
2972	0.8194
2963	0.8243
2954	0.8289
2945	0.8324
2936	0.8347
2927	0.8323
2918	0.8234
2909	0.8308
2900	0.837
2891	0.8408
2882	0.8431
2873	0.8439
2864	0.8423
2855	0.8391
2846	0.8406
2837	0.8425
2828	0.8444
2819	0.8461
2810	0.8478
2801	0.8492
2792	0.8506
2783	0.8516
2774	0.8525
2765	0.8534
2756	0.8536
2747	0.8538
2738	0.8543
2729	0.8547
2720	0.8545
2711	0.8542
2702	0.8538
2693	0.853
2684	0.8493
2675	0.8388
2666	0.8465
2657	0.8496
2648	0.851
2639	0.8521
2630	0.8528
2621	0.8527
2612	0.8473
2603	0.8483
2594	0.8496
2585	0.8483
2576	0.8483
2567	0.8516
2558	0.8551
2549	0.8554
2540	0.8554
2531	0.8556
2522	0.8561
2513	0.8568
2504	0.8577
2495	0.8586
2486	0.8594
2477	0.8599
2468	0.8603
2459	0.8606
2450	0.8614
2441	0.8618
2432	0.8623
2423	0.8625
2414	0.8628
2405	0.8628
2396	0.8628
2387	0.863
2378	0.8631
2369	0.8628
2360	0.8627
2351	0.8627
2342	0.8627
2333	0.8627
2324	0.8621
2315	0.8644
2306	0.87
2297	0.8705
2288	0.8707
2279	0.8708
2270	0.8712
2261	0.8718
2252	0.8749
2243	0.8801
2234	0.8817
2225	0.8824
2216	0.8824
2207	0.8823
2198	0.882
2189	0.8746
2180	0.8788
2171	0.8863
2162	0.8871
2153	0.8874
2144	0.8875
2135	0.8877
2126	0.8881
2117	0.8884
2108	0.8887
2099	0.889
2090	0.8894
2081	0.8897
2072	0.89
2063	0.8903
2054	0.8906
2045	0.8909
2036	0.8909
2027	0.8896
2018	0.8889
2009	0.8908
2000	0.8935
1991	0.8846
1982	0.8636
1973	0.8465
1964	0.844
1955	0.8373
1946	0.875
1937	0.8847
1928	0.8881
1919	0.8821
1910	0.8477
1901	0.849
1892	0.8233
1883	0.8497
1874	0.8765
1865	0.884
1856	0.8878
1847	0.8803
1838	0.8601
1829	0.8484
1820	0.7997
1811	0.8658
1802	0.881
1793	0.8836
1784	0.8787
1775	0.8584
1766	0.8451
1757	0.8744
1748	0.8799
1739	0.8791
1730	0.8777
1721	0.8771
1712	0.8783
1703	0.8785
1694	0.8796
1685	0.8804
1676	0.8809
1667	0.8768
1658	0.8456
1649	0.848
1640	0.8792
1631	0.8857
1622	0.8786
1613	0.8804
1604	0.8882
1595	0.8743
1586	0.8454
1577	0.8708
1568	0.895
1559	0.9025
1550	0.8936
1541	0.8911
1532	0.8925
1523	0.8935
1514	0.8911
1505	0.8858
1496	0.8727
1487	0.5673
1478	0.8701
1469	0.8766
1460	0.8709
1451	0.8515
1442	0.7771
1433	0.0954
1424	0.7807
1415	0.8596
1406	0.8752
1397	0.8814
1388	0.8768
1379	0.8357
1370	0.8724
1361	0.8828
1352	0.8863
1343	0.8698
1334	0.7432
1325	0.8654
1316	0.8278
1307	0.7405
1298	0.8341
1289	0.8794
1280	0.8846
1271	0.8466
1262	0.8789
1253	0.8881
1244	0.8894
1235	0.8907
1226	0.8911
1217	0.8904
1208	0.8868
1199	0.8689
1190	0.7793
1181	0.82
1172	0.8518
1163	0.8397
1154	0.8447
1145	0.8682
1136	0.8814
1127	0.8887
1118	0.8878
1109	0.8756
1100	0.5875
1091	0.1437
1082	0.8612
1073	0.8649
1064	0.8284
1055	0.8854
1046	0.8916
1037	0.8906
1028	0.6268
1019	0.877
1010	0.8735
1001	0.456
992	0.8612
983	0.8571
974	0.8561
965	0.8609
956	0.8706
947	0.8734
938	0.8732
929	0.8678
920	0.8577
911	0.8418
902	0.8653
893	0.8741
884	0.8773
875	0.8747
866	0.8678
857	0.8577
848	0.8478
839	0.8667
830	0.8771
821	0.8806
812	0.882
803	0.8832
794	0.8839
785	0.8827
776	0.8758
767	0.8628
758	0.844
749	0.7235
740	0.2202
731	0.1836
722	0.7721
713	0.7208
704	0.3218
695	0.0263
686	0.6695
677	0.6561
668	0.7851
659	0.8506
650	0.8654
641	0.8791
632	0.881
623	0.8712
614	0.8824
605	0.8887
596	0.8925
587	0.8957
578	0.8968
569	0.8971
560	0.8998
551	0.9037
542	0.9045
533	0.9045
524	0.9035
515	0.9025
506	0.9001
497	0.8952
488	0.8812
479	0.8005
