Infrared Spectrum: HEXANEPEROXOIC ACID, 2-ETHYL-, 1,1-DIMETHYLETHYL ESTER
Formula: C12 H24 O3
CAS: 3006-82-4
State: LIQUID (NEAT)
Class: COBLENTZ III
Instrument: PERKIN-ELMER 521 (GRATING)
Instrument parameters: FILTERS AT 3150, 2500, 2000, 1150, 700, 410; GRATING CHANGES AT 2000, 630 CM^-^1
Sampling: TRANSMISSION
Path length: SMEAR
Resolution: 4
Origin: STANDARD OIL OF OHIO
1/CM	TRANSMITTANCE
620.27	0.837
629.729	0.842
639.189	0.851
648.648	0.864
658.108	0.883
667.567	0.885
677.027	0.9
686.486	0.913
695.946	0.92
705.405	0.918
714.865	0.893
724.324	0.8341
733.784	0.812
743.243	0.822
752.703	0.81
762.162	0.8999
771.622	0.903
781.081	0.898
790.541	0.873
800	0.842
809.46	0.851
818.919	0.912
828.379	0.893
837.838	0.851
847.298	0.7222
856.757	0.56
866.216	0.7849
875.676	0.876
885.135	0.885
894.595	0.878
904.054	0.869
913.514	0.8421
922.973	0.844
932.433	0.837
941.892	0.78
951.352	0.773
960.811	0.8
970.271	0.8359
979.73	0.878
989.19	0.883
998.649	0.869
1008.11	0.8091
1017.57	0.701
1027.03	0.618
1036.49	0.6349
1045.95	0.614
1055.41	0.449
1064.87	0.2633
1074.33	0.194
1083.78	0.211
1093.24	0.415
1102.7	0.505
1112.16	0.506
1121.62	0.464
1131.08	0.4938
1140.54	0.6061
1150	0.532
1159.46	0.5639
1168.92	0.611
1178.38	0.4811
1187.84	0.342
1197.3	0.3897
1206.76	0.6519
1216.22	0.711
1225.68	0.775
1235.14	0.7091
1244.6	0.548
1254.06	0.645
1263.51	0.559
1272.97	0.7749
1282.43	0.8
1291.89	0.836
1301.35	0.849
1310.81	0.856
1320.27	0.851
1329.73	0.829
1339.19	0.809
1348.65	0.79
1358.11	0.6632
1367.57	0.3017
1377.03	0.586
1386.49	0.56
1395.95	0.7829
1405.41	0.859
1414.87	0.868
1424.33	0.849
1433.79	0.804
1443.24	0.6382
1452.7	0.4813
1462.16	0.407
1471.62	0.562
1481.08	0.7827
1490.54	0.871
1500	0.9
1509.46	0.913
1518.92	0.917
1528.38	0.923
1537.84	0.929
1547.3	0.932
1556.76	0.935
1566.22	0.935
1575.68	0.937
1585.14	0.935
1594.6	0.934
1604.06	0.932
1613.52	0.932
1622.97	0.932
1632.43	0.929
1641.89	0.93
1651.35	0.934
1660.81	0.929
1670.27	0.927
1679.73	0.918
1689.19	0.915
1698.65	0.907
1708.11	0.89
1717.57	0.859
1727.03	0.8001
1736.49	0.761
1745.95	0.684
1755.41	0.5449
1764.87	0.1721
1774.33	0.052
1783.79	0.28
1793.25	0.6647
1802.7	0.756
1812.16	0.758
1821.62	0.8459
1831.08	0.891
1840.54	0.908
1850	0.918
1859.46	0.927
1868.92	0.932
1878.38	0.935
1887.84	0.942
1897.3	0.942
1906.76	0.944
1916.22	0.944
1925.68	0.944
1935.14	0.944
1944.6	0.944
1954.06	0.947
1963.52	0.947
1972.98	0.951
1982.44	0.947
1991.89	0.949
2001.35	0.947
2010.81	0.945
2020.27	0.946
2029.73	0.947
2039.19	0.947
2048.65	0.9489
2058.11	0.949
2067.57	0.9509
2077.03	0.9515
2086.49	0.952
2095.95	0.9461
2105.41	0.9391
2114.87	0.937
2124.33	0.9419
2133.79	0.944
2143.25	0.944
2152.71	0.947
2162.17	0.951
2171.62	0.952
2181.08	0.952
2190.54	0.9502
2200	0.9472
2209.46	0.945
2218.92	0.9468
2228.38	0.9498
2237.84	0.951
2247.3	0.949
2256.76	0.947
2266.22	0.9463
2275.68	0.9423
2285.14	0.945
2294.6	0.947
2304.06	0.945
2313.52	0.945
2322.98	0.9497
2332.44	0.952
2341.9	0.9474
2351.35	0.94
2360.81	0.944
2370.27	0.947
2379.73	0.9464
2389.19	0.9424
2398.65	0.942
2408.11	0.942
2417.57	0.944
2427.03	0.947
2436.49	0.947
2445.95	0.9485
2455.41	0.947
2464.87	0.949
2474.33	0.949
2483.79	0.951
2493.25	0.952
2502.71	0.951
2512.17	0.949
2521.63	0.949
2531.08	0.949
2540.54	0.947
2550	0.947
2559.46	0.945
2568.92	0.9436
2578.38	0.942
2587.84	0.942
2597.3	0.9406
2606.76	0.9366
2616.22	0.935
2625.68	0.9342
2635.14	0.935
2644.6	0.935
2654.06	0.932
2663.52	0.9287
2672.98	0.927
2682.44	0.9292
2691.9	0.93
2701.36	0.9284
2710.82	0.9157
2720.27	0.913
2729.73	0.91
2739.19	0.9133
2748.65	0.9176
2758.11	0.9198
2767.57	0.9158
2777.03	0.908
2786.49	0.9024
2795.95	0.8927
2805.41	0.8751
2814.87	0.8572
2824.33	0.8341
2833.79	0.7953
2843.25	0.6873
2852.71	0.3932
2862.17	0.3513
2871.63	0.314
2881.09	0.4838
2890.55	0.4874
2900	0.4039
2909.46	0.3231
2918.92	0.2361
2928.38	0.1497
2937.84	0.1753
2947.3	0.2104
2956.76	0.1502
2966.22	0.1551
2975.68	0.198
2985.14	0.2552
2994.6	0.5436
3004.06	0.7769
3013.52	0.8474
3022.98	0.8729
3032.44	0.8919
3041.9	0.9029
3051.36	0.9109
3060.82	0.9149
3070.28	0.917
3079.73	0.9218
3089.19	0.9295
3098.65	0.9319
3108.11	0.93
3117.57	0.93
3127.03	0.9279
3136.49	0.929
3145.95	0.929
3155.41	0.929
3164.87	0.923
3174.33	0.927
3183.79	0.929
3193.25	0.93
3202.71	0.932
3212.17	0.932
3221.63	0.932
3231.09	0.934
3240.55	0.9381
3250.01	0.942
3259.46	0.944
3268.92	0.944
3278.38	0.944
3287.84	0.9467
3297.3	0.9463
3306.76	0.944
3316.22	0.942
3325.68	0.942
3335.14	0.942
3344.6	0.9436
3354.06	0.944
3363.52	0.944
3372.98	0.942
3382.44	0.942
3391.9	0.944
3401.36	0.9442
3410.82	0.944
3420.28	0.942
3429.74	0.942
3439.19	0.944
3448.65	0.9455
3458.11	0.945
3467.57	0.945
3477.03	0.9442
3486.49	0.944
3495.95	0.9393
3505.41	0.9313
3514.87	0.9208
3524.33	0.918
3533.79	0.9222
3543.25	0.9342
3552.71	0.9414
3562.17	0.9448
3571.63	0.94
3581.09	0.9478
3590.55	0.952
3600.01	0.952
3609.47	0.952
3618.93	0.952
3628.38	0.952
3637.84	0.954
3647.3	0.954
3656.76	0.9562
3666.22	0.956
3675.68	0.957
3685.14	0.957
3694.6	0.959
3704.06	0.961
3713.52	0.961
3722.98	0.961
3732.44	0.9607
3741.9	0.959
3751.36	0.961
3760.82	0.961
3770.28	0.961
3779.74	0.961
3789.2	0.959
3798.66	0.959
3808.11	0.959
3817.57	0.961
3827.03	0.961
3836.49	0.961
3845.95	0.9608
3855.41	0.961
3864.87	0.961
3874.33	0.961
3883.79	0.961
3893.25	0.961
