Infrared Spectrum: N,N-Dimethyldodecaneamide
Formula: C 14 H 29 N O
CAS: 3007-53-2
State: gas
Origin: EPA-IR VAPOR PHASE LIBRARY
1/CM	ABSORBANCE
551.7	0.00153
563.274	0.00209
574.848	0.00289
586.421	0.00298
597.995	0.00348
609.569	0.0039
621.143	0.00218
632.717	0.00112
644.291	0.0008357
655.864	0.0008436
667.438	0.00101
679.012	0.00131
690.586	0.0021
702.16	0.00342
713.734	0.00545
725.307	0.00576
736.881	0.00473
748.455	0.00372
760.029	0.00341
771.603	0.00319
783.177	0.00285
794.75	0.0025
806.324	0.00231
817.898	0.00207
829.472	0.00201
841.046	0.00206
852.619	0.00205
864.193	0.00215
875.767	0.00221
887.341	0.00228
898.915	0.00234
910.489	0.00245
922.062	0.00256
933.636	0.00283
945.21	0.00358
956.784	0.00489
968.358	0.00573
979.932	0.00582
991.505	0.00631
1003.08	0.0072
1014.65	0.00856
1026.23	0.0108
1037.8	0.01518
1049.37	0.02037
1060.95	0.02188
1072.52	0.02072
1084.1	0.02174
1095.67	0.02659
1107.24	0.03101
1118.82	0.03143
1130.39	0.03832
1141.97	0.04498
1153.54	0.03704
1165.11	0.02897
1176.69	0.02312
1188.26	0.01826
1199.83	0.01453
1211.41	0.0126
1222.98	0.0122
1234.56	0.01319
1246.13	0.01859
1257.7	0.02814
1269.28	0.03106
1280.85	0.02171
1292.42	0.01769
1304	0.01933
1315.57	0.02319
1327.15	0.02661
1338.72	0.02936
1350.29	0.03584
1361.87	0.04456
1373.44	0.06467
1385.02	0.09825
1396.59	0.09726
1408.16	0.0659
1419.74	0.04467
1431.31	0.03606
1442.88	0.04759
1454.46	0.0696
1466.03	0.06569
1477.61	0.0437
1489.18	0.03106
1500.75	0.025
1512.33	0.02126
1523.9	0.01892
1535.48	0.01726
1547.05	0.01528
1558.62	0.01301
1570.2	0.01108
1581.77	0.00945
1593.34	0.00846
1604.92	0.00828
1616.49	0.00956
1628.07	0.01344
1639.64	0.02235
1651.21	0.04288
1662.79	0.09946
1674.36	0.20951
1685.93	0.20997
1697.51	0.0894
1709.08	0.03325
1720.66	0.01527
1732.23	0.00887
1743.8	0.00589
1755.38	0.00448
1766.95	0.00357
1778.53	0.00303
1790.1	0.00259
1801.67	0.0022
1813.25	0.00194
1824.82	0.00169
1836.39	0.00154
1847.97	0.00141
1859.54	0.00135
1871.12	0.00126
1882.69	0.00123
1894.26	0.00118
1905.84	0.00118
1917.41	0.00114
1928.99	0.00109
1940.56	0.000957
1952.13	0.0009443
1963.71	0.0008949
1975.28	0.0009216
1986.85	0.0009851
1998.43	0.00101
2010	0.00107
2021.58	0.00116
2033.15	0.00125
2044.72	0.0013
2056.3	0.00128
2067.87	0.00134
2079.44	0.00129
2091.02	0.00126
2102.59	0.00124
2114.17	0.00125
2125.74	0.0012
2137.31	0.00126
2148.89	0.0013
2160.46	0.00129
2172.04	0.00129
2183.61	0.00135
2195.18	0.00131
2206.76	0.00137
2218.33	0.0013
2229.9	0.00119
2241.48	0.00114
2253.05	0.0011
2264.63	0.00106
2276.2	0.0009815
2287.77	0.00105
2299.35	0.00102
2310.92	0.00103
2322.5	0.00109
2334.07	0.00104
2345.64	0.00108
2357.22	0.00105
2368.79	0.00106
2380.36	0.00111
2391.94	0.00112
2403.51	0.00116
2415.09	0.00115
2426.66	0.00114
2438.23	0.0012
2449.81	0.0012
2461.38	0.00123
2472.96	0.00126
2484.53	0.00129
2496.1	0.0014
2507.68	0.00158
2519.25	0.00173
2530.82	0.00185
2542.4	0.0019
2553.97	0.00204
2565.55	0.00206
2577.12	0.00218
2588.69	0.00237
2600.27	0.00254
2611.84	0.00275
2623.41	0.00299
2634.99	0.00331
2646.56	0.0036
2658.14	0.00395
2669.71	0.00442
2681.28	0.00466
2692.86	0.00473
2704.43	0.00465
2716.01	0.00483
2727.58	0.00528
2739.15	0.00592
2750.73	0.0066
2762.3	0.00761
2773.87	0.00937
2785.45	0.01218
2797.02	0.01607
2808.6	0.02099
2820.17	0.02672
2831.74	0.03502
2843.32	0.05403
2854.89	0.11141
2866.47	0.14532
2878.04	0.11615
2889.61	0.10782
2901.19	0.13137
2912.76	0.19413
2924.33	0.31346
2935.91	0.3567
2947.48	0.2316
2959.06	0.15851
2970.63	0.12371
2982.2	0.0665
2993.78	0.03997
3005.35	0.02868
3016.92	0.02388
3028.5	0.02106
3040.07	0.01748
3051.65	0.01341
3063.22	0.01026
3074.79	0.00813
3086.37	0.00662
3097.94	0.00536
3109.52	0.00443
3121.09	0.00376
3132.66	0.00337
3144.24	0.00303
3155.81	0.00266
3167.38	0.00238
3178.96	0.00207
3190.53	0.0019
3202.11	0.00157
3213.68	0.00142
3225.25	0.00122
3236.83	0.00105
3248.4	0.0008979
3259.98	0.0009774
3271.55	0.0008846
3283.12	0.0009685
3294.7	0.00106
3306.27	0.00119
3317.84	0.00167
3329.42	0.00222
3340.99	0.00274
3352.57	0.00242
3364.14	0.00165
3375.71	0.00126
3387.29	0.0008339
3398.86	0.0007826
3410.43	0.0007641
3422.01	0.0006448
3433.58	0.0005913
3445.16	0.0006008
3456.73	0.000691
3468.3	0.0005339
3479.88	0.0004318
3491.45	0.0003914
3503.03	0.0003847
3514.6	0.0004096
3526.17	0.0004035
3537.75	0.0002845
3549.32	0.0004101
3560.89	0.0004655
3572.47	0.0003617
3584.04	0.000482
3595.62	0.000559
3607.19	0.0006193
3618.76	0.0006596
3630.34	0.0007559
3641.91	0.0007314
3653.49	0.0006828
3665.06	0.0008325
3676.63	0.0007974
3688.21	0.0005796
3699.78	0.000699
3711.35	0.0006087
3722.93	0.000639
3734.5	0.0006106
3746.08	0.0006623
3757.65	0.0007763
3769.22	0.0007364
3780.8	0.0006433
3792.37	0.0007914
3803.94	0.0007431
3815.52	0.0007826
3827.09	0.0008364
3838.67	0.0007445
3850.24	0.0007402
3861.81	0.0008446
3873.39	0.0007808
3884.96	0.0009133
3896.54	0.0009435
3908.11	0.0009982
3919.68	0.0009483
3931.26	0.00101
3942.83	0.00106
3954.4	0.001
3965.98	0.00115
3977.55	0.00126
3989.13	0.00134
4000.7	0.0013
