Infrared Spectrum: Ethyl .beta.-naphthoate
Formula: C 13 H 12 O 2
CAS: 3007-91-8
State: gas
Origin: EPA-IR VAPOR PHASE LIBRARY
1/CM	ABSORBANCE
549.8	0.000368
559.445	8.6e-05
569.09	0.0005115
578.734	0.002283
588.379	0.003703
598.024	0.002733
607.669	0.001051
617.313	0.0008467
626.958	0.0007016
636.603	0.0010672
646.248	0.0007651
655.893	0.0007196
665.537	0.000391
675.182	0.0006817
684.827	0.0007272
694.472	0.0008167
704.116	0.0009156
713.761	0.001553
723.406	0.002343
733.051	0.003193
742.695	0.005283
752.34	0.012563
761.985	0.019953
771.63	0.024223
781.275	0.023613
790.919	0.011673
800.564	0.006163
810.209	0.006013
819.854	0.007483
829.498	0.004413
839.143	0.002853
848.788	0.004423
858.433	0.007643
868.078	0.006573
877.722	0.003173
887.367	0.002793
897.012	0.004563
906.657	0.005953
916.301	0.004563
925.946	0.002433
935.591	0.002713
945.236	0.006943
954.88	0.008343
964.525	0.004403
974.17	0.003293
983.815	0.002953
993.46	0.004223
1003.1	0.006783
1012.75	0.011663
1022.39	0.012623
1032.04	0.009383
1041.68	0.005123
1051.33	0.003883
1060.97	0.004793
1070.62	0.008453
1080.26	0.024663
1089.91	0.055993
1099.55	0.060693
1109.2	0.024673
1118.84	0.013733
1128.49	0.031213
1138.13	0.035553
1147.78	0.018423
1157.42	0.013503
1167.07	0.009593
1176.71	0.013373
1186.36	0.043643
1196	0.077343
1205.64	0.034963
1215.29	0.045723
1224.93	0.085693
1234.58	0.046203
1244.22	0.026083
1253.87	0.029983
1263.51	0.049103
1273.16	0.110373
1282.8	0.115443
1292.45	0.039373
1302.09	0.016683
1311.74	0.010803
1321.38	0.007333
1331.03	0.005943
1340.67	0.007153
1350.32	0.010753
1359.96	0.012143
1369.61	0.017463
1379.25	0.012873
1388.9	0.008493
1398.54	0.005733
1408.18	0.004543
1417.83	0.003933
1427.47	0.004373
1437.12	0.006123
1446.76	0.006193
1456.41	0.007643
1466.05	0.010863
1475.7	0.011033
1485.34	0.006153
1494.99	0.004293
1504.63	0.004973
1514.28	0.003723
1523.92	0.002593
1533.57	0.002283
1543.21	0.002483
1552.86	0.002703
1562.5	0.002573
1572.15	0.003313
1581.79	0.003493
1591.44	0.003443
1601.08	0.003813
1610.73	0.002663
1620.37	0.003363
1630.01	0.006043
1639.66	0.004393
1649.3	0.002593
1658.95	0.002583
1668.59	0.003103
1678.24	0.004033
1687.88	0.005373
1697.53	0.006883
1707.17	0.008263
1716.82	0.014953
1726.46	0.047053
1736.11	0.119713
1745.75	0.081033
1755.4	0.019263
1765.04	0.008023
1774.69	0.006743
1784.33	0.005783
1793.98	0.004363
1803.62	0.003423
1813.27	0.003073
1822.91	0.002913
1832.55	0.002663
1842.2	0.001753
1851.84	0.001663
1861.49	0.001593
1871.13	0.001533
1880.78	0.0013844
1890.42	0.0013824
1900.07	0.001673
1909.71	0.002113
1919.36	0.002373
1929	0.002213
1938.65	0.002313
1948.29	0.002473
1957.94	0.001573
1967.58	0.0012181
1977.23	0.0009882
1986.87	0.0009523
1996.52	0.000914
2006.16	0.0009319
2015.81	0.0008071
2025.45	0.0007804
2035.1	0.0008757
2044.74	0.0009537
2054.38	0.0009203
2064.03	0.0009126
2073.67	0.000945
2083.32	0.0008733
2092.96	0.000958
2102.61	0.0009403
2112.25	0.0009198
2121.9	0.0009007
2131.54	0.0009007
2141.19	0.0008547
2150.83	0.0008232
2160.48	0.0007581
2170.12	0.0007975
2179.77	0.0007663
2189.41	0.0006709
2199.06	0.0006574
2208.7	0.0006518
2218.35	0.000798
2227.99	0.0007693
2237.64	0.0007023
2247.28	0.00061701
2256.92	0.0006626
2266.57	0.0007235
2276.21	0.0009427
2285.86	0.0010755
2295.5	0.0008163
2305.15	0.0007966
2314.79	0.0007342
2324.44	0.0007449
2334.08	0.0007016
2343.73	0.0006528
2353.37	0.0007372
2363.02	0.0009307
2372.66	0.0009075
2382.31	0.0008109
2391.95	0.0007364
2401.6	0.0007849
2411.24	0.0007339
2420.89	0.0007559
2430.53	0.0008049
2440.18	0.0006517
2449.82	0.0007026
2459.47	0.000783
2469.11	0.0006268
2478.75	0.0007495
2488.4	0.0007832
2498.04	0.0006395
2507.69	0.0007263
2517.33	0.0007533
2526.98	0.0007182
2536.62	0.00061948
2546.27	0.0006736
2555.91	0.0006507
2565.56	0.0006067
2575.2	0.00053394
2584.85	0.00053752
2594.49	0.00053808
2604.14	0.0006204
2613.78	0.0006379
2623.43	0.000669
2633.07	0.00062035
2642.72	0.0006403
2652.36	0.00060451
2662.01	0.00061903
2671.65	0.000532702
2681.29	0.00056242
2690.94	0.00055338
2700.58	0.00058113
2710.23	0.0007242
2719.87	0.0007306
2729.52	0.0008525
2739.16	0.0007956
2748.81	0.0008057
2758.45	0.0009607
2768.1	0.0009847
2777.74	0.0008928
2787.39	0.0009614
2797.03	0.0009766
2806.68	0.0009136
2816.32	0.0009323
2825.97	0.0012651
2835.61	0.0012077
2845.26	0.0014111
2854.9	0.001643
2864.55	0.001983
2874.19	0.002673
2883.84	0.003873
2893.48	0.004173
2903.12	0.004783
2912.77	0.005533
2922.41	0.005413
2932.06	0.006573
2941.7	0.010063
2951.35	0.009403
2960.99	0.009113
2970.64	0.011723
2980.28	0.017833
2989.93	0.018303
2999.57	0.011493
3009.22	0.008363
3018.86	0.006603
3028.51	0.006083
3038.15	0.006143
3047.8	0.007283
3057.44	0.014713
3067.09	0.020453
3076.73	0.013323
3086.38	0.007543
3096.02	0.003793
3105.67	0.002163
3115.31	0.001643
3124.95	0.0014037
3134.6	0.0011097
3144.24	0.0008671
3153.89	0.0010289
3163.53	0.0007565
3173.18	0.00055972
3182.82	0.0007358
3192.47	0.0008789
3202.11	0.0008897
3211.76	0.0006876
3221.4	0.0006925
3231.05	0.0007382
3240.69	0.0006915
3250.34	0.00055873
3259.98	0.000530658
3269.63	0.000182
3279.27	0.000346
3288.92	0.000363
3298.56	0.000409
3308.21	0.0004466
3317.85	0.00041
3327.49	0.000348
3337.14	0.000482
3346.78	0.00059864
3356.43	0.000401
3366.07	0.00054201
3375.72	0.000531258
3385.36	0.00052648
3395.01	0.000283
3404.65	0.00037
3414.3	0.0006596
3423.94	0.000411
3433.59	0.000524777
3443.23	0.0007832
3452.88	0.0012326
3462.52	0.001114
3472.17	0.0008561
3481.81	0.00054715
3491.46	0.00056785
3501.1	0.000356
3510.75	0.000178
3520.39	0.000282
3530.04	0.0005166
3539.68	0.000417
3549.32	0.000438
3558.97	0.0004668
3568.61	0.000333
3578.26	0.000233
3587.9	0.000301
3597.55	0.000342
3607.19	0.000259
3616.84	0.00012
3626.48	0.000376
3636.13	0.000264
3645.77	0.000349
3655.42	0.000327
3665.06	0.000392
3674.71	0.000264
3684.35	0.000359
3694	0.0004829
3703.64	0.000446
3713.29	0.0004296
3722.93	0.000202
3732.58	0.0004484
3742.22	0.00027
3751.86	0.000237
3761.51	0.000158
3771.15	0.0004802
3780.8	0.000313
3790.44	0.000266
3800.09	0.000338
3809.73	0.000422
3819.38	0.00058147
3829.02	0.00056639
3838.67	0.000496
3848.31	0.000415
3857.96	0.0007209
3867.6	0.000318
3877.25	0.00033
3886.89	0.000374
3896.54	0.00062255
3906.18	0.000392
3915.83	0.0004638
3925.47	0.0004721
3935.12	0.0004688
3944.76	0.0006694
3954.41	0.00061969
3964.05	0.0004839
3973.69	0.0006926
3983.34	0.00062169
3992.98	0.000284
