Infrared Spectrum: Aniline, N-octyl-
Formula: C14 H23 N
CAS: 3007-71-4
State: LIQUID (NEAT)
Class: COBLENTZ III
Instrument: BECKMAN IR-4 (HYBRID PRISM-GRATING)
Instrument parameters: NaCl PRISM
Sampling: TRANSMISSION
Path length: CAPILLARY
Resolution: 2
Origin: MONSANTO (J. FREEMAN)
1/CM	TRANSMITTANCE
4000	0.9128
3991	0.9135
3982	0.9141
3973	0.9148
3964	0.9155
3955	0.9162
3946	0.9168
3937	0.9177
3928	0.9181
3919	0.9183
3910	0.9186
3901	0.9189
3892	0.9191
3883	0.9193
3874	0.9194
3865	0.9195
3856	0.9196
3847	0.9197
3838	0.9198
3829	0.9198
3820	0.9199
3811	0.9198
3802	0.9197
3793	0.9196
3784	0.9196
3775	0.9195
3766	0.9194
3757	0.919
3748	0.9183
3739	0.9175
3730	0.9167
3721	0.9159
3712	0.9151
3703	0.9142
3694	0.9133
3685	0.9123
3676	0.9113
3667	0.9097
3658	0.9081
3649	0.9065
3640	0.905
3631	0.9037
3622	0.903
3613	0.9023
3604	0.9021
3595	0.9024
3586	0.9027
3577	0.9028
3568	0.9028
3559	0.9025
3550	0.9015
3541	0.8998
3532	0.8975
3523	0.895
3514	0.8909
3505	0.8856
3496	0.8786
3487	0.8645
3478	0.7992
3469	0.7295
3460	0.6596
3451	0.5892
3442	0.5259
3433	0.5162
3424	0.536
3415	0.5756
3406	0.6153
3397	0.6551
3388	0.6954
3379	0.7357
3370	0.7762
3361	0.8169
3352	0.8612
3343	0.8773
3334	0.888
3325	0.8971
3316	0.9052
3307	0.912
3298	0.9175
3289	0.9214
3280	0.9234
3271	0.9247
3262	0.926
3253	0.9256
3244	0.9223
3235	0.92
3226	0.919
3217	0.9186
3208	0.9183
3199	0.9181
3190	0.9178
3181	0.9175
3172	0.9171
3163	0.9146
3154	0.9109
3145	0.8847
3136	0.8475
3127	0.8014
3118	0.7548
3109	0.7078
3100	0.6608
3091	0.6134
3082	0.5658
3073	0.5371
3064	0.553
3055	0.5726
3046	0.5924
3037	0.612
3028	0.6175
3019	0.5717
3010	0.5134
3001	0.4546
2992	0.3956
2983	0.3362
2974	0.2765
2965	0.2164
2956	0.1559
2947	0.0951
2938	0.0712
2929	0.0785
2920	0.1172
2911	0.1571
2902	0.1973
2893	0.2109
2884	0.1706
2875	0.137
2866	0.144
2857	0.5038
2848	0.6181
2839	0.6578
2830	0.6975
2821	0.739
2812	0.7818
2803	0.8301
2794	0.8359
2785	0.8389
2776	0.8418
2767	0.8451
2758	0.8483
2749	0.8514
2740	0.8541
2731	0.8568
2722	0.8591
2713	0.8614
2704	0.8651
2695	0.8697
2686	0.8765
2677	0.8837
2668	0.8886
2659	0.8918
2650	0.8945
2641	0.8956
2632	0.8951
2623	0.8934
2614	0.8913
2605	0.8912
2596	0.8921
2587	0.8998
2578	0.9097
2569	0.9183
2560	0.9246
2551	0.9305
2542	0.9347
2533	0.9377
2524	0.9401
2515	0.9415
2506	0.9428
2497	0.9441
2488	0.9451
2479	0.9458
2470	0.9466
2461	0.9473
2452	0.9477
2443	0.948
2434	0.9483
2425	0.9483
2416	0.9475
2407	0.9431
2398	0.9254
2389	0.9132
2380	0.9083
2371	0.9118
2362	0.9192
2353	0.9252
2344	0.9312
2335	0.9368
2326	0.9425
2317	0.9475
2308	0.9515
2299	0.9547
2290	0.9573
2281	0.959
2272	0.96
2263	0.961
2254	0.9618
2245	0.9628
2236	0.9635
2227	0.9634
2218	0.9612
2209	0.9588
2200	0.9563
2191	0.9549
2182	0.9536
2173	0.953
2164	0.9537
2155	0.9553
2146	0.9571
2137	0.9592
2128	0.9606
2119	0.9617
2110	0.9621
2101	0.9623
2092	0.9625
2083	0.9612
2074	0.9594
2065	0.9575
2056	0.956
2047	0.9544
2038	0.9534
2029	0.9546
2020	0.9561
2011	0.9586
2002	0.961
1993	0.9616
1984	0.9621
1975	0.9606
1966	0.9554
1957	0.9461
1948	0.9289
1939	0.9042
1930	0.8805
1921	0.8835
1912	0.9045
1903	0.9327
1894	0.9481
1885	0.9497
1876	0.9504
1867	0.9503
1858	0.9455
1849	0.9339
1840	0.9139
1831	0.9093
1822	0.9175
1813	0.9321
1804	0.944
1795	0.9471
1786	0.9416
1777	0.9266
1768	0.9224
1759	0.9351
1750	0.9414
1741	0.9436
1732	0.9465
1723	0.9393
1714	0.9306
1705	0.9118
1696	0.8915
1687	0.8789
1678	0.8862
1669	0.894
1660	0.8728
1651	0.8414
1642	0.7875
1633	0.6788
1624	0.432
1615	0.2051
1606	0.0786
1597	0.2463
1588	0.5564
1579	0.7581
1570	0.7657
1561	0.7512
1552	0.7258
1543	0.654
1534	0.5138
1525	0.2063
1516	0.0929
1507	0.1142
1498	0.3316
1489	0.4369
1480	0.292
1471	0.2885
1462	0.3895
1453	0.5131
1444	0.5501
1435	0.4187
1426	0.6444
1417	0.798
1408	0.8361
1399	0.8318
1390	0.7297
1381	0.5762
1372	0.6921
1363	0.7501
1354	0.7153
1345	0.5587
1336	0.375
1327	0.2137
1318	0.2814
1309	0.4275
1300	0.5269
1291	0.5543
1282	0.5084
1273	0.4309
1264	0.3237
1255	0.3734
1246	0.5371
1237	0.7367
1228	0.8191
1219	0.8172
1210	0.7898
1201	0.7904
1192	0.7568
1183	0.4634
1174	0.7064
1165	0.8038
1156	0.6082
1147	0.6882
1138	0.694
1129	0.7215
1120	0.804
1111	0.8146
1102	0.7076
1093	0.633
1084	0.7528
1075	0.73
1066	0.7378
1057	0.827
1048	0.8601
1039	0.8727
1030	0.7785
1021	0.8811
1012	0.9183
1003	0.8948
994	0.6724
985	0.8273
976	0.8916
967	0.8878
958	0.8875
949	0.8977
940	0.9185
931	0.9217
922	0.9228
913	0.912
904	0.9025
895	0.8978
886	0.8818
877	0.8296
868	0.6436
859	0.7633
850	0.8734
841	0.8662
832	0.8441
823	0.8521
814	0.8278
805	0.8485
796	0.8546
787	0.8341
778	0.7968
769	0.7334
760	0.5594
751	0.1132
742	0.197
733	0.5493
724	0.5388
715	0.6551
706	0.6901
697	0.417
688	0.227
679	0.6733
670	0.606
661	0.6499
652	0.6389
643	0.5932
634	0.6002
