Infrared Spectrum: 2-Fluorenecarboxaldehyde
Formula: C 14 H 10 O
CAS: 30084-90-3
State: gas
Origin: EPA-IR VAPOR PHASE LIBRARY
1/CM	ABSORBANCE
501.5	5e-05
513.074	0.00028053
524.648	0.00031993
536.222	0.0002109
547.796	0.000108
559.37	0.0003746
570.944	0.00036158
582.518	0.0001691
594.092	9.9e-05
605.666	0.00015
617.24	0.0004111
628.814	0.001544
640.388	0.0012594
651.962	0.0006396
663.536	0.0005655
675.11	0.0003644
686.684	0.0003768
698.258	0.0006824
709.832	0.001694
721.406	0.007934
732.98	0.015944
744.554	0.007754
756.128	0.007924
767.702	0.011324
779.276	0.005604
790.85	0.002264
802.423	0.001444
813.997	0.003064
825.571	0.005604
837.145	0.003214
848.719	0.0009765
860.293	0.0005527
871.867	0.0008301
883.441	0.0008988
895.015	0.0008803
906.589	0.0012581
918.163	0.002024
929.737	0.002174
941.311	0.003734
952.885	0.001344
964.459	0.0009065
976.033	0.0005278
987.607	0.0007236
999.181	0.002224
1010.76	0.001734
1022.33	0.0004361
1033.9	0.00033764
1045.48	0.00030159
1057.05	0.0004177
1068.63	0.000564
1080.2	0.0009256
1091.77	0.002964
1103.35	0.003514
1114.92	0.006704
1126.49	0.005004
1138.07	0.003234
1149.64	0.001314
1161.22	0.0011341
1172.79	0.002434
1184.36	0.005034
1195.94	0.006844
1207.51	0.011594
1219.09	0.003704
1230.66	0.004164
1242.23	0.007264
1253.81	0.004044
1265.38	0.001914
1276.96	0.003884
1288.53	0.005374
1300.1	0.004854
1311.68	0.002024
1323.25	0.001934
1334.83	0.002434
1346.4	0.001904
1357.97	0.0012184
1369.55	0.001784
1381.12	0.003264
1392.7	0.003574
1404.27	0.003574
1415.84	0.004524
1427.42	0.004444
1438.99	0.002274
1450.57	0.002324
1462.14	0.002754
1473.71	0.002844
1485.29	0.0010574
1496.86	0.0006302
1508.44	0.0003926
1520.01	0.0004422
1531.58	0.0005395
1543.16	0.0008341
1554.73	0.001974
1566.31	0.003814
1577.88	0.004404
1589.45	0.005254
1601.03	0.009254
1612.6	0.013604
1624.18	0.004934
1635.75	0.002234
1647.32	0.001864
1658.9	0.001984
1670.47	0.002744
1682.05	0.004554
1693.62	0.009664
1705.19	0.025564
1716.77	0.066074
1728.34	0.019414
1739.92	0.004114
1751.49	0.002014
1763.06	0.001644
1774.64	0.001384
1786.21	0.0009934
1797.79	0.0010018
1809.36	0.0010252
1820.93	0.0011091
1832.51	0.0010187
1844.08	0.000756
1855.66	0.0008287
1867.23	0.0007977
1878.8	0.0007889
1890.38	0.0008258
1901.95	0.0007504
1913.53	0.0005793
1925.1	0.0005923
1936.67	0.0008174
1948.25	0.0007138
1959.82	0.0003627
1971.4	0.00035477
1982.97	0.00033548
1994.54	0.00030534
2006.12	0.00029496
2017.69	0.000247
2029.27	0.0002463
2040.84	0.000264719
2052.41	0.00027645
2063.99	0.0002362
2075.56	0.000211
2087.14	0.000215
2098.71	0.000191
2110.28	0.0001678
2121.86	0.0001887
2133.43	0.0001755
2145.01	0.000161
2156.58	0.0001955
2168.15	0.0001849
2179.73	0.0001905
2191.3	0.0001771
2202.88	0.0001821
2214.45	0.0001908
2226.02	0.000196
2237.6	0.0001978
2249.17	0.0002124
2260.74	0.0002367
2272.32	0.0001987
2283.89	0.00014
2295.47	0.0001835
2307.04	0.00026248
2318.61	0.00029925
2330.19	0.00028905
2341.76	0.00025
2353.34	0.0002274
2364.91	0.0001829
2376.48	0.0001676
2388.06	0.0002131
2399.63	0.0002108
2411.21	0.0002171
2422.78	0.0001957
2434.35	0.0001962
2445.93	0.0002144
2457.5	0.0001942
2469.08	0.000181
2480.65	0.000201
2492.22	0.0001944
2503.8	0.0002197
2515.37	0.0002123
2526.95	0.00025629
2538.52	0.00032921
2550.09	0.00027595
2561.67	0.0002216
2573.24	0.00025475
2584.82	0.00035487
2596.39	0.0004187
2607.96	0.0004774
2619.54	0.0005464
2631.11	0.0005789
2642.69	0.0005408
2654.26	0.0006284
2665.83	0.0009197
2677.41	0.0010438
2688.98	0.001574
2700.56	0.003264
2712.13	0.006684
2723.7	0.008394
2735.28	0.005834
2746.85	0.003114
2758.43	0.002004
2770	0.002414
2781.57	0.003654
2793.15	0.004644
2804.72	0.006664
2816.3	0.007474
2827.87	0.004274
2839.44	0.001804
2851.02	0.001141
2862.59	0.0008764
2874.17	0.0006985
2885.74	0.0006769
2897.31	0.0011981
2908.89	0.002594
2920.46	0.002924
2932.04	0.001764
2943.61	0.0006079
2955.18	0.0004167
2966.76	0.00035627
2978.33	0.0004491
2989.91	0.0006678
3001.48	0.001274
3013.05	0.002654
3024.63	0.003694
3036.2	0.003744
3047.78	0.003934
3059.35	0.005464
3070.92	0.007814
3082.5	0.005184
3094.07	0.002524
3105.65	0.0011557
3117.22	0.0004833
3128.79	0.00029576
3140.37	0.00032379
3151.94	0.00036036
3163.52	0.0003922
3175.09	0.00036225
3186.66	0.000263119
3198.24	0.0002278
3209.81	0.0002256
3221.39	0.000181
3232.96	0.000128
3244.53	0.000123
3256.11	6.8e-05
3267.68	8e-05
3279.26	0.000125
3290.83	0.000106
3302.4	3.3e-05
3313.98	9.2e-05
3325.55	8e-05
3337.13	0.000133
3348.7	1.6e-05
3360.27	4.8e-05
3371.85	0.000134
3383.42	0.0002086
3395	0.0004366
3406.57	0.000908
3418.14	0.0007436
3429.72	0.0004879
3441.29	0.00029663
3452.86	0.0002018
3464.44	0.000157
3476.01	9e-06
3487.59	7.6e-05
3499.16	9.2e-05
3510.73	7e-05
3522.31	4.6e-05
3533.88	9.4e-05
3545.46	8.9e-05
3557.03	4.9e-05
3568.6	0.000105
3580.18	7.9e-05
3591.75	9.4e-05
3603.33	4.6e-05
3614.9	8.2e-05
3626.47	4.6e-05
3638.05	7.7e-05
3649.62	8e-05
3661.2	0.000143
3672.77	0.0001644
3684.34	8.9e-05
3695.92	0.000153
3707.49	0.000101
3719.07	0.000146
3730.64	9.9e-05
3742.21	9e-05
3753.79	5.5e-05
3765.36	0
3776.94	0.000107
3788.51	8.6e-05
3800.08	8.7e-05
3811.66	0.000162
3823.23	0.000164
3834.81	0.000136
3846.38	0.000155
3857.95	0.00013
3869.53	0.000137
3881.1	2.6e-05
3892.68	0.0001643
3904.25	7.5e-05
3915.82	9.3e-05
3927.4	8.1e-05
3938.97	6e-05
3950.55	7.7e-05
3962.12	9.3e-05
3973.69	9.2e-05
3985.27	0.000105
3996.84	3.6e-05
