Infrared Spectrum: 4,4-Dimethyl-2-oxazoline
Formula: C 5 H 9 N O
CAS: 30093-99-3
State: gas
Origin: EPA-IR VAPOR PHASE LIBRARY
1/CM	ABSORBANCE
549.8	0.0004765
559.445	0.001833
569.09	0.004953
578.735	0.007413
588.38	0.009993
598.025	0.007753
607.67	0.005253
617.315	0.002293
626.96	0.001283
636.605	0.0004766
646.251	0.0005298
655.896	0.0002602
665.541	0.0003215
675.186	0.0003768
684.831	0.0004077
694.476	0.0002627
704.121	0.0002506
713.766	0.0001887
723.411	8.78e-05
733.056	0.0002789
742.701	0.000372
752.346	0.0007944
761.991	0.001983
771.636	0.003103
781.281	0.003943
790.926	0.002993
800.571	0.001843
810.216	0.0008397
819.861	0.0006289
829.507	0.0006343
839.152	0.0006059
848.797	0.0005215
858.442	0.000747
868.087	0.0008528
877.732	0.001143
887.377	0.001483
897.022	0.002813
906.667	0.005393
916.312	0.008243
925.957	0.010603
935.602	0.012233
945.247	0.015043
954.892	0.015263
964.537	0.011903
974.182	0.005173
983.827	0.002923
993.472	0.002183
1003.12	0.001833
1012.76	0.001853
1022.41	0.001783
1032.05	0.002453
1041.7	0.005033
1051.34	0.012843
1060.99	0.027523
1070.63	0.043693
1080.28	0.052773
1089.92	0.041443
1099.57	0.023943
1109.21	0.008173
1118.86	0.002473
1128.5	0.001493
1138.15	0.001613
1147.79	0.002113
1157.44	0.003283
1167.08	0.004973
1176.73	0.006803
1186.37	0.007953
1196.02	0.006923
1205.66	0.005233
1215.31	0.005413
1224.95	0.007273
1234.6	0.008483
1244.24	0.007333
1253.89	0.004533
1263.53	0.002303
1273.18	0.001473
1282.82	0.001213
1292.47	0.001433
1302.11	0.001503
1311.76	0.001753
1321.4	0.002203
1331.05	0.003503
1340.69	0.004553
1350.34	0.005533
1359.98	0.006103
1369.63	0.006583
1379.27	0.004713
1388.92	0.003773
1398.56	0.002013
1408.21	0.0010443
1417.85	0.0007994
1427.5	0.001183
1437.14	0.002263
1446.79	0.003883
1456.43	0.004713
1466.08	0.005733
1475.73	0.004093
1485.37	0.002723
1495.02	0.001443
1504.66	0.0007997
1514.31	0.000813
1523.95	0.0007749
1533.6	0.0007692
1543.24	0.0008518
1552.89	0.001073
1562.53	0.001123
1572.18	0.001173
1581.82	0.001483
1591.47	0.002353
1601.11	0.005983
1610.76	0.016403
1620.4	0.033863
1630.05	0.043803
1639.69	0.038873
1649.34	0.025253
1658.98	0.007503
1668.63	0.002813
1678.27	0.002313
1687.92	0.002233
1697.56	0.001913
1707.21	0.001483
1716.85	0.0008536
1726.5	0.0006355
1736.14	0.0004968
1745.79	0.0005195
1755.43	0.0004769
1765.08	0.0004549
1774.72	0.0004356
1784.37	0.0004356
1794.01	0.0004175
1803.66	0.0003326
1813.3	0.0004626
1822.95	0.0005506
1832.59	0.0009228
1842.24	0.001303
1851.88	0.001503
1861.53	0.001183
1871.17	0.0008659
1880.82	0.0005814
1890.46	0.0005587
1900.11	0.0005375
1909.75	0.0005463
1919.4	0.0003636
1929.04	0.0003416
1938.69	0.000345
1948.33	0.0002739
1957.98	0.0003445
1967.62	0.0003278
1977.27	0.0004956
1986.91	0.0004521
1996.56	0.000554
2006.2	0.0005742
2015.85	0.0005989
2025.49	0.0005429
2035.14	0.0004957
2044.78	0.0004293
2054.43	0.0003189
2064.07	0.0003383
2073.72	0.0003729
2083.36	0.0003108
2093.01	0.0003486
2102.65	0.0002812
2112.3	0.0004778
2121.94	0.000575
2131.59	0.0008222
2141.23	0.000952
2150.88	0.0009519
2160.52	0.000824
2170.17	0.0006005
2179.81	0.0004074
2189.46	0.0002487
2199.1	0.0002507
2208.75	0.0001884
2218.39	0.0002126
2228.04	0.0002031
2237.68	0.0001857
2247.33	0.0002648
2256.97	0.0002074
2266.62	0.0002215
2276.26	0.0002733
2285.91	0.0002436
2295.55	0.0003045
2305.2	0.000307
2314.84	0.0003032
2324.49	0.0001695
2334.13	0.0002032
2343.78	0.000253
2353.42	0.0002284
2363.07	0.00010854
2372.72	0.0002408
2382.36	0.0002435
2392.01	0.0002841
2401.65	0.000213
2411.3	0.0002944
2420.94	0.0002041
2430.59	0.0002204
2440.23	0.0002212
2449.88	0.0001835
2459.52	0.0001808
2469.17	0.00012754
2478.81	0.0002124
2488.46	0.0002495
2498.1	0.0001797
2507.75	0.00015889
2517.39	0.0001972
2527.04	8.445e-05
2536.68	0.000179
2546.33	0.000223
2555.97	0.0002023
2565.62	0.0002506
2575.26	0.0001837
2584.91	0.00016028
2594.55	0.0001967
2604.2	0.0002704
2613.84	0.00011825
2623.49	0.0002556
2633.13	0.00015236
2642.78	0.000235
2652.42	0.0001751
2662.07	0.0002376
2671.71	0.0002404
2681.36	0.0002552
2691	0.0003596
2700.65	0.0003694
2710.29	0.0004034
2719.94	0.0004099
2729.58	0.0004388
2739.23	0.0005002
2748.87	0.0004318
2758.52	0.000491
2768.16	0.0004592
2777.81	0.0005772
2787.45	0.0005809
2797.1	0.0007555
2806.74	0.0010366
2816.39	0.001203
2826.03	0.001363
2835.68	0.001403
2845.32	0.001833
2854.97	0.002973
2864.61	0.005153
2874.26	0.007623
2883.9	0.010073
2893.55	0.011513
2903.19	0.011913
2912.84	0.011983
2922.48	0.012853
2932.13	0.014593
2941.77	0.015923
2951.42	0.019243
2961.06	0.026113
2970.71	0.035733
2980.35	0.032903
2990	0.024023
2999.64	0.012433
3009.29	0.004413
3018.93	0.001863
3028.58	0.001363
3038.22	0.001233
3047.87	0.001133
3057.51	0.001173
3067.16	0.001623
3076.8	0.002763
3086.45	0.003063
3096.09	0.002653
3105.74	0.002293
3115.38	0.001073
3125.03	0.0004297
3134.67	0.0005511
3144.32	0.0005421
3153.96	0.0004488
3163.61	0.0006377
3173.25	0.0004566
3182.9	0.0005328
3192.54	0.0005614
3202.19	0.0007422
3211.83	0.0007945
3221.48	0.0008022
3231.12	0.0009859
3240.77	0.001223
3250.41	0.001093
3260.06	0.0010158
3269.7	0.0006927
3279.35	0.0004758
3289	0.0003929
3298.64	0.0003425
3308.29	0.0004812
3317.93	0.0004398
3327.58	0.0004944
3337.22	0.0004629
3346.87	0.0004641
3356.51	0.0004232
3366.16	0.0005501
3375.8	0.000387
3385.45	0.0004279
3395.09	0.0003011
3404.74	0.0002719
3414.38	0.0002712
3424.03	0.0003466
3433.67	0.0004741
3443.32	0.0004254
3452.96	0.000212
3462.61	0.0002405
3472.25	0.0003907
3481.9	0.0002704
3491.54	0.0004011
3501.19	0.0004593
3510.83	0.0004139
3520.48	0.0002677
3530.12	0.0002534
3539.77	0.0001448
3549.41	0.0004224
3559.06	0.0003078
3568.7	0.0003049
3578.35	0.0003637
3587.99	0.0003188
3597.64	0.000179
3607.28	0.0004793
3616.93	0.0004
3626.57	0.0002272
3636.22	0.0002111
3645.86	0.0002164
3655.51	0.0001909
3665.15	0.0004005
3674.8	0.0003329
3684.44	0.0003177
3694.09	0.0002721
3703.73	0.000294
3713.38	0.0003052
3723.02	0.00036
3732.67	0.0003
3742.31	0.0002014
3751.96	0.00013073
3761.6	0.0003383
3771.25	0.0002306
3780.89	0.00012082
3790.54	0.000411
3800.18	0.0003851
3809.83	0.0002285
3819.47	0.0003446
3829.12	0.0003479
3838.76	0.0004419
3848.41	0.0002894
3858.05	0.0003284
3867.7	0.0003175
3877.34	0.0002226
3886.99	0.0002935
3896.63	0.0002527
3906.28	0.0003752
3915.92	0.0003006
3925.57	0.0002875
3935.21	0.0004819
3944.86	0.0004184
3954.5	0.0003966
3964.15	0.0002723
3973.79	0.0002911
3983.44	0.000319
3993.08	0.0004451
