Infrared Spectrum: LINOLENIC ACID, METHYL ESTER
Formula: C19 H32 O2
CAS: 301-00-8
State: SOLUTION (10% CCl4 FOR 5000-1330, 10% CS2 FOR 1330-625 CM^-^1)
Class: COBLENTZ
Instrument: Not specified, most likely a prism, grating, or hybrid spectrometer.
Sampling: TRANSMISSION
Path length: 0.011 CM, 0.011 CM
Resolution: 4
Origin: DOW CHEMICAL COMPANY
MICROMETERS	TRANSMITTANCE
2.06	0.874
2.1001	0.874
2.14019	0.874
2.18029	0.874
2.22038	0.861
2.26048	0.849
2.30057	0.847
2.34067	0.851
2.38077	0.854
2.42086	0.864
2.46096	0.869
2.50105	0.874
2.54115	0.876
2.58124	0.881
2.62134	0.881
2.66144	0.881
2.70153	0.881
2.74163	0.877
2.78172	0.874
2.82182	0.871
2.86191	0.851
2.90201	0.844
2.94211	0.847
2.9822	0.857
3.0223	0.859
3.06239	0.862
3.10249	0.869
3.14258	0.871
3.18268	0.869
3.22278	0.836
3.26287	0.775
3.30297	0.448
3.34306	0.332
3.38316	0.08
3.42325	0.187
3.46335	0.309
3.50345	0.518
3.54354	0.795
3.58364	0.851
3.62373	0.869
3.66383	0.871
3.70392	0.872
3.74402	0.879
3.78412	0.887
3.82421	0.892
3.86431	0.899
3.9044	0.903
3.9445	0.906
3.98459	0.908
4.02469	0.908
4.06479	0.908
4.10488	0.909
4.14498	0.911
4.18507	0.923
4.22517	0.921
4.26526	0.921
4.30536	0.911
4.34546	0.899
4.38555	0.904
4.42565	0.909
4.46574	0.919
4.50584	0.924
4.54593	0.923
4.58603	0.923
4.62613	0.923
4.66622	0.923
4.70632	0.923
4.74641	0.923
4.78651	0.923
4.8266	0.921
4.8667	0.919
4.9068	0.906
4.94689	0.901
4.98699	0.904
5.02708	0.906
5.06718	0.908
5.10727	0.908
5.14737	0.908
5.18747	0.908
5.22756	0.908
5.26766	0.908
5.30775	0.903
5.34785	0.903
5.38794	0.899
5.42804	0.899
5.46814	0.892
5.50823	0.879
5.54833	0.854
5.58842	0.807
5.62852	0.719
5.66861	0.52
5.70871	0.147
5.74881	0.051
5.7889	0.322
5.829	0.645
5.86909	0.722
5.90919	0.762
5.94928	0.794
5.98938	0.799
6.02948	0.772
6.06957	0.762
6.10967	0.819
6.14976	0.829
6.18986	0.802
6.22995	0.75
6.27005	0.657
6.31015	0.623
6.35024	0.6
6.39034	0.555
6.43043	0.481
6.47053	0.496
6.51062	0.573
6.55072	0.623
6.59082	0.668
6.63091	0.709
6.67101	0.755
6.7111	0.77
6.7512	0.72
6.79129	0.5
6.83139	0.377
6.87149	0.414
6.91158	0.381
6.95168	0.332
6.99177	0.523
7.03187	0.635
7.07196	0.719
7.11206	0.715
7.15216	0.678
7.19225	0.702
7.23235	0.69
7.27244	0.602
7.31254	0.56
7.35263	0.558
7.39273	0.596
7.43283	0.648
7.47292	0.673
7.51302	0.61
7.55311	0.627
7.59321	0.615
7.6333	0.605
7.6734	0.603
7.7135	0.61
7.75359	0.598
7.79369	0.555
7.83378	0.521
7.87388	0.478
7.91397	0.453
7.95407	0.424
7.99417	0.396
8.03426	0.374
8.07436	0.396
8.11445	0.439
8.15455	0.453
8.19464	0.443
8.23474	0.403
8.27484	0.356
8.31493	0.299
8.35503	0.275
8.39512	0.314
8.43522	0.352
8.47531	0.301
8.51541	0.234
8.55551	0.239
8.5956	0.282
8.6357	0.362
8.67579	0.458
8.71589	0.516
8.75598	0.543
8.79608	0.566
8.83618	0.596
8.87627	0.64
8.91637	0.668
8.95646	0.678
8.99656	0.683
9.03665	0.667
9.07675	0.657
9.11685	0.663
9.15694	0.677
9.19704	0.688
9.23713	0.704
9.27723	0.717
9.31732	0.719
9.35742	0.7
9.39752	0.69
9.43761	0.71
9.47771	0.742
9.5178	0.762
9.5579	0.77
9.59799	0.772
9.63809	0.764
9.67819	0.757
9.71828	0.729
9.75838	0.7
9.79847	0.683
9.83857	0.677
9.87866	0.685
9.91876	0.709
9.95886	0.729
9.99895	0.735
10.039	0.739
10.0791	0.739
10.1192	0.737
10.1593	0.742
10.1994	0.749
10.2395	0.742
10.2796	0.7
10.3197	0.66
10.3598	0.642
10.3999	0.665
10.44	0.744
10.4801	0.789
10.5202	0.807
10.5603	0.809
10.6004	0.807
10.6405	0.802
10.6806	0.799
10.7207	0.799
10.7608	0.794
10.8009	0.785
10.841	0.774
10.8811	0.767
10.9212	0.76
10.9612	0.757
11.0013	0.757
11.0414	0.76
11.0815	0.767
11.1216	0.769
11.1617	0.769
11.2018	0.765
11.2419	0.752
11.282	0.729
11.3221	0.714
11.3622	0.7
11.4023	0.688
11.4424	0.675
11.4825	0.658
11.5226	0.64
11.5627	0.62
11.6028	0.617
11.6429	0.618
11.683	0.62
11.7231	0.625
11.7632	0.64
11.8033	0.667
11.8434	0.688
11.8835	0.717
11.9235	0.734
11.9636	0.752
12.0037	0.767
12.0438	0.777
12.0839	0.789
12.124	0.799
12.1641	0.804
12.2042	0.809
12.2443	0.811
12.2844	0.811
12.3245	0.807
12.3646	0.802
12.4047	0.801
12.4448	0.795
12.4849	0.79
12.525	0.78
12.5651	0.762
12.6052	0.75
12.6453	0.744
12.6854	0.742
12.7255	0.749
12.7656	0.754
12.8057	0.757
12.8457	0.757
12.8858	0.757
12.9259	0.75
12.966	0.739
13.0061	0.729
13.0462	0.719
13.0863	0.707
13.1264	0.695
13.1665	0.68
13.2066	0.668
13.2467	0.653
13.2868	0.64
13.3269	0.622
13.367	0.6
13.4071	0.586
13.4472	0.566
13.4873	0.548
13.5274	0.52
13.5675	0.494
13.6076	0.466
13.6477	0.444
13.6878	0.418
13.7279	0.401
13.7679	0.382
13.808	0.367
13.8481	0.361
13.8882	0.357
13.9283	0.357
13.9684	0.357
14.0085	0.357
14.0486	0.357
14.0887	0.357
14.1288	0.357
14.1689	0.362
14.209	0.364
14.2491	0.366
14.2892	0.367
14.3293	0.369
14.3694	0.371
14.4095	0.376
14.4496	0.379
14.4897	0.382
14.5298	0.387
14.5699	0.389
14.61	0.394
14.6501	0.396
14.6902	0.403
14.7302	0.403
14.7703	0.409
14.8104	0.413
14.8505	0.414
14.8906	0.419
14.9307	0.424
14.9708	0.433
15.0109	0.439
15.051	0.438
15.0911	0.434
15.1312	0.431
15.1713	0.429
15.2114	0.428
15.2515	0.423
15.2916	0.421
15.3317	0.421
15.3718	0.419
15.4119	0.419
15.452	0.419
15.4921	0.419
15.5322	0.419
15.5723	0.419
15.6124	0.419
15.6524	0.419
15.6925	0.419
15.7326	0.419
15.7727	0.421
15.8128	0.426
15.8529	0.429
15.893	0.429
15.9331	0.429
