Infrared Spectrum: 4,4',4''-Trichlorotrityl alcohol
Formula: C 19 H 13 Cl 3 O
CAS: 3010-80-8
State: gas
Origin: EPA-IR VAPOR PHASE LIBRARY
1/CM	ABSORBANCE
549.9	0.00373
559.547	0.00271
569.193	0.00244
578.84	0.00279
588.486	0.00293
598.133	0.0023566
607.779	0.0020301
617.426	0.0019588
627.072	0.0020465
636.719	0.0021414
646.365	0.0019381
656.012	0.0019734
665.658	0.002116
675.305	0.0021451
684.951	0.0023308
694.598	0.00362
704.245	0.00313
713.891	0.00251
723.538	0.00257
733.184	0.00247
742.831	0.00301
752.477	0.003
762.124	0.00256
771.77	0.00273
781.417	0.00319
791.063	0.00419
800.71	0.00648
810.356	0.01452
820.003	0.03528
829.649	0.02696
839.296	0.00835
848.943	0.00432
858.589	0.0034
868.236	0.00292
877.882	0.00275
887.529	0.00309
897.175	0.00445
906.822	0.00795
916.468	0.00578
926.115	0.00369
935.761	0.00322
945.408	0.00344
955.054	0.00321
964.701	0.0029
974.347	0.00307
983.994	0.00353
993.64	0.00466
1003.29	0.01101
1012.93	0.04019
1022.58	0.0129
1032.23	0.00615
1041.87	0.00406
1051.52	0.00394
1061.17	0.00418
1070.81	0.00487
1080.46	0.00701
1090.11	0.03076
1099.75	0.04173
1109.4	0.00764
1119.05	0.0042
1128.69	0.0036
1138.34	0.00359
1147.99	0.00505
1157.63	0.00599
1167.28	0.00368
1176.92	0.00392
1186.57	0.00506
1196.22	0.00437
1205.86	0.00407
1215.51	0.00407
1225.16	0.00433
1234.8	0.00403
1244.45	0.00367
1254.1	0.00377
1263.74	0.00428
1273.39	0.0046
1283.04	0.00504
1292.68	0.00556
1302.33	0.00595
1311.98	0.00643
1321.62	0.00579
1331.27	0.00495
1340.92	0.00477
1350.56	0.00434
1360.21	0.00422
1369.86	0.00361
1379.5	0.00394
1389.15	0.00578
1398.79	0.00836
1408.44	0.00606
1418.09	0.00397
1427.73	0.00292
1437.38	0.00305
1447.03	0.00329
1456.67	0.00446
1466.32	0.0072
1475.97	0.01462
1485.61	0.02849
1495.26	0.03107
1504.91	0.00688
1514.55	0.00368
1524.2	0.00258
1533.85	0.00236
1543.49	0.00238
1553.14	0.00254
1562.79	0.00318
1572.43	0.00475
1582.08	0.00536
1591.73	0.00727
1601.37	0.00448
1611.02	0.00294
1620.67	0.002266
1630.31	0.0022052
1639.96	0.00264
1649.6	0.0028
1659.25	0.0021954
1668.9	0.0016853
1678.54	0.0017894
1688.19	0.0017278
1697.84	0.0012941
1707.48	0.0015394
1717.13	0.0014982
1726.78	0.0017065
1736.42	0.0016605
1746.07	0.0018175
1755.72	0.0018805
1765.36	0.0021584
1775.01	0.0024
1784.66	0.0029
1794.3	0.0019593
1803.95	0.0017586
1813.6	0.001587
1823.24	0.0016648
1832.89	0.0016372
1842.54	0.0016565
1852.18	0.0015341
1861.83	0.0016321
1871.47	0.0016167
1881.12	0.0016885
1890.77	0.0019941
1900.41	0.00262
1910.06	0.00271
1919.71	0.0019865
1929.35	0.0016121
1939	0.0015039
1948.65	0.00139733
1958.29	0.00141691
1967.94	0.00143103
1977.59	0.00136843
1987.23	0.00135774
1996.88	0.0013312
2006.53	0.001327
2016.17	0.00136324
2025.82	0.00135678
2035.47	0.00136001
2045.11	0.00136653
2054.76	0.0013221
2064.41	0.00136116
2074.05	0.0013087
2083.7	0.0013183
2093.35	0.0013236
2102.99	0.0013245
2112.64	0.0013356
2122.28	0.0012964
2131.93	0.001307
2141.58	0.0012741
2151.22	0.0013106
2160.87	0.0012913
2170.52	0.0013341
2180.16	0.0013268
2189.81	0.0012991
2199.46	0.0012814
2209.1	0.0013173
2218.75	0.0013123
2228.4	0.0013402
2238.04	0.0013204
2247.69	0.0013069
2257.34	0.00135922
2266.98	0.0013442
2276.63	0.00138486
2286.28	0.0014562
2295.92	0.0015799
2305.57	0.0016352
2315.22	0.0016132
2324.86	0.001525
2334.51	0.00139079
2344.16	0.00139637
2353.8	0.00144965
2363.45	0.00139312
2373.09	0.0014976
2382.74	0.00138884
2392.39	0.0013228
2402.03	0.0013195
2411.68	0.0012838
2421.33	0.0012838
2430.97	0.001249
2440.62	0.001268
2450.27	0.0012875
2459.91	0.0013167
2469.56	0.0012792
2479.21	0.0012642
2488.85	0.0013052
2498.5	0.0012711
2508.15	0.0013012
2517.79	0.0013491
2527.44	0.00137707
2537.09	0.00136221
2546.73	0.0013397
2556.38	0.00136561
2566.03	0.0013421
2575.67	0.0013336
2585.32	0.00138385
2594.96	0.00137446
2604.61	0.001345
2614.26	0.0012985
2623.9	0.00125
2633.55	0.001236
2643.2	0.001258
2652.84	0.001249
2662.49	0.0012773
2672.14	0.0012916
2681.78	0.0013421
2691.43	0.0013403
2701.08	0.0013107
2710.72	0.0012664
2720.37	0.001258
2730.02	0.001239
2739.66	0.0012999
2749.31	0.0012945
2758.96	0.001247
2768.6	0.001247
2778.25	0.001218
2787.9	0.001251
2797.54	0.001206
2807.19	0.0012625
2816.84	0.001228
2826.48	0.0012664
2836.13	0.001211
2845.77	0.001229
2855.42	0.001211
2865.07	0.001164
2874.71	0.001192
2884.36	0.001147
2894.01	0.001114
2903.65	0.001142
2913.3	0.001126
2922.95	0.001169
2932.59	0.001216
2942.24	0.001136
2951.89	0.001165
2961.53	0.0012
2971.18	0.0013156
2980.83	0.001232
2990.47	0.001238
3000.12	0.00123
3009.77	0.001329
3019.41	0.001631
3029.06	0.0022098
3038.71	0.00263
3048.35	0.0021224
3058	0.0020077
3067.64	0.0019194
3077.29	0.00262
3086.94	0.00378
3096.58	0.0033
3106.23	0.0018994
3115.88	0.001228
3125.52	0.00114
3135.17	0.000965
3144.82	0.000904
3154.46	0.000848
3164.11	0.0008
3173.76	0.000743
3183.4	0.000768
3193.05	0.000778
3202.7	0.000767
3212.34	0.000673
3221.99	0.000682
3231.64	0.000696
3241.28	0.000579
3250.93	0.000622
3260.58	0.000731
3270.22	0.000629
3279.87	0.000643
3289.52	0.000603
3299.16	0.000554
3308.81	0.000663
3318.45	0.000706
3328.1	0.000598
3337.75	0.000454
3347.39	0.000535
3357.04	0.000577
3366.69	0.000548
3376.33	0.000605
3385.98	0.000506
3395.63	0.0005
3405.27	0.000491
3414.92	0.000609
3424.57	0.000441
3434.21	0.000568
3443.86	0.000431
3453.51	0.000462
3463.15	0.000621
3472.8	0.000504
3482.45	0.00057
3492.09	0.000544
3501.74	0.000684
3511.39	0.000527
3521.03	0.000514
3530.68	0.0005
3540.33	0.000487
3549.97	0.00051
3559.62	0.000579
3569.26	0.000681
3578.91	0.000517
3588.56	0.00092
3598.2	0.000635
3607.85	0.000824
3617.5	0.001138
3627.14	0.0024
3636.79	0.00414
3646.44	0.00145297
3656.08	0.000802
3665.73	0.000653
3675.38	0.00036
3685.02	0.000443
3694.67	0.000466
3704.32	0.000492
3713.96	0.000619
3723.61	0.000746
3733.26	0.000488
3742.9	0.00033
3752.55	0.00013
3762.2	0.000416
3771.84	0.000458
3781.49	0.000405
3791.13	0.000493
3800.78	0.00021
3810.43	0.00035
3820.07	0.00029
3829.72	0.000389
3839.37	0.00023
3849.01	0.00034
3858.66	0.000367
3868.31	0.00044
3877.95	0.000444
3887.6	0.000482
3897.25	0.00051
3906.89	0.000557
3916.54	0.000584
3926.19	0.000472
3935.83	0.000426
3945.48	0.000549
3955.13	0.000376
3964.77	0.000506
3974.42	0.000482
3984.07	0.00039
3993.71	0.00036
