Infrared Spectrum: (n-Butylamino)acetonitrile
Formula: C 6 H 12 N 2
CAS: 3010-04-6
State: gas
Instrument: HP-GC/MS/IRD
Origin: NIST Mass Spectrometry Data Center
1/CM	ABSORBANCE
550	0.0008475
562	0.00016
574	0.000185
586	0.000445
598	0.0005425
610	0.0006
622	0.000675
634	0.0010475
646	0.001505
658	0.0020475
670	0.0027
682	0.0033425
694	0.0039925
706	0.00429
718	0.0068025
730	0.003085
742	0.0023875
754	0.001835
766	0.0012725
778	0.0007525
790	0.00054
802	0.00045
814	0.0004
826	0.000355
838	0.00042
850	0.000745
862	0.00149
874	0.00232
886	0.002265
898	0.001265
910	0.00075
922	0.0004925
934	0.0003475
946	0.00043
958	0.000435
970	0.00037
982	0.0003325
994	0.00038
1006	0.0005525
1018	0.000735
1030	0.0007
1042	0.0005725
1054	0.00057
1066	0.00059
1078	0.0006475
1090	0.0011125
1102	0.0022325
1114	0.0044675
1126	0.00801
1138	0.0082675
1150	0.004375
1162	0.0019825
1174	0.000975
1186	0.000555
1198	0.00052
1210	0.0005675
1222	0.0005725
1234	0.00054
1246	0.0005825
1258	0.00057
1270	0.0005775
1282	0.0005975
1294	0.00081
1306	0.001225
1318	0.00211
1330	0.0027825
1342	0.00243
1354	0.0020025
1366	0.0018825
1378	0.001985
1390	0.001635
1402	0.001105
1414	0.0012825
1426	0.002345
1438	0.00378
1450	0.0054
1462	0.007025
1474	0.006035
1486	0.0032
1498	0.0013625
1510	0.0006475
1522	0.0003275
1534	0.00019
1546	9.5e-05
1558	6e-05
1570	2e-05
1582	0
1594	1.25e-05
1606	2.75e-05
1618	6.75e-05
1630	0.000155
1642	0.000345
1654	0.0004475
1666	0.000335
1678	0.000145
1690	0.0001075
1702	0.000145
1714	0.0002925
1726	0.0005075
1738	0.0005075
1750	0.00022
1762	0.00013
1774	0.0001125
1786	0.000105
1798	8.75e-05
1810	0.0001
1822	0.0001125
1834	0.0001075
1846	0.0001125
1858	0.000105
1870	9.5e-05
1882	6e-05
1894	8.5e-05
1906	0.00011
1918	9.25e-05
1930	0.0001025
1942	0.000115
1954	0.000125
1966	0.0001225
1978	0.0001225
1990	0.0001325
2002	0.0001775
2014	0.0002075
2026	0.00022
2038	0.000295
2050	0.000295
2062	0.00026
2074	0.000205
2086	0.000175
2098	0.0001875
2110	0.0001475
2122	0.0001625
2134	0.000165
2146	0.0001825
2158	0.0001775
2170	0.00019
2182	0.00017
2194	0.00016
2206	0.00017
2218	0.000185
2230	0.000205
2242	0.0001875
2254	0.000205
2266	0.000195
2278	0.0002225
2290	0.00021
2302	0.0001975
2314	0.0001375
2326	0.0001375
2338	0.0001575
2350	0.00014
2362	0.0001625
2374	0.0001775
2386	0.0001825
2398	0.00018
2410	0.00019
2422	0.0002
2434	0.0001775
2446	0.0002
2458	0.0001675
2470	0.00016
2482	0.00012
2494	0.0001475
2506	0.0001625
2518	0.0001675
2530	0.0001775
2542	0.00018
2554	0.0002125
2566	0.0002425
2578	0.0002825
2590	0.0003425
2602	0.00032
2614	0.000365
2626	0.00035
2638	0.0004025
2650	0.000405
2662	0.0005075
2674	0.000595
2686	0.00069
2698	0.000755
2710	0.0008025
2722	0.00093
2734	0.001065
2746	0.00124
2758	0.0013375
2770	0.001445
2782	0.001755
2794	0.002445
2806	0.003595
2818	0.0052175
2830	0.007215
2842	0.00904
2854	0.01058
2866	0.011895
2878	0.01293
2890	0.01251
2902	0.011985
2914	0.01474
2926	0.0201325
2938	0.0248375
2950	0.0235475
2962	0.021535
2974	0.0186125
2986	0.0103475
2998	0.00517
3010	0.00363
3022	0.0027725
3034	0.00185
3046	0.0012375
3058	0.00101
3070	0.00076
3082	0.0007375
3094	0.00066
3106	0.0006775
3118	0.0005975
3130	0.0005575
3142	0.00053
3154	0.000485
3166	0.0004575
3178	0.0003525
3190	0.0004175
3202	0.000435
3214	0.00052
3226	0.00058
3238	0.0006475
3250	0.0008225
3262	0.000935
3274	0.0010625
3286	0.0010025
3298	0.00077
3310	0.00056
3322	0.000875
3334	0.00114
3346	0.0011875
3358	0.0011225
3370	0.000915
3382	0.00074
3394	0.0005525
3406	0.000395
3418	0.0003425
3430	0.000265
3442	0.0001875
3454	0.000205
3466	0.00022
3478	0.000185
3490	0.0001775
3502	0.0001875
3514	0.0001525
3526	0.00017
3538	0.00017
3550	0.000125
3562	0.0001975
3574	0.0002125
3586	0.0001975
3598	0.0001825
3610	0.0002
3622	0.0002125
3634	0.0002025
3646	0.00022
3658	0.00019
3670	0.0002475
3682	0.0001725
3694	0.00022
3706	0.0003075
3718	0.0002025
3730	0.0002425
3742	0.00026
3754	0.00031
3766	0.000215
3778	0.00024
3790	0.00032
3802	0.00025
3814	0.0002575
3826	0.000225
3838	0.00027
