Infrared Spectrum: 2,2,4,4-Tetramethyl-1,3-cyclobutanediol
Formula: C 8 H 16 O 2
CAS: 3010-96-6
State: gas
Instrument: HP-GC/MS/IRD
Origin: NIST Mass Spectrometry Data Center
1/CM	ABSORBANCE
550	0.0001016
562	0.000232
574	0.0002888
586	0.0003032
598	0.0002896
610	0.0002592
622	0.0003728
634	0.0002912
646	7.28e-05
658	0.0001176
670	2.24e-05
682	7.2e-05
694	1.12e-05
706	6.64e-05
718	4.8e-06
730	5.04e-05
742	0.0001296
754	0.0002536
766	0.0003016
778	0.000252
790	0.0002592
802	0.000224
814	0.0001712
826	0.0002096
838	0.000228
850	0.0002752
862	0.0002592
874	0.0002192
886	0.000168
898	0.0002
910	0.0001816
922	0.0001928
934	0.000308
946	0.000464
958	0.000676
970	0.0009176
982	0.001408
994	0.0019392
1006	0.0017152
1018	0.0016048
1030	0.0023312
1042	0.0041728
1054	0.0064512
1066	0.0061624
1078	0.0037264
1090	0.0026
1102	0.0023144
1114	0.0023504
1126	0.0021784
1138	0.0015136
1150	0.0011672
1162	0.0012744
1174	0.0014672
1186	0.0016768
1198	0.0016864
1210	0.00128
1222	0.000932
1234	0.0009224
1246	0.0010216
1258	0.0010784
1270	0.001128
1282	0.0011104
1294	0.0009784
1306	0.0007504
1318	0.0005824
1330	0.0005376
1342	0.0005408
1354	0.0007544
1366	0.001328
1378	0.002052
1390	0.0017112
1402	0.000872
1414	0.0005696
1426	0.0004824
1438	0.0006952
1450	0.0012704
1462	0.0017704
1474	0.001568
1486	0.0007456
1498	0.000292
1510	0.0001728
1522	0.0001248
1534	8.88e-05
1546	9.84e-05
1558	0.0001128
1570	8e-05
1582	6.72e-05
1594	7.76e-05
1606	7.52e-05
1618	6.56e-05
1630	7.68e-05
1642	6.4e-05
1654	7.44e-05
1666	6.24e-05
1678	6e-05
1690	5.52e-05
1702	5.04e-05
1714	5.36e-05
1726	4.08e-05
1738	3.92e-05
1750	4.96e-05
1762	4.16e-05
1774	4.32e-05
1786	3.04e-05
1798	1.12e-05
1810	7.2e-06
1822	1.04e-05
1834	1.2e-05
1846	2.48e-05
1858	4.8e-06
1870	2.4e-06
1882	4.8e-06
1894	8e-06
1906	1.2e-05
1918	1.04e-05
1930	1.2e-05
1942	8e-06
1954	2.16e-05
1966	2.48e-05
1978	9.6e-06
1990	1.28e-05
2002	2.88e-05
2014	2.32e-05
2026	2.08e-05
2038	2.32e-05
2050	1.12e-05
2062	1.44e-05
2074	1.2e-05
2086	1.6e-06
2098	2.64e-05
2110	1.36e-05
2122	3.52e-05
2134	3.04e-05
2146	5.36e-05
2158	4.24e-05
2170	4.4e-05
2182	3.92e-05
2194	3.04e-05
2206	4.08e-05
2218	3.76e-05
2230	1.68e-05
2242	2.08e-05
2254	2.32e-05
2266	2.32e-05
2278	3.6e-05
2290	2.48e-05
2302	1.36e-05
2314	1.6e-05
2326	3.12e-05
2338	4.64e-05
2350	4.16e-05
2362	5.52e-05
2374	2.96e-05
2386	3.36e-05
2398	2.56e-05
2410	4e-05
2422	4e-05
2434	4.08e-05
2446	4.64e-05
2458	3.36e-05
2470	1.92e-05
2482	2.32e-05
2494	2.72e-05
2506	1.36e-05
2518	3.2e-05
2530	4.32e-05
2542	3.52e-05
2554	3.6e-05
2566	5.44e-05
2578	6.16e-05
2590	6.64e-05
2602	6.64e-05
2614	5.2e-05
2626	5.84e-05
2638	7.6e-05
2650	6.72e-05
2662	6.8e-05
2674	0.0001144
2686	0.0001152
2698	0.0001304
2710	0.0001736
2722	0.0002344
2734	0.0002872
2746	0.0002432
2758	0.0002328
2770	0.000264
2782	0.0002688
2794	0.0002856
2806	0.0003312
2818	0.000416
2830	0.0005192
2842	0.0007328
2854	0.0012136
2866	0.0027112
2878	0.0044128
2890	0.0049824
2902	0.0045576
2914	0.004332
2926	0.0049512
2938	0.005652
2950	0.0071552
2962	0.0076536
2974	0.0052288
2986	0.002996
2998	0.00162
3010	0.0007928
3022	0.0004616
3034	0.0003016
3046	0.0002296
3058	0.0002
3070	0.0001912
3082	0.000188
3094	0.0002064
3106	0.0001648
3118	0.0001904
3130	0.0002072
3142	0.000224
3154	0.000244
3166	0.0001768
3178	0.0001272
3190	0.0001632
3202	9.76e-05
3214	6.96e-05
3226	7.12e-05
3238	7.68e-05
3250	4.64e-05
3262	5.52e-05
3274	3.2e-05
3286	4.88e-05
3298	5.6e-05
3310	5.36e-05
3322	7.76e-05
3334	2.4e-06
3346	1.68e-05
3358	7.28e-05
3370	7.92e-05
3382	9.6e-05
3394	6.32e-05
3406	9.12e-05
3418	0.0001008
3430	9.92e-05
3442	0.0001008
3454	0.0001064
3466	9.44e-05
3478	0.0001024
3490	0.0001312
3502	0.0001256
3514	0.0001208
3526	0.0001192
3538	8.24e-05
3550	0.0001024
3562	7.92e-05
3574	0.0001144
3586	0.0001
3598	0.0001048
3610	0.0001536
3622	0.0002832
3634	0.0006488
3646	0.001428
3658	0.0016312
3670	0.0008664
3682	0.0003192
3694	0.0001912
3706	0.0001384
3718	0.0001
3730	6.56e-05
3742	0.0001024
3754	7.84e-05
3766	6.64e-05
3778	0.0001
3790	0.0001512
3802	5.04e-05
3814	0.0001152
3826	0.0001224
3838	0.000164
