Infrared Spectrum: 4,4',4"-Trimethoxytrityl alcohol
Formula: C 22 H 22 O 4
CAS: 3010-81-9
State: gas
Origin: EPA-IR VAPOR PHASE LIBRARY
1/CM	ABSORBANCE
549.8	0.0011023
559.445	0.001903
569.09	0.003303
578.734	0.007133
588.379	0.007393
598.024	0.003183
607.669	0.001883
617.313	0.0012234
626.958	0.0010347
636.603	0.001235
646.248	0.0008972
655.893	0.0008131
665.537	0.0008488
675.182	0.0005392
684.827	0.0008511
694.472	0.0006858
704.116	0.0006931
713.761	0.0005752
723.406	0.0005591
733.051	0.0006298
742.695	0.0010708
752.34	0.000703
761.985	0.0004536
771.63	0.0008806
781.275	0.0012452
790.919	0.0011505
800.564	0.002743
810.209	0.003293
819.854	0.006123
829.498	0.012693
839.143	0.007663
848.788	0.003383
858.433	0.001493
868.078	0.0013028
877.722	0.0008641
887.367	0.001613
897.012	0.001713
906.657	0.002313
916.301	0.001453
925.946	0.0009558
935.591	0.0012579
945.236	0.0013065
954.88	0.0012255
964.525	0.0009716
974.17	0.001783
983.815	0.002033
993.46	0.002683
1003.1	0.005273
1012.75	0.005173
1022.39	0.006653
1032.04	0.009173
1041.68	0.011433
1051.33	0.006833
1060.97	0.003373
1070.62	0.002033
1080.26	0.0007995
1089.91	0.002373
1099.55	0.001493
1109.2	0.0011809
1118.84	0.002333
1128.49	0.002073
1138.13	0.002453
1147.78	0.003833
1157.42	0.006543
1167.07	0.012783
1176.71	0.026743
1186.36	0.008403
1196	0.004673
1205.64	0.004293
1215.29	0.005813
1224.93	0.008323
1234.58	0.015653
1244.22	0.037683
1253.87	0.035373
1263.51	0.014423
1273.16	0.010253
1282.8	0.011263
1292.45	0.012543
1302.09	0.008843
1311.74	0.006063
1321.38	0.004473
1331.03	0.003533
1340.67	0.002803
1350.32	0.002313
1359.96	0.002093
1369.61	0.001823
1379.25	0.001733
1388.9	0.001703
1398.54	0.001753
1408.18	0.002143
1417.83	0.002243
1427.47	0.002133
1437.12	0.003103
1446.76	0.005033
1456.41	0.004353
1466.05	0.006123
1475.7	0.005793
1485.34	0.005963
1494.99	0.012063
1504.63	0.031423
1514.28	0.021553
1523.92	0.006493
1533.57	0.003383
1543.21	0.002403
1552.86	0.002143
1562.5	0.002553
1572.15	0.003963
1581.79	0.005983
1591.44	0.006413
1601.08	0.010403
1610.73	0.010323
1620.37	0.004723
1630.01	0.002313
1639.66	0.001563
1649.3	0.001403
1658.95	0.0009306
1668.59	0.0007603
1678.24	0.0007891
1687.88	0.0006179
1697.53	0.000618
1707.17	0.0006274
1716.82	0.0006356
1726.46	0.0004969
1736.11	0.0006286
1745.75	0.0006402
1755.4	0.0007686
1765.04	0.000902
1774.69	0.0006741
1784.33	0.000589
1793.98	0.0007179
1803.62	0.0005886
1813.27	0.0005963
1822.91	0.0006266
1832.55	0.0006051
1842.2	0.0006235
1851.84	0.0005848
1861.49	0.0007253
1871.13	0.0008507
1880.78	0.0009217
1890.42	0.0008954
1900.07	0.0009142
1909.71	0.0006741
1919.36	0.0006284
1929	0.000444
1938.65	0.0006097
1948.29	0.0005972
1957.94	0.0005974
1967.58	0.000656
1977.23	0.0006659
1986.87	0.0006048
1996.52	0.0006068
2006.16	0.000578
2015.81	0.0007717
2025.45	0.0009329
2035.1	0.0011108
2044.74	0.0010443
2054.38	0.0008951
2064.03	0.0010719
2073.67	0.0010878
2083.32	0.0010481
2092.96	0.0006945
2102.61	0.0004689
2112.25	0.0004994
2121.9	0.0004826
2131.54	0.00042018
2141.19	0.000467
2150.83	0.0004695
2160.48	0.0004293
2170.12	0.0004231
2179.77	0.00041869
2189.41	0.0004873
2199.06	0.000433
2208.7	0.00039187
2218.35	0.00036817
2227.99	0.0005098
2237.64	0.0004724
2247.28	0.00036155
2256.92	0.00033839
2266.57	0.0004615
2276.21	0.0005217
2285.86	0.0005984
2295.5	0.0005896
2305.15	0.000569
2314.79	0.0004334
2324.44	0.0004453
2334.08	0.00038372
2343.73	0.0004699
2353.37	0.0005086
2363.02	0.00039514
2372.66	0.0006072
2382.31	0.00039757
2391.95	0.0004675
2401.6	0.0005674
2411.24	0.0004309
2420.89	0.0004759
2430.53	0.0006133
2440.18	0.0004919
2449.82	0.000478
2459.47	0.0005594
2469.11	0.0005354
2478.75	0.00051
2488.4	0.0005457
2498.04	0.0005352
2507.69	0.0005738
2517.33	0.0005547
2526.98	0.000691
2536.62	0.000632
2546.27	0.0006679
2555.91	0.0006756
2565.56	0.0005919
2575.2	0.0005773
2584.85	0.0005935
2594.49	0.0005782
2604.14	0.00041193
2613.78	0.0004783
2623.43	0.0005469
2633.07	0.0004854
2642.72	0.00040671
2652.36	0.00039695
2662.01	0.00035981
2671.65	0.0004139
2681.29	0.00034497
2690.94	0.00038487
2700.58	0.0004694
2710.23	0.00033308
2719.87	0.0005191
2729.52	0.0004735
2739.16	0.0005037
2748.81	0.0006006
2758.45	0.0004313
2768.1	0.0006739
2777.74	0.0006746
2787.39	0.0008397
2797.03	0.0009935
2806.68	0.0009833
2816.32	0.0012856
2825.97	0.001683
2835.61	0.003163
2845.26	0.005643
2854.9	0.002743
2864.55	0.001923
2874.19	0.001853
2883.84	0.001863
2893.48	0.002203
2903.12	0.002723
2912.77	0.003823
2922.41	0.004063
2932.06	0.004223
2941.7	0.005803
2951.35	0.006103
2960.99	0.004963
2970.64	0.003383
2980.28	0.002733
2989.93	0.002973
2999.57	0.005173
3009.22	0.006593
3018.86	0.002813
3028.51	0.002233
3038.15	0.002723
3047.8	0.002543
3057.44	0.002003
3067.09	0.002433
3076.73	0.002773
3086.38	0.001973
3096.02	0.001843
3105.67	0.0011487
3115.31	0.000967
3124.95	0.0008188
3134.6	0.0005623
3144.24	0.0006248
3153.89	0.0003884
3163.53	0.0007503
3173.18	0.000330223
3182.82	0.00036166
3192.47	0.0005179
3202.11	0.0004337
3211.76	0.00040901
3221.4	0.00037092
3231.05	0.00036392
3240.69	0.0004465
3250.34	0.000330487
3259.98	0.00034708
3269.63	0.0004262
3279.27	0.0003883
3288.92	0.00034222
3298.56	0.0002913
3308.21	0.00039841
3317.85	0.0004492
3327.49	0.00039642
3337.14	0.0004307
3346.78	0.0004923
3356.43	0.000141
3366.07	0.00033606
3375.72	0.00031785
3385.36	0.0002638
3395.01	0.0004234
3404.65	0.0002619
3414.3	0.00038186
3423.94	0.0002432
3433.59	0.0002287
3443.23	0.00041728
3452.88	0.000509
3462.52	0.00040763
3472.17	0.0005546
3481.81	0.0005195
3491.46	0.0002683
3501.1	0.00039869
3510.75	9.5e-05
3520.39	0.00056
3530.04	0.000265
3539.68	0.0002989
3549.32	0.00038426
3558.97	0.000265
3568.61	0.0004424
3578.26	6.9e-05
3587.9	0.0002401
3597.55	0.0006532
3607.19	0.0004864
3616.84	0.0007091
3626.48	0.0008135
3636.13	0.001623
3645.77	0.0008729
3655.42	0.0004997
3665.06	0.00035529
3674.71	0.0004579
3684.35	0.0005425
3694	0.0004742
3703.64	0.00037309
3713.29	0.0006404
3722.93	0.0004797
3732.58	0.0005558
3742.22	0.00040184
3751.86	0.000187
3761.51	0.00037121
3771.15	0.0004835
3780.8	0.00039356
3790.44	0.0005091
3800.09	0.000235
3809.73	0.00037931
3819.38	0.0004688
3829.02	0.0004143
3838.67	0.00039095
3848.31	0.0004986
3857.96	0.00041577
3867.6	0.0002666
3877.25	0.000187
3886.89	0.0005168
3896.54	0.0002474
3906.18	0.000216
3915.83	0.0004327
3925.47	0.000325171
3935.12	0.000475
3944.76	0.00039269
3954.41	0.0004869
3964.05	0.00034188
3973.69	0.00041628
3983.34	0.000533
3992.98	0.0005585
