Infrared Spectrum: Diethylaminoacetonitrile
Formula: C 6 H 12 N 2
CAS: 3010-02-4
State: gas
Origin: EPA-IR VAPOR PHASE LIBRARY
1/CM	ABSORBANCE
549.9	0.002235
559.547	0.002167
569.193	0.002515
578.84	0.0027554
588.486	0.0033005
598.133	0.003621
607.779	0.0037897
617.426	0.00382
627.072	0.00388
636.719	0.0033767
646.365	0.00282225
656.012	0.002556
665.658	0.002629
675.305	0.0030447
684.951	0.0032653
694.598	0.0034095
704.245	0.0034597
713.891	0.00579
723.538	0.00396
733.184	0.0055
742.831	0.00921
752.477	0.01449
762.124	0.01791
771.77	0.01699
781.417	0.01358
791.063	0.01234
800.71	0.01393
810.356	0.01535
820.003	0.01435
829.649	0.01234
839.296	0.01301
848.943	0.0183
858.589	0.02629
868.236	0.03066
877.882	0.02573
887.529	0.01883
897.175	0.01565
906.822	0.01212
916.468	0.00836
926.115	0.00738
935.761	0.00699
945.408	0.00686
955.054	0.00866
964.701	0.01344
974.347	0.01939
983.994	0.02144
993.64	0.0187
1003.29	0.01328
1012.93	0.00967
1022.58	0.0095
1032.23	0.01321
1041.87	0.0226
1051.52	0.03917
1061.17	0.05619
1070.81	0.06671
1080.46	0.06793
1090.11	0.06503
1099.75	0.05868
1109.4	0.04862
1119.05	0.04227
1128.69	0.03683
1138.34	0.03213
1147.99	0.03473
1157.63	0.04363
1167.28	0.04737
1176.92	0.04197
1186.57	0.03725
1196.22	0.04429
1205.86	0.04869
1215.51	0.03859
1225.16	0.02337
1234.8	0.01498
1244.45	0.01312
1254.1	0.01501
1263.74	0.01701
1273.39	0.01799
1283.04	0.0207
1292.68	0.02709
1302.33	0.03759
1311.98	0.0519
1321.62	0.05843
1331.27	0.0521
1340.92	0.04526
1350.56	0.04633
1360.21	0.04584
1369.86	0.04828
1379.5	0.05969
1389.15	0.06532
1398.79	0.05072
1408.44	0.02967
1418.09	0.02615
1427.73	0.03383
1437.38	0.0413
1447.03	0.0429
1456.67	0.04521
1466.32	0.0439
1475.97	0.03615
1485.61	0.02303
1495.26	0.01373
1504.91	0.00874
1514.55	0.00686
1524.2	0.00598
1533.85	0.00532
1543.49	0.00478
1553.14	0.00435
1562.79	0.00417
1572.43	0.00391
1582.08	0.0037803
1591.73	0.0036269
1601.37	0.0035499
1611.02	0.0034548
1620.67	0.0034642
1630.31	0.0036351
1639.96	0.0037964
1649.6	0.00385
1659.25	0.0036356
1668.9	0.003367
1678.54	0.0029816
1688.19	0.0027354
1697.84	0.002585
1707.48	0.002402
1717.13	0.002326
1726.78	0.002268
1736.42	0.0022
1746.07	0.002275
1755.72	0.002222
1765.36	0.002219
1775.01	0.002234
1784.66	0.002346
1794.3	0.002429
1803.95	0.002603
1813.6	0.002774
1823.24	0.00289461
1832.89	0.00287129
1842.54	0.0029238
1852.18	0.00287257
1861.83	0.00281117
1871.47	0.002643
1881.12	0.002544
1890.77	0.002367
1900.41	0.002339
1910.06	0.002365
1919.71	0.002407
1929.35	0.002492
1939	0.002587
1948.65	0.002631
1958.29	0.002694
1967.94	0.002616
1977.59	0.002442
1987.23	0.002196
1996.88	0.002106
2006.53	0.001956
2016.17	0.001961
2025.82	0.001937
2035.47	0.001973
2045.11	0.002148
2054.76	0.002313
2064.41	0.002555
2074.05	0.002657
2083.7	0.002687
2093.35	0.002485
2102.99	0.002458
2112.64	0.002324
2122.28	0.002273
2131.93	0.002237
2141.58	0.002244
2151.22	0.002224
2160.87	0.002385
2170.52	0.002535
2180.16	0.002688
2189.81	0.0027312
2199.46	0.002689
2209.1	0.002545
2218.75	0.002484
2228.4	0.002487
2238.04	0.002443
2247.69	0.002474
2257.34	0.002502
2266.98	0.00262
2276.63	0.002676
2286.28	0.002557
2295.92	0.0026
2305.57	0.002499
2315.22	0.002456
2324.86	0.002483
2334.51	0.002531
2344.16	0.002639
2353.8	0.0028025
2363.45	0.0030141
2373.09	0.0030668
2382.74	0.0029888
2392.39	0.0029769
2402.03	0.0030256
2411.68	0.003066
2421.33	0.0031793
2430.97	0.0031552
2440.62	0.0031143
2450.27	0.0029297
2459.91	0.002678
2469.56	0.002477
2479.21	0.002377
2488.85	0.002323
2498.5	0.002351
2508.15	0.002418
2517.79	0.002533
2527.44	0.002689
2537.09	0.0028062
2546.73	0.0029849
2556.38	0.0031829
2566.03	0.0034708
2575.67	0.0037641
2585.32	0.00401
2594.96	0.00428
2604.61	0.00444
2614.26	0.0045
2623.9	0.00472
2633.55	0.00501
2643.2	0.00551
2652.84	0.00587
2662.49	0.00656
2672.14	0.00728
2681.78	0.00824
2691.43	0.00945
2701.08	0.01083
2710.72	0.01212
2720.37	0.01359
2730.02	0.01532
2739.66	0.01704
2749.31	0.01848
2758.96	0.02043
2768.6	0.02341
2778.25	0.02712
2787.9	0.03426
2797.54	0.04635
2807.19	0.06308
2816.84	0.07962
2826.48	0.09493
2836.13	0.10383
2845.77	0.09562
2855.42	0.07627
2865.07	0.06108
2874.71	0.06161
2884.36	0.06861
2894.01	0.0705
2903.65	0.06888
2913.3	0.0725
2922.95	0.08657
2932.59	0.11605
2942.24	0.14262
2951.89	0.14499
2961.53	0.1466
2971.18	0.19795
2980.83	0.24335
2990.47	0.18114
3000.12	0.0854
3009.77	0.03707
3019.41	0.02201
3029.06	0.01627
3038.71	0.01306
3048.35	0.01115
3058	0.00979
3067.64	0.00873
3077.29	0.00794
3086.94	0.00739
3096.58	0.00716
3106.23	0.00665
3115.88	0.00593
3125.52	0.00516
3135.17	0.00436
3144.82	0.0039
3154.46	0.003708
3164.11	0.0032748
3173.76	0.0032916
3183.4	0.0033456
3193.05	0.003281
3202.7	0.0027687
3212.34	0.002236
3221.99	0.002132
3231.64	0.00154
3241.28	0.00132
3250.93	0.00114
3260.58	0.00115
3270.22	0.00105
3279.87	0.00102
3289.52	0.00098
3299.16	0.00072
3308.81	0.00081
3318.45	0.00077
3328.1	0.00093
3337.75	0.0009
3347.39	0.0009
3357.04	0.00083
3366.69	0.00056
3376.33	0.00056
3385.98	0.00038
3395.63	0.00039
3405.27	0.00033
3414.92	0.00012
3424.57	0.00013
3434.21	0.00025
3443.86	0.00035
3453.51	0.00028
3463.15	0.00026
3472.8	0.00034
3482.45	0.00018
3492.09	0.0001
3501.74	7e-05
3511.39	0.00018
3521.03	0.00011
3530.68	0.00012
3540.33	0.00015
3549.97	0.00019
3559.62	0.0001
3569.26	0.00028
3578.91	0.00039
3588.56	0.0004
3598.2	0.00057
3607.85	0.00049
3617.5	0.00063
3627.14	0.00055
3636.79	0.00077
3646.44	0.00058
3656.08	0.00046
3665.73	0.0007
3675.38	0.0005
3685.02	0.00072
3694.67	0.00074
3704.32	0.00082
3713.96	0.00117
3723.61	0.00108
3733.26	0.00111
3742.9	0.00101
3752.55	0.00097
3762.2	0.00086
3771.84	0.00094
3781.49	0.00089
3791.13	0.0009
3800.78	0.00098
3810.43	0.00093
3820.07	0.00096
3829.72	0.00077
3839.37	0.00084
3849.01	0.00099
3858.66	0.00106
3868.31	0.00107
3877.95	0.00127
3887.6	0.00118
3897.25	0.00125
3906.89	0.00137
3916.54	0.00147
3926.19	0.00152
3935.83	0.0016
3945.48	0.0017
3955.13	0.001838
3964.77	0.00174
3974.42	0.0018
3984.07	0.001951
3993.71	0.001911
