Infrared Spectrum: N-Cyanomethylpiperidine
Formula: C 7 H 12 N 2
CAS: 3010-03-5
State: gas
Origin: EPA-IR VAPOR PHASE LIBRARY
1/CM	ABSORBANCE
549.8	0.000725
559.445	0.000403
569.09	0.000967
578.734	0.0013558
588.379	0.000347
598.024	0.00148
607.669	0.0017816
617.313	0.000992
626.958	0.0021033
636.603	0.00225
646.248	0.0015536
655.893	0.00304
665.537	0.0020763
675.182	0.00254
684.827	0.0017917
694.472	0.0020541
704.116	0.0019405
713.761	0.00239
723.406	0.00125739
733.051	0.00252
742.695	0.00328
752.34	0.00458
761.985	0.00643
771.63	0.0066
781.275	0.0063
790.919	0.00415
800.564	0.00295
810.209	0.00308
819.854	0.00385
829.498	0.00416
839.143	0.00551
848.788	0.00868
858.433	0.01224
868.078	0.01576
877.722	0.01738
887.367	0.01056
897.012	0.0046
906.657	0.00289
916.301	0.00263
925.946	0.00287
935.591	0.00305
945.236	0.00402
954.88	0.0063
964.525	0.0075
974.17	0.00783
983.815	0.01013
993.46	0.0186
1003.1	0.01864
1012.75	0.00873
1022.39	0.005
1032.04	0.00717
1041.68	0.00826
1051.33	0.00725
1060.97	0.00705
1070.62	0.00527
1080.26	0.00681
1089.91	0.00863
1099.55	0.02274
1109.2	0.0477
1118.84	0.04795
1128.49	0.02308
1138.13	0.00999
1147.78	0.01255
1157.42	0.02517
1167.07	0.02484
1176.71	0.01461
1186.36	0.00848
1196	0.00715
1205.64	0.0057
1215.29	0.0037
1224.93	0.0011613
1234.58	0.00356
1244.22	0.00548
1253.87	0.00764
1263.51	0.01005
1273.16	0.01075
1282.8	0.01069
1292.45	0.01351
1302.09	0.02247
1311.74	0.0319
1321.38	0.03166
1331.03	0.02557
1340.67	0.01924
1350.32	0.01483
1359.96	0.00963
1369.61	0.00822
1379.25	0.00856
1388.9	0.00766
1398.54	0.00682
1408.18	0.00664
1417.83	0.01067
1427.47	0.01743
1437.12	0.02003
1446.76	0.02383
1456.41	0.02598
1466.05	0.02281
1475.7	0.01212
1485.34	0.00591
1494.99	0.00351
1504.63	0.00283
1514.28	0.00257
1523.92	0.00224
1533.57	0.001963
1543.21	0.00219
1552.86	0.0014821
1562.5	0.0016974
1572.15	0.001607
1581.79	0.0019171
1591.44	0.0014637
1601.08	0.0016623
1610.73	0.0015638
1620.37	0.0019512
1630.01	0.0020394
1639.66	0.0018703
1649.3	0.0016035
1658.95	0.0018332
1668.59	0.0016228
1678.24	0.0015176
1687.88	0.0016077
1697.53	0.0015909
1707.17	0.0017137
1716.82	0.0014144
1726.46	0.0016468
1736.11	0.0017159
1745.75	0.0016566
1755.4	0.0017153
1765.04	0.0016609
1774.69	0.0017998
1784.33	0.0015683
1793.98	0.0016503
1803.62	0.0015431
1813.27	0.001866
1822.91	0.0016067
1832.55	0.0016744
1842.2	0.0016095
1851.84	0.002123
1861.49	0.0019935
1871.13	0.00224
1880.78	0.0018997
1890.42	0.0020946
1900.07	0.002072
1909.71	0.0019347
1919.36	0.002174
1929	0.0020012
1938.65	0.0018563
1948.29	0.0020256
1957.94	0.0018606
1967.58	0.0020161
1977.23	0.0018899
1986.87	0.0018861
1996.52	0.0018763
2006.16	0.0018404
2015.81	0.0017959
2025.45	0.0018344
2035.1	0.0018984
2044.74	0.002078
2054.38	0.0021784
2064.03	0.0021086
2073.67	0.00225
2083.32	0.0021412
2092.96	0.0019742
2102.61	0.0020527
2112.25	0.00213
2121.9	0.0019486
2131.54	0.0016909
2141.19	0.0018126
2150.83	0.0019635
2160.48	0.0020244
2170.12	0.0021655
2179.77	0.00244
2189.41	0.0023
2199.06	0.00264
2208.7	0.00254
2218.35	0.00261
2227.99	0.00335
2237.64	0.00235
2247.28	0.00231
2256.92	0.00227
2266.57	0.00228
2276.21	0.00235
2285.86	0.00245
2295.5	0.0021284
2305.15	0.00237
2314.79	0.0020764
2324.44	0.00237
2334.08	0.0019403
2343.73	0.0019896
2353.37	0.0016824
2363.02	0.0019093
2372.66	0.0018113
2382.31	0.00224
2391.95	0.00226
2401.6	0.00258
2411.24	0.00288
2420.89	0.00263
2430.53	0.00255
2440.18	0.00247
2449.82	0.00223
2459.47	0.0020225
2469.11	0.0023
2478.75	0.0020638
2488.4	0.0020577
2498.04	0.00229
2507.69	0.00223
2517.33	0.0021083
2526.98	0.00255
2536.62	0.00226
2546.27	0.0020802
2555.91	0.00222
2565.56	0.0021068
2575.2	0.00262
2584.85	0.00261
2594.49	0.00327
2604.14	0.00349
2613.78	0.00335
2623.43	0.00419
2633.07	0.0046
2642.72	0.00531
2652.36	0.00588
2662.01	0.00665
2671.65	0.00752
2681.29	0.00877
2690.94	0.00936
2700.58	0.00989
2710.23	0.0114
2719.87	0.01309
2729.52	0.01592
2739.16	0.01742
2748.81	0.01899
2758.45	0.02209
2768.1	0.02351
2777.74	0.02478
2787.39	0.03082
2797.03	0.041
2806.68	0.05134
2816.32	0.05281
2825.97	0.04459
2835.61	0.03267
2845.26	0.02628
2854.9	0.03171
2864.55	0.04187
2874.19	0.03942
2883.84	0.02938
2893.48	0.02712
2903.12	0.03217
2912.77	0.04495
2922.41	0.07407
2932.06	0.13309
2941.7	0.21052
2951.35	0.20258
2960.99	0.09971
2970.64	0.03133
2980.28	0.01057
2989.93	0.00591
2999.57	0.00442
3009.22	0.00431
3018.86	0.00356
3028.51	0.00328
3038.15	0.00343
3047.8	0.0024
3057.44	0.0020382
3067.09	0.0020032
3076.73	0.0020118
3086.38	0.0014874
3096.02	0.0021073
3105.67	0.0021618
3115.31	0.00275
3124.95	0.0016532
3134.6	0.00218
3144.24	0.0021246
3153.89	0.00244
3163.53	0.0016347
3173.18	0.00231
3182.82	0.00267
3192.47	0.00223
3202.11	0.00223
3211.76	0.0020081
3221.4	0.00124129
3231.05	0.000989
3240.69	0.0015422
3250.34	0.00227
3259.98	0.0018194
3269.63	0.0018319
3279.27	0.0013117
3288.92	0.0017273
3298.56	0.0018471
3308.21	0.0017628
3317.85	0.001593
3327.49	0.00176
3337.14	0.0022
3346.78	0.0021776
3356.43	0.0018349
3366.07	0.001137
3375.72	0.0014497
3385.36	0.000544
3395.01	0.0010833
3404.65	0.001079
3414.3	0.0014793
3423.94	0.0015604
3433.59	0.0012647
3443.23	0.00119058
3452.88	0.00243
3462.52	0.0013461
3472.17	0.00117779
3481.81	0.0012992
3491.46	0.0018361
3501.1	0.00107
3510.75	0.0016107
3520.39	0.0016338
3530.04	0.001007
3539.68	0.00119443
3549.32	0.0014037
3558.97	0.001025
3568.61	0.00117977
3578.26	0.000888
3587.9	0.000853
3597.55	0.0011362
3607.19	0.0011988
3616.84	0.0015924
3626.48	0.0014189
3636.13	0.0018087
3645.77	0.0016181
3655.42	0.0014525
3665.06	0.00123895
3674.71	0.0011266
3684.35	0.00124847
3694	0.000777
3703.64	0.0015903
3713.29	0.001009
3722.93	0.00124417
3732.58	0.0014003
3742.22	0.000754
3751.86	0.0017785
3761.51	0.0013018
3771.15	0.0014144
3780.8	0.0013123
3790.44	0.0015575
3800.09	0.001049
3809.73	0.0017069
3819.38	0.0014168
3829.02	0.00121991
3838.67	0.0011551
3848.31	0.000548
3857.96	0.0017145
3867.6	0.00117361
3877.25	0.0013505
3886.89	0.001866
3896.54	0.0011345
3906.18	0.0022
3915.83	0.0019827
3925.47	0.00238
3935.12	0.00219
3944.76	0.0017876
3954.41	0.00229
3964.05	0.0020091
3973.69	0.00221
3983.34	0.0018589
3992.98	0.0016678
