Infrared Spectrum: 4-Hydroxy-3-nitrobenzaldehyde
Formula: C 7 H 5 N O 4
CAS: 3011-34-5
State: gas
Origin: EPA-IR VAPOR PHASE LIBRARY
1/CM	ABSORBANCE
501.5	0.0007594
513.074	0.0008777
524.648	0.00157
536.222	0.00325
547.796	0.00413
559.37	0.00217
570.944	0.00125
582.518	0.00105
594.092	0.00145
605.666	0.00293
617.24	0.00379
628.814	0.00277
640.388	0.00257
651.962	0.00236
663.536	0.00316
675.11	0.00478
686.684	0.00494
698.258	0.00518
709.832	0.00628
721.406	0.0052
732.98	0.00185
744.554	0.00112
756.128	0.00169
767.702	0.00275
779.276	0.00198
790.85	0.00127
802.423	0.0009792
813.997	0.00254
825.571	0.00599
837.145	0.00647
848.719	0.00285
860.293	0.0009778
871.867	0.0004697
883.441	0.0007288
895.015	0.00122
906.589	0.00182
918.163	0.00299
929.737	0.00208
941.311	0.00203
952.885	0.00157
964.459	0.0007034
976.033	0.0006765
987.607	0.0005308
999.181	0.0007355
1010.76	0.0004463
1022.33	0.0003438
1033.9	0.0004514
1045.48	0.0007838
1057.05	0.00217
1068.63	0.00385
1080.2	0.00232
1091.77	0.00131
1103.35	0.00154
1114.92	0.00237
1126.49	0.00343
1138.07	0.00358
1149.64	0.00505
1161.22	0.01188
1172.79	0.02453
1184.36	0.02027
1195.94	0.00878
1207.51	0.00481
1219.09	0.00395
1230.66	0.00442
1242.23	0.00681
1253.81	0.01282
1265.38	0.01744
1276.96	0.01449
1288.53	0.01023
1300.1	0.00919
1311.68	0.01567
1323.25	0.02352
1334.83	0.01822
1346.4	0.01379
1357.97	0.01045
1369.55	0.00689
1381.12	0.00658
1392.7	0.00531
1404.27	0.00398
1415.84	0.00427
1427.42	0.00649
1438.99	0.00873
1450.57	0.00666
1462.14	0.00384
1473.71	0.00404
1485.29	0.00737
1496.86	0.00697
1508.44	0.00318
1520.01	0.00325
1531.58	0.00612
1543.16	0.01372
1554.73	0.01631
1566.31	0.01017
1577.88	0.01068
1589.45	0.01106
1601.03	0.01018
1612.6	0.02036
1624.18	0.03451
1635.75	0.02084
1647.32	0.00513
1658.9	0.00267
1670.47	0.00234
1682.05	0.00273
1693.62	0.00439
1705.19	0.00917
1716.77	0.02577
1728.34	0.03024
1739.92	0.00635
1751.49	0.00254
1763.06	0.0013
1774.64	0.00101
1786.21	0.0009469
1797.79	0.0009217
1809.36	0.0008775
1820.93	0.0007672
1832.51	0.0005506
1844.08	0.0004914
1855.66	0.0004913
1867.23	0.0005801
1878.8	0.0006236
1890.38	0.0005638
1901.95	0.000451
1913.53	0.000468
1925.1	0.0004536
1936.67	0.0004303
1948.25	0.000476
1959.82	0.0004465
1971.4	0.0004577
1982.97	0.0004207
1994.54	0.0004579
2006.12	0.0004587
2017.69	0.0004144
2029.27	0.0003597
2040.84	0.0003529
2052.41	0.0003773
2063.99	0.0003513
2075.56	0.0003464
2087.14	0.0003664
2098.71	0.0003959
2110.28	0.0004196
2121.86	0.0004811
2133.43	0.0004097
2145.01	0.0004131
2156.58	0.0003698
2168.15	0.0003548
2179.73	0.0003559
2191.3	0.0003505
2202.88	0.0003274
2214.45	0.0003142
2226.02	0.0003112
2237.6	0.0002979
2249.17	0.0003361
2260.74	0.0003639
2272.32	0.0004026
2283.89	0.0003787
2295.47	0.0003926
2307.04	0.0004081
2318.61	0.0003347
2330.19	0.0003406
2341.76	0.0003341
2353.34	0.0003758
2364.91	0.0003603
2376.48	0.0004121
2388.06	0.0004813
2399.63	0.0004495
2411.21	0.0004987
2422.78	0.0004676
2434.35	0.0004217
2445.93	0.0005126
2457.5	0.0004488
2469.08	0.0004156
2480.65	0.0004064
2492.22	0.0004962
2503.8	0.0004609
2515.37	0.00049
2526.95	0.0005063
2538.52	0.0005131
2550.09	0.0005765
2561.67	0.0006858
2573.24	0.0006904
2584.82	0.0007109
2596.39	0.0007188
2607.96	0.0007148
2619.54	0.0007587
2631.11	0.0007306
2642.69	0.0007607
2654.26	0.0007457
2665.83	0.0008204
2677.41	0.0008529
2688.98	0.00112
2700.56	0.00166
2712.13	0.00225
2723.7	0.0038
2735.28	0.00426
2746.85	0.00242
2758.43	0.00157
2770	0.00146
2781.57	0.00179
2793.15	0.0031
2804.72	0.00512
2816.3	0.00551
2827.87	0.00423
2839.44	0.00252
2851.02	0.00141
2862.59	0.0012
2874.17	0.00118
2885.74	0.00118
2897.31	0.00106
2908.89	0.00106
2920.46	0.0009457
2932.04	0.0009028
2943.61	0.0009079
2955.18	0.0008449
2966.76	0.0008237
2978.33	0.0007598
2989.91	0.0008236
3001.48	0.0007688
3013.05	0.0007638
3024.63	0.0008596
3036.2	0.0008296
3047.78	0.0009078
3059.35	0.0008722
3070.92	0.00107
3082.5	0.00152
3094.07	0.00119
3105.65	0.00091
3117.22	0.0008753
3128.79	0.0009392
3140.37	0.0009832
3151.94	0.0011
3163.52	0.00152
3175.09	0.00185
3186.66	0.00233
3198.24	0.00305
3209.81	0.00384
3221.39	0.0045
3232.96	0.00495
3244.53	0.00492
3256.11	0.00484
3267.68	0.00457
3279.26	0.00418
3290.83	0.00389
3302.4	0.00353
3313.98	0.00338
3325.55	0.00313
3337.13	0.00292
3348.7	0.00279
3360.27	0.00248
3371.85	0.00236
3383.42	0.00209
3395	0.00197
3406.57	0.0019
3418.14	0.00213
3429.72	0.00203
3441.29	0.00162
3452.86	0.00143
3464.44	0.00142
3476.01	0.00127
3487.59	0.00119
3499.16	0.00128
3510.73	0.00116
3522.31	0.00111
3533.88	0.0009994
3545.46	0.0009035
3557.03	0.0008982
3568.6	0.0008539
3580.18	0.0008132
3591.75	0.0007919
3603.33	0.0006611
3614.9	0.0006207
3626.47	0.0006655
3638.05	0.0005435
3649.62	0.0005117
3661.2	0.0004874
3672.77	0.0004548
3684.34	0.0004886
3695.92	0.0004932
3707.49	0.0003744
3719.07	0.0004553
3730.64	0.0004059
3742.21	0.00039
3753.79	0.0004718
3765.36	0.0004039
3776.94	0.0005012
3788.51	0.0004045
3800.08	0.0004145
3811.66	0.0004404
3823.23	0.0004613
3834.81	0.0003036
3846.38	0.0003646
3857.95	0.0004011
3869.53	0.0004294
3881.1	0.0004406
3892.68	0.000384
3904.25	0.0003797
3915.82	0.0003188
3927.4	0.0004624
3938.97	0.0003761
3950.55	0.0004836
3962.12	0.0004763
3973.69	0.0003809
3985.27	0.0003856
3996.84	0.0004214
