Infrared Spectrum: 2-Chloro-4-nitrobenzamide
Formula: C 7 H 5 Cl N 2 O 3
CAS: 3011-89-0
State: gas
Origin: EPA-IR VAPOR PHASE LIBRARY
1/CM	ABSORBANCE
549.8	0.0034021
559.445	0.0028421
569.09	0.0024121
578.734	0.0014721
588.379	0.0012821
598.024	0.0010721
607.669	0.0010031
617.313	0.0012621
626.958	0.0018021
636.603	0.0030821
646.248	0.0033321
655.893	0.0024721
665.537	0.0031621
675.182	0.0051321
684.827	0.0069521
694.472	0.0068221
704.116	0.0056921
713.761	0.0071721
723.406	0.0123421
733.051	0.0162521
742.695	0.0130821
752.34	0.0077621
761.985	0.0079521
771.63	0.0240321
781.275	0.0394121
790.919	0.0142821
800.564	0.0081421
810.209	0.0071621
819.854	0.0070121
829.498	0.0081821
839.143	0.0106521
848.788	0.0110121
858.433	0.0078721
868.078	0.0072621
877.722	0.0101621
887.367	0.0169821
897.012	0.0167021
906.657	0.0091121
916.301	0.0051621
925.946	0.0040821
935.591	0.0034821
945.236	0.0035221
954.88	0.0033021
964.525	0.0030021
974.17	0.0027821
983.815	0.0023621
993.46	0.0023021
1003.1	0.0022321
1012.75	0.0022421
1022.39	0.0030621
1032.04	0.0064021
1041.68	0.0094921
1051.33	0.0061821
1060.97	0.0036921
1070.62	0.0029421
1080.26	0.0035821
1089.91	0.0042721
1099.55	0.0044221
1109.2	0.0065121
1118.84	0.0089021
1128.49	0.0095521
1138.13	0.0099521
1147.78	0.0051721
1157.42	0.0029221
1167.07	0.0027521
1176.71	0.0027121
1186.36	0.0026621
1196	0.0026921
1205.64	0.0025921
1215.29	0.0029421
1224.93	0.0033721
1234.58	0.0037821
1244.22	0.0061421
1253.87	0.0064321
1263.51	0.0071221
1273.16	0.0095821
1282.8	0.0121121
1292.45	0.0120621
1302.09	0.0121321
1311.74	0.0146021
1321.38	0.0238921
1331.03	0.0593021
1340.67	0.122452
1350.32	0.0852321
1359.96	0.0336521
1369.61	0.0241221
1379.25	0.0275021
1388.9	0.0324421
1398.54	0.0215721
1408.18	0.0093921
1417.83	0.0067321
1427.47	0.0053121
1437.12	0.0037921
1446.76	0.0035921
1456.41	0.0043121
1466.05	0.0057821
1475.7	0.0060521
1485.34	0.0058721
1494.99	0.0088521
1504.63	0.0125221
1514.28	0.0149221
1523.92	0.0224321
1533.57	0.0482721
1543.21	0.0806821
1552.86	0.0610521
1562.5	0.0279421
1572.15	0.0289821
1581.79	0.0490821
1591.44	0.0628321
1601.08	0.0388021
1610.73	0.0173321
1620.37	0.0096121
1630.01	0.0071021
1639.66	0.0056921
1649.3	0.0049821
1658.95	0.0052321
1668.59	0.0066621
1678.24	0.0101021
1687.88	0.0163721
1697.53	0.0255221
1707.17	0.0445321
1716.82	0.0792521
1726.46	0.0840021
1736.11	0.0558221
1745.75	0.0416921
1755.4	0.0217221
1765.04	0.0097521
1774.69	0.0054321
1784.33	0.0039621
1793.98	0.0032721
1803.62	0.0026921
1813.27	0.0021521
1822.91	0.0015721
1832.55	0.0012021
1842.2	0.0010621
1851.84	0.0008934
1861.49	0.0007925
1871.13	0.0007854
1880.78	0.0007303
1890.42	0.0006927
1900.07	0.0008096
1909.71	0.0008451
1919.36	0.0010223
1929	0.0011521
1938.65	0.0010036
1948.29	0.0007381
1957.94	0.000627
1967.58	0.000577
1977.23	0.0005256
1986.87	0.000458
1996.52	0.0004937
2006.16	0.0004788
2015.81	0.0003998
2025.45	0.0004017
2035.1	0.0003695
2044.74	0.0003661
2054.38	0.0003105
2064.03	0.0003273
2073.67	0.0003419
2083.32	0.000289
2092.96	0.0002952
2102.61	0.0002874
2112.25	0.0002559
2121.9	0.0002149
2131.54	0.0002903
2141.19	0.0002979
2150.83	0.0002638
2160.48	0.000288
2170.12	0.0002591
2179.77	0.0003396
2189.41	0.0002911
2199.06	0.0002523
2208.7	0.0004273
2218.35	0.0004625
2227.99	0.0004552
2237.64	0.000386
2247.28	0.0004322
2256.92	0.0002699
2266.57	0.0002415
2276.21	0.0003991
2285.86	0.0002915
2295.5	0.0002648
2305.15	0.0002398
2314.79	0.0002612
2324.44	0.0002993
2334.08	0.0002318
2343.73	0.0003066
2353.37	0.0003311
2363.02	0.0003628
2372.66	0.0003409
2382.31	0.0003317
2391.95	0.0002809
2401.6	0.0003734
2411.24	0.0004024
2420.89	0.0006074
2430.53	0.0005383
2440.18	0.0005061
2449.82	0.0004441
2459.47	0.0005549
2469.11	0.0005354
2478.75	0.0005178
2488.4	0.0003697
2498.04	0.0002777
2507.69	0.0001918
2517.33	0.0003634
2526.98	0.0002942
2536.62	0.0002128
2546.27	0.0002208
2555.91	0.000241
2565.56	0.0002946
2575.2	0.0001926
2584.85	0.0001717
2594.49	0.0001992
2604.14	0.0002492
2613.78	0.0002255
2623.43	0.000299
2633.07	0.0003342
2642.72	0.0003426
2652.36	0.0003963
2662.01	0.0004847
2671.65	0.0005927
2681.29	0.0007168
2690.94	0.0008365
2700.58	0.0007999
2710.23	0.0008003
2719.87	0.0007452
2729.52	0.0005911
2739.16	0.0003388
2748.81	0.0002683
2758.45	0.0003043
2768.1	0.0002903
2777.74	0.0003736
2787.39	0.0004575
2797.03	0.0005855
2806.68	0.000759
2816.32	0.0006556
2825.97	0.0006762
2835.61	0.0007827
2845.26	0.000864
2854.9	0.0008246
2864.55	0.0010462
2874.19	0.0013721
2883.84	0.0013821
2893.48	0.0012021
2903.12	0.0009356
2912.77	0.0008881
2922.41	0.0009427
2932.06	0.0011521
2941.7	0.0008617
2951.35	0.0005634
2960.99	0.0005015
2970.64	0.0004612
2980.28	0.0004191
2989.93	0.0004801
2999.57	0.0003605
3009.22	0.0005124
3018.86	0.000536
3028.51	0.000723
3038.15	0.0010134
3047.8	0.0009279
3057.44	0.0008402
3067.09	0.0006842
3076.73	0.0011321
3086.38	0.0015321
3096.02	0.0025721
3105.67	0.0034121
3115.31	0.0021621
3124.95	0.0008021
3134.6	0.0004987
3144.24	0.0006059
3153.89	0.0005759
3163.53	0.0006428
3173.18	0.0006628
3182.82	0.0004447
3192.47	0.0003918
3202.11	0.0004746
3211.76	0.0002798
3221.4	0.0002129
3231.05	0.0002101
3240.69	0.00012053
3250.34	0.0002392
3259.98	8.8e-05
3269.63	0.0001786
3279.27	0.0002327
3288.92	0.0004013
3298.56	0.0004395
3308.21	0.0006334
3317.85	0.000438
3327.49	0.0005017
3337.14	0.0003562
3346.78	0.0004299
3356.43	0.000556
3366.07	0.0007272
3375.72	0.0011021
3385.36	0.0019821
3395.01	0.0032621
3404.65	0.0054721
3414.3	0.0084921
3423.94	0.0121921
3433.59	0.0136421
3443.23	0.0071921
3452.88	0.0031921
3462.52	0.0021621
3472.17	0.0017721
3481.81	0.0016121
3491.46	0.0019621
3501.1	0.0030721
3510.75	0.0040521
3520.39	0.0058721
3530.04	0.0080421
3539.68	0.0107521
3549.32	0.0173421
3558.97	0.0111821
3568.61	0.0030621
3578.26	0.0015721
3587.9	0.0010316
3597.55	0.0007615
3607.19	0.0006138
3616.84	0.0003332
3626.48	0.0004114
3636.13	0.000379
3645.77	0.0003512
3655.42	0.0003215
3665.06	0.0003486
3674.71	0.0003556
3684.35	0.0003731
3694	0.0003741
3703.64	0.0003302
3713.29	0.0003556
3722.93	0.0002899
3732.58	0.0003278
3742.22	0.0003736
3751.86	0.0003276
3761.51	0.0004469
3771.15	0.000306
3780.8	0.0002472
3790.44	0.0003178
3800.09	0.000306
3809.73	0.0003915
3819.38	0.0002558
3829.02	0.0002021
3838.67	0.0002697
3848.31	0.0003814
3857.96	0.0002235
3867.6	0.0002752
3877.25	0.0002863
3886.89	0
3896.54	0.0002598
3906.18	0.0002755
3915.83	0.00015086
3925.47	0.0002176
3935.12	0.0002609
3944.76	0.0002208
3954.41	0.000214
3964.05	0.000211
3973.69	0.0001245
3983.34	0.0002409
3992.98	8.1e-06
