Infrared Spectrum: Phenyl 3-phenylpropyl sulphide
Formula: C 15 H 16 S
CAS: 30134-12-4
State: gas
Origin: EPA-IR VAPOR PHASE LIBRARY
1/CM	ABSORBANCE
549.9	0.002633
559.547	0.004323
569.193	0.004053
578.84	0.002733
588.486	0.002303
598.133	0.0016916
607.779	0.00137
617.426	0.0013774
627.072	0.0014979
636.719	0.001963
646.365	0.003033
656.012	0.005273
665.658	0.010533
675.305	0.019233
684.951	0.036693
694.598	0.061443
704.245	0.053463
713.891	0.033863
723.538	0.035933
733.184	0.054163
742.831	0.059773
752.477	0.031143
762.124	0.016723
771.77	0.009613
781.417	0.005403
791.063	0.004233
800.71	0.003543
810.356	0.003323
820.003	0.002923
829.649	0.002383
839.296	0.002483
848.943	0.002763
858.589	0.002903
868.236	0.002283
877.882	0.002173
887.529	0.002493
897.175	0.003323
906.822	0.004853
916.468	0.002923
926.115	0.002023
935.761	0.001883
945.408	0.001933
955.054	0.002313
964.701	0.002863
974.347	0.002953
983.994	0.002473
993.64	0.002433
1003.29	0.004043
1012.93	0.005633
1022.58	0.016603
1032.23	0.012203
1041.87	0.003943
1051.52	0.004283
1061.17	0.006773
1070.81	0.009073
1080.46	0.010313
1090.11	0.011863
1099.75	0.007893
1109.4	0.004573
1119.05	0.003243
1128.69	0.002203
1138.34	0.002033
1147.99	0.0015476
1157.63	0.001803
1167.28	0.001773
1176.92	0.002463
1186.57	0.002503
1196.22	0.002383
1205.86	0.002333
1215.51	0.002113
1225.16	0.002733
1234.8	0.004233
1244.45	0.006593
1254.1	0.007903
1263.74	0.006683
1273.39	0.007983
1283.04	0.009923
1292.68	0.009413
1302.33	0.007983
1311.98	0.005543
1321.62	0.004533
1331.27	0.004593
1340.92	0.006043
1350.56	0.006653
1360.21	0.003673
1369.86	0.002793
1379.5	0.002403
1389.15	0.002293
1398.79	0.002613
1408.44	0.003593
1418.09	0.006423
1427.73	0.011253
1437.38	0.019373
1447.03	0.022233
1456.67	0.019673
1466.32	0.017733
1475.97	0.027233
1485.61	0.027063
1495.26	0.023503
1504.91	0.010613
1514.55	0.003713
1524.2	0.002803
1533.85	0.002753
1543.49	0.002813
1553.14	0.003823
1562.79	0.006183
1572.43	0.012283
1582.08	0.021823
1591.73	0.018893
1601.37	0.013913
1611.02	0.008343
1620.67	0.003513
1630.31	0.002573
1639.96	0.002393
1649.6	0.002063
1659.25	0.0015847
1668.9	0.0013739
1678.54	0.0011602
1688.19	0.0011376
1697.84	0.001456
1707.48	0.0015797
1717.13	0.001743
1726.78	0.001773
1736.42	0.001993
1746.07	0.001833
1755.72	0.0015535
1765.36	0.0016623
1775.01	0.002483
1784.66	0.003543
1794.3	0.004503
1803.95	0.003043
1813.6	0.002053
1823.24	0.0015723
1832.89	0.0015431
1842.54	0.001793
1852.18	0.002373
1861.83	0.003173
1871.47	0.003603
1881.12	0.002963
1890.77	0.001773
1900.41	0.0013556
1910.06	0.001546
1919.71	0.002303
1929.35	0.003393
1939	0.004483
1948.65	0.004523
1958.29	0.002903
1967.94	0.0012723
1977.59	0.0008611
1987.23	0.00077142
1996.88	0.0006583
2006.53	0.0006994
2016.17	0.000605
2025.82	0.000631
2035.47	0.000587
2045.11	0.000523
2054.76	0.000605
2064.41	0.000586
2074.05	0.000591
2083.7	0.000521
2093.35	0.000555
2102.99	0.000488
2112.64	0.000484
2122.28	0.000485
2131.93	0.000496
2141.58	0.000503
2151.22	0.000537
2160.87	0.000579
2170.52	0.000528
2180.16	0.000548
2189.81	0.000561
2199.46	0.000625
2209.1	0.000578
2218.75	0.000545
2228.4	0.000595
2238.04	0.000666
2247.69	0.0006597
2257.34	0.000677
2266.98	0.0006496
2276.63	0.0006722
2286.28	0.0006867
2295.92	0.0007219
2305.57	0.0008613
2315.22	0.0012275
2324.86	0.0010268
2334.51	0.001029
2344.16	0.0009752
2353.8	0.00082218
2363.45	0.00077071
2373.09	0.0006993
2382.74	0.00073014
2392.39	0.00075678
2402.03	0.00078554
2411.68	0.0007711
2421.33	0.00074581
2430.97	0.0007063
2440.62	0.000539
2450.27	0.000597
2459.91	0.000576
2469.56	0.000627
2479.21	0.0006514
2488.85	0.0007075
2498.5	0.0006757
2508.15	0.0007065
2517.79	0.000686
2527.44	0.00075434
2537.09	0.00076951
2546.73	0.000698
2556.38	0.00075357
2566.03	0.0007474
2575.67	0.00086
2585.32	0.0010337
2594.96	0.0010502
2604.61	0.0010991
2614.26	0.0010929
2623.9	0.0010817
2633.55	0.0010915
2643.2	0.0010724
2652.84	0.0011641
2662.49	0.0010806
2672.14	0.001091
2681.78	0.0011282
2691.43	0.0010083
2701.08	0.0009397
2710.72	0.0008572
2720.37	0.0009522
2730.02	0.0010082
2739.66	0.000989
2749.31	0.0010039
2758.96	0.0009998
2768.6	0.0011604
2778.25	0.0014021
2787.9	0.0016991
2797.54	0.001913
2807.19	0.001963
2816.84	0.002453
2826.48	0.003403
2836.13	0.004613
2845.77	0.007353
2855.42	0.012533
2865.07	0.015023
2874.71	0.011693
2884.36	0.009053
2894.01	0.009273
2903.65	0.012973
2913.3	0.022433
2922.95	0.036473
2932.59	0.042753
2942.24	0.042573
2951.89	0.034803
2961.53	0.026633
2971.18	0.014353
2980.83	0.007483
2990.47	0.006543
3000.12	0.008913
3009.77	0.013613
3019.41	0.022183
3029.06	0.035963
3038.71	0.031763
3048.35	0.022443
3058	0.033293
3067.64	0.059893
3077.29	0.049533
3086.94	0.034983
3096.58	0.019723
3106.23	0.010763
3115.88	0.005883
3125.52	0.003033
3135.17	0.002263
3144.82	0.001913
3154.46	0.0014823
3164.11	0.0011857
3173.76	0.0009188
3183.4	0.000521
3193.05	0.00059
3202.7	0.00031
3212.34	0.000385
3221.99	0.000404
3231.64	0.000422
3241.28	0.000522
3250.93	0.000564
3260.58	0.000327
3270.22	0.00034
3279.87	0.000445
3289.52	0.000266
3299.16	0.00046
3308.81	0.000436
3318.45	0.000217
3328.1	0.000124
3337.75	7.6e-05
3347.39	0.000343
3357.04	0.000319
3366.69	0.000412
3376.33	0.000219
3385.98	0.000406
3395.63	5.8e-05
3405.27	0.000321
3414.92	9e-06
3424.57	0.000256
3434.21	0.000371
3443.86	0.000333
3453.51	5.9e-05
3463.15	0.000192
3472.8	0.000164
3482.45	0.00017
3492.09	0.000298
3501.74	0.000256
3511.39	0.000163
3521.03	0
3530.68	0.000214
3540.33	0.00026
3549.97	0.000144
3559.62	0.00013
3569.26	0.000225
3578.91	0.000242
3588.56	0.000298
3598.2	0.000139
3607.85	0.000384
3617.5	0.000381
3627.14	0.00059
3636.79	0.000535
3646.44	0.000511
3656.08	0.000465
3665.73	0.000605
3675.38	0.000449
3685.02	0.000609
3694.67	0.0006379
3704.32	0.0007063
3713.96	0.000354
3723.61	0.000446
3733.26	0.000402
3742.9	0.00057
3752.55	0.0006589
3762.2	0.000671
3771.84	0.0006736
3781.49	0.000523
3791.13	0.000385
3800.78	0.000565
3810.43	0.000479
3820.07	0.000474
3829.72	0.000505
3839.37	0.000518
3849.01	0.00046
3858.66	0.000486
3868.31	0.000476
3877.95	0.000487
3887.6	0.000544
3897.25	0.000567
3906.89	0.000565
3916.54	0.000565
3926.19	0.000529
3935.83	0.000515
3945.48	0.000474
3955.13	0.000539
3964.77	0.0006525
3974.42	0.000622
3984.07	0.000576
3993.71	0.0006671
