Infrared Spectrum: p-Dibenzoylbenzene
Formula: C 20 H 14 O 2
CAS: 3016-97-5
State: gas
Origin: EPA-IR VAPOR PHASE LIBRARY
1/CM	ABSORBANCE
549.8	0.0006753
559.445	0.0010209
569.09	0.0005069
578.734	0.0008877
588.379	0.0006069
598.024	0.0007666
607.669	0.0008808
617.313	0.0008125
626.958	0.0011137
636.603	0.001496
646.248	0.002876
655.893	0.003116
665.537	0.004156
675.182	0.009856
684.827	0.014986
694.472	0.021286
704.116	0.023526
713.761	0.011136
723.406	0.004636
733.051	0.004176
742.695	0.003786
752.34	0.003206
761.985	0.002216
771.63	0.002326
781.275	0.002416
790.919	0.001846
800.564	0.001706
810.209	0.001466
819.854	0.001306
829.498	0.001906
839.143	0.002686
848.788	0.004166
858.433	0.005126
868.078	0.002736
877.722	0.002126
887.367	0.002796
897.012	0.004886
906.657	0.010676
916.301	0.024406
925.946	0.023966
935.591	0.016846
945.236	0.004186
954.88	0.002226
964.525	0.002056
974.17	0.002046
983.815	0.0011636
993.46	0.0009063
1003.1	0.001926
1012.75	0.001276
1022.39	0.001886
1032.04	0.001686
1041.68	0.0007377
1051.33	0.0006951
1060.97	0.0007843
1070.62	0.0009849
1080.26	0.001246
1089.91	0.0006618
1099.55	0.0008686
1109.2	0.001716
1118.84	0.001386
1128.49	0.001856
1138.13	0.001886
1147.78	0.002436
1157.42	0.003246
1167.07	0.003036
1176.71	0.007316
1186.36	0.005996
1196	0.002676
1205.64	0.003066
1215.29	0.003836
1224.93	0.007576
1234.58	0.013736
1244.22	0.015536
1253.87	0.022856
1263.51	0.048846
1273.16	0.052996
1282.8	0.028386
1292.45	0.017356
1302.09	0.014526
1311.74	0.015126
1321.38	0.008276
1331.03	0.003566
1340.67	0.002296
1350.32	0.001806
1359.96	0.001966
1369.61	0.001996
1379.25	0.001976
1388.9	0.002456
1398.54	0.004516
1408.18	0.002826
1417.83	0.001536
1427.47	0.001546
1437.12	0.002516
1446.76	0.005776
1456.41	0.002646
1466.05	0.001416
1475.7	0.001226
1485.34	0.001336
1494.99	0.002676
1504.63	0.003626
1514.28	0.001876
1523.92	0.001566
1533.57	0.001596
1543.21	0.001616
1552.86	0.002036
1562.5	0.002316
1572.15	0.002836
1581.79	0.003546
1591.44	0.003966
1601.08	0.004546
1610.73	0.002586
1620.37	0.002196
1630.01	0.002336
1639.66	0.003026
1649.3	0.004176
1658.95	0.006176
1668.59	0.014056
1678.24	0.043206
1687.88	0.039366
1697.53	0.013026
1707.17	0.005876
1716.82	0.004046
1726.46	0.002846
1736.11	0.002046
1745.75	0.001416
1755.4	0.001145
1765.04	0.001047
1774.69	0.0011641
1784.33	0.0009495
1793.98	0.0009605
1803.62	0.001466
1813.27	0.001606
1822.91	0.001071
1832.55	0.0007159
1842.2	0.0006343
1851.84	0.0005882
1861.49	0.0005715
1871.13	0.0005977
1880.78	0.0007044
1890.42	0.0009102
1900.07	0.0009638
1909.71	0.000914
1919.36	0.0009168
1929	0.000901
1938.65	0.0008694
1948.29	0.0010504
1957.94	0.0011251
1967.58	0.0009619
1977.23	0.0006469
1986.87	0.0004999
1996.52	0.0003916
2006.16	0.0004535
2015.81	0.0004925
2025.45	0.0003775
2035.1	0.0003895
2044.74	0.0003916
2054.38	0.0004068
2064.03	0.0003444
2073.67	0.0004049
2083.32	0.0004196
2092.96	0.00031452
2102.61	0.00021641
2112.25	0.0003569
2121.9	0.00024709
2131.54	0.000356
2141.19	0.0003659
2150.83	0.00032542
2160.48	0.00032008
2170.12	0.0003301
2179.77	0.0003833
2189.41	0.0002975
2199.06	0.00032048
2208.7	0.00031902
2218.35	0.00026546
2227.99	0.00025555
2237.64	0.0003526
2247.28	0.0003766
2256.92	0.0003456
2266.57	0.00032477
2276.21	0.000229056
2285.86	0.0003422
2295.5	0.000365
2305.15	0.0003686
2314.79	0.0005329
2324.44	0.00046
2334.08	0.00042
2343.73	0.0004568
2353.37	0.00031323
2363.02	0.0003447
2372.66	0.0003799
2382.31	0.0004407
2391.95	0.0004522
2401.6	0.0005489
2411.24	0.0004852
2420.89	0.0005668
2430.53	0.0003601
2440.18	0.0003624
2449.82	0.00031453
2459.47	0.0003656
2469.11	0.0003941
2478.75	0.00032342
2488.4	0.00028739
2498.04	0.00026932
2507.69	0.00027475
2517.33	0.0003745
2526.98	0.0001889
2536.62	0.00032129
2546.27	0.00030521
2555.91	0.0002753
2565.56	0.0003871
2575.2	0.00031115
2584.85	0.00024669
2594.49	0.0004038
2604.14	0.000367
2613.78	0.0003366
2623.43	0.0003435
2633.07	0.0004345
2642.72	0.0003987
2652.36	0.00031513
2662.01	0.00028384
2671.65	0.00030707
2681.29	0.00031038
2690.94	0.0003781
2700.58	0.0002028
2710.23	0.0003322
2719.87	0.00031718
2729.52	0.00032491
2739.16	0.0003271
2748.81	0.0005694
2758.45	0.0004593
2768.1	0.0004521
2777.74	0.00030811
2787.39	0.00028318
2797.03	0.00027567
2806.68	0.0003303
2816.32	0.00028636
2825.97	0.00030382
2835.61	0.00029472
2845.26	0.0003969
2854.9	0.0004879
2864.55	0.0006639
2874.19	0.0005847
2883.84	0.0005813
2893.48	0.000483
2903.12	0.0004481
2912.77	0.000406
2922.41	0.00024215
2932.06	0.0003437
2941.7	0.0003417
2951.35	0.0003397
2960.99	0.00028976
2970.64	0.0005615
2980.28	0.000421
2989.93	0.0005503
2999.57	0.0006369
3009.22	0.0008553
3018.86	0.001406
3028.51	0.002876
3038.15	0.004166
3047.8	0.003056
3057.44	0.004006
3067.09	0.007446
3076.73	0.007796
3086.38	0.006456
3096.02	0.004026
3105.67	0.002346
3115.31	0.001286
3124.95	0.0006288
3134.6	0.0005781
3144.24	0.0004326
3153.89	0.000461
3163.53	0.0005065
3173.18	0.0003946
3182.82	0.0003631
3192.47	0.00029708
3202.11	0.0003271
3211.76	0.0003384
3221.4	0.000446
3231.05	0.00021705
3240.69	0.00029555
3250.34	0.0003564
3259.98	0.0003602
3269.63	0.00030001
3279.27	0.00023651
3288.92	0.0002806
3298.56	0.000123
3308.21	0.0003794
3317.85	0.0003869
3327.49	0.0004719
3337.14	0.0009105
3346.78	0.0009843
3356.43	0.0008346
3366.07	0.0003825
3375.72	0.0003869
3385.36	0.00031769
3395.01	0.00028148
3404.65	0.00024822
3414.3	0.00021613
3423.94	0.00023645
3433.59	0.0001574
3443.23	0.00023951
3452.88	0.0003377
3462.52	0.00029287
3472.17	6.4e-05
3481.81	0.00021918
3491.46	0.0002922
3501.1	0.00026297
3510.75	0.000162
3520.39	0.00027068
3530.04	0.0001786
3539.68	0.000192
3549.32	8.6e-05
3558.97	0.0001799
3568.61	0.0001692
3578.26	0.0003959
3587.9	0.000125
3597.55	0.0002155
3607.19	0.00028571
3616.84	0.000229742
3626.48	0.00025
3636.13	0.0002197
3645.77	0.0003531
3655.42	0.0003309
3665.06	0.0001353
3674.71	0.00025608
3684.35	0.00029965
3694	0.0001709
3703.64	0.00021659
3713.29	0.0004958
3722.93	0.00028407
3732.58	0.000367
3742.22	0.00026814
3751.86	0.0002957
3761.51	0.0001986
3771.15	2.7e-05
3780.8	0.00023703
3790.44	7.8e-05
3800.09	0.0003547
3809.73	0.000112
3819.38	0.0001991
3829.02	2.4e-05
3838.67	0.000183
3848.31	0.0001337
3857.96	0.00027153
3867.6	7e-05
3877.25	0.0001367
3886.89	0.0001611
3896.54	0.00022392
3906.18	0.000230313
3915.83	0.0001954
3925.47	0.00031288
3935.12	0
3944.76	0.0001375
3954.41	0.00026066
3964.05	0.000232433
3973.69	0.0001585
3983.34	0.00028438
3992.98	0.0004166
