Infrared Spectrum: CYCLOBUTYL METHYL KETONE
Formula: C6 H10 O
CAS: 3019-25-8
State: LIQUID (UNDILUTED)
Class: COBLENTZ
Instrument: Not specified, most likely a prism, grating, or hybrid spectrometer.
Sampling: TRANSMISSION
Path length: 0.0035 CM
Resolution: 4
MICROMETERS	TRANSMITTANCE
2	0.877
2.03546	0.877
2.07092	0.875
2.10638	0.875
2.14184	0.877
2.1773	0.875
2.21276	0.865
2.24822	0.873
2.28368	0.801
2.31914	0.78
2.3546	0.82
2.39006	0.82
2.42552	0.816
2.46098	0.82
2.49645	0.828
2.53191	0.835
2.56737	0.847
2.60283	0.849
2.63829	0.851
2.67375	0.858
2.70921	0.856
2.74467	0.844
2.78013	0.83
2.81559	0.823
2.85105	0.816
2.88651	0.814
2.92197	0.837
2.95743	0.692
2.99289	0.773
3.02835	0.852
3.06381	0.849
3.09927	0.839
3.13473	0.835
3.17019	0.82
3.20565	0.787
3.24111	0.733
3.27657	0.628
3.31203	0.496
3.34749	0.269
3.38295	0.034
3.41842	0.01
3.45388	0.067
3.48934	0.124
3.5248	0.129
3.56026	0.608
3.59572	0.766
3.63118	0.799
3.66664	0.825
3.7021	0.828
3.73756	0.821
3.77302	0.825
3.80848	0.839
3.84394	0.851
3.8794	0.854
3.91486	0.858
3.95032	0.847
3.98578	0.842
4.02124	0.842
4.0567	0.849
4.09216	0.852
4.12762	0.849
4.16308	0.847
4.19854	0.846
4.234	0.847
4.26946	0.846
4.30492	0.839
4.34039	0.833
4.37585	0.828
4.41131	0.83
4.44677	0.833
4.48223	0.833
4.51769	0.826
4.55315	0.816
4.58861	0.813
4.62407	0.802
4.65953	0.792
4.69499	0.788
4.73045	0.795
4.76591	0.807
4.80137	0.806
4.83683	0.814
4.87229	0.832
4.90775	0.846
4.94321	0.847
4.97867	0.847
5.01413	0.846
5.04959	0.84
5.08505	0.833
5.12051	0.828
5.15597	0.83
5.19143	0.825
5.22689	0.814
5.26235	0.806
5.29782	0.807
5.33328	0.813
5.36874	0.811
5.4042	0.804
5.43966	0.802
5.47512	0.806
5.51058	0.795
5.54604	0.778
5.5815	0.747
5.61696	0.653
5.65242	0.605
5.68788	0.534
5.72334	0.413
5.7588	0.25
5.79426	0.134
5.82972	0.032
5.86518	0.013
5.90064	0.012
5.9361	0.017
5.97156	0.226
6.00702	0.323
6.04248	0.456
6.07794	0.503
6.1134	0.574
6.14886	0.602
6.18432	0.595
6.21979	0.647
6.25525	0.707
6.29071	0.723
6.32617	0.719
6.36163	0.709
6.39709	0.695
6.43255	0.683
6.46801	0.659
6.50347	0.655
6.53893	0.645
6.57439	0.638
6.60985	0.626
6.64531	0.603
6.68077	0.584
6.71623	0.567
6.75169	0.527
6.78715	0.475
6.82261	0.423
6.85807	0.351
6.89353	0.259
6.92899	0.202
6.96445	0.129
6.99991	0.102
7.03537	0.086
7.07083	0.112
7.10629	0.209
7.14176	0.266
7.17722	0.287
7.21268	0.29
7.24814	0.259
7.2836	0.143
7.31906	0.06
7.35452	0.01
7.38998	0.005
7.42544	0.008
7.4609	0.029
7.49636	0.074
7.53182	0.152
7.56728	0.311
7.60274	0.391
7.6382	0.463
7.67366	0.515
7.70912	0.55
7.74458	0.577
7.78004	0.593
7.8155	0.6
7.85096	0.589
7.88642	0.572
7.92188	0.539
7.95734	0.422
7.9928	0.292
8.02826	0.155
8.06373	0.048
8.09919	0.031
8.13465	0.188
8.17011	0.299
8.20557	0.313
8.24103	0.264
8.27649	0.226
8.31195	0.204
8.34741	0.128
8.38287	0.076
8.41833	0.083
8.45379	0.06
8.48925	0.022
8.52471	0.017
8.56017	0.013
8.59563	0.019
8.63109	0.032
8.66655	0.145
8.70201	0.271
8.73747	0.337
8.77293	0.401
8.80839	0.487
8.84385	0.539
8.87931	0.562
8.91477	0.576
8.95023	0.558
8.98569	0.494
9.02116	0.41
9.05662	0.373
9.09208	0.378
9.12754	0.439
9.163	0.534
9.19846	0.61
9.23392	0.652
9.26938	0.667
9.30484	0.683
9.3403	0.683
9.37576	0.669
9.41122	0.652
9.44668	0.615
9.48214	0.603
9.5176	0.622
9.55306	0.647
9.58852	0.667
9.62398	0.686
9.65944	0.7
9.6949	0.705
9.73036	0.704
9.76582	0.695
9.80128	0.683
9.83674	0.667
9.8722	0.636
9.90766	0.621
9.94313	0.631
9.97859	0.648
10.014	0.657
10.0495	0.655
10.085	0.648
10.1204	0.628
10.1559	0.595
10.1913	0.558
10.2268	0.519
10.2623	0.477
10.2977	0.441
10.3332	0.401
10.3686	0.363
10.4041	0.313
10.4396	0.288
10.475	0.285
10.5105	0.302
10.546	0.339
10.5814	0.391
10.6169	0.415
10.6523	0.423
10.6878	0.442
10.7233	0.474
10.7587	0.496
10.7942	0.508
10.8296	0.494
10.8651	0.415
10.9006	0.346
10.936	0.299
10.9715	0.337
11.0069	0.449
11.0424	0.515
11.0779	0.562
11.1133	0.598
11.1488	0.634
11.1842	0.66
11.2197	0.683
11.2552	0.704
11.2906	0.719
11.3261	0.735
11.3615	0.742
11.397	0.745
11.4325	0.745
11.4679	0.743
11.5034	0.737
11.5388	0.731
11.5743	0.726
11.6098	0.728
11.6452	0.731
11.6807	0.738
11.7161	0.745
11.7516	0.756
11.7871	0.764
11.8225	0.775
11.858	0.782
11.8934	0.79
11.9289	0.794
11.9644	0.802
11.9998	0.797
12.0353	0.797
12.0707	0.799
12.1062	0.801
12.1417	0.801
12.1771	0.802
12.2126	0.809
12.248	0.813
12.2835	0.811
12.319	0.82
12.3544	0.813
12.3899	0.811
12.4254	0.816
12.4608	0.811
12.4963	0.813
12.5317	0.811
12.5672	0.811
12.6027	0.806
12.6381	0.802
12.6736	0.802
12.709	0.79
12.7445	0.787
12.78	0.778
12.8154	0.761
12.8509	0.754
12.8863	0.754
12.9218	0.757
12.9573	0.761
12.9927	0.78
13.0282	0.783
13.0636	0.785
13.0991	0.787
13.1346	0.787
13.17	0.783
13.2055	0.788
13.2409	0.782
13.2764	0.775
13.3119	0.771
13.3473	0.757
13.3828	0.749
13.4182	0.738
13.4537	0.717
13.4892	0.697
13.5246	0.686
13.5601	0.681
13.5955	0.681
13.631	0.69
13.6665	0.697
13.7019	0.7
13.7374	0.714
13.7728	0.717
13.8083	0.716
13.8438	0.716
13.8792	0.724
13.9147	0.724
13.9501	0.719
13.9856	0.717
14.0211	0.714
14.0565	0.711
14.092	0.709
14.1275	0.704
14.1629	0.698
14.1984	0.692
14.2338	0.688
14.2693	0.678
14.3048	0.669
14.3402	0.662
14.3757	0.652
14.4111	0.643
14.4466	0.633
14.4821	0.626
14.5175	0.61
14.553	0.602
14.5884	0.589
14.6239	0.579
14.6594	0.574
14.6948	0.569
14.7303	0.569
14.7657	0.569
14.8012	0.567
14.8367	0.57
14.8721	0.572
14.9076	0.572
14.943	0.579
14.9785	0.579
15.014	0.572
15.0494	0.574
15.0849	0.574
15.1203	0.572
15.1558	0.569
15.1913	0.565
15.2267	0.564
15.2622	0.553
15.2976	0.553
15.3331	0.544
15.3686	0.534
15.404	0.527
