Infrared Spectrum: Trichloroacetyl isocyanate
Formula: C 3 Cl 3 N O 2
CAS: 3019-71-4
State: gas
Origin: EPA-IR VAPOR PHASE LIBRARY
1/CM	ABSORBANCE
549.8	0.0010247
559.445	0.0011804
569.09	0.0009122
578.735	0.0010377
588.38	0.0008601
598.025	0.00186
607.67	0.00333
617.315	0.00415
626.96	0.00308
636.605	0.00166
646.251	0.0019
655.896	0.00321
665.541	0.00499
675.186	0.00665
684.831	0.00616
694.476	0.0053
704.121	0.00457
713.766	0.00348
723.411	0.0025
733.056	0.00187
742.701	0.00163
752.346	0.00161
761.991	0.0016
771.636	0.00202
781.281	0.00279
790.926	0.004
800.571	0.00628
810.216	0.0094
819.861	0.01341
829.507	0.01463
839.152	0.01234
848.797	0.00909
858.442	0.00599
868.087	0.0038
877.732	0.00304
887.377	0.00276
897.022	0.00265
906.667	0.00267
916.312	0.00225
925.957	0.00167
935.602	0.0013081
945.247	0.0010137
954.892	0.0009367
964.537	0.0009513
974.182	0.0008454
983.827	0.0008828
993.472	0.0008145
1003.12	0.000843
1012.76	0.000738
1022.41	0.0007186
1032.05	0.00065611
1041.7	0.00062867
1051.34	0.00063956
1060.99	0.00060535
1070.63	0.0004993
1080.28	0.00060323
1089.92	0.00059613
1099.57	0.0005544
1109.21	0.0005436
1118.86	0.00060406
1128.5	0.000546
1138.15	0.000514
1147.79	0.00066762
1157.44	0.0007379
1167.08	0.0007956
1176.73	0.0008943
1186.37	0.0008008
1196.02	0.0009188
1205.66	0.0007967
1215.31	0.0007532
1224.95	0.0008697
1234.6	0.0007049
1244.24	0.0007367
1253.89	0.0009233
1263.53	0.0011248
1273.18	0.00164
1282.82	0.00258
1292.47	0.0037
1302.11	0.0051
1311.76	0.00592
1321.4	0.00602
1331.05	0.00565
1340.69	0.00468
1350.34	0.00339
1359.98	0.00201
1369.63	0.0011264
1379.27	0.0007426
1388.92	0.00062953
1398.56	0.0005038
1408.21	0.00043
1417.85	0.0005493
1427.5	0.0005019
1437.14	0.000455
1446.79	0.000431
1456.43	0.0005346
1466.08	0.0005172
1475.73	0.000455
1485.37	0.00056732
1495.02	0.00062745
1504.66	0.00058163
1514.31	0.0006247
1523.95	0.00063446
1533.6	0.0007261
1543.24	0.0008976
1552.89	0.0014608
1562.53	0.00274
1572.18	0.00568
1581.82	0.0087
1591.47	0.00805
1601.11	0.00476
1610.76	0.00236
1620.4	0.001221
1630.05	0.0008169
1639.69	0.00059987
1649.34	0.000576324
1658.98	0.00061234
1668.63	0.000576035
1678.27	0.000578568
1687.92	0.0007881
1697.56	0.00101
1707.21	0.0013856
1716.85	0.00202
1726.5	0.00338
1736.14	0.00596
1745.79	0.00958
1755.43	0.01471
1765.08	0.01752
1774.72	0.01673
1784.37	0.01123
1794.01	0.00593
1803.66	0.0028
1813.3	0.0013495
1822.95	0.0008836
1832.59	0.0006944
1842.24	0.0005329
1851.88	0.0004903
1861.53	0.0005007
1871.17	0.000427
1880.82	0.000459
1890.46	0.0004812
1900.11	0.000447
1909.75	0.0004863
1919.4	0.0004942
1929.04	0.0004853
1938.69	0.00047
1948.33	0.0004926
1957.98	0.000456
1967.62	0.000462
1977.27	0.000458
1986.91	0.000426
1996.56	0.0005394
2006.2	0.000421
2015.85	0.000426
2025.49	0.000377
2035.14	0.000387
2044.78	0.000422
2054.43	0.000438
2064.07	0.000349
2073.72	0.000391
2083.36	0.000398
2093.01	0.000378
2102.65	0.000356
2112.3	0.000358
2121.94	0.000315
2131.59	0.000326
2141.23	0.000363
2150.88	0.000391
2160.52	0.000372
2170.17	0.000403
2179.81	0.000419
2189.46	0.000439
2199.1	0.000399
2208.75	0.000333
2218.39	0.000319
2228.04	0.000385
2237.68	0.000386
2247.33	0.000389
2256.97	0.000359
2266.62	0.00029
2276.26	0.000338
2285.91	0.00033
2295.55	0.000332
2305.2	0.000325
2314.84	0.00027
2324.49	0.000256
2334.13	0.000346
2343.78	0.000282
2353.42	0.000319
2363.07	0.000218
2372.72	0.000301
2382.36	0.00039
2392.01	0.000406
2401.65	0.000318
2411.3	0.00031
2420.94	0.00034
2430.59	0.000392
2440.23	0.00041
2449.88	0.000368
2459.52	0.000388
2469.17	0.00035
2478.81	0.000342
2488.46	0.00029
2498.1	0.000325
2507.75	0.000364
2517.39	0.000314
2527.04	0.000301
2536.68	0.000298
2546.33	0.000304
2555.97	0.000338
2565.62	0.000375
2575.26	0.000339
2584.91	0.00035
2594.55	0.000399
2604.2	0.000333
2613.84	0.000353
2623.49	0.000359
2633.13	0.000319
2642.78	0.000324
2652.42	0.000371
2662.07	0.000349
2671.71	0.000312
2681.36	0.000342
2691	0.000374
2700.65	0.000327
2710.29	0.000355
2719.94	0.000382
2729.58	0.000328
2739.23	0.000339
2748.87	0.000262
2758.52	0.000324
2768.16	0.000314
2777.81	0.000338
2787.45	0.000402
2797.1	0.000389
2806.74	0.000313
2816.39	0.000341
2826.03	0.000252
2835.68	0.000365
2845.32	0.000448
2854.97	0.000428
2864.61	0.000388
2874.26	0.000375
2883.9	0.000378
2893.55	0.0004
2903.19	0.00037
2912.84	0.000396
2922.48	0.000264
2932.13	0.000426
2941.77	0.000405
2951.42	0.000288
2961.06	0.000202
2970.71	0.000308
2980.35	0.000192
2990	0.000301
2999.64	0.000294
3009.29	0.000291
3018.93	0.000393
3028.58	0.000307
3038.22	0.000281
3047.87	0.000326
3057.51	0.00028
3067.16	0.000359
3076.8	0.000316
3086.45	0.000263
3096.09	0.000259
3105.74	0.0003
3115.38	0.000325
3125.03	0.000305
3134.67	0.000343
3144.32	0.000426
3153.96	0.00029
3163.61	0.000337
3173.25	0.000242
3182.9	0.000279
3192.54	0.000275
3202.19	0.000233
3211.83	0.0002
3221.48	0.000124
3231.12	0.000212
3240.77	0.000295
3250.41	0.000299
3260.06	0.000257
3269.7	0.000245
3279.35	0.000219
3289	0.000247
3298.64	0.000262
3308.29	0.00023
3317.93	0.000192
3327.58	0.000254
3337.22	0.000325
3346.87	0.000232
3356.51	0.000297
3366.16	0.000383
3375.8	0.000314
3385.45	0.0004958
3395.09	0.0007441
3404.74	0.0011994
3414.38	0.00174
3424.03	0.00246
3433.67	0.00304
3443.32	0.00305
3452.96	0.00245
3462.61	0.0013198
3472.25	0.0009231
3481.9	0.0007353
3491.54	0.0009426
3501.19	0.0009676
3510.83	0.0015049
3520.48	0.00203
3530.12	0.00245
3539.77	0.00253
3549.41	0.00402
3559.06	0.00477
3568.7	0.00332
3578.35	0.0011343
3587.99	0.0004833
3597.64	0.000381
3607.28	0.000202
3616.93	0.000262
3626.57	0.000233
3636.22	0.000186
3645.86	0.000108
3655.51	0.000251
3665.15	0.000239
3674.8	5.4e-05
3684.44	0.000247
3694.09	0.000233
3703.73	0.000255
3713.38	0.000231
3723.02	0.000268
3732.67	0.000264
3742.31	0.000176
3751.96	0.000292
3761.6	0.000219
3771.25	8.6e-05
3780.89	0.000201
3790.54	0.000194
3800.18	0.000252
3809.83	0.000186
3819.47	0.000219
3829.12	0.000292
3838.76	0.000335
3848.41	0.000175
3858.05	0.000125
3867.7	0.000157
3877.34	0.000179
3886.99	0.000138
3896.63	0.000123
3906.28	0.000209
3915.92	0.000302
3925.57	0.000189
3935.21	0.000179
3944.86	9.1e-05
3954.5	0.000122
3964.15	0.000182
3973.79	0.000127
3983.44	0.000222
3993.08	0.000421
