Infrared Spectrum: PROPANOIC ACID, 2-AMINO-3-HYDROXY-
Formula: C3 H7 N O3
CAS: 302-84-1
State: SOLID (SPLIT MULL: FLUOROLUBE FOR 3800-1330 CM^-^1, NUJOL FOR 1330-450 CM^-^1)
Class: COBLENTZ III
Instrument: Not specified, most likely a prism, grating, or hybrid spectrometer.
Sampling: TRANSMISSION
Resolution: 4
Origin: DOW CHEMICAL COMPANY
1/CM	TRANSMITTANCE
447.092	0.792
455.446	0.792
463.8	0.78
472.154	0.762
480.508	0.719
488.862	0.5711
497.216	0.5
505.57	0.605
513.924	0.576
522.278	0.477
530.632	0.713
538.986	0.816
547.34	0.7801
555.694	0.6081
564.048	0.679
572.402	0.82
580.755	0.851
589.109	0.839
597.463	0.81
605.817	0.712
614.171	0.408
622.525	0.6057
630.879	0.831
639.233	0.861
647.587	0.868
655.941	0.864
664.295	0.856
672.649	0.841
681.003	0.824
689.357	0.799
697.711	0.763
706.065	0.693
714.419	0.5381
722.773	0.418
731.127	0.4669
739.481	0.6159
747.835	0.735
756.189	0.796
764.543	0.823
772.897	0.839
781.251	0.847
789.605	0.846
797.959	0.834
806.313	0.783
814.667	0.6979
823.021	0.712
831.375	0.763
839.729	0.757
848.082	0.72
856.436	0.794
864.79	0.813
873.144	0.797
881.498	0.762
889.852	0.6781
898.206	0.4351
906.56	0.7259
914.914	0.789
923.268	0.784
931.622	0.773
939.976	0.76
948.33	0.743
956.684	0.71
965.038	0.653
973.392	0.5411
981.746	0.388
990.1	0.696
998.454	0.707
1006.81	0.643
1015.16	0.497
1023.52	0.189
1031.87	0.079
1040.22	0.2889
1048.58	0.5559
1056.93	0.675
1065.29	0.683
1073.64	0.659
1081.99	0.589
1090.35	0.377
1098.7	0.299
1107.06	0.707
1115.41	0.717
1123.76	0.706
1132.12	0.672
1140.47	0.576
1148.83	0.3871
1157.18	0.467
1165.53	0.433
1173.89	0.579
1182.24	0.398
1190.6	0.663
1198.95	0.723
1207.3	0.716
1215.66	0.699
1224.01	0.678
1232.37	0.645
1240.72	0.549
1249.07	0.353
1257.43	0.561
1265.78	0.606
1274.13	0.584
1282.49	0.544
1290.84	0.481
1299.2	0.373
1307.55	0.1921
1315.9	0.068
1324.26	0.3559
1332.61	0.381
1340.97	0.233
1349.32	0.075
1357.67	0.098
1366.03	0.294
1374.38	0.3389
1382.74	0.501
1391.09	0.471
1399.44	0.401
1407.8	0.289
1416.15	0.192
1424.51	0.109
1432.86	0.058
1441.21	0.139
1449.57	0.243
1457.92	0.3509
1466.28	0.404
1474.63	0.367
1482.98	0.283
1491.34	0.145
1499.69	0.021
1508.05	0.014
1516.4	0.102
1524.75	0.331
1533.11	0.333
1541.46	0.252
1549.82	0.178
1558.17	0.085
1566.52	0.035
1574.88	0.027
1583.23	0.066
1591.59	0.233
1599.94	0.33
1608.29	0.254
1616.65	0.235
1625	0.126
1633.36	0.082
1641.71	0.079
1650.06	0.031
1658.42	0.039
1666.77	0.166
1675.13	0.354
1683.48	0.549
1691.83	0.662
1700.19	0.712
1708.54	0.74
1716.9	0.756
1725.25	0.774
1733.6	0.794
1741.96	0.811
1750.31	0.824
1758.67	0.831
1767.02	0.837
1775.37	0.84
1783.73	0.841
1792.08	0.843
1800.43	0.839
1808.79	0.836
1817.14	0.834
1825.5	0.837
1833.85	0.837
1842.2	0.837
1850.56	0.836
1858.91	0.834
1867.27	0.829
1875.62	0.827
1883.97	0.831
1892.33	0.833
1900.68	0.833
1909.04	0.83
1917.39	0.826
1925.74	0.824
1934.1	0.823
1942.45	0.824
1950.81	0.821
1959.16	0.8362
1967.51	0.81
1975.87	0.807
1984.22	0.801
1992.58	0.793
2000.93	0.765
2009.28	0.762
2017.64	0.76
2025.99	0.7568
2034.35	0.7425
2042.7	0.7269
2051.05	0.7079
2059.41	0.6915
2067.76	0.6754
2076.12	0.6645
2084.47	0.6554
2092.82	0.6329
2101.18	0.5981
2109.53	0.5737
2117.89	0.5747
2126.24	0.5918
2134.59	0.6291
2142.95	0.6496
2151.3	0.6751
2159.66	0.689
2168.01	0.6957
2176.36	0.698
2184.72	0.698
2193.07	0.698
2201.43	0.698
2209.78	0.696
2218.13	0.6934
2226.49	0.6881
2234.84	0.6764
2243.2	0.665
2251.55	0.6557
2259.9	0.6473
2268.26	0.6393
2276.61	0.6273
2284.97	0.6164
2293.32	0.6022
2301.67	0.5911
2310.03	0.585
2318.38	0.5751
2326.73	0.5686
2335.09	0.5641
2343.44	0.561
2351.8	0.565
2360.15	0.5755
2368.5	0.5721
2376.86	0.5615
2385.21	0.554
2393.57	0.548
2401.92	0.5349
2410.27	0.5259
2418.63	0.5169
2426.98	0.508
2435.34	0.4946
2443.69	0.4782
2452.04	0.4597
2460.4	0.4358
2468.75	0.407
2477.11	0.407
2485.46	0.4146
2493.81	0.424
2502.17	0.4133
2510.52	0.3973
2518.88	0.3695
2527.23	0.3481
2535.58	0.3334
2543.94	0.3293
2552.29	0.3225
2560.65	0.308
2569	0.2812
2577.35	0.2359
2585.71	0.2149
2594.06	0.1992
2602.42	0.1869
2610.77	0.1709
2619.12	0.1537
2627.48	0.1262
2635.83	0.1067
2644.19	0.1146
2652.54	0.1267
2660.89	0.1376
2669.25	0.1632
2677.6	0.1729
2685.96	0.172
2694.31	0.1583
2702.66	0.1381
2711.02	0.1211
2719.37	0.0996
2727.73	0.0821
2736.08	0.0766
2744.43	0.072
2752.79	0.065
2761.14	0.066
2769.5	0.068
2777.85	0.066
2786.2	0.064
2794.56	0.0609
2802.91	0.058
2811.27	0.0519
2819.62	0.0498
2827.97	0.0419
2836.33	0.0378
2844.68	0.031
2853.03	0.0277
2861.39	0.024
2869.74	0.022
2878.1	0.019
2886.45	0.015
2894.8	0.011
2903.16	0.008
2911.51	0.0048
2919.87	0.002
2928.22	0.0025
2936.57	0.004
2944.93	0.007
2953.28	0.008
2961.64	0.008
2969.99	0.0106
2978.34	0.012
2986.7	0.014
2995.05	0.014
3003.41	0.015
3011.76	0.015
3020.11	0.017
3028.47	0.0184
3036.82	0.0238
3045.18	0.0284
3053.53	0.032
3061.88	0.0384
3070.24	0.0438
3078.59	0.049
3086.95	0.0489
3095.3	0.0529
3103.65	0.055
3112.01	0.06
3120.36	0.062
3128.72	0.0645
3137.07	0.0741
3145.42	0.087
3153.78	0.1031
3162.13	0.1163
3170.49	0.1383
3178.84	0.1626
3187.19	0.1826
3195.55	0.2142
3203.9	0.2494
3212.26	0.2785
3220.61	0.305
3228.96	0.3361
3237.32	0.3654
3245.67	0.3966
3254.03	0.4272
3262.38	0.457
3270.73	0.4961
3279.09	0.5249
3287.44	0.5561
3295.8	0.5976
3304.15	0.6404
3312.5	0.6667
3320.86	0.6893
3329.21	0.7093
3337.57	0.7261
3345.92	0.7409
3354.27	0.7576
3362.63	0.7714
3370.98	0.7833
3379.33	0.7968
3387.69	0.812
3396.04	0.8186
3404.4	0.829
3412.75	0.8328
3421.1	0.839
3429.46	0.8457
3437.81	0.8494
3446.17	0.85
3454.52	0.8534
3462.87	0.857
3471.23	0.857
3479.58	0.857
3487.94	0.858
3496.29	0.857
3504.64	0.858
3513	0.861
3521.35	0.86
3529.71	0.8581
3538.06	0.86
3546.41	0.858
3554.77	0.857
3563.12	0.8579
3571.48	0.856
3579.83	0.8528
3588.18	0.853
3596.54	0.8569
3604.89	0.8517
3613.25	0.8468
3621.6	0.8447
3629.95	0.8408
3638.31	0.839
3646.66	0.837
3655.02	0.836
3663.37	0.833
3671.72	0.831
3680.08	0.83
3688.43	0.829
3696.79	0.8255
3705.14	0.823
3713.49	0.82
3721.85	0.8174
3730.2	0.814
3738.56	0.8132
3746.91	0.811
3755.26	0.8092
3763.62	0.8053
3771.97	0.8
3780.33	0.8034
