Infrared Spectrum: Chloral hydrate
Formula: C 2 H 3 Cl 3 O 2
CAS: 302-17-0
State: gas
Instrument: HP-GC/MS/IRD
Origin: NIST Mass Spectrometry Data Center
1/CM	ABSORBANCE
550	0.0004816
562	0.0005544
574	0.0005488
586	0.000882
598	0.002562
610	0.0069748
622	0.0105168
634	0.0071456
646	0.0033852
658	0.0034076
670	0.0039788
682	0.0038248
694	0.0036596
706	0.0041468
718	0.0069552
730	0.0107016
742	0.0101584
754	0.0063112
766	0.0051828
778	0.0059024
790	0.0063756
802	0.0057008
814	0.00469
826	0.004676
838	0.0075852
850	0.0098196
862	0.0064204
874	0.002492
886	0.0015456
898	0.0014504
910	0.001582
922	0.0016548
934	0.0014112
946	0.00112
958	0.0014308
970	0.0036344
982	0.0059416
994	0.0047152
1006	0.0043456
1018	0.00602
1030	0.0051828
1042	0.0022036
1054	0.0008876
1066	0.0003948
1078	0.0002632
1090	0.0001848
1102	4.48e-05
1114	8.4e-06
1126	0.0001036
1138	6.72e-05
1150	0
1162	0.0001764
1174	0.0001064
1186	0.0001008
1198	0.0001344
1210	0.0001092
1222	9.8e-05
1234	0.0001652
1246	0.0001764
1258	0.0001792
1270	0.0001344
1282	0.0002072
1294	0.0002128
1306	0.0001428
1318	0.0001988
1330	0.0003472
1342	0.0009968
1354	0.001806
1366	0.0010612
1378	0.0002996
1390	0.0001708
1402	0.0001792
1414	0.000168
1426	0.0001568
1438	0.0001176
1450	0.0001008
1462	0.0001176
1474	0.0001428
1486	0.0001176
1498	0.0001316
1510	0.0001512
1522	0.0001512
1534	0.0001008
1546	0.00014
1558	0.0001624
1570	0.000154
1582	0.0001512
1594	0.0001792
1606	0.0001848
1618	0.0001792
1630	0.0002576
1642	0.0002772
1654	0.0002912
1666	0.0003136
1678	0.000322
1690	0.000462
1702	0.000658
1714	0.000896
1726	0.0011284
1738	0.00161
1750	0.004074
1762	0.0159012
1774	0.028
1786	0.01722
1798	0.002296
1810	0.0009072
1822	0.0008232
1834	0.0006972
1846	0.0004872
1858	0.0003696
1870	0.0002716
1882	0.000238
1894	0.0001904
1906	0.0001316
1918	0.0001876
1930	0.0001904
1942	0.0001988
1954	0.0001988
1966	0.0002632
1978	0.0003164
1990	0.0002212
2002	0.0002324
2014	0.0002492
2026	0.00021
2038	0.0002016
2050	0.0001596
2062	0.0001288
2074	0.0001736
2086	0.0001372
2098	0.0001176
2110	0.0001064
2122	0.0001372
2134	0.0001036
2146	0.0001036
2158	8.4e-05
2170	7e-05
2182	0.0001288
2194	0.0001092
2206	0.0001148
2218	0.0001064
2230	9.8e-05
2242	0.0001232
2254	0.0001148
2266	0.0001008
2278	0.0001036
2290	0.0001008
2302	0.0001232
2314	9.8e-05
2326	0.0001204
2338	0.0001176
2350	0.0001428
2362	0.0001568
2374	0.000182
2386	0.000112
2398	0.000112
2410	9.8e-05
2422	0.0001036
2434	0.0001064
2446	0.0001512
2458	0.0001092
2470	0.0001428
2482	8.4e-05
2494	0.0001232
2506	0.0001344
2518	0.0001092
2530	0.0001232
2542	0.0001064
2554	0.0001596
2566	0.0001316
2578	7.28e-05
2590	8.96e-05
2602	0.0001428
2614	0.00014
2626	0.0001148
2638	0.0001624
2650	0.0001764
2662	0.0001792
2674	0.0002912
2686	0.000392
2698	0.000294
2710	0.0001988
2722	0.0001652
2734	0.0001764
2746	0.0001792
2758	0.0002156
2770	0.0003248
2782	0.0005572
2794	0.0006468
2806	0.0006412
2818	0.000672
2830	0.0010836
2842	0.0030688
2854	0.005054
2866	0.0028056
2878	0.0008708
2890	0.0006608
2902	0.0006552
2914	0.0005908
2926	0.0004368
2938	0.0002436
2950	0.0001288
2962	0.0001932
2974	0.0001624
2986	0.0001288
2998	4.48e-05
3010	0.0001652
3022	0.0001652
3034	0.000168
3046	0.0002072
3058	0.0002072
3070	0.0001988
3082	0.000182
3094	0.0001568
3106	0.0002072
3118	0.0001008
3130	0.0001708
3142	0.0002128
3154	0.0001344
3166	0.0001652
3178	0.0001344
3190	0.0001316
3202	0.000126
3214	0.000126
3226	0.0001876
3238	0.000154
3250	0.0001484
3262	6.16e-05
3274	0.0001932
3286	8.96e-05
3298	0.0001372
3310	0.0002016
3322	0.0001484
3334	0.0001512
3346	0.0001428
3358	0.0001344
3370	0.000168
3382	0.0002016
3394	0.0001204
3406	0.0001736
3418	0.0001624
3430	0.0002016
3442	0.000168
3454	0.000238
3466	0.0003136
3478	0.0002268
3490	0.0002604
3502	0.0003248
3514	0.0007532
3526	0.0010668
3538	0.0008904
3550	0.0003976
3562	0.0003752
3574	0.0001988
3586	0.0002072
3598	0.00021
3610	0.0002744
3622	0.0002352
3634	0.0002212
3646	0.0002268
3658	0.0001736
3670	0.0002772
3682	0.0003108
3694	0.0002408
3706	0.000224
3718	0.000196
3730	0.0002856
3742	0.0002156
3754	0.0002128
3766	0.0002968
3778	0.00021
3790	0.000182
3802	0.0002184
3814	0.0002352
3826	0.00014
3838	0.0002548
