Infrared Spectrum: METHANE, (p-BROMOPHENYL)-(p-CHLOROPHENYL)-
Formula: C13 H10 Br Cl
CAS: 30203-84-0
State: SOLUTION (10% CCl4 FOR 3800-1335, 10% CS2 FOR 1335-400 CM^-^1) VS SOLVENT
Class: COBLENTZ III
Instrument: DOW KBr FOREPRISM-GRATING
Instrument parameters: BLAZED AT 3.5, 12.0, 20.0 MICRON AND CHANGED AT 5.0, 7.5, 14.9 MICRON
Sampling: TRANSMISSION
Path length: 0.011 CM, 0.011 CM
Resolution: 2
Origin: DOW CHEMICAL COMPANY
1/CM	TRANSMITTANCE
385.088	0.928
393.86	0.925
402.632	0.924
411.404	0.922
420.176	0.92
428.948	0.922
437.72	0.932
446.491	0.935
455.263	0.933
464.035	0.916
472.807	0.84
481.579	0.486
490.351	0.751
499.123	0.658
507.895	0.456
516.667	0.83
525.439	0.925
534.211	0.94
542.983	0.947
551.755	0.954
560.527	0.957
569.298	0.962
578.07	0.962
586.842	0.965
595.614	0.964
604.386	0.957
613.158	0.94
621.93	0.825
630.702	0.994
639.474	0.984
648.246	0.918
657.018	0.954
665.79	1.012
674.562	1.034
683.333	1.034
692.105	1.03
700.877	1.03
709.649	1.026
718.421	1.004
727.193	0.971
735.965	1.015
744.737	1.013
753.509	1.004
762.281	0.991
771.053	0.918
779.825	0.661
788.597	0.226
797.368	0.474
806.14	0.187
814.912	0.643
823.684	0.795
832.456	0.76
841.228	0.771
850	0.669
858.772	0.811
867.544	0.961
876.316	0.987
885.088	0.991
893.86	0.987
902.632	0.972
911.404	0.914
920.175	0.944
928.947	0.968
937.719	0.955
946.491	0.935
955.263	0.939
964.035	0.957
972.807	0.969
981.579	0.971
990.351	0.961
999.123	0.894
1007.89	0.5809
1016.67	0.334
1025.44	0.949
1034.21	0.96
1042.98	0.957
1051.75	0.944
1060.53	0.907
1069.3	0.5389
1078.07	0.709
1086.84	0.53
1095.61	0.291
1104.39	0.636
1113.16	0.775
1121.93	0.909
1130.7	0.922
1139.47	0.936
1148.25	0.935
1157.02	0.932
1165.79	0.916
1174.56	0.873
1183.33	0.87
1192.11	0.887
1200.88	0.855
1209.65	0.916
1218.42	0.933
1227.19	0.892
1235.96	0.932
1244.74	0.94
1253.51	0.942
1262.28	0.938
1271.05	0.935
1279.82	0.932
1288.6	0.902
1297.37	0.922
1306.14	0.921
1314.91	0.931
1323.68	0.935
1332.46	0.928
1341.23	0.932
1350	0.924
1358.77	0.938
1367.54	0.943
1376.32	0.939
1385.09	0.918
1393.86	0.894
1402.63	0.686
1411.4	0.6431
1420.18	0.885
1428.95	0.823
1437.72	0.651
1446.49	0.786
1455.26	0.866
1464.03	0.878
1472.81	0.848
1481.58	0.661
1490.35	0.001
1499.12	0.363
1507.89	0.825
1516.67	0.833
1525.44	0.775
1534.21	0.94
1542.98	0.954
1551.75	0.96
1560.53	0.96
1569.3	0.942
1578.07	0.909
1586.84	0.917
1595.61	0.858
1604.39	0.905
1613.16	0.933
1621.93	0.938
1630.7	0.914
1639.47	0.935
1648.25	0.954
1657.02	0.955
1665.79	0.949
1674.56	0.935
1683.33	0.947
1692.1	0.955
1700.88	0.958
1709.65	0.957
1718.42	0.957
1727.19	0.954
1735.96	0.936
1744.74	0.91
1753.51	0.918
1762.28	0.946
1771.05	0.943
1779.82	0.902
1788.6	0.95
1797.37	0.957
1806.14	0.958
1814.91	0.961
1823.68	0.961
1832.46	0.961
1841.23	0.958
1850	0.958
1858.77	0.958
1867.54	0.95
1876.32	0.932
1885.09	0.932
1893.86	0.895
1902.63	0.844
1911.4	0.921
1920.17	0.946
1928.95	0.954
1937.72	0.953
1946.49	0.951
1955.26	0.954
1964.03	0.951
1972.81	0.955
1981.58	0.957
1990.35	0.957
1999.12	0.962
2007.89	0.965
2016.67	0.968
2025.44	0.9715
2034.21	0.972
2042.98	0.972
2051.75	0.972
2060.53	0.971
2069.3	0.9672
2078.07	0.9672
2086.84	0.966
2095.61	0.966
2104.39	0.968
2113.16	0.968
2121.93	0.966
2130.7	0.966
2139.47	0.966
2148.24	0.966
2157.02	0.966
2165.79	0.966
2174.56	0.966
2183.33	0.965
2192.1	0.965
2200.88	0.965
2209.65	0.965
2218.42	0.964
2227.19	0.964
2235.96	0.965
2244.74	0.965
2253.51	0.965
2262.28	0.9606
2271.05	0.953
2279.82	0.95
2288.6	0.9543
2297.37	0.968
2306.14	0.969
2314.91	0.9771
2323.68	0.98
2332.46	0.975
2341.23	0.972
2350	0.972
2358.77	0.969
2367.54	0.966
2376.31	0.964
2385.09	0.962
2393.86	0.964
2402.63	0.964
2411.4	0.964
2420.17	0.966
2428.95	0.968
2437.72	0.969
2446.49	0.969
2455.26	0.968
2464.03	0.968
2472.81	0.9664
2481.58	0.965
2490.35	0.965
2499.12	0.965
2507.89	0.965
2516.67	0.965
2525.44	0.966
2534.21	0.966
2542.98	0.964
2551.75	0.964
2560.53	0.9613
2569.3	0.9573
2578.07	0.9593
2586.84	0.961
2595.61	0.962
2604.39	0.964
2613.16	0.964
2621.93	0.962
2630.7	0.9632
2639.47	0.964
2648.24	0.962
2657.02	0.962
2665.79	0.962
2674.56	0.962
2683.33	0.963
2692.1	0.9645
2700.88	0.965
2709.65	0.962
2718.42	0.962
2727.19	0.961
2735.96	0.958
2744.74	0.957
2753.51	0.957
2762.28	0.957
2771.05	0.955
2779.82	0.955
2788.6	0.954
2797.37	0.954
2806.14	0.945
2814.91	0.939
2823.68	0.9225
2832.46	0.8872
2841.23	0.8601
2850	0.8743
2858.77	0.8928
2867.54	0.9
2876.31	0.9
2885.09	0.8903
2893.86	0.8598
2902.63	0.7998
2911.4	0.7706
2920.17	0.7977
2928.95	0.8303
2937.72	0.8706
2946.49	0.9007
2955.26	0.9201
2964.03	0.9219
2972.81	0.91
2981.58	0.9142
2990.35	0.9311
2999.12	0.936
3007.89	0.932
3016.67	0.9066
3025.44	0.8039
3034.21	0.8171
3042.98	0.814
3051.75	0.8917
3060.53	0.911
3069.3	0.913
3078.07	0.8963
3086.84	0.8908
3095.61	0.9279
3104.38	0.9532
3113.16	0.9649
3121.93	0.9678
3130.7	0.968
3139.47	0.9651
3148.24	0.966
3157.02	0.966
3165.79	0.968
3174.56	0.971
3183.33	0.971
3192.1	0.971
3200.88	0.9718
3209.65	0.975
3218.42	0.976
3227.19	0.976
3235.96	0.976
3244.74	0.9753
3253.51	0.975
3262.28	0.975
3271.05	0.975
3279.82	0.975
3288.6	0.975
3297.37	0.975
3306.14	0.975
3314.91	0.975
3323.68	0.975
3332.45	0.976
3341.23	0.976
3350	0.975
3358.77	0.976
3367.54	0.976
3376.31	0.972
3385.09	0.9755
3393.86	0.976
3402.63	0.976
3411.4	0.9755
3420.17	0.969
3428.95	0.976
3437.72	0.976
3446.49	0.976
3455.26	0.976
3464.03	0.976
3472.81	0.976
3481.58	0.976
3490.35	0.976
3499.12	0.975
3507.89	0.975
3516.67	0.976
3525.44	0.979
3534.21	0.977
3542.98	0.9793
3551.75	0.983
3560.52	0.9807
3569.3	0.977
3578.07	0.977
3586.84	0.9636
3595.61	0.979
3604.38	0.9816
3613.16	0.977
3621.93	0.977
3630.7	0.977
3639.47	0.979
3648.24	0.9787
3657.02	0.977
3665.79	0.979
3674.56	0.979
3683.33	0.979
3692.1	0.982
3700.88	0.9799
3709.65	0.976
3718.42	0.9771
3727.19	0.9801
3735.96	0.983
3744.74	0.984
3753.51	0.984
3762.28	0.982
3771.05	0.983
3779.82	0.983
3788.59	0.9839
3797.37	0.984
