Infrared Spectrum: 3,4-DICHLOROBENZOYL CHLORIDE
Formula: C7 H3 Cl3 O
CAS: 3024-72-4
State: SOLUTION (10% IN CCl4 FOR 5000-1350 CM^-^1, 10% IN CS2 FOR 1350-625 CM^-^1)
Class: COBLENTZ
Instrument: Not specified, most likely a prism, grating, or hybrid spectrometer.
Sampling: TRANSMISSION
Path length: 0.01 CM, 0.01 CM
Resolution: 4
Origin: DOW CHEMICAL COMPANY
MICROMETERS	TRANSMITTANCE
2.041	0.873
2.08014	0.866
2.11928	0.875
2.15842	0.87
2.19756	0.875
2.23669	0.875
2.27583	0.876
2.31497	0.876
2.35411	0.879
2.39325	0.878
2.43239	0.881
2.47153	0.883
2.51067	0.879
2.5498	0.884
2.58894	0.876
2.62808	0.884
2.66722	0.871
2.70636	0.881
2.7455	0.871
2.78464	0.868
2.82378	0.852
2.86291	0.855
2.90205	0.87
2.94119	0.87
2.98033	0.87
3.01947	0.878
3.05861	0.873
3.09775	0.876
3.13689	0.871
3.17602	0.857
3.21516	0.808
3.2543	0.836
3.29344	0.876
3.33258	0.883
3.37172	0.875
3.41086	0.884
3.45	0.889
3.48914	0.881
3.52827	0.892
3.56741	0.883
3.60655	0.884
3.64569	0.891
3.68483	0.889
3.72397	0.894
3.76311	0.897
3.80225	0.897
3.84138	0.886
3.88052	0.868
3.91966	0.892
3.9588	0.897
3.99794	0.909
4.03708	0.909
4.07622	0.907
4.11536	0.899
4.15449	0.884
4.19363	0.883
4.23277	0.878
4.27191	0.876
4.31105	0.881
4.35019	0.889
4.38933	0.9
4.42847	0.91
4.4676	0.912
4.50674	0.905
4.54588	0.91
4.58502	0.925
4.62416	0.923
4.6633	0.915
4.70244	0.887
4.74158	0.9
4.78072	0.91
4.81985	0.907
4.85899	0.912
4.89813	0.909
4.93727	0.904
4.97641	0.909
5.01555	0.904
5.05469	0.902
5.09383	0.907
5.13296	0.897
5.1721	0.866
5.21124	0.865
5.25038	0.871
5.28952	0.86
5.32866	0.86
5.3678	0.845
5.40694	0.774
5.44607	0.762
5.48521	0.741
5.52435	0.672
5.56349	0.564
5.60263	0.329
5.64177	0.042
5.68091	0.134
5.72005	0.529
5.75918	0.681
5.79832	0.732
5.83746	0.761
5.8766	0.719
5.91574	0.732
5.95488	0.818
5.99402	0.834
6.03316	0.842
6.0723	0.855
6.11143	0.818
6.15057	0.775
6.18971	0.67
6.22885	0.525
6.26799	0.274
6.30713	0.314
6.34627	0.438
6.38541	0.353
6.42454	0.371
6.46368	0.475
6.50282	0.568
6.54196	0.608
6.5811	0.665
6.62024	0.756
6.65938	0.769
6.69852	0.714
6.73765	0.636
6.77679	0.389
6.81593	0.474
6.85507	0.795
6.89421	0.821
6.93335	0.826
6.97249	0.831
7.01163	0.832
7.05076	0.816
7.0899	0.758
7.12904	0.659
7.16818	0.511
7.20732	0.196
7.24646	0.543
7.2856	0.824
7.32474	0.87
7.36388	0.876
7.40301	0.866
7.44215	0.86
7.48129	0.862
7.52043	0.881
7.55957	0.894
7.59871	0.902
7.63785	0.897
7.67699	0.884
7.71612	0.81
7.75526	0.764
7.7944	0.842
7.83354	0.79
7.87268	0.636
7.91182	0.53
7.95096	0.779
7.9901	0.805
8.02923	0.787
8.06837	0.764
8.10751	0.711
8.14665	0.672
8.18579	0.629
8.22493	0.433
8.26407	0.146
8.30321	0.017
8.34234	0.03
8.38148	0.045
8.42062	0.108
8.45976	0.228
8.4989	0.462
8.53804	0.659
8.57718	0.775
8.61632	0.777
8.65546	0.745
8.69459	0.712
8.73373	0.629
8.77287	0.465
8.81201	0.459
8.85115	0.644
8.89029	0.803
8.92943	0.831
8.96857	0.849
9.0077	0.868
9.04684	0.855
9.08598	0.837
9.12512	0.852
9.16426	0.871
9.2034	0.878
9.24254	0.875
9.28168	0.87
9.32081	0.876
9.35995	0.873
9.39909	0.871
9.43823	0.871
9.47737	0.858
9.51651	0.818
9.55565	0.676
9.59479	0.443
9.63392	0.211
9.67306	0.426
9.7122	0.569
9.75134	0.659
9.79048	0.772
9.82962	0.818
9.86876	0.842
9.9079	0.857
9.94703	0.858
9.98617	0.863
10.0253	0.866
10.0645	0.87
10.1036	0.876
10.1427	0.883
10.1819	0.879
10.221	0.878
10.2601	0.865
10.2993	0.85
10.3384	0.818
10.3776	0.785
10.4167	0.743
10.4558	0.685
10.495	0.612
10.5341	0.456
10.5733	0.259
10.6124	0.066
10.6515	0.058
10.6907	0.183
10.7298	0.301
10.7689	0.314
10.8081	0.201
10.8472	0.069
10.8864	0.022
10.9255	0.03
10.9646	0.094
11.0038	0.185
11.0429	0.25
11.0821	0.256
11.1212	0.31
11.1603	0.282
11.1995	0.41
11.2386	0.511
11.2778	0.555
11.3169	0.569
11.356	0.576
11.3952	0.582
11.4343	0.592
11.4734	0.605
11.5126	0.621
11.5517	0.628
11.5909	0.628
11.63	0.623
11.6691	0.618
11.7083	0.631
11.7474	0.652
11.7866	0.676
11.8257	0.689
11.8648	0.689
11.904	0.672
11.9431	0.649
11.9823	0.582
12.0214	0.41
12.0605	0.248
12.0997	0.215
12.1388	0.375
12.1779	0.563
12.2171	0.665
12.2562	0.711
12.2954	0.72
12.3345	0.728
12.3736	0.733
12.4128	0.738
12.4519	0.737
12.4911	0.727
12.5302	0.709
12.5693	0.688
12.6085	0.667
12.6476	0.626
12.6868	0.553
12.7259	0.425
12.765	0.279
12.8042	0.136
12.8433	0.086
12.8824	0.167
12.9216	0.3
12.9607	0.451
12.9999	0.535
13.039	0.581
13.0781	0.589
13.1173	0.574
13.1564	0.534
13.1956	0.452
13.2347	0.34
13.2738	0.194
13.313	0.05
13.3521	0.004
13.3912	0.019
13.4304	0.107
13.4695	0.246
13.5087	0.404
13.5478	0.498
13.5869	0.568
13.6261	0.605
13.6652	0.625
13.7044	0.637
13.7435	0.641
13.7826	0.639
13.8218	0.631
13.8609	0.623
13.9001	0.607
13.9392	0.568
13.9783	0.478
14.0175	0.337
14.0566	0.212
14.0957	0.292
14.1349	0.454
14.174	0.561
14.2132	0.597
14.2523	0.615
14.2914	0.62
14.3306	0.621
14.3697	0.62
14.4089	0.612
14.448	0.602
14.4871	0.587
14.5263	0.574
14.5654	0.54
14.6046	0.483
14.6437	0.431
14.6828	0.417
14.722	0.422
14.7611	0.42
14.8002	0.387
14.8394	0.342
14.8785	0.308
14.9177	0.287
14.9568	0.264
14.9959	0.225
15.0351	0.198
15.0742	0.222
15.1134	0.284
15.1525	0.358
15.1916	0.389
15.2308	0.418
15.2699	0.428
15.309	0.43
15.3482	0.43
15.3873	0.426
15.4265	0.423
15.4656	0.418
15.5047	0.413
15.5439	0.409
15.583	0.404
15.6222	0.4
15.6613	0.397
15.7004	0.392
15.7396	0.384
15.7787	0.381
15.8179	0.376
15.857	0.375
15.8961	0.381
