Infrared Spectrum: Tetrapropylene glycol
Formula: C12 H26 O5
CAS: 30242-05-8
State: SOLUTION (10% CCl4 FOR 2.7-7.5, 10% CS2 FOR 7.5-26 MICRON) VS SOLVENT
Class: COBLENTZ
Instrument: DOW KBr FOREPRISM-GRATING
Instrument parameters: BLAZED AT 3.5, 12.0, 20.0 MICRON AND CHANGED AT 5.0, 7.5, 14.9 MICRON
Sampling: TRANSMISSION
Path length: 0.011 CM, 0.011 CM
Resolution: 2
Origin: DOW CHEMICAL COMPANY
1/CM	TRANSMITTANCE
3792	0.8632
3783	0.8632
3774	0.8631
3765	0.8631
3756	0.8631
3747	0.8641
3738	0.8648
3729	0.8642
3720	0.8639
3711	0.8634
3702	0.8627
3693	0.8614
3684	0.8554
3675	0.8201
3666	0.8043
3657	0.8135
3648	0.8263
3639	0.8262
3630	0.8194
3621	0.7917
3612	0.7693
3603	0.7448
3594	0.6761
3585	0.5723
3576	0.5705
3567	0.5808
3558	0.5922
3549	0.5842
3540	0.5576
3531	0.5012
3522	0.4615
3513	0.4141
3504	0.3718
3495	0.3343
3486	0.3092
3477	0.288
3468	0.2739
3459	0.2654
3450	0.2584
3441	0.2563
3432	0.2578
3423	0.2619
3414	0.2718
3405	0.2865
3396	0.3046
3387	0.3264
3378	0.3473
3369	0.3675
3360	0.388
3351	0.411
3342	0.4382
3333	0.4625
3324	0.4842
3315	0.5062
3306	0.5291
3297	0.5509
3288	0.571
3279	0.5905
3270	0.6096
3261	0.6309
3252	0.6547
3243	0.6807
3234	0.7011
3225	0.7178
3216	0.7317
3207	0.7454
3198	0.7585
3189	0.7715
3180	0.7837
3171	0.7957
3162	0.8071
3153	0.8154
3144	0.8233
3135	0.8315
3126	0.84
3117	0.8463
3108	0.85
3099	0.8525
3090	0.8547
3081	0.8559
3072	0.8566
3063	0.8567
3054	0.8562
3045	0.8547
3036	0.85
3027	0.8423
3018	0.8267
3009	0.7796
3000	0.6678
2991	0.3138
2982	0.1204
2973	0.081
2964	0.2261
2955	0.3807
2946	0.3142
2937	0.169
2928	0.1556
2919	0.1698
2910	0.1383
2901	0.1163
2892	0.1186
2883	0.1307
2874	0.1292
2865	0.1313
2856	0.1614
2847	0.2575
2838	0.4851
2829	0.5587
2820	0.5846
2811	0.598
2802	0.6052
2793	0.634
2784	0.6667
2775	0.6958
2766	0.7181
2757	0.7353
2748	0.7487
2739	0.7584
2730	0.7644
2721	0.7711
2712	0.7793
2703	0.7875
2694	0.7964
2685	0.8028
2676	0.8055
2667	0.8058
2658	0.8067
2649	0.8085
2640	0.8184
2631	0.827
2622	0.833
2613	0.8384
2604	0.8425
2595	0.8444
2586	0.8481
2577	0.8525
2568	0.8565
2559	0.859
2550	0.8611
2541	0.8628
2532	0.8645
2523	0.8659
2514	0.8675
2505	0.8694
2496	0.8708
2487	0.8711
2478	0.872
2469	0.8733
2460	0.8748
2451	0.876
2442	0.877
2433	0.8778
2424	0.8785
2415	0.8791
2406	0.8798
2397	0.8805
2388	0.8811
2379	0.8813
2370	0.8815
2361	0.8818
2352	0.8823
2343	0.8824
2334	0.8824
2325	0.8808
2316	0.8786
2307	0.8759
2298	0.875
2289	0.8746
2280	0.8753
2271	0.876
2262	0.8763
2253	0.8764
2244	0.8765
2235	0.8765
2226	0.8765
2217	0.8771
2208	0.8781
2199	0.8796
2190	0.882
2181	0.8866
2172	0.8868
2163	0.8834
2154	0.8825
2145	0.8818
2136	0.8808
2127	0.8794
2118	0.878
2109	0.8765
2100	0.876
2091	0.8758
2082	0.8755
2073	0.8756
2064	0.8758
2055	0.8759
2046	0.8762
2037	0.8765
2028	0.8768
2019	0.877
2010	0.8768
2001	0.8768
1992	0.8763
1983	0.8762
1974	0.8765
1965	0.8781
1956	0.8799
1947	0.8828
1938	0.8836
1929	0.884
1920	0.8848
1911	0.8852
1902	0.8853
1893	0.886
1884	0.8868
1875	0.8878
1866	0.8889
1857	0.8894
1848	0.8899
1839	0.8901
1830	0.89
1821	0.8898
1812	0.8901
1803	0.8905
1794	0.8906
1785	0.8903
1776	0.8899
1767	0.8887
1758	0.8875
1749	0.8867
1740	0.8852
1731	0.8839
1722	0.8834
1713	0.8834
1704	0.8833
1695	0.8809
1686	0.8756
1677	0.8662
1668	0.8539
1659	0.8405
1650	0.8284
1641	0.8203
1632	0.816
1623	0.8155
1614	0.8212
1605	0.8339
1596	0.8455
1587	0.8568
1578	0.8638
1569	0.8636
1560	0.8646
1551	0.8668
1542	0.8675
1533	0.8671
1524	0.8604
1515	0.8523
1506	0.8314
1497	0.8146
1488	0.7771
1479	0.6016
1470	0.4867
1461	0.3871
1452	0.3259
1443	0.5045
1434	0.6044
1425	0.5577
1416	0.4901
1407	0.4707
1398	0.4801
1389	0.399
1380	0.1679
1371	0.3222
1362	0.4458
1353	0.4115
1344	0.39
1335	0.3853
1326	0.348
1317	0.3662
1308	0.4749
1299	0.4375
1290	0.4376
1281	0.3942
1272	0.3818
1263	0.3521
1254	0.3353
1245	0.439
1236	0.5387
1227	0.6272
1218	0.6917
1209	0.7203
1200	0.7278
1191	0.713
1182	0.5376
1173	0.341
1164	0.1951
1155	0.127
1146	0.0882
1137	0.0734
1128	0.0582
1119	0.0448
1110	0.033
1101	0.0255
1092	0.0179
1083	0.0287
1074	0.0815
1065	0.1278
1056	0.1356
1047	0.2353
1038	0.429
1029	0.5332
1020	0.4636
1011	0.3892
1002	0.4429
993	0.5147
984	0.5534
975	0.5369
966	0.5531
957	0.5478
948	0.4991
939	0.4175
930	0.4495
921	0.5396
912	0.6133
903	0.6421
894	0.7546
885	0.8099
876	0.7995
867	0.6546
858	0.5933
849	0.6279
840	0.5446
831	0.6817
822	0.7021
813	0.7292
804	0.7912
795	0.8267
786	0.8411
777	0.8428
768	0.8377
759	0.8286
750	0.8181
741	0.8067
732	0.7943
723	0.7808
714	0.7682
705	0.7568
696	0.7444
687	0.7318
678	0.7133
669	0.6893
660	0.6842
651	0.6734
642	0.6715
633	0.6665
624	0.6556
615	0.6447
606	0.6312
597	0.6149
588	0.5997
579	0.5868
570	0.5774
561	0.5697
552	0.5704
543	0.5724
534	0.5712
525	0.5608
516	0.5589
507	0.5612
498	0.5664
489	0.5658
480	0.5621
471	0.5652
462	0.5714
453	0.5781
444	0.5845
435	0.5897
426	0.5935
417	0.5959
408	0.5976
399	0.5984
