Infrared Spectrum: 4-Acetamidobutyric acid
Formula: C 6 H 11 N O 3
CAS: 3025-96-5
State: gas
Origin: EPA-IR VAPOR PHASE LIBRARY
1/CM	ABSORBANCE
549.8	0.003978
559.445	0.004168
569.09	0.004338
578.735	0.003998
588.38	0.004268
598.025	0.004548
607.67	0.004668
617.315	0.004638
626.96	0.004478
636.605	0.004338
646.251	0.003578
655.896	0.002598
665.541	0.002218
675.186	0.002078
684.831	0.001898
694.476	0.001658
704.121	0.001508
713.766	0.001578
723.411	0.001528
733.056	0.001528
742.701	0.001598
752.346	0.001678
761.991	0.001628
771.636	0.001458
781.281	0.001288
790.926	0.001208
800.571	0.001182
810.216	0.001288
819.861	0.001378
829.507	0.001348
839.152	0.001368
848.797	0.001378
858.442	0.001448
868.087	0.001478
877.732	0.001408
887.377	0.001248
897.022	0.0011704
906.667	0.0010573
916.312	0.0009846
925.957	0.0010957
935.602	0.001198
945.247	0.001448
954.892	0.001578
964.537	0.001658
974.182	0.001738
983.827	0.001708
993.472	0.001638
1003.12	0.001588
1012.76	0.001778
1022.41	0.002248
1032.05	0.002598
1041.7	0.003098
1051.34	0.004018
1060.99	0.004598
1070.63	0.005258
1080.28	0.005678
1089.92	0.006508
1099.57	0.007968
1109.21	0.008998
1118.86	0.010378
1128.5	0.013048
1138.15	0.013668
1147.79	0.010558
1157.44	0.007518
1167.08	0.005648
1176.73	0.004458
1186.37	0.004058
1196.02	0.004158
1205.66	0.004728
1215.31	0.005498
1224.95	0.006618
1234.6	0.008588
1244.24	0.010898
1253.89	0.010868
1263.53	0.008458
1273.18	0.006678
1282.82	0.005858
1292.47	0.004958
1302.11	0.004038
1311.76	0.003438
1321.4	0.003088
1331.05	0.002788
1340.69	0.003218
1350.34	0.004378
1359.98	0.006588
1369.63	0.007868
1379.27	0.006968
1388.92	0.005778
1398.56	0.004588
1408.21	0.003668
1417.85	0.003578
1427.5	0.004078
1437.14	0.005158
1446.79	0.006168
1456.43	0.006348
1466.08	0.006748
1475.73	0.008538
1485.37	0.011748
1495.02	0.014998
1504.66	0.014608
1514.31	0.010548
1523.95	0.006528
1533.6	0.004068
1543.24	0.002668
1552.89	0.002088
1562.53	0.001718
1572.18	0.001538
1581.82	0.001318
1591.47	0.0010978
1601.11	0.0009292
1610.76	0.0009363
1620.4	0.0009443
1630.05	0.0010237
1639.69	0.001218
1649.34	0.001528
1658.98	0.001938
1668.63	0.002568
1678.27	0.003418
1687.92	0.005358
1697.56	0.009848
1707.21	0.018918
1716.85	0.024248
1726.5	0.018698
1736.14	0.011958
1745.79	0.010768
1755.43	0.013578
1765.08	0.018138
1774.72	0.020578
1784.37	0.017588
1794.01	0.011408
1803.66	0.006708
1813.3	0.003718
1822.95	0.002078
1832.59	0.001288
1842.24	0.0008916
1851.88	0.0006661
1861.53	0.0006194
1871.17	0.0005127
1880.82	0.0004894
1890.46	0.0004102
1900.11	0.0004239
1909.75	0.0003877
1919.4	0.000342
1929.04	0.0003858
1938.69	0.0003429
1948.33	0.0003503
1957.98	0.0003442
1967.62	0.0003451
1977.27	0.0003219
1986.91	0.0003332
1996.56	0.0003505
2006.2	0.00029789
2015.85	0.00027512
2025.49	0.0002207
2035.14	0.00023606
2044.78	0.0002352
2054.43	0.00022017
2064.07	0.000207205
2073.72	0.00019548
2083.36	0.0001806
2093.01	0.0001695
2102.65	0.0001624
2112.3	0.00021401
2121.94	0.0001579
2131.59	0.00021601
2141.23	0.0001547
2150.88	0.0001764
2160.52	0.0001498
2170.17	0.00018907
2179.81	0.00023986
2189.46	0.0001624
2199.1	0.0002282
2208.75	0.00019105
2218.39	0.000198982
2228.04	0.0001641
2237.68	0.0001768
2247.33	0.0001572
2256.97	0.00019062
2266.62	0.00019646
2276.26	0.0001361
2285.91	0.0001842
2295.55	0.0001702
2305.2	0.0001718
2314.84	0.000168
2324.49	0.0001192
2334.13	0.00019384
2343.78	0.0001647
2353.42	0.0001528
2363.07	0.0001124
2372.72	0.0001676
2382.36	0.0001024
2392.01	0.0001111
2401.65	0.0001496
2411.3	0.0001365
2420.94	0.000119
2430.59	0.0001649
2440.23	0.0001084
2449.88	0.0001243
2459.52	7.9e-05
2469.17	0.0001176
2478.81	8e-05
2488.46	8.8e-05
2498.1	6.5e-05
2507.75	3.8e-05
2517.39	3e-05
2527.04	8.1e-05
2536.68	2.3e-05
2546.33	6.3e-05
2555.97	9e-05
2565.62	1.6e-05
2575.26	6.2e-05
2584.91	3.1e-05
2594.55	8.7e-05
2604.2	5.5e-05
2613.84	3.5e-05
2623.49	6.9e-05
2633.13	4e-05
2642.78	0.000107
2652.42	6.4e-05
2662.07	3.9e-05
2671.71	0.0001197
2681.36	0.0001291
2691	0.0001656
2700.65	0.0001711
2710.29	0.0001206
2719.94	0.00018979
2729.58	0.0001513
2739.23	0.0001582
2748.87	0.0001521
2758.52	0.0001608
2768.16	8.3e-05
2777.81	4.9e-05
2787.45	0.0001271
2797.1	0.0001544
2806.74	0.0001868
2816.39	0.00024882
2826.03	0.00028697
2835.68	0.0004292
2845.32	0.000608
2854.97	0.000864
2864.61	0.0011241
2874.26	0.001418
2883.9	0.001608
2893.55	0.001738
2903.19	0.001948
2912.84	0.002348
2922.48	0.003218
2932.13	0.004228
2941.77	0.004668
2951.42	0.004458
2961.06	0.003938
2970.71	0.003458
2980.35	0.002658
2990	0.001958
2999.64	0.001298
3009.29	0.0009756
3018.93	0.0008246
3028.58	0.000675
3038.22	0.0007461
3047.87	0.0005723
3057.51	0.0004471
3067.16	0.0004747
3076.8	0.0004164
3086.45	0.0003613
3096.09	0.0004108
3105.74	0.0003211
3115.38	0.00029344
3125.03	0.00028362
3134.67	0.0001847
3144.32	0.00025552
3153.96	0.00021898
3163.61	0.0001862
3173.25	0.00024197
3182.9	0.0001595
3192.54	0.0001758
3202.19	0.0001377
3211.83	0.00024123
3221.48	0.00021777
3231.12	0.00026043
3240.77	0.00019435
3250.41	0.0003663
3260.06	0.0003479
3269.7	0.0003317
3279.35	0.0003257
3289	0.0004227
3298.64	0.0003693
3308.29	0.0003728
3317.93	0.0004414
3327.58	0.0003798
3337.22	0.0004273
3346.87	0.0005344
3356.51	0.0005372
3366.16	0.0005537
3375.8	0.0005904
3385.45	0.0006103
3395.09	0.0007089
3404.74	0.0008629
3414.38	0.0010366
3424.03	0.0010681
3433.67	0.001348
3443.32	0.001398
3452.96	0.001598
3462.61	0.001948
3472.25	0.001848
3481.9	0.001498
3491.54	0.0011162
3501.19	0.0009246
3510.83	0.0007009
3520.48	0.0009105
3530.12	0.0008389
3539.77	0.0008805
3549.41	0.001278
3559.06	0.002638
3568.7	0.006918
3578.35	0.007678
3587.99	0.002928
3597.64	0.001268
3607.28	0.0007084
3616.93	0.000617
3626.57	0.0005729
3636.22	0.0005385
3645.86	0.0005908
3655.51	0.0004956
3665.15	0.0004602
3674.8	0.0004424
3684.44	0.0005016
3694.09	0.0004435
3703.73	0.0004099
3713.38	0.0003177
3723.02	0.0004582
3732.67	0.0004111
3742.31	0.000546
3751.96	0.0003194
3761.6	0.0003976
3771.25	0.0003543
3780.89	0.0003964
3790.54	0.0003952
3800.18	0.0003578
3809.83	0.0003814
3819.47	0.0005054
3829.12	0.0004766
3838.76	0.0004476
3848.41	0.0004097
3858.05	0.0003236
3867.7	0.00026842
3877.34	0.0004434
3886.99	0.0003573
3896.63	0.00027325
3906.28	0.00036
3915.92	0.0003417
3925.57	0.0002997
3935.21	0.0003747
3944.86	0.0003529
3954.5	0.00027072
3964.15	0.0003744
3973.79	0.0003604
3983.44	0.0003357
3993.08	0.000352
