Infrared Spectrum: 3-Methoxyphenylacetone
Formula: C 10 H 12 O 2
CAS: 3027-13-2
State: gas
Origin: EPA-IR VAPOR PHASE LIBRARY
1/CM	ABSORBANCE
549.8	0.006596
559.445	0.005626
569.09	0.004396
578.734	0.003296
588.379	0.002006
598.024	0.001426
607.669	0.0009253
617.313	0.0009597
626.958	0.0010463
636.603	0.001346
646.248	0.001546
655.893	0.001626
665.537	0.001676
675.182	0.003986
684.827	0.011516
694.472	0.017836
704.116	0.008786
713.761	0.003776
723.406	0.004766
733.051	0.008666
742.695	0.009506
752.34	0.008116
761.985	0.011556
771.63	0.016406
781.275	0.013116
790.919	0.007866
800.564	0.004096
810.209	0.002176
819.854	0.001476
829.498	0.001836
839.143	0.002646
848.788	0.004416
858.433	0.005826
868.078	0.006576
877.722	0.007106
887.367	0.005316
897.012	0.004066
906.657	0.003986
916.301	0.005346
925.946	0.005636
935.591	0.004006
945.236	0.002776
954.88	0.002616
964.525	0.003576
974.17	0.004286
983.815	0.005166
993.46	0.005806
1003.1	0.006126
1012.75	0.006886
1022.39	0.009566
1032.04	0.017016
1041.68	0.028326
1051.33	0.033786
1060.97	0.024976
1070.62	0.011316
1080.26	0.008556
1089.91	0.007766
1099.55	0.005996
1109.2	0.005766
1118.84	0.007136
1128.49	0.011676
1138.13	0.026356
1147.78	0.051576
1157.42	0.051376
1167.07	0.032016
1176.71	0.018576
1186.36	0.014056
1196	0.015176
1205.64	0.020496
1215.29	0.027186
1224.93	0.028456
1234.58	0.029576
1244.22	0.044886
1253.87	0.074346
1263.51	0.074736
1273.16	0.047656
1282.8	0.035886
1292.45	0.035056
1302.09	0.031886
1311.74	0.024006
1321.38	0.018536
1331.03	0.016236
1340.67	0.015616
1350.32	0.020196
1359.96	0.025756
1369.61	0.018126
1379.25	0.010066
1388.9	0.008186
1398.54	0.008466
1408.18	0.009826
1417.83	0.013486
1427.47	0.022126
1437.12	0.029946
1446.76	0.025716
1456.41	0.023066
1466.05	0.025206
1475.7	0.029946
1485.34	0.046736
1494.99	0.040256
1504.63	0.015196
1514.28	0.008396
1523.92	0.007296
1533.57	0.007136
1543.21	0.007096
1552.86	0.007896
1562.5	0.011516
1572.15	0.021516
1581.79	0.039736
1591.44	0.056896
1601.08	0.065786
1610.73	0.046086
1620.37	0.020226
1630.01	0.008806
1639.66	0.005716
1649.3	0.004656
1658.95	0.004556
1668.59	0.005256
1678.24	0.006846
1687.88	0.010056
1697.53	0.015046
1707.17	0.024186
1716.82	0.043566
1726.46	0.064856
1736.11	0.056786
1745.75	0.036986
1755.4	0.024406
1765.04	0.014796
1774.69	0.008386
1784.33	0.005016
1793.98	0.003226
1803.62	0.002526
1813.27	0.002216
1822.91	0.002146
1832.55	0.002136
1842.2	0.002156
1851.84	0.001946
1861.49	0.001596
1871.13	0.001416
1880.78	0.001446
1890.42	0.001616
1900.07	0.001756
1909.71	0.002096
1919.36	0.002336
1929	0.001916
1938.65	0.001326
1948.29	0.001256
1957.94	0.001266
1967.58	0.001266
1977.23	0.001306
1986.87	0.001396
1996.52	0.001496
2006.16	0.001446
2015.81	0.001366
2025.45	0.001416
2035.1	0.001476
2044.74	0.001656
2054.38	0.001586
2064.03	0.001596
2073.67	0.001676
2083.32	0.001506
2092.96	0.001506
2102.61	0.001356
2112.25	0.0012079
2121.9	0.0011487
2131.54	0.0011685
2141.19	0.0010863
2150.83	0.0011984
2160.48	0.001184
2170.12	0.001266
2179.77	0.001326
2189.41	0.0011988
2199.06	0.0012217
2208.7	0.0011588
2218.35	0.0010523
2227.99	0.0009673
2237.64	0.0007608
2247.28	0.0007441
2256.92	0.0007105
2266.57	0.0006333
2276.21	0.0006336
2285.86	0.0006421
2295.5	0.0005771
2305.15	0.0008255
2314.79	0.0009139
2324.44	0.0010291
2334.08	0.0010187
2343.73	0.0009614
2353.37	0.0010449
2363.02	0.0008754
2372.66	0.0008578
2382.31	0.0009494
2391.95	0.0009013
2401.6	0.000827
2411.24	0.0009832
2420.89	0.0008684
2430.53	0.0009263
2440.18	0.000849
2449.82	0.0008582
2459.47	0.0008588
2469.11	0.0007305
2478.75	0.0008295
2488.4	0.0009413
2498.04	0.0010157
2507.69	0.0010334
2517.33	0.0010775
2526.98	0.0010487
2536.62	0.0010628
2546.27	0.0011461
2555.91	0.00108
2565.56	0.0011568
2575.2	0.0010166
2584.85	0.0010656
2594.49	0.0010419
2604.14	0.0009021
2613.78	0.0009019
2623.43	0.0007912
2633.07	0.0008139
2642.72	0.0007696
2652.36	0.000843
2662.01	0.0007012
2671.65	0.0007027
2681.29	0.0008233
2690.94	0.0008218
2700.58	0.0009222
2710.23	0.0010157
2719.87	0.0009501
2729.52	0.0010286
2739.16	0.0011834
2748.81	0.0009382
2758.45	0.0012061
2768.1	0.0011177
2777.74	0.001296
2787.39	0.001576
2797.03	0.001936
2806.68	0.002456
2816.32	0.003276
2825.97	0.005056
2835.61	0.009556
2845.26	0.013496
2854.9	0.009996
2864.55	0.006616
2874.19	0.006446
2883.84	0.007636
2893.48	0.009556
2903.12	0.012086
2912.77	0.015666
2922.41	0.019186
2932.06	0.019956
2941.7	0.022336
2951.35	0.024346
2960.99	0.021326
2970.64	0.015696
2980.28	0.011416
2989.93	0.011186
2999.57	0.016106
3009.22	0.020036
3018.86	0.014676
3028.51	0.011066
3038.15	0.011146
3047.8	0.011436
3057.44	0.011876
3067.09	0.011486
3076.73	0.010666
3086.38	0.008926
3096.02	0.005976
3105.67	0.004236
3115.31	0.003136
3124.95	0.002076
3134.6	0.001406
3144.24	0.0011564
3153.89	0.0011919
3163.53	0.0010214
3173.18	0.0008509
3182.82	0.0007355
3192.47	0.0006612
3202.11	0.0006107
3211.76	0.0005052
3221.4	0.0005019
3231.05	0.0005347
3240.69	0.0006586
3250.34	0.00031943
3259.98	0.00031898
3269.63	0.000448
3279.27	0.0003907
3288.92	0.00031794
3298.56	0.0003531
3308.21	0.0003687
3317.85	0.00025723
3327.49	0.0002562
3337.14	0.0003751
3346.78	0.00026394
3356.43	0.0005603
3366.07	0.0003233
3375.72	0.0003114
3385.36	0.0006181
3395.01	0.0006952
3404.65	0.0006028
3414.3	0.0010112
3423.94	0.0010916
3433.59	0.001266
3443.23	0.001296
3452.88	0.0011531
3462.52	0.0010225
3472.17	0.0009243
3481.81	0.0005074
3491.46	0.0006296
3501.1	0.0006036
3510.75	0.0005808
3520.39	0.0004311
3530.04	0.00022908
3539.68	0.000379
3549.32	0.0004451
3558.97	0.0004345
3568.61	0.0002059
3578.26	0.00033527
3587.9	0.00029434
3597.55	0.00029546
3607.19	0.0001593
3616.84	0.00033359
3626.48	0.00027611
3636.13	0.0003248
3645.77	0.0003577
3655.42	0.0003525
3665.06	0.0003441
3674.71	0.0004056
3684.35	0.00026061
3694	0.0001969
3703.64	0.0001672
3713.29	0.0003589
3722.93	0.0004425
3732.58	0.0004388
3742.22	0.0003456
3751.86	0.0003642
3761.51	0.0003746
3771.15	0.0003873
3780.8	0.0004372
3790.44	0.0003946
3800.09	0.00030136
3809.73	0.0004146
3819.38	0.00027451
3829.02	0.0002188
3838.67	0.00027635
3848.31	9.2e-05
3857.96	0.0001638
3867.6	0.0002207
3877.25	0.0004036
3886.89	0.00032801
3896.54	0.0005112
3906.18	0.00029529
3915.83	0.0003645
3925.47	0.0005706
3935.12	0.0005026
3944.76	0.00023989
3954.41	0.0003414
3964.05	0.0004716
3973.69	0.0005048
3983.34	0.0006113
3992.98	0.0007239
