Infrared Spectrum: p-SEC-AMYLANILINE
Formula: C11 H17 N
CAS: 30273-14-4
State: SOLUTION (10% CCl4 FOR 5000-1330, 10% CS2 FOR 1330-625 CM^-^1)
Class: COBLENTZ
Instrument: Not specified, most likely a prism, grating, or hybrid spectrometer.
Sampling: TRANSMISSION
Path length: 0.0122 CM, 0.0119 CM
Resolution: 4
Origin: DOW CHEMICAL COMPANY
MICROMETERS	TRANSMITTANCE
2.034	0.896
2.07508	0.894
2.11615	0.887
2.15723	0.889
2.19831	0.889
2.23938	0.873
2.28046	0.867
2.32153	0.87
2.36261	0.872
2.40369	0.867
2.44476	0.867
2.48584	0.879
2.52692	0.889
2.56799	0.885
2.60907	0.892
2.65014	0.885
2.69122	0.887
2.7323	0.889
2.77337	0.885
2.81445	0.821
2.85553	0.691
2.8966	0.759
2.93768	0.652
2.97875	0.829
3.01983	0.844
3.06091	0.826
3.10198	0.81
3.14306	0.829
3.18414	0.804
3.22521	0.744
3.26629	0.635
3.30736	0.533
3.34844	0.24
3.38952	0.126
3.43059	0.32
3.47167	0.415
3.51275	0.747
3.55382	0.812
3.5949	0.833
3.63598	0.836
3.67705	0.843
3.71813	0.851
3.7592	0.856
3.80028	0.855
3.84136	0.858
3.88243	0.865
3.92351	0.87
3.96459	0.884
4.00566	0.885
4.04674	0.882
4.08781	0.889
4.12889	0.892
4.16997	0.892
4.21104	0.892
4.25212	0.889
4.2932	0.882
4.33427	0.879
4.37535	0.89
4.41642	0.896
4.4575	0.902
4.49858	0.902
4.53965	0.902
4.58073	0.897
4.62181	0.873
4.66288	0.867
4.70396	0.892
4.74503	0.899
4.78611	0.901
4.82719	0.902
4.86826	0.906
4.90934	0.904
4.95042	0.897
4.99149	0.899
5.03257	0.901
5.07365	0.901
5.11472	0.901
5.1558	0.896
5.19687	0.885
5.23795	0.884
5.27903	0.858
5.3201	0.838
5.36118	0.863
5.40226	0.882
5.44333	0.887
5.48441	0.89
5.52548	0.892
5.56656	0.894
5.60764	0.894
5.64871	0.882
5.68979	0.88
5.73087	0.88
5.77194	0.884
5.81302	0.873
5.85409	0.865
5.89517	0.862
5.93625	0.853
5.97732	0.833
6.0184	0.787
6.05948	0.696
6.10055	0.436
6.14163	0.11
6.1827	0.282
6.22378	0.482
6.26486	0.492
6.30593	0.49
6.34701	0.511
6.38809	0.473
6.42916	0.412
6.47024	0.398
6.51132	0.294
6.55239	0.172
6.59347	0.158
6.63454	0.429
6.67562	0.505
6.7167	0.65
6.75777	0.611
6.79885	0.463
6.83993	0.361
6.881	0.56
6.92208	0.669
6.96315	0.746
7.00423	0.797
7.04531	0.819
7.08638	0.826
7.12746	0.829
7.16854	0.798
7.20961	0.684
7.25069	0.551
7.29176	0.654
7.33284	0.632
7.37392	0.657
7.41499	0.72
7.45607	0.766
7.49715	0.79
7.53822	0.763
7.5793	0.727
7.62037	0.77
7.66145	0.599
7.70253	0.63
7.7436	0.522
7.78468	0.344
7.82576	0.241
7.86683	0.386
7.90791	0.599
7.94898	0.678
7.99006	0.737
8.03114	0.759
8.07221	0.8
8.11329	0.841
8.15437	0.851
8.19544	0.863
8.23652	0.87
8.2776	0.87
8.31867	0.862
8.35975	0.843
8.40082	0.785
8.4419	0.618
8.48298	0.678
8.52405	0.816
8.56513	0.817
8.60621	0.814
8.64728	0.804
8.68836	0.809
8.72943	0.785
8.77051	0.739
8.81159	0.749
8.85266	0.751
8.89374	0.713
8.93482	0.722
8.97589	0.759
9.01697	0.783
9.05804	0.797
9.09912	0.819
9.1402	0.822
9.18127	0.812
9.22235	0.802
9.26343	0.804
9.3045	0.821
9.34558	0.839
9.38665	0.841
9.42773	0.831
9.46881	0.821
9.50988	0.831
9.55096	0.843
9.59204	0.843
9.63311	0.839
9.67419	0.855
9.71527	0.875
9.75634	0.88
9.79742	0.879
9.83849	0.863
9.87957	0.853
9.92065	0.863
9.96172	0.863
10.0028	0.858
10.0439	0.855
10.085	0.855
10.126	0.855
10.1671	0.87
10.2082	0.892
10.2493	0.901
10.2903	0.906
10.3314	0.908
10.3725	0.909
10.4136	0.902
10.4546	0.899
10.4957	0.892
10.5368	0.882
10.5779	0.879
10.6189	0.875
10.66	0.865
10.7011	0.856
10.7422	0.839
10.7832	0.831
10.8243	0.834
10.8654	0.838
10.9065	0.843
10.9476	0.846
10.9886	0.848
11.0297	0.85
11.0708	0.853
11.1119	0.855
11.1529	0.848
11.194	0.833
11.2351	0.805
11.2762	0.78
11.3172	0.758
11.3583	0.735
11.3994	0.718
11.4405	0.703
11.4815	0.689
11.5226	0.659
11.5637	0.649
11.6048	0.63
11.6459	0.601
11.6869	0.589
11.728	0.582
11.7691	0.579
11.8102	0.584
11.8512	0.592
11.8923	0.582
11.9334	0.56
11.9745	0.514
12.0155	0.461
12.0566	0.369
12.0977	0.25
12.1388	0.16
12.1798	0.112
12.2209	0.175
12.262	0.282
12.3031	0.415
12.3441	0.533
12.3852	0.609
12.4263	0.664
12.4674	0.698
12.5085	0.717
12.5495	0.73
12.5906	0.741
12.6317	0.742
12.6728	0.735
12.7138	0.722
12.7549	0.696
12.796	0.671
12.8371	0.637
12.8781	0.632
12.9192	0.647
12.9603	0.667
13.0014	0.681
13.0424	0.686
13.0835	0.688
13.1246	0.684
13.1657	0.674
13.2067	0.645
13.2478	0.603
13.2889	0.538
13.33	0.478
13.3711	0.41
13.4121	0.373
13.4532	0.374
13.4943	0.458
13.5354	0.521
13.5764	0.567
13.6175	0.599
13.6586	0.611
13.6997	0.618
13.7407	0.62
13.7818	0.628
13.8229	0.637
13.864	0.642
13.905	0.64
13.9461	0.63
13.9872	0.616
14.0283	0.604
14.0694	0.596
14.1104	0.589
14.1515	0.575
14.1926	0.565
14.2337	0.533
14.2747	0.511
14.3158	0.502
14.3569	0.502
14.398	0.511
14.439	0.517
14.4801	0.507
14.5212	0.502
14.5623	0.497
14.6033	0.492
14.6444	0.485
14.6855	0.478
14.7266	0.47
14.7676	0.465
14.8087	0.456
14.8498	0.449
14.8909	0.442
14.932	0.437
14.973	0.432
15.0141	0.425
15.0552	0.415
15.0963	0.405
15.1373	0.396
15.1784	0.388
15.2195	0.379
15.2606	0.373
15.3016	0.369
15.3427	0.366
15.3838	0.362
15.4249	0.361
15.4659	0.356
15.507	0.354
15.5481	0.35
15.5892	0.349
15.6303	0.349
15.6713	0.35
15.7124	0.354
15.7535	0.356
15.7946	0.361
15.8356	0.362
15.8767	0.361
