Infrared Spectrum: ANILINE, p-sec-BUTYL-
Formula: C10 H15 N
CAS: 30273-11-1
State: LIQUID (NEAT)
Class: COBLENTZ III
Instrument: BECKMAN IR-4 (HYBRID PRISM-GRATING)
Instrument parameters: NaCl PRISM
Sampling: TRANSMISSION
Path length: CAPILLARY
Resolution: 2
Origin: MONSANTO (J. FREEMAN)
1/CM	TRANSMITTANCE
3921.57	0.9151
3912.78	0.9159
3903.99	0.9166
3895.2	0.9174
3886.42	0.9182
3877.63	0.9189
3868.84	0.9196
3860.05	0.9203
3851.26	0.9209
3842.47	0.9215
3833.68	0.922
3824.89	0.9225
3816.11	0.9232
3807.32	0.9237
3798.53	0.9241
3789.74	0.9241
3780.95	0.9241
3772.16	0.9242
3763.37	0.9242
3754.59	0.9243
3745.8	0.9241
3737.01	0.9239
3728.22	0.9236
3719.43	0.9235
3710.64	0.9232
3701.85	0.9231
3693.07	0.9228
3684.28	0.9224
3675.49	0.9221
3666.7	0.9217
3657.91	0.9214
3649.12	0.921
3640.33	0.9206
3631.54	0.9203
3622.76	0.9198
3613.97	0.9191
3605.18	0.9185
3596.39	0.9178
3587.6	0.9173
3578.81	0.9167
3570.02	0.9159
3561.24	0.9144
3552.45	0.9127
3543.66	0.9111
3534.87	0.9092
3526.08	0.9069
3517.29	0.9047
3508.5	0.9023
3499.71	0.8985
3490.93	0.8934
3482.14	0.8865
3473.35	0.8757
3464.56	0.8575
3455.77	0.8362
3446.98	0.7357
3438.19	0.6874
3429.41	0.6444
3420.62	0.6371
3411.83	0.6414
3403.04	0.6457
3394.25	0.6476
3385.46	0.6388
3376.67	0.6119
3367.89	0.5846
3359.1	0.5571
3350.31	0.5298
3341.52	0.5253
3332.73	0.5331
3323.94	0.5639
3315.15	0.5963
3306.36	0.6288
3297.58	0.6615
3288.79	0.6944
3280	0.7274
3271.21	0.7606
3262.42	0.7923
3253.63	0.7955
3244.84	0.79
3236.06	0.7753
3227.27	0.7604
3218.48	0.7456
3209.69	0.7401
3200.9	0.7506
3192.11	0.7693
3183.32	0.7882
3174.53	0.8071
3165.75	0.8262
3156.96	0.8454
3148.17	0.8607
3139.38	0.8682
3130.59	0.8727
3121.8	0.8745
3113.01	0.8755
3104.23	0.8762
3095.44	0.8749
3086.65	0.8703
3077.86	0.8653
3069.07	0.859
3060.28	0.849
3051.49	0.8019
3042.71	0.7443
3033.92	0.6864
3025.13	0.6342
3016.34	0.6291
3007.55	0.6272
2998.76	0.6229
2989.97	0.6133
2981.18	0.4717
2972.4	0.2634
2963.61	0.2366
2954.82	0.2965
2946.03	0.3547
2937.24	0.3529
2928.45	0.3458
2919.66	0.3595
2910.88	0.399
2902.09	0.4389
2893.3	0.479
2884.51	0.4733
2875.72	0.4469
2866.93	0.4457
2858.14	0.5774
2849.35	0.7251
2840.57	0.793
2831.78	0.8283
2822.99	0.8584
2814.2	0.877
2805.41	0.8911
2796.62	0.9033
2787.83	0.9123
2779.05	0.9189
2770.26	0.9214
2761.47	0.9225
2752.68	0.9227
2743.89	0.9215
2735.1	0.9203
2726.31	0.9196
2717.53	0.9198
2708.74	0.92
2699.95	0.9206
2691.16	0.9218
2682.37	0.9231
2673.58	0.9245
2664.79	0.9258
2656	0.9274
2647.22	0.929
2638.43	0.9305
2629.64	0.9313
2620.85	0.932
2612.06	0.9328
2603.27	0.9336
2594.48	0.9343
2585.7	0.9354
2576.91	0.9367
2568.12	0.938
2559.33	0.9394
2550.54	0.9407
2541.75	0.9422
2532.96	0.9439
2524.17	0.9455
2515.39	0.9469
2506.6	0.9483
2497.81	0.9496
2489.02	0.951
2480.23	0.9521
2471.44	0.9521
2462.65	0.9521
2453.87	0.9518
2445.08	0.9515
2436.29	0.9513
2427.5	0.951
2418.71	0.9507
2409.92	0.9503
2401.13	0.9498
2392.35	0.9493
2383.56	0.9494
2374.77	0.9495
2365.98	0.9496
2357.19	0.9497
2348.4	0.9503
2339.61	0.9511
2330.82	0.9518
2322.04	0.9525
2313.25	0.9533
2304.46	0.9541
2295.67	0.9551
2286.88	0.9564
2278.09	0.9577
2269.3	0.959
2260.52	0.9603
2251.73	0.961
2242.94	0.9616
2234.15	0.962
2225.36	0.9625
2216.57	0.9628
2207.78	0.963
2198.99	0.963
2190.21	0.9628
2181.42	0.9628
2172.63	0.9628
2163.84	0.9628
2155.05	0.9628
2146.26	0.9632
2137.47	0.9634
2128.69	0.9638
2119.9	0.9641
2111.11	0.9645
2102.32	0.9648
2093.53	0.9651
2084.74	0.9654
2075.95	0.9656
2067.16	0.9659
2058.38	0.9661
2049.59	0.9663
2040.8	0.9663
2032.01	0.9664
2023.22	0.9665
2014.43	0.9665
2005.64	0.9665
1996.86	0.9665
1988.07	0.9665
1979.28	0.9664
1970.49	0.966
1961.7	0.9658
1952.91	0.9655
1944.12	0.9644
1935.34	0.9633
1926.55	0.9615
1917.76	0.9584
1908.97	0.9545
1900.18	0.9478
1891.39	0.9353
1882.6	0.9057
1873.81	0.9072
1865.03	0.9266
1856.24	0.9406
1847.45	0.9531
1838.66	0.9603
1829.87	0.9645
1821.08	0.9666
1812.29	0.9687
1803.51	0.9708
1794.72	0.9725
1785.93	0.9731
1777.14	0.9711
1768.35	0.9652
1759.56	0.9639
1750.77	0.967
1741.98	0.9723
1733.2	0.9758
1724.41	0.9763
1715.62	0.9748
1706.83	0.9714
1698.04	0.9634
1689.25	0.9529
1680.46	0.9397
1671.68	0.9184
1662.89	0.8812
1654.1	0.8206
1645.31	0.6191
1636.52	0.4065
1627.73	0.2044
1618.94	0.2945
1610.16	0.4825
1601.37	0.6726
1592.58	0.8001
1583.79	0.8135
1575	0.8399
1566.21	0.8818
1557.42	0.8942
1548.63	0.8862
1539.85	0.8524
1531.06	0.7516
1522.27	0.1119
1513.48	0.2858
1504.69	0.6238
1495.9	0.7923
1487.11	0.8179
1478.33	0.8182
1469.54	0.734
1460.75	0.5378
1451.96	0.5111
1443.17	0.6835
1434.38	0.7404
1425.59	0.8476
1416.8	0.9008
1408.02	0.9138
1399.23	0.9183
1390.44	0.9128
1381.65	0.7652
1372.86	0.682
1364.07	0.821
1355.28	0.8001
1346.5	0.8363
1337.71	0.8856
1328.92	0.9016
1320.13	0.8277
1311.34	0.8498
1302.55	0.7361
1293.76	0.6797
1284.98	0.5253
1276.19	0.3795
1267.4	0.4068
1258.61	0.5281
1249.82	0.6797
1241.03	0.768
1232.24	0.85
1223.45	0.9036
1214.67	0.9221
1205.88	0.9188
1197.09	0.9301
1188.3	0.894
1179.51	0.5584
1170.72	0.8569
1161.93	0.9182
1153.15	0.929
1144.36	0.8535
1135.57	0.8663
1126.78	0.8404
1117.99	0.8353
1109.2	0.8901
1100.41	0.8892
1091.62	0.8612
1082.84	0.8624
1074.05	0.8878
1065.26	0.9006
1056.47	0.8814
1047.68	0.8991
1038.89	0.9417
1030.1	0.9494
1021.32	0.9282
1012.53	0.8579
1003.74	0.8978
994.95	0.8423
986.161	0.9059
977.372	0.9348
968.584	0.9281
959.795	0.8923
951.007	0.8659
942.218	0.9188
933.429	0.9204
924.641	0.9192
915.852	0.923
907.063	0.9197
898.275	0.9129
889.486	0.8978
880.697	0.8789
871.909	0.8561
863.12	0.8216
854.331	0.7499
845.543	0.6672
836.754	0.5048
827.965	0.325
819.177	0.2924
810.388	0.5312
801.599	0.6895
792.811	0.7387
784.022	0.7398
775.234	0.7434
766.445	0.7505
757.656	0.7257
748.868	0.6895
740.079	0.6835
731.29	0.7053
722.502	0.739
713.713	0.7021
704.924	0.6757
696.136	0.6657
687.347	0.5768
678.558	0.5558
669.77	0.5424
660.981	0.5413
652.192	0.5259
643.404	0.509
634.615	0.5162
