Infrared Spectrum: DIMETHOXYMETHYLPHENYLSILANE
Formula: C9 H14 O2 Si
CAS: 3027-21-2
State: LIQUID (NEAT)
Boiling point: 129 C AT 79 mmHg
Class: COBLENTZ
Instrument: BECKMAN IR-4 (HYBRID PRISM-GRATING)
Sampling: TRANSMISSION
Path length: CAPILLARY CELL
Resolution: 4
Origin: ALDRICH CHEMICAL COMPANY, MILWAUKEE, WIS.
MICROMETERS	TRANSMITTANCE
2.015	0.898
2.04999	0.9
2.08497	0.898
2.11996	0.901
2.15495	0.896
2.18993	0.877
2.22492	0.895
2.25991	0.897
2.29489	0.892
2.32988	0.892
2.36487	0.888
2.39985	0.87
2.43484	0.886
2.46983	0.891
2.50481	0.897
2.5398	0.9
2.57478	0.893
2.60977	0.881
2.64476	0.877
2.67974	0.87
2.71473	0.865
2.74972	0.857
2.7847	0.845
2.81969	0.837
2.85468	0.828
2.88966	0.82
2.92465	0.827
2.95964	0.843
2.99462	0.851
3.02961	0.856
3.0646	0.86
3.09958	0.86
3.13457	0.85
3.16956	0.82
3.20454	0.744
3.23953	0.576
3.27452	0.584
3.3095	0.496
3.34449	0.347
3.37948	0.342
3.41446	0.498
3.44945	0.659
3.48443	0.518
3.51942	0.629
3.55441	0.856
3.58939	0.887
3.62438	0.895
3.65937	0.898
3.69435	0.902
3.72934	0.896
3.76433	0.896
3.79931	0.9
3.8343	0.905
3.86929	0.911
3.90427	0.915
3.93926	0.916
3.97425	0.918
4.00923	0.921
4.04422	0.923
4.07921	0.926
4.11419	0.926
4.14918	0.917
4.18417	0.915
4.21915	0.926
4.25414	0.931
4.28913	0.933
4.32411	0.935
4.3591	0.928
4.39408	0.928
4.42907	0.921
4.46406	0.921
4.49904	0.922
4.53403	0.917
4.56902	0.91
4.604	0.905
4.63899	0.906
4.67398	0.912
4.70896	0.918
4.74395	0.925
4.77894	0.926
4.81392	0.925
4.84891	0.923
4.8839	0.917
4.91888	0.916
4.95387	0.92
4.98886	0.912
5.02384	0.898
5.05883	0.885
5.09382	0.9
5.1288	0.916
5.16379	0.895
5.19877	0.875
5.23376	0.862
5.26875	0.878
5.30373	0.903
5.33872	0.92
5.37371	0.901
5.40869	0.882
5.44368	0.87
5.47867	0.893
5.51365	0.913
5.54864	0.925
5.58363	0.91
5.61861	0.925
5.6536	0.927
5.68859	0.921
5.72357	0.918
5.75856	0.917
5.79355	0.927
5.82853	0.918
5.86352	0.932
5.89851	0.927
5.93349	0.918
5.96848	0.912
6.00347	0.9
6.03845	0.912
6.07344	0.91
6.10843	0.905
6.14341	0.896
6.1784	0.898
6.21338	0.866
6.24837	0.767
6.28336	0.806
6.31834	0.877
6.35333	0.872
6.38832	0.886
6.4233	0.875
6.45829	0.872
6.49328	0.873
6.52826	0.867
6.56325	0.862
6.59824	0.853
6.63322	0.835
6.66821	0.802
6.7032	0.781
6.73818	0.75
6.77317	0.704
6.80816	0.694
6.84314	0.724
6.87813	0.752
6.91312	0.769
6.9481	0.57
6.98309	0.555
7.01807	0.781
7.05306	0.789
7.08805	0.757
7.12303	0.794
7.15802	0.842
7.19301	0.855
7.22799	0.852
7.26298	0.885
7.29797	0.891
7.33295	0.901
7.36794	0.898
7.40293	0.9
7.43791	0.905
7.4729	0.88
7.50789	0.842
7.54287	0.856
7.57786	0.873
7.61285	0.846
7.64783	0.846
7.68282	0.871
7.71781	0.858
7.75279	0.838
7.78778	0.806
7.82277	0.754
7.85775	0.585
7.89274	0.343
7.92773	0.289
7.96271	0.431
7.9977	0.64
8.03268	0.732
8.06767	0.756
8.10266	0.76
8.13764	0.739
8.17263	0.705
8.20762	0.646
8.2426	0.584
8.27759	0.49
8.31258	0.382
8.34756	0.292
8.38255	0.263
8.41754	0.279
8.45252	0.338
8.48751	0.399
8.5225	0.468
8.55748	0.506
8.59247	0.516
8.62746	0.498
8.66244	0.481
8.69743	0.456
8.73242	0.435
8.7674	0.398
8.80239	0.337
8.83737	0.272
8.87236	0.198
8.90735	0.158
8.94233	0.189
8.97732	0.207
9.01231	0.203
9.04729	0.173
9.08228	0.156
9.11727	0.142
9.15225	0.129
9.18724	0.124
9.22223	0.122
9.25721	0.121
9.2922	0.132
9.32719	0.152
9.36217	0.191
9.39716	0.232
9.43215	0.29
9.46713	0.372
9.50212	0.444
9.53711	0.509
9.57209	0.565
9.60708	0.611
9.64207	0.651
9.67705	0.665
9.71204	0.65
9.74702	0.715
9.78201	0.752
9.817	0.772
9.85198	0.8
9.88697	0.821
9.92196	0.84
9.95694	0.84
9.99193	0.764
10.0269	0.769
10.0619	0.865
10.0969	0.891
10.1319	0.898
10.1669	0.905
10.2019	0.911
10.2368	0.915
10.2718	0.918
10.3068	0.92
10.3418	0.928
10.3768	0.931
10.4118	0.938
10.4468	0.941
10.4817	0.947
10.5167	0.948
10.5517	0.952
10.5867	0.952
10.6217	0.95
10.6567	0.95
10.6917	0.945
10.7266	0.94
10.7616	0.928
10.7966	0.92
10.8316	0.908
10.8666	0.903
10.9016	0.898
10.9366	0.888
10.9716	0.878
11.0065	0.872
11.0415	0.861
11.0765	0.851
11.1115	0.845
11.1465	0.838
11.1815	0.837
11.2165	0.836
11.2514	0.832
11.2864	0.828
11.3214	0.821
11.3564	0.81
11.3914	0.802
11.4264	0.79
11.4614	0.772
11.4964	0.76
11.5313	0.739
11.5663	0.711
11.6013	0.672
11.6363	0.627
11.6713	0.581
11.7063	0.534
11.7413	0.466
11.7762	0.389
11.8112	0.303
11.8462	0.245
11.8812	0.202
11.9162	0.183
11.9512	0.177
11.9862	0.179
12.0212	0.193
12.0561	0.21
12.0911	0.248
12.1261	0.279
12.1611	0.309
12.1961	0.328
12.2311	0.322
12.2661	0.298
12.301	0.26
12.336	0.215
12.371	0.187
12.406	0.161
12.441	0.154
12.476	0.173
12.511	0.196
12.5459	0.24
12.5809	0.293
12.6159	0.35
12.6509	0.388
12.6859	0.398
12.7209	0.384
12.7559	0.357
12.7909	0.313
12.8258	0.259
12.8608	0.208
12.8958	0.183
12.9308	0.181
12.9658	0.178
13.0008	0.194
13.0358	0.218
13.0707	0.254
13.1057	0.329
13.1407	0.392
13.1757	0.459
13.2107	0.511
13.2457	0.546
13.2807	0.56
13.3157	0.545
13.3506	0.503
13.3856	0.43
13.4206	0.335
13.4556	0.247
13.4906	0.197
13.5256	0.172
13.5606	0.187
13.5955	0.21
13.6305	0.272
13.6655	0.343
13.7005	0.415
13.7355	0.473
13.7705	0.51
13.8055	0.549
13.8405	0.568
13.8754	0.576
13.9104	0.569
13.9454	0.544
13.9804	0.503
14.0154	0.439
14.0504	0.37
14.0854	0.309
14.1203	0.273
14.1553	0.262
14.1903	0.243
14.2253	0.229
14.2603	0.214
14.2953	0.209
14.3303	0.24
14.3652	0.304
14.4002	0.383
14.4352	0.515
14.4702	0.589
14.5052	0.641
14.5402	0.677
14.5752	0.699
14.6102	0.702
14.6451	0.715
14.6801	0.716
14.7151	0.711
14.7501	0.706
14.7851	0.697
14.8201	0.681
14.8551	0.672
14.89	0.652
14.925	0.64
14.96	0.636
14.995	0.632
