Infrared Spectrum: 3-Nitro-1,8-Naphthalic anhydride
Formula: C 12 H 5 N O 5
CAS: 3027-38-1
State: gas
Origin: EPA-IR VAPOR PHASE LIBRARY
1/CM	ABSORBANCE
549.8	0.0005952
559.445	0.000457
569.09	0.000276
578.734	0.000373
588.379	0.0008864
598.024	0.00069157
607.669	0.00068344
617.313	0.0008875
626.958	0.000736
636.603	0.00072937
646.248	0.000659517
655.893	0.0006
665.537	0.0008908
675.182	0.0012383
684.827	0.00123
694.472	0.00195
704.116	0.00275
713.761	0.00224
723.406	0.0012873
733.051	0.0005559
742.695	0.0013943
752.34	0.0025
761.985	0.00182
771.63	0.00209
781.275	0.00538
790.919	0.00296
800.564	0.00382
810.209	0.0011622
819.854	0.00066051
829.498	0.000547
839.143	0.0009786
848.788	0.000601
858.433	0.000575
868.078	0.0007878
877.722	0.0005721
887.367	0.0006273
897.012	0.0009903
906.657	0.00183
916.301	0.0015497
925.946	0.001313
935.591	0.0009189
945.236	0.0008698
954.88	0.0009724
964.525	0.000893
974.17	0.001314
983.815	0.0015879
993.46	0.00207
1003.1	0.00434
1012.75	0.01009
1022.39	0.01169
1032.04	0.00889
1041.68	0.01091
1051.33	0.00386
1060.97	0.00181
1070.62	0.00295
1080.26	0.00569
1089.91	0.00218
1099.55	0.0009404
1109.2	0.0008285
1118.84	0.00177
1128.49	0.00469
1138.13	0.00839
1147.78	0.00682
1157.42	0.00174
1167.07	0.00172
1176.71	0.0038
1186.36	0.00279
1196	0.00179
1205.64	0.0014998
1215.29	0.00194
1224.93	0.00394
1234.58	0.00357
1244.22	0.00225
1253.87	0.00215
1263.51	0.00255
1273.16	0.00406
1282.8	0.01155
1292.45	0.01154
1302.09	0.00405
1311.74	0.00276
1321.38	0.00317
1331.03	0.00555
1340.67	0.01069
1350.32	0.00842
1359.96	0.0047
1369.61	0.00346
1379.25	0.00214
1388.9	0.00175
1398.54	0.00234
1408.18	0.00246
1417.83	0.00301
1427.47	0.00223
1437.12	0.0014161
1446.76	0.0013355
1456.41	0.0014587
1466.05	0.0013706
1475.7	0.001274
1485.34	0.0013709
1494.99	0.00183
1504.63	0.00258
1514.28	0.00292
1523.92	0.00187
1533.57	0.00177
1543.21	0.00349
1552.86	0.00847
1562.5	0.00673
1572.15	0.00213
1581.79	0.00286
1591.44	0.00669
1601.08	0.00729
1610.73	0.00299
1620.37	0.00175
1630.01	0.00181
1639.66	0.00175
1649.3	0.0013375
1658.95	0.0011904
1668.59	0.001114
1678.24	0.0011539
1687.88	0.0013197
1697.53	0.0012397
1707.17	0.0013709
1716.82	0.00168
1726.46	0.00188
1736.11	0.00232
1745.75	0.00316
1755.4	0.00519
1765.04	0.02239
1774.69	0.0276
1784.33	0.00707
1793.98	0.01327
1803.62	0.02199
1813.27	0.01076
1822.91	0.00542
1832.55	0.00305
1842.2	0.00198
1851.84	0.0015762
1861.49	0.001295
1871.13	0.0012053
1880.78	0.0010893
1890.42	0.000919
1900.07	0.0008307
1909.71	0.0008852
1919.36	0.0009844
1929	0.0009881
1938.65	0.0008449
1948.29	0.000824
1957.94	0.0008668
1967.58	0.0009153
1977.23	0.0008175
1986.87	0.0008017
1996.52	0.0007581
2006.16	0.0007378
2015.81	0.0007434
2025.45	0.00066404
2035.1	0.0007632
2044.74	0.00064722
2054.38	0.0008118
2064.03	0.00067491
2073.67	0.0007547
2083.32	0.00067213
2092.96	0.00071759
2102.61	0.00072008
2112.25	0.00068752
2121.9	0.00068115
2131.54	0.00071842
2141.19	0.00072537
2150.83	0.0007711
2160.48	0.0008381
2170.12	0.0007506
2179.77	0.0007347
2189.41	0.0007723
2199.06	0.0008031
2208.7	0.00074558
2218.35	0.00067657
2227.99	0.00074576
2237.64	0.0007559
2247.28	0.000762
2256.92	0.00074782
2266.57	0.0008421
2276.21	0.0007842
2285.86	0.0008081
2295.5	0.0007533
2305.15	0.0007635
2314.79	0.0007703
2324.44	0.00070762
2334.08	0.00071103
2343.73	0.0007346
2353.37	0.00073233
2363.02	0.00073116
2372.66	0.00074071
2382.31	0.00067679
2391.95	0.00072064
2401.6	0.0008575
2411.24	0.0008088
2420.89	0.000654908
2430.53	0.0007859
2440.18	0.00064804
2449.82	0.000655144
2459.47	0.0005811
2469.11	0.000809
2478.75	0.0006845
2488.4	0.00070378
2498.04	0.00071769
2507.69	0.0005971
2517.33	0.0006846
2526.98	0.0005901
2536.62	0.00067089
2546.27	0.0007985
2555.91	0.00071877
2565.56	0.00068847
2575.2	0.000656901
2584.85	0.00073663
2594.49	0.00071113
2604.14	0.00070479
2613.78	0.00067326
2623.43	0.0007808
2633.07	0.00074539
2642.72	0.00073942
2652.36	0.00071185
2662.01	0.0007652
2671.65	0.00071688
2681.29	0.00073436
2690.94	0.0007914
2700.58	0.00072344
2710.23	0.0007555
2719.87	0.00073459
2729.52	0.00068213
2739.16	0.00071864
2748.81	0.00066816
2758.45	0.0007363
2768.1	0.00072767
2777.74	0.00064891
2787.39	0.00071971
2797.03	0.00066223
2806.68	0.00070443
2816.32	0.0006132
2825.97	0.00071138
2835.61	0.00071776
2845.26	0.0008272
2854.9	0.0007518
2864.55	0.0007735
2874.19	0.0008042
2883.84	0.0007595
2893.48	0.00074422
2903.12	0.0008236
2912.77	0.0007815
2922.41	0.00068129
2932.06	0.0007595
2941.7	0.00070116
2951.35	0.0008486
2960.99	0.0007914
2970.64	0.000507
2980.28	0.00072069
2989.93	0.00064227
2999.57	0.0007519
3009.22	0.00071254
3018.86	0.000657537
3028.51	0.0008834
3038.15	0.0008875
3047.8	0.0006278
3057.44	0.0008064
3067.09	0.0010304
3076.73	0.0010746
3086.38	0.0014814
3096.02	0.0013507
3105.67	0.0011314
3115.31	0.00067992
3124.95	0.000495
3134.6	0.000654923
3144.24	0.0005958
3153.89	0.000449
3163.53	0.00068656
3173.18	0.000396
3182.82	0.00066117
3192.47	0.0008327
3202.11	0.000513
3211.76	0.000434
3221.4	0.000546
3231.05	0.0006008
3240.69	0.00064453
3250.34	0.0006227
3259.98	0.0005757
3269.63	0.000511
3279.27	0.00034
3288.92	0.000329
3298.56	0.00069135
3308.21	0.000423
3317.85	0.0006068
3327.49	0.00066241
3337.14	0.0006082
3346.78	0.0006197
3356.43	0.0005534
3366.07	0.000345
3375.72	0.000237
3385.36	0.000462
3395.01	0.000418
3404.65	0.0006161
3414.3	0.000494
3423.94	0.0006396
3433.59	0.000299
3443.23	0.0005874
3452.88	0.000496
3462.52	0.000324
3472.17	0.000656656
3481.81	0.00049
3491.46	0.000482
3501.1	0.00066451
3510.75	0.000479
3520.39	0.00064995
3530.04	0.00069897
3539.68	0.0005972
3549.32	0.00073151
3558.97	0.0008201
3568.61	0.00047
3578.26	0.00067179
3587.9	0.000483
3597.55	0.00066547
3607.19	0.0005668
3616.84	0.0005536
3626.48	0.0005906
3636.13	0.0005589
3645.77	0.000355
3655.42	0.000437
3665.06	0.000375
3674.71	0.0005
3684.35	0.000495
3694	0.00028
3703.64	0.000237
3713.29	0.000352
3722.93	0.000271
3732.58	0.00021
3742.22	0.000527
3751.86	0.00038
3761.51	0.00025
3771.15	0.000452
3780.8	0.0006243
3790.44	0.000345
3800.09	0.000361
3809.73	0.000426
3819.38	0.000548
3829.02	0.000332
3838.67	0.000408
3848.31	0.00028
3857.96	0.000196
3867.6	0.000204
3877.25	0.000333
3886.89	0.000381
3896.54	0.00035
3906.18	0.000274
3915.83	0.000461
3925.47	0.00045
3935.12	0.00023
3944.76	0.000384
3954.41	0.000381
3964.05	0.00031
3973.69	0.000168
3983.34	0.000273
3992.98	7.7e-05
