Infrared Spectrum: 1-Pyrenecarboxaldehyde
Formula: C 17 H 10 O
CAS: 3029-19-4
State: gas
Instrument: HP-GC/MS/IRD
Origin: NIST Mass Spectrometry Data Center
1/CM	ABSORBANCE
550	0.0001308
562	5.04e-05
574	0.0002652
586	0.000384
598	0.0003468
610	0.0003984
622	0.0001704
634	0.0001308
646	6.72e-05
658	0.0002292
670	0.00027
682	0.0004752
694	0.0004992
706	0.0017088
718	0.0016032
730	0.0003336
742	0.0004404
754	0.0011688
766	0.0009108
778	0.001086
790	0.0006888
802	0.0002472
814	0.0006612
826	0.0009948
838	0.0028284
850	0.0045876
862	0.000888
874	0.0006348
886	0.0005532
898	0.0014088
910	0.0006708
922	0.00024
934	0.0001752
946	0.0001872
958	0.0001404
970	0.0001716
982	6.12e-05
994	8.52e-05
1006	8.52e-05
1018	8.04e-05
1030	0.0001248
1042	0.0002232
1054	0.000798
1066	0.0007164
1078	0.0002004
1090	0.0002184
1102	0.0006204
1114	0.0003852
1126	0.00012
1138	0.0002856
1150	0.0001656
1162	0.0003324
1174	0.0007908
1186	0.0009312
1198	0.001386
1210	0.001752
1222	0.0017496
1234	0.0009636
1246	0.000552
1258	0.0001608
1270	0.0001056
1282	0.0001164
1294	0.0002016
1306	0.0003408
1318	0.0002748
1330	0.0001944
1342	0.0001764
1354	0.0003708
1366	0.0007344
1378	0.0010968
1390	0.0005808
1402	0.0002712
1414	0.0002616
1426	0.0001416
1438	0.0001572
1450	0.0002028
1462	0.000222
1474	0.0002496
1486	0.000468
1498	0.000954
1510	0.00138
1522	0.000384
1534	0.0004416
1546	0.0005124
1558	0.0003312
1570	0.0006132
1582	0.0015636
1594	0.002346
1606	0.0012552
1618	0.0007596
1630	0.0007068
1642	0.000618
1654	0.00051
1666	0.0005856
1678	0.0008976
1690	0.0023124
1702	0.0103416
1714	0.008442
1726	0.00114
1738	0.0004992
1750	0.0004704
1762	0.0003576
1774	0.0002784
1786	0.000312
1798	0.0004164
1810	0.000198
1822	0.0001308
1834	8.52e-05
1846	0.0001284
1858	0.000144
1870	0.0001428
1882	0.0001692
1894	0.0001596
1906	0.0001884
1918	0.0002904
1930	0.000264
1942	0.0001392
1954	0.0001116
1966	7.2e-05
1978	5.28e-05
1990	6.84e-05
2002	5.28e-05
2014	5.4e-05
2026	5.28e-05
2038	6.96e-05
2050	5.4e-05
2062	7.08e-05
2074	6.72e-05
2086	8.04e-05
2098	9e-05
2110	8.04e-05
2122	6.24e-05
2134	5.88e-05
2146	6.72e-05
2158	6.24e-05
2170	6.24e-05
2182	6.96e-05
2194	6.96e-05
2206	6.6e-05
2218	5.52e-05
2230	6.6e-05
2242	6.48e-05
2254	7.44e-05
2266	9.12e-05
2278	8.16e-05
2290	8.64e-05
2302	5.52e-05
2314	9.24e-05
2326	7.68e-05
2338	5.52e-05
2350	7.92e-05
2362	9.72e-05
2374	7.32e-05
2386	6e-05
2398	6e-05
2410	3.48e-05
2422	5.28e-05
2434	4.56e-05
2446	4.32e-05
2458	5.28e-05
2470	3.6e-05
2482	5.76e-05
2494	6.84e-05
2506	5.52e-05
2518	4.2e-05
2530	4.44e-05
2542	5.64e-05
2554	4.92e-05
2566	6.96e-05
2578	6.48e-05
2590	8.04e-05
2602	9.6e-05
2614	8.52e-05
2626	9.48e-05
2638	0.0001056
2650	0.000114
2662	0.0001644
2674	0.0001692
2686	0.0002484
2698	0.0005916
2710	0.0014148
2722	0.0019032
2734	0.00138
2746	0.000726
2758	0.0005052
2770	0.0004524
2782	0.000456
2794	0.0004464
2806	0.0003936
2818	0.000456
2830	0.0006336
2842	0.0008952
2854	0.0007836
2866	0.000384
2878	0.000156
2890	0.0001068
2902	0.0001452
2914	0.0001692
2926	0.0001344
2938	0.0001464
2950	0.0001908
2962	0.0001944
2974	0.0001536
2986	0.0002028
2998	0.0002184
3010	0.000276
3022	0.0004428
3034	0.0010608
3046	0.0024792
3058	0.0025728
3070	0.00108
3082	0.0007656
3094	0.000546
3106	0.0004056
3118	0.0002772
3130	0.00015
3142	0.0001428
3154	0.000114
3166	0.0001092
3178	6.84e-05
3190	5.16e-05
3202	0.0001044
3214	7.68e-05
3226	6.84e-05
3238	4.8e-05
3250	5.88e-05
3262	2.04e-05
3274	6.36e-05
3286	3.24e-05
3298	8.28e-05
3310	4.56e-05
3322	9.84e-05
3334	5.04e-05
3346	7.08e-05
3358	7.92e-05
3370	0.0001344
3382	0.00018
3394	0.0002064
3406	0.000114
3418	0.0001056
3430	5.52e-05
3442	8.64e-05
3454	4.92e-05
3466	5.76e-05
3478	4.32e-05
3490	4.56e-05
3502	5.64e-05
3514	7.44e-05
3526	0.0001248
3538	5.64e-05
3550	6.24e-05
3562	0.0001116
3574	6.72e-05
3586	6.96e-05
3598	2.4e-05
3610	0.0001044
3622	9.96e-05
3634	9.6e-05
3646	8.88e-05
3658	2.76e-05
3670	0.0001056
3682	9.84e-05
3694	9.84e-05
3706	6.96e-05
3718	3.6e-05
3730	0.0001224
3742	0.0002004
3754	0.0001464
3766	0.00012
3778	0.0001104
3790	4.8e-05
3802	0.0001068
3814	0.00018
3826	0.0001212
3838	0.0001296
