Infrared Spectrum: 3-Methylcinnamic acid
Formula: C 10 H 10 O 2
CAS: 3029-79-6
State: gas
Origin: EPA-IR VAPOR PHASE LIBRARY
1/CM	ABSORBANCE
549.8	0.0007124
559.445	0.001236
569.09	0.002166
578.735	0.001946
588.38	0.0009885
598.025	0.0005361
607.67	0.0003247
617.315	0.0003535
626.96	0.000235349
636.605	0.000415
646.251	0.0004821
655.896	0.0006613
665.541	0.0006727
675.186	0.000787
684.831	0.0008525
694.476	0.0006923
704.121	0.0004313
713.766	0.0003548
723.411	0.0003357
733.056	0.00023092
742.701	0.0003382
752.346	0.0004201
761.991	0.000417
771.636	0.0006927
781.281	0.0010469
790.926	0.0008647
800.571	0.0003669
810.216	0.000244863
819.861	0.0002016
829.507	0.00024622
839.152	0.0003457
848.797	0.00030373
858.442	0.0005703
868.087	0.0004119
877.732	0.0004167
887.377	0.000446
897.022	0.0004826
906.667	0.0004538
916.312	0.00032077
925.957	0.0003522
935.602	0.0004183
945.247	0.0004636
954.892	0.0004352
964.537	0.000643
974.182	0.0009945
983.827	0.0010494
993.472	0.0007183
1003.12	0.0004251
1012.76	0.0004424
1022.41	0.00029652
1032.05	0.0002224
1041.7	0.0004203
1051.34	0.0004042
1060.99	0.0005345
1070.63	0.000496
1080.28	0.0007428
1089.92	0.0011126
1099.57	0.001876
1109.21	0.004546
1118.86	0.006216
1128.5	0.003306
1138.15	0.002186
1147.79	0.002836
1157.44	0.003196
1167.08	0.001636
1176.73	0.0007037
1186.37	0.0006218
1196.02	0.0005145
1205.66	0.0005293
1215.31	0.0006435
1224.95	0.0008611
1234.6	0.0008272
1244.24	0.0008172
1253.89	0.0006297
1263.53	0.000826
1273.18	0.0009102
1282.82	0.000774
1292.47	0.0007769
1302.11	0.000891
1311.76	0.0008049
1321.4	0.0007022
1331.05	0.0007323
1340.69	0.0011019
1350.34	0.001656
1359.98	0.001656
1369.63	0.001086
1379.27	0.0006421
1388.92	0.000467
1398.56	0.0003969
1408.21	0.000395
1417.85	0.0005375
1427.5	0.0005933
1437.14	0.0005275
1446.79	0.0004721
1456.43	0.0004457
1466.08	0.0004534
1475.73	0.0004269
1485.37	0.0005659
1495.02	0.0004807
1504.66	0.0003944
1514.31	0.0004194
1523.95	0.000341
1533.6	0.00030505
1543.24	0.0003362
1552.89	0.0003496
1562.53	0.0003425
1572.18	0.0003934
1581.82	0.0005338
1591.47	0.0006235
1601.11	0.0006195
1610.76	0.0006054
1620.4	0.000708
1630.05	0.001326
1639.69	0.002436
1649.34	0.001656
1658.98	0.000558
1668.63	0.0004776
1678.27	0.000451
1687.92	0.0004285
1697.56	0.0004858
1707.21	0.0006365
1716.85	0.0009001
1726.5	0.001366
1736.14	0.002476
1745.79	0.005356
1755.43	0.007386
1765.08	0.004346
1774.72	0.001956
1784.37	0.001496
1794.01	0.0010591
1803.66	0.0005985
1813.3	0.0004227
1822.95	0.00031807
1832.59	0.0003803
1842.24	0.0003592
1851.88	0.0002604
1861.53	0.000202
1871.17	0.00025258
1880.82	0.00026414
1890.46	0.00026404
1900.11	0.0001946
1909.75	0.0002316
1919.4	0.00023141
1929.04	0.00024936
1938.69	0.00023214
1948.33	0.00026524
1957.98	0.0002029
1967.62	0.000178
1977.27	0.0002078
1986.91	0.0001738
1996.56	0.0001799
2006.2	0.0002392
2015.85	0.0002058
2025.49	0.0001969
2035.14	0.0001798
2044.78	0.0002091
2054.43	0.0002165
2064.07	0.0001913
2073.72	0.0002076
2083.36	0.0001902
2093.01	0.00026163
2102.65	0.0001639
2112.3	0.0002115
2121.94	0.000195
2131.59	0.000218
2141.23	0.0001585
2150.88	0.0001777
2160.52	0.0001668
2170.17	0.0001879
2179.81	0.0002127
2189.46	0.0002061
2199.1	0.000239363
2208.75	0.0002137
2218.39	0.0001743
2228.04	0.0001468
2237.68	0.0001755
2247.33	0.0001605
2256.97	0.0002066
2266.62	0.0001617
2276.26	0.0001667
2285.91	0.00026476
2295.55	0.0002112
2305.2	0.0002153
2314.84	0.000235667
2324.49	0.000194
2334.13	0.0002003
2343.78	0.00023194
2353.42	0.0002013
2363.07	0.000213
2372.72	0.0001933
2382.36	0.0001736
2392.01	0.0001668
2401.65	0.0002015
2411.3	0.000132
2420.94	0.0002038
2430.59	0.000203
2440.23	0.00025448
2449.88	0.0001916
2459.52	0.0001452
2469.17	0.0002181
2478.81	0.0002215
2488.46	0.0002239
2498.1	0.0001619
2507.75	0.0001972
2517.39	0.0001782
2527.04	0.0001984
2536.68	0.00022879
2546.33	0.0001925
2555.97	0.0001813
2565.62	0.0001891
2575.26	0.000175
2584.91	0.0001491
2594.55	0.00022782
2604.2	0.00021
2613.84	0.00023234
2623.49	0.0002075
2633.13	0.0002106
2642.78	0.0002127
2652.42	0.00024742
2662.07	0.0001523
2671.71	0.000243586
2681.36	0.00024964
2691	0.0001396
2700.65	0.00028137
2710.29	0.0002857
2719.94	0.000207
2729.58	0.0001719
2739.23	0.00029629
2748.87	0.00023102
2758.52	0.0002
2768.16	0.0001655
2777.81	0.000185
2787.45	0.00027257
2797.1	0.00028409
2806.74	0.00031339
2816.39	0.0001728
2826.03	0.000241655
2835.68	0.00027727
2845.32	0.00030582
2854.97	0.000355
2864.61	0.0003447
2874.26	0.0004922
2883.9	0.0004317
2893.55	0.0005074
2903.19	0.000352
2912.84	0.0004812
2922.48	0.0006685
2932.13	0.0006819
2941.77	0.0004505
2951.42	0.0004964
2961.06	0.00041
2970.71	0.0004039
2980.35	0.0003548
2990	0.0004475
2999.64	0.0004912
3009.29	0.0005474
3018.93	0.0006326
3028.58	0.0007107
3038.22	0.0006989
3047.87	0.0007552
3057.51	0.0006689
3067.16	0.0006593
3076.8	0.0005857
3086.45	0.000441
3096.09	0.00030195
3105.74	0.0005109
3115.38	0.000385
3125.03	0.00026908
3134.67	0.000245987
3144.32	0.0002747
3153.96	0.0002152
3163.61	0.000256
3173.25	0.00025011
3182.9	0.0002295
3192.54	0.0004033
3202.19	0.00028606
3211.83	0.0002195
3221.48	0.0003716
3231.12	7e-05
3240.77	0.000237428
3250.41	0.00022955
3260.06	0.0002194
3269.7	0.0001619
3279.35	0.0003509
3289	0.00031404
3298.64	0.0002125
3308.29	0.00027192
3317.93	0.0002237
3327.58	0.00025475
3337.22	0.0002188
3346.87	0.000240531
3356.51	0.0001881
3366.16	0.000102
3375.8	0.0002227
3385.45	0.00028377
3395.09	0.000409
3404.74	0.0001676
3414.38	0.0001485
3424.03	0.0001944
3433.67	0.000106
3443.32	0.000105
3452.96	0.0001836
3462.61	0.0002932
3472.25	6.6e-05
3481.9	0.0001571
3491.54	0.0004023
3501.19	0.0001469
3510.83	0.00027207
3520.48	0.0001366
3530.12	0.0003195
3539.77	0.00023352
3549.41	0.000129
3559.06	0.0003812
3568.7	0.0005146
3578.35	0.002406
3587.99	0.002506
3597.64	0.0005827
3607.28	0.0003841
3616.93	0.0004056
3626.57	0.0003758
3636.22	0.0002088
3645.86	0.0002204
3655.51	0.0004579
3665.15	0.0002071
3674.8	0.0002112
3684.44	0.0001915
3694.09	0.0003384
3703.73	0.00029429
3713.38	0.0002213
3723.02	0.00030548
3732.67	0.00022776
3742.31	0.0003213
3751.96	0.000119
3761.6	0.00028787
3771.25	0.0001877
3780.89	0.0001632
3790.54	0.000235012
3800.18	3.3e-05
3809.83	0.00030618
3819.47	0.00032835
3829.12	0.00028885
3838.76	0.00030793
3848.41	0.0001876
3858.05	0.0002233
3867.7	0.00027455
3877.34	0.0001564
3886.99	0.000346
3896.63	0.00032766
3906.28	0.00024864
3915.92	0.0002544
3925.57	0.0001861
3935.21	7.2e-05
3944.86	0.0001949
3954.5	0.0001875
3964.15	0.00030873
3973.79	0.00019
3983.44	0.00026322
3993.08	0.0001768
