Infrared Spectrum: 2,6-Dihydroxybenzoic acid
Formula: C 7 H 6 O 4
CAS: 303-07-1
State: gas
Origin: EPA-IR VAPOR PHASE LIBRARY
1/CM	ABSORBANCE
501.5	0.001556
513.074	0.002006
524.648	0.002266
536.222	0.002056
547.796	0.002096
559.37	0.001646
570.944	0.001236
582.518	0.001159
594.092	0.001346
605.666	0.001496
617.24	0.001226
628.814	0.0007731
640.388	0.000785
651.962	0.001706
663.536	0.003696
675.11	0.007876
686.684	0.003936
698.258	0.002166
709.832	0.0010442
721.406	0.001476
732.98	0.003056
744.554	0.005266
756.128	0.007556
767.702	0.005616
779.276	0.003036
790.85	0.001616
802.423	0.001806
813.997	0.003636
825.571	0.004256
837.145	0.005166
848.719	0.004036
860.293	0.002926
871.867	0.001946
883.441	0.001576
895.015	0.001636
906.589	0.001716
918.163	0.001816
929.737	0.002756
941.311	0.009086
952.885	0.014086
964.459	0.011566
976.033	0.003066
987.607	0.001666
999.181	0.001246
1010.76	0.0009888
1022.33	0.0009022
1033.9	0.0010028
1045.48	0.001596
1057.05	0.002666
1068.63	0.003436
1080.2	0.003486
1091.77	0.002836
1103.35	0.003686
1114.92	0.008906
1126.49	0.022986
1138.07	0.037486
1149.64	0.033736
1161.22	0.022576
1172.79	0.023986
1184.36	0.027926
1195.94	0.022086
1207.51	0.012836
1219.09	0.008506
1230.66	0.004956
1242.23	0.003126
1253.81	0.003406
1265.38	0.004966
1276.96	0.007686
1288.53	0.012706
1300.1	0.014506
1311.68	0.014466
1323.25	0.012376
1334.83	0.010156
1346.4	0.005056
1357.97	0.001386
1369.55	0.0007948
1381.12	0.0007589
1392.7	0.0009719
1404.27	0.001186
1415.84	0.001516
1427.42	0.002276
1438.99	0.003446
1450.57	0.005116
1462.14	0.007356
1473.71	0.011586
1485.29	0.016036
1496.86	0.017206
1508.44	0.012406
1520.01	0.006376
1531.58	0.003956
1543.16	0.003336
1554.73	0.003526
1566.31	0.004546
1577.88	0.009566
1589.45	0.019656
1601.03	0.029506
1612.6	0.030886
1624.18	0.019066
1635.75	0.009366
1647.32	0.005226
1658.9	0.004366
1670.47	0.003026
1682.05	0.002096
1693.62	0.001376
1705.19	0.0009737
1716.77	0.0007606
1728.34	0.0006142
1739.92	0.000487
1751.49	0.0004727
1763.06	0.0004419
1774.64	0.0004832
1786.21	0.0004984
1797.79	0.0005145
1809.36	0.0004858
1820.93	0.0004477
1832.51	0.0004053
1844.08	0.0003319
1855.66	0.0003771
1867.23	0.0005069
1878.8	0.000731
1890.38	0.0008598
1901.95	0.0007715
1913.53	0.0006123
1925.1	0.0004832
1936.67	0.0003823
1948.25	0.0003824
1959.82	0.0003483
1971.4	0.00023593
1982.97	0.00021681
1994.54	0.00021607
2006.12	0.00021281
2017.69	0.00023223
2029.27	0.00027555
2040.84	0.0003009
2052.41	0.0002955
2063.99	0.00024823
2075.56	0.000285
2087.14	0.000318
2098.71	0.0003693
2110.28	0.0003391
2121.86	0.0003139
2133.43	0.0003019
2145.01	0.000309
2156.58	0.00026126
2168.15	0.00023929
2179.73	0.00021551
2191.3	0.00019356
2202.88	0.00022829
2214.45	0.00026567
2226.02	0.0002945
2237.6	0.0003899
2249.17	0.000467
2260.74	0.0004194
2272.32	0.0003366
2283.89	0.00024667
2295.47	0.0002817
2307.04	0.0003019
2318.61	0.0003779
2330.19	0.0004881
2341.76	0.000603
2353.34	0.0006268
2364.91	0.0005233
2376.48	0.0004671
2388.06	0.0004402
2399.63	0.0005257
2411.21	0.0005705
2422.78	0.0006899
2434.35	0.0007359
2445.93	0.0007374
2457.5	0.0006077
2469.08	0.0005382
2480.65	0.0005287
2492.22	0.0005142
2503.8	0.0004152
2515.37	0.000365
2526.95	0.0002902
2538.52	0.00019426
2550.09	0.00020356
2561.67	0.00021202
2573.24	0.000182405
2584.82	0.00022195
2596.39	0.00023159
2607.96	0.000238
2619.54	0.0003353
2631.11	0.00026563
2642.69	0.00027135
2654.26	0.00024728
2665.83	0.00024668
2677.41	0.00019113
2688.98	0.0001608
2700.56	0.0001163
2712.13	9.05e-05
2723.7	9.81e-05
2735.28	0.0001402
2746.85	0.0001314
2758.43	0.0001468
2770	0.0001409
2781.57	0.000183067
2793.15	0.00024763
2804.72	0.00020957
2816.3	0.00022478
2827.87	0.0001575
2839.44	0.0001133
2851.02	3.8e-05
2862.59	4.9e-05
2874.17	7.75e-05
2885.74	7.93e-05
2897.31	8.86e-05
2908.89	7.5e-05
2920.46	5.7e-05
2932.04	0.0001019
2943.61	0.00018664
2955.18	0.0001556
2966.76	0.0001052
2978.33	0.00021488
2989.91	0.00023676
3001.48	0.0004182
3013.05	0.0008496
3024.63	0.001816
3036.2	0.003106
3047.78	0.003746
3059.35	0.003386
3070.92	0.002336
3082.5	0.001636
3094.07	0.0011175
3105.65	0.0007817
3117.22	0.0005445
3128.79	0.0002966
3140.37	0.0001325
3151.94	7.2e-05
3163.52	6.1e-05
3175.09	5.3e-05
3186.66	8.88e-05
3198.24	5.8e-05
3209.81	6.1e-05
3221.39	3.7e-05
3232.96	7.2e-05
3244.53	4e-06
3256.11	2.7e-05
3267.68	4.2e-05
3279.26	6.7e-05
3290.83	2.8e-05
3302.4	1.8e-05
3313.98	9.12e-05
3325.55	0.00022378
3337.13	0.0003217
3348.7	0.0004078
3360.27	0.000433
3371.85	0.0003765
3383.42	0.0003636
3395	0.0002876
3406.57	0.0003521
3418.14	0.00025926
3429.72	0.0003455
3441.29	0.0002851
3452.86	0.0003323
3464.44	0.0002975
3476.01	0.00018338
3487.59	0.00024344
3499.16	0.0002593
3510.73	0.00017093
3522.31	0.00024069
3533.88	0.00016718
3545.46	0.0001657
3557.03	0.0003134
3568.6	0.0003551
3580.18	0.0003206
3591.75	0.0003918
3603.33	0.0006078
3614.9	0.0011496
3626.47	0.003396
3638.05	0.013236
3649.62	0.022746
3661.2	0.019606
3672.77	0.005276
3684.34	0.0010397
3695.92	0.0005155
3707.49	0.0003159
3719.07	0.00026763
3730.64	0.00018743
3742.21	0.000183044
3753.79	0.00020768
3765.36	0.00017395
3776.94	0.000181682
3788.51	0.00023902
3800.08	0.0003873
3811.66	0.0003201
3823.23	0.000317
3834.81	0.0003718
3846.38	0.0003345
3857.95	0.0003514
3869.53	0.0004199
3881.1	0.0003633
3892.68	0.0004103
3904.25	0.0003875
3915.82	0.0004115
3927.4	0.0004288
3938.97	0.0003555
3950.55	0.0003518
3962.12	0.0003997
3973.69	0.0003028
3985.27	0.00025327
3996.84	0.0003096
