Infrared Spectrum: 2,3-DICHLORO-1,1,1,4,4,4-HEXAFLUORO BUTENE-2
Formula: C4 Cl2 F6
CAS: 303-04-8
State: SOLUTION (2% CCl4 FOR 5000-1330, 2% CS2 FOR 1330-625 CM^-^1)
Class: COBLENTZ
Instrument: Not specified, most likely a prism, grating, or hybrid spectrometer.
Sampling: TRANSMISSION
Path length: 0.0122 CM, 0.0120 CM
Resolution: 4
Origin: DOW CHEMICAL COMPANY
MICROMETERS	TRANSMITTANCE
2.041	0.892
2.082	0.897
2.12299	0.897
2.16399	0.897
2.20498	0.897
2.24598	0.892
2.28697	0.892
2.32797	0.892
2.36896	0.892
2.40996	0.892
2.45095	0.897
2.49195	0.902
2.53294	0.912
2.57394	0.912
2.61493	0.909
2.65593	0.909
2.69692	0.909
2.73792	0.909
2.77891	0.909
2.81991	0.909
2.8609	0.907
2.9019	0.907
2.94289	0.907
2.98389	0.906
3.02488	0.909
3.06588	0.909
3.10687	0.907
3.14787	0.907
3.18886	0.914
3.22986	0.916
3.27085	0.916
3.31185	0.916
3.35284	0.916
3.39384	0.921
3.43483	0.919
3.47583	0.919
3.51682	0.919
3.55782	0.918
3.59881	0.919
3.63981	0.919
3.6808	0.919
3.7218	0.919
3.76279	0.921
3.80379	0.919
3.84478	0.919
3.88578	0.919
3.92677	0.921
3.96777	0.921
4.00876	0.923
4.04976	0.919
4.09075	0.916
4.13175	0.921
4.17274	0.921
4.21374	0.919
4.25473	0.911
4.29573	0.911
4.33672	0.919
4.37772	0.923
4.41871	0.931
4.45971	0.93
4.5007	0.93
4.5417	0.928
4.5827	0.926
4.62369	0.928
4.66469	0.933
4.70568	0.928
4.74668	0.93
4.78767	0.931
4.82867	0.93
4.86966	0.931
4.91066	0.931
4.95165	0.931
4.99265	0.931
5.03364	0.93
5.07464	0.933
5.11563	0.933
5.15663	0.931
5.19762	0.933
5.23862	0.931
5.27961	0.931
5.32061	0.933
5.3616	0.935
5.4026	0.935
5.44359	0.936
5.48459	0.931
5.52558	0.933
5.56658	0.931
5.60757	0.931
5.64857	0.931
5.68956	0.93
5.73056	0.931
5.77155	0.931
5.81255	0.931
5.85354	0.931
5.89454	0.931
5.93553	0.93
5.97653	0.928
6.01752	0.928
6.05852	0.924
6.09951	0.916
6.14051	0.911
6.1815	0.901
6.2225	0.827
6.26349	0.88
6.30449	0.928
6.34548	0.931
6.38648	0.935
6.42747	0.936
6.46847	0.936
6.50946	0.935
6.55046	0.933
6.59145	0.933
6.63245	0.933
6.67344	0.931
6.71444	0.931
6.75543	0.931
6.79643	0.931
6.83742	0.93
6.87842	0.923
6.91941	0.928
6.96041	0.93
7.0014	0.93
7.0424	0.93
7.08339	0.928
7.12439	0.928
7.16539	0.928
7.20638	0.931
7.24738	0.938
7.28837	0.931
7.32937	0.928
7.37036	0.924
7.41136	0.924
7.45235	0.923
7.49335	0.919
7.53434	0.919
7.57534	0.919
7.61633	0.916
7.65733	0.897
7.69832	0.86
7.73932	0.812
7.78031	0.784
7.82131	0.749
7.8623	0.609
7.9033	0.39
7.94429	0.341
7.98529	0.472
8.02628	0.412
8.06728	0.201
8.10827	0.242
8.14927	0.501
8.19026	0.566
8.23126	0.51
8.27225	0.373
8.31325	0.242
8.35424	0.197
8.39524	0.232
8.43623	0.271
8.47723	0.153
8.51822	0.075
8.55922	0.11
8.60021	0.351
8.64121	0.6
8.6822	0.732
8.7232	0.802
8.76419	0.832
8.80519	0.848
8.84618	0.849
8.88718	0.87
8.92817	0.889
8.96917	0.897
9.01016	0.899
9.05116	0.902
9.09215	0.904
9.13315	0.906
9.17414	0.906
9.21514	0.902
9.25613	0.904
9.29713	0.911
9.33812	0.916
9.37912	0.918
9.42011	0.918
9.46111	0.918
9.5021	0.916
9.5431	0.916
9.58409	0.916
9.62509	0.916
9.66609	0.918
9.70708	0.911
9.74808	0.907
9.78907	0.901
9.83007	0.907
9.87106	0.911
9.91206	0.912
9.95305	0.911
9.99405	0.916
10.035	0.919
10.076	0.919
10.117	0.918
10.158	0.914
10.199	0.914
10.24	0.914
10.281	0.918
10.322	0.919
10.363	0.919
10.404	0.909
10.445	0.907
10.486	0.901
10.527	0.897
10.568	0.889
10.609	0.882
10.65	0.877
10.691	0.848
10.732	0.8
10.773	0.747
10.8139	0.679
10.8549	0.643
10.8959	0.643
10.9369	0.701
10.9779	0.757
11.0189	0.819
11.0599	0.851
11.1009	0.877
11.1419	0.89
11.1829	0.902
11.2239	0.906
11.2649	0.906
11.3059	0.906
11.3469	0.912
11.3879	0.912
11.4289	0.916
11.4699	0.916
11.5109	0.909
11.5519	0.901
11.5929	0.901
11.6338	0.902
11.6748	0.901
11.7158	0.902
11.7568	0.901
11.7978	0.897
11.8388	0.889
11.8798	0.851
11.9208	0.771
11.9618	0.738
12.0028	0.776
12.0438	0.872
12.0848	0.899
12.1258	0.914
12.1668	0.916
12.2078	0.916
12.2488	0.914
12.2898	0.916
12.3308	0.918
12.3718	0.918
12.4128	0.921
12.4538	0.926
12.4947	0.928
12.5357	0.926
12.5767	0.926
12.6177	0.926
12.6587	0.924
12.6997	0.924
12.7407	0.93
12.7817	0.93
12.8227	0.933
12.8637	0.935
12.9047	0.935
12.9457	0.935
12.9867	0.933
13.0277	0.933
13.0687	0.931
13.1097	0.93
13.1507	0.93
13.1917	0.931
13.2327	0.936
13.2737	0.938
13.3146	0.938
13.3556	0.938
13.3966	0.938
13.4376	0.938
13.4786	0.938
13.5196	0.936
13.5606	0.931
13.6016	0.926
13.6426	0.921
13.6836	0.895
13.7246	0.839
13.7656	0.798
13.8066	0.819
13.8476	0.873
13.8886	0.918
13.9296	0.933
13.9706	0.936
14.0116	0.943
14.0526	0.947
14.0936	0.95
14.1345	0.955
14.1755	0.957
14.2165	0.959
14.2575	0.959
14.2985	0.959
14.3395	0.955
14.3805	0.95
14.4215	0.93
14.4625	0.899
14.5035	0.861
14.5445	0.851
14.5855	0.848
14.6265	0.882
14.6675	0.919
14.7085	0.94
14.7495	0.945
14.7905	0.95
14.8315	0.952
14.8725	0.952
14.9135	0.952
14.9545	0.952
14.9954	0.952
15.0364	0.95
15.0774	0.93
15.1184	0.899
15.1594	0.868
15.2004	0.829
15.2414	0.812
15.2824	0.81
15.3234	0.817
15.3644	0.843
15.4054	0.875
15.4464	0.901
15.4874	0.918
15.5284	0.924
15.5694	0.926
15.6104	0.928
15.6514	0.928
15.6924	0.928
15.7334	0.928
15.7744	0.928
15.8153	0.926
15.8563	0.926
15.8973	0.926
