Infrared Spectrum: 2,3-Dihydroxybenzoic acid
Formula: C 7 H 6 O 4
CAS: 303-38-8
State: gas
Origin: EPA-IR VAPOR PHASE LIBRARY
1/CM	ABSORBANCE
549.8	0.0199217
559.445	0.0148917
569.09	0.0157817
578.734	0.0223517
588.379	0.0269817
598.024	0.0198317
607.669	0.0129917
617.313	0.0152817
626.958	0.0189717
636.603	0.0130517
646.248	0.0079217
655.893	0.0089317
665.537	0.0107917
675.182	0.0132917
684.827	0.0160517
694.472	0.0282917
704.116	0.0496617
713.761	0.0435017
723.406	0.0141217
733.051	0.0160017
742.695	0.0368417
752.34	0.0692317
761.985	0.0332017
771.63	0.0119417
781.275	0.0052117
790.919	0.0035117
800.564	0.0031817
810.209	0.0035917
819.854	0.0048417
829.498	0.0074917
839.143	0.0099417
848.788	0.0093317
858.433	0.0057317
868.078	0.0029817
877.722	0.0026017
887.367	0.0027117
897.012	0.0039117
906.657	0.0040617
916.301	0.0048517
925.946	0.0096717
935.591	0.0132617
945.236	0.0093217
954.88	0.0043217
964.525	0.0034217
974.17	0.0029117
983.815	0.0028317
993.46	0.0029917
1003.1	0.0032017
1012.75	0.0042217
1022.39	0.0050417
1032.04	0.0060317
1041.68	0.0087917
1051.33	0.0193717
1060.97	0.0366417
1070.62	0.0358717
1080.26	0.0181517
1089.91	0.0145317
1099.55	0.0211517
1109.2	0.0389517
1118.84	0.0808717
1128.49	0.140242
1138.13	0.135562
1147.78	0.0650017
1157.42	0.0273917
1167.07	0.0255117
1176.71	0.0233517
1186.36	0.0297817
1196	0.0373817
1205.64	0.0354717
1215.29	0.0421817
1224.93	0.0533617
1234.58	0.0611317
1244.22	0.0743217
1253.87	0.0921317
1263.51	0.111272
1273.16	0.106582
1282.8	0.0695417
1292.45	0.0437717
1302.09	0.0329417
1311.74	0.0298317
1321.38	0.0325217
1331.03	0.0394517
1340.67	0.0482817
1350.32	0.0620817
1359.96	0.0677317
1369.61	0.0531717
1379.25	0.0380417
1388.9	0.0366917
1398.54	0.0393817
1408.18	0.0347117
1417.83	0.0241217
1427.47	0.0141817
1437.12	0.0123117
1446.76	0.0179817
1456.41	0.0437417
1466.05	0.0929317
1475.7	0.113282
1485.34	0.0750817
1494.99	0.0325017
1504.63	0.0157717
1514.28	0.0084817
1523.92	0.0057217
1533.57	0.0047017
1543.21	0.0045517
1552.86	0.0049017
1562.5	0.0048417
1572.15	0.0045017
1581.79	0.0047617
1591.44	0.0060017
1601.08	0.0068617
1610.73	0.0078617
1620.37	0.0094117
1630.01	0.0088117
1639.66	0.0069717
1649.3	0.0062117
1658.95	0.0067317
1668.59	0.0103017
1678.24	0.0189017
1687.88	0.0388817
1697.53	0.0894717
1707.17	0.154922
1716.82	0.141902
1726.46	0.0580317
1736.11	0.0180517
1745.75	0.0096617
1755.4	0.0095617
1765.04	0.0151817
1774.69	0.0153517
1784.33	0.0084517
1793.98	0.0053517
1803.62	0.0035517
1813.27	0.0026517
1822.91	0.0027517
1832.55	0.0030517
1842.2	0.0031917
1851.84	0.0030817
1861.49	0.0023717
1871.13	0.0016717
1880.78	0.0013917
1890.42	0.0016617
1900.07	0.0021217
1909.71	0.0023217
1919.36	0.0020517
1929	0.0013717
1938.65	0.0010517
1948.29	0.0008701
1957.94	0.0009457
1967.58	0.0009196
1977.23	0.0009501
1986.87	0.0007908
1996.52	0.0006645
2006.16	0.0005936
2015.81	0.0005127
2025.45	0.0005891
2035.1	0.0005936
2044.74	0.000766
2054.38	0.0010817
2064.03	0.0014217
2073.67	0.0014717
2083.32	0.0012117
2092.96	0.0009785
2102.61	0.000894
2112.25	0.0008356
2121.9	0.0009316
2131.54	0.000824
2141.19	0.0007206
2150.83	0.0005249
2160.48	0.0006351
2170.12	0.0007147
2179.77	0.0009382
2189.41	0.0011617
2199.06	0.0011717
2208.7	0.0010517
2218.35	0.0007561
2227.99	0.0006251
2237.64	0.0005877
2247.28	0.0005525
2256.92	0.000673
2266.57	0.00061
2276.21	0.0006378
2285.86	0.000724
2295.5	0.0010217
2305.15	0.0012217
2314.79	0.0015617
2324.44	0.0017317
2334.08	0.0015817
2343.73	0.0013917
2353.37	0.0013417
2363.02	0.0016517
2372.66	0.0015417
2382.31	0.0012517
2391.95	0.0011017
2401.6	0.0010717
2411.24	0.0012417
2420.89	0.0012717
2430.53	0.0013517
2440.18	0.0014617
2449.82	0.0015817
2459.47	0.0016517
2469.11	0.0016517
2478.75	0.0016317
2488.4	0.0016517
2498.04	0.0016717
2507.69	0.0017017
2517.33	0.0017517
2526.98	0.0017717
2536.62	0.0016717
2546.27	0.0014617
2555.91	0.0013417
2565.56	0.0012417
2575.2	0.0011217
2584.85	0.0011317
2594.49	0.0011617
2604.14	0.0012317
2613.78	0.0014617
2623.43	0.0015017
2633.07	0.0016217
2642.72	0.0017917
2652.36	0.0016617
2662.01	0.0014717
2671.65	0.0012917
2681.29	0.0011417
2690.94	0.0012117
2700.58	0.0012517
2710.23	0.0012917
2719.87	0.0015017
2729.52	0.0016517
2739.16	0.0018317
2748.81	0.0020717
2758.45	0.0019617
2768.1	0.0018517
2777.74	0.0018017
2787.39	0.0018417
2797.03	0.0018917
2806.68	0.0020417
2816.32	0.0021117
2825.97	0.0021717
2835.61	0.0022717
2845.26	0.0023717
2854.9	0.0021517
2864.55	0.0021117
2874.19	0.0021117
2883.84	0.0020217
2893.48	0.0019817
2903.12	0.0018717
2912.77	0.0019817
2922.41	0.0020517
2932.06	0.0021217
2941.7	0.0026417
2951.35	0.0030017
2960.99	0.0033417
2970.64	0.0035517
2980.28	0.0034417
2989.93	0.0035417
2999.57	0.0035717
3009.22	0.0033417
3018.86	0.0033317
3028.51	0.0035017
3038.15	0.0040817
3047.8	0.0050317
3057.44	0.0062817
3067.09	0.0066717
3076.73	0.0070617
3086.38	0.0074417
3096.02	0.0067417
3105.67	0.0056317
3115.31	0.0044017
3124.95	0.0041517
3134.6	0.0045517
3144.24	0.0052117
3153.89	0.0066817
3163.53	0.0085717
3173.18	0.0114617
3182.82	0.0146817
3192.47	0.0171517
3202.11	0.0187417
3211.76	0.0195817
3221.4	0.0200517
3231.05	0.0198317
3240.69	0.0189817
3250.34	0.0175117
3259.98	0.0159717
3269.63	0.0148317
3279.27	0.0135717
3288.92	0.0126917
3298.56	0.0122217
3308.21	0.0116517
3317.85	0.0109117
3327.49	0.0105017
3337.14	0.0097617
3346.78	0.0088817
3356.43	0.0081517
3366.07	0.0077417
3375.72	0.0073817
3385.36	0.0072417
3395.01	0.0072517
3404.65	0.0072117
3414.3	0.0067417
3423.94	0.0060617
3433.59	0.0054917
3443.23	0.0049617
3452.88	0.0045317
3462.52	0.0043117
3472.17	0.0042117
3481.81	0.0043517
3491.46	0.0046617
3501.1	0.0059717
3510.75	0.0074017
3520.39	0.0073617
3530.04	0.0060317
3539.68	0.0053417
3549.32	0.0054317
3558.97	0.0088417
3568.61	0.0406517
3578.26	0.0983617
3587.9	0.0925117
3597.55	0.0411117
3607.19	0.0108717
3616.84	0.0037317
3626.48	0.0024917
3636.13	0.0016417
3645.77	0.0018317
3655.42	0.0017517
3665.06	0.0010013
3674.71	0.0007841
3684.35	0.0005149
3694	0.0004751
3703.64	0.0005192
3713.29	0.0005696
3722.93	0.0003663
3732.58	0.0002794
3742.22	0.0003935
3751.86	0.0002941
3761.51	0.0001857
3771.15	9.416e-05
3780.8	0.0002233
3790.44	0.0003142
3800.09	0.0004794
3809.73	0.0002519
3819.38	0.0001204
3829.02	3.5e-06
3838.67	4.403e-05
3848.31	7.1e-06
3857.96	0.0001575
3867.6	0.0002321
3877.25	0.0001712
3886.89	0.0004531
3896.54	0.0002641
3906.18	0.0003916
3915.83	0.0004382
3925.47	0.0006552
3935.12	0.000568
3944.76	0.0004557
3954.41	0.0002103
3964.05	0.0001603
3973.69	0.0002233
3983.34	0.00010256
3992.98	0.0002645
