Infrared Spectrum: PHOSPHONOUS ACID, PHENYL-, DIBUTYL ESTER
Formula: C14 H23 O2 P
CAS: 3030-90-8
Class: COBLENTZ
Instrument: Not specified, most likely a prism, grating, or hybrid spectrometer.
Sampling: TRANSMISSION
Path length: SMEAR
Resolution: 4
Origin: TENNESSEE EASTMAN COMPANY, RESEARCH LABORATORIES
MICROMETERS	TRANSMITTANCE
2.039	0.898
2.07903	0.898
2.11905	0.898
2.15908	0.898
2.1991	0.898
2.23913	0.896
2.27915	0.896
2.31918	0.896
2.3592	0.896
2.39923	0.896
2.43925	0.896
2.47928	0.898
2.5193	0.898
2.55933	0.899
2.59935	0.899
2.63938	0.898
2.6794	0.894
2.71943	0.894
2.75945	0.894
2.79948	0.896
2.8395	0.896
2.87953	0.894
2.91955	0.893
2.95958	0.894
2.9996	0.899
3.03963	0.908
3.07965	0.918
3.11968	0.918
3.1597	0.914
3.19973	0.916
3.23975	0.911
3.27978	0.772
3.3198	0.821
3.35983	0.609
3.39985	0.247
3.43988	0.484
3.4799	0.429
3.51993	0.776
3.55995	0.859
3.59998	0.889
3.64	0.899
3.68003	0.889
3.72005	0.901
3.76008	0.906
3.8001	0.919
3.84013	0.921
3.88015	0.923
3.92018	0.926
3.9602	0.931
4.00023	0.934
4.04025	0.938
4.08028	0.939
4.1203	0.941
4.16033	0.941
4.20035	0.938
4.24038	0.948
4.2804	0.921
4.32043	0.889
4.36045	0.894
4.40048	0.929
4.4405	0.939
4.48053	0.941
4.52055	0.941
4.56058	0.941
4.6006	0.941
4.64063	0.941
4.68065	0.941
4.72068	0.943
4.7607	0.943
4.80073	0.943
4.84075	0.943
4.88078	0.943
4.9208	0.943
4.96083	0.943
5.00085	0.941
5.04088	0.934
5.0809	0.919
5.12093	0.921
5.16095	0.926
5.20098	0.941
5.241	0.926
5.28103	0.919
5.32105	0.921
5.36108	0.938
5.4011	0.931
5.44113	0.923
5.48115	0.916
5.52118	0.914
5.5612	0.919
5.60123	0.918
5.64125	0.914
5.68128	0.914
5.7213	0.919
5.76133	0.913
5.80135	0.921
5.84138	0.909
5.8814	0.936
5.92143	0.894
5.96145	0.896
6.00148	0.896
6.0415	0.923
6.08153	0.898
6.12155	0.934
6.16158	0.928
6.2016	0.921
6.24163	0.916
6.28165	0.879
6.32168	0.928
6.3617	0.908
6.40173	0.919
6.44175	0.908
6.48178	0.891
6.5218	0.904
6.56183	0.889
6.60185	0.903
6.64188	0.874
6.6819	0.863
6.72193	0.752
6.76195	0.709
6.80198	0.592
6.842	0.602
6.88203	0.717
6.92205	0.689
6.96208	0.657
7.0021	0.813
7.04213	0.849
7.08215	0.874
7.12218	0.863
7.1622	0.769
7.20223	0.687
7.24225	0.626
7.28228	0.744
7.3223	0.841
7.36233	0.866
7.40235	0.879
7.44238	0.888
7.4824	0.871
7.52243	0.871
7.56245	0.876
7.60248	0.876
7.6425	0.829
7.68253	0.809
7.72255	0.828
7.76258	0.839
7.8026	0.824
7.84263	0.794
7.88265	0.751
7.92268	0.681
7.9627	0.624
8.00273	0.592
8.04275	0.577
8.08278	0.604
8.1228	0.654
8.16283	0.761
8.20285	0.818
8.24288	0.841
8.2829	0.906
8.32293	0.871
8.36295	0.869
8.40298	0.866
8.443	0.854
8.48303	0.849
8.52305	0.849
8.56308	0.823
8.6031	0.797
8.64313	0.781
8.68315	0.749
8.72318	0.744
8.7632	0.746
8.80323	0.624
8.84325	0.606
8.88328	0.636
8.9233	0.642
8.96333	0.647
9.00335	0.637
9.04338	0.595
9.0834	0.585
9.12343	0.639
9.16345	0.631
9.20348	0.537
9.2435	0.419
9.28353	0.313
9.32355	0.263
9.36358	0.258
9.4036	0.293
9.44363	0.38
9.48365	0.424
9.52368	0.372
9.5637	0.317
9.60373	0.303
9.64375	0.27
9.68378	0.237
9.7238	0.218
9.76383	0.22
9.80385	0.245
9.84388	0.272
9.8839	0.305
9.92393	0.318
9.96395	0.313
10.004	0.308
10.044	0.31
10.084	0.31
10.1241	0.317
10.1641	0.347
10.2041	0.353
10.2441	0.302
10.2842	0.252
10.3242	0.23
10.3642	0.225
10.4042	0.223
10.4443	0.222
10.4843	0.228
10.5243	0.28
10.5643	0.362
10.6044	0.462
10.6444	0.572
10.6844	0.646
10.7244	0.699
10.7645	0.727
10.8045	0.739
10.8445	0.749
10.8845	0.759
10.9246	0.767
10.9646	0.756
11.0046	0.731
11.0446	0.707
11.0847	0.722
11.1247	0.737
11.1647	0.734
11.2047	0.702
11.2448	0.644
11.2848	0.557
11.3248	0.487
11.3648	0.439
11.4049	0.44
11.4449	0.485
11.4849	0.579
11.5249	0.632
11.565	0.692
11.605	0.727
11.645	0.757
11.685	0.777
11.7251	0.794
11.7651	0.801
11.8051	0.804
11.8451	0.809
11.8852	0.811
11.9252	0.804
11.9652	0.801
12.0052	0.801
12.0453	0.801
12.0853	0.792
12.1253	0.786
12.1653	0.769
12.2054	0.752
12.2454	0.742
12.2854	0.732
12.3254	0.712
12.3655	0.697
12.4055	0.681
12.4455	0.677
12.4855	0.664
12.5256	0.641
12.5656	0.612
12.6056	0.592
12.6456	0.56
12.6857	0.517
12.7257	0.494
12.7657	0.465
12.8057	0.46
12.8458	0.457
12.8858	0.459
12.9258	0.474
12.9658	0.499
13.0059	0.527
13.0459	0.547
13.0859	0.555
13.1259	0.549
13.166	0.512
13.206	0.46
13.246	0.375
13.286	0.34
13.3261	0.353
13.3661	0.404
13.4061	0.479
13.4461	0.509
13.4862	0.527
13.5262	0.529
13.5662	0.53
13.6062	0.534
13.6463	0.537
13.6863	0.537
13.7263	0.534
13.7663	0.527
13.8064	0.515
13.8464	0.515
13.8864	0.522
13.9264	0.529
13.9665	0.53
14.0065	0.527
14.0465	0.512
14.0865	0.5
14.1266	0.459
14.1666	0.398
14.2066	0.332
14.2466	0.303
14.2867	0.305
14.3267	0.335
14.3667	0.372
14.4067	0.42
14.4468	0.485
14.4868	0.559
14.5268	0.631
14.5668	0.684
14.6069	0.719
14.6469	0.739
14.6869	0.757
14.7269	0.766
14.767	0.769
14.807	0.774
14.847	0.776
14.887	0.776
14.9271	0.774
14.9671	0.772
15.0071	0.779
15.0471	0.784
15.0872	0.791
15.1272	0.792
15.1672	0.789
15.2072	0.789
15.2473	0.789
15.2873	0.787
15.3273	0.784
15.3673	0.777
15.4074	0.774
15.4474	0.772
15.4874	0.769
15.5274	0.762
15.5675	0.757
15.6075	0.752
15.6475	0.747
15.6875	0.742
15.7276	0.734
15.7676	0.727
15.8076	0.724
15.8476	0.716
15.8877	0.707
15.9277	0.704
15.9677	0.701
16.0077	0.699
