Infrared Spectrum: L-xylo-Hexulosonic acid, methyl ester
Formula: C7 H12 O7
CAS: 3031-98-9
State: SOLID (SPLIT MULL), FLUOROLUBE FOR 3800-1330 CM^-^1, NUJOL FOR 1330-400 CM^-^1
Melting point: 151 C
Class: COBLENTZ III
Instrument: BECKMAN IR-9 (GRATING)
Instrument parameters: ORDER CHANGES: 670, 1200, 2000 CM^-^1
Sampling: TRANSMISSION
Resolution: 2
Origin: DOW CHEMICAL COMPANY
1/CM	TRANSMITTANCE
3800	0.7842
3791	0.7864
3782	0.7894
3773	0.7918
3764	0.7941
3755	0.7967
3746	0.8003
3737	0.8038
3728	0.8069
3719	0.8101
3710	0.8133
3701	0.8165
3692	0.82
3683	0.8232
3674	0.8264
3665	0.8296
3656	0.8321
3647	0.8349
3638	0.8378
3629	0.8409
3620	0.8433
3611	0.8452
3602	0.8461
3593	0.8471
3584	0.8473
3575	0.8459
3566	0.8405
3557	0.8285
3548	0.8101
3539	0.7918
3530	0.7731
3521	0.7484
3512	0.7138
3503	0.6699
3494	0.6217
3485	0.5696
3476	0.5259
3467	0.4829
3458	0.426
3449	0.3612
3440	0.309
3431	0.2438
3422	0.2058
3413	0.1136
3404	0.0906
3395	0.0935
3386	0.1092
3377	0.1558
3368	0.1916
3359	0.2177
3350	0.2346
3341	0.242
3332	0.241
3323	0.2188
3314	0.1849
3305	0.1729
3296	0.1834
3287	0.22
3278	0.2585
3269	0.2894
3260	0.3192
3251	0.352
3242	0.378
3233	0.4004
3224	0.4209
3215	0.4381
3206	0.4549
3197	0.4773
3188	0.4993
3179	0.5182
3170	0.5344
3161	0.5492
3152	0.5631
3143	0.576
3134	0.5879
3125	0.5982
3116	0.6086
3107	0.6191
3098	0.628
3089	0.6362
3080	0.6433
3071	0.6499
3062	0.6564
3053	0.6628
3044	0.6704
3035	0.6747
3026	0.6575
3017	0.6378
3008	0.6615
2999	0.6881
2990	0.6978
2981	0.605
2972	0.6411
2963	0.5733
2954	0.4942
2945	0.6292
2936	0.5674
2927	0.5786
2918	0.6023
2909	0.6405
2900	0.6457
2891	0.653
2882	0.6692
2873	0.6836
2864	0.6848
2855	0.6858
2846	0.6897
2837	0.6942
2828	0.6982
2819	0.7011
2810	0.7032
2801	0.7048
2792	0.7064
2783	0.7082
2774	0.7128
2765	0.719
2756	0.7245
2747	0.7271
2738	0.7284
2729	0.728
2720	0.7268
2711	0.7251
2702	0.7255
2693	0.729
2684	0.7337
2675	0.7392
2666	0.7448
2657	0.7501
2648	0.7542
2639	0.7575
2630	0.7599
2621	0.7615
2612	0.761
2603	0.7598
2594	0.758
2585	0.7576
2576	0.7584
2567	0.7592
2558	0.7603
2549	0.7611
2540	0.7614
2531	0.7615
2522	0.7617
2513	0.7617
2504	0.7617
2495	0.7615
2486	0.7614
2477	0.7611
2468	0.7608
2459	0.7608
2450	0.7614
2441	0.7617
2432	0.7621
2423	0.7626
2414	0.7632
2405	0.7632
2396	0.7625
2387	0.7591
2378	0.7472
2369	0.7438
2360	0.7415
2351	0.7399
2342	0.7383
2333	0.7376
2324	0.7386
2315	0.7408
2306	0.7453
2297	0.7524
2288	0.7553
2279	0.7572
2270	0.7594
2261	0.7636
2252	0.769
2243	0.7761
2234	0.7821
2225	0.7878
2216	0.7933
2207	0.7987
2198	0.8026
2189	0.8064
2180	0.8097
2171	0.8125
2162	0.8158
2153	0.8191
2144	0.8218
2135	0.8238
2126	0.826
2117	0.8287
2108	0.8315
2099	0.8354
2090	0.8393
2081	0.843
2072	0.8463
2063	0.8495
2054	0.8528
2045	0.8567
2036	0.8595
2027	0.8614
2018	0.8628
2009	0.8633
2000	0.8456
1991	0.865
1982	0.8686
1973	0.8711
1964	0.8725
1955	0.8725
1946	0.8718
1937	0.8725
1928	0.8728
1919	0.875
1910	0.8759
1901	0.8767
1892	0.8768
1883	0.8733
1874	0.871
1865	0.8687
1856	0.8694
1847	0.8716
1838	0.873
1829	0.8736
1820	0.8721
1811	0.869
1802	0.8663
1793	0.8636
1784	0.8593
1775	0.8584
1766	0.8192
1757	0.7193
1748	0.2928
1739	0.1383
1730	0.3016
1721	0.6043
1712	0.7064
1703	0.7471
1694	0.7485
1685	0.7691
1676	0.7833
1667	0.7958
1658	0.8067
1649	0.8118
1640	0.8195
1631	0.8264
1622	0.8316
1613	0.8345
1604	0.8361
1595	0.8371
1586	0.8407
1577	0.8463
1568	0.8485
1559	0.8439
1550	0.8424
1541	0.8338
1532	0.8294
1523	0.8294
1514	0.8271
1505	0.8258
1496	0.8215
1487	0.81
1478	0.784
1469	0.7268
1460	0.5895
1451	0.5602
1442	0.5189
1433	0.551
1424	0.61
1415	0.6384
1406	0.5742
1397	0.4439
1388	0.5417
1379	0.5444
1370	0.4939
1361	0.5672
1352	0.5202
1343	0.4621
1334	0.3697
1325	0.4128
1316	0.429
1307	0.4921
1298	0.4584
1289	0.3412
1280	0.3471
1271	0.6325
1262	0.7393
1253	0.7632
1244	0.7157
1235	0.7401
1226	0.7668
1217	0.7101
1208	0.5339
1199	0.4768
1190	0.4696
1181	0.6194
1172	0.2969
1163	0.251
1154	0.4531
1145	0.3353
1136	0.4462
1127	0.6414
1118	0.5132
1109	0.4534
1100	0.3866
1091	0.5684
1082	0.3955
1073	0.5637
1064	0.3275
1055	0.0481
1046	0.2705
1037	0.5647
1028	0.5935
1019	0.592
1010	0.467
1001	0.4702
992	0.5866
983	0.7451
974	0.7872
965	0.8061
956	0.8137
947	0.8108
938	0.6525
929	0.568
920	0.7735
911	0.8247
902	0.7704
893	0.8191
884	0.8483
875	0.8551
866	0.8551
857	0.8415
848	0.7341
839	0.8561
830	0.8623
821	0.8635
812	0.8567
803	0.8206
794	0.7336
785	0.8506
776	0.846
767	0.845
758	0.8251
749	0.7984
740	0.5234
731	0.7661
722	0.7546
713	0.8015
704	0.8046
695	0.7983
686	0.7928
677	0.7861
668	0.7736
659	0.7517
650	0.7347
641	0.7287
632	0.7148
623	0.6642
614	0.5424
605	0.5868
596	0.6131
587	0.6476
578	0.6934
569	0.621
560	0.4871
551	0.6314
542	0.5974
533	0.5681
524	0.5682
515	0.5598
506	0.5554
497	0.5457
488	0.5334
479	0.5851
470	0.624
461	0.641
452	0.6226
443	0.5657
434	0.5856
425	0.5562
416	0.5154
407	0.5015
