Infrared Spectrum: 2,5,8-Trimethyl-1,2,3,4-tetrahydronaphthalene
Formula: C 13 H 18
CAS: 30316-17-7
State: gas
Origin: EPA-IR VAPOR PHASE LIBRARY
1/CM	ABSORBANCE
549.8	0.00274
559.445	0.0009569
569.09	0.0005289
578.734	0.000827
588.379	0.00124
598.024	0.0007962
607.669	0.0006397
617.313	0.00024524
626.958	0.00020089
636.603	0.0004351
646.248	0.0004369
655.893	0.0005611
665.537	0.000691
675.182	0.0007294
684.827	0.0003108
694.472	0.00023629
704.116	0.0003619
713.761	0.00016446
723.406	0.0007782
733.051	0.0006477
742.695	0.0004756
752.34	0.0005825
761.985	0.0006045
771.63	0.0011187
781.275	0.00352
790.919	0.01832
800.564	0.04374
810.209	0.02229
819.854	0.00469
829.498	0.00231
839.143	0.00279
848.788	0.00324
858.433	0.0024
868.078	0.00159
877.722	0.00176
887.367	0.00149
897.012	0.0009379
906.657	0.00116
916.301	0.00129
925.946	0.00158
935.591	0.00254
945.236	0.0025
954.88	0.0024
964.525	0.00266
974.17	0.00302
983.815	0.00237
993.46	0.00259
1003.1	0.00309
1012.75	0.00404
1022.39	0.00463
1032.04	0.00413
1041.68	0.00348
1051.33	0.0024
1060.97	0.00132
1070.62	0.00151
1080.26	0.00129
1089.91	0.00225
1099.55	0.00188
1109.2	0.00129
1118.84	0.00165
1128.49	0.00208
1138.13	0.00237
1147.78	0.00269
1157.42	0.00479
1167.07	0.00443
1176.71	0.00264
1186.36	0.00244
1196	0.00197
1205.64	0.00254
1215.29	0.00296
1224.93	0.00345
1234.58	0.00525
1244.22	0.00671
1253.87	0.00725
1263.51	0.0063
1273.16	0.00479
1282.8	0.0041
1292.45	0.00504
1302.09	0.00573
1311.74	0.00566
1321.38	0.00619
1331.03	0.00749
1340.67	0.00846
1350.32	0.00745
1359.96	0.0058
1369.61	0.00759
1379.25	0.01494
1388.9	0.01294
1398.54	0.00639
1408.18	0.00594
1417.83	0.0079
1427.47	0.01404
1437.12	0.02515
1446.76	0.03397
1456.41	0.04178
1466.05	0.04699
1475.7	0.04016
1485.34	0.02561
1494.99	0.01158
1504.63	0.00581
1514.28	0.00397
1523.92	0.00339
1533.57	0.00312
1543.21	0.00305
1552.86	0.00314
1562.5	0.00342
1572.15	0.00411
1581.79	0.00524
1591.44	0.00803
1601.08	0.00783
1610.73	0.00394
1620.37	0.0022
1630.01	0.00174
1639.66	0.00152
1649.3	0.00148
1658.95	0.0014
1668.59	0.00132
1678.24	0.00116
1687.88	0.0011339
1697.53	0.001123
1707.17	0.0010592
1716.82	0.00144
1726.46	0.00185
1736.11	0.00185
1745.75	0.00125
1755.4	0.0010854
1765.04	0.0008532
1774.69	0.0006854
1784.33	0.0006447
1793.98	0.0006249
1803.62	0.0008089
1813.27	0.0009918
1822.91	0.00117
1832.55	0.00143
1842.2	0.00151
1851.84	0.00223
1861.49	0.00359
1871.13	0.00308
1880.78	0.0016
1890.42	0.0009179
1900.07	0.0006926
1909.71	0.0006339
1919.36	0.0005036
1929	0.0004577
1938.65	0.0005853
1948.29	0.0007204
1957.94	0.0007137
1967.58	0.0008271
1977.23	0.0006047
1986.87	0.0005752
1996.52	0.0004205
2006.16	0.0003251
2015.81	0.0003967
2025.45	0.0004845
2035.1	0.0004659
2044.74	0.000479
2054.38	0.0005772
2064.03	0.0005602
2073.67	0.0004935
2083.32	0.0005237
2092.96	0.0005704
2102.61	0.0005422
2112.25	0.0006188
2121.9	0.0005841
2131.54	0.0004178
2141.19	0.0004183
2150.83	0.0004286
2160.48	0.0003965
2170.12	0.0003846
2179.77	0.000373
2189.41	0.0004524
2199.06	0.0004264
2208.7	0.0004617
2218.35	0.0005455
2227.99	0.000649
2237.64	0.0004761
2247.28	0.0004636
2256.92	0.0004829
2266.57	0.000446
2276.21	0.0006089
2285.86	0.0005783
2295.5	0.0006147
2305.15	0.0006761
2314.79	0.0008031
2324.44	0.0008797
2334.08	0.0008746
2343.73	0.0008134
2353.37	0.0007112
2363.02	0.000765
2372.66	0.0007908
2382.31	0.000764
2391.95	0.0009636
2401.6	0.0010683
2411.24	0.0011083
2420.89	0.0008537
2430.53	0.0009331
2440.18	0.0009936
2449.82	0.0010789
2459.47	0.00116
2469.11	0.00133
2478.75	0.00143
2488.4	0.00123
2498.04	0.00118
2507.69	0.0010275
2517.33	0.0010767
2526.98	0.00116
2536.62	0.0010801
2546.27	0.0010468
2555.91	0.00129
2565.56	0.00136
2575.2	0.00122
2584.85	0.00137
2594.49	0.00153
2604.14	0.00145
2613.78	0.00166
2623.43	0.0018
2633.07	0.00193
2642.72	0.00205
2652.36	0.00242
2662.01	0.00261
2671.65	0.00261
2681.29	0.00243
2690.94	0.00237
2700.58	0.00235
2710.23	0.00273
2719.87	0.00325
2729.52	0.00449
2739.16	0.00565
2748.81	0.00559
2758.45	0.00478
2768.1	0.00448
2777.74	0.00485
2787.39	0.00543
2797.03	0.00703
2806.68	0.00921
2816.32	0.01359
2825.97	0.02111
2835.61	0.02998
2845.26	0.03838
2854.9	0.05465
2864.55	0.07197
2874.19	0.09066
2883.84	0.10154
2893.48	0.08506
2903.12	0.08873
2912.77	0.11618
2922.41	0.17163
2932.06	0.21461
2941.7	0.15846
2951.35	0.11633
2960.99	0.1346
2970.64	0.09663
2980.28	0.05605
2989.93	0.03496
2999.57	0.02622
3009.22	0.0292
3018.86	0.03264
3028.51	0.03298
3038.15	0.02941
3047.8	0.02544
3057.44	0.02608
3067.09	0.02349
3076.73	0.01507
3086.38	0.00935
3096.02	0.00682
3105.67	0.00562
3115.31	0.00446
3124.95	0.00381
3134.6	0.00324
3144.24	0.00291
3153.89	0.00284
3163.53	0.00263
3173.18	0.00243
3182.82	0.00229
3192.47	0.00189
3202.11	0.00151
3211.76	0.0010993
3221.4	0.000483
3231.05	0.0008159
3240.69	0.0008751
3250.34	0.0009025
3259.98	0.0007073
3269.63	0.0008734
3279.27	0.000653
3288.92	0.0009274
3298.56	0.0011415
3308.21	0.0008684
3317.85	0.0005469
3327.49	0.0006196
3337.14	0.0005332
3346.78	0.0007397
3356.43	0.0006498
3366.07	0.0004392
3375.72	0.0005372
3385.36	0.0007571
3395.01	0.0003942
3404.65	0.0004786
3414.3	0.0005749
3423.94	0.0004968
3433.59	0.0005732
3443.23	0.0005669
3452.88	0.0003397
3462.52	0.000138
3472.17	0.0006172
3481.81	0.0004665
3491.46	0.0003158
3501.1	0.0004154
3510.75	0.0003761
3520.39	0.0003972
3530.04	0.0006043
3539.68	0.0001089
3549.32	0.00016954
3558.97	0.0002604
3568.61	0.00016659
3578.26	0.0004103
3587.9	0.0001366
3597.55	0.0003802
3607.19	0.0005046
3616.84	0.0003859
3626.48	0.0004812
3636.13	0.0003495
3645.77	0.0005019
3655.42	0.0002833
3665.06	0.000536
3674.71	0.00023767
3684.35	0.00014263
3694	0.0003663
3703.64	0.0005846
3713.29	0.0005795
3722.93	0.0004152
3732.58	0.0009011
3742.22	0.0007816
3751.86	0.0004948
3761.51	0.0008232
3771.15	0.0005923
3780.8	0.0007937
3790.44	0.0008033
3800.09	0.0008249
3809.73	0.000594
3819.38	0.0006468
3829.02	0.0009114
3838.67	0.0008407
3848.31	0.0005655
3857.96	0.0003118
3867.6	0.0006977
3877.25	0.0006883
3886.89	0.0008785
3896.54	0.0006743
3906.18	0.0007681
3915.83	0.0009042
3925.47	0.0006844
3935.12	0.0007749
3944.76	0.0007572
3954.41	0.0009813
3964.05	0.0006769
3973.69	0.0008237
3983.34	0.0009511
3992.98	0.0008571
