Infrared Spectrum: 3-Hexyn-2,5-diol
Formula: C 6 H 10 O 2
CAS: 3031-66-1
State: gas
Instrument: HP-GC/MS/IRD
Origin: NIST Mass Spectrometry Data Center
1/CM	ABSORBANCE
550	0.000511
562	0.000588
574	0.000588
586	0.0006888
598	0.0006958
610	0.0007224
622	0.000595
634	0.0004998
646	0.00035
658	0.0002366
670	0.0002828
682	0.0003528
694	0.0004732
706	0.0005208
718	0.00049
730	0.0004102
742	0.0001568
754	9.24e-05
766	3.36e-05
778	0.0001036
790	0.0001162
802	0.00021
814	0.0003108
826	0.0004998
838	0.0010276
850	0.002261
862	0.0023604
874	0.0014252
886	0.0014728
898	0.0017164
910	0.0016954
922	0.0013468
934	0.0013986
946	0.0022624
958	0.0041888
970	0.00539
982	0.0045682
994	0.0042574
1006	0.0054096
1018	0.0066962
1030	0.0075432
1042	0.008554
1054	0.0104818
1066	0.0120414
1078	0.0113568
1090	0.0095578
1102	0.0079674
1114	0.0063868
1126	0.0052822
1138	0.006363
1150	0.008491
1162	0.0076734
1174	0.0048342
1186	0.0032718
1198	0.002639
1210	0.0027006
1222	0.0030828
1234	0.0038122
1246	0.0045696
1258	0.0046676
1270	0.0040516
1282	0.0034734
1294	0.0036498
1306	0.0048538
1318	0.0073346
1330	0.0103236
1342	0.0127526
1354	0.014
1366	0.0124656
1378	0.0102872
1390	0.0070784
1402	0.0038038
1414	0.0023464
1426	0.0020118
1438	0.0022106
1450	0.0023142
1462	0.0018508
1474	0.0012054
1486	0.000721
1498	0.0004508
1510	0.0003108
1522	0.0002464
1534	0.0002394
1546	0.0001862
1558	0.0001652
1570	0.0001302
1582	0.0001148
1594	0.0001008
1606	0.0001022
1618	6.72e-05
1630	5.88e-05
1642	7e-05
1654	5.74e-05
1666	5.32e-05
1678	5.74e-05
1690	6.3e-05
1702	8.54e-05
1714	9.24e-05
1726	6.3e-05
1738	6.3e-05
1750	7.28e-05
1762	8.26e-05
1774	3.5e-05
1786	2.8e-05
1798	2.94e-05
1810	2.38e-05
1822	2.94e-05
1834	0
1846	3.64e-05
1858	6.3e-05
1870	8.54e-05
1882	8.4e-05
1894	7.42e-05
1906	5.18e-05
1918	9.52e-05
1930	8.96e-05
1942	9.66e-05
1954	8.82e-05
1966	9.8e-05
1978	8.26e-05
1990	6.72e-05
2002	5.32e-05
2014	4.06e-05
2026	4.48e-05
2038	3.92e-05
2050	5.6e-05
2062	6.58e-05
2074	5.04e-05
2086	2.8e-05
2098	3.64e-05
2110	3.36e-05
2122	4.9e-05
2134	4.06e-05
2146	6.16e-05
2158	5.18e-05
2170	3.78e-05
2182	5.04e-05
2194	6.02e-05
2206	5.88e-05
2218	9.52e-05
2230	9.8e-05
2242	9.66e-05
2254	6.58e-05
2266	5.32e-05
2278	3.08e-05
2290	7.14e-05
2302	4.2e-05
2314	5.6e-05
2326	5.6e-05
2338	4.9e-05
2350	3.64e-05
2362	4.06e-05
2374	4.62e-05
2386	5.46e-05
2398	7.84e-05
2410	8.82e-05
2422	0.0001246
2434	0.0001148
2446	0.0001302
2458	0.000119
2470	9.8e-05
2482	0.0001092
2494	0.0001064
2506	0.0001092
2518	9.94e-05
2530	7.7e-05
2542	8.54e-05
2554	9.66e-05
2566	0.0001316
2578	0.0001792
2590	0.0002184
2602	0.000252
2614	0.0002226
2626	0.0001918
2638	0.0001344
2650	0.0001386
2662	0.0001386
2674	0.0001022
2686	0.00014
2698	0.0001694
2710	0.0001694
2722	0.0001764
2734	0.0002184
2746	0.0002198
2758	0.0002604
2770	0.0002422
2782	0.0003178
2794	0.000378
2806	0.0004186
2818	0.000483
2830	0.0005418
2842	0.0006538
2854	0.0010696
2866	0.0020552
2878	0.0034468
2890	0.004634
2902	0.0049406
2914	0.004501
2926	0.004144
2938	0.004452
2950	0.0038066
2962	0.0032368
2974	0.0052724
2986	0.0111188
2998	0.0105406
3010	0.0036624
3022	0.0012432
3034	0.0004676
3046	0.0002856
3058	0.0002548
3070	0.0003052
3082	0.0002786
3094	0.00021
3106	0.0001862
3118	0.0001708
3130	0.0001708
3142	0.0001204
3154	0.0001484
3166	0.0001638
3178	0.0001652
3190	0.000168
3202	0.0001582
3214	0.0001764
3226	0.0001652
3238	0.0001274
3250	8.12e-05
3262	0.0001414
3274	5.04e-05
3286	3.36e-05
3298	7.42e-05
3310	0.000105
3322	8.26e-05
3334	8.96e-05
3346	0.0001134
3358	9.38e-05
3370	0.0001386
3382	0.0001316
3394	0.0002142
3406	0.0002338
3418	0.0001764
3430	0.0001386
3442	0.000175
3454	0.0001918
3466	0.0001932
3478	0.0002142
3490	0.0002128
3502	0.000273
3514	0.0002562
3526	0.0002282
3538	0.0001694
3550	0.000196
3562	0.000154
3574	0.0002254
3586	0.0001988
3598	0.0002968
3610	0.0005796
3622	0.001393
3634	0.0029848
3646	0.00448
3658	0.0042126
3670	0.0023058
3682	0.000924
3694	0.0003346
3706	0.0001596
3718	0.0001582
3730	0.0001988
3742	0.000133
3754	0.00014
3766	0.0001834
3778	0.0001428
3790	0.0001708
3802	0.0001456
3814	0.0001204
3826	0.0001358
3838	0.0001862
