Infrared Spectrum: 2,4-Hexadiyne-1,6-diol
Formula: C 6 H 6 O 2
CAS: 3031-68-3
State: gas
Origin: EPA-IR VAPOR PHASE LIBRARY
1/CM	ABSORBANCE
551.7	0.002173
563.274	0.001923
574.848	0.001563
586.421	0.001513
597.995	0.0014153
609.569	0.001573
621.143	0.001733
632.717	0.0014422
644.291	0.001295
655.864	0.0011658
667.438	0.0011983
679.012	0.0010576
690.586	0.0009964
702.16	0.0009441
713.734	0.0009829
725.307	0.0009454
736.881	0.0007885
748.455	0.0008182
760.029	0.0007505
771.603	0.0007516
783.177	0.0007701
794.75	0.0007421
806.324	0.0007356
817.898	0.0008022
829.472	0.0008518
841.046	0.0008668
852.619	0.0009829
864.193	0.001122
875.767	0.0013846
887.341	0.001663
898.915	0.002033
910.489	0.002323
922.062	0.002683
933.636	0.002893
945.21	0.003003
956.784	0.003643
968.358	0.004803
979.932	0.006233
991.505	0.008173
1003.08	0.010543
1014.65	0.015083
1026.23	0.025923
1037.8	0.025753
1049.37	0.011113
1060.95	0.005593
1072.52	0.003363
1084.1	0.002353
1095.67	0.001823
1107.24	0.001783
1118.82	0.001723
1130.39	0.001613
1141.97	0.001703
1153.54	0.001693
1165.11	0.001823
1176.69	0.001943
1188.26	0.002033
1199.83	0.002233
1211.41	0.002333
1222.98	0.002413
1234.56	0.002363
1246.13	0.002293
1257.7	0.002183
1269.28	0.002383
1280.85	0.002443
1292.42	0.002653
1304	0.002633
1315.57	0.002843
1327.15	0.003343
1338.72	0.004543
1350.29	0.006773
1361.87	0.010403
1373.44	0.013503
1385.02	0.012803
1396.59	0.008653
1408.16	0.005003
1419.74	0.003023
1431.31	0.001913
1442.88	0.0014379
1454.46	0.0012341
1466.03	0.0010211
1477.61	0.0008344
1489.18	0.000749
1500.75	0.0007056
1512.33	0.000736
1523.9	0.0007131
1535.48	0.0006579
1547.05	0.0005787
1558.62	0.00052041
1570.2	0.000297
1581.77	0.000161
1593.34	0.000133
1604.92	0.000105
1616.49	0.00011
1628.07	6.3e-05
1639.64	0.000131
1651.21	0.000157
1662.79	9.6e-05
1674.36	0.000247
1685.93	0.00054891
1697.51	0.000343
1709.08	0.000295
1720.66	0.000333
1732.23	0.000399
1743.8	0.00052454
1755.38	0.0004279
1766.95	0.00053355
1778.53	0.00054815
1790.1	0.0005752
1801.67	0.0005223
1813.25	0.0004376
1824.82	0.0004034
1836.39	0.0004
1847.97	0.0004182
1859.54	0.000367
1871.12	0.0004195
1882.69	0.0003988
1894.26	0.0004291
1905.84	0.0004449
1917.41	0.000475856
1928.99	0.00046324
1940.56	0.00047067
1952.13	0.0004544
1963.71	0.0004501
1975.28	0.000476691
1986.85	0.00047052
1998.43	0.00049221
2010	0.0005277
2021.58	0.00056532
2033.15	0.0006377
2044.72	0.0006357
2056.3	0.0005734
2067.87	0.00053675
2079.44	0.000476987
2091.02	0.00054045
2102.59	0.0007148
2114.17	0.0010413
2125.74	0.0012057
2137.31	0.0008124
2148.89	0.0008117
2160.46	0.001095
2172.04	0.001523
2183.61	0.0011473
2195.18	0.00053882
2206.76	0.0004249
2218.33	0.00049811
2229.9	0.00049622
2241.48	0.000479803
2253.05	0.0004056
2264.63	0.00037
2276.2	0.000322
2287.77	0.000353
2299.35	0.0004119
2310.92	0.0004257
2322.5	0.0004181
2334.07	0.0004319
2345.64	0.0004187
2357.22	0.0004588
2368.79	0.0005771
2380.36	0.0003868
2391.94	0.00027
2403.51	0.000298
2415.09	0.000313
2426.66	0.00028
2438.23	0.000257
2449.81	0.000257
2461.38	0.000255
2472.96	0.000251
2484.53	0.000246
2496.1	0.0002
2507.68	0.000248
2519.25	0.000167
2530.82	0.000229
2542.4	0.00021
2553.97	0.000199
2565.55	0.000191
2577.12	0.000202
2588.69	0.000241
2600.27	0.000203
2611.84	0.00021
2623.41	0.000243
2634.99	0.000242
2646.56	0.000249
2658.14	0.000234
2669.71	0.000292
2681.28	0.000269
2692.86	0.000344
2704.43	0.000354
2716.01	0.000335
2727.58	0.0004027
2739.15	0.0004376
2750.73	0.00050298
2762.3	0.00056846
2773.87	0.0005742
2785.45	0.00048788
2797.02	0.0007135
2808.6	0.0008622
2820.17	0.0009155
2831.74	0.0010461
2843.32	0.0014223
2854.89	0.002023
2866.47	0.002653
2878.04	0.003423
2889.61	0.003443
2901.19	0.003153
2912.76	0.003353
2924.33	0.003363
2935.91	0.003353
2947.48	0.002993
2959.06	0.002353
2970.63	0.001573
2982.2	0.0009685
2993.78	0.0006418
3005.35	0.0004563
3016.92	0.000318
3028.5	0.000286
3040.07	0.000216
3051.65	0.000182
3063.22	0.000166
3074.79	0.000184
3086.37	0.000104
3097.94	8e-05
3109.52	9.5e-05
3121.09	0.000123
3132.66	0.000155
3144.24	0.000159
3155.81	0.000196
3167.38	0.000172
3178.96	0.000152
3190.53	0.000113
3202.11	9e-05
3213.68	0.000137
3225.25	0.000149
3236.83	0.000217
3248.4	0.000117
3259.98	0.000125
3271.55	0.000247
3283.12	0.000205
3294.7	0.000263
3306.27	0.000364
3317.84	0.00050426
3329.42	0.0004149
3340.99	0.0004142
3352.57	0.000276
3364.14	0.000289
3375.71	0.000222
3387.29	0.000336
3398.86	0.000343
3410.43	0.0004563
3422.01	0.0004103
3433.58	0.0004084
3445.16	0.000312
3456.73	0.000366
3468.3	0.0004627
3479.88	0.0004539
3491.45	0.0004303
3503.03	0.00047008
3514.6	0.0004203
3526.17	0.00052935
3537.75	0.0004017
3549.32	0.000473405
3560.89	0.0004226
3572.47	0.00055414
3584.04	0.0006356
3595.62	0.0006127
3607.19	0.0008192
3618.76	0.0013802
3630.34	0.002013
3641.91	0.002543
3653.49	0.003473
3665.06	0.003483
3676.63	0.002703
3688.21	0.001863
3699.78	0.0010748
3711.35	0.0005791
3722.93	0.000481004
3734.5	0.0004069
3746.08	0.00049416
3757.65	0.000321
3769.22	0.000246
3780.8	0.000227
3792.37	0.00022
3803.94	0.000276
3815.52	0.000293
3827.09	0.000217
3838.67	0.000325
3850.24	0.000299
3861.81	0.000301
3873.39	0.000247
3884.96	0.000355
3896.54	0.000335
3908.11	0.000225
3919.68	0.000191
3931.26	4.8e-05
3942.83	7.5e-05
3954.4	5.3e-05
3965.98	6.5e-05
3977.55	6.8e-05
3989.13	2.3e-05
4000.7	9.1e-05
