Infrared Spectrum: 8-Chloroquinaldine
Formula: C 10 H 8 Cl N
CAS: 3033-82-7
State: gas
Origin: EPA-IR VAPOR PHASE LIBRARY
1/CM	ABSORBANCE
549.8	0.0011967
559.445	0.001856
569.09	0.001436
578.734	0.0012534
588.379	0.0009823
598.024	0.0012323
607.669	0.0007426
617.313	0.0008532
626.958	0.001456
636.603	0.003086
646.248	0.005126
655.893	0.011286
665.537	0.033746
675.182	0.028286
684.827	0.004726
694.472	0.006266
704.116	0.008776
713.761	0.005916
723.406	0.003486
733.051	0.006766
742.695	0.031236
752.34	0.074396
761.985	0.028456
771.63	0.009016
781.275	0.018576
790.919	0.031256
800.564	0.014286
810.209	0.011476
819.854	0.037286
829.498	0.086426
839.143	0.041016
848.788	0.010496
858.433	0.004856
868.078	0.003726
877.722	0.007116
887.367	0.007256
897.012	0.004066
906.657	0.002736
916.301	0.002316
925.946	0.001866
935.591	0.003266
945.236	0.004136
954.88	0.006566
964.525	0.015436
974.17	0.028246
983.815	0.027356
993.46	0.020326
1003.1	0.025166
1012.75	0.025786
1022.39	0.018356
1032.04	0.009506
1041.68	0.008496
1051.33	0.009066
1060.97	0.007036
1070.62	0.005776
1080.26	0.003396
1089.91	0.002626
1099.55	0.002326
1109.2	0.003186
1118.84	0.004866
1128.49	0.012106
1138.13	0.013756
1147.78	0.010516
1157.42	0.008236
1167.07	0.005066
1176.71	0.007266
1186.36	0.016996
1196	0.037126
1205.64	0.035146
1215.29	0.011166
1224.93	0.006736
1234.58	0.012596
1244.22	0.014846
1253.87	0.006546
1263.51	0.002066
1273.16	0.002256
1282.8	0.004416
1292.45	0.009296
1302.09	0.019106
1311.74	0.035026
1321.38	0.026846
1331.03	0.007796
1340.67	0.004946
1350.32	0.005616
1359.96	0.008246
1369.61	0.014296
1379.25	0.016606
1388.9	0.010826
1398.54	0.009136
1408.18	0.017086
1417.83	0.041596
1427.47	0.055946
1437.12	0.038876
1446.76	0.029436
1456.41	0.023656
1466.05	0.013546
1475.7	0.011786
1485.34	0.026736
1494.99	0.057466
1504.63	0.055396
1514.28	0.022666
1523.92	0.011636
1533.57	0.012056
1543.21	0.018226
1552.86	0.020466
1562.5	0.012436
1572.15	0.008516
1581.79	0.014746
1591.44	0.038986
1601.08	0.071736
1610.73	0.066466
1620.37	0.034486
1630.01	0.017156
1639.66	0.011626
1649.3	0.006896
1658.95	0.004036
1668.59	0.003256
1678.24	0.003146
1687.88	0.003126
1697.53	0.003126
1707.17	0.003516
1716.82	0.004266
1726.46	0.003496
1736.11	0.002256
1745.75	0.002216
1755.4	0.002086
1765.04	0.001736
1774.69	0.002836
1784.33	0.004866
1793.98	0.004116
1803.62	0.002026
1813.27	0.0012103
1822.91	0.0010853
1832.55	0.001646
1842.2	0.003336
1851.84	0.004406
1861.49	0.003016
1871.13	0.001706
1880.78	0.0010888
1890.42	0.001286
1900.07	0.002246
1909.71	0.004346
1919.36	0.005826
1929	0.004986
1938.65	0.002886
1948.29	0.001286
1957.94	0.0010159
1967.58	0.0010014
1977.23	0.0009405
1986.87	0.0010615
1996.52	0.0008595
2006.16	0.0010051
2015.81	0.001022
2025.45	0.0009524
2035.1	0.0006864
2044.74	0.0007326
2054.38	0.0007655
2064.03	0.0010087
2073.67	0.001306
2083.32	0.001416
2092.96	0.0011296
2102.61	0.0009268
2112.25	0.0010034
2121.9	0.0010104
2131.54	0.0009422
2141.19	0.0008401
2150.83	0.0010644
2160.48	0.0010073
2170.12	0.0008242
2179.77	0.0007961
2189.41	0.0009992
2199.06	0.0008032
2208.7	0.0009458
2218.35	0.0007717
2227.99	0.0006561
2237.64	0.0006615
2247.28	0.0007142
2256.92	0.001306
2266.57	0.001336
2276.21	0.001386
2285.86	0.0011064
2295.5	0.0009402
2305.15	0.000964
2314.79	0.0010423
2324.44	0.0010923
2334.08	0.0010357
2343.73	0.001326
2353.37	0.0010381
2363.02	0.000848
2372.66	0.0009224
2382.31	0.0012703
2391.95	0.0011377
2401.6	0.001336
2411.24	0.0009546
2420.89	0.0010738
2430.53	0.001316
2440.18	0.001326
2449.82	0.001296
2459.47	0.0010787
2469.11	0.0011577
2478.75	0.0010327
2488.4	0.001556
2498.04	0.0011255
2507.69	0.0011232
2517.33	0.0010836
2526.98	0.0007633
2536.62	0.0009186
2546.27	0.0009344
2555.91	0.0010942
2565.56	0.0010441
2575.2	0.0011163
2584.85	0.0011118
2594.49	0.0011777
2604.14	0.0009877
2613.78	0.001376
2623.43	0.0012724
2633.07	0.0010864
2642.72	0.0006361
2652.36	0.0011794
2662.01	0.0012138
2671.65	0.0009935
2681.29	0.0007945
2690.94	0.0011077
2700.58	0.0009792
2710.23	0.0006432
2719.87	0.0010268
2729.52	0.001426
2739.16	0.0011537
2748.81	0.0012107
2758.45	0.001306
2768.1	0.0010347
2777.74	0.000982
2787.39	0.0010181
2797.03	0.0011799
2806.68	0.001356
2816.32	0.001896
2825.97	0.001956
2835.61	0.002276
2845.26	0.003376
2854.9	0.004746
2864.55	0.005266
2874.19	0.004996
2883.84	0.005486
2893.48	0.005676
2903.12	0.006496
2912.77	0.008116
2922.41	0.015466
2932.06	0.022996
2941.7	0.017516
2951.35	0.010616
2960.99	0.009006
2970.64	0.006116
2980.28	0.004556
2989.93	0.004536
2999.57	0.007096
3009.22	0.010036
3018.86	0.010996
3028.51	0.012786
3038.15	0.018456
3047.8	0.030616
3057.44	0.050116
3067.09	0.047256
3076.73	0.022926
3086.38	0.011176
3096.02	0.007956
3105.67	0.007056
3115.31	0.004386
3124.95	0.002356
3134.6	0.001806
3144.24	0.001506
3153.89	0.0011387
3163.53	0.0007069
3173.18	0.0008267
3182.82	0.0009709
3192.47	0.001286
3202.11	0.001197
3211.76	0.001306
3221.4	0.0007722
3231.05	0.0010131
3240.69	0.0006298
3250.34	0.00037124
3259.98	0.000778
3269.63	0.0006143
3279.27	0.0007451
3288.92	0.0006515
3298.56	0.0006346
3308.21	0.0006439
3317.85	0.0006998
3327.49	0.0005451
3337.14	0.0009389
3346.78	0.0004063
3356.43	0.000503
3366.07	0.0004852
3375.72	0.0006727
3385.36	0.0007137
3395.01	0.00036411
3404.65	0.0005602
3414.3	0.0003404
3423.94	0.0008109
3433.59	0.0005617
3443.23	0.0007322
3452.88	0.0004792
3462.52	0.0004526
3472.17	0.0005152
3481.81	0.0006489
3491.46	0.0012016
3501.1	0.0008082
3510.75	0.0007306
3520.39	0.0011618
3530.04	0.0010543
3539.68	0.0006626
3549.32	0.0005924
3558.97	0.0006296
3568.61	0.0008527
3578.26	0.0008267
3587.9	0.0009484
3597.55	0.0006326
3607.19	0.0006309
3616.84	0.0007033
3626.48	0.0008032
3636.13	0.0004883
3645.77	0.0002433
3655.42	0.0005795
3665.06	0.0008898
3674.71	0.0007743
3684.35	0.0009632
3694	0.0006532
3703.64	0.0010376
3713.29	0.001024
3722.93	0.001065
3732.58	0.0009966
3742.22	0.0009544
3751.86	0.0008032
3761.51	0.0005332
3771.15	0.0008134
3780.8	0.0008229
3790.44	0.0010987
3800.09	0.0006943
3809.73	0.0008803
3819.38	0.0009091
3829.02	0.000768
3838.67	0.001306
3848.31	0.0010941
3857.96	0.0009002
3867.6	0.0007374
3877.25	0.0009516
3886.89	0.0007935
3896.54	0.0012035
3906.18	0.001706
3915.83	0.0011917
3925.47	0.0011878
3935.12	0.0011192
3944.76	0.0012227
3954.41	0.001336
3964.05	0.0010548
3973.69	0.0008321
3983.34	0.0009963
3992.98	0.0012556
