Infrared Spectrum: 2-Bromo-5-nitrothiazole
Formula: C3 H Br N2 O2 S
CAS: 3034-48-8
State: SOLID (SPLIT MULL)
Class: COBLENTZ III
Instrument: DOW KBr FOREPRISM-GRATING
Instrument parameters: BLAZED AT 3.5, 12.0, 20.0 MICRON AND CHANGED AT 5.0, 7.5, 14.9 MICRON
Sampling: TRANSMISSION
Resolution: 2
Origin: DOW CHEMICAL COMPANY
1/CM	TRANSMITTANCE
3800	0.7418
3791	0.7426
3782	0.7436
3773	0.7443
3764	0.7461
3755	0.7499
3746	0.7544
3737	0.7611
3728	0.7625
3719	0.7571
3710	0.7568
3701	0.7585
3692	0.7599
3683	0.7584
3674	0.7626
3665	0.7656
3656	0.7635
3647	0.7606
3638	0.763
3629	0.7651
3620	0.7655
3611	0.7676
3602	0.7708
3593	0.7708
3584	0.7697
3575	0.7443
3566	0.7718
3557	0.7739
3548	0.7747
3539	0.7751
3530	0.7756
3521	0.7758
3512	0.7764
3503	0.7769
3494	0.7775
3485	0.778
3476	0.7811
3467	0.7861
3458	0.7874
3449	0.7868
3440	0.7865
3431	0.7878
3422	0.7912
3413	0.7925
3404	0.7914
3395	0.7907
3386	0.7897
3377	0.7897
3368	0.7911
3359	0.7926
3350	0.7982
3341	0.8018
3332	0.8012
3323	0.8005
3314	0.8019
3305	0.8033
3296	0.8058
3287	0.8086
3278	0.8105
3269	0.8112
3260	0.8092
3251	0.8108
3242	0.8151
3233	0.813
3224	0.8121
3215	0.813
3206	0.8148
3197	0.8169
3188	0.8189
3179	0.8197
3170	0.8204
3161	0.821
3152	0.8215
3143	0.8214
3134	0.8218
3125	0.8241
3116	0.8282
3107	0.833
3098	0.8434
3089	0.8467
3080	0.3772
3071	0.7261
3062	0.7878
3053	0.7987
3044	0.8076
3035	0.8136
3026	0.8182
3017	0.8218
3008	0.8251
2999	0.8281
2990	0.8304
2981	0.832
2972	0.8333
2963	0.8342
2954	0.8345
2945	0.8368
2936	0.8406
2927	0.8405
2918	0.8407
2909	0.8421
2900	0.8443
2891	0.8466
2882	0.8489
2873	0.8502
2864	0.8507
2855	0.8482
2846	0.8464
2837	0.8467
2828	0.8483
2819	0.8514
2810	0.8571
2801	0.8663
2792	0.8731
2783	0.8767
2774	0.8737
2765	0.8732
2756	0.8798
2747	0.8844
2738	0.8878
2729	0.8895
2720	0.8809
2711	0.8601
2702	0.8823
2693	0.8833
2684	0.8807
2675	0.8871
2666	0.8959
2657	0.9025
2648	0.8987
2639	0.893
2630	0.8923
2621	0.9011
2612	0.908
2603	0.9131
2594	0.9173
2585	0.9215
2576	0.9258
2567	0.9295
2558	0.9331
2549	0.9358
2540	0.9386
2531	0.9411
2522	0.9434
2513	0.9454
2504	0.9464
2495	0.9451
2486	0.9443
2477	0.9443
2468	0.9461
2459	0.9359
2450	0.9075
2441	0.9267
2432	0.9404
2423	0.9468
2414	0.9513
2405	0.9531
2396	0.9528
2387	0.9558
2378	0.9585
2369	0.9588
2360	0.9548
2351	0.9465
2342	0.9432
2333	0.94
2324	0.9412
2315	0.9495
2306	0.9563
2297	0.9613
2288	0.9663
2279	0.971
2270	0.9731
2261	0.9784
2252	0.9839
2243	0.9844
2234	0.9836
2225	0.9867
2216	0.992
2207	0.997
2198	1.0009
2189	1.0021
2180	1.0036
2171	1.005
2162	1.0068
2153	1.009
2144	1.0105
2135	1.0085
2126	1.0039
2117	1.0044
2108	1.0021
2099	0.9984
2090	0.9991
2081	1.0003
2072	1.0018
2063	1.0033
2054	1.0043
2045	1.005
2036	1.0054
2027	1.0056
2018	1.0057
2009	1.0056
2000	1.0042
1991	1.0011
1982	1.004
1973	1.0063
1964	1.0094
1955	1.0154
1946	1.0058
1937	1.0112
1928	1.0136
1919	1.0168
1910	1.0174
1901	1.0136
1892	1.0211
1883	1.0238
1874	1.024
1865	1.0157
1856	1.015
1847	1.0178
1838	1.0168
1829	1.0168
1820	1.0158
1811	0.946
1802	1.0116
1793	1.0135
1784	1.0171
1775	0.9983
1766	1.0175
1757	1.0244
1748	1.0244
1739	1.0227
1730	1.0297
1721	1.025
1712	1.0236
1703	1.0196
1694	1.0316
1685	1.0257
1676	1.0285
1667	1.032
1658	1.0357
1649	1.0395
1640	1.0332
1631	1.032
1622	0.9978
1613	1.0183
1604	1.0291
1595	1.0239
1586	1.0341
1577	1.0318
1568	0.9814
1559	1.0243
1550	1.0025
1541	0.9571
1532	0.4881
1523	0.0743
1514	0.2579
1505	0.4807
1496	0.5454
1487	0.6333
1478	0.7685
1469	0.9023
1460	0.9674
1451	0.9875
1442	0.9975
1433	0.9985
1424	1.0261
1415	1.0401
1406	0.9506
1397	1.0214
1388	1.0193
1379	0.899
1370	0.8536
1361	0.1342
1352	0.1248
1343	0.0506
1334	0.1394
1325	0.4572
1316	0.7146
1307	0.7804
1298	0.5269
1289	0.4335
1280	0.7611
1271	0.8104
1262	0.8363
1253	0.8662
1244	0.8939
1235	0.919
1226	0.9421
1217	0.8671
1208	0.9251
1199	0.9473
1190	0.6945
1181	0.9164
1172	0.9281
1163	0.9553
1154	0.5998
1145	0.6418
1136	0.8857
1127	0.9305
1118	0.7396
1109	0.9249
1100	0.9324
1091	0.9448
1082	0.9482
1073	0.9021
1064	0.9457
1055	0.959
1046	0.9701
1037	0.9688
1028	0.9809
1019	0.4141
1010	0.4882
1001	0.7648
992	0.9259
983	0.9503
974	0.9539
965	0.9587
956	0.9578
947	0.9621
938	0.9665
929	0.9703
920	0.9721
911	0.9511
902	0.9525
893	0.9749
884	0.9825
875	0.9695
866	0.9795
857	0.9908
848	0.995
839	0.9965
830	1.0056
821	1.0057
812	0.2687
803	0.9427
794	0.9714
785	0.9821
776	0.9838
767	0.9808
758	0.9766
749	0.9363
740	0.9644
731	0.803
722	0.9339
713	0.9539
704	0.9827
695	0.9914
686	0.9954
677	0.9966
668	0.9948
659	0.9947
650	0.9823
641	0.9881
632	0.9813
623	0.9866
614	0.9796
605	0.977
596	0.9661
587	0.951
578	0.9657
569	0.9593
560	0.9509
551	0.9438
542	0.9378
533	0.9342
524	0.9328
515	0.932
506	0.9282
497	0.9033
488	0.9125
479	0.8285
470	0.8833
461	0.8782
