Infrared Spectrum: 2-Amino-4-anilino-6-(chloromethyl)-s-triazine
Formula: C10 H10 Cl N5
CAS: 30355-60-3
State: SOLID (SPLIT MULL), FLUOROLUBE FOR 3800-1330 CM^-^1, NUJOL FOR 1330-400 CM^-^1
Melting point: 145 C
Class: COBLENTZ II
Instrument: BECKMAN IR-9 (GRATING)
Instrument parameters: ORDER CHANGES: 670, 1200, 2000 CM^-^1
Sampling: TRANSMISSION
Resolution: 2
Origin: DOW CHEMICAL COMPANY
1/CM	TRANSMITTANCE
3800	0.7375
3791	0.7381
3782	0.7389
3773	0.7397
3764	0.7408
3755	0.7424
3746	0.7439
3737	0.7458
3728	0.7478
3719	0.7494
3710	0.751
3701	0.7525
3692	0.7537
3683	0.7541
3674	0.7547
3665	0.7551
3656	0.755
3647	0.7549
3638	0.7547
3629	0.7545
3620	0.7543
3611	0.7544
3602	0.7546
3593	0.7565
3584	0.7594
3575	0.7622
3566	0.7655
3557	0.7678
3548	0.77
3539	0.7715
3530	0.7722
3521	0.7717
3512	0.769
3503	0.7614
3494	0.7261
3485	0.5081
3476	0.2868
3467	0.398
3458	0.5598
3449	0.7021
3440	0.7261
3431	0.7391
3422	0.7465
3413	0.7508
3404	0.7534
3395	0.7537
3386	0.7521
3377	0.748
3368	0.7391
3359	0.7154
3350	0.6786
3341	0.6457
3332	0.5731
3323	0.4596
3314	0.4652
3305	0.4794
3296	0.4777
3287	0.4755
3278	0.4832
3269	0.4955
3260	0.5085
3251	0.5104
3242	0.4915
3233	0.467
3224	0.4392
3215	0.4139
3206	0.3929
3197	0.3759
3188	0.3609
3179	0.3459
3170	0.3377
3161	0.345
3152	0.3614
3143	0.3818
3134	0.4064
3125	0.4365
3116	0.4575
3107	0.481
3098	0.4883
3089	0.4954
3080	0.5054
3071	0.516
3062	0.5269
3053	0.5381
3044	0.5547
3035	0.5715
3026	0.5883
3017	0.6046
3008	0.6199
2999	0.6243
2990	0.6241
2981	0.6301
2972	0.6462
2963	0.6603
2954	0.6701
2945	0.6798
2936	0.6886
2927	0.6971
2918	0.7064
2909	0.7157
2900	0.7237
2891	0.7312
2882	0.7375
2873	0.7432
2864	0.7488
2855	0.7538
2846	0.7578
2837	0.7614
2828	0.7648
2819	0.7671
2810	0.7693
2801	0.7701
2792	0.7708
2783	0.7711
2774	0.7718
2765	0.7794
2756	0.7874
2747	0.7943
2738	0.7984
2729	0.8018
2720	0.8048
2711	0.8069
2702	0.8086
2693	0.8078
2684	0.8058
2675	0.8048
2666	0.8068
2657	0.8091
2648	0.8122
2639	0.8153
2630	0.8178
2621	0.8194
2612	0.821
2603	0.8216
2594	0.8223
2585	0.8225
2576	0.8224
2567	0.8225
2558	0.8237
2549	0.8249
2540	0.826
2531	0.8271
2522	0.8283
2513	0.8293
2504	0.8302
2495	0.8313
2486	0.8323
2477	0.8334
2468	0.8347
2459	0.8362
2450	0.8375
2441	0.8386
2432	0.8394
2423	0.8405
2414	0.8418
2405	0.8427
2396	0.8436
2387	0.8478
2378	0.8544
2369	0.853
2360	0.852
2351	0.8509
2342	0.849
2333	0.847
2324	0.8447
2315	0.8423
2306	0.8418
2297	0.8414
2288	0.8427
2279	0.8446
2270	0.8471
2261	0.8496
2252	0.8521
2243	0.8555
2234	0.8581
2225	0.8601
2216	0.862
2207	0.8639
2198	0.8656
2189	0.8668
2180	0.8682
2171	0.869
2162	0.8699
2153	0.8711
2144	0.8731
2135	0.8752
2126	0.8775
2117	0.8797
2108	0.8814
2099	0.8832
2090	0.8851
2081	0.887
2072	0.8888
2063	0.8909
2054	0.8934
2045	0.8963
2036	0.8984
2027	0.9001
2018	0.9015
2009	0.8991
2000	0.8982
1991	0.8993
1982	0.8992
1973	0.8978
1964	0.8954
1955	0.892
1946	0.8968
1937	0.9047
1928	0.9052
1919	0.9033
1910	0.901
1901	0.9001
1892	0.8982
1883	0.8981
1874	0.9021
1865	0.9045
1856	0.9062
1847	0.907
1838	0.9073
1829	0.9074
1820	0.9068
1811	0.9064
1802	0.9057
1793	0.9053
1784	0.9045
1775	0.903
1766	0.8986
1757	0.8965
1748	0.896
1739	0.8983
1730	0.9002
1721	0.9004
1712	0.8959
1703	0.8868
1694	0.8728
1685	0.8534
1676	0.8197
1667	0.7549
1658	0.4847
1649	0.3051
1640	0.3016
1631	0.3497
1622	0.1178
1613	0.0626
1604	0.3252
1595	0.4676
1586	0.1195
1577	0.1146
1568	0.1513
1559	0.068
1550	0.1886
1541	0.222
1532	0.1279
1523	0.1815
1514	0.4512
1505	0.5129
1496	0.373
1487	0.3325
1478	0.4073
1469	0.6042
1460	0.6147
1451	0.1288
1442	0.2327
1433	0.384
1424	0.4291
1415	0.3577
1406	0.509
1397	0.5772
1388	0.571
1379	0.4642
1370	0.5609
1361	0.6912
1352	0.7006
1343	0.7065
1334	0.7264
1325	0.7357
1316	0.7301
1307	0.7267
1298	0.6847
1289	0.7318
1280	0.6458
1271	0.6703
1262	0.6503
1253	0.7418
1244	0.7725
1235	0.7569
1226	0.7814
1217	0.8044
1208	0.8122
1199	0.8161
1190	0.8101
1181	0.7888
1172	0.7801
1163	0.7244
1154	0.5899
1145	0.773
1136	0.7969
1127	0.8141
1118	0.827
1109	0.8325
1100	0.8353
1091	0.8313
1082	0.7992
1073	0.8262
1064	0.832
1055	0.8388
1046	0.8412
1037	0.8168
1028	0.8138
1019	0.8343
1010	0.8354
1001	0.8375
992	0.8325
983	0.7794
974	0.7908
965	0.8251
956	0.8392
947	0.8471
938	0.8497
929	0.8466
920	0.8295
911	0.8431
902	0.8443
893	0.8521
884	0.858
875	0.86
866	0.8578
857	0.852
848	0.8455
839	0.8349
830	0.8261
821	0.6145
812	0.8371
803	0.852
794	0.8457
785	0.8184
776	0.6084
767	0.5672
758	0.7508
749	0.6747
740	0.7493
731	0.7197
722	0.6398
713	0.7218
704	0.6918
695	0.587
686	0.7574
677	0.6693
668	0.7919
659	0.8314
650	0.8507
641	0.8627
632	0.8392
623	0.8046
614	0.8681
605	0.8759
596	0.8394
587	0.8745
578	0.8778
569	0.8317
560	0.8286
551	0.8655
542	0.8542
533	0.8447
524	0.8387
515	0.7774
506	0.7843
497	0.795
488	0.794
479	0.755
470	0.7578
461	0.7388
452	0.6867
443	0.6156
434	0.5412
425	0.5273
416	0.5119
407	0.506
