Infrared Spectrum: 4-(DIETHOXYMETHYLSILYL)BUTYLAMINE
Formula: C9 H23 N O2 Si
CAS: 3037-72-7
State: LIQUID (NEAT)
Class: COBLENTZ
Instrument: DOW KBr FOREPRISM-GRATING
Instrument parameters: BLAZED AT 3.5, 12.0, 20.0 MICRON AND CHANGED AT 5.0, 7.5, 14.9 MICRON
Sampling: TRANSMISSION
Path length: CAPILLARY
Resolution: 2
Origin: DOW CHEMICAL COMPANY
1/CM	TRANSMITTANCE
383.029	0.634
391.807	0.641
400.586	0.648
409.364	0.656
418.142	0.668
426.921	0.684
435.699	0.706
444.477	0.755
453.256	0.804
462.034	0.833
470.812	0.851
479.591	0.868
488.369	0.877
497.147	0.885
505.926	0.905
514.704	0.917
523.482	0.924
532.261	0.928
541.039	0.934
549.818	0.938
558.596	0.94
567.374	0.942
576.153	0.947
584.931	0.953
593.709	0.953
602.488	0.947
611.266	0.946
620.044	0.947
628.823	0.945
637.601	0.951
646.379	0.95
655.158	0.936
663.936	0.916
672.714	0.92
681.493	0.923
690.271	0.914
699.049	0.881
707.828	0.842
716.606	0.778
725.384	0.706
734.163	0.719
742.941	0.659
751.719	0.543
760.498	0.436
769.276	0.421
778.054	0.342
786.833	0.328
795.611	0.285
804.389	0.225
813.168	0.223
821.946	0.218
830.724	0.302
839.503	0.442
848.281	0.506
857.06	0.559
865.838	0.634
874.616	0.678
883.395	0.692
892.173	0.699
900.951	0.685
909.73	0.646
918.508	0.59
927.286	0.484
936.065	0.344
944.843	0.234
953.621	0.24
962.4	0.451
971.178	0.653
979.956	0.681
988.735	0.679
997.513	0.679
1006.29	0.675
1015.07	0.635
1023.85	0.603
1032.63	0.55
1041.4	0.484
1050.18	0.381
1058.96	0.278
1067.74	0.148
1076.52	0.061
1085.3	0.076
1094.07	0.149
1102.85	0.082
1111.63	0.085
1120.41	0.142
1129.19	0.281
1137.97	0.457
1146.74	0.526
1155.52	0.493
1164.3	0.366
1173.08	0.436
1181.86	0.627
1190.64	0.723
1199.41	0.732
1208.19	0.744
1216.97	0.791
1225.75	0.81
1234.53	0.803
1243.31	0.734
1252.08	0.472
1260.86	0.373
1269.64	0.689
1278.42	0.745
1287.2	0.711
1295.98	0.685
1304.75	0.732
1313.53	0.751
1322.31	0.773
1331.09	0.778
1339.87	0.778
1348.65	0.773
1357.43	0.759
1366.2	0.723
1374.98	0.684
1383.76	0.548
1392.54	0.462
1401.32	0.689
1410.1	0.682
1418.87	0.76
1427.65	0.748
1436.43	0.675
1445.21	0.646
1453.99	0.645
1462.77	0.707
1471.54	0.721
1480.32	0.708
1489.1	0.795
1497.88	0.832
1506.66	0.851
1515.44	0.855
1524.21	0.854
1532.99	0.846
1541.77	0.835
1550.55	0.817
1559.33	0.793
1568.11	0.769
1576.88	0.748
1585.66	0.734
1594.44	0.733
1603.22	0.752
1612	0.78
1620.78	0.796
1629.55	0.81
1638.33	0.825
1647.11	0.839
1655.89	0.853
1664.67	0.865
1673.45	0.88
1682.22	0.894
1691	0.903
1699.78	0.91
1708.56	0.916
1717.34	0.92
1726.12	0.924
1734.89	0.925
1743.67	0.927
1752.45	0.927
1761.23	0.927
1770.01	0.927
1778.79	0.925
1787.56	0.921
1796.34	0.923
1805.12	0.921
1813.9	0.921
1822.68	0.921
1831.46	0.921
1840.23	0.925
1849.01	0.924
1857.79	0.924
1866.57	0.924
1875.35	0.921
1884.13	0.916
1892.9	0.92
1901.68	0.92
1910.46	0.923
1919.24	0.924
1928.02	0.925
1936.8	0.927
1945.57	0.931
1954.35	0.928
1963.13	0.925
1971.91	0.927
1980.69	0.927
1989.47	0.921
1998.24	0.917
2007.02	0.914
2015.8	0.913
2024.58	0.91
2033.36	0.907
2042.14	0.907
2050.91	0.907
2059.69	0.907
2068.47	0.907
2077.25	0.907
2086.03	0.906
2094.81	0.903
2103.58	0.902
2112.36	0.902
2121.14	0.902
2129.92	0.901
2138.7	0.899
2147.48	0.899
2156.25	0.8979
2165.03	0.894
2173.81	0.891
2182.59	0.8911
2191.37	0.894
2200.15	0.895
2208.92	0.895
2217.7	0.8962
2226.48	0.899
2235.26	0.899
2244.04	0.8949
2252.82	0.894
2261.59	0.9011
2270.37	0.902
2279.15	0.8992
2287.93	0.905
2296.71	0.903
2305.49	0.905
2314.26	0.9016
2323.04	0.9013
2331.82	0.907
2340.6	0.907
2349.38	0.907
2358.16	0.907
2366.93	0.909
2375.71	0.909
2384.49	0.9058
2393.27	0.901
2402.05	0.899
2410.83	0.898
2419.6	0.895
2428.38	0.8937
2437.16	0.891
2445.94	0.89
2454.72	0.8878
2463.5	0.8866
2472.27	0.885
2481.05	0.885
2489.83	0.883
2498.61	0.881
2507.39	0.881
2516.17	0.88
2524.94	0.879
2533.72	0.879
2542.5	0.8768
2551.28	0.8745
2560.06	0.872
2568.84	0.8715
2577.61	0.87
2586.39	0.8698
2595.17	0.8688
2603.95	0.8633
2612.73	0.8578
2621.51	0.854
2630.28	0.851
2639.06	0.853
2647.84	0.853
2656.62	0.85
2665.4	0.847
2674.18	0.8427
2682.95	0.84
2691.73	0.8381
2700.51	0.832
2709.29	0.822
2718.07	0.7944
2726.85	0.7704
2735.62	0.7632
2744.4	0.776
2753.18	0.7644
2761.96	0.7656
2770.74	0.7746
2779.52	0.775
2788.29	0.7574
2797.07	0.7287
2805.85	0.7024
2814.63	0.6637
2823.41	0.633
2832.19	0.5777
2840.96	0.4932
2849.74	0.4051
2858.52	0.3214
2867.3	0.2729
2876.08	0.2332
2884.86	0.2417
2893.64	0.251
2902.41	0.2368
2911.19	0.2101
2919.97	0.176
2928.75	0.1226
2937.53	0.1865
2946.31	0.2961
2955.08	0.355
2963.86	0.3245
2972.64	0.2284
2981.42	0.1851
2990.2	0.3139
2998.98	0.5931
3007.75	0.6844
3016.53	0.7215
3025.31	0.7394
3034.09	0.751
3042.87	0.7554
3051.65	0.759
3060.42	0.76
3069.2	0.76
3077.98	0.76
3086.76	0.759
3095.54	0.759
3104.32	0.759
3113.09	0.756
3121.87	0.754
3130.65	0.7486
3139.43	0.744
3148.21	0.741
3156.99	0.735
3165.76	0.727
3174.54	0.7215
3183.32	0.7185
3192.1	0.715
3200.88	0.712
3209.66	0.71
3218.43	0.71
3227.21	0.71
3235.99	0.709
3244.77	0.705
3253.55	0.7005
3262.33	0.6944
3271.1	0.6885
3279.88	0.682
3288.66	0.677
3297.44	0.675
3306.22	0.675
3315	0.6815
3323.77	0.6871
3332.55	0.689
3341.33	0.6854
3350.11	0.6788
3358.89	0.6643
3367.67	0.6539
3376.44	0.6573
3385.22	0.6759
3394	0.6965
3402.78	0.7167
3411.56	0.7296
3420.34	0.7382
3429.11	0.7446
3437.89	0.7516
3446.67	0.7586
3455.45	0.7648
3464.23	0.7736
3473.01	0.778
3481.78	0.782
3490.56	0.7876
3499.34	0.7916
3508.12	0.7973
3516.9	0.8026
3525.68	0.806
3534.45	0.811
3543.23	0.814
3552.01	0.817
3560.79	0.821
3569.57	0.8257
3578.35	0.8317
3587.12	0.8397
3595.9	0.8477
3604.68	0.856
3613.46	0.8647
3622.24	0.8727
3631.02	0.8807
3639.79	0.887
3648.57	0.8934
3657.35	0.895
3666.13	0.895
3674.91	0.895
3683.69	0.9017
3692.46	0.91
3701.24	0.916
3710.02	0.92
3718.8	0.921
3727.58	0.9264
3736.36	0.927
3745.13	0.9277
3753.91	0.931
3762.69	0.931
3771.47	0.929
3780.25	0.9305
3789.03	0.934
3797.8	0.938
