Infrared Spectrum: 3-Amino-1H-quinazoline-2,4-dione
Formula: C 8 H 7 N 3 O 2
CAS: 30386-01-7
State: gas
Origin: EPA-IR VAPOR PHASE LIBRARY
1/CM	ABSORBANCE
549.8	0.0007538
559.445	0.0005562
569.09	0.0006922
578.735	0.00021113
588.38	0.00025179
598.025	0.0002637
607.67	0.0002895
617.315	9.46e-05
626.96	0.0002584
636.605	0.0002897
646.251	0.00020782
655.896	0.00055
665.541	0.000621
675.186	0.0010503
684.831	0.001533
694.476	0.0008956
704.121	0.0006616
713.766	0.0006784
723.411	0.0006694
733.056	0.001343
742.701	0.002443
752.346	0.003743
761.991	0.001843
771.636	0.0007745
781.281	0.0005651
790.926	0.0004732
800.571	0.0002728
810.216	0.0003881
819.861	0.0003768
829.507	0.0003159
839.152	0.000361
848.797	0.0005239
858.442	0.000551
868.087	0.000687
877.732	0.0007846
887.377	0.0009788
897.022	0.001493
906.667	0.002163
916.312	0.002053
925.957	0.001193
935.602	0.000723
945.247	0.0005414
954.892	0.0006413
964.537	0.0008587
974.182	0.001223
983.827	0.001363
993.472	0.001073
1003.12	0.0008275
1012.76	0.0008347
1022.41	0.0010626
1032.05	0.0011398
1041.7	0.0010253
1051.34	0.0009059
1060.99	0.0008585
1070.63	0.0007677
1080.28	0.0009148
1089.92	0.0011078
1099.57	0.001633
1109.21	0.002033
1118.86	0.001683
1128.5	0.0009026
1138.15	0.0005377
1147.79	0.0005958
1157.44	0.0005815
1167.08	0.0006748
1176.73	0.0008878
1186.37	0.0011293
1196.02	0.0008761
1205.66	0.0006883
1215.31	0.0008902
1224.95	0.0010439
1234.6	0.0011396
1244.24	0.002253
1253.89	0.002683
1263.53	0.001783
1273.18	0.001173
1282.82	0.000918
1292.47	0.0007168
1302.11	0.0006463
1311.76	0.0007329
1321.4	0.0009139
1331.05	0.0008465
1340.69	0.0006671
1350.34	0.0006204
1359.98	0.0007699
1369.63	0.001001
1379.27	0.001683
1388.92	0.003213
1398.56	0.004453
1408.21	0.004763
1417.85	0.004233
1427.5	0.002683
1437.14	0.001353
1446.79	0.0008029
1456.43	0.0007994
1466.08	0.0008491
1475.73	0.001433
1485.37	0.002903
1495.02	0.004433
1504.66	0.003543
1514.31	0.001813
1523.95	0.001383
1533.6	0.001893
1543.24	0.002493
1552.89	0.002393
1562.53	0.002083
1572.18	0.001843
1581.82	0.001893
1591.47	0.002063
1601.11	0.002373
1610.76	0.003233
1620.4	0.004443
1630.05	0.003353
1639.69	0.001863
1649.34	0.001783
1658.98	0.002193
1668.63	0.003073
1678.27	0.004053
1687.92	0.007443
1697.56	0.015743
1707.21	0.018483
1716.85	0.010853
1726.5	0.005123
1736.14	0.007093
1745.79	0.015603
1755.43	0.015253
1765.08	0.005773
1774.72	0.002663
1784.37	0.001763
1794.01	0.001363
1803.66	0.001173
1813.3	0.0011419
1822.95	0.0009626
1832.59	0.0008374
1842.24	0.0007421
1851.88	0.0006317
1861.53	0.0004811
1871.17	0.0004599
1880.82	0.0004571
1890.46	0.0004284
1900.11	0.0004167
1909.75	0.0003788
1919.4	0.0004162
1929.04	0.0004521
1938.69	0.0003982
1948.33	0.0003807
1957.98	0.0003275
1967.62	0.0003945
1977.27	0.0003618
1986.91	0.0003232
1996.56	0.0002945
2006.2	0.0003226
2015.85	0.0003078
2025.49	0.0002859
2035.14	0.0003124
2044.78	0.0003137
2054.43	0.0003292
2064.07	0.000305
2073.72	0.0003124
2083.36	0.000312
2093.01	0.0003142
2102.65	0.0002793
2112.3	0.0003289
2121.94	0.0002805
2131.59	0.0003286
2141.23	0.0003093
2150.88	0.0002615
2160.52	0.0002784
2170.17	0.0002894
2179.81	0.0003343
2189.46	0.0002584
2199.1	0.000274
2208.75	0.00025057
2218.39	0.0002652
2228.04	0.00025063
2237.68	0.0002764
2247.33	0.0002738
2256.97	0.0002884
2266.62	0.0003137
2276.26	0.0003079
2285.91	0.0002885
2295.55	0.0003206
2305.2	0.0003635
2314.84	0.0003683
2324.49	0.0003278
2334.13	0.000273
2343.78	0.0003514
2353.42	0.0003371
2363.07	0.000338
2372.72	0.0003885
2382.36	0.0003014
2392.01	0.000331
2401.65	0.0002959
2411.3	0.0003213
2420.94	0.0002973
2430.59	0.0003159
2440.23	0.0002928
2449.88	0.0002834
2459.52	0.00024115
2469.17	0.0003408
2478.81	0.0003184
2488.46	0.0003118
2498.1	0.0003048
2507.75	0.000252
2517.39	0.0002759
2527.04	0.0002827
2536.68	0.0003436
2546.33	0.0003304
2555.97	0.0002566
2565.62	0.0002897
2575.26	0.00023567
2584.91	0.0002685
2594.55	0.0002707
2604.2	0.0002941
2613.84	0.00020841
2623.49	0.0002987
2633.13	0.0002981
2642.78	0.000329
2652.42	0.00024649
2662.07	0.0002963
2671.71	0.00022045
2681.36	0.00023959
2691	0.00022207
2700.65	0.000268
2710.29	0.00019809
2719.94	0.0002585
2729.58	0.00019384
2739.23	0.00021917
2748.87	0.0002212
2758.52	0.0001408
2768.16	0.0001132
2777.81	0.00024029
2787.45	0.0002377
2797.1	0.00022507
2806.74	0.00022034
2816.39	0.00021359
2826.03	0.0002828
2835.68	0.00024487
2845.32	0.0001674
2854.97	0.00019806
2864.61	0.00024869
2874.26	0.0002538
2883.9	0.0002756
2893.55	0.0002782
2903.19	0.00020545
2912.84	0.0002873
2922.48	0.0001698
2932.13	0.0002722
2941.77	0.000237
2951.42	0.0002843
2961.06	0.00018923
2970.71	0.000160962
2980.35	0.000264
2990	0.0002692
2999.64	0.0003667
3009.29	0.0002537
3018.93	0.0003999
3028.58	0.0003217
3038.22	0.0003632
3047.87	0.0004526
3057.51	0.0006313
3067.16	0.0008016
3076.8	0.0006186
3086.45	0.0004769
3096.09	0.0005178
3105.74	0.0003786
3115.38	0.0003222
3125.03	0.00025032
3134.67	0.00022441
3144.32	0.0002833
3153.96	0.0002883
3163.61	0.00021976
3173.25	0.00023138
3182.9	0.0002373
3192.54	0.00021486
3202.19	0.00020203
3211.83	0.00015053
3221.48	0.00023916
3231.12	0.0002446
3240.77	0.0002626
3250.41	0.0003161
3260.06	0.0003547
3269.7	0.0003036
3279.35	0.0002712
3289	0.0003838
3298.64	0.0004124
3308.29	0.0003105
3317.93	0.0002934
3327.58	0.0003821
3337.22	0.0002555
3346.87	0.0002958
3356.51	0.0004098
3366.16	0.0007075
3375.8	0.0009695
3385.45	0.0007044
3395.09	0.0004759
3404.74	0.0003686
3414.38	0.0003698
3424.03	0.0004051
3433.67	0.0005594
3443.32	0.0006027
3452.96	0.001553
3462.61	0.002433
3472.25	0.001903
3481.9	0.000842
3491.54	0.0004559
3501.19	0.0003078
3510.83	0.0003453
3520.48	0.00021799
3530.12	0.0003736
3539.77	0.0002755
3549.41	0.000158719
3559.06	0.0002449
3568.7	0.00024146
3578.35	0.00022058
3587.99	0.0003395
3597.64	0.00022067
3607.28	0.0003724
3616.93	0.000294
3626.57	0.000298
3636.22	0.00021328
3645.86	0.0003109
3655.51	0.00020277
3665.15	0.00019084
3674.8	0.0002749
3684.44	0.0003032
3694.09	0.00016798
3703.73	0.0002619
3713.38	0.00022246
3723.02	0.0002563
3732.67	0.00022114
3742.31	0.0003093
3751.96	0.0002942
3761.6	0.00019992
3771.25	0.0002542
3780.89	0.0002534
3790.54	0.00031
3800.18	0.00025299
3809.83	0.0002562
3819.47	0.0001262
3829.12	0.00022873
3838.76	0.0002761
3848.41	0.0002653
3858.05	0.0002817
3867.7	0.000357
3877.34	0.0003754
3886.99	0.0003464
3896.63	7.14e-05
3906.28	0.00024961
3915.92	0.00016719
3925.57	0.00021675
3935.21	0.00016911
3944.86	0.000261
3954.5	0.000359
3964.15	0.0002716
3973.79	0.0002943
3983.44	0.000366
3993.08	0.0003095
