Infrared Spectrum: N-Phenylbenzohydroxamic acid
Formula: C 13 H 11 N O 2
CAS: 304-88-1
State: gas
Origin: EPA-IR VAPOR PHASE LIBRARY
1/CM	ABSORBANCE
549.8	0.002739
559.445	0.002569
569.09	0.005659
578.734	0.008879
588.379	0.004209
598.024	0.002749
607.669	0.003609
617.313	0.003529
626.958	0.002939
636.603	0.003709
646.248	0.004289
655.893	0.009089
665.537	0.018639
675.182	0.014389
684.827	0.029869
694.472	0.051399
704.116	0.044219
713.761	0.024339
723.406	0.020999
733.051	0.015039
742.695	0.012619
752.34	0.018479
761.985	0.027029
771.63	0.016929
781.275	0.013449
790.919	0.006939
800.564	0.003959
810.209	0.003379
819.854	0.002549
829.498	0.002529
839.143	0.003109
848.788	0.002509
858.433	0.002269
868.078	0.002659
877.722	0.003649
887.367	0.005139
897.012	0.009019
906.657	0.021469
916.301	0.023899
925.946	0.012689
935.591	0.005469
945.236	0.003999
954.88	0.003979
964.525	0.004929
974.17	0.007909
983.815	0.015209
993.46	0.019499
1003.1	0.013359
1012.75	0.008479
1022.39	0.008539
1032.04	0.008859
1041.68	0.004519
1051.33	0.003859
1060.97	0.005359
1070.62	0.007089
1080.26	0.005479
1089.91	0.003889
1099.55	0.004149
1109.2	0.003229
1118.84	0.002839
1128.49	0.002979
1138.13	0.003419
1147.78	0.003619
1157.42	0.003519
1167.07	0.004289
1176.71	0.008319
1186.36	0.007769
1196	0.004599
1205.64	0.004849
1215.29	0.006159
1224.93	0.007909
1234.58	0.010169
1244.22	0.013019
1253.87	0.018259
1263.51	0.019449
1273.16	0.017369
1282.8	0.021369
1292.45	0.028239
1302.09	0.038049
1311.74	0.045619
1321.38	0.056289
1331.03	0.071759
1340.67	0.085929
1350.32	0.078929
1359.96	0.049349
1369.61	0.029229
1379.25	0.021439
1388.9	0.016599
1398.54	0.013419
1408.18	0.012329
1417.83	0.012569
1427.47	0.013689
1437.12	0.018779
1446.76	0.026899
1456.41	0.028939
1466.05	0.028139
1475.7	0.024539
1485.34	0.034829
1494.99	0.060339
1504.63	0.054939
1514.28	0.023159
1523.92	0.012389
1533.57	0.009699
1543.21	0.008499
1552.86	0.008469
1562.5	0.010469
1572.15	0.015289
1581.79	0.022879
1591.44	0.031959
1601.08	0.027989
1610.73	0.017909
1620.37	0.017959
1630.01	0.026659
1639.66	0.050469
1649.3	0.079079
1658.95	0.072409
1668.59	0.045989
1678.24	0.030299
1687.88	0.022979
1697.53	0.018039
1707.17	0.013069
1716.82	0.009479
1726.46	0.007299
1736.11	0.006129
1745.75	0.005569
1755.4	0.005609
1765.04	0.004879
1774.69	0.003839
1784.33	0.003499
1793.98	0.003349
1803.62	0.003399
1813.27	0.002629
1822.91	0.001929
1832.55	0.001659
1842.2	0.001549
1851.84	0.001539
1861.49	0.001959
1871.13	0.002329
1880.78	0.002569
1890.42	0.002539
1900.07	0.002229
1909.71	0.001779
1919.36	0.001569
1929	0.001919
1938.65	0.002709
1948.29	0.002879
1957.94	0.002749
1967.58	0.002039
1977.23	0.0011495
1986.87	0.0009628
1996.52	0.000776
2006.16	0.0008079
2015.81	0.0007729
2025.45	0.0007697
2035.1	0.0008368
2044.74	0.0007555
2054.38	0.0006979
2064.03	0.0006618
2073.67	0.0005757
2083.32	0.0005438
2092.96	0.0004828
2102.61	0.00043936
2112.25	0.0004649
2121.9	0.00039817
2131.54	0.00043613
2141.19	0.0004277
2150.83	0.0004713
2160.48	0.00043892
2170.12	0.0004749
2179.77	0.0005608
2189.41	0.0005101
2199.06	0.0005829
2208.7	0.0005122
2218.35	0.0005603
2227.99	0.0005489
2237.64	0.0005191
2247.28	0.0005336
2256.92	0.00057
2266.57	0.0005235
2276.21	0.000558
2285.86	0.0005336
2295.5	0.000634
2305.15	0.0006644
2314.79	0.0010455
2324.44	0.0010594
2334.08	0.0011033
2343.73	0.0009689
2353.37	0.0007782
2363.02	0.0008777
2372.66	0.0007585
2382.31	0.0006589
2391.95	0.0005472
2401.6	0.0004737
2411.24	0.0005624
2420.89	0.0006112
2430.53	0.0005691
2440.18	0.0006226
2449.82	0.0005551
2459.47	0.0005672
2469.11	0.0006363
2478.75	0.0006277
2488.4	0.0006636
2498.04	0.0006166
2507.69	0.0005363
2517.33	0.0005601
2526.98	0.00041873
2536.62	0.0004561
2546.27	0.0004844
2555.91	0.0004849
2565.56	0.0005004
2575.2	0.0005371
2584.85	0.0005716
2594.49	0.0006316
2604.14	0.0006281
2613.78	0.0006023
2623.43	0.000603
2633.07	0.0006034
2642.72	0.0006038
2652.36	0.0005471
2662.01	0.0004809
2671.65	0.0004663
2681.29	0.0005532
2690.94	0.0005266
2700.58	0.00041482
2710.23	0.0005477
2719.87	0.0005436
2729.52	0.000594
2739.16	0.0006574
2748.81	0.0006618
2758.45	0.0006536
2768.1	0.0005171
2777.74	0.0006167
2787.39	0.0005875
2797.03	0.0006112
2806.68	0.0005707
2816.32	0.0005672
2825.97	0.0006723
2835.61	0.0007087
2845.26	0.0007336
2854.9	0.0008946
2864.55	0.0008498
2874.19	0.0009476
2883.84	0.000912
2893.48	0.0009937
2903.12	0.0008824
2912.77	0.0010132
2922.41	0.0009012
2932.06	0.0010846
2941.7	0.0011174
2951.35	0.000886
2960.99	0.0007674
2970.64	0.0007994
2980.28	0.0010319
2989.93	0.0010663
2999.57	0.001469
3009.22	0.001859
3018.86	0.003379
3028.51	0.006249
3038.15	0.009509
3047.8	0.010519
3057.44	0.012619
3067.09	0.019249
3076.73	0.022129
3086.38	0.015959
3096.02	0.011449
3105.67	0.007369
3115.31	0.004329
3124.95	0.002559
3134.6	0.001799
3144.24	0.001789
3153.89	0.001899
3163.53	0.001919
3173.18	0.001899
3182.82	0.002139
3192.47	0.002479
3202.11	0.002839
3211.76	0.003309
3221.4	0.003749
3231.05	0.004459
3240.69	0.005099
3250.34	0.005769
3259.98	0.006559
3269.63	0.006819
3279.27	0.006879
3288.92	0.006729
3298.56	0.006279
3308.21	0.005709
3317.85	0.005069
3327.49	0.004569
3337.14	0.004189
3346.78	0.003779
3356.43	0.003349
3366.07	0.002809
3375.72	0.002539
3385.36	0.002369
3395.01	0.001849
3404.65	0.001739
3414.3	0.001509
3423.94	0.0013093
3433.59	0.0011403
3443.23	0.001059
3452.88	0.001102
3462.52	0.0010273
3472.17	0.0009488
3481.81	0.000774
3491.46	0.0007908
3501.1	0.0008135
3510.75	0.000526
3520.39	0.0006547
3530.04	0.0007018
3539.68	0.0006429
3549.32	0.0007301
3558.97	0.0007385
3568.61	0.00089
3578.26	0.0009985
3587.9	0.0010232
3597.55	0.0007294
3607.19	0.0005877
3616.84	0.00040566
3626.48	0.0006151
3636.13	0.0004771
3645.77	0.0004509
3655.42	0.0006482
3665.06	0.000468
3674.71	0.00039989
3684.35	0.0004637
3694	0.0004544
3703.64	0.0005091
3713.29	0.000487
3722.93	0.0004697
3732.58	0.0006004
3742.22	0.00042611
3751.86	0.0004596
3761.51	0.00037034
3771.15	0.0005976
3780.8	0.0005335
3790.44	0.000283
3800.09	0.0004564
3809.73	0.000238
3819.38	0.0003989
3829.02	0.00037168
3838.67	0.0003144
3848.31	0
3857.96	9.4e-05
3867.6	8.4e-05
3877.25	0.000193
3886.89	0.000416
3896.54	0.000133
3906.18	0.0002608
3915.83	0.00042085
3925.47	0.000198
3935.12	0.0002563
3944.76	1.7e-05
3954.41	0.00022
3964.05	0.000136
3973.69	0.000214
3983.34	0.000191
3992.98	0.0004514
