Infrared Spectrum: p-DIOXAN-2-ONE
Formula: C4 H6 O3
CAS: 3041-16-5
State: SOLUTION (10% CCl4 FOR 2.6-7.5, 10% CS2 FOR 7.5-22 MICRON)
Class: COBLENTZ III
Instrument: DOW KBr FOREPRISM-GRATING
Instrument parameters: BLAZED AT 3.5, 12.0, 20.0 MICRON AND CHANGED AT 5.0, 7.5, 14.9 MICRON
Sampling: TRANSMISSION
Path length: 0.010 CM, 0.011 CM
Resolution: 2
Origin: DOW CHEMICAL COMPANY
1/CM	TRANSMITTANCE
3798	0.8968
3789	0.8968
3780	0.8968
3771	0.8967
3762	0.8971
3753	0.8973
3744	0.8975
3735	0.8978
3726	0.8971
3717	0.8961
3708	0.8951
3699	0.8946
3690	0.8943
3681	0.8939
3672	0.8931
3663	0.8915
3654	0.89
3645	0.8882
3636	0.8858
3627	0.8834
3618	0.8794
3609	0.8745
3600	0.8689
3591	0.8623
3582	0.8545
3573	0.8458
3564	0.837
3555	0.8282
3546	0.8178
3537	0.8064
3528	0.7948
3519	0.7831
3510	0.7688
3501	0.7548
3492	0.7471
3483	0.7458
3474	0.7655
3465	0.7874
3456	0.8111
3447	0.8264
3438	0.8382
3429	0.8467
3420	0.8528
3411	0.859
3402	0.8648
3393	0.8705
3384	0.8754
3375	0.8787
3366	0.8817
3357	0.8825
3348	0.8834
3339	0.8843
3330	0.8859
3321	0.8907
3312	0.8948
3303	0.8973
3294	0.8998
3285	0.8996
3276	0.8992
3267	0.8988
3258	0.8984
3249	0.8978
3240	0.8973
3231	0.8966
3222	0.896
3213	0.8954
3204	0.8948
3195	0.8944
3186	0.8941
3177	0.8936
3168	0.8933
3159	0.893
3150	0.8927
3141	0.8924
3132	0.8908
3123	0.8883
3114	0.8858
3105	0.8816
3096	0.8787
3087	0.8775
3078	0.8764
3069	0.875
3060	0.8736
3051	0.8708
3042	0.8644
3033	0.8581
3024	0.8502
3015	0.8396
3006	0.8119
2997	0.7351
2988	0.5334
2979	0.341
2970	0.3445
2961	0.412
2952	0.4358
2943	0.5273
2934	0.6301
2925	0.6165
2916	0.5598
2907	0.5293
2898	0.4535
2889	0.4968
2880	0.446
2871	0.3623
2862	0.3526
2853	0.4687
2844	0.5951
2835	0.6234
2826	0.6619
2817	0.7517
2808	0.7983
2799	0.8087
2790	0.8138
2781	0.8156
2772	0.8165
2763	0.8196
2754	0.8334
2745	0.8492
2736	0.8328
2727	0.8307
2718	0.8545
2709	0.8596
2700	0.8541
2691	0.8503
2682	0.8577
2673	0.8621
2664	0.865
2655	0.8616
2646	0.8623
2637	0.8643
2628	0.866
2619	0.8677
2610	0.8694
2601	0.8714
2592	0.8734
2583	0.8748
2574	0.8758
2565	0.8762
2556	0.8761
2547	0.8759
2538	0.8755
2529	0.8746
2520	0.8738
2511	0.8728
2502	0.869
2493	0.8651
2484	0.8655
2475	0.8668
2466	0.8678
2457	0.8683
2448	0.8671
2439	0.8649
2430	0.8627
2421	0.8609
2412	0.8597
2403	0.8654
2394	0.8707
2385	0.874
2376	0.8773
2367	0.877
2358	0.8765
2349	0.8759
2340	0.8747
2331	0.8733
2322	0.871
2313	0.8699
2304	0.8697
2295	0.8621
2286	0.856
2277	0.8587
2268	0.8635
2259	0.8666
2250	0.8696
2241	0.8715
2232	0.8735
2223	0.8751
2214	0.8766
2205	0.8778
2196	0.8787
2187	0.8775
2178	0.8747
2169	0.8795
2160	0.878
2151	0.8757
2142	0.881
2133	0.8815
2124	0.8738
2115	0.8699
2106	0.8718
2097	0.8747
2088	0.8794
2079	0.8813
2070	0.8815
2061	0.8764
2052	0.8748
2043	0.8723
2034	0.8696
2025	0.862
2016	0.825
2007	0.7971
1998	0.7549
1989	0.7989
1980	0.8308
1971	0.8465
1962	0.8664
1953	0.8611
1944	0.8545
1935	0.8534
1926	0.8542
1917	0.8438
1908	0.8421
1899	0.8371
1890	0.8273
1881	0.8072
1872	0.7535
1863	0.7557
1854	0.7892
1845	0.8021
1836	0.7803
1827	0.7355
1818	0.7153
1809	0.6901
1800	0.5473
1791	0.4107
1782	0.1783
1773	0.0137
1764	0.0052
1755	0.0031
1746	0.0127
1737	0.1144
1728	0.3031
1719	0.4741
1710	0.5666
1701	0.658
1692	0.7103
1683	0.7462
1674	0.7518
1665	0.785
1656	0.7908
1647	0.7981
1638	0.7538
1629	0.7439
1620	0.7825
1611	0.7835
1602	0.7045
1593	0.6297
1584	0.591
1575	0.5829
1566	0.5334
1557	0.4782
1548	0.4582
1539	0.5022
1530	0.5774
1521	0.6232
1512	0.6601
1503	0.6936
1494	0.7244
1485	0.7333
1476	0.7035
1467	0.2904
1458	0.2606
1449	0.6033
1440	0.6605
1431	0.4335
1422	0.5993
1413	0.4028
1404	0.088
1395	0.4277
1386	0.6345
1377	0.3061
1368	0.6266
1359	0.6386
1350	0.1935
1341	0.0536
1332	0.6925
1323	0.7442
1314	0.7083
1305	0.6461
1296	0.4952
1287	0.3516
1278	0.4266
1269	0.3259
1260	0.2281
1251	0.4392
1242	0.4433
1233	0.0978
1224	0.2853
1215	0.0754
1206	0.2294
1197	0.5982
1188	0.689
1179	0.748
1170	0.78
1161	0.7881
1152	0.7841
1143	0.7475
1134	0.5577
1125	0.5492
1116	0.3864
1107	0.4103
1098	0.6921
1089	0.5083
1080	0.3464
1071	0.6581
1062	0.7817
1053	0.808
1044	0.8189
1035	0.8062
1026	0.7911
1017	0.6934
1008	0.8187
999	0.7615
990	0.4778
981	0.7814
972	0.8413
963	0.8508
954	0.8483
945	0.8398
936	0.7615
927	0.3564
918	0.563
909	0.7761
900	0.7621
891	0.2004
882	0.5902
873	0.7101
864	0.7186
855	0.7075
846	0.7588
837	0.8281
828	0.861
819	0.8636
810	0.8601
801	0.8415
792	0.7493
783	0.5591
774	0.8148
765	0.8624
756	0.8744
747	0.8785
738	0.8789
729	0.8651
720	0.8684
711	0.8736
702	0.8727
693	0.8634
684	0.8273
675	0.7771
666	0.8006
657	0.8144
648	0.8285
639	0.8568
630	0.8818
621	0.8915
612	0.8892
603	0.8913
594	0.894
585	0.8878
576	0.8825
567	0.8471
558	0.7794
549	0.824
540	0.8657
531	0.8847
522	0.8828
513	0.8083
504	0.7275
495	0.8459
486	0.8527
477	0.8586
468	0.8618
459	0.8625
