Infrared Spectrum: (2-Benzimidazolythio)acetic acid
Formula: C 9 H 8 N 2 O 2 S
CAS: 3042-00-0
State: gas
Origin: EPA-IR VAPOR PHASE LIBRARY
1/CM	ABSORBANCE
549.8	0.00304
559.445	0.00365
569.09	0.001331
578.734	0.001421
588.379	0.001069
598.024	0.0014992
607.669	0.0014754
617.313	0.00265
626.958	0.001395
636.603	0.002291
646.248	0.001319
655.893	0.001354
665.537	0.001225
675.182	0.0018684
684.827	0.0022387
694.472	0.00267
704.116	0.0025342
713.761	0.0020902
723.406	0.0023487
733.051	0.00366
742.695	0.00623
752.34	0.00469
761.985	0.00363
771.63	0.00156736
781.275	0.0024977
790.919	0.0014997
800.564	0.00144
810.209	0.001349
819.854	0.00160327
829.498	0.0021458
839.143	0.0022308
848.788	0.0017135
858.433	0.0015222
868.078	0.0021455
877.722	0.00257
887.367	0.00163194
897.012	0.0018687
906.657	0.00159721
916.301	0.0028
925.946	0.00304
935.591	0.0025263
945.236	0.001954
954.88	0.001184
964.525	0.0019298
974.17	0.0019441
983.815	0.0022487
993.46	0.00157555
1003.1	0.001363
1012.75	0.0027
1022.39	0.0024413
1032.04	0.00277
1041.68	0.001367
1051.33	0.0014947
1060.97	0.00267
1070.62	0.000769
1080.26	0.0020015
1089.91	0.0020937
1099.55	0.00262
1109.2	0.0016799
1118.84	0.001217
1128.49	0.0021556
1138.13	0.00367
1147.78	0.0049
1157.42	0.00444
1167.07	0.0023016
1176.71	0.00082
1186.36	0.0015382
1196	0
1205.64	1e-05
1215.29	0.003
1224.93	0.000762
1234.58	0.001037
1244.22	0.0018311
1253.87	0.00341
1263.51	0.00509
1273.16	0.00311
1282.8	0.0024295
1292.45	0.00406
1302.09	0.00532
1311.74	0.00402
1321.38	0.00278
1331.03	0.0025458
1340.67	0.00265
1350.32	0.00403
1359.96	0.00863
1369.61	0.01516
1379.25	0.0127
1388.9	0.00432
1398.54	0.00291
1408.18	0.00293
1417.83	0.00276
1427.47	0.00396
1437.12	0.00545
1446.76	0.00944
1456.41	0.00693
1466.05	0.00336
1475.7	0.00401
1485.34	0.00379
1494.99	0.00298
1504.63	0.00418
1514.28	0.01087
1523.92	0.02041
1533.57	0.013
1543.21	0.00379
1552.86	0.00291
1562.5	0.00259
1572.15	0.00288
1581.79	0.00263
1591.44	0.0025213
1601.08	0.00346
1610.73	0.00348
1620.37	0.00274
1630.01	0.00161038
1639.66	0.0017548
1649.3	0.0018523
1658.95	0.0018004
1668.59	0.0020831
1678.24	0.0020383
1687.88	0.0019851
1697.53	0.0022805
1707.17	0.0021326
1716.82	0.0022852
1726.46	0.00324
1736.11	0.00381
1745.75	0.0068
1755.4	0.0165
1765.04	0.0205
1774.69	0.01116
1784.33	0.00482
1793.98	0.0027
1803.62	0.0022455
1813.27	0.0019471
1822.91	0.0019844
1832.55	0.0019246
1842.2	0.0021001
1851.84	0.0022223
1861.49	0.0020346
1871.13	0.0020287
1880.78	0.0020394
1890.42	0.0018935
1900.07	0.0021404
1909.71	0.0020333
1919.36	0.0021099
1929	0.002277
1938.65	0.0019755
1948.29	0.0018629
1957.94	0.0020938
1967.58	0.0017921
1977.23	0.0020149
1986.87	0.0020907
1996.52	0.0022739
2006.16	0.0018571
2015.81	0.0019996
2025.45	0.002056
2035.1	0.0018692
2044.74	0.0018923
2054.38	0.0017994
2064.03	0.0020542
2073.67	0.0019198
2083.32	0.0018912
2092.96	0.0018724
2102.61	0.0018605
2112.25	0.0020795
2121.9	0.0019196
2131.54	0.0019633
2141.19	0.0020636
2150.83	0.002019
2160.48	0.0019955
2170.12	0.0017403
2179.77	0.0018603
2189.41	0.00203
2199.06	0.0019787
2208.7	0.0017539
2218.35	0.0018683
2227.99	0.0022697
2237.64	0.0020607
2247.28	0.0019795
2256.92	0.0022685
2266.57	0.0019644
2276.21	0.0021571
2285.86	0.0022401
2295.5	0.0021871
2305.15	0.0022153
2314.79	0.0019687
2324.44	0.002049
2334.08	0.0019951
2343.73	0.0023687
2353.37	0.0017721
2363.02	0.0019383
2372.66	0.0020659
2382.31	0.0022278
2391.95	0.0022315
2401.6	0.0021118
2411.24	0.0017667
2420.89	0.0022198
2430.53	0.0024169
2440.18	0.0022407
2449.82	0.0022299
2459.47	0.0025314
2469.11	0.0019528
2478.75	0.0021664
2488.4	0.0021307
2498.04	0.0023021
2507.69	0.0020399
2517.33	0.0022875
2526.98	0.0020971
2536.62	0.0018417
2546.27	0.002249
2555.91	0.0022908
2565.56	0.0017672
2575.2	0.0022532
2584.85	0.0018809
2594.49	0.0019285
2604.14	0.0022819
2613.78	0.0023024
2623.43	0.0019684
2633.07	0.0021154
2642.72	0.0021171
2652.36	0.001957
2662.01	0.0018511
2671.65	0.0021958
2681.29	0.0017247
2690.94	0.0019712
2700.58	0.0020673
2710.23	0.00273
2719.87	0.0020906
2729.52	0.0023378
2739.16	0.002347
2748.81	0.0023306
2758.45	0.0022038
2768.1	0.0021575
2777.74	0.001855
2787.39	0.0021826
2797.03	0.0018612
2806.68	0.0017921
2816.32	0.0018196
2825.97	0.0019994
2835.61	0.0019923
2845.26	0.002278
2854.9	0.0022931
2864.55	0.002184
2874.19	0.0021933
2883.84	0.0021511
2893.48	0.0022949
2903.12	0.0019603
2912.77	0.0018186
2922.41	0.0023486
2932.06	0.0016419
2941.7	0.0024958
2951.35	0.0019647
2960.99	0.0022831
2970.64	0.0021414
2980.28	0.0022867
2989.93	0.0018884
2999.57	0.00263
3009.22	0.0023675
3018.86	0.0017578
3028.51	0.002251
3038.15	0.0024522
3047.8	0.0024576
3057.44	0.0021401
3067.09	0.00361
3076.73	0.0026
3086.38	0.0024391
3096.02	0.002224
3105.67	0.0021302
3115.31	0.0016018
3124.95	0.0017853
3134.6	0.0022775
3144.24	0.0018355
3153.89	0.0019137
3163.53	0.00275
3173.18	0.0023597
3182.82	0.0018805
3192.47	0.0017466
3202.11	0.0021483
3211.76	0.001268
3221.4	0.0023339
3231.05	0.0015282
3240.69	0.002142
3250.34	0.00258
3259.98	0.0025082
3269.63	0.002301
3279.27	0.0021631
3288.92	0.0019152
3298.56	0.0021794
3308.21	0.0019054
3317.85	0.002104
3327.49	0.0016604
3337.14	0.0021827
3346.78	0.0019309
3356.43	0.0020439
3366.07	0.0022816
3375.72	0.0020782
3385.36	0.0021506
3395.01	0.0020028
3404.65	0.002478
3414.3	0.0023008
3423.94	0.001437
3433.59	0.0017943
3443.23	0.002282
3452.88	0.0021459
3462.52	0.0022441
3472.17	0.0021258
3481.81	0.0024435
3491.46	0.0021689
3501.1	0.0022819
3510.75	0.00257
3520.39	0.0014901
3530.04	0.0017335
3539.68	0.0024429
3549.32	0.001287
3558.97	0.00257
3568.61	0.0021952
3578.26	0.002279
3587.9	0.0016065
3597.55	0.0018299
3607.19	0.0022722
3616.84	0.0016816
3626.48	0.00279
3636.13	0.0018709
3645.77	0.0019181
3655.42	0.0020417
3665.06	0.0020627
3674.71	0.0022384
3684.35	0.0018179
3694	0.0017496
3703.64	0.0018789
3713.29	0.00293
3722.93	0.002153
3732.58	0.0022969
3742.22	0.0017251
3751.86	0.00292
3761.51	0.0018826
3771.15	0.0022594
3780.8	0.00165817
3790.44	0.002439
3800.09	0.0017633
3809.73	0.0020587
3819.38	0.00188
3829.02	0.0025238
3838.67	0.0019118
3848.31	0.0024845
3857.96	0.0023473
3867.6	0.001222
3877.25	0.00263
3886.89	0.0022707
3896.54	0.00287
3906.18	0.00257
3915.83	0.00256
3925.47	0.0019101
3935.12	0.00157069
3944.76	0.0019511
3954.41	0.0018206
3964.05	0.0023353
3973.69	0.0019099
3983.34	0.0023212
3992.98	0.00273
