Infrared Spectrum: 2,4-Dinitroso-1,3-naphthalenediol
Formula: C10 H6 N2 O4
CAS: 30436-87-4
State: SOLID (SPLIT MULL)
Class: COBLENTZ III
Instrument: DOW KBr FOREPRISM-GRATING
Instrument parameters: BLAZED AT 3.5, 12.0, 20.0 MICRON AND CHANGED AT 5.0, 7.5, 14.9 MICRON
Sampling: TRANSMISSION
Resolution: 2
Origin: DOW CHEMICAL COMPANY
1/CM	TRANSMITTANCE
467	1.0873
476	1.0912
485	1.0968
494	1.1108
503	1.1195
512	1.1011
521	1.0532
530	1.0383
539	1.0166
548	0.9653
557	0.6868
566	0.908
575	0.8204
584	0.8717
593	0.9828
602	0.9995
611	1.0199
620	1.0057
629	1.014
638	1.0374
647	1.0351
656	0.9043
665	0.8595
674	1.0553
683	0.971
692	0.4776
701	0.9492
710	1.0375
719	0.9947
728	0.968
737	0.9753
746	0.9916
755	0.9318
764	0.853
773	0.7234
782	0.2589
791	0.5065
800	0.6009
809	0.591
818	0.9601
827	0.8597
836	0.7218
845	0.625
854	0.5692
863	0.537
872	0.5493
881	0.2835
890	0.3403
899	0.6358
908	0.5907
917	0.3944
926	0.1523
935	0.112
944	0.1791
953	0.5272
962	0.7984
971	0.7297
980	0.8217
989	0.8482
998	0.8147
1007	0.7432
1016	0.6939
1025	0.4605
1034	0.2282
1043	0.4934
1052	0.7314
1061	0.4885
1070	0.9275
1079	0.8425
1088	0.4438
1097	0.452
1106	0.8553
1115	0.8411
1124	0.6921
1133	0.6638
1142	0.5946
1151	0.9089
1160	0.886
1169	0.8577
1178	0.9143
1187	0.9077
1196	0.8804
1205	0.7928
1214	0.483
1223	0.6725
1232	0.7491
1241	0.7911
1250	0.7672
1259	0.7526
1268	0.6943
1277	0.5051
1286	0.3849
1295	0.539
1304	0.466
1313	0.4291
1322	0.5728
1331	0.5609
1340	0.5129
1349	0.4009
1358	0.3094
1367	0.2402
1376	0.2784
1385	0.3509
1394	0.3262
1403	0.4358
1412	0.6632
1421	0.6625
1430	0.6767
1439	0.689
1448	0.6683
1457	0.5071
1466	0.3998
1475	0.7854
1484	0.7615
1493	0.5962
1502	0.4846
1511	0.7156
1520	0.6817
1529	0.5962
1538	0.5553
1547	0.6284
1556	0.6698
1565	0.6009
1574	0.446
1583	0.3928
1592	0.1875
1601	0.6418
1610	0.6335
1619	0.5753
1628	0.5423
1637	0.5014
1646	0.4014
1655	0.209
1664	0.0959
1673	0.2992
1682	0.6166
1691	0.4501
1700	0.3696
1709	0.5143
1718	0.9598
1727	0.9716
1736	0.9759
1745	0.9738
1754	0.964
1763	0.9589
1772	0.9594
1781	0.9621
1790	0.9649
1799	0.9657
1808	0.965
1817	0.9633
1826	0.9607
1835	0.9575
1844	0.9544
1853	0.9518
1862	0.9485
1871	0.9444
1880	0.9411
1889	0.9371
1898	0.9324
1907	0.9273
1916	0.9224
1925	0.9167
1934	0.9099
1943	0.9018
1952	0.898
1961	0.8918
1970	0.8808
1979	0.8727
1988	0.867
1997	0.8478
2006	0.8288
2015	0.8212
2024	0.8155
2033	0.81
2042	0.8048
2051	0.7996
2060	0.7928
2069	0.7856
2078	0.7783
2087	0.7708
2096	0.7634
2105	0.7558
2114	0.7486
2123	0.7411
2132	0.7336
2141	0.7258
2150	0.7184
2159	0.708
2168	0.7026
2177	0.7007
2186	0.7001
2195	0.6982
2204	0.6911
2213	0.6834
2222	0.6756
2231	0.666
2240	0.655
2249	0.6443
2258	0.6354
2267	0.6316
2276	0.6296
2285	0.6266
2294	0.62
2303	0.6103
2312	0.5991
2321	0.5886
2330	0.5797
2339	0.5714
2348	0.5679
2357	0.5654
2366	0.5637
2375	0.5623
2384	0.5617
2393	0.5596
2402	0.5556
2411	0.5483
2420	0.5385
2429	0.5299
2438	0.5224
2447	0.5148
2456	0.5062
2465	0.4972
2474	0.4885
2483	0.4805
2492	0.4726
2501	0.4639
2510	0.455
2519	0.446
2528	0.4371
2537	0.4279
2546	0.4188
2555	0.4104
2564	0.4025
2573	0.3941
2582	0.3854
2591	0.3766
2600	0.368
2609	0.3592
2618	0.3507
2627	0.3422
2636	0.3328
2645	0.3225
2654	0.3122
2663	0.3017
2672	0.2899
2681	0.2807
2690	0.2773
2699	0.2747
2708	0.2728
2717	0.2718
2726	0.2764
2735	0.2759
2744	0.2719
2753	0.2655
2762	0.2602
2771	0.2591
2780	0.2594
2789	0.2602
2798	0.2607
2807	0.2621
2816	0.264
2825	0.2659
2834	0.2678
2843	0.2697
2852	0.2719
2861	0.2743
2870	0.2765
2879	0.2773
2888	0.2735
2897	0.2692
2906	0.2647
2915	0.26
2924	0.2553
2933	0.2505
2942	0.2447
2951	0.2388
2960	0.2352
2969	0.2343
2978	0.2283
2987	0.2175
2996	0.2081
3005	0.1989
3014	0.1894
3023	0.1801
3032	0.1708
3041	0.1613
3050	0.1518
3059	0.1416
3068	0.1296
3077	0.1178
3086	0.1052
3095	0.0935
3104	0.0839
3113	0.0775
3122	0.0728
3131	0.071
3140	0.0714
3149	0.0763
3158	0.0854
3167	0.1004
3176	0.1281
3185	0.1582
3194	0.1883
3203	0.2184
3212	0.2485
3221	0.2785
3230	0.3149
3239	0.3497
3248	0.3702
3257	0.3873
3266	0.4018
3275	0.4112
3284	0.4144
3293	0.4155
3302	0.4158
3311	0.4149
3320	0.4122
3329	0.4054
3338	0.3952
3347	0.383
3356	0.366
3365	0.3462
3374	0.3222
3383	0.2929
3392	0.2866
3401	0.2911
3410	0.3045
3419	0.3224
3428	0.3374
3437	0.3498
3446	0.3582
3455	0.3572
3464	0.3506
3473	0.3399
3482	0.3161
3491	0.2675
3500	0.1937
3509	0.1892
3518	0.2089
3527	0.2423
3536	0.3616
3545	0.4296
3554	0.4656
3563	0.4794
3572	0.4878
3581	0.4923
3590	0.4928
3599	0.4916
3608	0.4893
3617	0.4867
3626	0.4838
3635	0.4796
3644	0.4756
3653	0.4712
3662	0.467
3671	0.4626
3680	0.4583
3689	0.4536
3698	0.4489
3707	0.4449
3716	0.441
3725	0.4362
3734	0.4318
3743	0.4272
3752	0.4223
3761	0.4195
3770	0.4175
3779	0.4154
3788	0.4132
3797	0.4108
