Infrared Spectrum: Tetrakis(bromomethyl)ethylene
Formula: C 6 H 8 Br 4
CAS: 30432-16-7
State: gas
Origin: EPA-IR VAPOR PHASE LIBRARY
1/CM	ABSORBANCE
549.8	0.003658
559.445	0.003118
569.09	0.004918
578.734	0.006208
588.379	0.004908
598.024	0.003298
607.669	0.003558
617.313	0.003228
626.958	0.003578
636.603	0.004178
646.248	0.006438
655.893	0.013808
665.537	0.021048
675.182	0.010298
684.827	0.004498
694.472	0.003318
704.116	0.002598
713.761	0.002378
723.406	0.002848
733.051	0.003588
742.695	0.001978
752.34	0.0012636
761.985	0.0011746
771.63	0.0012278
781.275	0.0009862
790.919	0.0008831
800.564	0.0007775
810.209	0.0009827
819.854	0.0011516
829.498	0.0013948
839.143	0.002088
848.788	0.004738
858.433	0.014668
868.078	0.013598
877.722	0.003298
887.367	0.001578
897.012	0.0011515
906.657	0.0013023
916.301	0.0013138
925.946	0.0010859
935.591	0.0008232
945.236	0.00058442
954.88	0.0006529
964.525	0.0006501
974.17	0.0010593
983.815	0.001868
993.46	0.0010471
1003.1	0.0006236
1012.75	0.0004216
1022.39	0.000302
1032.04	0.000265
1041.68	0.00057202
1051.33	0.000403
1060.97	0.0010789
1070.62	0.00054241
1080.26	0.001898
1089.91	0.002518
1099.55	0.002278
1109.2	0.001948
1118.84	0.001588
1128.49	0.0014982
1138.13	0.001808
1147.78	0.002458
1157.42	0.003858
1167.07	0.005498
1176.71	0.006888
1186.36	0.013488
1196	0.025148
1205.64	0.042878
1215.29	0.016788
1224.93	0.010698
1234.58	0.008918
1244.22	0.004978
1253.87	0.002948
1263.51	0.002128
1273.16	0.0011825
1282.8	0.000759
1292.45	0.0008935
1302.09	0.0008203
1311.74	0.0008097
1321.38	0.0006715
1331.03	0.0007456
1340.67	0.0006479
1350.32	0.0007899
1359.96	0.0008148
1369.61	0.0009201
1379.25	0.0008771
1388.9	0.0010457
1398.54	0.0010739
1408.18	0.0012518
1417.83	0.001568
1427.47	0.002248
1437.12	0.004528
1446.76	0.007428
1456.41	0.008208
1466.05	0.009808
1475.7	0.005038
1485.34	0.002138
1494.99	0.001518
1504.63	0.0013316
1514.28	0.0012335
1523.92	0.0010802
1533.57	0.0010296
1543.21	0.0008914
1552.86	0.0008378
1562.5	0.0007335
1572.15	0.0008085
1581.79	0.0007426
1591.44	0.0008343
1601.08	0.0007249
1610.73	0.0007603
1620.37	0.00056801
1630.01	0.00059194
1639.66	0.0004138
1649.3	0.000513345
1658.95	0.000274
1668.59	0.00036
1678.24	0.000366
1687.88	0.000422
1697.53	0.000391
1707.17	0.0004434
1716.82	0.0004623
1726.46	0.0004131
1736.11	0.000408
1745.75	0.0004354
1755.4	0.0004735
1765.04	0.00054201
1774.69	0.0004893
1784.33	0.0004756
1793.98	0.00057415
1803.62	0.00056391
1813.27	0.00054534
1822.91	0.000611
1832.55	0.000508858
1842.2	0.000517271
1851.84	0.00053185
1861.49	0.00052434
1871.13	0.00052386
1880.78	0.0004538
1890.42	0.0004459
1900.07	0.000453
1909.71	0.0004957
1919.36	0.0004894
1929	0.00050481
1938.65	0.0004518
1948.29	0.00055691
1957.94	0.0006304
1967.58	0.0006305
1977.23	0.000618
1986.87	0.0007234
1996.52	0.00058741
2006.16	0.00060103
2015.81	0.00055124
2025.45	0.0004615
2035.1	0.00054239
2044.74	0.00059936
2054.38	0.00058544
2064.03	0.000669
2073.67	0.0007063
2083.32	0.00057059
2092.96	0.00049875
2102.61	0.0004628
2112.25	0.0005229
2121.9	0.0004353
2131.54	0.000510837
2141.19	0.0004843
2150.83	0.0004716
2160.48	0.000509215
2170.12	0.0005518
2179.77	0.0006403
2189.41	0.00054674
2199.06	0.00060658
2208.7	0.00055287
2218.35	0.00056523
2227.99	0.0004407
2237.64	0.000407
2247.28	0.00049937
2256.92	0.00056799
2266.57	0.00056576
2276.21	0.00058673
2285.86	0.0006996
2295.5	0.0006269
2305.15	0.0006617
2314.79	0.0005909
2324.44	0.0007498
2334.08	0.000666
2343.73	0.00060435
2353.37	0.0006133
2363.02	0.0006834
2372.66	0.0006628
2382.31	0.0007168
2391.95	0.0007922
2401.6	0.0007219
2411.24	0.0008484
2420.89	0.0007976
2430.53	0.0006509
2440.18	0.0007087
2449.82	0.00060764
2459.47	0.00058433
2469.11	0.0006149
2478.75	0.0005536
2488.4	0.00056368
2498.04	0.0006215
2507.69	0.00057064
2517.33	0.0004768
2526.98	0.0005128
2536.62	0.00058782
2546.27	0.0004886
2555.91	0.00052389
2565.56	0.00052556
2575.2	0.000355
2584.85	0.0004393
2594.49	0.000405
2604.14	0.000507244
2613.78	0.00054114
2623.43	0.00050528
2633.07	0.00058492
2642.72	0.00074
2652.36	0.0007849
2662.01	0.0008219
2671.65	0.000734
2681.29	0.0006042
2690.94	0.00054026
2700.58	0.00060743
2710.23	0.0004322
2719.87	0.0004438
2729.52	0.0004343
2739.16	0.000391
2748.81	0.0004205
2758.45	0.0005386
2768.1	0.0004717
2777.74	0.0004329
2787.39	0.0004551
2797.03	0.00056561
2806.68	0.000403
2816.32	0.000353
2825.97	0.0004309
2835.61	0.0004304
2845.26	0.000492
2854.9	0.0004818
2864.55	0.0006512
2874.19	0.0006276
2883.84	0.0008089
2893.48	0.0009211
2903.12	0.0008188
2912.77	0.0007955
2922.41	0.0006726
2932.06	0.0007432
2941.7	0.0007489
2951.35	0.0011251
2960.99	0.0012325
2970.64	0.001472
2980.28	0.002338
2989.93	0.003108
2999.57	0.001788
3009.22	0.0013822
3018.86	0.0013372
3028.51	0.0014395
3038.15	0.001548
3047.8	0.001698
3057.44	0.0011826
3067.09	0.0009612
3076.73	0.0008655
3086.38	0.0007163
3096.02	0.0004668
3105.67	0.0006671
3115.31	0.0004699
3124.95	0.00052201
3134.6	0.000284
3144.24	0.000381
3153.89	0.000387
3163.53	0.0004664
3173.18	0.0004654
3182.82	0.000235
3192.47	0.000269
3202.11	0.000338
3211.76	0.000289
3221.4	0.000228
3231.05	0.00031
3240.69	0.000246
3250.34	0.000177
3259.98	0.0004113
3269.63	0.000391
3279.27	0.000239
3288.92	0.000167
3298.56	0.0004403
3308.21	0.000309
3317.85	0.000292
3327.49	0.000372
3337.14	0.00019
3346.78	0.000286
3356.43	0.0004255
3366.07	0.0004561
3375.72	0.000296
3385.36	0.000409
3395.01	0.000305
3404.65	0.000246
3414.3	0.0004112
3423.94	0.000376
3433.59	0.000184
3443.23	0.000283
3452.88	0.000338
3462.52	0.000393
3472.17	8.6e-05
3481.81	0.000381
3491.46	0.00034
3501.1	0.000149
3510.75	0.000303
3520.39	0.000349
3530.04	0.000236
3539.68	0.000201
3549.32	0.0004697
3558.97	0.0004472
3568.61	0.000373
3578.26	0.000281
3587.9	0.000385
3597.55	0.000291
3607.19	0.000364
3616.84	0.000225
3626.48	0.000274
3636.13	0.00051818
3645.77	0.000478
3655.42	0.000333
3665.06	0.00039
3674.71	0.000139
3684.35	0.000271
3694	0.000272
3703.64	0.000161
3713.29	0.000264
3722.93	0.000196
3732.58	0.000118
3742.22	0.000383
3751.86	0.000383
3761.51	0.0004243
3771.15	0.000337
3780.8	0.000224
3790.44	0.000104
3800.09	0.000201
3809.73	0.000147
3819.38	0.000378
3829.02	0.000344
3838.67	0.000347
3848.31	0.000331
3857.96	0.000348
3867.6	0.000332
3877.25	0.000205
3886.89	0.000248
3896.54	0.000355
3906.18	0.00034
3915.83	0.000284
3925.47	0.000344
3935.12	0.0006038
3944.76	0.000262
3954.41	0.000353
3964.05	0.0004727
3973.69	0.000287
3983.34	0.000335
3992.98	0.000193
