Infrared Spectrum: 5,5'-METHYLENE DISALICYLALDEHYDE
Formula: C15 H12 O4
CAS: 3046-82-0
State: SOLID (MINERAL OIL MULL)
Class: COBLENTZ
Instrument: Not specified, most likely a prism, grating, or hybrid spectrometer.
Sampling: TRANSMISSION
Resolution: 4
Origin: DOW CHEMICAL COMPANY
MICROMETERS	TRANSMITTANCE
2.034	0.573
2.07466	0.578
2.11532	0.584
2.15598	0.594
2.19664	0.596
2.23729	0.608
2.27795	0.6
2.31861	0.589
2.35927	0.601
2.39993	0.615
2.44059	0.623
2.48125	0.638
2.52191	0.648
2.56256	0.655
2.60322	0.662
2.64388	0.67
2.68454	0.675
2.7252	0.682
2.76586	0.685
2.80652	0.684
2.84718	0.682
2.88783	0.677
2.92849	0.67
2.96915	0.663
3.00981	0.657
3.05047	0.65
3.09113	0.643
3.13179	0.63
3.17245	0.616
3.21311	0.616
3.25376	0.618
3.29442	0.603
3.33508	0.524
3.37574	0.189
3.4164	0.026
3.45706	0.052
3.49772	0.09
3.53838	0.438
3.57903	0.64
3.61969	0.697
3.66035	0.702
3.70101	0.715
3.74167	0.722
3.78233	0.739
3.82299	0.747
3.86365	0.763
3.90431	0.779
3.94496	0.793
3.98562	0.805
4.02628	0.815
4.06694	0.818
4.1076	0.82
4.14826	0.823
4.18892	0.826
4.22958	0.82
4.27023	0.83
4.31089	0.842
4.35155	0.85
4.39221	0.855
4.43287	0.858
4.47353	0.862
4.51419	0.863
4.55485	0.865
4.5955	0.868
4.63616	0.87
4.67682	0.872
4.71748	0.873
4.75814	0.877
4.7988	0.875
4.83946	0.878
4.88012	0.88
4.92078	0.882
4.96143	0.887
5.00209	0.894
5.04275	0.899
5.08341	0.899
5.12407	0.9
5.16473	0.895
5.20539	0.889
5.24605	0.899
5.2867	0.902
5.32736	0.902
5.36802	0.907
5.40868	0.91
5.44934	0.91
5.49	0.912
5.53066	0.914
5.57132	0.91
5.61197	0.91
5.65263	0.907
5.69329	0.887
5.73395	0.85
5.77461	0.835
5.81527	0.838
5.85593	0.821
5.89659	0.786
5.93725	0.744
5.9779	0.583
6.01856	0.225
6.05922	0.253
6.09988	0.536
6.14054	0.648
6.1812	0.678
6.22186	0.722
6.26252	0.636
6.30317	0.672
6.34383	0.781
6.38449	0.813
6.42515	0.823
6.46581	0.823
6.50647	0.826
6.54713	0.821
6.58779	0.806
6.62845	0.774
6.6691	0.665
6.70976	0.435
6.75042	0.326
6.79108	0.294
6.83174	0.213
6.8724	0.284
6.91306	0.391
6.95372	0.547
6.99437	0.68
7.03503	0.729
7.07569	0.749
7.11635	0.757
7.15701	0.741
7.19767	0.6
7.23833	0.391
7.27899	0.448
7.31964	0.579
7.3603	0.647
7.40096	0.65
7.44162	0.616
7.48228	0.594
7.52294	0.616
7.5636	0.662
7.60426	0.734
7.64492	0.749
7.68557	0.714
7.72623	0.544
7.76689	0.349
7.80755	0.312
7.84821	0.386
7.88887	0.564
7.92953	0.662
7.97019	0.682
8.01084	0.623
8.0515	0.549
8.09216	0.564
8.13282	0.67
8.17348	0.668
8.21414	0.576
8.2548	0.583
8.29546	0.566
8.33611	0.536
8.37677	0.653
8.41743	0.724
8.45809	0.749
8.49875	0.746
8.53941	0.734
8.58007	0.729
8.62073	0.684
8.66139	0.569
8.70204	0.495
8.7427	0.598
8.78336	0.721
8.82402	0.781
8.86468	0.798
8.90534	0.816
8.946	0.83
8.98666	0.842
9.02731	0.85
9.06797	0.858
9.10863	0.86
9.14929	0.86
9.18995	0.86
9.23061	0.86
9.27127	0.857
9.31193	0.857
9.35259	0.855
9.39324	0.858
9.4339	0.86
9.47456	0.862
9.51522	0.862
9.55588	0.862
9.59654	0.865
9.6372	0.863
9.67786	0.863
9.71851	0.862
9.75917	0.86
9.79983	0.862
9.84049	0.865
9.88115	0.868
9.92181	0.875
9.96247	0.884
10.0031	0.89
10.0438	0.892
10.0844	0.895
10.1251	0.897
10.1658	0.897
10.2064	0.897
10.2471	0.894
10.2877	0.889
10.3284	0.887
10.3691	0.89
10.4097	0.892
10.4504	0.885
10.491	0.887
10.5317	0.897
10.5723	0.897
10.613	0.897
10.6537	0.89
10.6943	0.882
10.735	0.862
10.7756	0.847
10.8163	0.813
10.857	0.729
10.8976	0.687
10.9383	0.788
10.9789	0.848
11.0196	0.867
11.0603	0.863
11.1009	0.847
11.1416	0.813
11.1822	0.823
11.2229	0.852
11.2635	0.863
11.3042	0.863
11.3449	0.848
11.3855	0.818
11.4262	0.825
11.4668	0.85
11.5075	0.86
11.5482	0.863
11.5888	0.863
11.6295	0.858
11.6701	0.852
11.7108	0.842
11.7515	0.816
11.7921	0.764
11.8328	0.714
11.8734	0.759
11.9141	0.786
11.9547	0.786
11.9954	0.732
12.0361	0.636
12.0767	0.628
12.1174	0.737
12.158	0.781
12.1987	0.791
12.2394	0.771
12.28	0.707
12.3207	0.642
12.3613	0.699
12.402	0.768
12.4427	0.786
12.4833	0.796
12.524	0.798
12.5646	0.798
12.6053	0.8
12.6459	0.794
12.6866	0.779
12.7273	0.756
12.7679	0.717
12.8086	0.692
12.8492	0.69
12.8899	0.678
12.9306	0.603
12.9712	0.5
13.0119	0.48
13.0525	0.578
13.0932	0.606
13.1339	0.598
13.1745	0.557
13.2152	0.505
13.2558	0.463
13.2965	0.421
13.3371	0.396
13.3778	0.379
13.4185	0.374
13.4591	0.394
13.4998	0.431
13.5404	0.478
13.5811	0.521
13.6218	0.557
13.6624	0.586
13.7031	0.61
13.7437	0.618
13.7844	0.613
13.8251	0.588
13.8657	0.574
13.9064	0.574
13.947	0.594
13.9877	0.611
14.0283	0.628
14.069	0.643
14.1097	0.652
14.1503	0.662
14.191	0.67
14.2316	0.673
14.2723	0.675
14.313	0.677
14.3536	0.677
14.3943	0.673
14.4349	0.668
14.4756	0.667
14.5163	0.663
14.5569	0.66
14.5976	0.657
14.6382	0.652
14.6789	0.65
14.7195	0.647
14.7602	0.635
14.8009	0.62
14.8415	0.598
14.8822	0.568
14.9228	0.531
14.9635	0.519
15.0042	0.531
15.0448	0.546
15.0855	0.559
15.1261	0.568
15.1668	0.569
15.2075	0.569
15.2481	0.566
15.2888	0.557
15.3294	0.552
15.3701	0.547
15.4107	0.539
15.4514	0.531
15.4921	0.519
15.5327	0.512
15.5734	0.502
15.614	0.495
15.6547	0.487
15.6954	0.478
15.736	0.47
15.7767	0.465
15.8173	0.457
15.858	0.452
