Infrared Spectrum: 3-ETHYL-3-HYDROXYMETHYL OXETANE
Formula: C6 H12 O2
CAS: 3047-32-3
State: LIQUID
Boiling point: 96 C AT 4 mmHg
Class: COBLENTZ
Instrument: Not specified, most likely a prism, grating, or hybrid spectrometer.
Sampling: TRANSMISSION
Path length: 0.001 CM
Resolution: 4
Origin: WYANDOTTE CHEMICALS CORP., WYANDOTTE, MICHIGAN, USA
MICROMETERS	TRANSMITTANCE
2.013	0.951
2.05287	0.956
2.09274	0.96
2.13261	0.961
2.17247	0.935
2.21234	0.916
2.25221	0.931
2.29208	0.94
2.33195	0.941
2.37182	0.938
2.41168	0.933
2.45155	0.926
2.49142	0.91
2.53129	0.921
2.57116	0.938
2.61103	0.938
2.6509	0.941
2.69076	0.928
2.73063	0.881
2.7705	0.757
2.81037	0.527
2.85024	0.302
2.89011	0.163
2.92997	0.088
2.96984	0.091
3.00971	0.134
3.04958	0.232
3.08945	0.367
3.12932	0.515
3.16919	0.638
3.20905	0.747
3.24892	0.782
3.28879	0.762
3.32866	0.507
3.36853	0.056
3.4084	0.084
3.44827	0.139
3.48813	0.061
3.528	0.396
3.56787	0.627
3.60774	0.743
3.64761	0.758
3.68748	0.801
3.72734	0.836
3.76721	0.853
3.80708	0.865
3.84695	0.868
3.88682	0.888
3.92669	0.9
3.96656	0.908
4.00642	0.91
4.04629	0.911
4.08616	0.915
4.12603	0.916
4.1659	0.921
4.20577	0.925
4.24563	0.923
4.2855	0.94
4.32537	0.95
4.36524	0.96
4.40511	0.955
4.44498	0.948
4.48485	0.945
4.52471	0.946
4.56458	0.951
4.60445	0.95
4.64432	0.948
4.68419	0.948
4.72406	0.948
4.76392	0.941
4.80379	0.936
4.84366	0.938
4.88353	0.943
4.9234	0.945
4.96327	0.948
5.00314	0.95
5.043	0.943
5.08287	0.946
5.12274	0.938
5.16261	0.936
5.20248	0.926
5.24235	0.925
5.28221	0.928
5.32208	0.931
5.36195	0.93
5.40182	0.933
5.44169	0.935
5.48156	0.938
5.52143	0.933
5.56129	0.93
5.60116	0.931
5.64103	0.935
5.6809	0.93
5.72077	0.925
5.76064	0.923
5.8005	0.921
5.84037	0.915
5.88024	0.906
5.92011	0.898
5.95998	0.885
5.99985	0.866
6.03972	0.868
6.07958	0.875
6.11945	0.878
6.15932	0.885
6.19919	0.885
6.23906	0.888
6.27893	0.888
6.3188	0.876
6.35866	0.875
6.39853	0.866
6.4384	0.861
6.47827	0.855
6.51814	0.846
6.55801	0.828
6.59787	0.798
6.63774	0.7
6.67761	0.579
6.71748	0.46
6.75735	0.424
6.79722	0.317
6.83709	0.432
6.87695	0.509
6.91682	0.572
6.95669	0.574
6.99656	0.562
7.03643	0.54
7.0763	0.532
7.11616	0.54
7.15603	0.52
7.1959	0.419
7.23577	0.467
7.27564	0.587
7.31551	0.625
7.35538	0.643
7.39524	0.642
7.43511	0.635
7.47498	0.628
7.51485	0.63
7.55472	0.617
7.59459	0.605
7.63445	0.613
7.67432	0.637
7.71419	0.667
7.75406	0.677
7.79393	0.66
7.8338	0.603
7.87367	0.55
7.91353	0.595
7.9534	0.647
7.99327	0.668
8.03314	0.667
8.07301	0.63
8.11288	0.62
8.15274	0.667
8.19261	0.702
8.23248	0.727
8.27235	0.732
8.31222	0.715
8.35209	0.708
8.39196	0.695
8.43182	0.675
8.47169	0.658
8.51156	0.67
8.55143	0.695
8.5913	0.712
8.63117	0.68
8.67104	0.627
8.7109	0.599
8.75077	0.625
8.79064	0.642
8.83051	0.64
8.87038	0.687
8.91025	0.728
8.95011	0.748
8.98998	0.753
9.02985	0.742
9.06972	0.728
9.10959	0.7
9.14946	0.655
9.18933	0.589
9.22919	0.45
9.26906	0.299
9.30893	0.212
9.3488	0.171
9.38867	0.144
9.42854	0.109
9.4684	0.099
9.50827	0.096
9.54814	0.118
9.58801	0.153
9.62788	0.201
9.66775	0.201
9.70762	0.191
9.74748	0.202
9.78735	0.229
9.82722	0.291
9.86709	0.391
9.90696	0.469
9.94683	0.47
9.98669	0.41
10.0266	0.324
10.0664	0.206
10.1063	0.123
10.1462	0.073
10.186	0.063
10.2259	0.064
10.2658	0.069
10.3056	0.078
10.3455	0.091
10.3854	0.114
10.4252	0.158
10.4651	0.189
10.505	0.219
10.5449	0.232
10.5847	0.267
10.6246	0.321
10.6645	0.399
10.7043	0.47
10.7442	0.512
10.7841	0.544
10.8239	0.55
10.8638	0.545
10.9037	0.532
10.9435	0.524
10.9834	0.515
11.0233	0.512
11.0631	0.524
11.103	0.547
11.1429	0.57
11.1827	0.597
11.2226	0.613
11.2625	0.622
11.3024	0.618
11.3422	0.603
11.3821	0.585
11.422	0.582
11.4618	0.615
11.5017	0.647
11.5416	0.672
11.5814	0.693
11.6213	0.705
11.6612	0.705
11.701	0.707
11.7409	0.705
11.7808	0.693
11.8206	0.675
11.8605	0.65
11.9004	0.62
11.9402	0.577
11.9801	0.514
12.02	0.439
12.0599	0.371
12.0997	0.322
12.1396	0.289
12.1795	0.294
12.2193	0.349
12.2592	0.437
12.2991	0.514
12.3389	0.594
12.3788	0.637
12.4187	0.677
12.4585	0.702
12.4984	0.717
12.5383	0.722
12.5781	0.718
12.618	0.697
12.6579	0.657
12.6978	0.597
12.7376	0.54
12.7775	0.54
12.8174	0.589
12.8572	0.635
12.8971	0.67
12.937	0.698
12.9768	0.718
13.0167	0.738
13.0566	0.743
13.0964	0.747
13.1363	0.75
13.1762	0.75
13.216	0.75
13.2559	0.75
13.2958	0.748
13.3356	0.747
13.3755	0.743
13.4154	0.742
13.4553	0.738
13.4951	0.738
13.535	0.737
13.5749	0.737
13.6147	0.737
13.6546	0.733
13.6945	0.73
13.7343	0.723
13.7742	0.722
13.8141	0.717
13.8539	0.71
13.8938	0.71
13.9337	0.707
13.9735	0.702
14.0134	0.698
14.0533	0.697
14.0931	0.695
14.133	0.693
14.1729	0.687
14.2128	0.687
14.2526	0.68
14.2925	0.677
14.3324	0.672
14.3722	0.665
14.4121	0.665
14.452	0.66
14.4918	0.652
14.5317	0.647
14.5716	0.642
14.6114	0.635
14.6513	0.623
14.6912	0.618
14.731	0.605
14.7709	0.597
14.8108	0.589
14.8506	0.589
14.8905	0.592
14.9304	0.6
14.9703	0.608
15.0101	0.618
15.05	0.623
15.0899	0.627
15.1297	0.628
15.1696	0.63
15.2095	0.63
15.2493	0.627
15.2892	0.622
15.3291	0.625
15.3689	0.622
15.4088	0.62
15.4487	0.62
15.4885	0.618
15.5284	0.622
15.5683	0.628
15.6081	0.632
15.648	0.633
15.6879	0.638
15.7278	0.642
15.7676	0.642
15.8075	0.648
15.8474	0.647
15.8872	0.645
15.9271	0.643
15.967	0.647
