Infrared Spectrum: 4-Chlorocyclohexanol
Formula: C 6 H 11 Cl O
CAS: 30485-71-3
State: gas
Origin: EPA-IR VAPOR PHASE LIBRARY
1/CM	ABSORBANCE
549.8	0.000407
559.445	0.000401
569.09	0.001634
578.734	0.002304
588.379	0.001754
598.024	0.0008676
607.669	0.0006533
617.313	0.00060024
626.958	0.0004114
636.603	0.000105
646.248	0.0010828
655.893	0.0010078
665.537	0.0014934
675.182	0.0011039
684.827	0.0007416
694.472	0.000624
704.116	0.001744
713.761	0.003124
723.406	0.003254
733.051	0.001864
742.695	0.001794
752.34	0.002834
761.985	0.003524
771.63	0.002994
781.275	0.0011375
790.919	0.00057328
800.564	0.0007613
810.209	0.0008105
819.854	0.0008649
829.498	0.0010605
839.143	0.001784
848.788	0.004264
858.433	0.006754
868.078	0.005214
877.722	0.002644
887.367	0.002424
897.012	0.002884
906.657	0.001924
916.301	0.001504
925.946	0.001534
935.591	0.002054
945.236	0.003894
954.88	0.006884
964.525	0.009724
974.17	0.008054
983.815	0.005574
993.46	0.004744
1003.1	0.004044
1012.75	0.003414
1022.39	0.004624
1032.04	0.004834
1041.68	0.005994
1051.33	0.009234
1060.97	0.013914
1070.62	0.015234
1080.26	0.009814
1089.91	0.005784
1099.55	0.004504
1109.2	0.003644
1118.84	0.004064
1128.49	0.003464
1138.13	0.002424
1147.78	0.002974
1157.42	0.002854
1167.07	0.002684
1176.71	0.002414
1186.36	0.002674
1196	0.003834
1205.64	0.004814
1215.29	0.004874
1224.93	0.005234
1234.58	0.004794
1244.22	0.005984
1253.87	0.007124
1263.51	0.007534
1273.16	0.006264
1282.8	0.004534
1292.45	0.003484
1302.09	0.002984
1311.74	0.002754
1321.38	0.002874
1331.03	0.002984
1340.67	0.003174
1350.32	0.004424
1359.96	0.005454
1369.61	0.005464
1379.25	0.004594
1388.9	0.003524
1398.54	0.002594
1408.18	0.002094
1417.83	0.002184
1427.47	0.003584
1437.12	0.005694
1446.76	0.007174
1456.41	0.005684
1466.05	0.003554
1475.7	0.001854
1485.34	0.0012232
1494.99	0.0008155
1504.63	0.0008418
1514.28	0.0006424
1523.92	0.0006604
1533.57	0.0006661
1543.21	0.0007841
1552.86	0.0006644
1562.5	0.0006443
1572.15	0.000512107
1581.79	0.00036
1591.44	0.00054258
1601.08	0.0006177
1610.73	0.0004358
1620.37	0.00055422
1630.01	0.00053423
1639.66	0.0004646
1649.3	0.0004856
1658.95	0.0004681
1668.59	0.000506158
1678.24	0.000402
1687.88	0.0005219
1697.53	0.0004791
1707.17	0.000405
1716.82	0.00058289
1726.46	0.0004561
1736.11	0.0004843
1745.75	0.000504285
1755.4	0.000317
1765.04	0.0004171
1774.69	0.000389
1784.33	0.0004787
1793.98	0.0004721
1803.62	0.0004183
1813.27	0.0004094
1822.91	0.000395
1832.55	0.00054303
1842.2	0.00043
1851.84	0.0004524
1861.49	0.0004138
1871.13	0.000513059
1880.78	0.0004681
1890.42	0.0004164
1900.07	0.00052804
1909.71	0.00056956
1919.36	0.00058509
1929	0.00056335
1938.65	0.00053468
1948.29	0.00054382
1957.94	0.0004263
1967.58	0.0005791
1977.23	0.0004575
1986.87	0.0004118
1996.52	0.000399
2006.16	0.0004113
2015.81	0.000486
2025.45	0.0004785
2035.1	0.0004257
2044.74	0.0004397
2054.38	0.0004784
2064.03	0.0004669
2073.67	0.00038
2083.32	0.00055509
2092.96	0.00054756
2102.61	0.00055399
2112.25	0.0004837
2121.9	0.000504204
2131.54	0.00050203
2141.19	0.0006552
2150.83	0.00051832
2160.48	0.00055979
2170.12	0.0004826
2179.77	0.00056399
2189.41	0.0005435
2199.06	0.00060088
2208.7	0.000658
2218.35	0.0006075
2227.99	0.00060352
2237.64	0.00058471
2247.28	0.0005453
2256.92	0.00053685
2266.57	0.00055545
2276.21	0.0004793
2285.86	0.00057481
2295.5	0.00058579
2305.15	0.00057158
2314.79	0.000613
2324.44	0.00054656
2334.08	0.00056272
2343.73	0.00052423
2353.37	0.0004615
2363.02	0.00059336
2372.66	0.0006624
2382.31	0.00058838
2391.95	0.00060002
2401.6	0.00056094
2411.24	0.00050196
2420.89	0.0006427
2430.53	0.0004417
2440.18	0.0006417
2449.82	0.00056595
2459.47	0.000626
2469.11	0.00058826
2478.75	0.0006783
2488.4	0.00051946
2498.04	0.0006787
2507.69	0.0004737
2517.33	0.00057796
2526.98	0.00054956
2536.62	0.00056247
2546.27	0.0006708
2555.91	0.00051431
2565.56	0.00052012
2575.2	0.00058826
2584.85	0.0006128
2594.49	0.0006011
2604.14	0.0007156
2613.78	0.0006694
2623.43	0.0008552
2633.07	0.0007683
2642.72	0.0007982
2652.36	0.0009276
2662.01	0.001004
2671.65	0.0010871
2681.29	0.0010758
2690.94	0.001156
2700.58	0.0010653
2710.23	0.0009501
2719.87	0.0008291
2729.52	0.0008396
2739.16	0.0009436
2748.81	0.0008513
2758.45	0.0008955
2768.1	0.0010042
2777.74	0.0009829
2787.39	0.0010522
2797.03	0.0010519
2806.68	0.0012244
2816.32	0.0013962
2825.97	0.0014956
2835.61	0.002714
2845.26	0.004814
2854.9	0.007664
2864.55	0.009034
2874.19	0.009524
2883.84	0.010404
2893.48	0.011664
2903.12	0.012434
2912.77	0.013914
2922.41	0.016694
2932.06	0.018904
2941.7	0.024274
2951.35	0.030964
2960.99	0.029694
2970.64	0.019404
2980.28	0.007974
2989.93	0.002404
2999.57	0.001084
3009.22	0.0006597
3018.86	0.00057788
3028.51	0.000513844
3038.15	0.0004789
3047.8	0.00049773
3057.44	0.000398
3067.09	0.0004335
3076.73	0.000369
3086.38	0.0004899
3096.02	0.000348
3105.67	0.000516
3115.31	0.0004927
3124.95	0.000313
3134.6	0.000265
3144.24	0.0004208
3153.89	0.000383
3163.53	0.000311
3173.18	0.000149
3182.82	6.4e-05
3192.47	0.0004062
3202.11	0.000386
3211.76	0.000225
3221.4	0.000394
3231.05	0.00032
3240.69	0.000353
3250.34	0.000188
3259.98	0.000356
3269.63	0.000172
3279.27	0.000174
3288.92	0.000301
3298.56	0.000294
3308.21	0.0004411
3317.85	0.000505917
3327.49	0.000403
3337.14	0.000149
3346.78	0.000203
3356.43	0.000338
3366.07	0.000388
3375.72	0.000318
3385.36	0.000506624
3395.01	0.000322
3404.65	0.0004874
3414.3	0.000327
3423.94	0.00034
3433.59	0.00055296
3443.23	0.0006555
3452.88	0.0004332
3462.52	0.0004409
3472.17	0.0004375
3481.81	0.000298
3491.46	0.000398
3501.1	0.000328
3510.75	0.000265
3520.39	0.000383
3530.04	0.000175
3539.68	0.000384
3549.32	0.00038
3558.97	0.000264
3568.61	9.3e-05
3578.26	0.0004241
3587.9	0.000179
3597.55	0.000242
3607.19	0.000336
3616.84	0.00060383
3626.48	0.0013313
3636.13	0.002204
3645.77	0.003454
3655.42	0.004394
3665.06	0.002954
3674.71	0.0012123
3684.35	0.0006613
3694	0.0004803
3703.64	0.000338
3713.29	0.000382
3722.93	0.0004223
3732.58	0.000299
3742.22	0.00036
3751.86	0.00050122
3761.51	0.000357
3771.15	0.000336
3780.8	0.0004885
3790.44	0.000392
3800.09	0.00052263
3809.73	0.000369
3819.38	0.0004716
3829.02	0.00049615
3838.67	0.0006861
3848.31	0.0006289
3857.96	0.00054004
3867.6	0.000265
3877.25	0.00026
3886.89	0.000228
3896.54	0.0004389
3906.18	0.000401
3915.83	0.000401
3925.47	0.00016
3935.12	0.000335
3944.76	0.000424
3954.41	0.000403
3964.05	0.00050206
3973.69	0.00049967
3983.34	0.000216
3992.98	0.000329
