Infrared Spectrum: 2-Amino-5-nitrobenzanilide
Formula: C 13 H 11 N 3 O 3
CAS: 30481-54-0
State: gas
Origin: EPA-IR VAPOR PHASE LIBRARY
1/CM	ABSORBANCE
551.7	0.0016
563.274	0.00161
574.848	0.0018
586.421	0.00251
597.995	0.00317
609.569	0.00168
621.143	0.00186
632.717	0.00278
644.291	0.00307
655.864	0.00192
667.438	0.00265
679.012	0.00399
690.586	0.00495
702.16	0.00437
713.734	0.00416
725.307	0.00433
736.881	0.00546
748.455	0.00643
760.029	0.00349
771.603	0.00207
783.177	0.0016
794.75	0.00131
806.324	0.00129
817.898	0.00231
829.472	0.00422
841.046	0.00213
852.619	0.0016
864.193	0.0017
875.767	0.00175
887.341	0.00173
898.915	0.00203
910.489	0.00253
922.062	0.00282
933.636	0.0027
945.21	0.00163
956.784	0.0013
968.358	0.00123
979.932	0.00115
991.505	0.00112
1003.08	0.00119
1014.65	0.00111
1026.23	0.00126
1037.8	0.00112
1049.37	0.00119
1060.95	0.00175
1072.52	0.00221
1084.1	0.00201
1095.67	0.00201
1107.24	0.00256
1118.82	0.00469
1130.39	0.00533
1141.97	0.00257
1153.54	0.00491
1165.11	0.00273
1176.69	0.00118
1188.26	0.0009973
1199.83	0.00126
1211.41	0.00222
1222.98	0.00439
1234.56	0.00879
1246.13	0.00993
1257.7	0.00607
1269.28	0.00565
1280.85	0.00645
1292.42	0.00728
1304	0.01143
1315.57	0.0147
1327.15	0.01198
1338.72	0.02429
1350.29	0.02332
1361.87	0.00704
1373.44	0.00391
1385.02	0.00282
1396.59	0.00228
1408.16	0.00249
1419.74	0.00432
1431.31	0.01047
1442.88	0.01369
1454.46	0.00544
1466.03	0.00536
1477.61	0.00735
1489.18	0.01008
1500.75	0.0188
1512.33	0.02562
1523.9	0.02673
1535.48	0.01872
1547.05	0.00831
1558.62	0.00664
1570.2	0.00711
1581.77	0.01025
1593.34	0.01861
1604.92	0.02103
1616.49	0.02086
1628.07	0.01299
1639.64	0.00522
1651.21	0.00387
1662.79	0.0042
1674.36	0.00735
1685.93	0.01543
1697.51	0.00946
1709.08	0.00397
1720.66	0.00262
1732.23	0.00188
1743.8	0.00146
1755.38	0.00122
1766.95	0.00114
1778.53	0.00111
1790.1	0.000947
1801.67	0.0008698
1813.25	0.0008342
1824.82	0.0008172
1836.39	0.0007935
1847.97	0.0008091
1859.54	0.0007783
1871.12	0.0008246
1882.69	0.0007644
1894.26	0.0008022
1905.84	0.0009241
1917.41	0.0009201
1928.99	0.0008764
1940.56	0.0008593
1952.13	0.0008948
1963.71	0.0008002
1975.28	0.0007278
1986.85	0.0007314
1998.43	0.0007164
2010	0.0007179
2021.58	0.0007273
2033.15	0.0007224
2044.72	0.0007326
2056.3	0.0006912
2067.87	0.0007244
2079.44	0.0007072
2091.02	0.0007168
2102.59	0.0007411
2114.17	0.000714
2125.74	0.0007244
2137.31	0.0006908
2148.89	0.000699
2160.46	0.0007282
2172.04	0.0007324
2183.61	0.0007446
2195.18	0.0007639
2206.76	0.0007656
2218.33	0.0007455
2229.9	0.0007623
2241.48	0.0007631
2253.05	0.0007728
2264.63	0.0008005
2276.2	0.0008066
2287.77	0.0007816
2299.35	0.000843
2310.92	0.0008555
2322.5	0.0008228
2334.07	0.0008401
2345.64	0.0008152
2357.22	0.0008226
2368.79	0.0008233
2380.36	0.0008459
2391.94	0.000838
2403.51	0.0008574
2415.09	0.000879
2426.66	0.000838
2438.23	0.000878
2449.81	0.0009016
2461.38	0.00101
2472.96	0.00097
2484.53	0.0008857
2496.1	0.0008671
2507.68	0.0008631
2519.25	0.0008459
2530.82	0.0008829
2542.4	0.0008918
2553.97	0.0008701
2565.55	0.0008703
2577.12	0.0008593
2588.69	0.0008697
2600.27	0.000873
2611.84	0.0009015
2623.41	0.0009549
2634.99	0.0009251
2646.56	0.0009756
2658.14	0.0009728
2669.71	0.0009605
2681.28	0.0009904
2692.86	0.00102
2704.43	0.00104
2716.01	0.0009768
2727.58	0.0009676
2739.15	0.001
2750.73	0.0009938
2762.3	0.00101
2773.87	0.00105
2785.45	0.00101
2797.02	0.001
2808.6	0.00104
2820.17	0.00106
2831.74	0.00109
2843.32	0.00111
2854.89	0.00118
2866.47	0.00126
2878.04	0.00116
2889.61	0.00114
2901.19	0.00116
2912.76	0.00124
2924.33	0.0012
2935.91	0.00117
2947.48	0.00114
2959.06	0.00116
2970.63	0.00108
2982.2	0.00107
2993.78	0.00113
3005.35	0.00126
3016.92	0.00148
3028.5	0.00217
3040.07	0.0025
3051.65	0.00238
3063.22	0.00299
3074.79	0.0031
3086.37	0.00224
3097.94	0.00192
3109.52	0.00172
3121.09	0.00141
3132.66	0.00121
3144.24	0.00117
3155.81	0.00118
3167.38	0.0012
3178.96	0.00122
3190.53	0.00123
3202.11	0.00123
3213.68	0.00124
3225.25	0.00129
3236.83	0.00128
3248.4	0.00131
3259.98	0.00142
3271.55	0.00151
3283.12	0.00179
3294.7	0.00209
3306.27	0.00226
3317.84	0.00242
3329.42	0.0029
3340.99	0.00409
3352.57	0.00586
3364.14	0.00599
3375.71	0.00458
3387.29	0.00298
3398.86	0.0023
3410.43	0.00207
3422.01	0.00176
3433.58	0.00167
3445.16	0.00174
3456.73	0.00222
3468.3	0.00271
3479.88	0.00227
3491.45	0.0024
3503.03	0.00348
3514.6	0.005
3526.17	0.00357
3537.75	0.00182
3549.32	0.0014
3560.89	0.00122
3572.47	0.00119
3584.04	0.00114
3595.62	0.00111
3607.19	0.00118
3618.76	0.0012
3630.34	0.00114
3641.91	0.00112
3653.49	0.00113
3665.06	0.00112
3676.63	0.00121
3688.21	0.00121
3699.78	0.00113
3711.35	0.00115
3722.93	0.00117
3734.5	0.00116
3746.08	0.00118
3757.65	0.00117
3769.22	0.00111
3780.8	0.00115
3792.37	0.00115
3803.94	0.0012
3815.52	0.00117
3827.09	0.00118
3838.67	0.00114
3850.24	0.00125
3861.81	0.00121
3873.39	0.00129
3884.96	0.00133
3896.54	0.00133
3908.11	0.00127
3919.68	0.00121
3931.26	0.00126
3942.83	0.00121
3954.4	0.0013
3965.98	0.00124
3977.55	0.00122
3989.13	0.00132
4000.7	0.00122
