Infrared Spectrum: PHENYL PHOSPHONIC ACID DIPHENYL ESTER
Formula: C18 H15 O3 P
CAS: 3049-24-9
State: SOLID (NUJOL MULL)
Class: COBLENTZ
Instrument: Not specified, most likely a prism, grating, or hybrid spectrometer.
Sampling: TRANSMISSION
Resolution: 4
Origin: TENNESSEE EASTMAN COMPANY, RESEARCH LABORATORIES
MICROMETERS	TRANSMITTANCE
2.047	0.536
2.08698	0.542
2.12695	0.549
2.16693	0.557
2.20691	0.566
2.24689	0.569
2.28686	0.571
2.32684	0.571
2.36682	0.577
2.40679	0.584
2.44677	0.592
2.48675	0.603
2.52673	0.613
2.5667	0.621
2.60668	0.626
2.64666	0.624
2.68663	0.638
2.72661	0.639
2.76659	0.643
2.80657	0.643
2.84654	0.648
2.88652	0.651
2.9265	0.659
2.96647	0.663
3.00645	0.664
3.04643	0.67
3.08641	0.673
3.12638	0.673
3.16636	0.673
3.20634	0.673
3.24631	0.671
3.28629	0.616
3.32627	0.579
3.36625	0.402
3.40622	0.134
3.4462	0.175
3.48618	0.281
3.52615	0.391
3.56613	0.716
3.60611	0.758
3.64609	0.763
3.68606	0.763
3.72604	0.757
3.76602	0.76
3.80599	0.76
3.84597	0.762
3.88595	0.767
3.92593	0.773
3.9659	0.78
4.00588	0.785
4.04586	0.785
4.08583	0.787
4.12581	0.79
4.16579	0.792
4.20577	0.797
4.24574	0.815
4.28572	0.815
4.3257	0.81
4.36567	0.804
4.40565	0.804
4.44563	0.805
4.48561	0.807
4.52558	0.814
4.56556	0.815
4.60554	0.817
4.64551	0.819
4.68549	0.822
4.72547	0.825
4.76545	0.827
4.80542	0.83
4.8454	0.834
4.88538	0.835
4.92535	0.835
4.96533	0.837
5.00531	0.837
5.04529	0.84
5.08526	0.839
5.12524	0.83
5.16522	0.827
5.20519	0.837
5.24517	0.835
5.28515	0.832
5.32513	0.834
5.3651	0.837
5.40508	0.842
5.44506	0.842
5.48503	0.845
5.52501	0.845
5.56499	0.849
5.60497	0.844
5.64494	0.849
5.68492	0.845
5.7249	0.849
5.76487	0.844
5.80485	0.85
5.84483	0.854
5.88481	0.852
5.92478	0.849
5.96476	0.849
6.00474	0.847
6.04471	0.852
6.08469	0.85
6.12467	0.849
6.16465	0.854
6.20462	0.854
6.2446	0.844
6.28458	0.571
6.32455	0.76
6.36453	0.819
6.40451	0.84
6.44449	0.844
6.48446	0.845
6.52444	0.844
6.56442	0.844
6.60439	0.842
6.64437	0.8
6.68435	0.492
6.72433	0.577
6.7643	0.621
6.80428	0.502
6.84426	0.497
6.88423	0.499
6.92421	0.556
6.96419	0.735
7.00417	0.792
7.04414	0.819
7.08412	0.845
7.1241	0.835
7.16407	0.817
7.20405	0.753
7.24403	0.648
7.28401	0.628
7.32398	0.72
7.36396	0.773
7.40394	0.817
7.44391	0.825
7.48389	0.83
7.52387	0.847
7.56385	0.852
7.60382	0.849
7.6438	0.847
7.68378	0.844
7.72375	0.834
7.76373	0.797
7.80371	0.721
7.84369	0.614
7.88366	0.472
7.92364	0.368
7.96362	0.472
8.00359	0.636
8.04357	0.731
8.08355	0.767
8.12353	0.782
8.1635	0.772
8.20348	0.606
8.24346	0.418
8.28343	0.356
8.32341	0.49
8.36339	0.532
8.40337	0.497
8.44334	0.544
8.48332	0.658
8.5233	0.661
8.56327	0.574
8.60325	0.624
8.64323	0.693
8.68321	0.748
8.72318	0.708
8.76316	0.527
8.80314	0.443
8.84311	0.599
8.88309	0.71
8.92307	0.748
8.96305	0.758
9.00302	0.78
9.043	0.793
9.08298	0.809
9.12295	0.82
9.16293	0.835
9.20291	0.844
9.24289	0.834
9.28286	0.696
9.32284	0.726
9.36282	0.78
9.40279	0.814
9.44277	0.83
9.48275	0.837
9.52273	0.84
9.5627	0.844
9.60268	0.844
9.64266	0.84
9.68263	0.81
9.72261	0.75
9.76259	0.728
9.80257	0.787
9.84254	0.82
9.88252	0.802
9.9225	0.762
9.96247	0.814
10.0025	0.817
10.0424	0.825
10.0824	0.83
10.1224	0.804
10.1624	0.792
10.2023	0.809
10.2423	0.809
10.2823	0.788
10.3223	0.778
10.3622	0.778
10.4022	0.778
10.4422	0.757
10.4822	0.703
10.5222	0.663
10.5621	0.608
10.6021	0.552
10.6421	0.494
10.6821	0.452
10.722	0.422
10.762	0.329
10.802	0.269
10.842	0.351
10.8819	0.46
10.9219	0.467
10.9619	0.49
11.0019	0.572
11.0419	0.653
11.0818	0.713
11.1218	0.742
11.1618	0.76
11.2018	0.783
11.2417	0.798
11.2817	0.81
11.3217	0.819
11.3617	0.827
11.4017	0.835
11.4416	0.84
11.4816	0.844
11.5216	0.844
11.5616	0.85
11.6015	0.854
11.6415	0.857
11.6815	0.857
11.7215	0.859
11.7614	0.86
11.8014	0.859
11.8414	0.859
11.8814	0.859
11.9214	0.859
11.9613	0.86
12.0013	0.86
12.0413	0.859
12.0813	0.864
12.1212	0.867
12.1612	0.867
12.2012	0.869
12.2412	0.869
12.2811	0.869
12.3211	0.869
12.3611	0.869
12.4011	0.869
12.4411	0.869
12.481	0.871
12.521	0.871
12.561	0.869
12.601	0.867
12.6409	0.865
12.6809	0.862
12.7209	0.855
12.7609	0.849
12.8009	0.825
12.8408	0.778
12.8808	0.68
12.9208	0.556
12.9608	0.492
13.0007	0.46
13.0407	0.485
13.0807	0.577
13.1207	0.626
13.1606	0.621
13.2006	0.576
13.2406	0.566
13.2806	0.524
13.3206	0.453
13.3605	0.45
13.4005	0.529
13.4405	0.599
13.4805	0.653
13.5204	0.681
13.5604	0.71
13.6004	0.726
13.6404	0.735
13.6803	0.742
13.7203	0.748
13.7603	0.752
13.8003	0.752
13.8403	0.753
13.8802	0.758
13.9202	0.763
13.9602	0.772
14.0002	0.773
14.0401	0.773
14.0801	0.772
14.1201	0.772
14.1601	0.77
14.2001	0.765
14.24	0.75
14.28	0.716
14.32	0.681
14.36	0.608
14.3999	0.559
14.4399	0.512
14.4799	0.502
14.5199	0.52
14.5598	0.566
14.5998	0.626
14.6398	0.663
14.6798	0.68
14.7198	0.693
14.7597	0.7
14.7997	0.701
14.8397	0.701
14.8797	0.701
14.9196	0.701
14.9596	0.701
14.9996	0.701
15.0396	0.703
15.0795	0.701
15.1195	0.7
15.1595	0.698
15.1995	0.691
15.2395	0.688
15.2794	0.686
15.3194	0.683
15.3594	0.68
15.3994	0.68
15.4393	0.678
15.4793	0.673
15.5193	0.671
15.5593	0.668
15.5993	0.664
15.6392	0.663
15.6792	0.661
15.7192	0.659
15.7592	0.659
15.7991	0.659
15.8391	0.656
15.8791	0.656
15.9191	0.656
15.959	0.656
15.999	0.658
16.039	0.658
