Infrared Spectrum: 2-(2,2-DIMETHYLPENTOXY)-3-(n-PENTYL)-6-(n-HEPTYL) PYRAZINE
Formula: C23 H42 N2 O
CAS: 3049-56-7
State: LIQUID
Class: COBLENTZ
Instrument: Not specified, most likely a prism, grating, or hybrid spectrometer.
Sampling: TRANSMISSION
Path length: 0.0015 CM
Resolution: 4
Origin: WYANDOTTE CHEMICALS CORP., WYANDOTTE, MICHIGAN, USA
MICROMETERS	TRANSMITTANCE
2.007	0.878
2.04794	0.888
2.08887	0.89
2.12981	0.888
2.17074	0.878
2.21168	0.822
2.25261	0.834
2.29355	0.844
2.33448	0.847
2.37542	0.861
2.41635	0.868
2.45729	0.873
2.49822	0.87
2.53916	0.875
2.58009	0.911
2.62103	0.87
2.66196	0.911
2.7029	0.9
2.74384	0.892
2.78477	0.892
2.82571	0.873
2.86664	0.854
2.90758	0.841
2.94851	0.829
2.98945	0.825
3.03038	0.82
3.07132	0.83
3.11225	0.825
3.15319	0.813
3.19412	0.82
3.23506	0.813
3.27599	0.685
3.31693	0.596
3.35786	0.087
3.3988	0.039
3.43973	0.054
3.48067	0.076
3.52161	0.193
3.56254	0.615
3.60348	0.747
3.64441	0.788
3.68535	0.77
3.72628	0.823
3.76722	0.82
3.80815	0.851
3.84909	0.861
3.89002	0.868
3.93096	0.871
3.97189	0.887
4.01283	0.894
4.05376	0.892
4.0947	0.892
4.13563	0.892
4.17657	0.894
4.21751	0.897
4.25844	0.88
4.29938	0.873
4.34031	0.899
4.38125	0.933
4.42218	0.929
4.46312	0.921
4.50405	0.931
4.54499	0.933
4.58592	0.935
4.62686	0.936
4.66779	0.931
4.70873	0.933
4.74966	0.933
4.7906	0.943
4.83153	0.945
4.87247	0.941
4.91341	0.943
4.95434	0.938
4.99528	0.943
5.03621	0.945
5.07715	0.933
5.11808	0.941
5.15902	0.945
5.19995	0.943
5.24089	0.941
5.28182	0.958
5.32276	0.947
5.36369	0.96
5.40463	0.97
5.44556	0.952
5.4865	0.962
5.52743	0.96
5.56837	0.945
5.60931	0.95
5.65024	0.928
5.69118	0.928
5.73211	0.919
5.77305	0.935
5.81398	0.9
5.85492	0.909
5.89585	0.909
5.93679	0.894
5.97772	0.888
6.01866	0.854
6.05959	0.846
6.10053	0.835
6.14146	0.82
6.1824	0.823
6.22333	0.801
6.26427	0.733
6.3052	0.562
6.34614	0.709
6.38708	0.671
6.42801	0.347
6.46895	0.311
6.50988	0.507
6.55082	0.654
6.59175	0.76
6.63269	0.767
6.67362	0.729
6.71456	0.601
6.75549	0.36
6.79643	0.088
6.83736	0.085
6.8783	0.128
6.91923	0.215
6.96017	0.232
7.0011	0.34
7.04204	0.22
7.08298	0.039
7.12391	0.095
7.16485	0.294
7.20578	0.083
7.24672	0.1
7.28765	0.319
7.32859	0.201
7.36952	0.174
7.41046	0.052
7.45139	0.063
7.49233	0.184
7.53326	0.312
7.5742	0.321
7.61513	0.326
7.65607	0.4
7.697	0.384
7.73794	0.461
7.77888	0.499
7.81981	0.505
7.86075	0.521
7.90168	0.533
7.94262	0.552
7.98355	0.606
8.02449	0.67
8.06542	0.692
8.10636	0.682
8.14729	0.685
8.18823	0.683
8.22916	0.658
8.2701	0.637
8.31103	0.584
8.35197	0.437
8.3929	0.333
8.43384	0.242
8.47478	0.196
8.51571	0.097
8.55665	0.058
8.59758	0.075
8.63852	0.176
8.67945	0.254
8.72039	0.326
8.76132	0.524
8.80226	0.709
8.84319	0.784
8.88413	0.805
8.92506	0.784
8.966	0.726
9.00693	0.695
9.04787	0.652
9.0888	0.637
9.12974	0.647
9.17067	0.629
9.21161	0.589
9.25255	0.581
9.29348	0.601
9.33442	0.623
9.37535	0.658
9.41629	0.683
9.45722	0.697
9.49816	0.699
9.53909	0.664
9.58003	0.562
9.62096	0.391
9.6619	0.256
9.70283	0.217
9.74377	0.215
9.7847	0.234
9.82564	0.307
9.86657	0.389
9.90751	0.434
9.94845	0.432
9.98938	0.422
10.0303	0.452
10.0713	0.524
10.1122	0.577
10.1531	0.598
10.1941	0.581
10.235	0.548
10.2759	0.567
10.3169	0.623
10.3578	0.688
10.3987	0.747
10.4397	0.776
10.4806	0.794
10.5215	0.811
10.5625	0.8
10.6034	0.772
10.6443	0.735
10.6853	0.733
10.7262	0.702
10.7672	0.673
10.8081	0.687
10.849	0.68
10.89	0.694
10.9309	0.74
10.9718	0.764
11.0128	0.776
11.0537	0.789
11.0946	0.781
11.1356	0.772
11.1765	0.764
11.2174	0.738
11.2584	0.697
11.2993	0.632
11.3402	0.581
11.3812	0.623
11.4221	0.728
11.4631	0.791
11.504	0.83
11.5449	0.849
11.5859	0.851
11.6268	0.849
11.6677	0.863
11.7087	0.875
11.7496	0.878
11.7905	0.871
11.8315	0.863
11.8724	0.868
11.9133	0.861
11.9543	0.858
11.9952	0.871
12.0361	0.873
12.0771	0.873
12.118	0.876
12.159	0.871
12.1999	0.87
12.2408	0.859
12.2818	0.859
12.3227	0.863
12.3636	0.864
12.4046	0.873
12.4455	0.871
12.4864	0.863
12.5274	0.859
12.5683	0.852
12.6092	0.849
12.6502	0.844
12.6911	0.841
12.732	0.844
12.773	0.839
12.8139	0.829
12.8549	0.825
12.8958	0.822
12.9367	0.815
12.9777	0.801
13.0186	0.789
13.0595	0.788
13.1005	0.782
13.1414	0.791
13.1823	0.786
13.2233	0.796
13.2642	0.793
13.3051	0.796
13.3461	0.788
13.387	0.776
13.4279	0.755
13.4689	0.728
13.5098	0.695
13.5508	0.68
13.5917	0.68
13.6326	0.692
13.6736	0.709
13.7145	0.721
13.7554	0.723
13.7964	0.709
13.8373	0.699
13.8782	0.699
13.9192	0.723
13.9601	0.753
14.001	0.788
14.042	0.808
14.0829	0.827
14.1238	0.841
14.1648	0.842
14.2057	0.852
14.2467	0.851
14.2876	0.847
14.3285	0.849
14.3695	0.851
14.4104	0.852
14.4513	0.851
14.4923	0.849
14.5332	0.837
14.5741	0.837
14.6151	0.83
14.656	0.83
14.6969	0.827
14.7379	0.825
14.7788	0.817
14.8197	0.81
14.8607	0.8
14.9016	0.796
14.9426	0.777
14.9835	0.77
15.0244	0.74
15.0654	0.721
15.1063	0.735
15.1472	0.75
15.1882	0.753
15.2291	0.741
15.27	0.74
15.311	0.728
15.3519	0.735
15.3928	0.729
15.4338	0.723
15.4747	0.723
15.5156	0.719
15.5566	0.712
15.5975	0.709
15.6385	0.699
15.6794	0.69
15.7203	0.682
15.7613	0.682
15.8022	0.671
15.8431	0.663
15.8841	0.649
15.925	0.644
15.9659	0.637
