Infrared Spectrum: Coumarin, 6,7-dihydroxy-
Formula: C9 H6 O4
CAS: 305-01-1
State: SOLID (0.8 mg / 230 mg KBr DISC)
Class: COBLENTZ III
Instrument: CARY 90 (GRATING)
Instrument parameters: GRATING CHANGES: 3000, 2000, 1200 CM^-^1
Sampling: TRANSMISSION
Resolution: 2
Origin: WESTERN REGIONAL RES. USDA
1/CM	TRANSMITTANCE
453	0.5013
462	0.5036
471	0.5001
480	0.4939
489	0.4912
498	0.4999
507	0.5055
516	0.4983
525	0.487
534	0.4864
543	0.4878
552	0.4741
561	0.4632
570	0.4644
579	0.4479
588	0.4419
597	0.4607
606	0.4705
615	0.4582
624	0.4403
633	0.4525
642	0.4242
651	0.4791
660	0.4942
669	0.4984
678	0.5115
687	0.5156
696	0.4774
705	0.5043
714	0.5414
723	0.57
732	0.6019
741	0.5883
750	0.5799
759	0.5673
768	0.6492
777	0.6598
786	0.6656
795	0.6728
804	0.662
813	0.5816
822	0.4243
831	0.5651
840	0.6415
849	0.6472
858	0.6088
867	0.4991
876	0.4838
885	0.633
894	0.5582
903	0.6175
912	0.6713
921	0.6262
930	0.5911
939	0.6879
948	0.73
957	0.7319
966	0.7134
975	0.6491
984	0.4993
993	0.4683
1002	0.3901
1011	0.311
1020	0.2536
1029	0.284
1038	0.2476
1047	0.26
1056	0.2031
1065	0.0808
1074	0.1542
1083	0.161
1092	0.3209
1101	0.3408
1110	0.4225
1119	0.4467
1128	0.4292
1137	0.3828
1146	0.4081
1155	0.5829
1164	0.5444
1173	0.565
1182	0.5412
1191	0.525
1200	0.6117
1209	0.6284
1218	0.6047
1227	0.5627
1236	0.595
1245	0.5824
1254	0.3238
1263	0.329
1272	0.4234
1281	0.3688
1290	0.3305
1299	0.2581
1308	0.3416
1317	0.5232
1326	0.5396
1335	0.5642
1344	0.6268
1353	0.6194
1362	0.5799
1371	0.492
1380	0.3918
1389	0.4119
1398	0.3507
1407	0.4195
1416	0.4982
1425	0.5862
1434	0.5205
1443	0.4719
1452	0.6333
1461	0.7307
1470	0.7093
1479	0.7948
1488	0.7833
1497	0.6413
1506	0.4187
1515	0.55
1524	0.6486
1533	0.8084
1542	0.8011
1551	0.7088
1560	0.3718
1569	0.3097
1578	0.5033
1587	0.7076
1596	0.6695
1605	0.447
1614	0.3247
1623	0.4431
1632	0.5129
1641	0.6281
1650	0.6427
1659	0.6251
1668	0.5086
1677	0.1764
1686	0.2362
1695	0.229
1704	0.1814
1713	0.2121
1722	0.286
1731	0.4032
1740	0.5924
1749	0.7497
1758	0.8158
1767	0.8556
1776	0.8852
1785	0.8977
1794	0.902
1803	0.9031
1812	0.9092
1821	0.9209
1830	0.9233
1839	0.9259
1848	0.927
1857	0.9276
1866	0.93
1875	0.9329
1884	0.9372
1893	0.9424
1902	0.941
1911	0.9397
1920	0.9379
1929	0.9373
1938	0.9368
1947	0.9348
1956	0.9328
1965	0.9307
1974	0.9286
1983	0.9277
1992	0.9268
2001	0.9193
2010	0.914
2019	0.9116
2028	0.9101
2037	0.9098
2046	0.9106
2055	0.9113
2064	0.9124
2073	0.9135
2082	0.9146
2091	0.9157
2100	0.9163
2109	0.9164
2118	0.9164
2127	0.9164
2136	0.9163
2145	0.9162
2154	0.9161
2163	0.9166
2172	0.9172
2181	0.9177
2190	0.9176
2199	0.9174
2208	0.9172
2217	0.9169
2226	0.9167
2235	0.9164
2244	0.916
2253	0.9155
2262	0.9151
2271	0.9145
2280	0.9141
2289	0.9135
2298	0.9123
2307	0.9097
2316	0.907
2325	0.9043
2334	0.9017
2343	0.899
2352	0.8964
2361	0.8937
2370	0.8909
2379	0.8877
2388	0.8847
2397	0.8815
2406	0.8782
2415	0.8749
2424	0.8716
2433	0.868
2442	0.8642
2451	0.8602
2460	0.8564
2469	0.8525
2478	0.8486
2487	0.8449
2496	0.8411
2505	0.8374
2514	0.8334
2523	0.8293
2532	0.8252
2541	0.8211
2550	0.8168
2559	0.8118
2568	0.8069
2577	0.8019
2586	0.797
2595	0.7927
2604	0.7891
2613	0.7856
2622	0.7829
2631	0.7809
2640	0.7789
2649	0.7757
2658	0.7708
2667	0.7656
2676	0.7614
2685	0.7579
2694	0.7545
2703	0.7511
2712	0.7477
2721	0.7444
2730	0.7412
2739	0.7378
2748	0.7341
2757	0.7304
2766	0.7267
2775	0.7248
2784	0.7232
2793	0.7209
2802	0.7179
2811	0.7126
2820	0.7023
2829	0.6889
2838	0.675
2847	0.6604
2856	0.641
2865	0.621
2874	0.6052
2883	0.5957
2892	0.5892
2901	0.6109
2910	0.6169
2919	0.6022
2928	0.5996
2937	0.6007
2946	0.6069
2955	0.6206
2964	0.6418
2973	0.6582
2982	0.6652
2991	0.6629
3000	0.6543
3009	0.6436
3018	0.63
3027	0.6149
3036	0.5941
3045	0.5737
3054	0.5554
3063	0.5347
3072	0.5306
3081	0.5259
3090	0.5188
3099	0.4997
3108	0.4722
3117	0.4527
3126	0.4369
3135	0.4211
3144	0.4063
3153	0.3919
3162	0.3776
3171	0.3613
3180	0.3449
3189	0.3281
3198	0.3122
3207	0.2986
3216	0.2848
3225	0.2679
3234	0.252
3243	0.2382
3252	0.2246
3261	0.2111
3270	0.1998
3279	0.1938
3288	0.1903
3297	0.187
3306	0.1847
3315	0.1822
3324	0.1805
3333	0.1792
3342	0.178
3351	0.1766
3360	0.1755
3369	0.1734
3378	0.1728
3387	0.1745
3396	0.1816
3405	0.1899
3414	0.1998
3423	0.2101
3432	0.2213
3441	0.2319
3450	0.2415
3459	0.2419
3468	0.241
3477	0.2422
3486	0.2765
3495	0.3077
3504	0.327
3513	0.3433
3522	0.3426
3531	0.3405
3540	0.346
3549	0.4224
3558	0.5074
3567	0.5539
3576	0.6103
3585	0.6564
3594	0.666
3603	0.6746
3612	0.7038
3621	0.7407
3630	0.7786
3639	0.8088
3648	0.8373
3657	0.8719
3666	0.8914
3675	0.9065
3684	0.916
3693	0.9192
3702	0.9206
3711	0.9217
3720	0.9247
3729	0.9282
3738	0.934
3747	0.9366
3756	0.9324
3765	0.9281
3774	0.9242
3783	0.9213
3792	0.9216
3801	0.9256
3810	0.9319
3819	0.9356
3828	0.9363
3837	0.936
3846	0.9354
3855	0.9348
3864	0.934
3873	0.9329
3882	0.9311
3891	0.9289
3900	0.9269
3909	0.9246
3918	0.9224
3927	0.9196
3936	0.9161
3945	0.9126
3954	0.9093
3963	0.9065
3972	0.9066
3981	0.9066
3990	0.9067
3999	0.9068
