Infrared Spectrum: 2,6-Diiodo-4-nitrophenol
Formula: C 6 H 3 I 2 N O 3
CAS: 305-85-1
State: gas
Origin: EPA-IR VAPOR PHASE LIBRARY
1/CM	ABSORBANCE
501.5	0.0009033
513.074	0.0005537
524.648	0.0006363
536.222	0.0005615
547.796	0.0006986
559.37	0.00102
570.944	0.00104
582.518	0.00139
594.092	0.0009274
605.666	0.0006177
617.24	0.000619
628.814	0.0009501
640.388	0.0014
651.962	0.00207
663.536	0.01011
675.11	0.01727
686.684	0.00695
698.258	0.00645
709.832	0.01332
721.406	0.00628
732.98	0.00807
744.554	0.00495
756.128	0.00181
767.702	0.0011
779.276	0.00135
790.85	0.00226
802.423	0.00233
813.997	0.00254
825.571	0.00117
837.145	0.0008777
848.719	0.000875
860.293	0.0009562
871.867	0.00193
883.441	0.00465
895.015	0.01
906.589	0.00617
918.163	0.00138
929.737	0.0008934
941.311	0.0007042
952.885	0.0005781
964.459	0.0003049
976.033	0.0004019
987.607	0.0004147
999.181	0.0005227
1010.76	0.0007062
1022.33	0.0009432
1033.9	0.0009318
1045.48	0.0008378
1057.05	0.0009086
1068.63	0.00116
1080.2	0.00168
1091.77	0.00262
1103.35	0.00562
1114.92	0.01853
1126.49	0.01622
1138.07	0.00595
1149.64	0.01146
1161.22	0.00869
1172.79	0.00375
1184.36	0.004
1195.94	0.00525
1207.51	0.00525
1219.09	0.00693
1230.66	0.01813
1242.23	0.01105
1253.81	0.00539
1265.38	0.00519
1276.96	0.00582
1288.53	0.00601
1300.1	0.00858
1311.68	0.0232
1323.25	0.03781
1334.83	0.0427
1346.4	0.09215
1357.97	0.03128
1369.55	0.00583
1381.12	0.00445
1392.7	0.00753
1404.27	0.01138
1415.84	0.00683
1427.42	0.00847
1438.99	0.02269
1450.57	0.01659
1462.14	0.00639
1473.71	0.00449
1485.29	0.00534
1496.86	0.0058
1508.44	0.00463
1520.01	0.01052
1531.58	0.04487
1543.16	0.05895
1554.73	0.01066
1566.31	0.00893
1577.88	0.01171
1589.45	0.0103
1601.03	0.00345
1612.6	0.00218
1624.18	0.00228
1635.75	0.00201
1647.32	0.00114
1658.9	0.0008179
1670.47	0.0004922
1682.05	0.0004994
1693.62	0.0006278
1705.19	0.0005533
1716.77	0.0003171
1728.34	0.000295
1739.92	0.0003259
1751.49	0.000509
1763.06	0.001
1774.64	0.00143
1786.21	0.00147
1797.79	0.00104
1809.36	0.0005345
1820.93	0.0002885
1832.51	0.0002135
1844.08	0.0001529
1855.66	0.0001341
1867.23	9.228e-05
1878.8	8.741e-05
1890.38	0.00012
1901.95	0.0001312
1913.53	0.0001517
1925.1	0.0001558
1936.67	0.0001192
1948.25	0.0001145
1959.82	7.417e-05
1971.4	8.264e-05
1982.97	7.903e-05
1994.54	0.0001179
2006.12	0.0001472
2017.69	0.000184
2029.27	0.0001261
2040.84	0.0001002
2052.41	0.0001209
2063.99	0.0001075
2075.56	0.0001758
2087.14	0.0001733
2098.71	0.0001757
2110.28	0.0001453
2121.86	0.0001399
2133.43	7.1e-05
2145.01	0.000103
2156.58	7.022e-05
2168.15	7.296e-05
2179.73	0.0001279
2191.3	0.0001773
2202.88	0.0001545
2214.45	0.0001214
2226.02	0.0001955
2237.6	0.0002486
2249.17	0.0002045
2260.74	0.0001549
2272.32	0.0001527
2283.89	0.0001314
2295.47	0.0001046
2307.04	0.0001175
2318.61	0.0001338
2330.19	0.0001516
2341.76	0.0002587
2353.34	0.000273
2364.91	0.000241
2376.48	0.0002656
2388.06	0.0001974
2399.63	0.0001447
2411.21	0.0001748
2422.78	0.0002604
2434.35	0.0003403
2445.93	0.0004167
2457.5	0.0005848
2469.08	0.0006265
2480.65	0.0004989
2492.22	0.0004691
2503.8	0.0004985
2515.37	0.0004231
2526.95	0.0003145
2538.52	0.0003372
2550.09	0.0003594
2561.67	0.00024
2573.24	0.000175
2584.82	0.0001885
2596.39	0.0001972
2607.96	0.0002032
2619.54	0.0002686
2631.11	0.0003362
2642.69	0.0003138
2654.26	0.0002342
2665.83	0.0003046
2677.41	0.0003877
2688.98	0.0004016
2700.56	0.0003326
2712.13	0.0003472
2723.7	0.0002601
2735.28	0.0002095
2746.85	0.0002228
2758.43	0.0002574
2770	0.0001972
2781.57	0.0002037
2793.15	0.0002496
2804.72	0.0002044
2816.3	0.0002399
2827.87	0.0003602
2839.44	0.0004444
2851.02	0.0005748
2862.59	0.0009043
2874.17	0.00127
2885.74	0.0008812
2897.31	0.0005944
2908.89	0.0006279
2920.46	0.0006187
2932.04	0.0004414
2943.61	0.0002605
2955.18	0.000179
2966.76	0.000155
2978.33	0.0001719
2989.91	0.0001929
3001.48	0.0001944
3013.05	0.0002229
3024.63	0.0001789
3036.2	0.0001678
3047.78	0.0002453
3059.35	0.0003711
3070.92	0.0008161
3082.5	0.0025
3094.07	0.0038
3105.65	0.00159
3117.22	0.0006651
3128.79	0.0003677
3140.37	0.0003322
3151.94	0.0003504
3163.52	0.0002536
3175.09	0.0003
3186.66	0.0002387
3198.24	0.0001694
3209.81	0.0001667
3221.39	0.0001691
3232.96	0.0002106
3244.53	0.0004972
3256.11	0.0004403
3267.68	0.0002061
3279.26	0.0001607
3290.83	0.0001651
3302.4	0.0001766
3313.98	0.0001549
3325.55	0.0001654
3337.13	0.0001645
3348.7	0.0001784
3360.27	0.0002791
3371.85	0.0002455
3383.42	0.0004073
3395	0.0005187
3406.57	0.0009368
3418.14	0.0005894
3429.72	0.0004102
3441.29	0.000384
3452.86	0.0004021
3464.44	0.0007231
3476.01	0.00146
3487.59	0.00521
3499.16	0.03413
3510.73	0.0261
3522.31	0.00938
3533.88	0.00356
3545.46	0.00138
3557.03	0.0007138
3568.6	0.0005784
3580.18	0.0005146
3591.75	0.0005558
3603.33	0.0005146
3614.9	0.0004176
3626.47	0.000358
3638.05	0.0003092
3649.62	0.0002674
3661.2	0.0001921
3672.77	0.0002571
3684.34	0.0002171
3695.92	0.0001748
3707.49	0.0001213
3719.07	0.0001629
3730.64	0.0001751
3742.21	0.0001681
3753.79	0.0003558
3765.36	0.0002918
3776.94	0.0002573
3788.51	0.0001942
3800.08	0.0002718
3811.66	0.0002658
3823.23	0.0002876
3834.81	0.0002033
3846.38	0.0002235
3857.95	0.0002248
3869.53	0.0002658
3881.1	0.0001162
3892.68	0.0001848
3904.25	0.0001978
3915.82	0.0002551
3927.4	0.000173
3938.97	0.0001844
3950.55	0.0002214
3962.12	0.0001834
3973.69	0.0001461
3985.27	0.0002281
3996.84	0.0003228
