Infrared Spectrum: 2,5-DICHLOROPHENYL HYDRAZINE
Formula: C6 H6 Cl2 N2
CAS: 305-15-7
State: SOLID (MINERAL OIL MULL)
Melting point: 102-103.5 C
Class: COBLENTZ
Instrument: Not specified, most likely a prism, grating, or hybrid spectrometer.
Sampling: TRANSMISSION
Resolution: 4
Origin: WYANDOTTE CHEMICALS CORP., WYANDOTTE, MICHIGAN, USA
MICROMETERS	TRANSMITTANCE
2.031	0.237
2.06815	0.236
2.1053	0.237
2.14246	0.245
2.17961	0.26
2.21676	0.257
2.25391	0.263
2.29106	0.257
2.32822	0.263
2.36537	0.277
2.40252	0.288
2.43967	0.301
2.47682	0.304
2.51398	0.31
2.55113	0.321
2.58828	0.332
2.62543	0.336
2.66259	0.352
2.69974	0.358
2.73689	0.364
2.77404	0.369
2.81119	0.378
2.84835	0.371
2.8855	0.374
2.92265	0.38
2.9598	0.378
2.99695	0.285
3.03411	0.195
3.07126	0.076
3.10841	0.054
3.14556	0.035
3.18271	0.066
3.21987	0.107
3.25702	0.116
3.29417	0.131
3.33132	0.071
3.36847	0.024
3.40563	0.02
3.44278	0.026
3.47993	0.024
3.51708	0.082
3.55423	0.315
3.59139	0.411
3.62854	0.456
3.66569	0.461
3.70284	0.462
3.73999	0.465
3.77715	0.475
3.8143	0.49
3.85145	0.495
3.8886	0.501
3.92576	0.518
3.96291	0.534
4.00006	0.557
4.03721	0.569
4.07436	0.586
4.11152	0.58
4.14867	0.588
4.18582	0.591
4.22297	0.593
4.26012	0.562
4.29728	0.571
4.33443	0.593
4.37158	0.63
4.40873	0.644
4.44588	0.638
4.48304	0.636
4.52019	0.635
4.55734	0.649
4.59449	0.658
4.63164	0.666
4.6688	0.677
4.70595	0.684
4.7431	0.698
4.78025	0.704
4.8174	0.708
4.85456	0.708
4.89171	0.709
4.92886	0.711
4.96601	0.722
5.00317	0.74
5.04032	0.759
5.07747	0.77
5.11462	0.768
5.15177	0.776
5.18893	0.785
5.22608	0.802
5.26323	0.819
5.30038	0.826
5.33753	0.829
5.37469	0.796
5.41184	0.672
5.44899	0.791
5.48614	0.844
5.52329	0.858
5.56045	0.863
5.5976	0.841
5.63475	0.832
5.6719	0.861
5.70905	0.872
5.74621	0.878
5.78336	0.807
5.82051	0.86
5.85766	0.888
5.89481	0.869
5.93197	0.782
5.96912	0.891
6.00627	0.894
6.04342	0.875
6.08057	0.788
6.11773	0.579
6.15488	0.388
6.19203	0.327
6.22918	0.027
6.26634	0.076
6.30349	0.17
6.34064	0.42
6.37779	0.605
6.41494	0.658
6.4521	0.67
6.48925	0.678
6.5264	0.506
6.56355	0.268
6.6007	0.113
6.63786	0.071
6.67501	0.145
6.71216	0.217
6.74931	0.169
6.78646	0.066
6.82362	0.024
6.86077	0.055
6.89792	0.133
6.93507	0.212
6.97222	0.274
7.00938	0.282
7.04653	0.094
7.08368	0.026
7.12083	0.141
7.15798	0.251
7.19514	0.229
7.23229	0.144
7.26944	0.192
7.30659	0.304
7.34375	0.484
7.3809	0.538
7.41805	0.585
7.4552	0.631
7.49235	0.672
7.52951	0.689
7.56666	0.645
7.60381	0.56
7.64096	0.302
7.67811	0.128
7.71527	0.144
7.75242	0.114
7.78957	0.085
7.82672	0.057
7.86387	0.099
7.90103	0.298
7.93818	0.251
7.97533	0.4
8.01248	0.549
8.04963	0.622
8.08679	0.686
8.12394	0.746
8.16109	0.787
8.19824	0.805
8.23539	0.822
8.27255	0.829
8.3097	0.84
8.34685	0.858
8.384	0.872
8.42115	0.871
8.45831	0.868
8.49546	0.863
8.53261	0.841
8.56976	0.807
8.60692	0.745
8.64407	0.605
8.68122	0.295
8.71837	0.2
8.75552	0.425
8.79268	0.641
8.82983	0.746
8.86698	0.784
8.90413	0.756
8.94128	0.655
8.97844	0.535
9.01559	0.726
9.05274	0.759
9.08989	0.512
9.12704	0.149
9.1642	0.062
9.20135	0.284
9.2385	0.492
9.27565	0.655
9.3128	0.75
9.34996	0.804
9.38711	0.847
9.42426	0.881
9.46141	0.895
9.49856	0.805
9.53572	0.496
9.57287	0.147
9.61002	0.032
9.64717	0.066
9.68433	0.208
9.72148	0.388
9.75863	0.487
9.79578	0.54
9.83293	0.614
9.87009	0.65
9.90724	0.69
9.94439	0.732
9.98154	0.77
10.0187	0.798
10.0558	0.819
10.093	0.827
10.1301	0.822
10.1673	0.819
10.2045	0.796
10.2416	0.762
10.2788	0.731
10.3159	0.675
10.3531	0.579
10.3902	0.406
10.4274	0.228
10.4645	0.125
10.5017	0.173
10.5388	0.333
10.576	0.467
10.6131	0.565
10.6503	0.611
10.6874	0.635
10.7246	0.562
10.7617	0.576
10.7989	0.549
10.836	0.641
10.8732	0.653
10.9103	0.593
10.9475	0.518
10.9846	0.428
11.0218	0.318
11.059	0.226
11.0961	0.144
11.1333	0.088
11.1704	0.077
11.2076	0.104
11.2447	0.173
11.2819	0.265
11.319	0.369
11.3562	0.459
11.3933	0.527
11.4305	0.571
11.4676	0.6
11.5048	0.625
11.5419	0.642
11.5791	0.642
11.6162	0.653
11.6534	0.658
11.6905	0.656
11.7277	0.642
11.7648	0.604
11.802	0.538
11.8391	0.416
11.8763	0.239
11.9134	0.069
11.9506	0.023
11.9878	0.088
12.0249	0.302
12.0621	0.493
12.0992	0.555
12.1364	0.588
12.1735	0.604
12.2107	0.613
12.2478	0.611
12.285	0.593
12.3221	0.577
12.3593	0.548
12.3964	0.506
12.4336	0.451
12.4707	0.335
12.5079	0.159
12.545	0.076
12.5822	0.048
12.6193	0.029
12.6565	0.02
12.6936	0.02
12.7308	0.055
12.7679	0.178
12.8051	0.263
12.8423	0.27
12.8794	0.242
12.9166	0.195
12.9537	0.147
12.9909	0.108
13.028	0.077
13.0652	0.059
13.1023	0.048
13.1395	0.043
13.1766	0.041
13.2138	0.041
13.2509	0.051
13.2881	0.072
13.3252	0.1
13.3624	0.135
13.3995	0.189
13.4367	0.25
13.4738	0.324
13.511	0.386
13.5481	0.456
13.5853	0.529
13.6224	0.596
13.6596	0.669
13.6967	0.746
13.7339	0.802
13.7711	0.868
13.8082	0.92
13.8454	0.948
13.8825	0.962
13.9197	0.979
13.9568	0.975
13.994	0.913
14.0311	0.833
14.0683	0.712
14.1054	0.582
14.1426	0.453
14.1797	0.341
14.2169	0.259
14.254	0.246
14.2912	0.29
14.3283	0.411
14.3655	0.5
14.4026	0.493
14.4398	0.399
14.4769	0.285
14.5141	0.204
14.5512	0.153
14.5884	0.136
14.6255	0.131
14.6627	0.141
14.6999	0.145
14.737	0.167
14.7742	0.184
14.8113	0.212
14.8485	0.239
14.8856	0.267
14.9228	0.31
14.9599	0.329
14.9971	0.354
15.0342	0.369
15.0714	0.397
15.1085	0.439
15.1457	0.47
15.1828	0.495
15.22	0.529
15.2571	0.552
15.2943	0.574
15.3314	0.588
15.3686	0.6
15.4057	0.621
15.4429	0.63
15.48	0.642
15.5172	0.65
15.5544	0.663
15.5915	0.672
15.6287	0.669
15.6658	0.68
15.703	0.686
15.7401	0.683
15.7773	0.677
15.8144	0.675
15.8516	0.672
15.8887	0.664
15.9259	0.655
15.963	0.645
