Infrared Spectrum: 2,3,4-Trimethyl-3-pentanol
Formula: C 8 H 18 O
CAS: 3054-92-0
State: gas
Instrument: HP-GC/MS/IRD
Origin: NIST Mass Spectrometry Data Center
1/CM	ABSORBANCE
550	0.0005292
562	0.0003626
574	0.0002793
586	0.0003528
598	0.0005145
610	0.0002989
622	0.0002303
634	0.0001274
646	0.0001666
658	0.0002254
670	0.0002989
682	0.0004753
694	0.0003185
706	0.0001715
718	0.0001323
730	5.39e-05
742	9.8e-06
754	9.8e-06
766	2.45e-05
778	7.84e-05
790	8.82e-05
802	0.0001911
814	0.0003038
826	0.0003479
838	0.0003185
850	0.0004606
862	0.0011711
874	0.0022589
886	0.0027783
898	0.0034741
910	0.0053851
922	0.0050225
934	0.0029351
946	0.0018081
958	0.0015582
970	0.0018571
982	0.0032683
994	0.0051695
1006	0.0049637
1018	0.0038563
1030	0.0041944
1042	0.0055517
1054	0.0061005
1066	0.0055419
1078	0.0044884
1090	0.0042483
1102	0.0048902
1114	0.0060907
1126	0.0069776
1138	0.0067816
1150	0.0064827
1162	0.0062524
1174	0.0056154
1186	0.0044933
1198	0.0034202
1210	0.0024696
1222	0.0020237
1234	0.0020139
1246	0.0022393
1258	0.0027097
1270	0.0034692
1282	0.0040376
1294	0.0039886
1306	0.0035231
1318	0.0029694
1330	0.0025676
1342	0.0027342
1354	0.0039837
1366	0.0076342
1378	0.0120246
1390	0.0109515
1402	0.0054047
1414	0.0022736
1426	0.0019257
1438	0.0027734
1450	0.004508
1462	0.0066493
1474	0.0067424
1486	0.0042434
1498	0.00196
1510	0.0010584
1522	0.0007301
1534	0.0005488
1546	0.0004606
1558	0.0003626
1570	0.0002989
1582	0.0002842
1594	0.000245
1606	0.0002548
1618	0.0002352
1630	0.0002401
1642	0.0002352
1654	0.0002254
1666	0.0002058
1678	0.0001764
1690	0.000147
1702	8.82e-05
1714	7.35e-05
1726	4.9e-05
1738	3.43e-05
1750	3.43e-05
1762	1.47e-05
1774	1.47e-05
1786	4.41e-05
1798	2.94e-05
1810	3.92e-05
1822	2.45e-05
1834	2.94e-05
1846	3.92e-05
1858	3.43e-05
1870	2.94e-05
1882	3.92e-05
1894	2.94e-05
1906	2.45e-05
1918	1.96e-05
1930	9.8e-06
1942	9.8e-06
1954	9.8e-06
1966	2.94e-05
1978	1.96e-05
1990	1.47e-05
2002	9.8e-06
2014	2.45e-05
2026	1.96e-05
2038	3.43e-05
2050	3.43e-05
2062	3.43e-05
2074	3.92e-05
2086	2.45e-05
2098	1.96e-05
2110	9.8e-06
2122	4.9e-06
2134	0
2146	2.45e-05
2158	4.9e-06
2170	2.45e-05
2182	3.43e-05
2194	3.43e-05
2206	3.43e-05
2218	0
2230	2.45e-05
2242	4.9e-05
2254	6.86e-05
2266	6.37e-05
2278	6.37e-05
2290	8.33e-05
2302	0.0001029
2314	7.84e-05
2326	7.35e-05
2338	8.33e-05
2350	7.35e-05
2362	0.0001127
2374	0.0001568
2386	0.0001568
2398	0.0001862
2410	0.0001225
2422	0.0001225
2434	0.0001078
2446	8.82e-05
2458	9.31e-05
2470	0.0001078
2482	0.0001078
2494	0.0001225
2506	0.0001323
2518	0.0001421
2530	0.0001225
2542	0.0001372
2554	0.0001519
2566	0.0001911
2578	0.000245
2590	0.0003185
2602	0.0004116
2614	0.0004459
2626	0.0004312
2638	0.0004067
2650	0.0003577
2662	0.0003626
2674	0.0003773
2686	0.0003528
2698	0.0004018
2710	0.0004753
2722	0.0006664
2734	0.000833
2746	0.000931
2758	0.0009212
2770	0.0009751
2782	0.001029
2794	0.0010976
2806	0.0012642
2818	0.0015435
2830	0.0019257
2842	0.0024157
2854	0.0034251
2866	0.0059633
2878	0.0121324
2890	0.0172039
2902	0.0172627
2914	0.0182966
2926	0.0206192
2938	0.0245588
2950	0.0293216
2962	0.0389354
2974	0.049
2986	0.0400722
2998	0.0209622
3010	0.0089474
3022	0.0041601
3034	0.0026754
3046	0.0020923
3058	0.0017885
3070	0.0015484
3082	0.0013181
3094	0.0011515
3106	0.0010682
3118	0.0009653
3130	0.0009359
3142	0.0009506
3154	0.0009065
3166	0.0008624
3178	0.0008134
3190	0.0007595
3202	0.0006076
3214	0.0004508
3226	0.0003234
3238	0.0002842
3250	0.0002107
3262	0.0001764
3274	0.0001421
3286	0.0001274
3298	9.31e-05
3310	9.31e-05
3322	0.0001127
3334	0.0001323
3346	0.0001029
3358	0.0001372
3370	0.0001372
3382	0.0001323
3394	0.0001372
3406	0.0001127
3418	0.0001274
3430	0.0001617
3442	0.0001568
3454	0.0001568
3466	0.0001421
3478	9.31e-05
3490	5.39e-05
3502	5.39e-05
3514	3.43e-05
3526	4.9e-05
3538	4.9e-05
3550	3.92e-05
3562	5.39e-05
3574	2.94e-05
3586	3.43e-05
3598	6.86e-05
3610	0.0002058
3622	0.000588
3634	0.0013965
3646	0.0020825
3658	0.0015778
3670	0.0005782
3682	0.0001323
3694	0
3706	1.47e-05
3718	0
3730	0
3742	0
3754	1.96e-05
3766	1.96e-05
3778	3.92e-05
3790	4.9e-06
3802	8.33e-05
3814	5.88e-05
3826	0.0001078
3838	0.0001372
