Infrared Spectrum: 9H-PURINE, 2,6-DICHLORO-9-Beta-D-RIBOFURANOSYL-, 2',3',5'-TRIACETATE
Formula: C16 H16 Cl2 N4 O7
CAS: 3056-18-6
State: SOLID (1 mg / 650 mg KBr DISC)
Class: COBLENTZ III
Instrument: PERKIN-ELMER 221 (GRATING)
Instrument parameters: FILTER CHANGES AT 2490, 980 CM^-^1, GRATING FOR 4000-1428 CM^-^1, NaCl PRISM FOR 1428-650 CM^-^1
Sampling: TRANSMISSION
Resolution: 4
Origin: SOUTHERN RESEARCH INST.
1/CM	TRANSMITTANCE
602.642	0.719
612.218	0.707
621.794	0.653
631.371	0.528
640.947	0.797
650.523	0.831
660.099	0.823
669.676	0.704
679.252	0.785
688.828	0.838
698.404	0.813
707.98	0.746
717.557	0.813
727.133	0.811
736.709	0.693
746.285	0.624
755.862	0.742
765.438	0.817
775.014	0.811
784.59	0.624
794.167	0.788
803.743	0.681
813.319	0.599
822.895	0.753
832.471	0.788
842.048	0.779
851.624	0.666
861.2	0.681
870.776	0.565
880.353	0.318
889.929	0.689
899.505	0.557
909.081	0.528
918.657	0.624
928.234	0.722
937.81	0.636
947.386	0.715
956.962	0.629
966.539	0.348
976.115	0.527
985.691	0.579
995.267	0.591
1004.84	0.522
1014.42	0.494
1024	0.624
1033.57	0.591
1043.15	0.449
1052.72	0.314
1062.3	0.385
1071.88	0.404
1081.45	0.55
1091.03	0.364
1100.61	0.41
1110.18	0.485
1119.76	0.517
1129.33	0.251
1138.91	0.489
1148.49	0.456
1158.06	0.249
1167.64	0.535
1177.22	0.445
1186.79	0.112
1196.37	0.175
1205.94	0.126
1215.52	0.093
1225.1	0.131
1234.67	0.124
1244.25	0.244
1253.83	0.419
1263.4	0.524
1272.98	0.549
1282.55	0.648
1292.13	0.713
1301.71	0.719
1311.28	0.563
1320.86	0.654
1330.44	0.692
1340.01	0.367
1349.59	0.235
1359.16	0.285
1368.74	0.3
1378.32	0.46
1387.89	0.498
1397.47	0.578
1407.04	0.677
1416.62	0.671
1426.2	0.667
1435.77	0.681
1445.35	0.647
1454.93	0.761
1464.5	0.767
1474.08	0.724
1483.65	0.544
1493.23	0.764
1502.81	0.789
1512.38	0.777
1521.96	0.767
1531.54	0.745
1541.11	0.689
1550.69	0.278
1560.26	0.321
1569.84	0.642
1579.42	0.519
1588.99	0.258
1598.57	0.543
1608.15	0.715
1617.72	0.77
1627.3	0.779
1636.87	0.785
1646.45	0.795
1656.03	0.805
1665.6	0.807
1675.18	0.805
1684.76	0.801
1694.33	0.789
1703.91	0.753
1713.48	0.732
1723.06	0.609
1732.64	0.263
1742.21	0.101
1751.79	0.303
1761.37	0.247
1770.94	0.138
1780.52	0.426
1790.09	0.607
1799.67	0.655
1809.25	0.707
1818.82	0.748
1828.4	0.77
1837.98	0.783
1847.55	0.791
1857.13	0.796
1866.7	0.82
1876.28	0.825
1885.86	0.828
1895.43	0.831
1905.01	0.832
1914.58	0.835
1924.16	0.838
1933.74	0.839
1943.31	0.84
1952.89	0.84
1962.47	0.841
1972.04	0.842
1981.62	0.842
1991.19	0.842
2000.77	0.842
2010.35	0.843
2019.92	0.844
2029.5	0.844
2039.08	0.845
2048.65	0.845
2058.23	0.846
2067.8	0.845
2077.38	0.843
2086.96	0.842
2096.53	0.839
2106.11	0.838
2115.69	0.838
2125.26	0.839
2134.84	0.839
2144.41	0.843
2153.99	0.849
2163.57	0.852
2173.14	0.853
2182.72	0.853
2192.3	0.853
2201.87	0.854
2211.45	0.854
2221.02	0.855
2230.6	0.855
2240.18	0.855
2249.75	0.855
2259.33	0.855
2268.91	0.855
2278.48	0.855
2288.06	0.855
2297.63	0.855
2307.21	0.855
2316.79	0.855
2326.36	0.854
2335.94	0.854
2345.52	0.853
2355.09	0.852
2364.67	0.852
2374.24	0.851
2383.82	0.85
2393.4	0.85
2402.97	0.849
2412.55	0.849
2422.12	0.848
2431.7	0.848
2441.28	0.85
2450.85	0.851
2460.43	0.852
2470.01	0.852
2479.58	0.852
2489.16	0.852
2498.73	0.852
2508.31	0.852
2517.89	0.852
2527.46	0.852
2537.04	0.852
2546.62	0.851
2556.19	0.85
2565.77	0.85
2575.34	0.85
2584.92	0.849
2594.5	0.848
2604.07	0.846
2613.65	0.846
2623.23	0.846
2632.8	0.846
2642.38	0.846
2651.95	0.845
2661.53	0.845
2671.11	0.845
2680.68	0.844
2690.26	0.844
2699.84	0.844
2709.41	0.843
2718.99	0.842
2728.56	0.842
2738.14	0.842
2747.72	0.841
2757.29	0.841
2766.87	0.841
2776.45	0.841
2786.02	0.841
2795.6	0.841
2805.17	0.84
2814.75	0.84
2824.33	0.837
2833.9	0.831
2843.48	0.826
2853.06	0.823
2862.63	0.822
2872.21	0.82
2881.78	0.82
2891.36	0.816
2900.94	0.805
2910.51	0.79
2920.09	0.719
2929.66	0.732
2939.24	0.764
2948.82	0.741
2958.39	0.758
2967.97	0.735
2977.55	0.659
2987.12	0.761
2996.7	0.787
3006.27	0.726
3015.85	0.797
3025.43	0.82
3035	0.822
3044.58	0.822
3054.16	0.822
3063.73	0.822
3073.31	0.822
3082.88	0.82
3092.46	0.82
3102.04	0.816
3111.61	0.808
3121.19	0.797
3130.77	0.768
3140.34	0.674
3149.92	0.667
3159.49	0.801
3169.07	0.82
3178.65	0.822
3188.22	0.823
3197.8	0.824
3207.38	0.824
3216.95	0.823
3226.53	0.823
3236.1	0.823
3245.68	0.821
3255.26	0.82
3264.83	0.818
3274.41	0.817
3283.99	0.815
3293.56	0.81
3303.14	0.807
3312.71	0.802
3322.29	0.799
3331.87	0.796
3341.44	0.793
3351.02	0.788
3360.59	0.783
3370.17	0.779
3379.75	0.769
3389.32	0.764
3398.9	0.761
3408.48	0.76
3418.05	0.759
3427.63	0.758
3437.2	0.757
3446.78	0.756
3456.36	0.755
3465.93	0.755
3475.51	0.76
3485.09	0.771
3494.66	0.775
3504.24	0.777
3513.81	0.78
3523.39	0.784
3532.97	0.794
3542.54	0.8
3552.12	0.808
3561.7	0.817
3571.27	0.82
3580.85	0.822
3590.42	0.824
3600	0.831
3609.58	0.831
3619.15	0.837
3628.73	0.844
3638.31	0.846
3647.88	0.847
3657.46	0.849
3667.03	0.85
3676.61	0.85
3686.19	0.851
3695.76	0.851
3705.34	0.852
3714.92	0.852
3724.49	0.852
3734.07	0.852
3743.64	0.852
3753.22	0.852
3762.8	0.851
3772.37	0.851
3781.95	0.851
3791.53	0.85
3801.1	0.85
3810.68	0.85
3820.25	0.85
3829.83	0.85
3839.41	0.85
3848.98	0.85
3858.56	0.85
3868.13	0.849
3877.71	0.849
3887.29	0.849
3896.86	0.849
3906.44	0.849
3916.02	0.849
3925.59	0.849
3935.17	0.849
3944.74	0.849
3954.32	0.849
3963.9	0.849
3973.47	0.849
3983.05	0.849
3992.63	0.848
