Infrared Spectrum: Alpha,Alpha'-DIACETYL-N,N'-DICYCLOHEXYL-GLUTARAMIDE
Formula: C21 H34 N2 O4
CAS: 30564-13-7
State: SOLID (KBr PRESSING)
Melting point: 207 C (DECOMPOSE)
Class: COBLENTZ
Instrument: Not specified, most likely a prism, grating, or hybrid spectrometer.
Sampling: TRANSMISSION
Resolution: 4
Origin: EASTMAN KODAK COMPANY, RESEARCH LABORATORIES, ROCHESTER, N.Y.
MICROMETERS	TRANSMITTANCE
2.1	0.835
2.13994	0.835
2.17988	0.833
2.21983	0.835
2.25977	0.833
2.29971	0.833
2.33965	0.835
2.37959	0.835
2.41954	0.833
2.45948	0.833
2.49942	0.837
2.53936	0.84
2.5793	0.845
2.61925	0.847
2.65919	0.848
2.69913	0.848
2.73907	0.838
2.77901	0.797
2.81896	0.751
2.8589	0.712
2.89884	0.68
2.93878	0.669
2.97872	0.641
3.01867	0.503
3.05861	0.412
3.09855	0.587
3.13849	0.728
3.17843	0.777
3.21838	0.805
3.25832	0.777
3.29826	0.779
3.3382	0.8
3.37814	0.712
3.41809	0.322
3.45803	0.677
3.49797	0.572
3.53791	0.824
3.57785	0.837
3.6178	0.847
3.65774	0.858
3.69768	0.863
3.73762	0.866
3.77756	0.865
3.81751	0.873
3.85745	0.871
3.89739	0.873
3.93733	0.879
3.97727	0.879
4.01722	0.881
4.05716	0.884
4.0971	0.884
4.13704	0.886
4.17698	0.888
4.21693	0.888
4.25687	0.889
4.29681	0.889
4.33675	0.891
4.37669	0.891
4.41664	0.891
4.45658	0.891
4.49652	0.888
4.53646	0.888
4.5764	0.888
4.61635	0.888
4.65629	0.888
4.69623	0.888
4.73617	0.886
4.77611	0.884
4.81606	0.888
4.856	0.889
4.89594	0.889
4.93588	0.888
4.97582	0.888
5.01577	0.888
5.05571	0.891
5.09565	0.891
5.13559	0.891
5.17553	0.893
5.21548	0.894
5.25542	0.891
5.29536	0.888
5.3353	0.886
5.37524	0.886
5.41519	0.886
5.45513	0.889
5.49507	0.889
5.53501	0.888
5.57495	0.883
5.61489	0.868
5.65484	0.866
5.69478	0.85
5.73472	0.83
5.77466	0.748
5.8146	0.378
5.85455	0.177
5.89449	0.546
5.93443	0.694
5.97437	0.697
6.01431	0.554
6.05426	0.396
6.0942	0.245
6.13414	0.111
6.17408	0.546
6.21402	0.69
6.25397	0.753
6.29391	0.769
6.33385	0.748
6.37379	0.667
6.41373	0.534
6.45368	0.317
6.49362	0.294
6.53356	0.361
6.5735	0.457
6.61344	0.613
6.65339	0.674
6.69333	0.735
6.73327	0.758
6.77321	0.781
6.81315	0.774
6.8531	0.743
6.89304	0.657
6.93298	0.606
6.97292	0.672
7.01286	0.664
7.05281	0.654
7.09275	0.703
7.13269	0.743
7.17263	0.761
7.21257	0.763
7.25252	0.741
7.29246	0.703
7.3324	0.618
7.37234	0.529
7.41228	0.527
7.45223	0.598
7.49217	0.643
7.53211	0.657
7.57205	0.652
7.61199	0.649
7.65194	0.662
7.69188	0.682
7.73182	0.695
7.77176	0.699
7.8117	0.703
7.85165	0.71
7.89159	0.725
7.93153	0.725
7.97147	0.7
8.01141	0.692
8.05136	0.664
8.0913	0.708
8.13124	0.743
8.17118	0.774
8.21112	0.789
8.25107	0.791
8.29101	0.787
8.33095	0.786
8.37089	0.786
8.41083	0.754
8.45078	0.715
8.49072	0.723
8.53066	0.756
8.5706	0.75
8.61054	0.713
8.65049	0.7
8.69043	0.644
8.73037	0.694
8.77031	0.8
8.81025	0.835
8.8502	0.845
8.89014	0.86
8.93008	0.861
8.97002	0.856
9.00996	0.835
9.04991	0.81
9.08985	0.817
9.12979	0.822
9.16973	0.824
9.20967	0.842
9.24962	0.84
9.28956	0.827
9.3295	0.82
9.36944	0.835
9.40938	0.856
9.44933	0.861
9.48927	0.861
9.52921	0.861
9.56915	0.865
9.60909	0.863
9.64904	0.853
9.68898	0.851
9.72892	0.85
9.76886	0.853
9.8088	0.861
9.84875	0.868
9.88869	0.87
9.92863	0.873
9.96857	0.871
10.0085	0.871
10.0485	0.873
10.0884	0.871
10.1283	0.866
10.1683	0.855
10.2082	0.832
10.2482	0.796
10.2881	0.784
10.328	0.791
10.368	0.804
10.4079	0.807
10.4479	0.805
10.4878	0.812
10.5278	0.812
10.5677	0.817
10.6076	0.833
10.6476	0.843
10.6875	0.853
10.7275	0.856
10.7674	0.858
10.8074	0.86
10.8473	0.863
10.8872	0.865
10.9272	0.873
10.9671	0.875
11.0071	0.878
11.047	0.881
11.0869	0.888
11.1269	0.883
11.1668	0.866
11.2068	0.8
11.2467	0.781
11.2867	0.822
11.3266	0.855
11.3665	0.863
11.4065	0.87
11.4464	0.873
11.4864	0.875
11.5263	0.875
11.5663	0.865
11.6062	0.861
11.6461	0.863
11.6861	0.868
11.726	0.875
11.766	0.876
11.8059	0.876
11.8458	0.865
11.8858	0.865
11.9257	0.873
11.9657	0.875
12.0056	0.875
12.0456	0.875
12.0855	0.875
12.1254	0.875
12.1654	0.875
12.2053	0.875
12.2453	0.875
12.2852	0.871
12.3251	0.861
12.3651	0.861
12.405	0.863
12.445	0.863
12.4849	0.863
12.5249	0.861
12.5648	0.855
12.6047	0.85
12.6447	0.845
12.6846	0.843
12.7246	0.847
12.7645	0.845
12.8045	0.85
12.8444	0.851
12.8843	0.851
12.9243	0.847
12.9642	0.843
13.0042	0.84
13.0441	0.833
13.084	0.828
13.124	0.824
13.1639	0.82
13.2039	0.82
13.2438	0.82
13.2838	0.82
13.3237	0.82
13.3636	0.82
13.4036	0.824
13.4435	0.824
13.4835	0.824
13.5234	0.828
13.5634	0.835
13.6033	0.84
13.6432	0.85
13.6832	0.85
13.7231	0.853
13.7631	0.853
13.803	0.851
13.8429	0.851
13.8829	0.85
13.9228	0.848
13.9628	0.848
14.0027	0.847
14.0427	0.833
14.0826	0.832
14.1225	0.82
14.1625	0.815
14.2024	0.81
14.2424	0.802
14.2823	0.796
14.3222	0.789
14.3622	0.787
14.4021	0.791
14.4421	0.8
14.482	0.8
14.522	0.814
14.5619	0.815
14.6018	0.815
14.6418	0.824
14.6817	0.824
14.7217	0.824
14.7616	0.825
14.8016	0.824
14.8415	0.824
14.8814	0.825
14.9214	0.828
14.9613	0.843
15.0013	0.853
15.0412	0.835
15.0811	0.833
15.1211	0.835
15.161	0.842
15.201	0.848
15.2409	0.853
15.2809	0.853
15.3208	0.855
15.3607	0.855
15.4007	0.855
15.4406	0.855
15.4806	0.858
15.5205	0.86
15.5605	0.86
15.6004	0.86
15.6403	0.861
15.6803	0.861
15.7202	0.861
15.7602	0.865
15.8001	0.863
15.84	0.863
15.88	0.863
