Infrared Spectrum: M-ETHYLPHENYL ACETATE
Formula: C10 H12 O2
CAS: 3056-60-8
State: SOLUTION (10% CCl4 FOR 5000-1330, 10% CS2 FOR 1330-625 CM^-^1)
Class: COBLENTZ
Instrument: Not specified, most likely a prism, grating, or hybrid spectrometer.
Sampling: TRANSMISSION
Path length: 0.0113 CM, 0.0109 CM
Resolution: 4
Origin: DOW CHEMICAL COMPANY
MICROMETERS	TRANSMITTANCE
2.048	0.839
2.08911	0.836
2.13023	0.836
2.17134	0.837
2.21246	0.829
2.25357	0.824
2.29469	0.825
2.3358	0.829
2.37692	0.836
2.41803	0.831
2.45915	0.836
2.50026	0.849
2.54138	0.851
2.58249	0.851
2.62361	0.856
2.66472	0.856
2.70584	0.851
2.74695	0.848
2.78807	0.824
2.82918	0.812
2.8703	0.82
2.91141	0.822
2.95253	0.82
2.99364	0.824
3.03476	0.82
3.07587	0.82
3.11699	0.813
3.1581	0.803
3.19922	0.773
3.24033	0.689
3.28145	0.653
3.32256	0.631
3.36368	0.365
3.40479	0.563
3.44591	0.6
3.48702	0.752
3.52814	0.802
3.56925	0.807
3.61037	0.822
3.65148	0.822
3.6926	0.825
3.73371	0.837
3.77483	0.834
3.81594	0.837
3.85706	0.834
3.89817	0.839
3.93929	0.841
3.9804	0.839
4.02152	0.836
4.06263	0.825
4.10375	0.822
4.14486	0.82
4.18598	0.82
4.22709	0.824
4.26821	0.822
4.30932	0.822
4.35044	0.82
4.39155	0.836
4.43267	0.839
4.47378	0.839
4.5149	0.843
4.55601	0.849
4.59713	0.849
4.63824	0.837
4.67936	0.832
4.72047	0.837
4.76159	0.839
4.8027	0.839
4.84382	0.819
4.88493	0.808
4.92605	0.832
4.96716	0.843
5.00828	0.843
5.04939	0.848
5.09051	0.849
5.13162	0.829
5.17274	0.815
5.21385	0.834
5.25497	0.832
5.29608	0.815
5.3372	0.798
5.37831	0.769
5.41943	0.784
5.46054	0.778
5.50166	0.728
5.54277	0.638
5.58389	0.406
5.625	0.1
5.66612	0.039
5.70723	0.117
5.74835	0.293
5.78946	0.467
5.83058	0.648
5.87169	0.72
5.91281	0.761
5.95392	0.769
5.99504	0.773
6.03615	0.773
6.07727	0.767
6.11838	0.73
6.1595	0.668
6.20061	0.373
6.24173	0.45
6.28284	0.266
6.32396	0.291
6.36507	0.5
6.40619	0.494
6.4473	0.441
6.48842	0.452
6.52953	0.53
6.57065	0.559
6.61176	0.578
6.65288	0.573
6.69399	0.436
6.73511	0.325
6.77622	0.523
6.81734	0.511
6.85845	0.397
6.89957	0.261
6.94068	0.409
6.9818	0.513
7.02291	0.561
7.06403	0.648
7.10514	0.686
7.14626	0.701
7.18737	0.66
7.22849	0.568
7.2696	0.348
7.31072	0.097
7.35183	0.556
7.39295	0.682
7.43406	0.74
7.47518	0.72
7.51629	0.699
7.55741	0.73
7.59852	0.75
7.63963	0.744
7.68075	0.74
7.72186	0.726
7.76298	0.713
7.80409	0.697
7.84521	0.67
7.88632	0.662
7.92744	0.658
7.96855	0.612
8.00967	0.522
8.05078	0.43
8.0919	0.382
8.13301	0.305
8.17413	0.177
8.21524	0.049
8.25636	0.011
8.29747	0.006
8.33859	0.006
8.3797	0.018
8.42082	0.175
8.46193	0.353
8.50305	0.464
8.54416	0.544
8.58528	0.578
8.62639	0.58
8.66751	0.534
8.70862	0.319
8.74974	0.098
8.79085	0.172
8.83197	0.435
8.87308	0.68
8.9142	0.744
8.95531	0.764
8.99643	0.774
9.03754	0.778
9.07866	0.774
9.11977	0.749
9.16089	0.691
9.202	0.687
9.24312	0.749
9.28423	0.754
9.32535	0.75
9.36646	0.738
9.40758	0.697
9.44869	0.675
9.48981	0.646
9.53092	0.588
9.57204	0.564
9.61315	0.566
9.65427	0.641
9.69538	0.672
9.7365	0.665
9.77761	0.61
9.81873	0.474
9.85984	0.339
9.90096	0.235
9.94207	0.298
9.98319	0.349
10.0243	0.544
10.0654	0.672
10.1065	0.723
10.1476	0.752
10.1888	0.762
10.2299	0.786
10.271	0.808
10.3121	0.819
10.3532	0.817
10.3943	0.812
10.4355	0.819
10.4766	0.82
10.5177	0.81
10.5588	0.779
10.5999	0.738
10.641	0.616
10.6821	0.407
10.7233	0.184
10.7644	0.133
10.8055	0.339
10.8466	0.578
10.8877	0.675
10.9288	0.725
10.9699	0.733
11.0111	0.72
11.0522	0.689
11.0933	0.609
11.1344	0.472
11.1755	0.44
11.2166	0.604
11.2578	0.66
11.2989	0.622
11.34	0.438
11.3811	0.276
11.4222	0.307
11.4633	0.544
11.5044	0.624
11.5456	0.648
11.5867	0.648
11.6278	0.638
11.6689	0.622
11.71	0.612
11.7511	0.609
11.7922	0.616
11.8334	0.658
11.8745	0.703
11.9156	0.75
11.9567	0.779
11.9978	0.8
12.0389	0.813
12.0801	0.825
12.1212	0.831
12.1623	0.831
12.2034	0.831
12.2445	0.829
12.2856	0.824
12.3267	0.817
12.3679	0.81
12.409	0.8
12.4501	0.779
12.4912	0.74
12.5323	0.684
12.5734	0.58
12.6145	0.457
12.6557	0.353
12.6968	0.32
12.7379	0.365
12.779	0.426
12.8201	0.488
12.8612	0.54
12.9024	0.593
12.9435	0.633
12.9846	0.672
13.0257	0.708
13.0668	0.728
13.1079	0.74
13.149	0.752
13.1902	0.757
13.2313	0.759
13.2724	0.754
13.3135	0.74
13.3546	0.721
13.3957	0.706
13.4368	0.68
13.478	0.655
13.5191	0.645
13.5602	0.636
13.6013	0.631
13.6424	0.638
13.6835	0.656
13.7246	0.679
13.7658	0.697
13.8069	0.711
13.848	0.72
13.8891	0.721
13.9302	0.721
13.9713	0.72
14.0125	0.715
14.0536	0.704
14.0947	0.694
14.1358	0.68
14.1769	0.662
14.218	0.631
14.2591	0.592
14.3003	0.527
14.3414	0.45
14.3825	0.334
14.4236	0.22
14.4647	0.167
14.5058	0.155
14.5469	0.23
14.5881	0.341
14.6292	0.447
14.6703	0.496
14.7114	0.522
14.7525	0.53
14.7936	0.53
14.8348	0.525
14.8759	0.517
14.917	0.508
14.9581	0.5
14.9992	0.493
15.0403	0.491
15.0814	0.491
15.1226	0.489
15.1637	0.489
15.2048	0.486
15.2459	0.482
15.287	0.476
15.3281	0.467
15.3692	0.46
15.4104	0.455
15.4515	0.452
15.4926	0.45
15.5337	0.447
15.5748	0.441
15.6159	0.438
15.6571	0.438
15.6982	0.435
15.7393	0.431
15.7804	0.428
15.8215	0.426
15.8626	0.426
15.9037	0.421
