Infrared Spectrum: Acephate
Formula: C 4 H 10 N O 3 P S
CAS: 30560-19-1
State: gas
Instrument: HP-GC/MS/IRD
Origin: NIST Mass Spectrometry Data Center
1/CM	ABSORBANCE
550	0.004325
562	0.0044125
574	0.0053225
586	0.00644
598	0.0068975
610	0.00751
622	0.00739
634	0.0057175
646	0.0037675
658	0.0022075
670	0.0012075
682	0.000915
694	0.0009925
706	0.0005475
718	0.0001325
730	0.00018
742	0.000585
754	0.0017325
766	0.0035225
778	0.00597
790	0.00765
802	0.0058225
814	0.0027025
826	0.0020175
838	0.0025125
850	0.0021525
862	0.0009925
874	0.0005225
886	0.0005275
898	0.0009
910	0.00159
922	0.0036425
934	0.00792
946	0.0099825
958	0.00638
970	0.0045025
982	0.005105
994	0.0064975
1006	0.0081875
1018	0.01028
1030	0.0172675
1042	0.025
1054	0.019255
1066	0.00954
1078	0.00511
1090	0.0032025
1102	0.002475
1114	0.00215
1126	0.001775
1138	0.0014475
1150	0.00143
1162	0.0019725
1174	0.0034725
1186	0.0051775
1198	0.00521
1210	0.0051375
1222	0.007405
1234	0.0122325
1246	0.0151
1258	0.013565
1270	0.014665
1282	0.014795
1294	0.008115
1306	0.003515
1318	0.002795
1330	0.0031875
1342	0.0047475
1354	0.0074225
1366	0.00729
1378	0.0082975
1390	0.01095
1402	0.0126375
1414	0.0092725
1426	0.0048175
1438	0.00318
1450	0.0026325
1462	0.0019675
1474	0.0013825
1486	0.0010025
1498	0.0007775
1510	0.00067
1522	0.000675
1534	0.000685
1546	0.00068
1558	0.000605
1570	0.0005525
1582	0.000455
1594	0.0003825
1606	0.0003375
1618	0.0003175
1630	0.00038
1642	0.00059
1654	0.0006425
1666	0.00059
1678	0.000765
1690	0.00132
1702	0.0021975
1714	0.0048575
1726	0.013935
1738	0.02497
1750	0.01822
1762	0.008085
1774	0.003615
1786	0.0018675
1798	0.0012525
1810	0.0009
1822	0.0006575
1834	0.0004825
1846	0.00034
1858	0.000205
1870	0.0001275
1882	6.5e-05
1894	4.75e-05
1906	2.5e-05
1918	1.25e-05
1930	3e-05
1942	3e-05
1954	5.5e-05
1966	5.25e-05
1978	6.5e-05
1990	9.75e-05
2002	0.000105
2014	0.0001325
2026	0.00014
2038	0.0001325
2050	0.0001425
2062	9.75e-05
2074	0.000105
2086	0.000105
2098	9e-05
2110	0.00014
2122	0.000145
2134	0.0001025
2146	0.0001375
2158	0.0001175
2170	0.000115
2182	0.0001075
2194	0.0001125
2206	0.0001475
2218	0.0001425
2230	0.0001575
2242	0.000185
2254	0.000175
2266	0.0001525
2278	0.00015
2290	0.00015
2302	0.0001425
2314	0.000125
2326	9.25e-05
2338	8.75e-05
2350	7e-05
2362	3.5e-05
2374	5.25e-05
2386	0.00012
2398	0.000115
2410	0.00012
2422	0.000105
2434	0.0001025
2446	0.0001025
2458	9.25e-05
2470	0.0001325
2482	0.000135
2494	0.0001375
2506	0.0001175
2518	0.0001425
2530	0.0001225
2542	0.0001275
2554	0.0001175
2566	0.0001225
2578	0.000125
2590	0.0001125
2602	0.0001475
2614	0.0001525
2626	0.000165
2638	0.000145
2650	0.00012
2662	0.00011
2674	0.0001225
2686	0.0001175
2698	0.0001225
2710	0.0001325
2722	0.0001225
2734	0.0001275
2746	0.0001175
2758	0.00014
2770	0.000125
2782	0.000125
2794	0.0001825
2806	0.0002075
2818	0.0002925
2830	0.0004575
2842	0.00075
2854	0.0013775
2866	0.0013625
2878	0.0007275
2890	0.00065
2902	0.000755
2914	0.0010075
2926	0.001395
2938	0.0027625
2950	0.0041225
2962	0.00411
2974	0.0025275
2986	0.001445
2998	0.0013575
3010	0.001405
3022	0.001395
3034	0.0011675
3046	0.00086
3058	0.00071
3070	0.00065
3082	0.0006475
3094	0.0005625
3106	0.0005
3118	0.0004125
3130	0.000295
3142	0.0002875
3154	0.00024
3166	0.00021
3178	0.000195
3190	0.000165
3202	0.0001525
3214	0.0001225
3226	0.0001425
3238	0.0001425
3250	0.0001275
3262	0.0001325
3274	0.00015
3286	0.0001775
3298	0.0001575
3310	0.0001425
3322	0.0001625
3334	0.0002425
3346	0.000295
3358	0.000455
3370	0.0010175
3382	0.0018325
3394	0.002275
3406	0.0018575
3418	0.00139
3430	0.001495
3442	0.0013425
3454	0.0008825
3466	0.0005575
3478	0.0004325
3490	0.00028
3502	0.00026
3514	0.00018
3526	0.0001425
3538	0.0001475
3550	0.00016
3562	9.25e-05
3574	0.000115
3586	0.0001025
3598	0.00015
3610	0.0001325
3622	0.0001325
3634	0.000225
3646	0.000255
3658	0.0002525
3670	0.0002175
3682	0.0001525
3694	0.000165
3706	0.0001225
3718	9e-05
3730	9e-05
3742	7.75e-05
3754	0.0001575
3766	0.00015
3778	0.00017
3790	0.000205
3802	0.00016
3814	0.000145
3826	0.0001525
3838	0.0001525
