Infrared Spectrum: 2-(o-Ethylanilino)ethanol
Formula: C10 H15 N O
CAS: 30573-52-5
State: SOLUTION (10% CCl4 FOR 3800-1330, 10% CS2 FOR 1330-400 CM^-^1)
Class: COBLENTZ III
Instrument: DOW KBr FOREPRISM-GRATING
Instrument parameters: BLAZED AT 3.5, 12.0, 20.0 MICRON AND CHANGED AT 5.0, 7.5, 14.9 MICRON
Sampling: TRANSMISSION
Path length: 0.011 CM, 0.011 CM
Resolution: 2
Origin: DOW CHEMICAL COMPANY
1/CM	TRANSMITTANCE
3800	0.8548
3791	0.8543
3782	0.8657
3773	0.8674
3764	0.8673
3755	0.8675
3746	0.8682
3737	0.8683
3728	0.8678
3719	0.8656
3710	0.8605
3701	0.8527
3692	0.8408
3683	0.8178
3674	0.8025
3665	0.7983
3656	0.7841
3647	0.6656
3638	0.6448
3629	0.6632
3620	0.6708
3611	0.6808
3602	0.685
3593	0.6704
3584	0.6469
3575	0.6076
3566	0.5838
3557	0.565
3548	0.5507
3539	0.5382
3530	0.5256
3521	0.5108
3512	0.4907
3503	0.4674
3494	0.4412
3485	0.419
3476	0.3962
3467	0.3684
3458	0.3418
3449	0.3225
3440	0.3058
3431	0.2833
3422	0.2634
3413	0.2621
3404	0.2779
3395	0.3027
3386	0.3187
3377	0.3309
3368	0.3428
3359	0.3544
3350	0.3659
3341	0.3784
3332	0.3916
3323	0.4053
3314	0.4203
3305	0.4351
3296	0.4494
3287	0.4633
3278	0.4776
3269	0.492
3260	0.5062
3251	0.5207
3242	0.535
3233	0.5494
3224	0.5637
3215	0.5781
3206	0.5924
3197	0.6068
3188	0.621
3179	0.6355
3170	0.6498
3161	0.6642
3152	0.6785
3143	0.6928
3134	0.7057
3125	0.7096
3116	0.7085
3107	0.7043
3098	0.683
3089	0.6482
3080	0.5965
3071	0.5462
3062	0.5585
3053	0.5922
3044	0.506
3035	0.5519
3026	0.5685
3017	0.5749
3008	0.6053
2999	0.6458
2990	0.6436
2981	0.3268
2972	0.1326
2963	0.1309
2954	0.2157
2945	0.2423
2936	0.2092
2927	0.2302
2918	0.2755
2909	0.3207
2900	0.3462
2891	0.3418
2882	0.2555
2873	0.2176
2864	0.2784
2855	0.3412
2846	0.3832
2837	0.4234
2828	0.4818
2819	0.5179
2810	0.5658
2801	0.6114
2792	0.6571
2783	0.7028
2774	0.7408
2765	0.7583
2756	0.7697
2747	0.7734
2738	0.779
2729	0.7822
2720	0.7825
2711	0.7958
2702	0.7951
2693	0.791
2684	0.7894
2675	0.7983
2666	0.8096
2657	0.818
2648	0.8207
2639	0.8224
2630	0.8233
2621	0.824
2612	0.8244
2603	0.8262
2594	0.8284
2585	0.8306
2576	0.8327
2567	0.8346
2558	0.8366
2549	0.8394
2540	0.8421
2531	0.8448
2522	0.8471
2513	0.8492
2504	0.8517
2495	0.8542
2486	0.8568
2477	0.8592
2468	0.8611
2459	0.8632
2450	0.8655
2441	0.8668
2432	0.8674
2423	0.8649
2414	0.8628
2405	0.8641
2396	0.8675
2387	0.8707
2378	0.8748
2369	0.8796
2360	0.8811
2351	0.8812
2342	0.8812
2333	0.8811
2324	0.8799
2315	0.8786
2306	0.8784
2297	0.882
2288	0.8821
2279	0.882
2270	0.8811
2261	0.8804
2252	0.8803
2243	0.8801
2234	0.8804
2225	0.8806
2216	0.8798
2207	0.879
2198	0.8784
2189	0.8778
2180	0.8768
2171	0.8764
2162	0.8771
2153	0.8766
2144	0.8753
2135	0.8742
2126	0.8733
2117	0.8727
2108	0.8721
2099	0.8718
2090	0.8721
2081	0.8724
2072	0.8727
2063	0.8731
2054	0.8739
2045	0.8742
2036	0.8741
2027	0.8737
2018	0.8732
2009	0.8725
2000	0.8618
1991	0.8543
1982	0.8568
1973	0.8566
1964	0.8554
1955	0.8444
1946	0.8474
1937	0.8484
1928	0.8397
1919	0.8148
1910	0.8218
1901	0.8352
1892	0.8325
1883	0.8071
1874	0.8247
1865	0.8444
1856	0.8473
1847	0.8396
1838	0.8389
1829	0.846
1820	0.8483
1811	0.8454
1802	0.8337
1793	0.8284
1784	0.828
1775	0.8242
1766	0.8107
1757	0.8068
1748	0.8147
1739	0.8103
1730	0.8022
1721	0.7984
1712	0.796
1703	0.7951
1694	0.7924
1685	0.7828
1676	0.7747
1667	0.7607
1658	0.7551
1649	0.7532
1640	0.7361
1631	0.7088
1622	0.6152
1613	0.4725
1604	0.1545
1595	0.3824
1586	0.1854
1577	0.518
1568	0.6837
1559	0.7497
1550	0.7561
1541	0.7228
1532	0.5356
1523	0.2356
1514	0.0363
1505	0.04
1496	0.2989
1487	0.4562
1478	0.4264
1469	0.2749
1460	0.091
1451	0.1367
1442	0.386
1433	0.4226
1424	0.5331
1415	0.561
1406	0.5643
1397	0.5605
1388	0.5468
1379	0.5017
1370	0.527
1361	0.5187
1352	0.5006
1343	0.5497
1334	0.5499
1325	0.3547
1316	0.2995
1307	0.2604
1298	0.3654
1289	0.4169
1280	0.3962
1271	0.2984
1262	0.2821
1253	0.3452
1244	0.4729
1235	0.5258
1226	0.551
1217	0.5199
1208	0.5484
1199	0.5599
1190	0.5857
1181	0.5932
1172	0.6481
1163	0.5207
1154	0.6404
1145	0.5196
1136	0.4641
1127	0.5937
1118	0.5635
1109	0.6126
1100	0.571
1091	0.506
1082	0.3912
1073	0.2555
1064	0.2059
1055	0.1427
1046	0.1913
1037	0.328
1028	0.4708
1019	0.6341
1010	0.7075
1001	0.7418
992	0.7578
983	0.7425
974	0.7615
965	0.7236
956	0.7049
947	0.7628
938	0.721
929	0.5967
920	0.5248
911	0.655
902	0.598
893	0.5941
884	0.6694
875	0.7028
866	0.7025
857	0.7582
848	0.7557
839	0.7508
830	0.7585
821	0.7558
812	0.7439
803	0.68
794	0.6512
785	0.7012
776	0.6946
767	0.546
758	0.2748
749	0.0108
740	0.2811
731	0.5314
722	0.6414
713	0.6447
704	0.6624
695	0.6782
686	0.6864
677	0.6888
668	0.6817
659	0.6724
650	0.6398
641	0.6373
632	0.6285
623	0.6199
614	0.6235
605	0.6351
596	0.6264
587	0.613
578	0.5993
569	0.586
560	0.5902
551	0.5919
542	0.5943
533	0.5774
524	0.5738
515	0.5859
506	0.596
497	0.5984
488	0.5836
479	0.5805
470	0.5569
461	0.5466
452	0.567
443	0.5618
434	0.563
425	0.5788
416	0.5875
407	0.5904
398	0.5893
389	0.5872
