Infrared Spectrum: Benzylamine, N-methyl-N-2-propynyl-, hydrochloride
Formula: C11 H14 Cl N
CAS: 306-07-0
State: SOLID (NUJOL MULL)
Melting point: 158-159.5 C
Class: COBLENTZ III
Instrument: PERKIN-ELMER 21 (GRATING)
Instrument parameters: FILTER AT ABOUT 10 MICRONS
Resolution: 2
Origin: ABBOTT LABORATORIES
1/CM	TRANSMITTANCE
665	0.7083
674	0.7003
683	0.6953
692	0.5976
701	0.3085
710	0.6148
719	0.4208
728	0.4254
737	0.3994
746	0.2893
755	0.5132
764	0.7678
773	0.7985
782	0.8138
791	0.8255
800	0.8228
809	0.8098
818	0.7855
827	0.7001
836	0.7053
845	0.8172
854	0.8158
863	0.8191
872	0.8227
881	0.8054
890	0.7998
899	0.798
908	0.7719
917	0.7067
926	0.5866
935	0.7433
944	0.7126
953	0.6612
962	0.7542
971	0.7319
980	0.6765
989	0.5327
998	0.7696
1007	0.7676
1016	0.7608
1025	0.7316
1034	0.6802
1043	0.7195
1052	0.5285
1061	0.7422
1070	0.7522
1079	0.7064
1088	0.7669
1097	0.7588
1106	0.7346
1115	0.653
1124	0.7226
1133	0.7615
1142	0.7534
1151	0.7196
1160	0.7453
1169	0.7385
1178	0.7522
1187	0.7503
1196	0.7442
1205	0.7035
1214	0.6399
1223	0.7307
1232	0.7297
1241	0.7282
1250	0.7167
1259	0.7012
1268	0.6801
1277	0.5759
1286	0.6187
1295	0.6681
1304	0.6653
1313	0.6758
1322	0.6653
1331	0.6363
1340	0.6044
1349	0.583
1358	0.4528
1367	0.4915
1376	0.3657
1385	0.5523
1394	0.6343
1403	0.619
1412	0.5551
1421	0.3919
1430	0.4186
1439	0.3615
1448	0.197
1457	0.1145
1466	0.1427
1475	0.3745
1484	0.6313
1493	0.6069
1502	0.6398
1511	0.7414
1520	0.7417
1529	0.7304
1538	0.732
1547	0.7374
1556	0.7497
1565	0.7532
1574	0.756
1583	0.7567
1592	0.7617
1601	0.762
1610	0.7741
1619	0.7812
1628	0.7817
1637	0.7809
1646	0.7799
1655	0.779
1664	0.7788
1673	0.7772
1682	0.7783
1691	0.781
1700	0.7845
1709	0.7883
1718	0.7919
1727	0.7922
1736	0.792
1745	0.7904
1754	0.7886
1763	0.7861
1772	0.7822
1781	0.7784
1790	0.7826
1799	0.7789
1808	0.7762
1817	0.7753
1826	0.7746
1835	0.7765
1844	0.7805
1853	0.7852
1862	0.7792
1871	0.775
1880	0.7725
1889	0.7661
1898	0.7624
1907	0.7639
1916	0.7652
1925	0.765
1934	0.7645
1943	0.7635
1952	0.7591
1961	0.7527
1970	0.7534
1979	0.7554
1988	0.755
1997	0.754
2006	0.7523
2015	0.7495
2024	0.7464
2033	0.7428
2042	0.7395
2051	0.7367
2060	0.734
2069	0.7317
2078	0.7286
2087	0.7209
2096	0.7113
2105	0.7001
2114	0.6483
2123	0.6314
2132	0.6819
2141	0.7041
2150	0.7
2159	0.6946
2168	0.6885
2177	0.6821
2186	0.6749
2195	0.6672
2204	0.6575
2213	0.6476
2222	0.636
2231	0.6239
2240	0.6104
2249	0.5955
2258	0.5799
2267	0.5648
2276	0.5469
2285	0.5258
2294	0.4975
2303	0.4637
2312	0.4352
2321	0.4115
2330	0.3893
2339	0.3694
2348	0.3554
2357	0.3456
2366	0.3392
2375	0.3342
2384	0.3276
2393	0.3268
2402	0.3271
2411	0.3261
2420	0.312
2429	0.2855
2438	0.2537
2447	0.2215
2456	0.1838
2465	0.1582
2474	0.1401
2483	0.1405
2492	0.1417
2501	0.1632
2510	0.2044
2519	0.224
2528	0.2758
2537	0.2923
2546	0.2958
2555	0.2983
2564	0.3088
2573	0.3426
2582	0.3646
2591	0.4023
2600	0.4398
2609	0.4771
2618	0.5079
2627	0.5217
2636	0.5456
2645	0.5674
2654	0.5749
2663	0.565
2672	0.551
2681	0.5403
2690	0.5428
2699	0.5466
2708	0.5563
2717	0.6021
2726	0.6168
2735	0.6308
2744	0.6505
2753	0.6642
2762	0.6695
2771	0.6694
2780	0.6664
2789	0.6553
2798	0.6369
2807	0.6101
2816	0.5339
2825	0.4636
2834	0.3273
2843	0.1918
2852	0.0757
2861	0.0652
2870	0.0605
2879	0.0543
2888	0.0428
2897	0.0309
2906	0.0241
2915	0.0235
2924	0.025
2933	0.0283
2942	0.0372
2951	0.0511
2960	0.0653
2969	0.0776
2978	0.1373
2987	0.2368
2996	0.3358
3005	0.4341
3014	0.521
3023	0.524
3032	0.5282
3041	0.5572
3050	0.57
3059	0.5763
3068	0.5885
3077	0.6174
3086	0.6593
3095	0.6648
3104	0.6645
3113	0.6627
3122	0.6595
3131	0.6529
3140	0.6439
3149	0.6315
3158	0.6206
3167	0.6065
3176	0.5478
3185	0.4822
3194	0.4187
3203	0.4114
3212	0.4914
3221	0.5827
3230	0.6734
3239	0.7278
3248	0.73
3257	0.7312
3266	0.7322
3275	0.7325
3284	0.7327
3293	0.7326
3302	0.7325
3311	0.7324
3320	0.732
3329	0.7314
3338	0.731
3347	0.7305
3356	0.73
3365	0.7296
3374	0.7291
3383	0.7286
3392	0.7282
3401	0.7277
3410	0.7271
3419	0.7266
3428	0.726
3437	0.7249
3446	0.7236
3455	0.7225
3464	0.7216
3473	0.7212
3482	0.7212
3491	0.7212
3500	0.7213
3509	0.7209
3518	0.7205
3527	0.72
3536	0.7195
3545	0.7188
3554	0.7182
3563	0.7172
3572	0.7161
3581	0.7149
3590	0.7136
3599	0.712
3608	0.7105
3617	0.709
3626	0.7075
3635	0.706
3644	0.7045
3653	0.7031
3662	0.7017
3671	0.7003
3680	0.6988
3689	0.6974
3698	0.6959
3707	0.6944
3716	0.6929
3725	0.6915
3734	0.69
3743	0.6888
3752	0.6879
3761	0.687
3770	0.6861
3779	0.6853
3788	0.6844
3797	0.6837
3806	0.6832
3815	0.6828
3824	0.6824
3833	0.682
3842	0.6816
3851	0.6811
3860	0.6806
3869	0.6801
3878	0.6796
3887	0.6791
3896	0.6786
3905	0.6778
3914	0.677
3923	0.6761
3932	0.6753
3941	0.6745
3950	0.6737
3959	0.6728
3968	0.6721
3977	0.6712
3986	0.6704
3995	0.6697
