Infrared Spectrum: Perfluorodecalin
Formula: C 10 F 18
CAS: 306-94-5
State: gas
Instrument: HP-GC/MS/IRD
Origin: NIST Mass Spectrometry Data Center
1/CM	ABSORBANCE
550	0.0002485
562	0.000259
574	0.000931
586	0.00084
598	0.002324
610	0.001491
622	0.0008365
634	0.000728
646	0.0008505
658	0.002261
670	0.000882
682	0.0003465
694	9.8e-05
706	9.45e-05
718	1.75e-05
730	7e-06
742	0.0001225
754	0.0001855
766	0.0007735
778	0.0009975
790	0.0005915
802	0.001407
814	0.0072625
826	0.0033285
838	0.000644
850	0.0006265
862	0.002037
874	0.0006475
886	0.0003465
898	0.0003815
910	0.000609
922	0.0013265
934	0.005005
946	0.0152215
958	0.00441
970	0.0021525
982	0.004746
994	0.0024675
1006	0.002464
1018	0.0032515
1030	0.0099785
1042	0.012523
1054	0.0073395
1066	0.005971
1078	0.001701
1090	0.0007385
1102	0.0007035
1114	0.000826
1126	0.0009835
1138	0.001442
1150	0.0029925
1162	0.0043785
1174	0.011221
1186	0.0134295
1198	0.0091385
1210	0.0065555
1222	0.011347
1234	0.022218
1246	0.034979
1258	0.0109095
1270	0.0050085
1282	0.004823
1294	0.0076475
1306	0.010829
1318	0.00945
1330	0.0047845
1342	0.0020055
1354	0.001113
1366	0.0007665
1378	0.000665
1390	0.0005285
1402	0.000427
1414	0.000371
1426	0.0002625
1438	0.00021
1450	0.0001925
1462	0.0002135
1474	0.000217
1486	0.0001715
1498	0.000168
1510	0.000147
1522	0.0001435
1534	0.000105
1546	0.000112
1558	9.8e-05
1570	0.0001085
1582	0.000105
1594	0.0001085
1606	0.0001155
1618	7.35e-05
1630	0.0001085
1642	8.75e-05
1654	0.0001085
1666	9.45e-05
1678	9.1e-05
1690	8.75e-05
1702	0.0001015
1714	7e-05
1726	0.0001015
1738	6.3e-05
1750	6.65e-05
1762	7e-05
1774	0.000119
1786	0.0001015
1798	0.000105
1810	6.3e-05
1822	8.4e-05
1834	0.000119
1846	0.000119
1858	9.1e-05
1870	8.4e-05
1882	7e-05
1894	8.4e-05
1906	0.000105
1918	0.000105
1930	7.35e-05
1942	7e-05
1954	2.8e-05
1966	3.5e-05
1978	7e-05
1990	7.35e-05
2002	6.65e-05
2014	3.15e-05
2026	7.35e-05
2038	5.95e-05
2050	4.55e-05
2062	7e-06
2074	5.25e-05
2086	2.1e-05
2098	3.85e-05
2110	5.25e-05
2122	3.85e-05
2134	3.85e-05
2146	5.95e-05
2158	3.85e-05
2170	4.2e-05
2182	4.55e-05
2194	9.8e-05
2206	8.05e-05
2218	7.35e-05
2230	8.4e-05
2242	8.75e-05
2254	2.45e-05
2266	6.3e-05
2278	8.75e-05
2290	5.95e-05
2302	8.4e-05
2314	0.000133
2326	0.000119
2338	0.0001225
2350	0.0001015
2362	0.0001155
2374	0.0001365
2386	0.0001575
2398	0.0001575
2410	0.0001505
2422	0.0001505
2434	0.000168
2446	0.000133
2458	0.000133
2470	0.0001435
2482	0.0001155
2494	0.000175
2506	0.000196
2518	0.0001225
2530	0.000112
2542	0.0001645
2554	0.0001435
2566	0.000133
2578	7e-05
2590	0.000105
2602	8.05e-05
2614	5.6e-05
2626	7e-05
2638	5.95e-05
2650	3.85e-05
2662	3.5e-05
2674	7e-06
2686	2.1e-05
2698	3.15e-05
2710	2.8e-05
2722	5.6e-05
2734	4.55e-05
2746	0.0001085
2758	4.9e-05
2770	0
2782	5.95e-05
2794	2.45e-05
2806	0.0001085
2818	7e-05
2830	6.65e-05
2842	0.000168
2854	0.000161
2866	0.0001995
2878	0.000224
2890	0.0001995
2902	0.000196
2914	0.000189
2926	0.00014
2938	0.000182
2950	0.000182
2962	0.000217
2974	0.0002415
2986	0.0001365
2998	0.0001785
3010	0.000147
3022	0.000119
3034	0.00014
3046	0.000161
3058	0.0001645
3070	0.000154
3082	0.0001365
3094	0.0001505
3106	0.000119
3118	6.65e-05
3130	7.7e-05
3142	0.000119
3154	0.000119
3166	8.4e-05
3178	0.000147
3190	0.000105
3202	0.0001435
3214	0.0001155
3226	0.000119
3238	7.35e-05
3250	4.55e-05
3262	8.75e-05
3274	2.8e-05
3286	0.0001225
3298	0.000126
3310	0.0001295
3322	0.000112
3334	0.0001645
3346	7.35e-05
3358	7e-05
3370	0.0001155
3382	0.000154
3394	0.000189
3406	0.000112
3418	0.000119
3430	0.000147
3442	0.000168
3454	9.45e-05
3466	0.000168
3478	0.0002205
3490	0.0002065
3502	0.000196
3514	0.000161
3526	0.0001295
3538	0.000168
3550	5.6e-05
3562	0.0001575
3574	0.000196
3586	8.4e-05
3598	0.00014
3610	8.05e-05
3622	0
3634	0.0001645
3646	0.0001155
3658	9.8e-05
3670	9.1e-05
3682	9.1e-05
3694	0.000105
3706	0.000119
3718	0.0001085
3730	0.00014
3742	0.0001855
3754	0.0001435
3766	0.000147
3778	0.00014
3790	6.65e-05
3802	7e-05
3814	0.000133
3826	0.000147
3838	0.0002065
