Infrared Spectrum: p-Diphenoxybenzene
Formula: C 18 H 14 O 2
CAS: 3061-36-7
State: gas
Origin: EPA-IR VAPOR PHASE LIBRARY
1/CM	ABSORBANCE
549.8	0.002676
559.445	0.002166
569.09	0.002046
578.734	0.002726
588.379	0.003116
598.024	0.003756
607.669	0.004166
617.313	0.003226
626.958	0.003056
636.603	0.003096
646.248	0.004196
655.893	0.007466
665.537	0.010806
675.182	0.020646
684.827	0.046966
694.472	0.053086
704.116	0.029086
713.761	0.018296
723.406	0.020676
733.051	0.030136
742.695	0.045596
752.34	0.054896
761.985	0.046986
771.63	0.036776
781.275	0.032526
790.919	0.024706
800.564	0.018206
810.209	0.017616
819.854	0.018276
829.498	0.025146
839.143	0.043286
848.788	0.070576
858.433	0.146796
868.078	0.079126
877.722	0.031686
887.367	0.019676
897.012	0.014076
906.657	0.011606
916.301	0.007396
925.946	0.005266
935.591	0.003806
945.236	0.003586
954.88	0.003686
964.525	0.004226
974.17	0.005086
983.815	0.005166
993.46	0.005476
1003.1	0.011256
1012.75	0.023736
1022.39	0.026846
1032.04	0.006866
1041.68	0.003576
1051.33	0.004986
1060.97	0.010766
1070.62	0.014656
1080.26	0.011516
1089.91	0.014676
1099.55	0.016496
1109.2	0.010436
1118.84	0.007136
1128.49	0.008536
1138.13	0.010336
1147.78	0.018696
1157.42	0.036226
1167.07	0.043136
1176.71	0.054066
1186.36	0.132586
1196	0.174896
1205.64	0.227986
1215.29	0.602056
1224.93	0.745606
1234.58	0.476726
1244.22	0.205896
1253.87	0.135006
1263.51	0.101096
1273.16	0.074636
1282.8	0.056356
1292.45	0.040346
1302.09	0.029426
1311.74	0.022746
1321.38	0.021026
1331.03	0.021196
1340.67	0.014006
1350.32	0.008936
1359.96	0.007656
1369.61	0.007436
1379.25	0.008116
1388.9	0.007606
1398.54	0.006826
1408.18	0.008236
1417.83	0.013796
1427.47	0.022596
1437.12	0.018906
1446.76	0.023966
1456.41	0.044396
1466.05	0.070316
1475.7	0.172846
1485.34	0.678826
1494.99	0.488546
1504.63	0.284356
1514.28	0.065646
1523.92	0.032126
1533.57	0.020656
1543.21	0.016596
1552.86	0.018446
1562.5	0.023876
1572.15	0.045336
1581.79	0.085606
1591.44	0.144986
1601.08	0.104506
1610.73	0.039406
1620.37	0.019476
1630.01	0.012626
1639.66	0.010436
1649.3	0.009186
1658.95	0.007796
1668.59	0.006026
1678.24	0.004906
1687.88	0.004686
1697.53	0.005226
1707.17	0.005806
1716.82	0.005436
1726.46	0.005316
1736.11	0.005496
1745.75	0.005696
1755.4	0.004906
1765.04	0.005626
1774.69	0.006386
1784.33	0.004396
1793.98	0.003226
1803.62	0.002746
1813.27	0.002836
1822.91	0.003116
1832.55	0.003886
1842.2	0.004966
1851.84	0.006286
1861.49	0.007906
1871.13	0.008636
1880.78	0.006876
1890.42	0.004406
1900.07	0.003526
1909.71	0.004606
1919.36	0.006586
1929	0.007706
1938.65	0.007466
1948.29	0.007366
1957.94	0.005766
1967.58	0.005646
1977.23	0.006256
1986.87	0.006556
1996.52	0.006756
2006.16	0.007486
2015.81	0.008166
2025.45	0.007926
2035.1	0.006976
2044.74	0.006366
2054.38	0.006586
2064.03	0.006586
2073.67	0.005056
2083.32	0.003356
2092.96	0.002656
2102.61	0.002136
2112.25	0.001786
2121.9	0.001506
2131.54	0.001366
2141.19	0.0012725
2150.83	0.0011482
2160.48	0.0011934
2170.12	0.001346
2179.77	0.0012392
2189.41	0.001194
2199.06	0.0011438
2208.7	0.0012457
2218.35	0.0012557
2227.99	0.001316
2237.64	0.001326
2247.28	0.001586
2256.92	0.001676
2266.57	0.001806
2276.21	0.002066
2285.86	0.002116
2295.5	0.002176
2305.15	0.002566
2314.79	0.002766
2324.44	0.002966
2334.08	0.002966
2343.73	0.003416
2353.37	0.003526
2363.02	0.003916
2372.66	0.005326
2382.31	0.005486
2391.95	0.004846
2401.6	0.005446
2411.24	0.007396
2420.89	0.008216
2430.53	0.007576
2440.18	0.007236
2449.82	0.006386
2459.47	0.004936
2469.11	0.003936
2478.75	0.003226
2488.4	0.002606
2498.04	0.002266
2507.69	0.001966
2517.33	0.001836
2526.98	0.001846
2536.62	0.001836
2546.27	0.002256
2555.91	0.002246
2565.56	0.002296
2575.2	0.001746
2584.85	0.001316
2594.49	0.0011795
2604.14	0.0011592
2613.78	0.0011128
2623.43	0.0011156
2633.07	0.0010721
2642.72	0.0009835
2652.36	0.0009707
2662.01	0.0007772
2671.65	0.000846
2681.29	0.0011744
2690.94	0.001167
2700.58	0.001068
2710.23	0.0011491
2719.87	0.0010434
2729.52	0.0010729
2739.16	0.001021
2748.81	0.001296
2758.45	0.0012278
2768.1	0.0012088
2777.74	0.0011828
2787.39	0.0010745
2797.03	0.0010962
2806.68	0.0012721
2816.32	0.001188
2825.97	0.001496
2835.61	0.001736
2845.26	0.001876
2854.9	0.001866
2864.55	0.001676
2874.19	0.001506
2883.84	0.001536
2893.48	0.001396
2903.12	0.001356
2912.77	0.0011582
2922.41	0.0009178
2932.06	0.0008752
2941.7	0.0010728
2951.35	0.0010555
2960.99	0.0006811
2970.64	0.0009672
2980.28	0.0012735
2989.93	0.002386
2999.57	0.003866
3009.22	0.006556
3018.86	0.011596
3028.51	0.019086
3038.15	0.034086
3047.8	0.048256
3057.44	0.034206
3067.09	0.036266
3076.73	0.051656
3086.38	0.041336
3096.02	0.029576
3105.67	0.018596
3115.31	0.008326
3124.95	0.003776
3134.6	0.001836
3144.24	0.001356
3153.89	0.0009212
3163.53	0.0008711
3173.18	0.0008924
3182.82	0.00078
3192.47	0.0006296
3202.11	0.0004662
3211.76	0.0006161
3221.4	0.0003936
3231.05	0.0002611
3240.69	0.0005551
3250.34	0.0003327
3259.98	0.000284577
3269.63	0.00036035
3279.27	0.00035868
3288.92	0.00032748
3298.56	0.0002293
3308.21	0.000157
3317.85	0.0002169
3327.49	0.00033355
3337.14	0.0002421
3346.78	0.0002162
3356.43	0.0002303
3366.07	0.000204
3375.72	0.000104
3385.36	0.00033698
3395.01	8.7e-05
3404.65	0.0002327
3414.3	0.0002222
3423.94	0.00029786
3433.59	0.0003847
3443.23	0.0002236
3452.88	0.000282436
3462.52	0.000123
3472.17	0.0003643
3481.81	0.0002643
3491.46	0.000138
3501.1	8.1e-05
3510.75	0.0002367
3520.39	5.1e-05
3530.04	0.0002616
3539.68	0.0002135
3549.32	0.0001767
3558.97	0.0002008
3568.61	0.0002601
3578.26	0.0004383
3587.9	0.000168
3597.55	0.0004462
3607.19	0.0004606
3616.84	0.0002553
3626.48	0.0004598
3636.13	0.0006708
3645.77	0.0006804
3655.42	0.0007789
3665.06	0.0006465
3674.71	0.0005605
3684.35	0.0004273
3694	0.0004887
3703.64	0.0005057
3713.29	0.0005661
3722.93	0.0005773
3732.58	0.00030578
3742.22	0.0004079
3751.86	0.00035427
3761.51	0.00035724
3771.15	0.00037441
3780.8	0.0002213
3790.44	0.0004184
3800.09	0.0005058
3809.73	0.00027483
3819.38	0.000283703
3829.02	0.0004504
3838.67	0.0004499
3848.31	0.000521
3857.96	0.0004457
3867.6	0.000571
3877.25	0.0004837
3886.89	0.0003952
3896.54	0.0006341
3906.18	0.00035071
3915.83	0.0005686
3925.47	0.0007956
3935.12	0.000594
3944.76	0.0005234
3954.41	0.0005543
3964.05	0.0005659
3973.69	0.0004301
3983.34	0.0005364
3992.98	0.0005197
