Infrared Spectrum: PICOLINIC ACID, 5-NITRO-
Formula: C6 H4 N2 O4
CAS: 30651-24-2
State: SOLID (1 mg / 650 mg KBr DISC)
Class: COBLENTZ
Instrument: PERKIN-ELMER 521 (GRATING)
Instrument parameters: FILTERS AT 3130, 2475, 2000, 1150, 700, 410 AND GRATING CHANGES AT 2000, 630 CM^-^1
Sampling: TRANSMISSION
Resolution: 4
Origin: SOUTHERN RESEARCH INSTITUTE
1/CM	TRANSMITTANCE
250.438	0.259
259.598	0.4489
268.759	0.4857
277.919	0.5247
287.079	0.5661
296.24	0.6161
305.4	0.643
314.56	0.6484
323.72	0.7361
332.881	0.7856
342.041	0.814
351.201	0.8478
360.362	0.8674
369.522	0.8747
378.682	0.887
387.843	0.8744
397.003	0.8762
406.163	0.8734
415.323	0.8775
424.484	0.8785
433.644	0.876
442.804	0.874
451.965	0.874
461.125	0.873
470.285	0.8673
479.446	0.8526
488.606	0.8046
497.766	0.854
506.927	0.8665
516.087	0.8732
525.247	0.8716
534.407	0.8442
543.568	0.8253
552.728	0.867
561.888	0.8913
571.049	0.902
580.209	0.903
589.369	0.903
598.53	0.903
607.69	0.911
616.85	0.9031
626.01	0.8853
635.171	0.659
644.331	0.9076
653.491	0.9464
662.652	0.9247
671.812	0.8877
680.972	0.8128
690.133	0.9062
699.293	0.9004
708.453	0.8956
717.613	0.8763
726.774	0.4822
735.934	0.9072
745.094	0.912
754.255	0.9074
763.415	0.8914
772.575	0.8604
781.736	0.7258
790.896	0.5581
800.056	0.8213
809.217	0.9096
818.377	0.9092
827.537	0.898
836.697	0.91
845.858	0.8894
855.018	0.7988
864.178	0.7645
873.339	0.7334
882.499	0.9102
891.659	0.912
900.82	0.9068
909.98	0.9019
919.14	0.8949
928.3	0.8808
937.461	0.8598
946.621	0.8267
955.781	0.732
964.942	0.8244
974.102	0.8021
983.262	0.8028
992.423	0.8217
1001.58	0.8129
1010.74	0.8026
1019.9	0.6771
1029.06	0.7044
1038.22	0.861
1047.38	0.853
1056.54	0.8466
1065.71	0.8403
1074.87	0.8283
1084.03	0.7936
1093.19	0.7382
1102.35	0.6846
1111.51	0.5821
1120.67	0.8435
1129.83	0.8135
1138.99	0.7191
1148.15	0.5867
1157.31	0.8617
1166.47	0.8628
1175.63	0.8452
1184.79	0.8149
1193.95	0.7984
1203.11	0.7466
1212.27	0.6597
1221.43	0.5841
1230.59	0.37
1239.75	0.5365
1248.91	0.732
1258.07	0.6946
1267.23	0.5427
1276.39	0.5272
1285.55	0.3955
1294.71	0.5076
1303.87	0.7113
1313.03	0.769
1322.19	0.7452
1331.35	0.676
1340.51	0.3487
1349.67	0.3778
1358.83	0.6834
1368	0.721
1377.16	0.6744
1386.32	0.7496
1395.48	0.7765
1404.64	0.7793
1413.8	0.799
1422.96	0.8787
1432.12	0.8903
1441.28	0.8878
1450.44	0.8824
1459.6	0.878
1468.76	0.878
1477.92	0.863
1487.08	0.847
1496.24	0.8242
1505.4	0.7168
1514.56	0.3056
1523.72	0.407
1532.88	0.7232
1542.04	0.8327
1551.2	0.843
1560.36	0.8379
1569.52	0.8047
1578.68	0.7201
1587.84	0.6839
1597	0.295
1606.16	0.4289
1615.32	0.7689
1624.48	0.8101
1633.64	0.812
1642.8	0.81
1651.96	0.8029
1661.12	0.784
1670.29	0.7541
1679.45	0.7034
1688.61	0.6261
1697.77	0.5241
1706.93	0.5081
1716.09	0.6074
1725.25	0.5086
1734.41	0.5306
1743.57	0.6795
1752.73	0.7439
1761.89	0.7652
1771.05	0.7787
1780.21	0.783
1789.37	0.783
1798.53	0.79
1807.69	0.7824
1816.85	0.7753
1826.01	0.7599
1835.17	0.7435
1844.33	0.7236
1853.49	0.7056
1862.65	0.701
1871.81	0.699
1880.97	0.7044
1890.13	0.7137
1899.29	0.7313
1908.45	0.7493
1917.61	0.751
1926.77	0.7595
1935.93	0.7754
1945.09	0.7902
1954.25	0.795
1963.41	0.8083
1972.58	0.8151
1981.74	0.819
1990.9	0.82
2000.06	0.824
2009.22	0.839
2018.38	0.843
2027.54	0.848
2036.7	0.848
2045.86	0.846
2055.02	0.848
2064.18	0.846
2073.34	0.844
2082.5	0.843
2091.66	0.841
2100.82	0.841
2109.98	0.84
2119.14	0.839
2128.3	0.835
2137.46	0.831
2146.62	0.827
2155.78	0.821
2164.94	0.8189
2174.1	0.813
2183.26	0.811
2192.42	0.81
2201.58	0.81
2210.74	0.81
2219.9	0.808
2229.06	0.804
2238.22	0.796
2247.38	0.79
2256.54	0.7789
2265.7	0.773
2274.87	0.771
2284.03	0.7689
2293.19	0.7569
2302.35	0.7459
2311.51	0.726
2320.67	0.7129
2329.83	0.704
2338.99	0.695
2348.15	0.691
2357.31	0.687
2366.47	0.684
2375.63	0.68
2384.79	0.6779
2393.95	0.675
2403.11	0.6709
2412.27	0.659
2421.43	0.653
2430.59	0.65
2439.75	0.6409
2448.91	0.637
2458.07	0.633
2467.23	0.634
2476.39	0.642
2485.55	0.65
2494.71	0.658
2503.87	0.662
2513.03	0.6701
2522.19	0.682
2531.35	0.687
2540.51	0.687
2549.67	0.684
2558.83	0.684
2567.99	0.684
2577.16	0.68
2586.32	0.68
2595.48	0.6779
2604.64	0.6761
2613.8	0.6831
2622.96	0.6992
2632.12	0.718
2641.28	0.7221
2650.44	0.7198
2659.6	0.7069
2668.76	0.701
2677.92	0.701
2687.08	0.7011
2696.24	0.704
2705.4	0.6969
2714.56	0.684
2723.72	0.6709
2732.88	0.655
2742.04	0.649
2751.2	0.65
2760.36	0.653
2769.52	0.654
2778.68	0.656
2787.84	0.66
2797	0.6641
2806.16	0.667
2815.32	0.666
2824.48	0.66
2833.64	0.659
2842.8	0.659
2851.96	0.659
2861.12	0.662
2870.28	0.67
2879.45	0.6841
2888.61	0.695
2897.77	0.7
2906.93	0.707
2916.09	0.712
2925.25	0.717
2934.41	0.7261
2943.57	0.733
2952.73	0.737
2961.89	0.7421
2971.05	0.749
2980.21	0.754
2989.37	0.758
2998.53	0.762
3007.69	0.765
3016.85	0.765
3026.01	0.767
3035.17	0.766
3044.33	0.765
3053.49	0.7568
3062.65	0.7286
3071.81	0.6598
3080.97	0.6765
3090.13	0.6597
3099.29	0.6412
3108.45	0.7205
3117.61	0.7882
3126.77	0.804
3135.93	0.8151
3145.09	0.807
3154.25	0.803
3163.41	0.803
3172.57	0.807
3181.74	0.807
3190.9	0.807
3200.06	0.807
3209.22	0.806
3218.38	0.803
3227.54	0.8
3236.7	0.799
3245.86	0.798
3255.02	0.795
3264.18	0.79
3273.34	0.787
3282.5	0.786
3291.66	0.783
3300.82	0.7789
3309.98	0.77
3319.14	0.766
3328.3	0.7609
3337.46	0.749
3346.62	0.7399
3355.78	0.73
3364.94	0.721
3374.1	0.7109
3383.26	0.7039
3392.42	0.6949
3401.58	0.688
3410.74	0.688
3419.9	0.687
3429.06	0.688
3438.22	0.688
3447.38	0.692
3456.54	0.696
3465.7	0.7
3474.86	0.704
3484.03	0.707
3493.19	0.708
3502.35	0.7131
3511.51	0.717
3520.67	0.725
3529.83	0.732
3538.99	0.74
3548.15	0.748
3557.31	0.7511
3566.47	0.7591
3575.63	0.765
3584.79	0.7702
3593.95	0.783
3603.11	0.787
3612.27	0.795
3621.43	0.799
3630.59	0.806
3639.75	0.808
3648.91	0.8081
3658.07	0.81
3667.23	0.808
3676.39	0.811
3685.55	0.811
3694.71	0.816
3703.87	0.812
3713.03	0.813
3722.19	0.808
3731.35	0.808
3740.51	0.807
3749.67	0.806
3758.83	0.81
3767.99	0.8081
3777.15	0.81
3786.32	0.808
3795.48	0.804
