Infrared Spectrum: BENZOTHIAZOLIUM COMPOUNDS: 3-ETHYL-2-[3-(3-ETHYL-2-BENZOTHIAZOLINYLIDENE)-2-METHYLPROPENYL]-IODIDE
Formula: C22 H23 I N2 S2
CAS: 3065-79-0
State: SOLID (SPLIT MULL), FLUOROLUBE FOR 3800-1330 CM^-^1, NUJOL FOR 1330-400 CM^-^1
Melting point: 280 C
Class: COBLENTZ III
Instrument: DOW KBr FOREPRISM-GRATING
Instrument parameters: BLAZED AT 3.5, 12.0, 20.0 MICRON AND CHANGED AT 5.0, 7.5, 14.9 MICRON
Sampling: TRANSMISSION
Resolution: 2
Origin: DOW CHEMICAL COMPANY
1/CM	TRANSMITTANCE
391.716	0.846
400.592	0.848
409.467	0.853
418.343	0.857
427.219	0.863
436.095	0.918
444.97	0.935
453.846	0.917
462.722	0.98
471.598	0.995
480.473	1.001
489.349	0.998
498.225	0.911
507.101	0.87
515.976	1.013
524.852	0.926
533.728	0.955
542.604	0.925
551.479	1.001
560.355	1.037
569.231	1.034
578.107	1.027
586.982	1
595.858	0.995
604.734	1.022
613.61	0.998
622.485	0.966
631.361	1.022
640.237	1.017
649.113	1.013
657.988	1.009
666.864	1.002
675.74	0.986
684.616	0.959
693.491	0.988
702.367	0.976
711.243	0.896
720.119	0.866
728.994	0.747
737.87	0.85
746.746	0.705
755.622	0.4481
764.497	0.863
773.373	0.758
782.249	0.664
791.125	0.803
800	0.743
808.876	0.958
817.752	0.953
826.628	0.922
835.503	0.82
844.379	0.679
853.255	0.929
862.13	0.958
871.006	0.976
879.882	0.972
888.758	0.959
897.633	0.955
906.509	0.948
915.385	0.922
924.261	0.933
933.136	0.889
942.012	0.896
950.888	0.893
959.764	0.91
968.639	0.899
977.515	0.886
986.391	0.895
995.267	0.877
1004.14	0.837
1013.02	0.755
1021.89	0.487
1030.77	0.696
1039.65	0.69
1048.52	0.839
1057.4	0.859
1066.27	0.747
1075.15	0.785
1084.02	0.784
1092.9	0.842
1101.78	0.827
1110.65	0.774
1119.53	0.599
1128.4	0.61
1137.28	0.759
1146.15	0.756
1155.03	0.61
1163.91	0.589
1172.78	0.754
1181.66	0.718
1190.53	0.669
1199.41	0.603
1208.28	0.513
1217.16	0.412
1226.04	0.27
1234.91	0.284
1243.79	0.135
1252.66	0.24
1261.54	0.135
1270.41	0.288
1279.29	0.292
1288.17	0.245
1297.04	0.6
1305.92	0.457
1314.79	0.385
1323.67	0.415
1332.54	0.504
1341.42	0.4
1350.3	0.453
1359.17	0.444
1368.05	0.651
1376.92	0.61
1385.8	0.556
1394.68	0.266
1403.55	0.588
1412.43	0.656
1421.3	0.674
1430.18	0.705
1439.05	0.47
1447.93	0.36
1456.81	0.212
1465.68	0.277
1474.56	0.33
1483.43	0.694
1492.31	0.541
1501.18	0.3459
1510.06	0.208
1518.94	0.281
1527.81	0.651
1536.69	0.776
1545.56	0.553
1554.44	0.691
1563.31	0.965
1572.19	0.984
1581.07	0.953
1589.94	0.964
1598.82	1.001
1607.69	1
1616.57	0.997
1625.44	0.99
1634.32	0.988
1643.2	0.984
1652.07	0.976
1660.95	0.969
1669.82	0.962
1678.7	0.961
1687.57	0.957
1696.45	0.954
1705.33	0.95
1714.2	0.947
1723.08	0.941
1731.95	0.935
1740.83	0.928
1749.71	0.919
1758.58	0.912
1767.46	0.904
1776.33	0.896
1785.21	0.89
1794.08	0.886
1802.96	0.883
1811.84	0.872
1820.71	0.867
1829.59	0.863
1838.46	0.86
1847.34	0.856
1856.21	0.85
1865.09	0.845
1873.97	0.842
1882.84	0.839
1891.72	0.835
1900.59	0.831
1909.47	0.825
1918.34	0.823
1927.22	0.82
1936.1	0.816
1944.97	0.809
1953.85	0.796
1962.72	0.806
1971.6	0.803
1980.47	0.795
1989.35	0.79
1998.23	0.79
2007.1	0.791
2015.98	0.788
2024.85	0.783
2033.73	0.779
2042.6	0.773
2051.48	0.7671
2060.36	0.761
2069.23	0.756
2078.11	0.751
2086.98	0.747
2095.86	0.74
2104.73	0.736
2113.61	0.7301
2122.49	0.7251
2131.36	0.72
2140.24	0.7141
2149.11	0.709
2157.99	0.7041
2166.87	0.6982
2175.74	0.6931
2184.62	0.6891
2193.49	0.6861
2202.37	0.683
2211.24	0.6781
2220.12	0.674
2229	0.6681
2237.87	0.6622
2246.75	0.6571
2255.62	0.653
2264.5	0.6473
2273.37	0.643
2282.25	0.6391
2291.13	0.6351
2300	0.6293
2308.88	0.627
2317.75	0.6223
2326.63	0.621
2335.5	0.62
2344.38	0.618
2353.26	0.616
2362.13	0.6132
2371.01	0.6102
2379.88	0.607
2388.76	0.604
2397.63	0.6
2406.51	0.599
2415.39	0.596
2424.26	0.593
2433.14	0.5894
2442.01	0.587
2450.89	0.584
2459.76	0.581
2468.64	0.578
2477.52	0.5742
2486.39	0.5732
2495.27	0.5715
2504.14	0.5692
2513.02	0.566
2521.89	0.562
2530.77	0.5583
2539.65	0.555
2548.52	0.5523
2557.4	0.551
2566.27	0.548
2575.15	0.545
2584.03	0.5413
2592.9	0.5356
2601.78	0.5333
2610.65	0.5303
2619.53	0.527
2628.4	0.524
2637.28	0.52
2646.16	0.5163
2655.03	0.513
2663.91	0.5096
2672.78	0.505
2681.66	0.5027
2690.53	0.5003
2699.41	0.4973
2708.29	0.494
2717.16	0.4903
2726.04	0.487
2734.91	0.486
2743.79	0.484
2752.66	0.482
2761.54	0.4794
2770.42	0.477
2779.29	0.475
2788.17	0.472
2797.04	0.4694
2805.92	0.4672
2814.79	0.466
2823.67	0.465
2832.55	0.461
2841.42	0.4558
2850.3	0.4504
2859.17	0.4434
2868.05	0.4394
2876.92	0.4378
2885.8	0.436
2894.68	0.435
2903.55	0.4309
2912.43	0.421
2921.3	0.415
2930.18	0.414
2939.05	0.414
2947.93	0.414
2956.81	0.411
2965.68	0.4009
2974.56	0.3855
2983.43	0.3895
2992.31	0.4011
3001.19	0.41
3010.06	0.405
3018.94	0.418
3027.81	0.4135
3036.69	0.411
3045.56	0.4105
3054.44	0.407
3063.32	0.403
3072.19	0.403
3081.07	0.4065
3089.94	0.41
3098.82	0.41
3107.69	0.408
3116.57	0.406
3125.45	0.403
3134.32	0.3995
3143.2	0.396
3152.07	0.3926
3160.95	0.3896
3169.82	0.388
3178.7	0.385
3187.58	0.3826
3196.45	0.381
3205.33	0.378
3214.2	0.375
3223.08	0.372
3231.95	0.3706
3240.83	0.368
3249.71	0.366
3258.58	0.3636
3267.46	0.3606
3276.33	0.359
3285.21	0.357
3294.08	0.3552
3302.96	0.353
3311.84	0.352
3320.71	0.349
3329.59	0.3473
3338.46	0.345
3347.34	0.3426
3356.21	0.341
3365.09	0.338
3373.97	0.337
3382.84	0.334
3391.72	0.332
3400.59	0.331
3409.47	0.33
3418.35	0.328
3427.22	0.327
3436.1	0.325
3444.97	0.324
3453.85	0.323
3462.72	0.3207
3471.6	0.3197
3480.48	0.317
3489.35	0.316
3498.23	0.314
3507.1	0.313
3515.98	0.312
3524.85	0.31
3533.73	0.309
3542.61	0.306
3551.48	0.305
3560.36	0.303
3569.23	0.302
3578.11	0.301
3586.98	0.3005
3595.86	0.299
3604.74	0.2975
3613.61	0.295
3622.49	0.2935
3631.36	0.291
3640.24	0.288
3649.11	0.287
3657.99	0.284
3666.87	0.283
3675.74	0.28
3684.62	0.279
3693.49	0.277
3702.37	0.276
3711.24	0.2738
3720.12	0.272
3729	0.269
3737.87	0.269
3746.75	0.267
3755.62	0.266
3764.5	0.265
3773.37	0.262
3782.25	0.261
3791.13	0.259
3800	0.258
