Infrared Spectrum: 1,2,4-Butanetriol
Formula: C 4 H 10 O 3
CAS: 3068-00-6
State: gas
Instrument: HP-GC/MS/IRD
Origin: NIST Mass Spectrometry Data Center
1/CM	ABSORBANCE
550	0.0025984
562	0.0023548
574	0.0023084
586	0.001914
598	0.0012238
610	0.0009106
622	0.0008642
634	0.0009164
646	0.0010324
658	0.001073
670	0.000812
682	0.0004292
694	0.0002204
706	0.000145
718	0.0001914
730	0.0001392
742	0.0002436
754	0.0003016
766	0.0005974
778	0.0009628
790	0.0013108
802	0.0017052
814	0.002059
826	0.002552
838	0.0031726
850	0.0042746
862	0.0054346
874	0.0059798
886	0.0062872
898	0.0066294
910	0.0063336
922	0.0058348
934	0.0065076
946	0.0082998
958	0.0102254
970	0.0116928
982	0.013369
994	0.016066
1006	0.0204856
1018	0.0276428
1030	0.0393878
1042	0.0526408
1054	0.058
1066	0.0513938
1078	0.0409886
1090	0.0329266
1102	0.0255606
1114	0.017893
1126	0.0121974
1138	0.0095584
1150	0.0089668
1162	0.0094714
1174	0.0103124
1186	0.0111534
1198	0.0116464
1210	0.0117972
1222	0.0117566
1234	0.0117392
1246	0.012064
1258	0.0125048
1270	0.0125686
1282	0.0120234
1294	0.0112462
1306	0.0107068
1318	0.010469
1330	0.0105966
1342	0.0110142
1354	0.0117218
1366	0.01305
1378	0.0148828
1390	0.0155672
1402	0.014355
1414	0.0121336
1426	0.0096396
1438	0.0069832
1450	0.0051736
1462	0.0046806
1474	0.0044776
1486	0.003161
1498	0.001711
1510	0.0010382
1522	0.0007424
1534	0.0005684
1546	0.0004292
1558	0.0003364
1570	0.0002146
1582	0.0001566
1594	0.0001044
1606	8.7e-05
1618	6.38e-05
1630	3.48e-05
1642	4.06e-05
1654	4.06e-05
1666	2.9e-05
1678	0
1690	0
1702	6.96e-05
1714	7.54e-05
1726	7.54e-05
1738	6.96e-05
1750	8.7e-05
1762	8.7e-05
1774	9.86e-05
1786	9.86e-05
1798	0.000116
1810	0.0001334
1822	0.0001566
1834	0.0001682
1846	0.0001798
1858	0.0001624
1870	0.0002146
1882	0.0002262
1894	0.0002262
1906	0.0002494
1918	0.0002958
1930	0.0002784
1942	0.0002436
1954	0.0002146
1966	0.0002204
1978	0.0002146
1990	0.0002262
2002	0.00029
2014	0.000348
2026	0.0003538
2038	0.0003828
2050	0.0003944
2062	0.000406
2074	0.0003944
2086	0.0003654
2098	0.0003132
2110	0.00029
2122	0.0002668
2134	0.0001972
2146	0.0001856
2158	0.0001508
2170	0.0001334
2182	0.0001276
2194	0.0001218
2206	0.0001276
2218	0.000145
2230	0.000145
2242	0.0001392
2254	0.0001566
2266	0.0001856
2278	0.000174
2290	0.000203
2302	0.000203
2314	0.000232
2326	0.0002436
2338	0.0002958
2350	0.00029
2362	0.000319
2374	0.0003306
2386	0.0003364
2398	0.0003538
2410	0.0003886
2422	0.0003828
2434	0.0004002
2446	0.000377
2458	0.000348
2470	0.0003364
2482	0.0003074
2494	0.0003422
2506	0.0003248
2518	0.0003248
2530	0.0003654
2542	0.0003596
2554	0.0003828
2566	0.000406
2578	0.0004118
2590	0.0004524
2602	0.000493
2614	0.0005452
2626	0.0006032
2638	0.0007134
2650	0.0008352
2662	0.0009628
2674	0.0010846
2686	0.0012412
2698	0.001392
2710	0.0015776
2722	0.0017806
2734	0.001972
2746	0.0022272
2758	0.0025288
2770	0.0028246
2782	0.0031958
2794	0.0035786
2806	0.0041006
2818	0.0048778
2830	0.0061828
2842	0.0083868
2854	0.0119944
2866	0.0174638
2878	0.0242962
2890	0.0287622
2902	0.02871
2914	0.0298874
2926	0.0358904
2938	0.0412612
2950	0.0383728
2962	0.0278922
2974	0.0161878
2986	0.007946
2998	0.0038512
3010	0.0022156
3022	0.0014558
3034	0.0010382
3046	0.0008352
3058	0.000609
3070	0.0004872
3082	0.0003712
3094	0.0003074
3106	0.0002436
3118	0.000203
3130	0.000174
3142	0.0001682
3154	0.0001566
3166	0.0001566
3178	0.0001334
3190	0.0001798
3202	0.0001798
3214	0.0001798
3226	0.0002088
3238	0.0002378
3250	0.0001856
3262	0.0002088
3274	0.0002842
3286	0.0002784
3298	0.0003596
3310	0.0003596
3322	0.0003828
3334	0.0004176
3346	0.0005046
3358	0.0005104
3370	0.000551
3382	0.0006612
3394	0.0007192
3406	0.0007482
3418	0.00087
3430	0.001044
3442	0.0011948
3454	0.0012818
3466	0.0013746
3478	0.001508
3490	0.001769
3502	0.002088
3514	0.0024302
3526	0.0028188
3538	0.0032886
3550	0.003857
3562	0.0049996
3574	0.0071688
3586	0.0104748
3598	0.0139026
3610	0.0155092
3622	0.0149988
3634	0.0133284
3646	0.0122902
3658	0.0137228
3670	0.0145638
3682	0.011455
3694	0.0064902
3706	0.003451
3718	0.0023142
3730	0.001885
3742	0.0015776
3754	0.0014036
3766	0.0012296
3778	0.001044
3790	0.0009222
3802	0.0007946
3814	0.0008352
3826	0.0008062
3838	0.0007772
