Infrared Spectrum: 4-Methyl-5-trifluoromethyl-1,2,4-triazoline-3-thione
Formula: C 4 H 4 F 3 N 3 S
CAS: 30682-81-6
State: gas
Origin: EPA-IR VAPOR PHASE LIBRARY
1/CM	ABSORBANCE
549.9	0.01033
559.547	0.01641
569.193	0.0167
578.84	0.0092
588.486	0.00502
598.133	0.00514
607.779	0.00808
617.426	0.00746
627.072	0.00364
636.719	0.00249
646.365	0.0022333
656.012	0.0026
665.658	0.00393
675.305	0.00443
684.951	0.00357
694.598	0.00488
704.245	0.00668
713.891	0.00607
723.538	0.00411
733.184	0.00293
742.831	0.00311
752.477	0.0065
762.124	0.00727
771.77	0.00268
781.417	0.00146981
791.063	0.0014294
800.71	0.00142115
810.356	0.001214
820.003	0.001053
829.649	0.000992
839.296	0.000944
848.943	0.000974
858.589	0.001033
868.236	0.001136
877.882	0.001323
887.529	0.0017923
897.175	0.00251
906.822	0.00248
916.468	0.00261
926.115	0.00327
935.761	0.00468
945.408	0.00626
955.054	0.00551
964.701	0.0036
974.347	0.00249
983.994	0.0021279
993.64	0.00221
1003.29	0.00303
1012.93	0.00467
1022.58	0.00726
1032.23	0.00969
1041.87	0.01098
1051.52	0.01243
1061.17	0.01956
1070.81	0.04036
1080.46	0.07237
1090.11	0.09895
1099.75	0.08199
1109.4	0.03764
1119.05	0.0255
1128.69	0.02779
1138.34	0.04163
1147.99	0.07516
1157.63	0.11521
1167.28	0.1014
1176.92	0.06271
1186.57	0.04299
1196.22	0.05335
1205.86	0.08308
1215.51	0.08571
1225.16	0.06396
1234.8	0.04674
1244.45	0.04748
1254.1	0.07855
1263.74	0.11096
1273.39	0.07953
1283.04	0.02755
1292.68	0.01126
1302.33	0.00988
1311.98	0.014
1321.62	0.01843
1331.27	0.01481
1340.92	0.00679
1350.56	0.00529
1360.21	0.00659
1369.86	0.00806
1379.5	0.00724
1389.15	0.00906
1398.79	0.01866
1408.44	0.04985
1418.09	0.06133
1427.73	0.03574
1437.38	0.0523
1447.03	0.12899
1456.67	0.16018
1466.32	0.0945
1475.97	0.05244
1485.61	0.02783
1495.26	0.01543
1504.91	0.01117
1514.55	0.00904
1524.2	0.00763
1533.85	0.00683
1543.49	0.00597
1553.14	0.0052
1562.79	0.00471
1572.43	0.00457
1582.08	0.00461
1591.73	0.00389
1601.37	0.00273
1611.02	0.002178
1620.67	0.0018806
1630.31	0.0017533
1639.96	0.0017702
1649.6	0.0016494
1659.25	0.001544
1668.9	0.00150756
1678.54	0.0015313
1688.19	0.0015315
1697.84	0.0015389
1707.48	0.0015419
1717.13	0.0016162
1726.78	0.0015558
1736.42	0.00145688
1746.07	0.00144266
1755.72	0.00151071
1765.36	0.0016485
1775.01	0.0017031
1784.66	0.0017439
1794.3	0.0017681
1803.95	0.0016749
1813.6	0.0015676
1823.24	0.00150117
1832.89	0.0013575
1842.54	0.001288
1852.18	0.001322
1861.83	0.001235
1871.47	0.001254
1881.12	0.001291
1890.77	0.0013596
1900.41	0.00143549
1910.06	0.00147453
1919.71	0.00151051
1929.35	0.0013924
1939	0.001225
1948.65	0.001085
1958.29	0.001064
1967.94	0.0011
1977.59	0.001075
1987.23	0.001062
1996.88	0.001128
2006.53	0.001253
2016.17	0.0013667
2025.82	0.001269
2035.47	0.00116
2045.11	0.001011
2054.76	0.000956
2064.41	0.000925
2074.05	0.000904
2083.7	0.000873
2093.35	0.000925
2102.99	0.000961
2112.64	0.001036
2122.28	0.001068
2131.93	0.000982
2141.58	0.000995
2151.22	0.001054
2160.87	0.001152
2170.52	0.001087
2180.16	0.000984
2189.81	0.000924
2199.46	0.000937
2209.1	0.001006
2218.75	0.001047
2228.4	0.001137
2238.04	0.001187
2247.69	0.001307
2257.34	0.0013643
2266.98	0.00143564
2276.63	0.0014017
2286.28	0.0014098
2295.92	0.00147318
2305.57	0.001418
2315.22	0.0013641
2324.86	0.001195
2334.51	0.001157
2344.16	0.001181
2353.8	0.00125
2363.45	0.001271
2373.09	0.001305
2382.74	0.00123
2392.39	0.001246
2402.03	0.001289
2411.68	0.0013448
2421.33	0.001315
2430.97	0.001194
2440.62	0.001078
2450.27	0.001025
2459.91	0.001058
2469.56	0.001065
2479.21	0.001123
2488.85	0.001176
2498.5	0.00114
2508.15	0.001129
2517.79	0.001125
2527.44	0.001256
2537.09	0.0014169
2546.73	0.00144234
2556.38	0.001325
2566.03	0.00121
2575.67	0.001169
2585.32	0.001108
2594.96	0.001059
2604.61	0.001112
2614.26	0.001108
2623.9	0.001052
2633.55	0.001059
2643.2	0.001103
2652.84	0.00117
2662.49	0.001302
2672.14	0.00125
2681.78	0.001071
2691.43	0.000959
2701.08	0.000805
2710.72	0.000818
2720.37	0.000725
2730.02	0.000719
2739.66	0.000704
2749.31	0.000662
2758.96	0.000548
2768.6	0.000619
2778.25	0.000599
2787.9	0.000535
2797.54	0.000609
2807.19	0.00064
2816.84	0.000672
2826.48	0.000539
2836.13	0.000596
2845.77	0.000673
2855.42	0.00078
2865.07	0.001075
2874.71	0.001183
2884.36	0.00129
2894.01	0.001319
2903.65	0.0013517
2913.3	0.0013883
2922.95	0.001599
2932.59	0.0018467
2942.24	0.00247
2951.89	0.00407
2961.53	0.00574
2971.18	0.0052
2980.83	0.0032
2990.47	0.0020263
3000.12	0.0016258
3009.77	0.0013625
3019.41	0.001176
3029.06	0.000899
3038.71	0.001076
3048.35	0.000976
3058	0.000896
3067.64	0.000753
3077.29	0.000599
3086.94	0.00048
3096.58	0.00039
3106.23	0.00028
3115.88	0.00037
3125.52	0.00039
3135.17	0.00031
3144.82	0.00018
3154.46	0.00038
3164.11	0.00039
3173.76	0.00029
3183.4	0.00021
3193.05	0.00024
3202.7	0.00016
3212.34	0.00014
3221.99	7e-05
3231.64	0.00012
3241.28	0.00026
3250.93	0.00026
3260.58	0.00033
3270.22	0.00026
3279.87	0.00036
3289.52	0.00027
3299.16	0.00031
3308.81	0.00043
3318.45	0.00036
3328.1	0.000467
3337.75	0.00035
3347.39	0.00037
3357.04	0.00027
3366.69	0.00039
3376.33	0.00031
3385.98	0.000476
3395.63	0.000563
3405.27	0.000479
3414.92	0.000588
3424.57	0.000867
3434.21	0.000815
3443.86	0.00107
3453.51	0.001649
3463.15	0.00277
3472.8	0.00572
3482.45	0.01328
3492.09	0.03063
3501.74	0.04411
3511.39	0.03189
3521.03	0.00953
3530.68	0.00268
3540.33	0.00152034
3549.97	0.001161
3559.62	0.001009
3569.26	0.000949
3578.91	0.00073
3588.56	0.000784
3598.2	0.000706
3607.85	0.000783
3617.5	0.00076
3627.14	0.000856
3636.79	0.000807
3646.44	0.000774
3656.08	0.000801
3665.73	0.000804
3675.38	0.000793
3685.02	0.000765
3694.67	0.000874
3704.32	0.000826
3713.96	0.000858
3723.61	0.000782
3733.26	0.000833
3742.9	0.000787
3752.55	0.000757
3762.2	0.000852
3771.84	0.000783
3781.49	0.000706
3791.13	0.000727
3800.78	0.000782
3810.43	0.000764
3820.07	0.000786
3829.72	0.000756
3839.37	0.000767
3849.01	0.00081
3858.66	0.000708
3868.31	0.000802
3877.95	0.000754
3887.6	0.000819
3897.25	0.000816
3906.89	0.000658
3916.54	0.00075
3926.19	0.000761
3935.83	0.000885
3945.48	0.00084
3955.13	0.000703
3964.77	0.000866
3974.42	0.00089
3984.07	0.000898
3993.71	0.001007
