Infrared Spectrum: 5-Tridecanone
Formula: C 13 H 26 O
CAS: 30692-16-1
State: gas
Instrument: HP-GC/MS/IRD
Origin: NIST Mass Spectrometry Data Center
1/CM	ABSORBANCE
550	0.0003408
562	7.68e-05
574	2.88e-05
586	0.0001536
598	8.16e-05
610	0.0002352
622	0.0001344
634	0.0002496
646	0.00024
658	1.44e-05
670	6.72e-05
682	0.0001536
694	0.0003552
706	0.0006048
718	0.0008736
730	0.000936
742	0.000888
754	0.0008448
766	0.0008112
778	0.0006864
790	0.00048
802	0.000384
814	0.0002256
826	0.000288
838	0.0002448
850	0.0003312
862	0.000336
874	0.0003936
886	0.000432
898	0.000504
910	0.0005616
922	0.0006048
934	0.0006432
946	0.0006912
958	0.0007152
970	0.0007728
982	0.0008544
994	0.001128
1006	0.0015024
1018	0.0022368
1030	0.0025968
1042	0.002352
1054	0.0024576
1066	0.0026016
1078	0.0020544
1090	0.001584
1102	0.0016224
1114	0.0022416
1126	0.00312
1138	0.0031776
1150	0.0026976
1162	0.002184
1174	0.0018912
1186	0.0018864
1198	0.0018336
1210	0.001824
1222	0.0018288
1234	0.0018624
1246	0.0020112
1258	0.0020736
1270	0.001992
1282	0.0020496
1294	0.002304
1306	0.0025248
1318	0.0026784
1330	0.003264
1342	0.0043584
1354	0.0053232
1366	0.004824
1378	0.0034608
1390	0.0027216
1402	0.0023136
1414	0.002832
1426	0.0030384
1438	0.0034752
1450	0.0047616
1462	0.0055968
1474	0.0038688
1486	0.0018288
1498	0.001008
1510	0.0006816
1522	0.00048
1534	0.0003552
1546	0.0003072
1558	0.0002592
1570	0.0002064
1582	0.0001824
1594	0.0001824
1606	0.0001872
1618	0.000216
1630	0.0002592
1642	0.00036
1654	0.0005328
1666	0.0007776
1678	0.0013248
1690	0.0023664
1702	0.0051072
1714	0.0119232
1726	0.0171888
1738	0.0088656
1750	0.0030528
1762	0.001344
1774	0.0007248
1786	0.0004416
1798	0.0003168
1810	0.0002448
1822	0.0001776
1834	0.000144
1846	0.00012
1858	0.0001152
1870	7.2e-05
1882	3.36e-05
1894	4.8e-05
1906	5.28e-05
1918	3.36e-05
1930	2.88e-05
1942	3.36e-05
1954	2.4e-05
1966	4.8e-06
1978	1.92e-05
1990	1.44e-05
2002	2.4e-05
2014	3.84e-05
2026	6.24e-05
2038	4.32e-05
2050	8.64e-05
2062	6.72e-05
2074	4.8e-05
2086	4.32e-05
2098	4.32e-05
2110	1.92e-05
2122	2.4e-05
2134	4.8e-05
2146	6.72e-05
2158	4.32e-05
2170	3.84e-05
2182	3.36e-05
2194	3.84e-05
2206	1.44e-05
2218	2.88e-05
2230	3.84e-05
2242	3.84e-05
2254	9.6e-06
2266	9.6e-06
2278	2.4e-05
2290	1.92e-05
2302	9.6e-06
2314	9.6e-06
2326	0
2338	9.6e-06
2350	0
2362	0
2374	0
2386	3.36e-05
2398	4.8e-05
2410	4.8e-05
2422	6.72e-05
2434	2.88e-05
2446	1.44e-05
2458	2.88e-05
2470	4.32e-05
2482	5.76e-05
2494	3.84e-05
2506	4.8e-05
2518	4.8e-05
2530	8.64e-05
2542	0.00012
2554	9.6e-05
2566	0.0001296
2578	0.0001584
2590	0.0001968
2602	0.0002208
2614	0.0002304
2626	0.0002544
2638	0.0003456
2650	0.000384
2662	0.0004608
2674	0.0005232
2686	0.0005328
2698	0.0005232
2710	0.0005088
2722	0.0005472
2734	0.0006672
2746	0.0007584
2758	0.000816
2770	0.0008928
2782	0.0011376
2794	0.0014688
2806	0.0019632
2818	0.0025968
2830	0.003624
2842	0.0058848
2854	0.011952
2866	0.0187824
2878	0.0184848
2890	0.0176016
2902	0.0190368
2914	0.0264
2926	0.0412752
2938	0.0474816
2950	0.0369024
2962	0.0326928
2974	0.0254496
2986	0.0112128
2998	0.0056928
3010	0.0034752
3022	0.0024096
3034	0.0018288
3046	0.001392
3058	0.0011472
3070	0.0009312
3082	0.0008592
3094	0.0007488
3106	0.0006576
3118	0.0005616
3130	0.0004896
3142	0.0004608
3154	0.0004032
3166	0.0003648
3178	0.0003696
3190	0.0003552
3202	0.000312
3214	0.000264
3226	0.000168
3238	0.0001392
3250	0.0001776
3262	0.0001392
3274	0.0001296
3286	0.0001248
3298	0.0001392
3310	9.6e-05
3322	7.68e-05
3334	0.0001344
3346	0.0001152
3358	0.0001248
3370	0.0001296
3382	0.0001584
3394	0.0001632
3406	0.0002208
3418	0.0003312
3430	0.0003504
3442	0.0003264
3454	0.000168
3466	6.72e-05
3478	8.16e-05
3490	6.24e-05
3502	4.8e-05
3514	5.28e-05
3526	6.24e-05
3538	4.32e-05
3550	4.32e-05
3562	2.88e-05
3574	4.8e-06
3586	9.12e-05
3598	9.6e-05
3610	0.0001104
3622	0.0001104
3634	9.12e-05
3646	0.0001392
3658	3.84e-05
3670	0.0001056
3682	6.72e-05
3694	4.8e-05
3706	6.72e-05
3718	4.32e-05
3730	8.16e-05
3742	0.0001104
3754	6.24e-05
3766	2.88e-05
3778	8.64e-05
3790	8.16e-05
3802	3.84e-05
3814	7.2e-05
3826	0.0001056
3838	4.32e-05
