Infrared Spectrum: 1,2,4,6,6-PENTACHLORO-1,1,2,3,3,4,5,5,6-NONAFLUOROHEXANE
Formula: C6 Cl5 F9
CAS: 307-26-6
State: LIQUID
Class: COBLENTZ
Instrument: Not specified, most likely a prism, grating, or hybrid spectrometer.
Sampling: TRANSMISSION
Path length: 0.003 CM
Resolution: 4
Origin: WYANDOTTE CHEMICALS CORP., WYANDOTTE, MICHIGAN, USA
MICROMETERS	TRANSMITTANCE
2.025	0.945
2.06222	0.95
2.09943	0.954
2.13665	0.956
2.17386	0.962
2.21108	0.962
2.2483	0.972
2.28551	0.972
2.32273	0.968
2.35994	0.97
2.39716	0.975
2.43438	0.965
2.47159	0.968
2.50881	0.97
2.54602	0.973
2.58324	0.986
2.62046	0.979
2.65767	0.978
2.69489	0.978
2.7321	0.981
2.76932	0.972
2.80654	0.958
2.84375	0.956
2.88097	0.953
2.91818	0.93
2.9554	0.936
2.99262	0.934
3.02983	0.937
3.06705	0.936
3.10426	0.926
3.14148	0.923
3.17869	0.912
3.21591	0.897
3.25313	0.888
3.29034	0.872
3.32756	0.856
3.36477	0.852
3.40199	0.849
3.43921	0.856
3.47642	0.866
3.51364	0.87
3.55085	0.881
3.58807	0.895
3.62529	0.903
3.6625	0.911
3.69972	0.919
3.73693	0.912
3.77415	0.928
3.81137	0.933
3.84858	0.933
3.8858	0.93
3.92301	0.934
3.96023	0.934
3.99745	0.934
4.03466	0.931
4.07188	0.928
4.10909	0.92
4.14631	0.92
4.18353	0.926
4.22074	0.902
4.25796	0.909
4.29517	0.917
4.33239	0.909
4.36961	0.897
4.40682	0.886
4.44404	0.888
4.48125	0.892
4.51847	0.903
4.55569	0.9
4.5929	0.911
4.63012	0.897
4.66733	0.912
4.70455	0.922
4.74177	0.934
4.77898	0.934
4.8162	0.934
4.85341	0.939
4.89063	0.95
4.92785	0.945
4.96506	0.948
5.00228	0.95
5.03949	0.948
5.07671	0.944
5.11393	0.945
5.15114	0.947
5.18836	0.948
5.22557	0.947
5.26279	0.948
5.3	0.944
5.33722	0.947
5.37444	0.944
5.41165	0.934
5.44887	0.937
5.48608	0.934
5.5233	0.934
5.56052	0.93
5.59773	0.931
5.63495	0.93
5.67216	0.931
5.70938	0.931
5.7466	0.925
5.78381	0.923
5.82103	0.912
5.85824	0.905
5.89546	0.892
5.93268	0.872
5.96989	0.87
6.00711	0.87
6.04432	0.867
6.08154	0.872
6.11876	0.875
6.15597	0.878
6.19319	0.875
6.2304	0.886
6.26762	0.891
6.30484	0.883
6.34205	0.886
6.37927	0.883
6.41648	0.883
6.4537	0.861
6.49092	0.872
6.52813	0.867
6.56535	0.874
6.60256	0.867
6.63978	0.861
6.677	0.858
6.71421	0.853
6.75143	0.847
6.78864	0.836
6.82586	0.825
6.86308	0.842
6.90029	0.839
6.93751	0.832
6.97472	0.844
7.01194	0.827
7.04916	0.824
7.08637	0.819
7.12359	0.821
7.1608	0.818
7.19802	0.814
7.23524	0.81
7.27245	0.814
7.30967	0.818
7.34688	0.818
7.3841	0.816
7.42131	0.81
7.45853	0.811
7.49575	0.818
7.53296	0.813
7.57018	0.804
7.60739	0.783
7.64461	0.763
7.68183	0.72
7.71904	0.65
7.75626	0.584
7.79347	0.48
7.83069	0.27
7.86791	0.077
7.90512	0.105
7.94234	0.097
7.97955	0.11
8.01677	0.122
8.05399	0.119
8.0912	0.087
8.12842	0.051
8.16563	0.035
8.20285	0.017
8.24007	0.023
8.27728	0.015
8.3145	0.027
8.35171	0.023
8.38893	0.031
8.42615	0.026
8.46336	0.02
8.50058	0.029
8.53779	0.024
8.57501	0.026
8.61223	0.024
8.64944	0.024
8.68666	0.027
8.72387	0.037
8.76109	0.032
8.79831	0.032
8.83552	0.023
8.87274	0.021
8.90995	0.026
8.94717	0.026
8.98439	0.024
9.0216	0.024
9.05882	0.021
9.09603	0.027
9.13325	0.037
9.17047	0.079
9.20768	0.152
9.2449	0.191
9.28211	0.211
9.31933	0.245
9.35655	0.287
9.39376	0.309
9.43098	0.209
9.46819	0.146
9.50541	0.069
9.54262	0.041
9.57984	0.041
9.61706	0.052
9.65427	0.077
9.69149	0.09
9.7287	0.083
9.76592	0.113
9.80314	0.189
9.84035	0.286
9.87757	0.376
9.91478	0.441
9.952	0.457
9.98922	0.451
10.0264	0.421
10.0636	0.367
10.1009	0.276
10.1381	0.181
10.1753	0.097
10.2125	0.045
10.2497	0.027
10.2869	0.026
10.3242	0.021
10.3614	0.021
10.3986	0.026
10.4358	0.027
10.473	0.024
10.5102	0.026
10.5475	0.041
10.5847	0.066
10.6219	0.093
10.6591	0.107
10.6963	0.132
10.7335	0.15
10.7708	0.143
10.808	0.076
10.8452	0.046
10.8824	0.034
10.9196	0.032
10.9568	0.032
10.994	0.031
11.0313	0.026
11.0685	0.032
11.1057	0.029
11.1429	0.024
11.1801	0.024
11.2173	0.027
11.2546	0.034
11.2918	0.038
11.329	0.048
11.3662	0.055
11.4034	0.077
11.4406	0.104
11.4779	0.125
11.5151	0.133
11.5523	0.138
11.5895	0.141
11.6267	0.164
11.6639	0.192
11.7012	0.22
11.7384	0.248
11.7756	0.286
11.8128	0.345
11.85	0.401
11.8872	0.424
11.9244	0.441
11.9617	0.437
11.9989	0.415
12.0361	0.379
12.0733	0.334
12.1105	0.3
12.1477	0.321
12.185	0.357
12.2222	0.359
12.2594	0.373
12.2966	0.367
12.3338	0.317
12.371	0.259
12.4083	0.267
12.4455	0.309
12.4827	0.359
12.5199	0.376
12.5571	0.362
12.5943	0.348
12.6315	0.343
12.6688	0.345
12.706	0.356
12.7432	0.367
12.7804	0.353
12.8176	0.332
12.8548	0.343
12.8921	0.393
12.9293	0.452
12.9665	0.489
13.0037	0.491
13.0409	0.441
13.0781	0.354
13.1154	0.276
13.1526	0.222
13.1898	0.195
13.227	0.195
13.2642	0.222
13.3014	0.258
13.3387	0.311
13.3759	0.368
13.4131	0.424
13.4503	0.427
13.4875	0.41
13.5247	0.381
13.5619	0.339
13.5992	0.304
13.6364	0.276
13.6736	0.292
13.7108	0.32
13.748	0.339
13.7852	0.328
13.8225	0.293
13.8597	0.251
13.8969	0.199
13.9341	0.147
13.9713	0.138
14.0085	0.192
14.0458	0.256
14.083	0.303
14.1202	0.332
14.1574	0.332
14.1946	0.317
14.2318	0.298
14.2691	0.283
14.3063	0.265
14.3435	0.241
14.3807	0.199
14.4179	0.18
14.4551	0.164
14.4923	0.153
14.5296	0.161
14.5668	0.186
14.604	0.234
14.6412	0.264
14.6784	0.304
14.7156	0.325
14.7529	0.343
14.7901	0.34
14.8273	0.335
14.8645	0.312
14.9017	0.297
14.9389	0.284
14.9762	0.29
15.0134	0.34
15.0506	0.382
15.0878	0.388
15.125	0.362
15.1622	0.365
15.1995	0.377
15.2367	0.396
15.2739	0.405
15.3111	0.418
15.3483	0.423
15.3855	0.423
15.4227	0.427
15.46	0.419
15.4972	0.423
15.5344	0.427
15.5716	0.454
15.6088	0.466
15.646	0.472
15.6833	0.486
15.7205	0.496
15.7577	0.5
15.7949	0.508
15.8321	0.528
15.8693	0.539
15.9066	0.542
15.9438	0.558
15.981	0.572
