Infrared Spectrum: Hexanoic acid, perfluoro-
Formula: C6 H F11 O2
CAS: 307-24-4
State: LIQUID (NEAT)
Class: COBLENTZ III
Instrument: BAIRD (PRISM)
Instrument parameters: NaCl PRISM
Sampling: TRANSMISSION
Path length: CAPILLARY
Resolution: 2
Origin: WYANDOTTE CHEMICALS CORP.
1/CM	TRANSMITTANCE
626	0.6056
635	0.5633
644	0.4923
653	0.4633
662	0.5432
671	0.5488
680	0.5383
689	0.4625
698	0.4261
707	0.3841
716	0.2833
725	0.2098
734	0.231
743	0.2218
752	0.3134
761	0.6021
770	0.5534
779	0.4794
788	0.5025
797	0.4548
806	0.2568
815	0.2118
824	0.3313
833	0.3821
842	0.3442
851	0.3634
860	0.2068
869	0.1938
878	0.3494
887	0.4114
896	0.4356
905	0.5091
914	0.5675
923	0.6478
932	0.6707
941	0.6335
950	0.6682
959	0.6822
968	0.6828
977	0.6215
986	0.3323
995	0.4512
1004	0.5171
1013	0.6068
1022	0.7156
1031	0.7248
1040	0.6914
1049	0.6912
1058	0.6423
1067	0.4169
1076	0.4348
1085	0.3807
1094	0.2239
1103	0.4384
1112	0.3145
1121	0.2503
1130	0.1802
1139	0.0307
1148	0.0128
1157	0.0131
1166	0.0185
1175	0.0184
1184	0.0123
1193	0.0117
1202	0.0128
1211	0.0125
1220	0.0116
1229	0.0104
1238	0.0099
1247	0.0097
1256	0.01
1265	0.0119
1274	0.0269
1283	0.0357
1292	0.0871
1301	0.1397
1310	0.1825
1319	0.2465
1328	0.4323
1337	0.5062
1346	0.4029
1355	0.2476
1364	0.191
1373	0.3974
1382	0.5958
1391	0.6318
1400	0.6557
1409	0.6454
1418	0.5901
1427	0.5058
1436	0.3887
1445	0.284
1454	0.3538
1463	0.5815
1472	0.6756
1481	0.7462
1490	0.7825
1499	0.8071
1508	0.8173
1517	0.823
1526	0.8252
1535	0.8189
1544	0.816
1553	0.8143
1562	0.8146
1571	0.8219
1580	0.8198
1589	0.817
1598	0.8133
1607	0.8029
1616	0.7804
1625	0.7721
1634	0.7664
1643	0.7612
1652	0.7503
1661	0.7212
1670	0.7157
1679	0.7065
1688	0.6828
1697	0.6623
1706	0.6385
1715	0.6042
1724	0.5469
1733	0.4897
1742	0.3993
1751	0.2029
1760	0.0493
1769	0.0247
1778	0.0267
1787	0.1079
1796	0.3247
1805	0.5307
1814	0.6635
1823	0.7774
1832	0.8199
1841	0.8452
1850	0.8569
1859	0.8637
1868	0.8667
1877	0.886
1886	0.8938
1895	0.8969
1904	0.899
1913	0.9004
1922	0.9008
1931	0.8995
1940	0.9026
1949	0.9078
1958	0.906
1967	0.9061
1976	0.9069
1985	0.9083
1994	0.9098
2003	0.9114
2012	0.913
2021	0.915
2030	0.9171
2039	0.9192
2048	0.9213
2057	0.9236
2066	0.9262
2075	0.9284
2084	0.9304
2093	0.9315
2102	0.9319
2111	0.9304
2120	0.9262
2129	0.9227
2138	0.9199
2147	0.9174
2156	0.915
2165	0.9127
2174	0.9105
2183	0.9091
2192	0.9083
2201	0.9088
2210	0.9098
2219	0.9073
2228	0.9042
2237	0.8992
2246	0.8936
2255	0.8884
2264	0.8833
2273	0.8762
2282	0.8691
2291	0.862
2300	0.8555
2309	0.8489
2318	0.8425
2327	0.8353
2336	0.8278
2345	0.8204
2354	0.8136
2363	0.8067
2372	0.7918
2381	0.779
2390	0.7718
2399	0.765
2408	0.7582
2417	0.7509
2426	0.7417
2435	0.7311
2444	0.717
2453	0.7078
2462	0.6993
2471	0.6899
2480	0.6807
2489	0.6754
2498	0.67
2507	0.664
2516	0.6565
2525	0.651
2534	0.6514
2543	0.6523
2552	0.6545
2561	0.6587
2570	0.6642
2579	0.6695
2588	0.6719
2597	0.673
2606	0.6738
2615	0.6738
2624	0.6734
2633	0.6726
2642	0.6712
2651	0.6626
2660	0.6489
2669	0.6362
2678	0.6264
2687	0.6166
2696	0.6091
2705	0.6065
2714	0.6063
2723	0.6064
2732	0.6056
2741	0.6037
2750	0.5975
2759	0.5897
2768	0.5822
2777	0.5725
2786	0.5614
2795	0.5431
2804	0.5203
2813	0.4964
2822	0.473
2831	0.4511
2840	0.4307
2849	0.4124
2858	0.3964
2867	0.3817
2876	0.3675
2885	0.3548
2894	0.3423
2903	0.3302
2912	0.3188
2921	0.309
2930	0.302
2939	0.2984
2948	0.2972
2957	0.2977
2966	0.2991
2975	0.3018
2984	0.3045
2993	0.3053
3002	0.3046
3011	0.3022
3020	0.2923
3029	0.2773
3038	0.2601
3047	0.2437
3056	0.2325
3065	0.2221
3074	0.213
3083	0.2026
3092	0.1931
3101	0.1896
3110	0.1897
3119	0.1885
3128	0.1893
3137	0.1904
3146	0.1917
3155	0.1932
3164	0.1962
3173	0.2009
3182	0.2068
3191	0.2153
3200	0.2235
3209	0.2317
3218	0.2399
3227	0.2479
3236	0.2565
3245	0.2689
3254	0.2886
3263	0.3149
3272	0.3405
3281	0.3873
3290	0.4287
3299	0.4594
3308	0.4902
3317	0.5188
3326	0.5366
3335	0.5553
3344	0.5845
3353	0.6321
3362	0.6604
3371	0.6772
3380	0.6935
3389	0.7105
3398	0.7274
3407	0.7415
3416	0.7542
3425	0.7669
3434	0.7781
3443	0.789
3452	0.8002
3461	0.8113
3470	0.821
3479	0.8278
3488	0.8346
3497	0.8412
3506	0.8479
3515	0.8539
3524	0.8598
3533	0.8656
3542	0.8717
3551	0.8806
3560	0.8897
3569	0.9059
3578	0.9191
3587	0.9291
3596	0.938
3605	0.9442
3614	0.9501
3623	0.9557
3632	0.9585
3641	0.9612
3650	0.9639
3659	0.9657
3668	0.9663
3677	0.9668
3686	0.9672
3695	0.9677
3704	0.9682
3713	0.9689
3722	0.9698
3731	0.9714
3740	0.9737
3749	0.9762
3758	0.9796
3767	0.9832
3776	0.9861
3785	0.9872
3794	0.988
3803	0.988
3812	0.9882
3821	0.9883
3830	0.9884
3839	0.9885
3848	0.9885
3857	0.9884
3866	0.9884
3875	0.9884
3884	0.9883
3893	0.9883
3902	0.9882
3911	0.9882
3920	0.9881
3929	0.988
3938	0.9878
3947	0.9877
3956	0.9874
3965	0.9873
3974	0.9872
3983	0.987
3992	0.9869
