Infrared Spectrum: 1,6-Heptadiene
Formula: C 7 H 12
CAS: 3070-53-9
State: gas
Instrument: HP-GC/MS/IRD
Origin: NIST Mass Spectrometry Data Center
1/CM	ABSORBANCE
550	0.0012264
562	0.0006916
574	0.0004928
586	0.0007028
598	0.0010752
610	0.0017024
622	0.0023744
634	0.0025704
646	0.0021
658	0.0014644
670	0.0009408
682	0.0006272
694	0.000266
706	0.0002016
718	0.000126
730	1.96e-05
742	0.0001848
754	0.0003696
766	0.000448
778	0.000322
790	0.0002408
802	0.0002632
814	0.0004256
826	0.0007056
838	0.001218
850	0.0017584
862	0.0023016
874	0.0031612
886	0.005362
898	0.0108724
910	0.0189868
922	0.0182616
934	0.0098924
946	0.005544
958	0.0045584
970	0.0054824
982	0.008036
994	0.0091896
1006	0.0066416
1018	0.003892
1030	0.0025256
1042	0.001708
1054	0.0013468
1066	0.0009828
1078	0.0007588
1090	0.0006132
1102	0.0007028
1114	0.000714
1126	0.0007056
1138	0.0005628
1150	0.0004172
1162	0.0002604
1174	0.0002632
1186	0.0003696
1198	0.0004396
1210	0.0004732
1222	0.0003836
1234	0.000406
1246	0.0003164
1258	0.0003332
1270	0.0004928
1282	0.0007756
1294	0.0009464
1306	0.000882
1318	0.0008204
1330	0.0009688
1342	0.00126
1354	0.001176
1366	0.0007952
1378	0.0006916
1390	0.0008624
1402	0.0013972
1414	0.002226
1426	0.0030744
1438	0.0042196
1450	0.0045388
1462	0.0031276
1474	0.0016548
1486	0.0007896
1498	0.0003808
1510	0.0002968
1522	0.0003164
1534	0.0003836
1546	0.0003556
1558	0.0003192
1570	0.000364
1582	0.0005124
1594	0.0007308
1606	0.001358
1618	0.0027496
1630	0.0064204
1642	0.0084504
1654	0.0049112
1666	0.0014896
1678	0.0006188
1690	0.0003332
1702	0.0002072
1714	0.0001008
1726	8.96e-05
1738	0.0001008
1750	0.0001008
1762	9.8e-05
1774	0.0001344
1786	0.0002016
1798	0.0003472
1810	0.0008064
1822	0.001848
1834	0.0021224
1846	0.001204
1858	0.0005208
1870	0.000266
1882	0.0001708
1894	0.0001484
1906	0.0001176
1918	8.68e-05
1930	7e-05
1942	9.24e-05
1954	0.0001708
1966	0.0002324
1978	0.0002772
1990	0.0001848
2002	0.0001372
2014	9.8e-05
2026	9.24e-05
2038	8.96e-05
2050	8.12e-05
2062	9.24e-05
2074	4.76e-05
2086	0.0001008
2098	8.96e-05
2110	0.0001092
2122	7.28e-05
2134	8.12e-05
2146	8.12e-05
2158	2.52e-05
2170	1.4e-05
2182	5.04e-05
2194	6.44e-05
2206	6.44e-05
2218	6.72e-05
2230	6.44e-05
2242	6.44e-05
2254	8.96e-05
2266	9.24e-05
2278	0.0001204
2290	0.000112
2302	0.0001148
2314	9.24e-05
2326	8.4e-05
2338	9.8e-05
2350	3.64e-05
2362	8.4e-05
2374	5.88e-05
2386	5.6e-05
2398	4.48e-05
2410	2.24e-05
2422	3.36e-05
2434	2.8e-05
2446	2.52e-05
2458	3.36e-05
2470	5.6e-05
2482	6.72e-05
2494	8.96e-05
2506	0.0001036
2518	0.0001036
2530	0.0001064
2542	0.0001064
2554	0.00014
2566	9.8e-05
2578	0.0001148
2590	0.0001204
2602	0.0001288
2614	0.0001232
2626	0.0001876
2638	0.0002016
2650	0.0002604
2662	0.0002604
2674	0.0002772
2686	0.0002548
2698	0.0002464
2710	0.0002296
2722	0.0002856
2734	0.0002912
2746	0.0003556
2758	0.00042
2770	0.0005264
2782	0.0005936
2794	0.0007308
2806	0.001036
2818	0.0016492
2830	0.003052
2842	0.0055356
2854	0.008134
2866	0.0091952
2878	0.0087192
2890	0.0089096
2902	0.0119308
2914	0.0182616
2926	0.0257068
2938	0.0274988
2950	0.020664
2962	0.012768
2974	0.0104356
2986	0.0108556
2998	0.0109732
3010	0.0092568
3022	0.005964
3034	0.0041468
3046	0.0041524
3058	0.0055048
3070	0.0085232
3082	0.0130676
3094	0.0111636
3106	0.0044772
3118	0.002002
3130	0.0012096
3142	0.0008204
3154	0.000644
3166	0.0004956
3178	0.000378
3190	0.0002576
3202	0.0002184
3214	0.0002324
3226	0.000182
3238	0.0001736
3250	0.0001092
3262	0.0002044
3274	0.000182
3286	0.000126
3298	0.0001428
3310	0.0001064
3322	3.92e-05
3334	0.0001176
3346	9.52e-05
3358	6.16e-05
3370	0.000112
3382	8.96e-05
3394	8.4e-05
3406	8.96e-05
3418	7.56e-05
3430	5.6e-05
3442	9.8e-05
3454	9.8e-05
3466	0.0001316
3478	9.52e-05
3490	8.4e-05
3502	9.8e-05
3514	0.0001036
3526	0.0001148
3538	4.76e-05
3550	0.0001288
3562	7.56e-05
3574	2.8e-05
3586	2.52e-05
3598	6.72e-05
3610	0.0001064
3622	5.88e-05
3634	4.48e-05
3646	0.0001036
3658	0.00014
3670	0.0001148
3682	0.0001512
3694	0.0001064
3706	0.0001036
3718	0.0001176
3730	7.84e-05
3742	9.52e-05
3754	5.88e-05
3766	5.6e-05
3778	9.8e-05
3790	8.68e-05
3802	0.0001036
3814	6.44e-05
3826	0.0001176
3838	0.0001092
