Infrared Spectrum: 2-(n-Heptanoyl)thiophene
Formula: C 11 H 16 O S
CAS: 30711-40-1
State: gas
Origin: EPA-IR VAPOR PHASE LIBRARY
1/CM	ABSORBANCE
549.8	0.001506
559.445	0.002566
569.09	0.003606
578.735	0.003946
588.38	0.004056
598.025	0.003666
607.67	0.003336
617.315	0.002586
626.96	0.001716
636.605	0.0012568
646.251	0.001576
655.896	0.001846
665.541	0.001946
675.186	0.002486
684.831	0.003536
694.476	0.007676
704.121	0.025546
713.766	0.044146
723.411	0.020986
733.056	0.008696
742.701	0.006386
752.346	0.006556
761.991	0.005286
771.636	0.004296
781.281	0.003146
790.926	0.002526
800.571	0.002426
810.216	0.003116
819.861	0.004266
829.507	0.006466
839.152	0.007936
848.797	0.010646
858.442	0.011876
868.087	0.004896
877.732	0.002456
887.377	0.002486
897.022	0.002636
906.667	0.003416
916.312	0.004496
925.957	0.004856
935.602	0.004916
945.247	0.005166
954.892	0.004546
964.537	0.004256
974.182	0.004146
983.827	0.004036
993.472	0.003986
1003.12	0.003406
1012.76	0.003076
1022.41	0.003746
1032.05	0.007866
1041.7	0.011466
1051.34	0.011596
1060.99	0.009976
1070.63	0.004636
1080.28	0.005946
1089.92	0.003226
1099.57	0.002686
1109.21	0.002876
1118.86	0.002556
1128.5	0.002206
1138.15	0.002816
1147.79	0.004416
1157.44	0.007766
1167.08	0.010166
1176.73	0.010516
1186.37	0.010826
1196.02	0.012166
1205.66	0.013586
1215.31	0.015566
1224.95	0.022416
1234.6	0.037856
1244.24	0.028916
1253.89	0.020406
1263.53	0.017496
1273.18	0.015206
1282.82	0.012376
1292.47	0.009796
1302.11	0.008606
1311.76	0.007836
1321.4	0.007086
1331.05	0.006816
1340.69	0.008756
1350.34	0.015536
1359.98	0.019626
1369.63	0.012486
1379.27	0.008066
1388.92	0.007356
1398.56	0.010566
1408.21	0.025316
1417.85	0.040196
1427.5	0.019876
1437.14	0.009996
1446.79	0.009106
1456.43	0.010026
1466.08	0.008946
1475.73	0.006046
1485.37	0.004206
1495.02	0.004876
1504.66	0.010256
1514.31	0.020516
1523.95	0.011376
1533.6	0.004536
1543.24	0.004196
1552.89	0.003366
1562.53	0.002286
1572.18	0.001696
1581.82	0.001476
1591.47	0.001466
1601.11	0.001766
1610.76	0.002146
1620.4	0.002296
1630.05	0.002596
1639.69	0.003566
1649.34	0.005606
1658.98	0.009706
1668.63	0.021666
1678.27	0.048226
1687.92	0.067666
1697.56	0.047916
1707.21	0.018236
1716.85	0.006956
1726.5	0.004106
1736.14	0.002976
1745.79	0.002286
1755.43	0.001916
1765.08	0.001496
1774.72	0.0012705
1784.37	0.001196
1794.01	0.0013829
1803.66	0.0013982
1813.3	0.0011378
1822.95	0.0011985
1832.59	0.0008522
1842.24	0.0006948
1851.88	0.0006269
1861.53	0.000611
1871.17	0.0005383
1880.82	0.00049457
1890.46	0.0004336
1900.11	0.0005269
1909.75	0.00047453
1919.4	0.0004794
1929.04	0.0003934
1938.69	0.000419614
1948.33	0.0003642
1957.98	0.000303
1967.62	0.0003185
1977.27	0.00026
1986.91	0.000274
1996.56	0.000307
2006.2	0.0003285
2015.85	0.000272
2025.49	0.0003389
2035.14	0.000274
2044.78	0.000292
2054.43	0.0003709
2064.07	0.0003256
2073.72	0.00046608
2083.36	0.00046618
2093.01	0.00047005
2102.65	0.0004011
2112.3	0.0003997
2121.94	0.00040702
2131.59	0.00042
2141.23	0.0003351
2150.88	0.00041159
2160.52	0.0005595
2170.17	0.00043537
2179.81	0.00041091
2189.46	0.0004029
2199.1	0.0003529
2208.75	0.000308
2218.39	0.000266
2228.04	0.000311
2237.68	0.000313
2247.33	0.0003873
2256.97	0.00049047
2266.62	0.00046934
2276.26	0.0004282
2285.91	0.0003888
2295.55	0.000419598
2305.2	0.0003691
2314.84	0.0003807
2324.49	0.0003528
2334.13	0.000404
2343.78	0.0003502
2353.42	0.00044061
2363.07	0.00043554
2372.72	0.000389
2382.36	0.000311
2392.01	0.000398
2401.65	0.000395
2411.3	0.00049869
2420.94	0.00047288
2430.59	0.00050675
2440.23	0.00050324
2449.88	0.0005521
2459.52	0.00050821
2469.17	0.00048281
2478.81	0.00046175
2488.46	0.000256
2498.1	0.000345
2507.75	0.000275
2517.39	0.0003591
2527.04	0.0003202
2536.68	0.00040709
2546.33	0.00042683
2555.97	0.0004409
2565.62	0.00051111
2575.26	0.0005347
2584.91	0.0006126
2594.55	0.0006002
2604.2	0.0006558
2613.84	0.0006617
2623.49	0.0007357
2633.13	0.0007509
2642.78	0.0007914
2652.42	0.0007696
2662.07	0.0007777
2671.71	0.0009617
2681.36	0.0009292
2691	0.0009986
2700.65	0.0008175
2710.29	0.0008518
2719.94	0.0009062
2729.58	0.0009143
2739.23	0.0011431
2748.87	0.0012826
2758.52	0.0012461
2768.16	0.0013085
2777.81	0.0013773
2787.45	0.001656
2797.1	0.002146
2806.74	0.002676
2816.39	0.003436
2826.03	0.004196
2835.68	0.005436
2845.32	0.008576
2854.97	0.015706
2864.61	0.023776
2874.26	0.024856
2883.9	0.023336
2893.55	0.021326
2903.19	0.024486
2912.84	0.031936
2922.48	0.045736
2932.13	0.059916
2941.77	0.058666
2951.42	0.046836
2961.06	0.045696
2970.71	0.042716
2980.35	0.022016
2990	0.010826
2999.64	0.006746
3009.29	0.004676
3018.93	0.003466
3028.58	0.002646
3038.22	0.002266
3047.87	0.001696
3057.51	0.001586
3067.16	0.001896
3076.8	0.002956
3086.45	0.004486
3096.09	0.003186
3105.74	0.002206
3115.38	0.001746
3125.03	0.0010474
3134.67	0.0008309
3144.32	0.0006296
3153.96	0.0005793
3163.61	0.0005192
3173.25	0.00045765
3182.9	0.0006031
3192.54	0.00048547
3202.19	0.0003189
3211.83	0.0003475
3221.48	0.00046098
3231.12	0.0003482
3240.77	0.000271
3250.41	0.000169
3260.06	0.00023
3269.7	0.000226
3279.35	0.000166
3289	0.000153
3298.64	0.000144
3308.29	0.000174
3317.93	0.0003916
3327.58	0.000415828
3337.22	0.0008156
3346.87	0.0009773
3356.51	0.0010216
3366.16	0.0010987
3375.8	0.0008229
3385.45	0.00050106
3395.09	0.000255
3404.74	0.0003493
3414.38	0.0003202
3424.03	0.0003375
3433.67	0.0003411
3443.32	0.000181
3452.96	0.000266
3462.61	0.000237
3472.25	0.00027
3481.9	0.000294
3491.54	0.00044361
3501.19	0.00028
3510.83	0.000145
3520.48	0.000151
3530.12	0.000132
3539.77	0.0003891
3549.41	0.000186
3559.06	0.000214
3568.7	0.0004662
3578.35	0.000171
3587.99	0.000228
3597.64	0.000274
3607.28	0.000312
3616.93	0.0003908
3626.57	0.0003673
3636.22	0.0004039
3645.86	0.000274
3655.51	0.000166
3665.15	0.000232
3674.8	0.00041397
3684.44	0.000313
3694.09	0.000186
3703.73	0.0003897
3713.38	0.000186
3723.02	0.000296
3732.67	0.0003876
3742.31	0.0004024
3751.96	0.000522
3761.6	0.0003809
3771.25	0.0004022
3780.89	0.0003749
3790.54	0.000244
3800.18	0.0006121
3809.83	0.0003528
3819.47	0.000583
3829.12	0.00048631
3838.76	0.0006005
3848.41	0.00050627
3858.05	0.00041016
3867.7	0.0003484
3877.34	0.0003747
3886.99	0.0003549
3896.63	0.0003843
3906.28	0.0003295
3915.92	0.00042686
3925.57	0.000271
3935.21	0.0003761
3944.86	0.00044574
3954.5	0.0006171
3964.15	0.00043811
3973.79	0.0004344
3983.44	0.0005652
3993.08	0.00049049
