Infrared Spectrum: 2-n-Octanoylthiophene
Formula: C 12 H 18 O S
CAS: 30711-41-2
State: gas
Origin: EPA-IR VAPOR PHASE LIBRARY
1/CM	ABSORBANCE
549.8	0.003
559.445	0.00295
569.09	0.00414
578.734	0.00365
588.379	0.00394
598.024	0.00377
607.669	0.00396
617.313	0.0023488
626.958	0.0024213
636.603	0.0022831
646.248	0.00289
655.893	0.0024235
665.537	0.00347
675.182	0.0022703
684.827	0.00417
694.472	0.00722
704.116	0.02136
713.761	0.03685
723.406	0.01749
733.051	0.0083
742.695	0.00609
752.34	0.00674
761.985	0.00548
771.63	0.00441
781.275	0.00482
790.919	0.00492
800.564	0.00427
810.209	0.00477
819.854	0.0064
829.498	0.00606
839.143	0.00694
848.788	0.00945
858.433	0.01127
868.078	0.00495
877.722	0.00331
887.367	0.00323
897.012	0.00365
906.657	0.00459
916.301	0.00459
925.946	0.00436
935.591	0.00509
945.236	0.00524
954.88	0.00608
964.525	0.00561
974.17	0.00484
983.815	0.00422
993.46	0.00454
1003.1	0.00446
1012.75	0.00544
1022.39	0.00616
1032.04	0.00784
1041.68	0.00937
1051.33	0.01139
1060.97	0.0089
1070.62	0.00442
1080.26	0.00764
1089.91	0.00421
1099.55	0.00454
1109.2	0.00371
1118.84	0.00425
1128.49	0.00382
1138.13	0.00457
1147.78	0.0079
1157.42	0.00822
1167.07	0.01005
1176.71	0.01011
1186.36	0.01107
1196	0.01236
1205.64	0.01465
1215.29	0.01574
1224.93	0.02104
1234.58	0.03216
1244.22	0.02263
1253.87	0.01887
1263.51	0.01695
1273.16	0.01365
1282.8	0.01103
1292.45	0.0099
1302.09	0.0094
1311.74	0.00813
1321.38	0.00717
1331.03	0.00707
1340.67	0.00889
1350.32	0.01439
1359.96	0.01743
1369.61	0.01195
1379.25	0.00796
1388.9	0.00737
1398.54	0.00999
1408.18	0.02165
1417.83	0.03418
1427.47	0.01744
1437.12	0.0098
1446.76	0.00929
1456.41	0.01077
1466.05	0.00997
1475.7	0.00695
1485.34	0.00507
1494.99	0.00551
1504.63	0.00971
1514.28	0.01788
1523.92	0.01037
1533.57	0.00532
1543.21	0.00486
1552.86	0.00405
1562.5	0.00344
1572.15	0.00307
1581.79	0.00296
1591.44	0.0025
1601.08	0.00268
1610.73	0.00359
1620.37	0.0032
1630.01	0.00363
1639.66	0.00453
1649.3	0.00582
1658.95	0.00946
1668.59	0.01875
1678.24	0.03952
1687.88	0.05531
1697.53	0.03894
1707.17	0.01581
1716.82	0.007
1726.46	0.00497
1736.11	0.00388
1745.75	0.00339
1755.4	0.00302
1765.04	0.00276
1774.69	0.0025838
1784.33	0.0024066
1793.98	0.00263
1803.62	0.00277
1813.27	0.00262
1822.91	0.0025674
1832.55	0.0022712
1842.2	0.0021888
1851.84	0.0021689
1861.49	0.0021292
1871.13	0.0020732
1880.78	0.0020514
1890.42	0.0019488
1900.07	0.0018362
1909.71	0.0018458
1919.36	0.0018598
1929	0.0021097
1938.65	0.0017268
1948.29	0.00170946
1957.94	0.0018212
1967.58	0.00162736
1977.23	0.00168175
1986.87	0.0018465
1996.52	0.0017107
2006.16	0.00167179
2015.81	0.0017766
2025.45	0.001495
2035.1	0.0017225
2044.74	0.0015115
2054.38	0.0017225
2064.03	0.0019369
2073.67	0.0018594
2083.32	0.0017309
2092.96	0.0018456
2102.61	0.00163183
2112.25	0.0017227
2121.9	0.001993
2131.54	0.0017719
2141.19	0.0017291
2150.83	0.0017634
2160.48	0.00161169
2170.12	0.00160166
2179.77	0.0015126
2189.41	0.0018174
2199.06	0.0017586
2208.7	0.00162723
2218.35	0.00170994
2227.99	0.0018924
2237.64	0.00161695
2247.28	0.0015786
2256.92	0.00166551
2266.57	0.0015559
2276.21	0.0020051
2285.86	0.0017527
2295.5	0.0019254
2305.15	0.001494
2314.79	0.00163075
2324.44	0.0017716
2334.08	0.0018394
2343.73	0.001587
2353.37	0.001897
2363.02	0.0017234
2372.66	0.00162382
2382.31	0.00162653
2391.95	0.00163993
2401.6	0.00168384
2411.24	0.0015958
2420.89	0.00170659
2430.53	0.0021056
2440.18	0.0018465
2449.82	0.00168683
2459.47	0.00161471
2469.11	0.0018106
2478.75	0.0015734
2488.4	0.001458
2498.04	0.00162223
2507.69	0.0015703
2517.33	0.00166054
2526.98	0.001406
2536.62	0.00165781
2546.27	0.0018819
2555.91	0.0018642
2565.56	0.001502
2575.2	0.0021086
2584.85	0.00161164
2594.49	0.0018129
2604.14	0.0021257
2613.78	0.0018792
2623.43	0.0019601
2633.07	0.002144
2642.72	0.0020091
2652.36	0.0019956
2662.01	0.0019175
2671.65	0.0020888
2681.29	0.0020934
2690.94	0.0020568
2700.58	0.002366
2710.23	0.0021308
2719.87	0.0016501
2729.52	0.0021267
2739.16	0.0020761
2748.81	0.0023516
2758.45	0.0020423
2768.1	0.0021144
2777.74	0.0025519
2787.39	0.00265
2797.03	0.00342
2806.68	0.00387
2816.32	0.00435
2825.97	0.00531
2835.61	0.00666
2845.26	0.00969
2854.9	0.01708
2864.55	0.02549
2874.19	0.02442
2883.84	0.02197
2893.48	0.01998
2903.12	0.02384
2912.77	0.03178
2922.41	0.04737
2932.06	0.06343
2941.7	0.05851
2951.35	0.04369
2960.99	0.03972
2970.64	0.03645
2980.28	0.01883
2989.93	0.01003
2999.57	0.00709
3009.22	0.00575
3018.86	0.00441
3028.51	0.00372
3038.15	0.00325
3047.8	0.00312
3057.44	0.00299
3067.09	0.00284
3076.73	0.00389
3086.38	0.0046
3096.02	0.00367
3105.67	0.00286
3115.31	0.00284
3124.95	0.0024979
3134.6	0.0019251
3144.24	0.0020028
3153.89	0.0020423
3163.53	0.0017352
3173.18	0.0015172
3182.82	0.0017596
3192.47	0.0016905
3202.11	0.001214
3211.76	0.0016905
3221.4	0.001116
3231.05	0.0015921
3240.69	0.001334
3250.34	0.001167
3259.98	0.00166362
3269.63	0.0021932
3279.27	0.0017286
3288.92	0.0018126
3298.56	0.0021483
3308.21	0.0020011
3317.85	0.0019794
3327.49	0.00166716
3337.14	0.0022414
3346.78	0.00201
3356.43	0.00267
3366.07	0.0021162
3375.72	0.002449
3385.36	0.0021888
3395.01	0.001037
3404.65	0.0018535
3414.3	0.001389
3423.94	0.001447
3433.59	0.001355
3443.23	0.0017613
3452.88	0.001412
3462.52	0.0019924
3472.17	0.0018288
3481.81	0.000858
3491.46	0.001549
3501.1	0.001447
3510.75	0.001736
3520.39	0.001335
3530.04	0.001408
3539.68	0.0018002
3549.32	0.001128
3558.97	0.0020906
3568.61	0.002137
3578.26	0.000716
3587.9	0.0021455
3597.55	0.00143
3607.19	0.0018544
3616.84	0.0017418
3626.48	0.001207
3636.13	0.00165149
3645.77	0.0019596
3655.42	0.001421
3665.06	0.00167343
3674.71	0.0015328
3684.35	0.0017757
3694	0.00162412
3703.64	0.0019541
3713.29	0.0017637
3722.93	0.0018686
3732.58	0.001371
3742.22	0.001104
3751.86	0.0015472
3761.51	0.001493
3771.15	0.0015569
3780.8	0.0015804
3790.44	0.001422
3800.09	0.001151
3809.73	0.00160146
3819.38	0.0018132
3829.02	0.002121
3838.67	0.0021607
3848.31	0.0015124
3857.96	0.0017239
3867.6	0.0017285
3877.25	0.0018584
3886.89	0.001397
3896.54	0.001248
3906.18	0.00124
3915.83	0.0021856
3925.47	0.0015486
3935.12	0.0018636
3944.76	0.0018084
3954.41	0.001414
3964.05	0.0022563
3973.69	0.0017713
3983.34	0.0017178
3992.98	0.0017102
