Infrared Spectrum: Acetone, Purin-6-yl Hydrazone
Formula: C8 H10 N6
CAS: 307326-46-1
State: SOLID (0.9 mg / 650 mg KBr DISC)
Class: COBLENTZ III
Instrument: PERKIN-ELMER 21 (GRATING)
Instrument parameters: FILTER CHANGE ABOUT 1025 CM^-^1
Sampling: TRANSMISSION
Resolution: 2
Origin: SOUTHERN RESEARCH INSTITUTE
1/CM	TRANSMITTANCE
606	0.5119
615.027	0.5109
624.053	0.507
633.08	0.5011
642.106	0.4961
651.133	0.5025
660.16	0.5164
669.186	0.5368
678.213	0.5496
687.239	0.5508
696.266	0.5628
705.293	0.5659
714.319	0.5587
723.346	0.5213
732.372	0.4081
741.399	0.4426
750.426	0.6189
759.452	0.624
768.479	0.6243
777.505	0.6237
786.532	0.6134
795.559	0.4988
804.585	0.6393
813.612	0.6433
822.638	0.6172
831.665	0.573
840.692	0.6474
849.718	0.6699
858.745	0.6547
867.772	0.6139
876.798	0.5176
885.825	0.4307
894.851	0.5077
903.878	0.6445
912.905	0.6458
921.931	0.6254
930.958	0.5883
939.984	0.6548
949.011	0.6489
958.038	0.639
967.064	0.6257
976.091	0.6073
985.117	0.5981
994.144	0.601
1003.17	0.582
1012.2	0.5578
1021.22	0.4958
1030.25	0.4129
1039.28	0.3564
1048.3	0.5356
1057.33	0.5537
1066.36	0.5316
1075.38	0.4954
1084.41	0.4355
1093.44	0.384
1102.46	0.2931
1111.49	0.3367
1120.52	0.3379
1129.54	0.183
1138.57	0.2779
1147.6	0.598
1156.62	0.6725
1165.65	0.6656
1174.68	0.6468
1183.7	0.6484
1192.73	0.6504
1201.76	0.6261
1210.78	0.5871
1219.81	0.5413
1228.84	0.4691
1237.86	0.4421
1246.89	0.4534
1255.92	0.5359
1264.94	0.3901
1273.97	0.4722
1283	0.5211
1292.02	0.4089
1301.05	0.2962
1310.08	0.3689
1319.1	0.4297
1328.13	0.3825
1337.15	0.2588
1346.18	0.4139
1355.21	0.3643
1364.23	0.2155
1373.26	0.0973
1382.29	0.1421
1391.31	0.249
1400.34	0.2024
1409.37	0.2495
1418.39	0.431
1427.42	0.5024
1436.45	0.4703
1445.47	0.4396
1454.5	0.4172
1463.53	0.5378
1472.55	0.5598
1481.58	0.5222
1490.61	0.5281
1499.63	0.5906
1508.66	0.5846
1517.69	0.5527
1526.71	0.4839
1535.74	0.4446
1544.77	0.3671
1553.79	0.2026
1562.82	0.0627
1571.85	0.0601
1580.87	0.1171
1589.9	0.3407
1598.93	0.2647
1607.95	0.1097
1616.98	0.037
1626.01	0.0823
1635.03	0.2113
1644.06	0.3323
1653.09	0.5133
1662.11	0.656
1671.14	0.7144
1680.17	0.7903
1689.19	0.844
1698.22	0.8685
1707.25	0.8776
1716.27	0.876
1725.3	0.8712
1734.33	0.8683
1743.35	0.8638
1752.38	0.8536
1761.41	0.8475
1770.43	0.8534
1779.46	0.8559
1788.49	0.852
1797.51	0.8455
1806.54	0.8388
1815.56	0.8316
1824.59	0.8323
1833.62	0.834
1842.64	0.8341
1851.67	0.8328
1860.7	0.8268
1869.72	0.8226
1878.75	0.8207
1887.78	0.8188
1896.8	0.8161
1905.83	0.8143
1914.86	0.8126
1923.88	0.8106
1932.91	0.8085
1941.94	0.806
1950.96	0.8054
1959.99	0.8058
1969.02	0.8074
1978.04	0.8095
1987.07	0.8091
1996.1	0.8073
2005.12	0.8051
2014.15	0.8027
2023.18	0.7996
2032.2	0.7966
2041.23	0.7933
2050.26	0.7896
2059.28	0.787
2068.31	0.7835
2077.34	0.7813
2086.36	0.7798
2095.39	0.7778
2104.42	0.7757
2113.44	0.7735
2122.47	0.7713
2131.5	0.7691
2140.52	0.7673
2149.55	0.7659
2158.58	0.7632
2167.6	0.7577
2176.63	0.7533
2185.66	0.7498
2194.68	0.7473
2203.71	0.7447
2212.74	0.7421
2221.76	0.7391
2230.79	0.736
2239.82	0.7327
2248.84	0.7258
2257.87	0.7181
2266.9	0.7161
2275.92	0.713
2284.95	0.7065
2293.97	0.6986
2303	0.6898
2312.03	0.6834
2321.05	0.6811
2330.08	0.6808
2339.11	0.6817
2348.13	0.6831
2357.16	0.6852
2366.19	0.6866
2375.21	0.6869
2384.24	0.6852
2393.27	0.6821
2402.29	0.6781
2411.32	0.6742
2420.35	0.6714
2429.37	0.6689
2438.4	0.6665
2447.43	0.6636
2456.45	0.6609
2465.48	0.6591
2474.51	0.6575
2483.53	0.6573
2492.56	0.657
2501.59	0.6562
2510.61	0.6554
2519.64	0.6524
2528.67	0.6466
2537.69	0.64
2546.72	0.6322
2555.75	0.6274
2564.77	0.6226
2573.8	0.6165
2582.83	0.6104
2591.85	0.6032
2600.88	0.598
2609.91	0.5936
2618.93	0.5893
2627.96	0.588
2636.99	0.5862
2646.01	0.5837
2655.04	0.579
2664.07	0.5736
2673.09	0.5675
2682.12	0.5611
2691.15	0.559
2700.17	0.5562
2709.2	0.5523
2718.23	0.5493
2727.25	0.5476
2736.28	0.5417
2745.31	0.5354
2754.33	0.5325
2763.36	0.5227
2772.38	0.5084
2781.41	0.494
2790.44	0.4797
2799.46	0.4647
2808.49	0.4527
2817.52	0.4406
2826.54	0.4357
2835.57	0.4332
2844.6	0.4318
2853.62	0.4299
2862.65	0.4243
2871.68	0.4147
2880.7	0.404
2889.73	0.3929
2898.76	0.3829
2907.78	0.3778
2916.81	0.3777
2925.84	0.3776
2934.86	0.3772
2943.89	0.3759
2952.92	0.3725
2961.94	0.3675
2970.97	0.3621
2980	0.3615
2989.02	0.3628
2998.05	0.3621
3007.08	0.3591
3016.1	0.3537
3025.13	0.3492
3034.16	0.3464
3043.18	0.3455
3052.21	0.3445
3061.24	0.3422
3070.26	0.3384
3079.29	0.3337
3088.32	0.3285
3097.34	0.323
3106.37	0.3179
3115.4	0.3131
3124.42	0.3088
3133.45	0.3017
3142.48	0.2858
3151.5	0.2689
3160.53	0.2632
3169.56	0.2639
3178.58	0.2851
3187.61	0.3075
3196.64	0.324
3205.66	0.3357
3214.69	0.3439
3223.72	0.3516
3232.74	0.3591
3241.77	0.3684
3250.79	0.3778
3259.82	0.3815
3268.85	0.384
3277.87	0.386
3286.9	0.3884
3295.93	0.3907
3304.95	0.393
3313.98	0.3947
3323.01	0.3956
3332.03	0.3956
3341.06	0.3957
3350.09	0.3957
3359.11	0.3928
3368.14	0.3834
3377.17	0.3712
3386.19	0.3577
3395.22	0.3456
3404.25	0.3352
3413.27	0.3321
3422.3	0.3496
3431.33	0.4011
3440.35	0.4223
3449.38	0.432
3458.41	0.44
3467.43	0.4467
3476.46	0.4518
3485.49	0.4562
3494.51	0.4605
3503.54	0.4651
3512.57	0.4742
3521.59	0.4845
3530.62	0.4948
3539.65	0.505
3548.67	0.5139
3557.7	0.5232
3566.73	0.5348
3575.75	0.5454
3584.78	0.5533
3593.81	0.5609
3602.83	0.5681
3611.86	0.5758
3620.89	0.5837
3629.91	0.5912
3638.94	0.5977
3647.97	0.601
3656.99	0.6009
3666.02	0.6008
3675.05	0.6004
3684.07	0.5999
3693.1	0.5991
3702.13	0.5984
3711.15	0.5976
3720.18	0.5966
3729.2	0.5957
3738.23	0.5947
3747.26	0.5943
3756.28	0.5944
3765.31	0.5945
3774.34	0.5947
3783.36	0.5949
3792.39	0.5951
3801.42	0.5952
3810.44	0.5949
3819.47	0.5944
3828.5	0.5906
3837.52	0.5867
3846.55	0.5842
3855.58	0.5824
3864.6	0.5831
3873.63	0.5841
3882.66	0.5848
3891.68	0.5848
3900.71	0.5849
3909.74	0.585
3918.76	0.5851
3927.79	0.5852
3936.82	0.5839
3945.84	0.581
3954.87	0.5781
3963.9	0.5753
3972.92	0.5737
3981.95	0.5732
3990.98	0.5719
