Infrared Spectrum: 2-Amino-5-nitropyrimidine
Formula: C 4 H 4 N 4 O 2
CAS: 3073-77-6
State: gas
Instrument: HP-GC/MS/IRD
Origin: NIST Mass Spectrometry Data Center
1/CM	ABSORBANCE
550	0.0005177
562	0.0006851
574	0.0009238
586	0.0010788
598	0.0011811
610	0.0012958
622	0.0020429
634	0.0037231
646	0.0027435
658	0.0010664
670	0.0011377
682	0.0009331
694	0.0006386
706	0.0006417
718	0.0008897
730	0.0009362
742	0.0010974
754	0.0019964
766	0.002666
778	0.0018445
790	0.0013268
802	0.0012493
814	0.0020212
826	0.0039959
838	0.0039525
850	0.0027156
862	0.0026815
874	0.001705
886	0.000744
898	0.000682
910	0.0004898
922	0.0004712
934	0.0004619
946	0.0006138
958	0.0005022
970	0.00031
982	0.0002232
994	0.0002914
1006	0.0004557
1018	0.0004681
1030	0.0003875
1042	0.0004061
1054	0.0003627
1066	0.0002232
1078	0.0001147
1090	0.0001178
1102	0.0006293
1114	0.0032054
1126	0.0033759
1138	0.0007564
1150	0.0003596
1162	0.0001922
1174	1.55e-05
1186	5.27e-05
1198	8.06e-05
1210	0.0001333
1222	0.0003379
1234	0.0003379
1246	0.0002666
1258	0.0005549
1270	0.0022289
1282	0.0034565
1294	0.003162
1306	0.004154
1318	0.0038843
1330	0.0062
1342	0.0224595
1354	0.0286285
1366	0.0081902
1378	0.0031527
1390	0.0018724
1402	0.0038843
1414	0.0056575
1426	0.0023281
1438	0.0008184
1450	0.0009455
1462	0.002325
1474	0.0058063
1486	0.008122
1498	0.0047151
1510	0.0044082
1522	0.0087358
1534	0.0096813
1546	0.0059427
1558	0.0031837
1570	0.0051429
1582	0.0116963
1594	0.015469
1606	0.0247535
1618	0.0295306
1630	0.0115723
1642	0.0035247
1654	0.0013702
1666	0.0008308
1678	0.0008246
1690	0.0006355
1702	0.0004123
1714	0.0003658
1726	0.0002914
1738	0.0002015
1750	0.0001395
1762	0.0001302
1774	0.0001643
1786	0.0001953
1798	0.0002077
1810	0.000155
1822	0.0001178
1834	8.68e-05
1846	7.44e-05
1858	9.92e-05
1870	0.0001612
1882	0.0001984
1894	0.0002356
1906	0.0002015
1918	0.0001922
1930	0.0002449
1942	0.0002077
1954	0.0001736
1966	0.0001426
1978	0.0001705
1990	0.0001519
2002	0.0001333
2014	0.0001085
2026	0.000124
2038	0.0001147
2050	0.0001302
2062	9.92e-05
2074	0.0001271
2086	0.0001612
2098	0.0001612
2110	0.0001581
2122	0.0001767
2134	0.0001581
2146	0.0001674
2158	0.0001581
2170	0.000124
2182	0.0001395
2194	0.0001147
2206	0.0001333
2218	0.0001643
2230	0.0001674
2242	0.0001829
2254	0.0001891
2266	0.0002046
2278	0.0001798
2290	0.0002108
2302	0.0002108
2314	0.0002356
2326	0.0002294
2338	0.0002542
2350	0.0002356
2362	0.0001829
2374	0.0001643
2386	0.0001891
2398	0.0001736
2410	0.0001643
2422	0.0001953
2434	0.0002325
2446	0.0002542
2458	0.000279
2470	0.0003162
2482	0.0003007
2494	0.0003007
2506	0.0002325
2518	0.0001829
2530	0.0001798
2542	0.000217
2554	0.0002511
2566	0.0002325
2578	0.0002294
2590	0.000217
2602	0.0001984
2614	0.0001953
2626	0.0002325
2638	0.0002759
2650	0.0002263
2662	0.0002263
2674	0.0002015
2686	0.000186
2698	0.000186
2710	0.0001023
2722	0.000124
2734	0.0001426
2746	0.0001302
2758	0.0001178
2770	0.0001705
2782	0.0001302
2794	0.000124
2806	0.0001271
2818	0.000155
2830	0.0001798
2842	0.0002015
2854	0.0002666
2866	0.0003503
2878	0.00031
2890	0.000217
2902	0.0002108
2914	0.0002604
2926	0.0002821
2938	0.0002883
2950	0.0002542
2962	0.0001953
2974	0.0002263
2986	0.000186
2998	0.0001271
3010	0.0001364
3022	0.0001798
3034	0.000248
3046	0.0003503
3058	0.0004216
3070	0.0005332
3082	0.0004557
3094	0.0004402
3106	0.0002914
3118	0.0001984
3130	0.0001302
3142	0.0001519
3154	0.0001798
3166	0.0001953
3178	0.0002883
3190	0.0003844
3202	0.0002573
3214	0.000217
3226	0.0001519
3238	0.0001674
3250	0.0001333
3262	0.0001643
3274	0.0001271
3286	0.0001519
3298	0.000124
3310	0.0001178
3322	0.0001674
3334	0.0001736
3346	0.0001612
3358	0.0001612
3370	0.0001519
3382	0.0003193
3394	0.0005673
3406	0.001395
3418	0.0029016
3430	0.0028582
3442	0.0032829
3454	0.0032271
3466	0.0009269
3478	0.0004123
3490	0.0004774
3502	0.0007378
3514	0.0010757
3526	0.0012028
3538	0.0010385
3550	0.001116
3562	0.0012896
3574	0.0010075
3586	0.0004495
3598	0.0002976
3610	0.0002418
3622	0.0002046
3634	0.0002139
3646	0.0001209
3658	0.0001705
3670	0.0001612
3682	0.000217
3694	0.0001953
3706	0.0001736
3718	0.0001612
3730	0.0001271
3742	0.0001736
3754	0.0001674
3766	0.0001457
3778	0.0001457
3790	0.0001705
3802	0.0002139
3814	0.0001798
3826	0.0001674
3838	0.0001643
