Infrared Spectrum: ACETAMIDE, N,N'-PROPYLENEBIS-
Formula: C7 H14 N2 O2
CAS: 3073-56-1
State: SOLID (SPLIT MULL)
Class: COBLENTZ III
Instrument: DOW KBr FOREPRISM-GRATING
Instrument parameters: BLAZED AT 3.5, 12.0, 20.0 AND CHANGED AT 5.0, 7.5, 14.9 MICRON
Sampling: TRANSMISSION
Resolution: 2
Origin: DOW CHEMICAL COMPANY
1/CM	TRANSMITTANCE
3800	0.7776
3791	0.7793
3782	0.7808
3773	0.7821
3764	0.7835
3755	0.7848
3746	0.7861
3737	0.7878
3728	0.7898
3719	0.7915
3710	0.7931
3701	0.7945
3692	0.796
3683	0.7965
3674	0.7971
3665	0.7972
3656	0.7971
3647	0.7965
3638	0.7953
3629	0.7934
3620	0.7905
3611	0.7856
3602	0.78
3593	0.7788
3584	0.7782
3575	0.7565
3566	0.7655
3557	0.7699
3548	0.7657
3539	0.7612
3530	0.7568
3521	0.7525
3512	0.7497
3503	0.7468
3494	0.7444
3485	0.7419
3476	0.7396
3467	0.7374
3458	0.7353
3449	0.7331
3440	0.7311
3431	0.7289
3422	0.7265
3413	0.7193
3404	0.7068
3395	0.6884
3386	0.668
3377	0.6444
3368	0.6031
3359	0.5759
3350	0.5286
3341	0.4055
3332	0.3474
3323	0.2896
3314	0.232
3305	0.1743
3296	0.1196
3287	0.1163
3278	0.1529
3269	0.2152
3260	0.2611
3251	0.3019
3242	0.3343
3233	0.3632
3224	0.39
3215	0.398
3206	0.4071
3197	0.4257
3188	0.4552
3179	0.4892
3170	0.5104
3161	0.5267
3152	0.5416
3143	0.5562
3134	0.5677
3125	0.5727
3116	0.562
3107	0.5249
3098	0.4755
3089	0.4456
3080	0.4478
3071	0.4941
3062	0.5283
3053	0.5548
3044	0.5851
3035	0.6016
3026	0.6156
3017	0.6228
3008	0.6244
2999	0.6002
2990	0.5092
2981	0.5148
2972	0.4802
2963	0.5323
2954	0.573
2945	0.5741
2936	0.5341
2927	0.5254
2918	0.5216
2909	0.5678
2900	0.6015
2891	0.6167
2882	0.619
2873	0.615
2864	0.6096
2855	0.6172
2846	0.6247
2837	0.6337
2828	0.6434
2819	0.6561
2810	0.6675
2801	0.67
2792	0.6832
2783	0.6971
2774	0.7085
2765	0.718
2756	0.7265
2747	0.7335
2738	0.7361
2729	0.7397
2720	0.7425
2711	0.7447
2702	0.7468
2693	0.7494
2684	0.7524
2675	0.7554
2666	0.7584
2657	0.7612
2648	0.764
2639	0.7665
2630	0.7693
2621	0.7719
2612	0.7747
2603	0.7774
2594	0.7793
2585	0.7811
2576	0.783
2567	0.7854
2558	0.7878
2549	0.7901
2540	0.7922
2531	0.7942
2522	0.7958
2513	0.7975
2504	0.7983
2495	0.7991
2486	0.7999
2477	0.8007
2468	0.8001
2459	0.7996
2450	0.8017
2441	0.8033
2432	0.8039
2423	0.8042
2414	0.8036
2405	0.803
2396	0.8024
2387	0.8022
2378	0.8041
2369	0.8058
2360	0.8067
2351	0.8089
2342	0.8124
2333	0.8107
2324	0.8087
2315	0.8082
2306	0.8089
2297	0.8101
2288	0.8115
2279	0.8139
2270	0.8169
2261	0.8202
2252	0.8241
2243	0.8292
2234	0.8349
2225	0.8398
2216	0.8408
2207	0.8433
2198	0.8467
2189	0.8501
2180	0.8534
2171	0.8554
2162	0.8575
2153	0.861
2144	0.8654
2135	0.8664
2126	0.8699
2117	0.8756
2108	0.8774
2099	0.8759
2090	0.8784
2081	0.8832
2072	0.8836
2063	0.8873
2054	0.8912
2045	0.8938
2036	0.8953
2027	0.898
2018	0.9015
2009	0.904
2000	0.8959
1991	0.8773
1982	0.8782
1973	0.8773
1964	0.8775
1955	0.8755
1946	0.8764
1937	0.8803
1928	0.8808
1919	0.8805
1910	0.8795
1901	0.8786
1892	0.8789
1883	0.8788
1874	0.8793
1865	0.8796
1856	0.8798
1847	0.8799
1838	0.8803
1829	0.8812
1820	0.8801
1811	0.8755
1802	0.8718
1793	0.8713
1784	0.8642
1775	0.858
1766	0.8504
1757	0.8365
1748	0.8215
1739	0.8038
1730	0.7818
1721	0.7506
1712	0.7019
1703	0.6555
1694	0.5917
1685	0.5156
1676	0.4144
1667	0.263
1658	0.1283
1649	0.0939
1640	0.0932
1631	0.1695
1622	0.2447
1613	0.3434
1604	0.4084
1595	0.4555
1586	0.4485
1577	0.3568
1568	0.1725
1559	0.1201
1550	0.1182
1541	0.1807
1532	0.2384
1523	0.2978
1514	0.3503
1505	0.3829
1496	0.404
1487	0.4196
1478	0.4286
1469	0.4282
1460	0.3671
1451	0.359
1442	0.3255
1433	0.3253
1424	0.363
1415	0.409
1406	0.4436
1397	0.4695
1388	0.472
1379	0.3204
1370	0.2314
1361	0.3882
1352	0.4542
1343	0.4057
1334	0.4495
1325	0.4608
1316	0.2716
1307	0.5216
1298	0.5923
1289	0.4748
1280	0.3328
1271	0.614
1262	0.6641
1253	0.6788
1244	0.5754
1235	0.7231
1226	0.7796
1217	0.7924
1208	0.7988
1199	0.8118
1190	0.8241
1181	0.8168
1172	0.8139
1163	0.7984
1154	0.6511
1145	0.4021
1136	0.6838
1127	0.7658
1118	0.7375
1109	0.7401
1100	0.7451
1091	0.8128
1082	0.8255
1073	0.8253
1064	0.8335
1055	0.8252
1046	0.7897
1037	0.7731
1028	0.8133
1019	0.8275
1010	0.8246
1001	0.7242
992	0.7589
983	0.6353
974	0.6821
965	0.7886
956	0.8051
947	0.8333
938	0.8468
929	0.8491
920	0.8341
911	0.8198
902	0.8587
893	0.8594
884	0.8563
875	0.8489
866	0.8587
857	0.8568
848	0.8398
839	0.8455
830	0.8516
821	0.8489
812	0.8443
803	0.8378
794	0.8287
785	0.8147
776	0.7889
767	0.7376
758	0.671
749	0.5855
740	0.5459
731	0.5692
722	0.5933
713	0.7035
704	0.7525
695	0.786
686	0.8065
677	0.8228
668	0.8392
659	0.8498
650	0.8475
641	0.832
632	0.6961
623	0.7998
614	0.575
605	0.6227
596	0.7875
587	0.8333
578	0.8451
569	0.849
560	0.8484
551	0.8457
542	0.844
533	0.8418
524	0.8323
515	0.8359
506	0.8364
497	0.8348
488	0.8302
479	0.8221
470	0.8072
461	0.7736
