Infrared Spectrum: N,N'-Hexamethylenebis(acetamide)
Formula: C 10 H 20 N 2 O 2
CAS: 3073-59-4
State: gas
Origin: EPA-IR VAPOR PHASE LIBRARY
1/CM	ABSORBANCE
549.9	0.002683
559.547	0.002263
569.193	0.002023
578.84	0.0018576
588.486	0.0017503
598.133	0.001923
607.779	0.002253
617.426	0.002563
627.072	0.002433
636.719	0.002193
646.365	0.0017886
656.012	0.0015331
665.658	0.0014211
675.305	0.0012778
684.951	0.0011759
694.598	0.0012119
704.245	0.0013159
713.891	0.0014823
723.538	0.0016275
733.184	0.0016285
742.831	0.0015352
752.477	0.0014977
762.124	0.0015838
771.77	0.0016562
781.417	0.0018598
791.063	0.002173
800.71	0.002473
810.356	0.002773
820.003	0.002843
829.649	0.002783
839.296	0.002673
848.943	0.002533
858.589	0.002423
868.236	0.002143
877.882	0.001973
887.529	0.0018282
897.175	0.0017713
906.822	0.001767
916.468	0.001774
926.115	0.0018628
935.761	0.001973
945.408	0.002183
955.054	0.002493
964.701	0.002883
974.347	0.002833
983.994	0.002573
993.64	0.002303
1003.29	0.002173
1012.93	0.002273
1022.58	0.002483
1032.23	0.002753
1041.87	0.002763
1051.52	0.002783
1061.17	0.002783
1070.81	0.002873
1080.46	0.003353
1090.11	0.004293
1099.75	0.004213
1109.4	0.003573
1119.05	0.003063
1128.69	0.002693
1138.34	0.002123
1147.99	0.001903
1157.63	0.0017819
1167.28	0.0018275
1176.92	0.002053
1186.57	0.002363
1196.22	0.003113
1205.86	0.004803
1215.51	0.008173
1225.16	0.012693
1234.8	0.019403
1244.45	0.026803
1254.1	0.023413
1263.74	0.017083
1273.39	0.011773
1283.04	0.008463
1292.68	0.007293
1302.33	0.006773
1311.98	0.006503
1321.62	0.005693
1331.27	0.004743
1340.92	0.005223
1350.56	0.007193
1360.21	0.012583
1369.86	0.013883
1379.5	0.010023
1389.15	0.007463
1398.79	0.006343
1408.44	0.005843
1418.09	0.006943
1427.73	0.008443
1437.38	0.012663
1447.03	0.015423
1456.67	0.017653
1466.32	0.020013
1475.97	0.025913
1485.61	0.035383
1495.26	0.043123
1504.91	0.039073
1514.55	0.027663
1524.2	0.017443
1533.85	0.011093
1543.49	0.007533
1553.14	0.005293
1562.79	0.003933
1572.43	0.003163
1582.08	0.002773
1591.73	0.002513
1601.37	0.002383
1611.02	0.002293
1620.67	0.002353
1630.31	0.002573
1639.96	0.003093
1649.6	0.003913
1659.25	0.005273
1668.9	0.007323
1678.54	0.010923
1688.19	0.019383
1697.84	0.036703
1707.48	0.057653
1717.13	0.062263
1726.78	0.036943
1736.42	0.018813
1746.07	0.010123
1755.72	0.006003
1765.36	0.003803
1775.01	0.002623
1784.66	0.002173
1794.3	0.0016304
1803.95	0.0014586
1813.6	0.0012082
1823.24	0.0011596
1832.89	0.001092
1842.54	0.0011256
1852.18	0.0008922
1861.83	0.00096612
1871.47	0.00093256
1881.12	0.0008629
1890.77	0.0008886
1900.41	0.0008203
1910.06	0.0008246
1919.71	0.0008509
1929.35	0.000766
1939	0.000774
1948.65	0.000769
1958.29	0.000776
1967.94	0.0008512
1977.59	0.0008128
1987.23	0.0008551
1996.88	0.0008231
2006.53	0.0008071
2016.17	0.0008323
2025.82	0.000782
2035.47	0.000786
2045.11	0.000792
2054.76	0.000787
2064.41	0.000795
2074.05	0.000768
2083.7	0.000739
2093.35	0.000722
2102.99	0.000725
2112.64	0.000758
2122.28	0.000752
2131.93	0.000738
2141.58	0.000732
2151.22	0.000748
2160.87	0.000769
2170.52	0.00076
2180.16	0.000738
2189.81	0.000719
2199.46	0.000709
2209.1	0.000727
2218.75	0.000704
2228.4	0.000696
2238.04	0.000719
2247.69	0.000711
2257.34	0.000702
2266.98	0.000722
2276.63	0.000775
2286.28	0.0008039
2295.92	0.0008533
2305.57	0.00095569
2315.22	0.0010323
2324.86	0.0010603
2334.51	0.0010235
2344.16	0.00096683
2353.8	0.00099328
2363.45	0.001102
2373.09	0.0010437
2382.74	0.0008053
2392.39	0.000716
2402.03	0.000715
2411.68	0.000673
2421.33	0.000638
2430.97	0.000649
2440.62	0.000659
2450.27	0.000671
2459.91	0.000658
2469.56	0.00066
2479.21	0.000641
2488.85	0.000602
2498.5	0.000607
2508.15	0.00061
2517.79	0.000592
2527.44	0.000634
2537.09	0.000625
2546.73	0.000649
2556.38	0.000622
2566.03	0.000641
2575.67	0.000632
2585.32	0.00068
2594.96	0.000694
2604.61	0.000667
2614.26	0.00069
2623.9	0.000706
2633.55	0.00073
2643.2	0.000759
2652.84	0.000759
2662.49	0.000772
2672.14	0.0008343
2681.78	0.000909631
2691.43	0.00098022
2701.08	0.0010091
2710.72	0.0010668
2720.37	0.0010686
2730.02	0.0010269
2739.66	0.0010131
2749.31	0.00098914
2758.96	0.00098258
2768.6	0.00095042
2778.25	0.00097009
2787.9	0.001068
2797.54	0.001177
2807.19	0.0013382
2816.84	0.0015946
2826.48	0.001953
2836.13	0.002583
2845.77	0.004053
2855.42	0.007423
2865.07	0.010533
2874.71	0.009663
2884.36	0.008113
2894.01	0.008143
2903.65	0.010063
2913.3	0.014463
2922.95	0.020683
2932.59	0.027393
2942.24	0.026183
2951.89	0.018203
2961.53	0.011783
2971.18	0.008003
2980.83	0.005433
2990.47	0.003783
3000.12	0.002873
3009.77	0.002413
3019.41	0.002183
3029.06	0.002003
3038.71	0.0018594
3048.35	0.0016651
3058	0.001504
3067.64	0.001333
3077.29	0.0011018
3086.94	0.0009729
3096.58	0.0008041
3106.23	0.000664
3115.88	0.000528
3125.52	0.000438
3135.17	0.000317
3144.82	0.00033
3154.46	0.000287
3164.11	0.000213
3173.76	0.000162
3183.4	0.000149
3193.05	0.000171
3202.7	0.000125
3212.34	0.000194
3221.99	0.000227
3231.64	0.000198
3241.28	0.000205
3250.93	0.000154
3260.58	0.00013
3270.22	0.000109
3279.87	0.00017
3289.52	0.000175
3299.16	0.00023
3308.81	0.000159
3318.45	0.000125
3328.1	0.000344
3337.75	0.000346
3347.39	0.000337
3357.04	0.000361
3366.69	0.000482
3376.33	0.000694
3385.98	0.00098287
3395.63	0.001334
3405.27	0.0018169
3414.92	0.002503
3424.57	0.002443
3434.21	0.002163
3443.86	0.002213
3453.51	0.002443
3463.15	0.003223
3472.8	0.003453
3482.45	0.003003
3492.09	0.0017955
3501.74	0.0010945
3511.39	0.00064
3521.03	0.000445
3530.68	0.000273
3540.33	0.000251
3549.97	0.000311
3559.62	0.000227
3569.26	0.000476
3578.91	0.000175
3588.56	0.000553
3598.2	0.000207
3607.85	0.000356
3617.5	0.000302
3627.14	0.000379
3636.79	0.000121
3646.44	0.000291
3656.08	0.000212
3665.73	0.000139
3675.38	0.000132
3685.02	6.2e-05
3694.67	0.000138
3704.32	0.000124
3713.96	0.000373
3723.61	0.000349
3733.26	0.0004
3742.9	0.000335
3752.55	0.000107
3762.2	0.000145
3771.84	0.000105
3781.49	0.000101
3791.13	8.2e-05
3800.78	0
3810.43	5.7e-05
3820.07	0.000124
3829.72	0.000128
3839.37	0.000146
3849.01	0.000183
3858.66	0.000174
3868.31	0.000289
3877.95	0.000168
3887.6	0.000302
3897.25	0.000397
3906.89	0.000312
3916.54	0.000369
3926.19	0.000228
3935.83	0.00023
3945.48	0.000333
3955.13	0.000213
3964.77	0.000276
3974.42	0.00033
3984.07	0.000188
3993.71	0.000223
