Infrared Spectrum: 1,1,3-Trimethylcyclohexane
Formula: C 9 H 18
CAS: 3073-66-3
State: gas
Instrument: HP-GC/MS/IRD
Origin: NIST Mass Spectrometry Data Center
1/CM	ABSORBANCE
550	7.47e-05
562	0.0001458
574	0.000198
586	9.54e-05
598	6.48e-05
610	4.77e-05
622	9.18e-05
634	5.85e-05
646	0.0001575
658	9.45e-05
670	7.65e-05
682	0.0001017
694	0.0001899
706	7.29e-05
718	0.0001242
730	9.09e-05
742	5.4e-05
754	9.36e-05
766	7.38e-05
778	7.11e-05
790	0.000108
802	0.0001323
814	0.0001197
826	0.0001575
838	0.0002061
850	0.0001782
862	0.000189
874	0.0001017
886	0.0001368
898	0.0001107
910	0.0001134
922	0.0001224
934	0.000144
946	0.0001908
958	0.0002457
970	0.0002169
982	0.00018
994	0.0001863
1006	0.0001224
1018	0.0001215
1030	0.0001719
1042	0.000135
1054	0.0001521
1066	0.000126
1078	0.0001494
1090	0.0001467
1102	0.0001125
1114	0.0001701
1126	0.0001179
1138	0.0001656
1150	9.36e-05
1162	0.0001467
1174	0.0002088
1186	0.0001566
1198	0.0001215
1210	0.0001449
1222	0.0001791
1234	0.0001719
1246	0.0001935
1258	0.0001683
1270	0.0001719
1282	0.0001845
1294	0.0002394
1306	0.0002007
1318	0.0001359
1330	0.0001782
1342	0.0002772
1354	0.0005427
1366	0.0007326
1378	0.0007623
1390	0.0006264
1402	0.0002997
1414	0.0001836
1426	0.0002817
1438	0.0005517
1450	0.0010692
1462	0.0013563
1474	0.0009297
1486	0.0004329
1498	0.0002007
1510	0.0001341
1522	0.0001125
1534	0.0001026
1546	7.38e-05
1558	0.0001323
1570	0.0001017
1582	8.1e-05
1594	8.64e-05
1606	8.37e-05
1618	0.0001125
1630	0.0001143
1642	0.0001035
1654	9.99e-05
1666	8.19e-05
1678	8.46e-05
1690	9.99e-05
1702	6.66e-05
1714	8.01e-05
1726	8.73e-05
1738	7.47e-05
1750	7.29e-05
1762	5.58e-05
1774	7.56e-05
1786	8.37e-05
1798	9.45e-05
1810	6.66e-05
1822	7.47e-05
1834	6.12e-05
1846	5.13e-05
1858	7.2e-05
1870	7.02e-05
1882	5.76e-05
1894	6.21e-05
1906	3.33e-05
1918	6.21e-05
1930	3.06e-05
1942	5.67e-05
1954	6.48e-05
1966	6.57e-05
1978	5.31e-05
1990	3.24e-05
2002	4.77e-05
2014	7.74e-05
2026	4.77e-05
2038	4.05e-05
2050	4.23e-05
2062	3.6e-05
2074	5.22e-05
2086	5.49e-05
2098	4.41e-05
2110	2.25e-05
2122	4.5e-05
2134	4.59e-05
2146	3.6e-05
2158	5.22e-05
2170	4.77e-05
2182	6.84e-05
2194	6.3e-05
2206	4.95e-05
2218	5.4e-05
2230	4.77e-05
2242	4.23e-05
2254	4.5e-06
2266	2.34e-05
2278	2.61e-05
2290	4.23e-05
2302	3.6e-05
2314	4.5e-05
2326	4.95e-05
2338	5.67e-05
2350	2.79e-05
2362	1.62e-05
2374	1.71e-05
2386	3.15e-05
2398	5.49e-05
2410	4.05e-05
2422	4.32e-05
2434	5.49e-05
2446	4.77e-05
2458	3.6e-05
2470	3.33e-05
2482	3.6e-05
2494	3.06e-05
2506	5.67e-05
2518	2.79e-05
2530	3.15e-05
2542	1.89e-05
2554	4.59e-05
2566	2.61e-05
2578	3.78e-05
2590	3.6e-05
2602	6.93e-05
2614	9.54e-05
2626	0.0001125
2638	9.18e-05
2650	0.0001323
2662	0.000126
2674	8.91e-05
2686	0.000108
2698	9.09e-05
2710	9.9e-05
2722	0.0001386
2734	0.0001728
2746	0.000171
2758	0.0001557
2770	0.0001449
2782	0.0001665
2794	0.0002637
2806	0.0003375
2818	0.0004896
2830	0.0009828
2842	0.0019962
2854	0.0027423
2866	0.0030789
2878	0.0036549
2890	0.0043011
2902	0.0058941
2914	0.0075699
2926	0.008694
2938	0.0077913
2950	0.0075555
2962	0.0069228
2974	0.0034839
2986	0.00135
2998	0.0004662
3010	0.0002493
3022	0.0001602
3034	0.0001431
3046	0.0001071
3058	0.000126
3070	0.0001908
3082	0.0002007
3094	0.0001341
3106	0.0001134
3118	0.0001143
3130	0.0001062
3142	0.0001044
3154	0.0001233
3166	0.0001161
3178	0.0001206
3190	0.0001161
3202	8.73e-05
3214	3.6e-05
3226	5.13e-05
3238	6.57e-05
3250	9.99e-05
3262	2.97e-05
3274	2.79e-05
3286	6.03e-05
3298	6.21e-05
3310	6.03e-05
3322	8.82e-05
3334	1.62e-05
3346	4.41e-05
3358	4.86e-05
3370	7.29e-05
3382	3.33e-05
3394	4.41e-05
3406	2.97e-05
3418	0
3430	6.57e-05
3442	5.67e-05
3454	5.13e-05
3466	2.79e-05
3478	6.48e-05
3490	0.0001008
3502	3.33e-05
3514	7.02e-05
3526	4.95e-05
3538	5.49e-05
3550	5.85e-05
3562	8.46e-05
3574	1.8e-06
3586	3.78e-05
3598	7.47e-05
3610	4.95e-05
3622	6.39e-05
3634	2.88e-05
3646	9.18e-05
3658	0.0001359
3670	9.36e-05
3682	7.29e-05
3694	9.36e-05
3706	8.55e-05
3718	5.67e-05
3730	4.95e-05
3742	8.82e-05
3754	9e-05
3766	7.38e-05
3778	5.13e-05
3790	6.48e-05
3802	4.14e-05
3814	0.0001197
3826	6.57e-05
3838	0.0001071
