Infrared Spectrum: 2,3-Dimethyl-2-heptene
Formula: C 9 H 18
CAS: 3074-64-4
State: gas
Instrument: HP-GC/MS/IRD
Origin: NIST Mass Spectrometry Data Center
1/CM	ABSORBANCE
550	0.0002728
562	0.0001054
574	0.0001798
586	0.0001426
598	0
610	9.92e-05
622	0.0001116
634	6.2e-05
646	8.99e-05
658	0.0001364
670	0.0001767
682	0.0002077
694	0.0001705
706	0.0001891
718	0.0002635
730	0.0003007
742	0.0004061
754	0.0004309
766	0.0003844
778	0.0002945
790	0.0002945
802	0.0001798
814	0.0001178
826	0.0001178
838	0.0001612
850	0.0001798
862	0.0001953
874	0.0002852
886	0.0003224
898	0.0003813
910	0.0003317
922	0.0003968
934	0.0003937
946	0.0003596
958	0.000434
970	0.0003999
982	0.0004371
994	0.000403
1006	0.0003596
1018	0.0003286
1030	0.0003472
1042	0.0004247
1054	0.0005518
1066	0.0006014
1078	0.0005735
1090	0.0006045
1102	0.0007285
1114	0.0006572
1126	0.0007006
1138	0.0013671
1150	0.0025854
1162	0.0023157
1174	0.0010168
1186	0.0005642
1198	0.0006758
1210	0.0008742
1222	0.0007099
1234	0.0004991
1246	0.0004805
1258	0.0004774
1270	0.0004991
1282	0.0006014
1294	0.000651
1306	0.000682
1318	0.0007316
1330	0.0009889
1342	0.0012338
1354	0.0013733
1366	0.0021018
1378	0.0032457
1390	0.0029636
1402	0.0019034
1414	0.0015841
1426	0.0017484
1438	0.0023033
1450	0.0032643
1462	0.0038285
1474	0.0031403
1486	0.0019499
1498	0.0013702
1510	0.0011656
1522	0.0010509
1534	0.0009579
1546	0.0008804
1558	0.0007998
1570	0.0006696
1582	0.0005456
1594	0.000465
1606	0.0003689
1618	0.0003255
1630	0.0002604
1642	0.0002201
1654	0.0002015
1666	0.0001767
1678	0.0001643
1690	0.0001085
1702	0.0001023
1714	8.68e-05
1726	8.06e-05
1738	5.89e-05
1750	5.58e-05
1762	5.27e-05
1774	4.03e-05
1786	5.27e-05
1798	2.48e-05
1810	4.34e-05
1822	4.34e-05
1834	4.96e-05
1846	3.1e-05
1858	4.34e-05
1870	4.65e-05
1882	6.51e-05
1894	6.51e-05
1906	5.27e-05
1918	5.89e-05
1930	3.72e-05
1942	4.03e-05
1954	3.72e-05
1966	2.79e-05
1978	3.41e-05
1990	2.17e-05
2002	9.3e-06
2014	2.79e-05
2026	4.34e-05
2038	5.58e-05
2050	5.27e-05
2062	4.34e-05
2074	4.34e-05
2086	1.86e-05
2098	4.34e-05
2110	4.34e-05
2122	1.55e-05
2134	9.3e-06
2146	1.24e-05
2158	2.48e-05
2170	1.24e-05
2182	1.55e-05
2194	1.86e-05
2206	2.48e-05
2218	2.17e-05
2230	1.24e-05
2242	1.55e-05
2254	1.55e-05
2266	2.48e-05
2278	2.48e-05
2290	3.1e-05
2302	1.24e-05
2314	3.1e-05
2326	3.72e-05
2338	4.65e-05
2350	6.2e-05
2362	6.82e-05
2374	4.65e-05
2386	5.27e-05
2398	4.34e-05
2410	7.13e-05
2422	8.06e-05
2434	8.68e-05
2446	5.89e-05
2458	4.65e-05
2470	8.06e-05
2482	4.96e-05
2494	5.58e-05
2506	9.61e-05
2518	9.61e-05
2530	0.0001147
2542	0.0001116
2554	9.92e-05
2566	0.0001333
2578	0.0001426
2590	0.0001519
2602	0.0001643
2614	0.0001674
2626	0.0001643
2638	0.0002046
2650	0.0002604
2662	0.0002728
2674	0.0003224
2686	0.0003472
2698	0.0003813
2710	0.000496
2722	0.0007285
2734	0.001023
2746	0.0010199
2758	0.0008773
2770	0.0009331
2782	0.0010912
2794	0.0013795
2806	0.0017732
2818	0.0024738
2830	0.0036115
2842	0.0059613
2854	0.0112871
2866	0.0185318
2878	0.0204383
2890	0.0175522
2902	0.017236
2914	0.0228315
2926	0.0299956
2938	0.0294841
2950	0.0235197
2962	0.0229028
2974	0.0190867
2986	0.0117304
2998	0.0099696
3010	0.0087792
3022	0.0069595
3034	0.0053258
3046	0.0039649
3058	0.0028086
3070	0.0019406
3082	0.0013981
3094	0.0010819
3106	0.0008215
3118	0.0006727
3130	0.0005735
3142	0.0004774
3154	0.0004123
3166	0.0003317
3178	0.0003038
3190	0.0002418
3202	0.0002387
3214	0.000155
3226	0.0001271
3238	0.0001488
3250	0.0001116
3262	8.99e-05
3274	7.44e-05
3286	0.0001116
3298	9.3e-05
3310	8.68e-05
3322	5.89e-05
3334	4.96e-05
3346	7.13e-05
3358	9.61e-05
3370	0.0001085
3382	8.99e-05
3394	6.2e-05
3406	8.06e-05
3418	5.58e-05
3430	7.44e-05
3442	6.51e-05
3454	3.41e-05
3466	4.34e-05
3478	7.75e-05
3490	7.75e-05
3502	6.82e-05
3514	1.86e-05
3526	2.17e-05
3538	1.86e-05
3550	9.3e-06
3562	2.48e-05
3574	5.89e-05
3586	5.27e-05
3598	7.13e-05
3610	1.86e-05
3622	4.96e-05
3634	6.2e-05
3646	0.0001054
3658	0.0001085
3670	8.68e-05
3682	9.3e-05
3694	8.68e-05
3706	0.0001116
3718	0.0001147
3730	0.0001023
3742	0.0001147
3754	0.0001395
3766	0.0001116
3778	0.0001116
3790	0.0001302
3802	0.0001829
3814	0.0001364
3826	0.0001426
3838	0.0001736
