Infrared Spectrum: 2,6-Dimethyl-1-heptene
Formula: C 9 H 18
CAS: 3074-78-0
State: gas
Instrument: HP-GC/MS/IRD
Origin: NIST Mass Spectrometry Data Center
1/CM	ABSORBANCE
550	0.0007968
562	0.0005568
574	0.000464
586	0.000288
598	0.0001344
610	0.0001728
622	0.0001216
634	0.0001152
646	0.0001504
658	0.0001888
670	0.0001248
682	0.0001088
694	0.0001344
706	0.0002368
718	0.000272
730	0.0003648
742	0.0002976
754	0.0002272
766	0.0001664
778	0.0001728
790	0.0002208
802	0.0002656
814	0.0002944
826	0.0003488
838	0.0005888
850	0.000768
862	0.0014112
874	0.0032512
886	0.0071616
898	0.0059552
910	0.0022272
922	0.0011168
934	0.0007488
946	0.000608
958	0.0004832
970	0.0004704
982	0.0004672
994	0.0004064
1006	0.000384
1018	0.0003584
1030	0.0003552
1042	0.0003008
1054	0.0002528
1066	0.0002688
1078	0.0002208
1090	0.0002496
1102	0.0003392
1114	0.0004192
1126	0.0003744
1138	0.0003168
1150	0.0004608
1162	0.0009056
1174	0.0009312
1186	0.0005824
1198	0.0005408
1210	0.0005664
1222	0.0006848
1234	0.0006752
1246	0.000672
1258	0.0008224
1270	0.0009376
1282	0.0008736
1294	0.0008064
1306	0.0008352
1318	0.000864
1330	0.001072
1342	0.0012832
1354	0.001776
1366	0.00312
1378	0.0043008
1390	0.0035232
1402	0.0018272
1414	0.0015104
1426	0.0019296
1438	0.0029664
1450	0.0044352
1462	0.0052224
1474	0.0040832
1486	0.0021056
1498	0.0010432
1510	0.0006208
1522	0.0004512
1534	0.0003584
1546	0.000352
1558	0.0003552
1570	0.0004032
1582	0.0004416
1594	0.0005152
1606	0.0006656
1618	0.0010016
1630	0.0017376
1642	0.002896
1654	0.0027392
1666	0.0012736
1678	0.0005408
1690	0.00032
1702	0.0002176
1714	0.0001504
1726	0.0001248
1738	0.0001152
1750	0.0001248
1762	0.0001792
1774	0.000384
1786	0.0005024
1798	0.0003616
1810	0.0001824
1822	9.6e-05
1834	7.04e-05
1846	6.4e-05
1858	4.16e-05
1870	5.44e-05
1882	4.8e-05
1894	2.56e-05
1906	3.84e-05
1918	3.2e-05
1930	3.2e-05
1942	6.4e-06
1954	9.6e-06
1966	1.92e-05
1978	1.28e-05
1990	1.92e-05
2002	2.56e-05
2014	1.92e-05
2026	2.24e-05
2038	2.56e-05
2050	4.48e-05
2062	1.28e-05
2074	2.24e-05
2086	3.52e-05
2098	3.84e-05
2110	3.2e-05
2122	2.24e-05
2134	9.6e-06
2146	1.6e-05
2158	2.56e-05
2170	2.24e-05
2182	2.88e-05
2194	2.88e-05
2206	1.92e-05
2218	1.92e-05
2230	3.84e-05
2242	2.24e-05
2254	4.8e-05
2266	3.84e-05
2278	5.12e-05
2290	4.48e-05
2302	2.88e-05
2314	3.2e-05
2326	4.8e-05
2338	5.12e-05
2350	3.52e-05
2362	3.84e-05
2374	3.52e-05
2386	5.76e-05
2398	5.44e-05
2410	4.16e-05
2422	4.16e-05
2434	6.08e-05
2446	3.84e-05
2458	4.48e-05
2470	4.8e-05
2482	9.92e-05
2494	8.96e-05
2506	8.96e-05
2518	0.0001024
2530	7.36e-05
2542	7.68e-05
2554	0.0001088
2566	0.0001248
2578	0.0002016
2590	0.0002016
2602	0.0002208
2614	0.0002272
2626	0.0002624
2638	0.0002816
2650	0.0002816
2662	0.0002976
2674	0.0003232
2686	0.0003648
2698	0.0003968
2710	0.0004672
2722	0.0005824
2734	0.000704
2746	0.0006784
2758	0.000672
2770	0.0007456
2782	0.0008512
2794	0.0010752
2806	0.001392
2818	0.0019424
2830	0.0029504
2842	0.0050496
2854	0.0079296
2866	0.0106144
2878	0.0137568
2890	0.0148672
2902	0.0169472
2914	0.0199136
2926	0.0236
2938	0.0284768
2950	0.0283488
2962	0.032
2974	0.0241696
2986	0.0103552
2998	0.0051872
3010	0.003088
3022	0.0020864
3034	0.0016544
3046	0.0015808
3058	0.00208
3070	0.0036992
3082	0.0048672
3094	0.002656
3106	0.0011936
3118	0.0007968
3130	0.0006048
3142	0.0004832
3154	0.0004448
3166	0.0003968
3178	0.0004
3190	0.0003712
3202	0.0003104
3214	0.0002336
3226	0.0001696
3238	0.0001376
3250	8.32e-05
3262	9.92e-05
3274	9.28e-05
3286	6.4e-05
3298	0.0001312
3310	0.0001408
3322	0.0001856
3334	0.0001568
3346	0.0001344
3358	0.000144
3370	0.0001056
3382	0.0001184
3394	0.0001056
3406	8.96e-05
3418	8e-05
3430	9.92e-05
3442	6.4e-05
3454	5.76e-05
3466	9.92e-05
3478	0.0001152
3490	8.32e-05
3502	7.36e-05
3514	7.36e-05
3526	4.48e-05
3538	2.56e-05
3550	8.96e-05
3562	6.4e-05
3574	9.6e-05
3586	6.08e-05
3598	0.0001056
3610	0.000128
3622	0.0001024
3634	0.0001152
3646	0.0001216
3658	0.0001632
3670	0.0001504
3682	0.000128
3694	0.0001184
3706	9.28e-05
3718	0.0001312
3730	0.000144
3742	0.0001536
3754	0.0001472
3766	0.000208
3778	0.0001728
3790	0.0001696
3802	0.0001888
3814	0.000208
3826	0.0001888
3838	0.000224
