Infrared Spectrum: 3-Methyl-4-ethylhexane
Formula: C 9 H 20
CAS: 3074-77-9
State: gas
Instrument: HP-GC/MS/IRD
Origin: NIST Mass Spectrometry Data Center
1/CM	ABSORBANCE
550	0.0002409
562	0.0001241
574	0.0002117
586	0.0002336
598	0.0002701
610	0.0001898
622	0.0002117
634	0.0002409
646	0.0002628
658	0.0001898
670	0.0001825
682	0.0002117
694	0.0002336
706	0.0002847
718	0.0002774
730	0.0004015
742	0.0004599
754	0.000511
766	0.000876
778	0.0010366
790	0.0008176
802	0.0007811
814	0.0005475
826	0.0005329
838	0.0005621
850	0.000511
862	0.0004745
874	0.0004453
886	0.0005402
898	0.0009052
910	0.0014089
922	0.0012337
934	0.0008249
946	0.0006132
958	0.0008249
970	0.0011023
982	0.0009928
994	0.0008468
1006	0.0011899
1018	0.0011607
1030	0.001022
1042	0.0008541
1054	0.0007081
1066	0.0005621
1078	0.0004964
1090	0.0004088
1102	0.000511
1114	0.0009198
1126	0.0010731
1138	0.0007519
1150	0.0005913
1162	0.0005475
1174	0.0004964
1186	0.0002993
1198	0.000219
1210	0.0002263
1222	0.000292
1234	0.0004161
1246	0.0006278
1258	0.0008468
1270	0.0010147
1282	0.0011315
1294	0.001241
1306	0.001387
1318	0.0013359
1330	0.0012483
1342	0.0012702
1354	0.0016352
1366	0.0030222
1378	0.0063218
1390	0.0065335
1402	0.0028032
1414	0.0015914
1426	0.0017082
1438	0.0027156
1450	0.0057889
1462	0.0094097
1474	0.0081249
1486	0.0040588
1498	0.001898
1510	0.0012191
1522	0.0009563
1534	0.0007738
1546	0.0006862
1558	0.0006132
1570	0.0005548
1582	0.0005037
1594	0.0004964
1606	0.0004745
1618	0.000438
1630	0.0004745
1642	0.0004526
1654	0.0003723
1666	0.000365
1678	0.0003139
1690	0.0002336
1702	0.0001752
1714	0.0002044
1726	0.0001679
1738	0.0001533
1750	0.0001533
1762	0.0001606
1774	0.0001241
1786	0.0001606
1798	0.0001606
1810	0.0001168
1822	9.49e-05
1834	0.0001314
1846	7.3e-05
1858	8.03e-05
1870	0.0001168
1882	9.49e-05
1894	0.0001314
1906	8.76e-05
1918	0.0001022
1930	0.0001022
1942	8.76e-05
1954	6.57e-05
1966	8.76e-05
1978	5.84e-05
1990	5.84e-05
2002	3.65e-05
2014	4.38e-05
2026	7.3e-05
2038	0.0001022
2050	7.3e-05
2062	8.76e-05
2074	8.03e-05
2086	6.57e-05
2098	8.76e-05
2110	8.76e-05
2122	4.38e-05
2134	6.57e-05
2146	4.38e-05
2158	4.38e-05
2170	9.49e-05
2182	7.3e-05
2194	8.03e-05
2206	7.3e-05
2218	9.49e-05
2230	0.0001022
2242	0.000146
2254	0.0001095
2266	0.0001168
2278	0.0001533
2290	0.0001606
2302	0.0001971
2314	0.0001679
2326	0.0001825
2338	0.0001752
2350	0.000219
2362	0.0002263
2374	0.0002847
2386	0.0002993
2398	0.0003066
2410	0.0002774
2422	0.0002993
2434	0.0002482
2446	0.0002117
2458	0.0002044
2470	0.0002409
2482	0.0002409
2494	0.000219
2506	0.0002555
2518	0.0002701
2530	0.000292
2542	0.0003577
2554	0.0004088
2566	0.0004891
2578	0.0006059
2590	0.0007081
2602	0.0007592
2614	0.0008395
2626	0.0008103
2638	0.0007884
2650	0.0007446
2662	0.0007811
2674	0.0008906
2686	0.0009125
2698	0.0009782
2710	0.0010804
2722	0.0013213
2734	0.0015549
2746	0.0017009
2758	0.0016425
2770	0.0016717
2782	0.0018469
2794	0.0021535
2806	0.0026061
2818	0.0031171
2830	0.004088
2842	0.0058473
2854	0.010512
2866	0.0204911
2878	0.0332953
2890	0.0347188
2902	0.0270611
2914	0.0302001
2926	0.0416392
2938	0.0486764
2950	0.0485523
2962	0.066795
2974	0.0668242
2986	0.0310761
2998	0.0122932
3010	0.0068839
3022	0.0048545
3034	0.0038179
3046	0.003212
3058	0.0026645
3070	0.0023214
3082	0.0020367
3094	0.0018834
3106	0.0017155
3118	0.0015987
3130	0.0014454
3142	0.0013797
3154	0.0012848
3166	0.0011242
3178	0.0009782
3190	0.0008249
3202	0.0006789
3214	0.0006059
3226	0.0004599
3238	0.0004599
3250	0.0003577
3262	0.0003212
3274	0.0002628
3286	0.000219
3298	0.0002847
3310	0.0002774
3322	0.0002482
3334	0.0002701
3346	0.0001533
3358	0.0002263
3370	0.0001606
3382	0.0002555
3394	0.0002263
3406	0.0001533
3418	0.0001606
3430	0.0001533
3442	0.0001533
3454	0.0001095
3466	0.0001095
3478	0.0001022
3490	0.0001606
3502	0.0001679
3514	0.0001168
3526	9.49e-05
3538	8.03e-05
3550	0.0001168
3562	0.0001387
3574	8.76e-05
3586	0.0001387
3598	6.57e-05
3610	0.0001898
3622	0.0001387
3634	0.000146
3646	0.0001606
3658	8.76e-05
3670	0.000146
3682	0.0001971
3694	0.0001533
3706	0.0001679
3718	0.0002117
3730	0.0001752
3742	0.0001971
3754	0.0001095
3766	0.0001606
3778	0.0001533
3790	0.0001314
3802	0.0001533
3814	0.000146
3826	0.0001533
3838	0.0001898
