Infrared Spectrum: p-HEXYLOXYBROMOBENZENE
Formula: C12 H17 Br O
CAS: 30752-19-3
State: LIQUID
Class: COBLENTZ
Instrument: PERKIN-ELMER
Sampling: TRANSMISSION
Path length: CAPILLARY
Resolution: 4
Origin: ABBOTT LABORATORIES - WASHBURN
MICROMETERS	TRANSMITTANCE
2.036	0.864
2.07579	0.872
2.11557	0.869
2.15536	0.872
2.19514	0.8743
2.23493	0.882
2.27472	0.889
2.3145	0.887
2.35429	0.876
2.39407	0.877
2.43386	0.884
2.47365	0.8809
2.51343	0.876
2.55322	0.887
2.593	0.8891
2.63279	0.889
2.67258	0.891
2.71236	0.896
2.75215	0.884
2.79193	0.8841
2.83172	0.881
2.8715	0.874
2.91129	0.872
2.95108	0.869
2.99086	0.871
3.03065	0.871
3.07043	0.872
3.11022	0.882
3.15001	0.882
3.18979	0.8821
3.22958	0.8908
3.26936	0.8719
3.30915	0.859
3.34894	0.864
3.38872	0.767
3.42851	0.3955
3.46829	0.4056
3.50808	0.5504
3.54787	0.6732
3.58765	0.8392
3.62744	0.8791
3.66722	0.8861
3.70701	0.891
3.7468	0.897
3.78658	0.901
3.82637	0.9031
3.86615	0.9079
3.90594	0.903
3.94573	0.8892
3.98551	0.8791
4.0253	0.886
4.06508	0.879
4.10487	0.877
4.14465	0.879
4.18444	0.871
4.22423	0.8741
4.26401	0.872
4.3038	0.871
4.34358	0.8719
4.38337	0.8621
4.42316	0.854
4.46294	0.857
4.50273	0.8589
4.54251	0.856
4.5823	0.8541
4.62209	0.851
4.66187	0.847
4.70166	0.8439
4.74144	0.841
4.78123	0.8371
4.82102	0.836
4.8608	0.831
4.90059	0.8271
4.94037	0.8291
4.98016	0.834
5.01995	0.831
5.05973	0.836
5.09952	0.841
5.1393	0.837
5.17909	0.836
5.21888	0.836
5.25866	0.834
5.29845	0.826
5.33823	0.8098
5.37802	0.8169
5.4178	0.8249
5.45759	0.831
5.49738	0.834
5.53716	0.834
5.57695	0.836
5.61673	0.8346
5.65652	0.8329
5.69631	0.8208
5.73609	0.811
5.77588	0.8161
5.81566	0.817
5.85545	0.8194
5.89524	0.8197
5.93502	0.816
5.97481	0.811
6.01459	0.8056
6.05438	0.802
6.09417	0.797
6.13395	0.7892
6.17374	0.784
6.21352	0.7663
6.25331	0.6248
6.2931	0.4882
6.33288	0.5896
6.37267	0.7016
6.41245	0.7747
6.45224	0.7946
6.49203	0.801
6.53181	0.7915
6.5716	0.7718
6.61138	0.7453
6.65117	0.6951
6.69096	0.5333
6.73074	0.1993
6.77053	0.3552
6.81031	0.3548
6.8501	0.4227
6.88988	0.5418
6.92967	0.6522
6.96946	0.6945
7.00924	0.6951
7.04903	0.7403
7.08881	0.774
7.1286	0.754
7.16839	0.7149
7.20817	0.6635
7.24796	0.6736
7.28774	0.6998
7.32753	0.7667
7.36732	0.7848
7.4071	0.792
7.44689	0.789
7.48667	0.7803
7.52646	0.7693
7.56625	0.7554
7.60603	0.7343
7.64582	0.693
7.6856	0.6361
7.72539	0.5463
7.76518	0.4812
7.80496	0.3385
7.84475	0.422
7.88453	0.5538
7.92432	0.5698
7.96411	0.5405
8.00389	0.3762
8.04368	0.1741
8.08346	0.132
8.12325	0.2534
8.16303	0.3826
8.20282	0.4875
8.24261	0.595
8.28239	0.6663
8.32218	0.6991
8.36196	0.7128
8.40175	0.7428
8.44154	0.7603
8.48132	0.7649
8.52111	0.7098
8.56089	0.488
8.60068	0.4883
8.64047	0.7356
8.68025	0.7707
8.72004	0.7716
8.75982	0.774
8.79961	0.7749
8.8394	0.78
8.87918	0.7658
8.91897	0.7445
8.95875	0.7354
8.99854	0.703
9.03833	0.7141
9.07811	0.7196
9.1179	0.6694
9.15768	0.7286
9.19747	0.755
9.23726	0.7398
9.27704	0.7059
9.31683	0.6055
9.35661	0.4623
9.3964	0.5847
9.43618	0.6641
9.47597	0.6658
9.51576	0.6678
9.55554	0.6518
9.59533	0.6567
9.63511	0.665
9.6749	0.6326
9.71469	0.5556
9.75447	0.5173
9.79426	0.5243
9.83404	0.56
9.87383	0.5757
9.91362	0.6115
9.9534	0.5851
9.99319	0.4824
10.033	0.581
10.0728	0.6784
10.1125	0.7299
10.1523	0.7615
10.1921	0.7778
10.2319	0.79
10.2717	0.7978
10.3115	0.7985
10.3513	0.802
10.391	0.804
10.4308	0.806
10.4706	0.8062
10.5104	0.7997
10.5502	0.7885
10.59	0.7695
10.6298	0.744
10.6695	0.7269
10.7093	0.7267
10.7491	0.755
10.7889	0.783
10.8287	0.7954
10.8685	0.8076
10.9083	0.8212
10.9481	0.829
10.9878	0.8293
11.0276	0.8263
11.0674	0.8249
11.1072	0.817
11.147	0.821
11.1868	0.8222
11.2266	0.827
11.2663	0.8234
11.3061	0.8317
11.3459	0.836
11.3857	0.834
11.4255	0.834
11.4653	0.832
11.5051	0.8308
11.5448	0.8325
11.5846	0.831
11.6244	0.831
11.6642	0.8267
11.704	0.8168
11.7438	0.8091
11.7836	0.8093
11.8233	0.8075
11.8631	0.7978
11.9029	0.7879
11.9427	0.77
11.9825	0.736
12.0223	0.6723
12.0621	0.5736
12.1018	0.4886
12.1416	0.3663
12.1814	0.2905
12.2212	0.2883
12.261	0.3931
12.3008	0.5716
12.3406	0.6607
12.3803	0.6976
12.4201	0.703
12.4599	0.6893
12.4997	0.6674
12.5395	0.6651
12.5793	0.6974
12.6191	0.7377
12.6588	0.7732
12.6986	0.7868
12.7384	0.7943
12.7782	0.8023
12.818	0.811
12.8578	0.811
12.8976	0.817
12.9373	0.812
12.9771	0.816
13.0169	0.811
13.0567	0.8088
13.0965	0.804
13.1363	0.8062
13.1761	0.802
13.2158	0.801
13.2556	0.8016
13.2954	0.795
13.3352	0.79
13.375	0.79
13.4148	0.79
13.4546	0.7896
13.4944	0.792
13.5341	0.792
13.5739	0.787
13.6137	0.774
13.6535	0.7653
13.6933	0.7593
13.7331	0.7479
13.7729	0.7396
13.8126	0.735
13.8524	0.7491
13.8922	0.7599
13.932	0.774
13.9718	0.775
14.0116	0.777
14.0514	0.777
14.0911	0.777
14.1309	0.774
14.1707	0.779
14.2105	0.7749
14.2503	0.774
14.2901	0.7657
14.3299	0.755
14.3696	0.7433
14.4094	0.74
14.4492	0.7451
14.489	0.757
14.5288	0.7548
14.5686	0.752
14.6084	0.7496
14.6481	0.74
14.6879	0.7474
14.7277	0.745
14.7675	0.739
14.8073	0.73
14.8471	0.7309
14.8869	0.724
14.9266	0.719
14.9664	0.7091
15.0062	0.7171
15.046	0.7054
15.0858	0.6957
15.1256	0.692
15.1654	0.687
15.2051	0.6778
15.2449	0.67
15.2847	0.6621
15.3245	0.6477
15.3643	0.625
15.4041	0.6027
