Infrared Spectrum: 2,2',5,5'-Tetramethylbiphenyl
Formula: C 16 H 18
CAS: 3075-84-1
State: gas
Origin: EPA-IR VAPOR PHASE LIBRARY
1/CM	ABSORBANCE
549.8	0.000331
559.445	0.002266
569.09	0.002336
578.734	0.003246
588.379	0.003886
598.024	0.0016274
607.669	0.0016385
617.313	0.002286
626.958	0.0012146
636.603	0.002076
646.248	0.008506
655.893	0.003026
665.537	0.000371
675.182	0.002196
684.827	0.0010168
694.472	0.002006
704.116	0.002206
713.761	0.004026
723.406	0.002496
733.051	0.002456
742.695	0.002906
752.34	0.005026
761.985	0.003656
771.63	0.002696
781.275	0.004726
790.919	0.009816
800.564	0.038326
810.209	0.047546
819.854	0.016196
829.498	0.006976
839.143	0.004486
848.788	0.003276
858.433	0.002736
868.078	0.002696
877.722	0.006896
887.367	0.009716
897.012	0.004366
906.657	0.002156
916.301	0.002766
925.946	0.002336
935.591	0.0018478
945.236	0.002966
954.88	0.004076
964.525	0.005076
974.17	0.005006
983.815	0.004016
993.46	0.002776
1003.1	0.003556
1012.75	0.003346
1022.39	0.002556
1032.04	0.004976
1041.68	0.006166
1051.33	0.006916
1060.97	0.005536
1070.62	0.003696
1080.26	0.002386
1089.91	0.002356
1099.55	0.002316
1109.2	0.002246
1118.84	0.003666
1128.49	0.005296
1138.13	0.009836
1147.78	0.007956
1157.42	0.002496
1167.07	0.0012098
1176.71	0.002326
1186.36	0.0012648
1196	0.002056
1205.64	0.0009825
1215.29	0.000419
1224.93	0.0017125
1234.58	0.0018218
1244.22	0.001916
1253.87	0.001946
1263.51	0.003006
1273.16	0.005466
1282.8	0.005266
1292.45	0.003426
1302.09	0.003836
1311.74	0.003646
1321.38	0.003166
1331.03	0.003516
1340.67	0.003706
1350.32	0.004416
1359.96	0.004806
1369.61	0.005846
1379.25	0.009616
1388.9	0.010596
1398.54	0.008786
1408.18	0.009256
1417.83	0.010806
1427.47	0.011826
1437.12	0.011896
1446.76	0.012836
1456.41	0.015206
1466.05	0.019906
1475.7	0.020146
1485.34	0.029486
1494.99	0.043106
1504.63	0.025256
1514.28	0.013646
1523.92	0.009496
1533.57	0.007976
1543.21	0.007536
1552.86	0.007606
1562.5	0.007446
1572.15	0.007316
1581.79	0.006596
1591.44	0.008036
1601.08	0.013766
1610.73	0.016236
1620.37	0.008416
1630.01	0.003696
1639.66	0.002996
1649.3	0.002696
1658.95	0.002056
1668.59	0.001996
1678.24	0.002066
1687.88	0.002586
1697.53	0.0017675
1707.17	0.001966
1716.82	0.0017711
1726.46	0.002106
1736.11	0.002896
1745.75	0.003746
1755.4	0.003376
1765.04	0.003826
1774.69	0.002916
1784.33	0.002576
1793.98	0.001936
1803.62	0.0018141
1813.27	0.002166
1822.91	0.002646
1832.55	0.002886
1842.2	0.002696
1851.84	0.002426
1861.49	0.002626
1871.13	0.003066
1880.78	0.005016
1890.42	0.005206
1900.07	0.002536
1909.71	0.002226
1919.36	0.001986
1929	0.0018372
1938.65	0.0017544
1948.29	0.0016243
1957.94	0.001926
1967.58	0.001739
1977.23	0.0017867
1986.87	0.0015804
1996.52	0.0016047
2006.16	0.0016649
2015.81	0.002046
2025.45	0.0013921
2035.1	0.0017161
2044.74	0.0014114
2054.38	0.0012573
2064.03	0.0017499
2073.67	0.0015685
2083.32	0.001604
2092.96	0.0017573
2102.61	0.0016889
2112.25	0.0017404
2121.9	0.001906
2131.54	0.001691
2141.19	0.0015595
2150.83	0.0015811
2160.48	0.0014376
2170.12	0.0012332
2179.77	0.0013669
2189.41	0.0015447
2199.06	0.0017445
2208.7	0.0015411
2218.35	0.0013517
2227.99	0.0011666
2237.64	0.0013565
2247.28	0.0015481
2256.92	0.001692
2266.57	0.002116
2276.21	0.0016946
2285.86	0.001459
2295.5	0.001876
2305.15	0.0016228
2314.79	0.0014772
2324.44	0.0015867
2334.08	0.0017499
2343.73	0.0015111
2353.37	0.0015707
2363.02	0.0016617
2372.66	0.0016323
2382.31	0.002016
2391.95	0.0016391
2401.6	0.0018567
2411.24	0.002046
2420.89	0.002056
2430.53	0.001876
2440.18	0.001956
2449.82	0.002296
2459.47	0.002136
2469.11	0.002066
2478.75	0.0018553
2488.4	0.0017442
2498.04	0.0018576
2507.69	0.0017143
2517.33	0.0014926
2526.98	0.0015721
2536.62	0.002166
2546.27	0.001946
2555.91	0.002146
2565.56	0.0018051
2575.2	0.002026
2584.85	0.002136
2594.49	0.0018571
2604.14	0.0015888
2613.78	0.001966
2623.43	0.0018611
2633.07	0.001583
2642.72	0.001946
2652.36	0.002146
2662.01	0.002056
2671.65	0.0017239
2681.29	0.002176
2690.94	0.001916
2700.58	0.0018386
2710.23	0.002366
2719.87	0.002756
2729.52	0.003156
2739.16	0.004806
2748.81	0.004196
2758.45	0.002876
2768.1	0.002766
2777.74	0.002726
2787.39	0.003356
2797.03	0.003706
2806.68	0.003916
2816.32	0.004666
2825.97	0.005516
2835.61	0.007036
2845.26	0.009916
2854.9	0.015736
2864.55	0.026196
2874.19	0.034126
2883.84	0.031876
2893.48	0.029186
2903.12	0.028776
2912.77	0.035246
2922.41	0.055866
2932.06	0.074116
2941.7	0.051236
2951.35	0.031946
2960.99	0.026586
2970.64	0.024106
2980.28	0.026176
2989.93	0.029966
2999.57	0.033896
3009.22	0.043086
3018.86	0.051396
3028.51	0.044206
3038.15	0.043416
3047.8	0.046896
3057.44	0.030986
3067.09	0.018096
3076.73	0.012076
3086.38	0.008776
3096.02	0.007656
3105.67	0.006656
3115.31	0.005776
3124.95	0.004406
3134.6	0.003616
3144.24	0.003216
3153.89	0.002416
3163.53	0.002286
3173.18	0.001966
3182.82	0.001886
3192.47	0.0018242
3202.11	0.001946
3211.76	0.0018372
3221.4	0.0018678
3231.05	0.0014546
3240.69	0.0015483
3250.34	0.002126
3259.98	0.001821
3269.63	0.0018632
3279.27	0.0016724
3288.92	0.0016756
3298.56	0.0014805
3308.21	0.0012357
3317.85	0.0011644
3327.49	0.0016066
3337.14	0.0015859
3346.78	0.001376
3356.43	0.0015865
3366.07	0.0010263
3375.72	0.0012634
3385.36	0.0015394
3395.01	0.000465
3404.65	0.0012829
3414.3	0.001787
3423.94	0.001008
3433.59	0.0016659
3443.23	0.0010599
3452.88	0.0015499
3462.52	0.0008304
3472.17	0.0011149
3481.81	0.001533
3491.46	0.0007949
3501.1	0.002166
3510.75	0.0009965
3520.39	0.0010823
3530.04	0.000713
3539.68	0.0007895
3549.32	0.001876
3558.97	0.0015357
3568.61	0.0015777
3578.26	0.0015989
3587.9	0.001675
3597.55	0.001384
3607.19	0.0008466
3616.84	0.001046
3626.48	0.0010778
3636.13	0.0012176
3645.77	0.000699
3655.42	0.0012842
3665.06	0.0012017
3674.71	0.0011189
3684.35	0.0010688
3694	0.001936
3703.64	0.0013974
3713.29	0.0016256
3722.93	0.000531
3732.58	0.001335
3742.22	0.001691
3751.86	0.0011336
3761.51	0.001996
3771.15	0.0016258
3780.8	0.0015421
3790.44	0.001936
3800.09	0.0012736
3809.73	0.0018626
3819.38	0.0018514
3829.02	0.0013712
3838.67	0.0018139
3848.31	0.0015415
3857.96	0.0017936
3867.6	0.0013926
3877.25	0.0015848
3886.89	0.0015527
3896.54	0.002546
3906.18	0.001926
3915.83	0.002156
3925.47	0.0017239
3935.12	0.0017869
3944.76	0.0012209
3954.41	0.0011933
3964.05	0.002006
3973.69	0.0015112
3983.34	0.002076
3992.98	0.0013105
