Infrared Spectrum: UREA, 1-BENZOYL-1,3-DICYCLOHEXYL-
Formula: C20 H28 N2 O2
CAS: 3080-42-0
State: SOLID (1 mg / 650 mg KBr DISC)
Class: COBLENTZ III
Instrument: PERKIN-ELMER 521 (GRATING)
Instrument parameters: FILTERS AT 3150, 2500, 2000, 1150, 700, 410 CM ^-^1, GRATING CHANGES AT 2000, 630 CM ^-^1
Sampling: TRANSMISSION
Resolution: 4
Origin: SOUTHERN RES. INSTITUTE
1/CM	TRANSMITTANCE
242.823	0.247
251.979	0.26
261.135	0.287
270.291	0.371
279.447	0.428
288.603	0.479
297.759	0.527
306.915	0.583
316.071	0.599
325.227	0.625
334.383	0.647
343.538	0.663
352.694	0.677
361.85	0.679
371.006	0.719
380.162	0.747
389.318	0.75
398.474	0.751
407.63	0.77
416.786	0.766
425.942	0.712
435.098	0.77
444.254	0.785
453.41	0.784
462.566	0.8
471.722	0.805
480.878	0.804
490.034	0.797
499.19	0.809
508.346	0.8
517.502	0.801
526.657	0.81
535.813	0.801
544.969	0.796
554.125	0.802
563.281	0.78
572.437	0.679
581.593	0.777
590.749	0.801
599.905	0.798
609.061	0.789
618.217	0.787
627.373	0.754
636.529	0.599
645.685	0.748
654.841	0.766
663.997	0.723
673.153	0.701
682.309	0.714
691.465	0.447
700.621	0.428
709.776	0.703
718.932	0.695
728.088	0.589
737.244	0.807
746.4	0.838
755.556	0.84
764.712	0.815
773.868	0.733
783.024	0.746
792.18	0.831
801.336	0.779
810.492	0.804
819.648	0.821
828.804	0.834
837.96	0.856
847.116	0.861
856.272	0.863
865.428	0.849
874.584	0.786
883.74	0.796
892.896	0.733
902.051	0.847
911.207	0.831
920.363	0.845
929.519	0.86
938.675	0.826
947.831	0.839
956.987	0.834
966.143	0.83
975.299	0.826
984.455	0.806
993.611	0.745
1002.77	0.771
1011.92	0.8
1021.08	0.758
1030.23	0.784
1039.39	0.8
1048.55	0.75
1057.7	0.791
1066.86	0.698
1076.01	0.606
1085.17	0.767
1094.33	0.8
1103.48	0.789
1112.64	0.768
1121.79	0.614
1130.95	0.715
1140.11	0.782
1149.26	0.694
1158.42	0.69
1167.57	0.746
1176.73	0.793
1185.89	0.782
1195.04	0.796
1204.2	0.774
1213.35	0.73
1222.51	0.603
1231.67	0.335
1240.82	0.669
1249.98	0.539
1259.13	0.686
1268.29	0.571
1277.45	0.472
1286.6	0.723
1295.76	0.747
1304.91	0.692
1314.07	0.597
1323.23	0.597
1332.38	0.472
1341.54	0.399
1350.69	0.441
1359.85	0.439
1369	0.497
1378.16	0.541
1387.32	0.664
1396.47	0.719
1405.63	0.766
1414.78	0.772
1423.94	0.768
1433.1	0.688
1442.25	0.516
1451.41	0.718
1460.56	0.717
1469.72	0.768
1478.88	0.678
1488.03	0.731
1497.19	0.714
1506.34	0.671
1515.5	0.608
1524.66	0.511
1533.81	0.33
1542.97	0.437
1552.12	0.684
1561.28	0.716
1570.44	0.708
1579.59	0.742
1588.75	0.698
1597.9	0.698
1607.06	0.645
1616.22	0.5
1625.37	0.396
1634.53	0.166
1643.68	0.102
1652.84	0.288
1662	0.553
1671.15	0.479
1680.31	0.561
1689.46	0.253
1698.62	0.463
1707.78	0.674
1716.93	0.75
1726.09	0.791
1735.24	0.804
1744.4	0.814
1753.55	0.825
1762.71	0.835
1771.87	0.841
1781.02	0.843
1790.18	0.845
1799.33	0.845
1808.49	0.857
1817.65	0.86
1826.8	0.862
1835.96	0.863
1845.11	0.863
1854.27	0.863
1863.43	0.86
1872.58	0.858
1881.74	0.862
1890.89	0.861
1900.05	0.863
1909.21	0.866
1918.36	0.866
1927.52	0.866
1936.67	0.862
1945.83	0.862
1954.99	0.863
1964.14	0.865
1973.3	0.866
1982.45	0.867
1991.61	0.868
2000.77	0.868
2009.92	0.868
2019.08	0.868
2028.23	0.868
2037.39	0.867
2046.55	0.867
2055.7	0.867
2064.86	0.867
2074.01	0.867
2083.17	0.866
2092.33	0.866
2101.48	0.866
2110.64	0.865
2119.79	0.864
2128.95	0.863
2138.1	0.863
2147.26	0.863
2156.42	0.863
2165.57	0.863
2174.73	0.863
2183.88	0.862
2193.04	0.861
2202.2	0.861
2211.35	0.861
2220.51	0.861
2229.66	0.861
2238.82	0.86
2247.98	0.86
2257.13	0.86
2266.29	0.86
2275.44	0.86
2284.6	0.86
2293.76	0.859
2302.91	0.859
2312.07	0.858
2321.22	0.858
2330.38	0.858
2339.54	0.858
2348.69	0.858
2357.85	0.858
2367	0.858
2376.16	0.857
2385.32	0.857
2394.47	0.857
2403.63	0.856
2412.78	0.856
2421.94	0.856
2431.1	0.856
2440.25	0.855
2449.41	0.854
2458.56	0.853
2467.72	0.851
2476.87	0.853
2486.03	0.85
2495.19	0.85
2504.34	0.85
2513.5	0.85
2522.65	0.85
2531.81	0.85
2540.97	0.85
2550.12	0.85
2559.28	0.849
2568.43	0.848
2577.59	0.846
2586.75	0.843
2595.9	0.842
2605.06	0.842
2614.21	0.842
2623.37	0.841
2632.53	0.839
2641.68	0.834
2650.84	0.825
2659.99	0.826
2669.15	0.832
2678.31	0.83
2687.46	0.828
2696.62	0.834
2705.77	0.836
2714.93	0.838
2724.09	0.836
2733.24	0.834
2742.4	0.831
2751.55	0.823
2760.71	0.815
2769.87	0.807
2779.02	0.802
2788.18	0.798
2797.33	0.793
2806.49	0.79
2815.65	0.778
2824.8	0.756
2833.96	0.732
2843.11	0.561
2852.27	0.384
2861.42	0.567
2870.58	0.699
2879.74	0.697
2888.89	0.628
2898.05	0.571
2907.2	0.461
2916.36	0.318
2925.52	0.25
2934.67	0.295
2943.83	0.474
2952.98	0.631
2962.14	0.736
2971.3	0.776
2980.45	0.804
2989.61	0.812
2998.76	0.809
3007.92	0.807
3017.08	0.796
3026.23	0.789
3035.39	0.797
3044.54	0.787
3053.7	0.766
3062.86	0.76
3072.01	0.767
3081.17	0.796
3090.32	0.815
3099.48	0.819
3108.64	0.823
3117.79	0.83
3126.95	0.833
3136.1	0.816
3145.26	0.812
3154.42	0.81
3163.57	0.805
3172.73	0.803
3181.88	0.798
3191.04	0.793
3200.2	0.784
3209.35	0.774
3218.51	0.757
3227.66	0.742
3236.82	0.736
3245.97	0.722
3255.13	0.687
3264.29	0.66
3273.44	0.622
3282.6	0.542
3291.75	0.438
3300.91	0.32
3310.07	0.428
3319.22	0.567
3328.38	0.657
3337.53	0.689
3346.69	0.714
3355.85	0.736
3365	0.75
3374.16	0.759
3383.31	0.764
3392.47	0.768
3401.63	0.771
3410.78	0.774
3419.94	0.774
3429.09	0.774
3438.25	0.776
3447.41	0.779
3456.56	0.78
3465.72	0.782
3474.87	0.784
3484.03	0.787
3493.19	0.789
3502.34	0.792
3511.5	0.796
3520.65	0.801
3529.81	0.806
3538.97	0.811
3548.12	0.815
3557.28	0.818
3566.43	0.821
3575.59	0.823
3584.75	0.827
3593.9	0.834
3603.06	0.837
3612.21	0.838
3621.37	0.841
3630.52	0.843
3639.68	0.844
3648.84	0.846
3657.99	0.847
3667.15	0.847
3676.3	0.848
3685.46	0.849
3694.62	0.85
3703.77	0.85
3712.93	0.85
3722.08	0.848
3731.24	0.848
3740.4	0.849
3749.55	0.85
3758.71	0.849
3767.86	0.849
3777.02	0.848
