Infrared Spectrum: Diethyl(4-biphenylylmethyl)phosphonate
Formula: C 17 H 21 O 3 P
CAS: 30818-70-3
State: gas
Origin: EPA-IR VAPOR PHASE LIBRARY
1/CM	ABSORBANCE
549.8	0.037199
559.445	0.026009
569.09	0.009299
578.734	0.006099
588.379	0.011349
598.024	0.028699
607.669	0.007379
617.313	0.004699
626.958	0.004159
636.603	0.004219
646.248	0.004819
655.893	0.004799
665.537	0.007499
675.182	0.011069
684.827	0.019519
694.472	0.033679
704.116	0.027019
713.761	0.019389
723.406	0.020119
733.051	0.024839
742.695	0.020649
752.34	0.027019
761.985	0.039119
771.63	0.053319
781.275	0.038069
790.919	0.025859
800.564	0.023349
810.209	0.018929
819.854	0.021199
829.498	0.036689
839.143	0.038609
848.788	0.046449
858.433	0.038889
868.078	0.018249
877.722	0.012439
887.367	0.011129
897.012	0.012789
906.657	0.016919
916.301	0.024419
925.946	0.041339
935.591	0.078229
945.236	0.120779
954.88	0.123099
964.525	0.090709
974.17	0.053339
983.815	0.034409
993.46	0.032229
1003.1	0.045019
1012.75	0.075419
1022.39	0.127619
1032.04	0.205879
1041.68	0.209219
1051.33	0.178219
1060.97	0.172389
1070.62	0.121149
1080.26	0.073989
1089.91	0.061239
1099.55	0.064949
1109.2	0.041829
1118.84	0.029689
1128.49	0.023429
1138.13	0.022859
1147.78	0.020709
1157.42	0.020449
1167.07	0.019349
1176.71	0.018609
1186.36	0.017239
1196	0.012899
1205.64	0.009739
1215.29	0.011499
1224.93	0.014509
1234.58	0.023079
1244.22	0.030219
1253.87	0.035749
1263.51	0.066499
1273.16	0.084629
1282.8	0.071699
1292.45	0.048439
1302.09	0.024349
1311.74	0.014149
1321.38	0.009399
1331.03	0.007019
1340.67	0.005839
1350.32	0.005659
1359.96	0.006909
1369.61	0.011049
1379.25	0.012329
1388.9	0.019139
1398.54	0.023139
1408.18	0.019429
1417.83	0.013489
1427.47	0.008749
1437.12	0.008539
1446.76	0.009719
1456.41	0.008609
1466.05	0.009099
1475.7	0.015629
1485.34	0.046629
1494.99	0.022819
1504.63	0.010329
1514.28	0.014069
1523.92	0.012419
1533.57	0.004879
1543.21	0.003739
1552.86	0.003079
1562.5	0.003309
1572.15	0.003229
1581.79	0.004299
1591.44	0.006849
1601.08	0.009139
1610.73	0.005439
1620.37	0.003649
1630.01	0.002599
1639.66	0.002589
1649.3	0.002789
1658.95	0.003319
1668.59	0.003549
1678.24	0.003029
1687.88	0.002709
1697.53	0.002509
1707.17	0.002549
1716.82	0.002669
1726.46	0.002939
1736.11	0.003419
1745.75	0.003489
1755.4	0.003369
1765.04	0.003309
1774.69	0.003859
1784.33	0.004419
1793.98	0.005309
1803.62	0.003849
1813.27	0.003549
1822.91	0.003199
1832.55	0.002969
1842.2	0.002629
1851.84	0.002719
1861.49	0.002989
1871.13	0.003329
1880.78	0.003819
1890.42	0.004049
1900.07	0.003619
1909.71	0.002959
1919.36	0.002349
1929	0.002349
1938.65	0.002829
1948.29	0.002749
1957.94	0.002689
1967.58	0.001439
1977.23	0.001349
1986.87	0.001219
1996.52	0.0009966
2006.16	0.0009074
2015.81	0.0009015
2025.45	0.0008452
2035.1	0.0008036
2044.74	0.0007396
2054.38	0.0008715
2064.03	0.0007796
2073.67	0.0008117
2083.32	0.0009317
2092.96	0.0008687
2102.61	0.000909
2112.25	0.0008036
2121.9	0.0007531
2131.54	0.0006916
2141.19	0.0007864
2150.83	0.0007093
2160.48	0.0007144
2170.12	0.0006866
2179.77	0.000702
2189.41	0.0006889
2199.06	0.0008124
2208.7	0.0006601
2218.35	0.0007524
2227.99	0.0007145
2237.64	0.0007127
2247.28	0.0006881
2256.92	0.0007769
2266.57	0.0007458
2276.21	0.0008227
2285.86	0.0007189
2295.5	0.0007898
2305.15	0.0009214
2314.79	0.0010875
2324.44	0.0010033
2334.08	0.0009707
2343.73	0.0009607
2353.37	0.0008947
2363.02	0.000762
2372.66	0.0007242
2382.31	0.0007436
2391.95	0.0006587
2401.6	0.0005398
2411.24	0.0006766
2420.89	0.0008156
2430.53	0.0007999
2440.18	0.0007866
2449.82	0.0008457
2459.47	0.0009557
2469.11	0.00063
2478.75	0.0006699
2488.4	0.0005971
2498.04	0.0006694
2507.69	0.0006089
2517.33	0.0006978
2526.98	0.0007994
2536.62	0.0007487
2546.27	0.0005544
2555.91	0.0007557
2565.56	0.0008747
2575.2	0.0007004
2584.85	0.0009198
2594.49	0.0010803
2604.14	0.0008828
2613.78	0.0009404
2623.43	0.0009788
2633.07	0.0007963
2642.72	0.0008178
2652.36	0.0005508
2662.01	0.0007121
2671.65	0.0006022
2681.29	0.0005417
2690.94	0.0005119
2700.58	0.0006756
2710.23	0.0009352
2719.87	0.001091
2729.52	0.001399
2739.16	0.001499
2748.81	0.001289
2758.45	0.001559
2768.1	0.001819
2777.74	0.002059
2787.39	0.001899
2797.03	0.002169
2806.68	0.002199
2816.32	0.002139
2825.97	0.002559
2835.61	0.002809
2845.26	0.003609
2854.9	0.004559
2864.55	0.006239
2874.19	0.009269
2883.84	0.012199
2893.48	0.013369
2903.12	0.017699
2912.77	0.025349
2922.41	0.028779
2932.06	0.029349
2941.7	0.035499
2951.35	0.027619
2960.99	0.027459
2970.64	0.032719
2980.28	0.047409
2989.93	0.047819
2999.57	0.034019
3009.22	0.024699
3018.86	0.022069
3028.51	0.032929
3038.15	0.031339
3047.8	0.018249
3057.44	0.020989
3067.09	0.033229
3076.73	0.023499
3086.38	0.018059
3096.02	0.012339
3105.67	0.007829
3115.31	0.004979
3124.95	0.003909
3134.6	0.003019
3144.24	0.002439
3153.89	0.001799
3163.53	0.001419
3173.18	0.001289
3182.82	0.0011165
3192.47	0.001499
3202.11	0.001319
3211.76	0.0011011
3221.4	0.0010945
3231.05	0.0009474
3240.69	0.0006963
3250.34	0.0006888
3259.98	0.000688
3269.63	0.0004612
3279.27	0.0007345
3288.92	0.0004494
3298.56	0.0005355
3308.21	0.0006438
3317.85	0.0005955
3327.49	0.0004485
3337.14	0.000552
3346.78	0.0004869
3356.43	0.0004486
3366.07	0.0003221
3375.72	0.000375
3385.36	0.0005674
3395.01	0.0003432
3404.65	0.0002087
3414.3	0.00025392
3423.94	0.0003416
3433.59	0.0005075
3443.23	0.0002822
3452.88	0.0004908
3462.52	0.00027527
3472.17	0.0005814
3481.81	0.0001935
3491.46	0.00028274
3501.1	0.000116
3510.75	0.00021441
3520.39	0.00030008
3530.04	0.0004121
3539.68	0.0004206
3549.32	0.00026056
3558.97	0.00026331
3568.61	0
3578.26	0.000445
3587.9	0.0003715
3597.55	0.0005935
3607.19	0.00029018
3616.84	0.0004581
3626.48	0.00027179
3636.13	0.0002501
3645.77	0.0005683
3655.42	0.0006915
3665.06	0.0007433
3674.71	0.0008045
3684.35	0.0006456
3694	0.0005924
3703.64	0.00036
3713.29	0.0005005
3722.93	0.0003252
3732.58	0.0005122
3742.22	0.0008734
3751.86	0.0005484
3761.51	0.0006711
3771.15	0.000536
3780.8	0.000482
3790.44	0.000531
3800.09	0.0006152
3809.73	0.0002083
3819.38	0.00030308
3829.02	0.0001418
3838.67	0.0003484
3848.31	0.0003867
3857.96	0.00027139
3867.6	0.0004762
3877.25	0.0005033
3886.89	0.0008297
3896.54	0.0006128
3906.18	0.0006393
3915.83	0.000661
3925.47	0.000768
3935.12	0.0006037
3944.76	0.0003939
3954.41	0.0009222
3964.05	0.0007967
3973.69	0.000517
3983.34	0.0005908
3992.98	0.0009618
