Infrared Spectrum: N^1,N^3 DIBUTYLIMIDAZOLIDINE 2-THIONE
Formula: C11 H22 N2 S
CAS: 30826-83-6
State: LIQUID
Class: COBLENTZ
Instrument: PERKIN-ELMER
Sampling: TRANSMISSION
Path length: CAPILLARY
Resolution: 4
Origin: ABBOTT LABORATORIES - WASHBURN
MICROMETERS	TRANSMITTANCE
2.059	0.934
2.09242	0.93
2.12584	0.93
2.15926	0.937
2.19268	0.939
2.2261	0.9321
2.25952	0.9144
2.29294	0.904
2.32636	0.9071
2.35978	0.92
2.3932	0.9171
2.42662	0.922
2.46004	0.932
2.49346	0.934
2.52688	0.939
2.5603	0.9409
2.59372	0.9418
2.62714	0.936
2.66056	0.932
2.69398	0.9361
2.7274	0.9359
2.76082	0.93
2.79424	0.9199
2.82766	0.915
2.86108	0.9101
2.8945	0.914
2.92792	0.914
2.96134	0.91
2.99476	0.909
3.02818	0.91
3.0616	0.9149
3.09502	0.915
3.12844	0.922
3.16186	0.9239
3.19528	0.9149
3.2287	0.9066
3.26212	0.8559
3.29554	0.6376
3.32896	0.2473
3.36238	0.191
3.3958	0.2632
3.42922	0.2872
3.46264	0.3559
3.49606	0.6243
3.52948	0.7804
3.5629	0.8512
3.59632	0.8651
3.62974	0.8732
3.66316	0.882
3.69658	0.8951
3.73	0.909
3.76342	0.907
3.79684	0.9189
3.83026	0.9189
3.86368	0.9219
3.8971	0.9217
3.93052	0.922
3.96394	0.92
3.99736	0.9189
4.03078	0.919
4.0642	0.915
4.09762	0.912
4.13104	0.909
4.16446	0.91
4.19788	0.919
4.2313	0.925
4.26472	0.924
4.29814	0.9201
4.33156	0.9171
4.36498	0.912
4.3984	0.909
4.43182	0.9139
4.46524	0.912
4.49866	0.91
4.53208	0.907
4.5655	0.905
4.59892	0.907
4.63234	0.902
4.66576	0.904
4.69918	0.9001
4.7326	0.902
4.76602	0.9049
4.79944	0.9068
4.83286	0.898
4.86628	0.9
4.8997	0.91
4.93312	0.905
4.96654	0.902
4.99996	0.905
5.03338	0.9005
5.0668	0.902
5.10022	0.902
5.13364	0.9006
5.16706	0.9098
5.20048	0.905
5.2339	0.9082
5.26732	0.905
5.30074	0.907
5.33416	0.905
5.36758	0.905
5.401	0.9098
5.43442	0.9078
5.46784	0.904
5.50126	0.907
5.53468	0.907
5.5681	0.904
5.60152	0.898
5.63494	0.8966
5.66836	0.8898
5.70178	0.885
5.7352	0.885
5.76862	0.8918
5.80204	0.8757
5.83546	0.8736
5.86888	0.865
5.9023	0.8544
5.93572	0.855
5.96914	0.8537
6.00256	0.8575
6.03598	0.853
6.0694	0.853
6.10282	0.8515
6.13624	0.8484
6.16966	0.8494
6.20308	0.848
6.23649	0.8455
6.26991	0.84
6.30333	0.836
6.33675	0.8287
6.37017	0.818
6.40359	0.7967
6.43701	0.7818
6.47043	0.7544
6.50385	0.7078
6.53727	0.6594
6.57069	0.5568
6.60411	0.3209
6.63753	0.1436
6.67095	0.094
6.70437	0.2558
6.73779	0.429
6.77121	0.2931
6.80463	0.1824
6.83805	0.1364
6.87147	0.1158
6.90489	0.1816
6.93831	0.1883
6.97173	0.1545
7.00515	0.144
7.03857	0.17
7.07199	0.356
7.10541	0.596
7.13883	0.6385
7.17225	0.6311
7.20567	0.4668
7.23909	0.4179
7.27251	0.3978
7.30593	0.4348
7.33935	0.4913
7.37277	0.4562
7.40619	0.3368
7.43961	0.1608
7.47303	0.0986
7.50645	0.1726
7.53987	0.321
7.57329	0.3804
7.60671	0.4105
7.64013	0.3822
7.67355	0.3269
7.70697	0.2371
7.74039	0.2183
7.77381	0.1758
7.80723	0.1522
7.84065	0.1864
7.87407	0.2129
7.90749	0.202
7.94091	0.1951
7.97433	0.195
8.00775	0.1729
8.04117	0.1541
8.07459	0.165
8.10801	0.2243
8.14143	0.239
8.17485	0.2303
8.20827	0.31
8.24169	0.3894
8.27511	0.5285
8.30853	0.5714
8.34195	0.579
8.37537	0.6034
8.40879	0.6497
8.44221	0.678
8.47563	0.6792
8.50905	0.7009
8.54247	0.7222
8.57589	0.7474
8.60931	0.7571
8.64273	0.757
8.67615	0.7346
8.70957	0.6768
8.74299	0.5798
8.77641	0.5046
8.80983	0.4941
8.84325	0.5295
8.87667	0.5728
8.91009	0.5838
8.94351	0.5619
8.97693	0.5549
9.01035	0.6096
9.04377	0.6443
9.07719	0.6771
9.11061	0.7069
9.14403	0.7456
9.17745	0.7773
9.21087	0.796
9.24429	0.8088
9.27771	0.8164
9.31113	0.8192
9.34455	0.819
9.37797	0.819
9.41139	0.816
9.44481	0.8092
9.47823	0.8106
9.51165	0.8184
9.54507	0.8233
9.57849	0.8301
9.61191	0.8384
9.64533	0.8482
9.67875	0.848
9.71217	0.848
9.74559	0.8402
9.77901	0.833
9.81243	0.8287
9.84585	0.8286
9.87927	0.8355
9.91269	0.8368
9.94611	0.8387
9.97953	0.8407
10.013	0.8333
10.0464	0.841
10.0798	0.846
10.1132	0.8502
10.1466	0.8503
10.1801	0.8556
10.2135	0.8555
10.2469	0.855
10.2803	0.857
10.3137	0.8503
10.3472	0.85
10.3806	0.8447
10.414	0.841
10.4474	0.8353
10.4808	0.835
10.5142	0.821
10.5477	0.8048
10.5811	0.7929
10.6145	0.7646
10.6479	0.737
10.6813	0.7227
10.7148	0.718
10.7482	0.7233
10.7816	0.7446
10.815	0.7985
10.8484	0.8311
10.8819	0.8556
10.9153	0.863
10.9487	0.8605
10.9821	0.8592
11.0155	0.8457
11.049	0.835
11.0824	0.8413
11.1158	0.8562
11.1492	0.8669
11.1826	0.8703
11.2161	0.867
11.2495	0.86
11.2829	0.8567
11.3163	0.851
11.3497	0.843
11.3832	0.8425
11.4166	0.8516
11.45	0.8568
11.4834	0.8669
11.5168	0.8676
11.5503	0.87
11.5837	0.87
11.6171	0.8743
11.6505	0.875
11.6839	0.8775
11.7174	0.872
11.7508	0.873
11.7842	0.873
11.8176	0.8668
11.851	0.867
11.8845	0.867
11.9179	0.867
11.9513	0.865
11.9847	0.8616
12.0181	0.8588
12.0516	0.861
12.085	0.8571
12.1184	0.8523
12.1518	0.8459
12.1852	0.846
12.2187	0.8431
12.2521	0.843
12.2855	0.843
12.3189	0.841
12.3523	0.833
12.3858	0.834
12.4192	0.831
12.4526	0.8357
12.486	0.8415
12.5194	0.8396
12.5529	0.8359
12.5863	0.831
12.6197	0.8262
12.6531	0.824
12.6865	0.821
12.72	0.8133
12.7534	0.8151
12.7868	0.819
12.8202	0.8248
12.8536	0.8285
12.8871	0.838
12.9205	0.835
12.9539	0.836
12.9873	0.8313
13.0207	0.828
13.0542	0.8247
13.0876	0.813
13.121	0.8025
13.1544	0.792
13.1878	0.7747
13.2213	0.7578
13.2547	0.7398
13.2881	0.7299
13.3215	0.722
13.3549	0.718
13.3884	0.717
13.4218	0.7194
13.4552	0.727
13.4886	0.7361
13.522	0.7307
13.5555	0.7243
13.5889	0.7117
13.6223	0.7131
13.6557	0.723
13.6891	0.7418
13.7226	0.7665
13.756	0.7804
13.7894	0.7933
13.8228	0.799
13.8562	0.802
13.8897	0.8086
13.9231	0.8046
13.9565	0.804
13.9899	0.8024
14.0233	0.7992
14.0568	0.794
14.0902	0.7937
14.1236	0.794
14.157	0.7863
14.1904	0.7779
14.2239	0.7748
14.2573	0.7748
14.2907	0.7686
14.3241	0.7649
14.3575	0.76
14.391	0.757
14.4244	0.7544
14.4578	0.745
14.4912	0.7393
14.5246	0.73
14.5581	0.7225
14.5915	0.712
14.6249	0.7039
14.6583	0.6945
14.6917	0.6858
14.7252	0.6809
14.7586	0.673
14.792	0.673
14.8254	0.6701
14.8588	0.6725
14.8923	0.67
14.9257	0.675
14.9591	0.6787
14.9925	0.681
15.0259	0.6726
15.0594	0.6658
15.0928	0.658
15.1262	0.6531
15.1596	0.6414
15.193	0.6295
15.2265	0.6236
15.2599	0.616
15.2933	0.6039
15.3267	0.604
15.3601	0.5947
15.3936	0.5915
