Infrared Spectrum: Diethylhydroxymethyl phosphonate
Formula: C 5 H 13 O 4 P
CAS: 3084-40-0
State: gas
Origin: EPA-IR VAPOR PHASE LIBRARY
1/CM	ABSORBANCE
501.5	0.00422
513.074	0.00521
524.648	0.00697
536.222	0.00768
547.796	0.00581
559.37	0.00307
570.944	0.0016
582.518	0.00104
594.092	0.0009036
605.666	0.0007546
617.24	0.0007476
628.814	0.0007265
640.388	0.0007833
651.962	0.0008442
663.536	0.001
675.11	0.00133
686.684	0.00185
698.258	0.0023
709.832	0.0025
721.406	0.00244
732.98	0.00223
744.554	0.00274
756.128	0.0048
767.702	0.00926
779.276	0.01307
790.85	0.01114
802.423	0.00796
813.997	0.00574
825.571	0.00375
837.145	0.00279
848.719	0.00277
860.293	0.00379
871.867	0.00532
883.441	0.00465
895.015	0.0039
906.589	0.00481
918.163	0.00725
929.737	0.01337
941.311	0.0257
952.885	0.03747
964.459	0.03445
976.033	0.02184
987.607	0.0133
999.181	0.01308
1010.76	0.02239
1022.33	0.04664
1033.9	0.07485
1045.48	0.07878
1057.05	0.06062
1068.63	0.0428
1080.2	0.02799
1091.77	0.02025
1103.35	0.0163
1114.92	0.01119
1126.49	0.00853
1138.07	0.00787
1149.64	0.00799
1161.22	0.00806
1172.79	0.00729
1184.36	0.00557
1195.94	0.00403
1207.51	0.00343
1219.09	0.00372
1230.66	0.00534
1242.23	0.01126
1253.81	0.02304
1265.38	0.02736
1276.96	0.02069
1288.53	0.01485
1300.1	0.01102
1311.68	0.00696
1323.25	0.00411
1334.83	0.0029
1346.4	0.00276
1357.97	0.00356
1369.55	0.00507
1381.12	0.00635
1392.7	0.00725
1404.27	0.00539
1415.84	0.00321
1427.42	0.00328
1438.99	0.00386
1450.57	0.00313
1462.14	0.00227
1473.71	0.0019
1485.29	0.00161
1496.86	0.00128
1508.44	0.0009687
1520.01	0.000766
1531.58	0.0006227
1543.16	0.0005028
1554.73	0.0004454
1566.31	0.0004142
1577.88	0.000374
1589.45	0.0003695
1601.03	0.000356
1612.6	0.0003356
1624.18	0.0003432
1635.75	0.0003749
1647.32	0.0004266
1658.9	0.0004385
1670.47	0.0004194
1682.05	0.0004023
1693.62	0.0004198
1705.19	0.0004567
1716.77	0.0005393
1728.34	0.0006316
1739.92	0.000663
1751.49	0.0006489
1763.06	0.0006276
1774.64	0.0005978
1786.21	0.0006214
1797.79	0.0006551
1809.36	0.0007226
1820.93	0.0007619
1832.51	0.0007704
1844.08	0.0007354
1855.66	0.0006372
1867.23	0.0005233
1878.8	0.0004548
1890.38	0.0003841
1901.95	0.0003156
1913.53	0.0003021
1925.1	0.0002679
1936.67	0.0002521
1948.25	0.0002386
1959.82	0.000204
1971.4	0.0001996
1982.97	0.0002015
1994.54	0.0001975
2006.12	0.000182
2017.69	0.000183
2029.27	0.0001985
2040.84	0.0002237
2052.41	0.0002562
2063.99	0.0003112
2075.56	0.0003397
2087.14	0.0003051
2098.71	0.000239
2110.28	0.0002179
2121.86	0.000204
2133.43	0.0001713
2145.01	0.0001792
2156.58	0.0001822
2168.15	0.0001563
2179.73	0.0001382
2191.3	0.000148
2202.88	0.0001549
2214.45	0.0001811
2226.02	0.0001444
2237.6	0.0001387
2249.17	0.0001566
2260.74	0.0001551
2272.32	0.0001685
2283.89	0.0001406
2295.47	0.000156
2307.04	0.0001707
2318.61	0.0002067
2330.19	0.0002035
2341.76	0.0001964
2353.34	0.0002018
2364.91	0.0001767
2376.48	0.0001613
2388.06	0.0001674
2399.63	0.0001713
2411.21	0.000194
2422.78	0.0002203
2434.35	0.0002535
2445.93	0.0002433
2457.5	0.0002248
2469.08	0.000204
2480.65	0.0001888
2492.22	0.000179
2503.8	0.0002071
2515.37	0.0001927
2526.95	0.0001869
2538.52	0.0001898
2550.09	0.0001517
2561.67	0.0001549
2573.24	0.000141
2584.82	0.0001649
2596.39	0.0001359
2607.96	0.0001283
2619.54	0.0001514
2631.11	0.0001451
2642.69	0.000152
2654.26	0.0001557
2665.83	0.0001826
2677.41	0.0001692
2688.98	0.0001847
2700.56	0.0002234
2712.13	0.0002587
2723.7	0.0003857
2735.28	0.0004586
2746.85	0.0004806
2758.43	0.0005119
2770	0.0006068
2781.57	0.0006823
2793.15	0.0006896
2804.72	0.0007612
2816.3	0.000881
2827.87	0.00109
2839.44	0.00148
2851.02	0.00195
2862.59	0.00234
2874.17	0.00318
2885.74	0.00438
2897.31	0.00595
2908.89	0.00783
2920.46	0.00806
2932.04	0.00899
2943.61	0.01046
2955.18	0.00922
2966.76	0.00955
2978.33	0.01278
2989.91	0.01448
3001.48	0.01037
3013.05	0.00634
3024.63	0.00379
3036.2	0.00223
3047.78	0.00141
3059.35	0.0009554
3070.92	0.0006979
3082.5	0.0005634
3094.07	0.000487
3105.65	0.0004947
3117.22	0.0004339
3128.79	0.0003884
3140.37	0.0003584
3151.94	0.0003326
3163.52	0.0003449
3175.09	0.0003346
3186.66	0.0003102
3198.24	0.0003206
3209.81	0.0003292
3221.39	0.0002983
3232.96	0.0003007
3244.53	0.0002585
3256.11	0.0001779
3267.68	0.0002052
3279.26	0.0002151
3290.83	0.0001473
3302.4	0.0001416
3313.98	0.0001875
3325.55	0.0002335
3337.13	0.0001816
3348.7	0.000194
3360.27	0.000204
3371.85	0.0002252
3383.42	0.0002252
3395	0.0002245
3406.57	0.0002307
3418.14	0.0001905
3429.72	0.0002076
3441.29	0.0002225
3452.86	0.0002356
3464.44	0.0002673
3476.01	0.0002624
3487.59	0.0003277
3499.16	0.0004161
3510.73	0.0005423
3522.31	0.0006015
3533.88	0.0005384
3545.46	0.0006224
3557.03	0.0007389
3568.6	0.00123
3580.18	0.00227
3591.75	0.00302
3603.33	0.00222
3614.9	0.00145
3626.47	0.00155
3638.05	0.00195
3649.62	0.00174
3661.2	0.00112
3672.77	0.000837
3684.34	0.000645
3695.92	0.0005275
3707.49	0.0003976
3719.07	0.0003661
3730.64	0.0003187
3742.21	0.0002903
3753.79	0.0002647
3765.36	0.00024
3776.94	0.0002441
3788.51	0.0003001
3800.08	0.0002326
3811.66	0.0002251
3823.23	0.0002624
3834.81	0.000232
3846.38	0.0002408
3857.95	0.0002054
3869.53	0.0001889
3881.1	0.0002073
3892.68	0.0002121
3904.25	0.0002456
3915.82	0.0002474
3927.4	0.0002673
3938.97	0.0002537
3950.55	0.0002837
3962.12	0.0002997
3973.69	0.0003075
3985.27	0.0002977
3996.84	0.0003067
