Infrared Spectrum: 4-Methylformanilide
Formula: C 8 H 9 N O
CAS: 3085-54-9
State: gas
Origin: EPA-IR VAPOR PHASE LIBRARY
1/CM	ABSORBANCE
549.9	0.00553
559.547	0.00548
569.193	0.00523
578.84	0.00536
588.486	0.00526
598.133	0.00444
607.779	0.0035
617.426	0.00261
627.072	0.00218
636.719	0.0017333
646.365	0.0015744
656.012	0.0014948
665.658	0.0014839
675.305	0.001505
684.951	0.0016669
694.598	0.00232
704.245	0.00262
713.891	0.0021
723.538	0.0017158
733.184	0.0014762
742.831	0.0012515
752.477	0.0013622
762.124	0.0015192
771.77	0.00206
781.417	0.00321
791.063	0.00557
800.71	0.00857
810.356	0.00932
820.003	0.00712
829.649	0.0049
839.296	0.00309
848.943	0.00217
858.589	0.0017452
868.236	0.001443
877.882	0.0013089
887.529	0.0012257
897.175	0.0010624
906.822	0.00103842
916.468	0.0011861
926.115	0.00110421
935.761	0.00106204
945.408	0.00109082
955.054	0.0011446
964.701	0.0011903
974.347	0.0012888
983.994	0.0013409
993.64	0.0014736
1003.29	0.0016609
1012.93	0.00229
1022.58	0.00237
1032.23	0.00218
1041.87	0.00242
1051.52	0.00261
1061.17	0.00286
1070.81	0.00323
1080.46	0.00386
1090.11	0.00499
1099.75	0.00722
1109.4	0.00922
1119.05	0.00838
1128.69	0.00588
1138.34	0.00476
1147.99	0.00429
1157.63	0.00454
1167.28	0.00481
1176.92	0.00584
1186.57	0.00708
1196.22	0.00707
1205.86	0.0059
1215.51	0.00707
1225.16	0.01315
1234.8	0.02309
1244.45	0.029
1254.1	0.02597
1263.74	0.01863
1273.39	0.01408
1283.04	0.01259
1292.68	0.0089
1302.33	0.00685
1311.98	0.00684
1321.62	0.00475
1331.27	0.00331
1340.92	0.00347
1350.56	0.00463
1360.21	0.00543
1369.86	0.00395
1379.5	0.00332
1389.15	0.00443
1398.79	0.00595
1408.44	0.00696
1418.09	0.00632
1427.73	0.00455
1437.38	0.00467
1447.03	0.00513
1456.67	0.00588
1466.32	0.00708
1475.97	0.00913
1485.61	0.01166
1495.26	0.01442
1504.91	0.02423
1514.55	0.04523
1524.2	0.03966
1533.85	0.01353
1543.49	0.00568
1553.14	0.00377
1562.79	0.00311
1572.43	0.00321
1582.08	0.0042
1591.73	0.00557
1601.37	0.00622
1611.02	0.00723
1620.67	0.00757
1630.31	0.0051
1639.96	0.00324
1649.6	0.00272
1659.25	0.00269
1668.9	0.00298
1678.54	0.00394
1688.19	0.00619
1697.84	0.00953
1707.48	0.01475
1717.13	0.03044
1726.78	0.08518
1736.42	0.11769
1746.07	0.06485
1755.72	0.01788
1765.36	0.00898
1775.01	0.00551
1784.66	0.00364
1794.3	0.00275
1803.95	0.00248
1813.6	0.00236
1823.24	0.00217
1832.89	0.00209
1842.54	0.00205
1852.18	0.0020071
1861.83	0.0018589
1871.47	0.0018884
1881.12	0.0018972
1890.77	0.0017049
1900.41	0.0014967
1910.06	0.0014447
1919.71	0.0013638
1929.35	0.0012461
1939	0.0012248
1948.65	0.00104796
1958.29	0.00100989
1967.94	0.00104616
1977.59	0.00106214
1987.23	0.00103513
1996.88	0.0010294
2006.53	0.0009451
2016.17	0.0009458
2025.82	0.0009
2035.47	0.000901
2045.11	0.0009493
2054.76	0.0009157
2064.41	0.0009533
2074.05	0.0009438
2083.7	0.0009349
2093.35	0.0009827
2102.99	0.000929
2112.64	0.000921
2122.28	0.000865
2131.93	0.000862
2141.58	0.000887
2151.22	0.000872
2160.87	0.000878
2170.52	0.0009236
2180.16	0.0009631
2189.81	0.000975
2199.46	0.0010221
2209.1	0.00105731
2218.75	0.00104911
2228.4	0.00103105
2238.04	0.0009315
2247.69	0.0009285
2257.34	0.000856
2266.98	0.0009517
2276.63	0.0009859
2286.28	0.0009882
2295.92	0.0009705
2305.57	0.00105733
2315.22	0.00102912
2324.86	0.00108287
2334.51	0.00107359
2344.16	0.0010235
2353.8	0.00103204
2363.45	0.00101151
2373.09	0.00101725
2382.74	0.00103034
2392.39	0.00105555
2402.03	0.00100144
2411.68	0.0009865
2421.33	0.00101185
2430.97	0.000965
2440.62	0.0009427
2450.27	0.0009237
2459.91	0.0009175
2469.56	0.000877
2479.21	0.000869
2488.85	0.000895
2498.5	0.000854
2508.15	0.0009171
2517.79	0.00085
2527.44	0.000853
2537.09	0.000858
2546.73	0.000893
2556.38	0.000862
2566.03	0.000876
2575.67	0.000849
2585.32	0.0009827
2594.96	0.0009752
2604.61	0.00101051
2614.26	0.0009435
2623.9	0.00088
2633.55	0.000883
2643.2	0.00089
2652.84	0.000864
2662.49	0.000832
2672.14	0.000867
2681.78	0.0009184
2691.43	0.0009898
2701.08	0.0011515
2710.72	0.0012031
2720.37	0.0013022
2730.02	0.0013799
2739.66	0.0019048
2749.31	0.00319
2758.96	0.00434
2768.6	0.00404
2778.25	0.00258
2787.9	0.0019988
2797.54	0.0018676
2807.19	0.0020068
2816.84	0.00235
2826.48	0.00289
2836.13	0.00463
2845.77	0.01029
2855.42	0.0125
2865.07	0.00917
2874.71	0.00692
2884.36	0.00604
2894.01	0.00456
2903.65	0.00381
2913.3	0.00392
2922.95	0.0053
2932.59	0.00682
2942.24	0.0059
2951.89	0.00355
2961.53	0.00268
2971.18	0.00246
2980.83	0.00262
2990.47	0.00312
3000.12	0.00361
3009.77	0.00403
3019.41	0.00561
3029.06	0.00735
3038.71	0.00702
3048.35	0.00558
3058	0.00456
3067.64	0.0035
3077.29	0.00247
3086.94	0.0016014
3096.58	0.0014871
3106.23	0.0012274
3115.88	0.0011133
3125.52	0.0009874
3135.17	0.000897
3144.82	0.000694
3154.46	0.000467
3164.11	0.000353
3173.76	0.000312
3183.4	0.000282
3193.05	0.0003
3202.7	0.000241
3212.34	2.9e-05
3221.99	0.000234
3231.64	0.000273
3241.28	0.000196
3250.93	0.000219
3260.58	0.000226
3270.22	0.000283
3279.87	0.000378
3289.52	0.000225
3299.16	0.000195
3308.81	0.000292
3318.45	0.000341
3328.1	0.00033
3337.75	0.000122
3347.39	0.000214
3357.04	0.000366
3366.69	0.000418
3376.33	0.00055
3385.98	0.000772
3395.63	0.00100997
3405.27	0.0014111
3414.92	0.00208
3424.57	0.00283
3434.21	0.00315
3443.86	0.00354
3453.51	0.00363
3463.15	0.00302
3472.8	0.0016947
3482.45	0.000904
3492.09	0.000611
3501.74	0.000416
3511.39	0.000531
3521.03	0.000516
3530.68	0.000362
3540.33	0.000407
3549.97	0.000382
3559.62	0.000303
3569.26	0.000416
3578.91	0.000359
3588.56	0.000332
3598.2	0.000316
3607.85	0.000352
3617.5	0.000409
3627.14	0.000513
3636.79	0.000473
3646.44	0.000303
3656.08	0.000373
3665.73	0.000388
3675.38	0.000525
3685.02	0.000394
3694.67	0.000482
3704.32	0.000467
3713.96	0.000546
3723.61	0.000525
3733.26	0.000572
3742.9	0.000483
3752.55	0.000454
3762.2	0.00052
3771.84	0.000556
3781.49	0.000525
3791.13	0.000464
3800.78	0.000462
3810.43	0.000465
3820.07	0.000483
3829.72	0.000552
3839.37	0.000621
3849.01	0.00047
3858.66	0.000511
3868.31	0.000604
3877.95	0.000634
3887.6	0.000507
3897.25	0.000544
3906.89	0.000689
3916.54	0.000592
3926.19	0.000607
3935.83	0.00051
3945.48	0.000597
3955.13	0.000585
3964.77	0.000555
3974.42	0.000597
3984.07	0.000676
3993.71	0.000551
