Infrared Spectrum: BIS(P-CHLOROPHENYL)SULFOXIDE
Formula: C12 H8 Cl2 O S
CAS: 3085-42-5
State: SOLUTION (10% CCl4 FOR 5000-1330, 10% CS2 FOR 1330-625 CM^-^1)
Melting point: 95-97 C
Class: COBLENTZ
Instrument: Not specified, most likely a prism, grating, or hybrid spectrometer.
Sampling: TRANSMISSION
Path length: 0.0120 CM, 0.0114 CM
Resolution: 4
Origin: DOW CHEMICAL COMPANY
MICROMETERS	TRANSMITTANCE
2.047	0.901
2.0871	0.906
2.12719	0.903
2.16729	0.9
2.20738	0.898
2.24748	0.896
2.28757	0.898
2.32767	0.898
2.36777	0.896
2.40786	0.893
2.44796	0.893
2.48805	0.901
2.52815	0.911
2.56824	0.913
2.60834	0.913
2.64844	0.915
2.68853	0.915
2.72863	0.913
2.76872	0.908
2.80882	0.901
2.84891	0.9
2.88901	0.891
2.92911	0.885
2.9692	0.883
3.0093	0.886
3.04939	0.888
3.08949	0.891
3.12958	0.896
3.16968	0.9
3.20978	0.903
3.24987	0.885
3.28997	0.87
3.33006	0.896
3.37016	0.916
3.41025	0.928
3.45035	0.933
3.49045	0.931
3.53054	0.93
3.57064	0.926
3.61073	0.935
3.65083	0.928
3.69092	0.94
3.73102	0.935
3.77112	0.93
3.81121	0.933
3.85131	0.94
3.8914	0.931
3.9315	0.931
3.97159	0.935
4.01169	0.94
4.05179	0.936
4.09188	0.936
4.13198	0.943
4.17207	0.933
4.21217	0.928
4.25226	0.933
4.29236	0.928
4.33246	0.921
4.37255	0.901
4.41265	0.913
4.45274	0.935
4.49284	0.936
4.53293	0.935
4.57303	0.936
4.61313	0.943
4.65322	0.948
4.69332	0.948
4.73341	0.948
4.77351	0.946
4.8136	0.946
4.8537	0.948
4.8938	0.948
4.93389	0.948
4.97399	0.946
5.01408	0.945
5.05418	0.946
5.09427	0.946
5.13437	0.943
5.17447	0.946
5.21456	0.946
5.25466	0.9
5.29475	0.838
5.33485	0.86
5.37494	0.925
5.41504	0.931
5.45514	0.928
5.49523	0.935
5.53533	0.941
5.57542	0.948
5.61552	0.936
5.65561	0.915
5.69571	0.915
5.73581	0.936
5.7759	0.94
5.816	0.941
5.85609	0.946
5.89619	0.951
5.93628	0.948
5.97638	0.938
6.01648	0.923
6.05657	0.896
6.09667	0.843
6.13676	0.83
6.17686	0.846
6.21695	0.85
6.25705	0.773
6.29715	0.686
6.33724	0.593
6.37734	0.501
6.41743	0.488
6.45753	0.49
6.49762	0.485
6.53772	0.581
6.57782	0.641
6.61791	0.686
6.65801	0.726
6.6981	0.75
6.7382	0.661
6.77829	0.366
6.81839	0.21
6.85849	0.798
6.89858	0.835
6.93868	0.801
6.97877	0.823
7.01887	0.836
7.05896	0.828
7.09906	0.875
7.13916	0.831
7.17925	0.653
7.21935	0.505
7.25944	0.83
7.29954	0.87
7.33963	0.895
7.37973	0.908
7.41983	0.903
7.45992	0.913
7.50002	0.935
7.54011	0.933
7.58021	0.931
7.6203	0.93
7.6604	0.925
7.7005	0.895
7.74059	0.881
7.78069	0.91
7.82078	0.935
7.86088	0.93
7.90097	0.921
7.94107	0.893
7.98117	0.908
8.02126	0.933
8.06136	0.931
8.10145	0.915
8.14155	0.9
8.18164	0.895
8.22174	0.896
8.26184	0.921
8.30193	0.931
8.34203	0.931
8.38212	0.926
8.42222	0.918
8.46231	0.891
8.50241	0.85
8.54251	0.841
8.5826	0.885
8.6227	0.913
8.66279	0.916
8.70289	0.918
8.74298	0.918
8.78308	0.911
8.82318	0.905
8.86327	0.896
8.90337	0.875
8.94346	0.841
8.98356	0.768
9.02365	0.648
9.06375	0.5
9.10385	0.35
9.14394	0.226
9.18404	0.113
9.22413	0.063
9.26423	0.3
9.30432	0.578
9.34442	0.725
9.38452	0.813
9.42461	0.856
9.46471	0.886
9.5048	0.898
9.5449	0.903
9.58499	0.908
9.62509	0.906
9.66519	0.906
9.70528	0.903
9.74538	0.895
9.78547	0.876
9.82557	0.766
9.86566	0.501
9.90576	0.196
9.94586	0.205
9.98595	0.688
10.026	0.885
10.0661	0.915
10.1062	0.926
10.1463	0.93
10.1864	0.933
10.2265	0.933
10.2666	0.931
10.3067	0.926
10.3468	0.926
10.3869	0.92
10.427	0.906
10.4671	0.898
10.5072	0.896
10.5473	0.896
10.5874	0.896
10.6275	0.896
10.6676	0.896
10.7077	0.896
10.7478	0.9
10.7879	0.916
10.828	0.923
10.8681	0.926
10.9082	0.928
10.9482	0.928
10.9883	0.93
11.0284	0.93
11.0685	0.925
11.1086	0.92
11.1487	0.913
11.1888	0.905
11.2289	0.895
11.269	0.883
11.3091	0.866
11.3492	0.846
11.3893	0.828
11.4294	0.82
11.4695	0.808
11.5096	0.796
11.5497	0.781
11.5898	0.768
11.6299	0.755
11.67	0.745
11.7101	0.736
11.7502	0.735
11.7903	0.743
11.8304	0.765
11.8705	0.785
11.9105	0.788
11.9506	0.78
11.9907	0.756
12.0308	0.691
12.0709	0.556
12.111	0.396
12.1511	0.198
12.1912	0.068
12.2313	0.07
12.2714	0.09
12.3115	0.075
12.3516	0.053
12.3917	0.186
12.4318	0.453
12.4719	0.636
12.512	0.721
12.5521	0.783
12.5922	0.816
12.6323	0.828
12.6724	0.838
12.7125	0.845
12.7526	0.851
12.7927	0.855
12.8327	0.856
12.8728	0.86
12.9129	0.858
12.953	0.858
12.9931	0.858
13.0332	0.858
13.0733	0.856
13.1134	0.855
13.1535	0.85
13.1936	0.838
13.2337	0.825
13.2738	0.801
13.3139	0.763
13.354	0.703
13.3941	0.606
13.4342	0.526
13.4743	0.508
13.5144	0.586
13.5545	0.696
13.5946	0.77
13.6347	0.795
13.6748	0.803
13.7149	0.81
13.7549	0.808
13.795	0.806
13.8351	0.805
13.8752	0.8
13.9153	0.795
13.9554	0.788
13.9955	0.781
14.0356	0.771
14.0757	0.758
14.1158	0.746
14.1559	0.731
14.196	0.721
14.2361	0.72
14.2762	0.72
14.3163	0.72
14.3564	0.716
14.3965	0.711
14.4366	0.706
14.4767	0.7
14.5168	0.696
14.5569	0.695
14.597	0.69
14.6371	0.685
14.6772	0.678
14.7172	0.673
14.7573	0.665
14.7974	0.655
14.8375	0.646
14.8776	0.641
14.9177	0.633
14.9578	0.626
14.9979	0.621
15.038	0.615
15.0781	0.6
15.1182	0.588
15.1583	0.58
15.1984	0.57
15.2385	0.558
15.2786	0.55
15.3187	0.543
15.3588	0.536
15.3989	0.533
15.439	0.526
15.4791	0.52
15.5192	0.515
15.5593	0.511
15.5994	0.508
15.6394	0.503
15.6795	0.498
15.7196	0.496
15.7597	0.495
15.7998	0.49
15.8399	0.488
15.88	0.485
15.9201	0.488
