Infrared Spectrum: 3,4,5-Trimethoxybenzamide
Formula: C 10 H 13 N O 4
CAS: 3086-62-2
State: gas
Origin: EPA-IR VAPOR PHASE LIBRARY
1/CM	ABSORBANCE
549.8	0.0008484
559.445	0.00053411
569.09	0.0004649
578.734	0.0009117
588.379	0.0012199
598.024	0.0010904
607.669	0.001537
617.313	0.002217
626.958	0.002667
636.603	0.002227
646.248	0.001747
655.893	0.001557
665.537	0.0012894
675.182	0.0011281
684.827	0.0012962
694.472	0.0012643
704.116	0.0011151
713.761	0.001507
723.406	0.0014216
733.051	0.001657
742.695	0.002217
752.34	0.002957
761.985	0.003197
771.63	0.002277
781.275	0.002067
790.919	0.0012857
800.564	0.00129
810.209	0.0012866
819.854	0.0014233
829.498	0.0014216
839.143	0.0012847
848.788	0.0014246
858.433	0.001587
868.078	0.002107
877.722	0.001567
887.367	0.001517
897.012	0.0012968
906.657	0.001787
916.301	0.001577
925.946	0.001697
935.591	0.001667
945.236	0.0013601
954.88	0.0011842
964.525	0.0011886
974.17	0.001266
983.815	0.001527
993.46	0.002247
1003.1	0.004307
1012.75	0.006217
1022.39	0.004977
1032.04	0.003827
1041.68	0.003507
1051.33	0.001867
1060.97	0.002987
1070.62	0.003287
1080.26	0.004567
1089.91	0.006257
1099.55	0.009337
1109.2	0.012637
1118.84	0.014677
1128.49	0.013197
1138.13	0.009357
1147.78	0.005717
1157.42	0.003457
1167.07	0.003047
1176.71	0.003807
1186.36	0.004287
1196	0.003337
1205.64	0.004067
1215.29	0.006537
1224.93	0.010737
1234.58	0.009977
1244.22	0.007337
1253.87	0.004467
1263.51	0.003447
1273.16	0.002907
1282.8	0.002977
1292.45	0.003157
1302.09	0.002927
1311.74	0.002827
1321.38	0.003377
1331.03	0.005387
1340.67	0.012197
1350.32	0.026747
1359.96	0.025707
1369.61	0.009417
1379.25	0.004537
1388.9	0.004347
1398.54	0.007347
1408.18	0.011787
1417.83	0.008817
1427.47	0.004637
1437.12	0.003567
1446.76	0.003697
1456.41	0.005117
1466.05	0.005647
1475.7	0.005087
1485.34	0.006037
1494.99	0.008457
1504.63	0.006787
1514.28	0.003317
1523.92	0.002267
1533.57	0.002207
1543.21	0.002487
1552.86	0.003597
1562.5	0.005617
1572.15	0.010187
1581.79	0.016247
1591.44	0.012697
1601.08	0.006467
1610.73	0.003507
1620.37	0.002397
1630.01	0.001787
1639.66	0.001557
1649.3	0.001577
1658.95	0.0014781
1668.59	0.001797
1678.24	0.002727
1687.88	0.003587
1697.53	0.004467
1707.17	0.011557
1716.82	0.019827
1726.46	0.009257
1736.11	0.003837
1745.75	0.003587
1755.4	0.002947
1765.04	0.001527
1774.69	0.0009311
1784.33	0.0007646
1793.98	0.0006662
1803.62	0.00056093
1813.27	0.00057795
1822.91	0.00053326
1832.55	0.00048546
1842.2	0.0004169
1851.84	0.0004635
1861.49	0.00049846
1871.13	0.0004168
1880.78	0.0004182
1890.42	0.000362
1900.07	0.0004054
1909.71	0.000379
1919.36	0.0003927
1929	0.0004187
1938.65	0.0004728
1948.29	0.0005729
1957.94	0.00055692
1967.58	0.00058465
1977.23	0.00053913
1986.87	0.00058218
1996.52	0.0005564
2006.16	0.00058313
2015.81	0.0006517
2025.45	0.0005924
2035.1	0.0004399
2044.74	0.0004603
2054.38	0.0003884
2064.03	0.000344
2073.67	0.0003889
2083.32	0.000322
2092.96	0.000243
2102.61	0.000343
2112.25	0.000346
2121.9	0.000387
2131.54	0.000439
2141.19	0.0004626
2150.83	0.00047795
2160.48	0.0003899
2170.12	0.00047971
2179.77	0.0004013
2189.41	0.0003901
2199.06	0.000325
2208.7	0.0004751
2218.35	0.0004587
2227.99	0.0004572
2237.64	0.0004099
2247.28	0.000314
2256.92	0.0003921
2266.57	0.000241
2276.21	0.000268
2285.86	0.000273
2295.5	0.000222
2305.15	0.000313
2314.79	0.00027
2324.44	0.000303
2334.08	0.000349
2343.73	0.000339
2353.37	0.000271
2363.02	0.000334
2372.66	0.000369
2382.31	0.000235
2391.95	0.000293
2401.6	0.000274
2411.24	0.000281
2420.89	0.000352
2430.53	0.000335
2440.18	0.0004438
2449.82	0.000353
2459.47	0.000348
2469.11	0.000358
2478.75	0.0004067
2488.4	0.0004171
2498.04	0.000294
2507.69	0.000368
2517.33	0.000315
2526.98	0.000296
2536.62	0.00033
2546.27	0.000384
2555.91	0.000264
2565.56	0.000338
2575.2	0.0003915
2584.85	0.0004626
2594.49	0.000442
2604.14	0.000339
2613.78	0.000389
2623.43	0.0004114
2633.07	0.000222
2642.72	0.000398
2652.36	0.000248
2662.01	0.00037
2671.65	0.000274
2681.29	0.000354
2690.94	0.000289
2700.58	0.0004453
2710.23	0.0003996
2719.87	0.00028
2729.52	0.000383
2739.16	0.0004275
2748.81	0.000337
2758.45	0.000362
2768.1	0.000377
2777.74	0.00054334
2787.39	0.000417
2797.03	0.00051769
2806.68	0.0008109
2816.32	0.0010521
2825.97	0.0013941
2835.61	0.002877
2845.26	0.003277
2854.9	0.002337
2864.55	0.002177
2874.19	0.002207
2883.84	0.002187
2893.48	0.002267
2903.12	0.002297
2912.77	0.002517
2922.41	0.002927
2932.06	0.004037
2941.7	0.006327
2951.35	0.006847
2960.99	0.004577
2970.64	0.003797
2980.28	0.003097
2989.93	0.003237
2999.57	0.003887
3009.22	0.004217
3018.86	0.002607
3028.51	0.001567
3038.15	0.0011463
3047.8	0.0012273
3057.44	0.0011173
3067.09	0.0008512
3076.73	0.0010241
3086.38	0.0008635
3096.02	0.0006749
3105.67	0.00055162
3115.31	0.000492915
3124.95	0.000491132
3134.6	0.00054462
3144.24	0.000322
3153.89	0.000328
3163.53	0.000217
3173.18	0.000345
3182.82	0.000245
3192.47	0.000241
3202.11	0.00016
3211.76	0.00027
3221.4	0.000221
3231.05	0.000406
3240.69	0.000244
3250.34	0.000185
3259.98	0.00024
3269.63	4.7e-05
3279.27	0.000155
3288.92	0.000273
3298.56	0.000244
3308.21	0.000109
3317.85	0.000252
3327.49	0.000114
3337.14	0.0004125
3346.78	0.000196
3356.43	0.000203
3366.07	0.000305
3375.72	0.000188
3385.36	0.000366
3395.01	0.000461
3404.65	0.0007178
3414.3	0.0009895
3423.94	0.001637
3433.59	0.002177
3443.23	0.0012111
3452.88	0.0007534
3462.52	0.0004525
3472.17	0.0004312
3481.81	0.00053971
3491.46	0.0005891
3501.1	0.000317
3510.75	0.000490333
3520.39	0.0006986
3530.04	0.0010095
3539.68	0.0014298
3549.32	0.001637
3558.97	0.0011509
3568.61	0.0006159
3578.26	0.0004021
3587.9	0.000351
3597.55	0.000315
3607.19	0.000327
3616.84	0.000372
3626.48	0.0003982
3636.13	0.000251
3645.77	0.000293
3655.42	0.00033
3665.06	0.000335
3674.71	0.0004228
3684.35	0.000213
3694	0.000143
3703.64	0.000346
3713.29	0.000239
3722.93	0.000285
3732.58	0.000137
3742.22	0.000311
3751.86	0.000142
3761.51	0.000407
3771.15	0.000283
3780.8	0.000147
3790.44	0.00018
3800.09	0.0003
3809.73	0.000319
3819.38	0.000267
3829.02	0.00015
3838.67	0.00034
3848.31	0.000274
3857.96	0.000275
3867.6	0.000228
3877.25	0.000299
3886.89	0.000317
3896.54	0.000133
3906.18	0.000276
3915.83	0.000143
3925.47	0.000183
3935.12	0.000298
3944.76	0.000204
3954.41	0.000321
3964.05	0.0004032
3973.69	0.000318
3983.34	0.0004389
3992.98	0.000488124
