Infrared Spectrum: NONYL BORIC ACID
Formula: C9 H21 O2 B
CAS: 3088-78-6
State: LIQUID
Class: COBLENTZ
Instrument: Not specified, most likely a grating spectrometer.
Sampling: TRANSMISSION
Path length: 0.0020 CM
Resolution: 4
Origin: STANDARD OIL OF OHIO
MICROMETERS	TRANSMITTANCE
2.027	0.974
2.06077	0.974
2.09453	0.972
2.1283	0.972
2.16207	0.972
2.19583	0.969
2.2296	0.966
2.26337	0.944
2.29713	0.92
2.3309	0.9
2.36467	0.912
2.39843	0.92
2.4322	0.922
2.46597	0.925
2.49973	0.939
2.5335	0.947
2.56727	0.945
2.60103	0.951
2.6348	0.945
2.66857	0.94
2.70233	0.903
2.7361	0.761
2.76987	0.645
2.80363	0.53
2.8374	0.344
2.87117	0.236
2.90493	0.177
2.9387	0.168
2.97247	0.184
3.00623	0.256
3.04	0.393
3.07377	0.476
3.10753	0.548
3.1413	0.631
3.17506	0.699
3.20883	0.75
3.2426	0.78
3.27636	0.756
3.31013	0.574
3.3439	0.163
3.37766	0.015
3.41143	0.011
3.4452	0.025
3.47896	0.087
3.51273	0.439
3.5465	0.646
3.58026	0.788
3.61403	0.827
3.6478	0.837
3.68156	0.839
3.71533	0.871
3.7491	0.883
3.78286	0.888
3.81663	0.893
3.8504	0.896
3.88416	0.903
3.91793	0.917
3.9517	0.925
3.98546	0.934
4.01923	0.937
4.053	0.935
4.08676	0.934
4.12053	0.932
4.1543	0.927
4.18806	0.923
4.22183	0.923
4.2556	0.929
4.28936	0.929
4.32313	0.929
4.3569	0.923
4.39066	0.922
4.42443	0.925
4.4582	0.929
4.49196	0.927
4.52573	0.92
4.5595	0.915
4.59326	0.913
4.62703	0.913
4.6608	0.917
4.69456	0.918
4.72833	0.918
4.7621	0.92
4.79586	0.92
4.82963	0.925
4.8634	0.929
4.89716	0.927
4.93093	0.929
4.9647	0.929
4.99846	0.929
5.03223	0.932
5.066	0.935
5.09976	0.935
5.13353	0.937
5.1673	0.94
5.20106	0.939
5.23483	0.944
5.2686	0.944
5.30236	0.942
5.33613	0.942
5.36989	0.942
5.40366	0.942
5.43743	0.942
5.47119	0.942
5.50496	0.94
5.53873	0.94
5.57249	0.94
5.60626	0.937
5.64003	0.932
5.67379	0.927
5.70756	0.923
5.74133	0.917
5.77509	0.905
5.80886	0.893
5.84263	0.873
5.87639	0.853
5.91016	0.826
5.94393	0.795
5.97769	0.777
6.01146	0.761
6.04523	0.746
6.07899	0.736
6.11276	0.738
6.14653	0.761
6.18029	0.795
6.21406	0.815
6.24783	0.831
6.28159	0.841
6.31536	0.846
6.34913	0.851
6.38289	0.853
6.41666	0.853
6.45043	0.846
6.48419	0.844
6.51796	0.837
6.55173	0.822
6.58549	0.805
6.61926	0.775
6.65303	0.722
6.68679	0.667
6.72056	0.547
6.75433	0.332
6.78809	0.074
6.82186	0.062
6.85563	0.097
6.88939	0.184
6.92316	0.28
6.95693	0.329
6.99069	0.314
7.02446	0.194
7.05823	0.101
7.09199	0.008
7.12576	0.006
7.15953	0.003
7.19329	0.003
7.22706	0.003
7.26083	0.003
7.29459	0.003
7.32836	0.003
7.36213	0.003
7.39589	0.005
7.42966	0.005
7.46343	0.008
7.49719	0.01
7.53096	0.01
7.56472	0.015
7.59849	0.023
7.63226	0.035
7.66602	0.079
7.69979	0.133
7.73356	0.175
7.76732	0.236
7.80109	0.261
7.83486	0.277
7.86862	0.282
7.90239	0.275
7.93616	0.275
7.96992	0.27
8.00369	0.265
8.03746	0.265
8.07122	0.27
8.10499	0.282
8.13876	0.29
8.17252	0.298
8.20629	0.3
8.24006	0.297
8.27382	0.287
8.30759	0.283
8.34136	0.29
8.37512	0.317
8.40889	0.351
8.44266	0.383
8.47642	0.41
8.51019	0.43
8.54396	0.437
8.57772	0.445
8.61149	0.451
8.64526	0.451
8.67902	0.442
8.71279	0.439
8.74656	0.44
8.78032	0.445
8.81409	0.457
8.84786	0.471
8.88162	0.483
8.91539	0.498
8.94916	0.501
8.98292	0.506
9.01669	0.506
9.05046	0.508
9.08422	0.518
9.11799	0.53
9.15176	0.53
9.18552	0.528
9.21929	0.525
9.25306	0.513
9.28682	0.51
9.32059	0.513
9.35436	0.513
9.38812	0.516
9.42189	0.523
9.45566	0.525
9.48942	0.527
9.52319	0.525
9.55696	0.525
9.59072	0.527
9.62449	0.53
9.65826	0.532
9.69202	0.532
9.72579	0.532
9.75955	0.532
9.79332	0.525
9.82709	0.523
9.86085	0.527
9.89462	0.533
9.92839	0.55
9.96215	0.559
9.99592	0.572
10.0297	0.587
10.0635	0.597
10.0972	0.604
10.131	0.613
10.1648	0.619
10.1985	0.63
10.2323	0.638
10.2661	0.643
10.2998	0.648
10.3336	0.643
10.3674	0.643
10.4011	0.65
10.4349	0.655
10.4687	0.67
10.5024	0.679
10.5362	0.687
10.57	0.692
10.6037	0.699
10.6375	0.706
10.6713	0.709
10.705	0.714
10.7388	0.717
10.7726	0.717
10.8063	0.717
10.8401	0.712
10.8739	0.711
10.9076	0.722
10.9414	0.734
10.9752	0.744
11.0089	0.753
11.0427	0.756
11.0765	0.758
11.1102	0.758
11.144	0.758
11.1778	0.753
11.2115	0.753
11.2453	0.751
11.2791	0.76
11.3128	0.763
11.3466	0.766
11.3804	0.768
11.4141	0.768
11.4479	0.768
11.4817	0.765
11.5154	0.761
11.5492	0.756
11.583	0.755
11.6167	0.755
11.6505	0.755
11.6843	0.748
11.718	0.741
11.7518	0.736
11.7856	0.733
11.8193	0.726
11.8531	0.721
11.8869	0.717
11.9206	0.711
11.9544	0.704
11.9882	0.701
12.0219	0.694
12.0557	0.684
12.0895	0.677
12.1232	0.673
12.157	0.667
12.1908	0.663
12.2245	0.662
12.2583	0.655
12.2921	0.653
12.3258	0.65
12.3596	0.646
12.3934	0.64
12.4271	0.631
12.4609	0.616
12.4947	0.597
12.5284	0.569
12.5622	0.554
12.596	0.552
12.6297	0.569
12.6635	0.584
12.6973	0.592
12.731	0.587
12.7648	0.576
12.7986	0.567
12.8323	0.557
12.8661	0.55
12.8999	0.543
12.9336	0.535
12.9674	0.53
13.0012	0.528
13.0349	0.525
13.0687	0.525
13.1024	0.521
13.1362	0.523
13.17	0.521
13.2037	0.515
13.2375	0.51
13.2713	0.503
13.305	0.494
13.3388	0.488
13.3726	0.479
13.4063	0.469
13.4401	0.462
13.4739	0.456
13.5076	0.447
13.5414	0.442
13.5752	0.439
13.6089	0.439
13.6427	0.44
13.6765	0.444
13.7102	0.445
13.744	0.454
13.7778	0.467
13.8115	0.478
13.8453	0.493
13.8791	0.508
13.9128	0.532
13.9466	0.55
13.9804	0.564
14.0141	0.577
14.0479	0.586
14.0817	0.596
14.1154	0.603
14.1492	0.611
14.183	0.616
14.2167	0.619
14.2505	0.619
14.2843	0.621
14.318	0.623
14.3518	0.623
14.3856	0.621
14.4193	0.618
14.4531	0.618
14.4869	0.619
14.5206	0.623
14.5544	0.621
14.5882	0.623
14.6219	0.621
14.6557	0.621
14.6895	0.621
14.7232	0.623
14.757	0.619
14.7908	0.618
14.8245	0.618
14.8583	0.619
14.8921	0.623
14.9258	0.626
14.9596	0.631
14.9934	0.64
15.0271	0.641
15.0609	0.638
15.0947	0.638
15.1284	0.641
15.1622	0.645
15.196	0.648
15.2297	0.65
