Infrared Spectrum: 1-PIPERIDINE PROPIONITRILE
Formula: C8 H14 N2
CAS: 3088-41-3
State: SOLUTION (10% CCl4 FOR 5000-1330, 10% CS2 FOR 1330-625 CM^-^1)
Class: COBLENTZ
Instrument: Not specified, most likely a prism, grating, or hybrid spectrometer.
Sampling: TRANSMISSION
Path length: 0.012 CM, 0.011 CM
Resolution: 4
Origin: DOW CHEMICAL COMPANY
MICROMETERS	TRANSMITTANCE
2.034	0.898
2.07512	0.907
2.11624	0.902
2.15735	0.904
2.19847	0.892
2.23959	0.871
2.28071	0.869
2.32182	0.876
2.36294	0.88
2.40406	0.881
2.44518	0.881
2.4863	0.881
2.52741	0.881
2.56853	0.893
2.60965	0.902
2.65077	0.89
2.69188	0.89
2.733	0.873
2.77412	0.852
2.81524	0.806
2.85636	0.782
2.89747	0.763
2.93859	0.761
2.97971	0.763
3.02083	0.789
3.06194	0.792
3.10306	0.796
3.14418	0.808
3.1853	0.821
3.22642	0.816
3.26753	0.803
3.30865	0.746
3.34977	0.518
3.39089	0.059
3.432	0.291
3.47312	0.321
3.51424	0.261
3.55536	0.193
3.59648	0.241
3.63759	0.361
3.67871	0.532
3.71983	0.571
3.76095	0.702
3.80206	0.763
3.84318	0.789
3.8843	0.83
3.92542	0.839
3.96654	0.851
4.00765	0.857
4.04877	0.875
4.08989	0.871
4.13101	0.878
4.17212	0.88
4.21324	0.876
4.25436	0.878
4.29548	0.88
4.3366	0.861
4.37771	0.835
4.41883	0.672
4.45995	0.827
4.50107	0.878
4.54218	0.878
4.5833	0.88
4.62442	0.89
4.66554	0.892
4.70666	0.9
4.74777	0.893
4.78889	0.898
4.83001	0.897
4.87113	0.895
4.91225	0.895
4.95336	0.895
4.99448	0.897
5.0356	0.898
5.07672	0.905
5.11783	0.909
5.15895	0.909
5.20007	0.904
5.24119	0.898
5.28231	0.898
5.32342	0.898
5.36454	0.897
5.40566	0.904
5.44678	0.91
5.48789	0.912
5.52901	0.909
5.57013	0.909
5.61125	0.912
5.65237	0.912
5.69348	0.905
5.7346	0.898
5.77572	0.888
5.81684	0.849
5.85795	0.857
5.89907	0.881
5.94019	0.868
5.98131	0.852
6.02243	0.839
6.06354	0.828
6.10466	0.813
6.14578	0.794
6.1869	0.773
6.22801	0.724
6.26913	0.655
6.31025	0.626
6.35137	0.595
6.39249	0.554
6.4336	0.503
6.47472	0.5
6.51584	0.59
6.55696	0.633
6.59807	0.683
6.63919	0.731
6.68031	0.767
6.72143	0.768
6.76255	0.604
6.80366	0.419
6.84478	0.482
6.8859	0.359
6.92702	0.395
6.96813	0.544
7.00925	0.571
7.05037	0.683
7.09149	0.722
7.13261	0.684
7.17372	0.66
7.21484	0.515
7.25596	0.46
7.29708	0.589
7.33819	0.472
7.37931	0.349
7.42043	0.628
7.46155	0.606
7.50267	0.546
7.54378	0.589
7.5849	0.534
7.62602	0.467
7.66714	0.496
7.70825	0.561
7.74937	0.604
7.79049	0.556
7.83161	0.513
7.87273	0.547
7.91384	0.506
7.95496	0.5
7.99608	0.65
8.0372	0.643
8.07831	0.645
8.11943	0.683
8.16055	0.736
8.20167	0.751
8.24279	0.756
8.2839	0.751
8.32502	0.734
8.36614	0.678
8.40726	0.648
8.44837	0.688
8.48949	0.667
8.53061	0.599
8.57173	0.505
8.61285	0.345
8.65396	0.306
8.69508	0.621
8.7362	0.71
8.77732	0.715
8.81843	0.619
8.85955	0.467
8.90067	0.258
8.94179	0.167
8.98291	0.188
9.02402	0.407
9.06514	0.635
9.10626	0.72
9.14738	0.767
9.18849	0.779
9.22961	0.787
9.27073	0.785
9.31185	0.779
9.35297	0.777
9.39408	0.772
9.4352	0.761
9.47632	0.748
9.51744	0.696
9.55855	0.551
9.59967	0.417
9.64079	0.486
9.68191	0.589
9.72303	0.573
9.76414	0.58
9.80526	0.63
9.84638	0.648
9.8875	0.652
9.92862	0.66
9.96973	0.667
10.0109	0.671
10.052	0.607
10.0931	0.592
10.1342	0.7
10.1753	0.77
10.2164	0.789
10.2576	0.791
10.2987	0.789
10.3398	0.75
10.3809	0.686
10.422	0.707
10.4631	0.785
10.5043	0.801
10.5454	0.806
10.5865	0.804
10.6276	0.77
10.6687	0.748
10.7099	0.77
10.751	0.801
10.7921	0.808
10.8332	0.797
10.8743	0.801
10.9154	0.792
10.9566	0.751
10.9977	0.736
11.0388	0.76
11.0799	0.767
11.121	0.765
11.1621	0.765
11.2033	0.773
11.2444	0.775
11.2855	0.775
11.3266	0.763
11.3677	0.739
11.4089	0.729
11.45	0.707
11.4911	0.672
11.5322	0.604
11.5733	0.508
11.6144	0.462
11.6556	0.542
11.6967	0.604
11.7378	0.642
11.7789	0.676
11.82	0.703
11.8612	0.743
11.9023	0.767
11.9434	0.779
11.9845	0.791
12.0256	0.797
12.0667	0.797
12.1079	0.794
12.149	0.791
12.1901	0.791
12.2312	0.792
12.2723	0.789
12.3134	0.779
12.3546	0.763
12.3957	0.756
12.4368	0.768
12.4779	0.777
12.519	0.777
12.5602	0.775
12.6013	0.76
12.6424	0.731
12.6835	0.695
12.7246	0.652
12.7657	0.65
12.8069	0.681
12.848	0.698
12.8891	0.7
12.9302	0.69
12.9713	0.662
13.0124	0.647
13.0536	0.645
13.0947	0.654
13.1358	0.657
13.1769	0.636
13.218	0.571
13.2592	0.525
13.3003	0.541
13.3414	0.594
13.3825	0.643
13.4236	0.666
13.4647	0.686
13.5059	0.7
13.547	0.707
13.5881	0.712
13.6292	0.712
13.6703	0.712
13.7115	0.712
13.7526	0.707
13.7937	0.707
13.8348	0.703
13.8759	0.698
13.917	0.696
13.9582	0.691
13.9993	0.684
14.0404	0.681
14.0815	0.676
14.1226	0.672
14.1637	0.664
14.2049	0.657
14.246	0.652
14.2871	0.645
14.3282	0.64
14.3693	0.636
14.4105	0.626
14.4516	0.625
14.4927	0.618
14.5338	0.611
14.5749	0.604
14.616	0.595
14.6572	0.585
14.6983	0.578
14.7394	0.57
14.7805	0.561
14.8216	0.554
14.8627	0.549
14.9039	0.542
14.945	0.534
14.9861	0.529
15.0272	0.523
15.0683	0.51
15.1095	0.5
15.1506	0.488
15.1917	0.477
15.2328	0.467
15.2739	0.455
15.315	0.45
15.3562	0.445
15.3973	0.441
15.4384	0.434
15.4795	0.433
15.5206	0.429
15.5618	0.426
15.6029	0.422
15.644	0.421
15.6851	0.417
15.7262	0.417
15.7673	0.417
15.8085	0.419
15.8496	0.419
15.8907	0.419
