Infrared Spectrum: Propionic acid, 2,2-dichloro-3,3,3-trifluoro-, n-butyl ester
Formula: C7 H9 Cl2 F3 O2
CAS: 309-23-9
State: LIQUID (NEAT)
Class: COBLENTZ III
Instrument: BAIRD (GRATING)
Instrument parameters: NaCl PRISM
Sampling: TRANSMISSION
Path length: 0.003 CM
Resolution: 2
Origin: WYANDOTTE CHEMICALS CORP..
1/CM	TRANSMITTANCE
626	0.7529
635	0.7711
644	0.7637
653	0.6865
662	0.5593
671	0.5614
680	0.574
689	0.5369
698	0.3975
707	0.2572
716	0.372
725	0.5359
734	0.5427
743	0.5918
752	0.7328
761	0.783
770	0.7069
779	0.5352
788	0.5218
797	0.7024
806	0.7394
815	0.6963
824	0.6563
833	0.6205
842	0.5896
851	0.7144
860	0.6555
869	0.3942
878	0.0365
887	0.1164
896	0.2371
905	0.3689
914	0.3343
923	0.3457
932	0.3473
941	0.2096
950	0.1272
959	0.1701
968	0.3361
977	0.4398
986	0.3985
995	0.2206
1004	0.1232
1013	0.0892
1022	0.062
1031	0.1689
1040	0.3936
1049	0.5495
1058	0.2767
1067	0.3682
1076	0.4704
1085	0.6756
1094	0.696
1103	0.7056
1112	0.6834
1121	0.5755
1130	0.4437
1139	0.5097
1148	0.5715
1157	0.4958
1166	0.423
1175	0.2457
1184	0.0942
1193	0.0097
1202	0.0093
1211	0.0101
1220	0.0114
1229	0.0083
1238	0.0099
1247	0.008
1256	0.01
1265	0.0078
1274	0.0094
1283	0.0099
1292	0.0249
1301	0.0815
1310	0.1523
1319	0.2594
1328	0.432
1337	0.4607
1346	0.554
1355	0.5936
1364	0.6103
1373	0.6729
1382	0.6485
1391	0.4795
1400	0.4934
1409	0.7133
1418	0.7514
1427	0.737
1436	0.7384
1445	0.6619
1454	0.6583
1463	0.5286
1472	0.3557
1481	0.2762
1490	0.5157
1499	0.7385
1508	0.8381
1517	0.8601
1526	0.8733
1535	0.8827
1544	0.8927
1553	0.8929
1562	0.8963
1571	0.8907
1580	0.8922
1589	0.8944
1598	0.8902
1607	0.8858
1616	0.8811
1625	0.8753
1634	0.8669
1643	0.8586
1652	0.8623
1661	0.8711
1670	0.8724
1679	0.8709
1688	0.8675
1697	0.8591
1706	0.8408
1715	0.8215
1724	0.8118
1733	0.6736
1742	0.6114
1751	0.3312
1760	0.039
1769	0.0229
1778	0.0456
1787	0.2182
1796	0.472
1805	0.6945
1814	0.7707
1823	0.8557
1832	0.8947
1841	0.9113
1850	0.9181
1859	0.9264
1868	0.93
1877	0.94
1886	0.9449
1895	0.9475
1904	0.95
1913	0.9563
1922	0.9605
1931	0.9594
1940	0.9586
1949	0.9583
1958	0.9579
1967	0.9576
1976	0.9574
1985	0.9569
1994	0.9566
2003	0.9569
2012	0.9571
2021	0.9574
2030	0.9575
2039	0.9575
2048	0.9575
2057	0.9572
2066	0.957
2075	0.9564
2084	0.9557
2093	0.9549
2102	0.952
2111	0.9494
2120	0.9472
2129	0.9462
2138	0.9454
2147	0.9459
2156	0.9465
2165	0.9472
2174	0.949
2183	0.951
2192	0.9531
2201	0.9543
2210	0.955
2219	0.9539
2228	0.952
2237	0.9524
2246	0.955
2255	0.9562
2264	0.952
2273	0.9459
2282	0.9396
2291	0.9338
2300	0.9281
2309	0.9236
2318	0.9209
2327	0.9221
2336	0.9232
2345	0.9232
2354	0.9224
2363	0.9211
2372	0.9187
2381	0.91
2390	0.9024
2399	0.9028
2408	0.904
2417	0.9063
2426	0.909
2435	0.912
2444	0.9149
2453	0.912
2462	0.9089
2471	0.9086
2480	0.91
2489	0.9118
2498	0.9136
2507	0.9154
2516	0.9176
2525	0.9196
2534	0.9213
2543	0.9229
2552	0.9244
2561	0.926
2570	0.9274
2579	0.9278
2588	0.9281
2597	0.9283
2606	0.928
2615	0.9278
2624	0.9274
2633	0.9267
2642	0.9258
2651	0.9249
2660	0.924
2669	0.9214
2678	0.9179
2687	0.9135
2696	0.9097
2705	0.9083
2714	0.9071
2723	0.9062
2732	0.906
2741	0.9006
2750	0.8905
2759	0.8856
2768	0.8816
2777	0.8783
2786	0.876
2795	0.8738
2804	0.8714
2813	0.8684
2822	0.8637
2831	0.8578
2840	0.8456
2849	0.8151
2858	0.7605
2867	0.706
2876	0.6518
2885	0.5585
2894	0.461
2903	0.4163
2912	0.4347
2921	0.4533
2930	0.4514
2939	0.445
2948	0.3969
2957	0.3206
2966	0.253
2975	0.1951
2984	0.1342
2993	0.1017
3002	0.1592
3011	0.285
3020	0.41
3029	0.5528
3038	0.6409
3047	0.7107
3056	0.7801
3065	0.8284
3074	0.8533
3083	0.8735
3092	0.8873
3101	0.8968
3110	0.9064
3119	0.9153
3128	0.9204
3137	0.9246
3146	0.9269
3155	0.9278
3164	0.9284
3173	0.929
3182	0.9298
3191	0.9306
3200	0.9314
3209	0.9318
3218	0.9323
3227	0.9328
3236	0.9332
3245	0.9338
3254	0.9344
3263	0.935
3272	0.9355
3281	0.9362
3290	0.9364
3299	0.9364
3308	0.9365
3317	0.9365
3326	0.9365
3335	0.9365
3344	0.9366
3353	0.9368
3362	0.9371
3371	0.9373
3380	0.9375
3389	0.9377
3398	0.938
3407	0.9384
3416	0.9391
3425	0.9393
3434	0.9386
3443	0.9377
3452	0.9368
3461	0.9354
3470	0.934
3479	0.9325
3488	0.9308
3497	0.9288
3506	0.927
3515	0.9251
3524	0.9231
3533	0.9212
3542	0.9202
3551	0.9202
3560	0.9206
3569	0.9221
3578	0.9265
3587	0.9343
3596	0.9439
3605	0.957
3614	0.9664
3623	0.9706
3632	0.9744
3641	0.978
3650	0.9815
3659	0.9829
3668	0.9837
3677	0.9845
3686	0.9853
3695	0.9862
3704	0.9866
3713	0.9867
3722	0.9869
3731	0.9871
3740	0.9873
3749	0.9875
3758	0.9877
3767	0.9879
3776	0.9878
3785	0.9877
3794	0.9868
3803	0.9875
3812	0.9874
3821	0.9874
3830	0.9873
3839	0.9872
3848	0.9871
3857	0.987
3866	0.9869
3875	0.9868
3884	0.9866
3893	0.9865
3902	0.9863
3911	0.9862
3920	0.9861
3929	0.986
3938	0.9858
3947	0.9857
3956	0.9855
3965	0.9854
3974	0.9853
3983	0.9851
3992	0.985
