Infrared Spectrum: ACETAMIDE, 2,2-DICHLORO-N-[Beta-HYDROXY-Alpha-(HYDROXYMETHYL)-p-[(TRIFLUOROMETHYL)SULFONYL]-PHENETHYL]-, THREO-
Formula: C12 H12 Cl2 F3 N O5 S
CAS: 309-18-2
State: SOLID (OIL MULL)
Class: COBLENTZ III
Instrument: PERKIN-ELMER 21 (GRATING)
Instrument parameters: NaCl PRISM
Sampling: TRANSMISSION
Resolution: 2
Origin: SMITH KLINE & FRENCH LABS.
MICROMETERS	TRANSMITTANCE
2.017	0.628
2.05124	0.628
2.08549	0.628
2.11973	0.628
2.15397	0.649
2.18821	0.647
2.22246	0.657
2.2567	0.678
2.29094	0.661
2.32519	0.651
2.35943	0.668
2.39367	0.672
2.42791	0.674
2.46216	0.676
2.4964	0.683
2.53064	0.695
2.56489	0.699
2.59913	0.702
2.63337	0.718
2.66761	0.721
2.70186	0.713
2.7361	0.704
2.77034	0.665
2.80459	0.325
2.83883	0.28
2.87307	0.21
2.90731	0.242
2.94156	0.405
2.9758	0.572
3.01004	0.565
3.04429	0.317
3.07853	0.193
3.11277	0.221
3.14701	0.433
3.18126	0.551
3.2155	0.516
3.24974	0.314
3.28399	0.345
3.31823	0.472
3.35247	0.419
3.38671	0.158
3.42096	0.092
3.4552	0.104
3.48944	0.129
3.52369	0.181
3.55793	0.535
3.59217	0.667
3.62642	0.717
3.66066	0.722
3.6949	0.742
3.72914	0.758
3.76339	0.751
3.79763	0.762
3.83187	0.778
3.86612	0.794
3.90036	0.806
3.9346	0.825
3.96884	0.833
4.00309	0.824
4.03733	0.84
4.07157	0.836
4.10582	0.831
4.14006	0.829
4.1743	0.84
4.20854	0.84
4.24279	0.839
4.27703	0.838
4.31127	0.85
4.34552	0.852
4.37976	0.861
4.414	0.874
4.44824	0.874
4.48249	0.885
4.51673	0.891
4.55097	0.881
4.58522	0.896
4.61946	0.896
4.6537	0.896
4.68794	0.908
4.72219	0.911
4.75643	0.904
4.79067	0.911
4.82492	0.915
4.85916	0.922
4.8934	0.926
4.92764	0.919
4.96189	0.924
4.99613	0.928
5.03037	0.922
5.06462	0.922
5.09886	0.923
5.1331	0.864
5.16734	0.894
5.20159	0.939
5.23583	0.94
5.27007	0.942
5.30432	0.945
5.33856	0.951
5.3728	0.953
5.40704	0.948
5.44129	0.948
5.47553	0.911
5.50977	0.909
5.54402	0.917
5.57826	0.93
5.6125	0.925
5.64674	0.908
5.68099	0.904
5.71523	0.879
5.74947	0.841
5.78372	0.74
5.81796	0.54
5.8522	0.231
5.88644	0.112
5.92069	0.193
5.95493	0.485
5.98917	0.616
6.02342	0.71
6.05766	0.732
6.0919	0.79
6.12614	0.806
6.16039	0.823
6.19463	0.814
6.22887	0.714
6.26312	0.417
6.29736	0.646
6.3316	0.649
6.36584	0.438
6.40009	0.247
6.43433	0.239
6.46857	0.427
6.50282	0.65
6.53706	0.738
6.5713	0.742
6.60554	0.772
6.63979	0.774
6.67403	0.772
6.70827	0.752
6.74252	0.712
6.77676	0.6
6.811	0.384
6.84525	0.275
6.87949	0.321
6.91373	0.42
6.94797	0.516
6.98222	0.61
7.01646	0.578
7.0507	0.361
7.08495	0.252
7.11919	0.393
7.15343	0.521
7.18767	0.485
7.22192	0.332
7.25616	0.298
7.2904	0.308
7.32465	0.244
7.35889	0.13
7.39313	0.133
7.42737	0.137
7.46162	0.14
7.49586	0.269
7.5301	0.4
7.56435	0.588
7.59859	0.656
7.63283	0.705
7.66707	0.621
7.70132	0.64
7.73556	0.643
7.7698	0.511
7.80405	0.32
7.83829	0.478
7.87253	0.694
7.90677	0.74
7.94102	0.724
7.97526	0.633
8.0095	0.522
8.04375	0.39
8.07799	0.353
8.11223	0.241
8.14647	0.186
8.18072	0.14
8.21496	0.099
8.2492	0.11
8.28345	0.085
8.31769	0.107
8.35193	0.105
8.38617	0.103
8.42042	0.124
8.45466	0.157
8.4889	0.18
8.52315	0.3
8.55739	0.345
8.59163	0.375
8.62587	0.376
8.66012	0.313
8.69436	0.275
8.7286	0.153
8.76285	0.116
8.79709	0.108
8.83133	0.131
8.86557	0.202
8.89982	0.288
8.93406	0.32
8.9683	0.275
9.00255	0.241
9.03679	0.308
9.07103	0.419
9.10527	0.481
9.13952	0.471
9.17376	0.438
9.208	0.366
9.24225	0.298
9.27649	0.259
9.31073	0.185
9.34497	0.136
9.37922	0.148
9.41346	0.237
9.4477	0.31
9.48195	0.349
9.51619	0.403
9.55043	0.39
9.58467	0.422
9.61892	0.275
9.65316	0.131
9.6874	0.164
9.72165	0.353
9.75589	0.528
9.79013	0.639
9.82438	0.708
9.85862	0.686
9.89286	0.68
9.9271	0.797
9.96135	0.819
9.99559	0.84
10.0298	0.852
10.0641	0.879
10.0983	0.874
10.1326	0.883
10.1668	0.903
10.201	0.884
10.2353	0.873
10.2695	0.87
10.3038	0.859
10.338	0.84
10.3723	0.828
10.4065	0.863
10.4407	0.895
10.475	0.901
10.5092	0.904
10.5435	0.903
10.5777	0.912
10.612	0.907
10.6462	0.897
10.6804	0.887
10.7147	0.879
10.7489	0.866
10.7832	0.842
10.8174	0.773
10.8517	0.75
10.8859	0.839
10.9201	0.863
10.9544	0.889
10.9886	0.889
11.0229	0.852
11.0571	0.73
11.0914	0.556
11.1256	0.585
11.1598	0.705
11.1941	0.803
11.2283	0.841
11.2626	0.862
11.2968	0.891
11.3311	0.904
11.3653	0.933
11.3995	0.947
11.4338	0.952
11.468	0.951
11.5023	0.95
11.5365	0.947
11.5708	0.942
11.605	0.898
11.6392	0.752
11.6735	0.595
11.7077	0.697
11.742	0.773
11.7762	0.839
11.8105	0.861
11.8447	0.789
11.8789	0.686
11.9132	0.847
11.9474	0.861
11.9817	0.874
12.0159	0.859
12.0502	0.812
12.0844	0.742
12.1186	0.68
12.1529	0.557
12.1871	0.425
12.2214	0.271
12.2556	0.232
12.2899	0.249
12.3241	0.388
12.3583	0.593
12.3926	0.71
12.4268	0.8
12.4611	0.827
12.4953	0.862
12.5296	0.885
12.5638	0.9
12.598	0.898
12.6323	0.895
12.6665	0.886
12.7008	0.887
12.735	0.879
12.7693	0.844
12.8035	0.818
12.8377	0.751
12.872	0.674
12.9062	0.534
12.9405	0.378
12.9747	0.261
13.009	0.186
13.0432	0.152
13.0774	0.192
13.1117	0.358
13.1459	0.539
13.1802	0.638
13.2144	0.699
13.2487	0.727
13.2829	0.741
13.3171	0.712
13.3514	0.678
13.3856	0.66
13.4199	0.633
13.4541	0.68
13.4884	0.689
13.5226	0.704
13.5568	0.697
13.5911	0.699
13.6253	0.696
13.6596	0.701
13.6938	0.699
13.7281	0.691
13.7623	0.69
13.7965	0.697
13.8308	0.677
13.865	0.658
13.8993	0.609
13.9335	0.538
13.9678	0.442
14.002	0.308
14.0362	0.266
14.0705	0.254
14.1047	0.263
14.139	0.278
14.1732	0.291
14.2075	0.308
14.2417	0.298
14.2759	0.275
14.3102	0.244
14.3444	0.158
14.3787	0.155
14.4129	0.158
14.4472	0.205
14.4814	0.299
14.5156	0.365
14.5499	0.45
14.5841	0.494
14.6184	0.496
14.6526	0.498
14.6869	0.539
14.7211	0.623
14.7553	0.662
14.7896	0.712
14.8238	0.717
14.8581	0.713
14.8923	0.688
14.9266	0.649
14.9608	0.611
14.995	0.59
15.0293	0.477
15.0635	0.408
15.0978	0.381
15.132	0.354
15.1663	0.367
15.2005	0.401
15.2347	0.433
