Infrared Spectrum: 5,8-ENDOMETHYLENE-5,8-DIHYDRO-1,4-NAPHTHOHYDROQUINONE
Formula: C11 H10 O2
CAS: 3090-47-9
State: SOLID (KBr PRESSING)
Melting point: 143-145 C
Class: COBLENTZ
Instrument: Not specified, most likely a prism, grating, or hybrid spectrometer.
Sampling: TRANSMISSION
Resolution: 4
Origin: EASTMAN KODAK COMPANY, RESEARCH LABORATORIES, ROCHESTER, N.Y.
MICROMETERS	TRANSMITTANCE
2	0.671
2.03994	0.669
2.07989	0.661
2.11983	0.664
2.15977	0.667
2.19971	0.666
2.23966	0.667
2.2796	0.669
2.31954	0.672
2.35949	0.671
2.39943	0.674
2.43937	0.677
2.47931	0.679
2.51926	0.68
2.5592	0.685
2.59914	0.69
2.63909	0.7
2.67903	0.7
2.71897	0.7
2.75892	0.672
2.79886	0.595
2.8388	0.513
2.87874	0.449
2.91869	0.371
2.95863	0.299
2.99857	0.241
3.03852	0.169
3.07846	0.131
3.1184	0.12
3.15834	0.121
3.19829	0.152
3.23823	0.199
3.27817	0.24
3.31812	0.299
3.35806	0.3
3.398	0.371
3.43794	0.485
3.47789	0.495
3.51783	0.529
3.55777	0.555
3.59772	0.56
3.63766	0.58
3.6776	0.59
3.71754	0.6
3.75749	0.6
3.79743	0.61
3.83737	0.634
3.87732	0.644
3.91726	0.662
3.9572	0.671
3.99714	0.684
4.03709	0.712
4.07703	0.741
4.11697	0.75
4.15692	0.763
4.19686	0.768
4.2368	0.766
4.27675	0.779
4.31669	0.802
4.35663	0.819
4.39657	0.817
4.43652	0.817
4.47646	0.817
4.5164	0.817
4.55635	0.822
4.59629	0.822
4.63623	0.825
4.67617	0.828
4.71612	0.82
4.75606	0.822
4.796	0.824
4.83595	0.824
4.87589	0.824
4.91583	0.824
4.95577	0.83
4.99572	0.832
5.03566	0.835
5.0756	0.84
5.11555	0.843
5.15549	0.848
5.19543	0.851
5.23537	0.863
5.27532	0.863
5.31526	0.87
5.3552	0.861
5.39515	0.863
5.43509	0.843
5.47503	0.87
5.51498	0.881
5.55492	0.878
5.59486	0.889
5.6348	0.883
5.67475	0.888
5.71469	0.883
5.75463	0.863
5.79458	0.86
5.83452	0.85
5.87446	0.847
5.9144	0.855
5.95435	0.853
5.99429	0.84
6.03423	0.81
6.07418	0.789
6.11412	0.689
6.15406	0.611
6.194	0.7
6.23395	0.652
6.27389	0.754
6.31383	0.83
6.35378	0.842
6.39372	0.791
6.43366	0.83
6.4736	0.83
6.51355	0.847
6.55349	0.84
6.59343	0.828
6.63338	0.7
6.67332	0.059
6.71326	0.22
6.7532	0.44
6.79315	0.549
6.83309	0.501
6.87303	0.231
6.91298	0.228
6.95292	0.281
6.99286	0.44
7.03281	0.493
7.07275	0.611
7.11269	0.708
7.15263	0.741
7.19258	0.75
7.23252	0.728
7.27246	0.71
7.31241	0.692
7.35235	0.629
7.39229	0.55
7.43223	0.5
7.47218	0.562
7.51212	0.62
7.55206	0.62
7.59201	0.56
7.63195	0.501
7.67189	0.432
7.71183	0.154
7.75178	0.401
7.79172	0.597
7.83166	0.656
7.87161	0.621
7.91155	0.391
7.95149	0.19
7.99143	0.457
8.03138	0.486
8.07132	0.342
8.11126	0.18
8.15121	0.098
8.19115	0.07
8.23109	0.09
8.27103	0.19
8.31098	0.297
8.35092	0.342
8.39086	0.432
8.43081	0.531
8.47075	0.6
8.51069	0.643
8.55064	0.68
8.59058	0.687
8.63052	0.592
8.67046	0.444
8.71041	0.565
8.75035	0.68
8.79029	0.753
8.83024	0.789
8.87018	0.731
8.91012	0.763
8.95006	0.753
8.99001	0.574
9.02995	0.705
9.06989	0.82
9.10984	0.84
9.14978	0.833
9.18972	0.8
9.22966	0.842
9.26961	0.863
9.30955	0.87
9.34949	0.871
9.38944	0.878
9.42938	0.879
9.46932	0.889
9.50926	0.891
9.54921	0.888
9.58915	0.888
9.62909	0.891
9.66904	0.888
9.70898	0.889
9.74892	0.875
9.78887	0.819
9.82881	0.84
9.86875	0.881
9.90869	0.891
9.94864	0.891
9.98858	0.856
10.0285	0.652
10.0685	0.631
10.1084	0.802
10.1484	0.883
10.1883	0.902
10.2282	0.917
10.2682	0.922
10.3081	0.922
10.3481	0.925
10.388	0.921
10.428	0.896
10.4679	0.812
10.5078	0.577
10.5478	0.575
10.5877	0.777
10.6277	0.771
10.6676	0.781
10.7076	0.901
10.7475	0.855
10.7874	0.886
10.8274	0.952
10.8673	0.95
10.9073	0.972
10.9472	0.975
10.9872	0.97
11.0271	0.907
11.067	0.822
11.107	0.84
11.1469	0.876
11.1869	0.94
11.2268	0.97
11.2668	0.972
11.3067	0.973
11.3466	0.94
11.3866	0.879
11.4265	0.883
11.4665	0.896
11.5064	0.893
11.5464	0.921
11.5863	0.94
11.6262	0.945
11.6662	0.945
11.7061	0.942
11.7461	0.939
11.786	0.932
11.826	0.922
11.8659	0.919
11.9058	0.902
11.9458	0.889
11.9857	0.87
12.0257	0.851
12.0656	0.822
12.1056	0.773
12.1455	0.682
12.1854	0.432
12.2254	0.263
12.2653	0.394
12.3053	0.342
12.3452	0.284
12.3852	0.24
12.4251	0.215
12.465	0.389
12.505	0.541
12.5449	0.621
12.5849	0.674
12.6248	0.699
12.6648	0.715
12.7047	0.723
12.7446	0.728
12.7846	0.73
12.8245	0.73
12.8645	0.726
12.9044	0.723
12.9444	0.722
12.9843	0.72
13.0242	0.718
13.0642	0.718
13.1041	0.718
13.1441	0.717
13.184	0.72
13.224	0.72
13.2639	0.713
13.3038	0.682
13.3438	0.621
13.3837	0.542
13.4237	0.488
13.4636	0.435
13.5036	0.322
13.5435	0.233
13.5834	0.164
13.6234	0.139
13.6633	0.21
13.7033	0.302
13.7432	0.416
13.7832	0.519
13.8231	0.58
13.863	0.61
13.903	0.639
13.9429	0.652
13.9829	0.662
14.0228	0.671
14.0628	0.674
14.1027	0.675
14.1426	0.664
14.1826	0.659
14.2225	0.638
14.2625	0.626
14.3024	0.62
14.3424	0.631
14.3823	0.669
14.4222	0.69
14.4622	0.699
14.5021	0.703
14.5421	0.705
14.582	0.707
14.622	0.705
14.6619	0.7
14.7018	0.7
14.7418	0.69
14.7817	0.685
14.8217	0.68
14.8616	0.671
14.9016	0.631
14.9415	0.59
14.9814	0.626
15.0214	0.644
15.0613	0.634
15.1013	0.613
15.1412	0.59
15.1812	0.57
15.2211	0.56
15.261	0.559
15.301	0.562
15.3409	0.564
15.3809	0.565
15.4208	0.562
15.4608	0.562
15.5007	0.567
15.5406	0.569
15.5806	0.577
15.6205	0.582
15.6605	0.583
15.7004	0.592
15.7404	0.593
15.7803	0.597
15.8202	0.598
15.8602	0.6
15.9001	0.6
15.9401	0.6
15.98	0.6
