Infrared Spectrum: ESTRADIOL DIPROPIONATE
Formula: C24 H32 O4
CAS: 309267-99-0
State: SOLUTION 1% (CS2 FOR 2-15 microns, AND C2Cl4 FOR 6-7.2 microns)
Class: COBLENTZ III
Instrument: PERKIN-ELMER 21 (GRATING)
Instrument parameters: FILTER AT ABOUT 10 MICRONS
Sampling: TRANSMISSION
Resolution: 2
1/CM	TRANSMITTANCE
4000	0.9775
3991	0.978
3982	0.9784
3973	0.9789
3964	0.9794
3955	0.9799
3946	0.9804
3937	0.9809
3928	0.9814
3919	0.9818
3910	0.9824
3901	0.9828
3892	0.9834
3883	0.9839
3874	0.9844
3865	0.9849
3856	0.9855
3847	0.9862
3838	0.9868
3829	0.9875
3820	0.9882
3811	0.9889
3802	0.9896
3793	0.9903
3784	0.991
3775	0.9917
3766	0.9923
3757	0.9928
3748	0.9933
3739	0.9936
3730	0.9941
3721	0.9946
3712	0.9951
3703	0.9956
3694	0.9961
3685	0.9966
3676	0.9971
3667	0.9974
3658	0.9977
3649	0.9981
3640	0.9984
3631	0.9988
3622	0.9991
3613	0.9994
3604	0.9997
3595	0.9999
3586	1.0002
3577	1.0003
3568	1.0005
3559	1.0002
3550	0.9998
3541	0.9994
3532	0.9991
3523	0.9968
3514	0.9939
3505	0.9918
3496	0.9904
3487	0.989
3478	0.9878
3469	0.9871
3460	0.9864
3451	0.9861
3442	0.9877
3433	0.9893
3424	0.9908
3415	0.9921
3406	0.9936
3397	0.995
3388	0.9964
3379	0.9978
3370	0.9992
3361	1.0003
3352	1.0012
3343	1.002
3334	1.0028
3325	1.0037
3316	1.0043
3307	1.0049
3298	1.0056
3289	1.0061
3280	1.0057
3271	1.0051
3262	1.0042
3253	1.0032
3244	1.0021
3235	1.0011
3226	1
3217	0.9988
3208	0.9977
3199	0.9965
3190	0.9954
3181	0.9936
3172	0.9911
3163	0.9886
3154	0.9857
3145	0.9807
3136	0.9753
3127	0.9696
3118	0.9638
3109	0.9578
3100	0.9513
3091	0.9443
3082	0.9371
3073	0.9296
3064	0.92
3055	0.9102
3046	0.9001
3037	0.8898
3028	0.8774
3019	0.8623
3010	0.8373
3001	0.7197
2992	0.5872
2983	0.4539
2974	0.363
2965	0.3599
2956	0.3542
2947	0.3209
2938	0.2835
2929	0.246
2920	0.2359
2911	0.2534
2902	0.3298
2893	0.4086
2884	0.4426
2875	0.4423
2866	0.4428
2857	0.4492
2848	0.4914
2839	0.534
2830	0.5898
2821	0.6458
2812	0.7025
2803	0.7594
2794	0.8511
2785	0.873
2776	0.8898
2767	0.911
2758	0.923
2749	0.9331
2740	0.9403
2731	0.946
2722	0.9507
2713	0.9547
2704	0.9584
2695	0.9596
2686	0.9596
2677	0.9597
2668	0.9602
2659	0.9606
2650	0.9614
2641	0.9628
2632	0.9642
2623	0.9658
2614	0.9681
2605	0.9705
2596	0.973
2587	0.9757
2578	0.9785
2569	0.982
2560	0.9841
2551	0.9841
2542	0.9833
2533	0.9828
2524	0.983
2515	0.9844
2506	0.9858
2497	0.9875
2488	0.9893
2479	0.9908
2470	0.992
2461	0.993
2452	0.9938
2443	0.9937
2434	0.9911
2425	0.9878
2416	0.9864
2407	0.9866
2398	0.9871
2389	0.9875
2380	0.9883
2371	0.9891
2362	0.9899
2353	0.9902
2344	0.9906
2335	0.9909
2326	0.9907
2317	0.9909
2308	0.9925
2299	0.9943
2290	0.9962
2281	0.9975
2272	0.9985
2263	0.9986
2254	0.9987
2245	0.9991
2236	0.9992
2227	0.9988
2218	0.9988
2209	1.0003
2200	1.003
2191	1.0039
2182	1.003
2173	1.0028
2164	1.0041
2155	1.0055
2146	1.0068
2137	1.0083
2128	1.0101
2119	1.0125
2110	1.0153
2101	1.0171
2092	1.0171
2083	1.002
2074	0.9899
2065	0.9838
2056	0.98
2047	0.9794
2038	0.9843
2029	0.9864
2020	0.9858
2011	0.9859
2002	0.9871
1993	0.9897
1984	0.9916
1975	0.9918
1966	0.9918
1957	0.9921
1948	0.9928
1939	0.9933
1930	0.9936
1921	0.9924
1912	0.9909
1903	0.9861
1894	0.9841
1885	0.9678
1876	0.9571
1867	0.9643
1858	0.9717
1849	0.9731
1840	0.9631
1831	0.9478
1822	0.9286
1813	0.9039
1804	0.8659
1795	0.8188
1786	0.7433
1777	0.5345
1768	0.2009
1759	0.0732
1750	0.1907
1741	0.0626
1732	0.204
1723	0.6227
1714	0.7339
1705	0.7707
1696	0.8096
1687	0.8514
1678	0.8768
1669	0.9034
1660	0.9418
1651	0.9499
1642	0.9509
1633	0.9432
1624	0.902
1615	0.8071
1606	0.8494
1597	0.8893
1588	0.8635
1579	0.8742
1570	0.9095
1561	0.9271
1552	0.9312
1543	0.9332
1534	0.9371
1525	0.9374
1516	0.8778
1507	0.7068
1498	0.3442
1489	0.5759
1480	0.7333
1471	0.6012
1462	0.406
1453	0.554
1444	0.6825
1435	0.6496
1426	0.5979
1417	0.7084
1408	0.8315
1399	0.8203
1390	0.7399
1381	0.541
1372	0.5493
1363	0.5698
1354	0.382
1345	0.3163
1336	0.4586
1327	0.533
1318	0.5799
1309	0.7341
1300	0.7497
1291	0.7307
1282	0.5988
1273	0.4371
1264	0.3929
1255	0.4387
1246	0.4454
1237	0.4748
1228	0.2804
1219	0.1969
1210	0.2226
1201	0.1873
1192	0.0958
1183	0.0456
1174	0.0891
1165	0.1501
1156	0.0639
1147	0.0446
1138	0.0576
1129	0.2492
1120	0.4822
1111	0.591
1102	0.654
1093	0.632
1084	0.4027
1075	0.2989
1066	0.3926
1057	0.465
1048	0.5227
1039	0.5162
1030	0.4974
1021	0.5981
1012	0.4228
1003	0.5697
994	0.6575
985	0.6099
976	0.6896
967	0.7946
958	0.811
949	0.8687
940	0.8866
931	0.8823
922	0.7957
913	0.7697
904	0.6954
895	0.4884
886	0.5879
877	0.7824
868	0.856
859	0.875
850	0.91
841	0.8965
832	0.8883
823	0.7951
814	0.7065
805	0.6986
796	0.7706
787	0.8114
778	0.8391
769	0.9201
760	0.9414
751	0.9266
742	0.9168
733	0.9335
724	0.9474
715	0.9382
706	0.9128
697	0.9436
688	0.946
679	0.9383
670	0.9542
