Infrared Spectrum: NICOTINIC ACID, 6-[N-[(2-ACETAMIDO-3-HYDRO-4-OXO-6-PTERIDINYL)METHYL]ACETAMIDO]
Formula: C17 H15 N7 O5
CAS: 30958-64-6
State: SOLID (1 mg / 650 mg KBr DISC)
Class: COBLENTZ III
Instrument: PERKIN-ELMER 521 (GRATING)
Instrument parameters: FILTER CHANGE AT 3130, 2475, 2000,M 1150, 700, 410 CM^-^1, GRATING CHANGES AT 2000, 620 CM^-^1
Sampling: TRANSMISSION
Resolution: 4
Origin: SOUTHERN RESEARCH INST.
1/CM	TRANSMITTANCE
254.312	0.434
263.345	0.473
272.377	0.542
281.41	0.593
290.443	0.633
299.475	0.675
308.508	0.68
317.54	0.676
326.573	0.692
335.606	0.715
344.638	0.729
353.671	0.753
362.704	0.772
371.736	0.779
380.769	0.779
389.801	0.772
398.834	0.758
407.867	0.742
416.899	0.756
425.932	0.77
434.965	0.769
443.997	0.702
453.03	0.71
462.063	0.787
471.095	0.787
480.128	0.774
489.16	0.764
498.193	0.744
507.226	0.733
516.258	0.697
525.291	0.742
534.324	0.76
543.356	0.729
552.389	0.68
561.422	0.739
570.454	0.753
579.487	0.738
588.519	0.726
597.552	0.721
606.585	0.752
615.617	0.752
624.65	0.604
633.683	0.737
642.715	0.767
651.748	0.776
660.78	0.771
669.813	0.767
678.846	0.771
687.878	0.781
696.911	0.765
705.944	0.731
714.976	0.736
724.009	0.69
733.042	0.692
742.074	0.629
751.107	0.651
760.139	0.661
769.172	0.615
778.205	0.595
787.237	0.548
796.27	0.651
805.303	0.686
814.335	0.693
823.368	0.736
832.4	0.759
841.433	0.731
850.466	0.765
859.498	0.762
868.531	0.713
877.564	0.788
886.596	0.774
895.629	0.78
904.662	0.795
913.694	0.79
922.727	0.76
931.759	0.726
940.792	0.727
949.825	0.717
958.857	0.73
967.89	0.707
976.923	0.615
985.955	0.584
994.988	0.608
1004.02	0.651
1013.05	0.674
1022.09	0.629
1031.12	0.679
1040.15	0.727
1049.18	0.743
1058.22	0.719
1067.25	0.719
1076.28	0.722
1085.31	0.71
1094.35	0.715
1103.38	0.682
1112.41	0.645
1121.44	0.57
1130.48	0.589
1139.51	0.594
1148.54	0.649
1157.58	0.616
1166.61	0.576
1175.64	0.611
1184.67	0.602
1193.71	0.544
1202.74	0.457
1211.77	0.365
1220.8	0.262
1229.84	0.188
1238.87	0.172
1247.9	0.25
1256.93	0.209
1265.97	0.253
1275	0.346
1284.03	0.452
1293.06	0.524
1302.1	0.553
1311.13	0.512
1320.16	0.459
1329.2	0.529
1338.23	0.53
1347.26	0.346
1356.29	0.435
1365.33	0.329
1374.36	0.354
1383.39	0.384
1392.42	0.397
1401.46	0.438
1410.49	0.517
1419.52	0.506
1428.55	0.452
1437.59	0.49
1446.62	0.427
1455.65	0.36
1464.68	0.335
1473.72	0.466
1482.75	0.339
1491.78	0.407
1500.82	0.402
1509.85	0.547
1518.88	0.527
1527.91	0.51
1536.95	0.467
1545.98	0.415
1555.01	0.376
1564.04	0.285
1573.08	0.286
1582.11	0.233
1591.14	0.21
1600.17	0.341
1609.21	0.217
1618.24	0.102
1627.27	0.151
1636.3	0.229
1645.34	0.33
1654.37	0.383
1663.4	0.33
1672.44	0.205
1681.47	0.174
1690.5	0.216
1699.53	0.3
1708.57	0.257
1717.6	0.338
1726.63	0.453
1735.66	0.632
1744.7	0.737
1753.73	0.775
1762.76	0.797
1771.79	0.808
1780.83	0.822
1789.86	0.827
1798.89	0.83
1807.92	0.834
1816.96	0.837
1825.99	0.837
1835.02	0.834
1844.06	0.829
1853.09	0.819
1862.12	0.812
1871.15	0.803
1880.19	0.786
1889.22	0.777
1898.25	0.765
1907.28	0.759
1916.32	0.761
1925.35	0.769
1934.38	0.783
1943.41	0.794
1952.45	0.805
1961.48	0.812
1970.51	0.82
1979.54	0.827
1988.58	0.829
1997.61	0.83
2006.64	0.837
2015.68	0.84
2024.71	0.841
2033.74	0.842
2042.77	0.844
2051.81	0.845
2060.84	0.846
2069.87	0.846
2078.9	0.848
2087.94	0.848
2096.97	0.847
2106	0.846
2115.03	0.846
2124.07	0.844
2133.1	0.842
2142.13	0.843
2151.16	0.843
2160.2	0.841
2169.23	0.839
2178.26	0.839
2187.3	0.838
2196.33	0.834
2205.36	0.829
2214.39	0.829
2223.43	0.828
2232.46	0.827
2241.49	0.823
2250.52	0.818
2259.56	0.811
2268.59	0.81
2277.62	0.803
2286.65	0.796
2295.69	0.794
2304.72	0.79
2313.75	0.786
2322.78	0.777
2331.82	0.772
2340.85	0.77
2349.88	0.768
2358.92	0.759
2367.95	0.753
2376.98	0.752
2386.01	0.752
2395.05	0.747
2404.08	0.743
2413.11	0.742
2422.14	0.736
2431.18	0.728
2440.21	0.722
2449.24	0.717
2458.27	0.704
2467.31	0.702
2476.34	0.698
2485.37	0.699
2494.4	0.702
2503.44	0.709
2512.47	0.715
2521.5	0.726
2530.54	0.735
2539.57	0.74
2548.6	0.742
2557.63	0.74
2566.67	0.734
2575.7	0.726
2584.73	0.723
2593.76	0.721
2602.8	0.721
2611.83	0.725
2620.86	0.729
2629.89	0.736
2638.93	0.742
2647.96	0.745
2656.99	0.747
2666.02	0.746
2675.06	0.744
2684.09	0.74
2693.12	0.736
2702.16	0.726
2711.19	0.719
2720.22	0.711
2729.25	0.702
2738.29	0.692
2747.32	0.684
2756.35	0.679
2765.38	0.678
2774.42	0.678
2783.45	0.677
2792.48	0.677
2801.51	0.675
2810.55	0.673
2819.58	0.67
2828.61	0.666
2837.64	0.654
2846.68	0.649
2855.71	0.649
2864.74	0.649
2873.78	0.647
2882.81	0.642
2891.84	0.636
2900.87	0.625
2909.91	0.614
2918.94	0.605
2927.97	0.599
2937	0.598
2946.04	0.599
2955.07	0.6
2964.1	0.601
2973.13	0.602
2982.17	0.598
2991.2	0.587
3000.23	0.583
3009.26	0.577
3018.3	0.573
3027.33	0.572
3036.36	0.571
3045.4	0.568
3054.43	0.566
3063.46	0.567
3072.49	0.571
3081.53	0.569
3090.56	0.563
3099.59	0.549
3108.62	0.535
3117.66	0.535
3126.69	0.544
3135.72	0.548
3144.75	0.548
3153.79	0.509
3162.82	0.483
3171.85	0.472
3180.88	0.478
3189.92	0.489
3198.95	0.512
3207.98	0.532
3217.02	0.551
3226.05	0.569
3235.08	0.581
3244.11	0.589
3253.15	0.597
3262.18	0.617
3271.21	0.634
3280.24	0.649
3289.28	0.655
3298.31	0.656
3307.34	0.656
3316.37	0.656
3325.41	0.656
3334.44	0.655
3343.47	0.652
3352.5	0.648
3361.54	0.639
3370.57	0.63
3379.6	0.622
3388.64	0.611
3397.67	0.606
3406.7	0.603
3415.73	0.601
3424.77	0.601
3433.8	0.602
3442.83	0.605
3451.86	0.61
3460.9	0.618
3469.93	0.624
3478.96	0.631
3487.99	0.636
3497.03	0.643
3506.06	0.655
3515.09	0.663
3524.12	0.675
3533.16	0.684
3542.19	0.695
3551.22	0.707
3560.26	0.717
3569.29	0.726
3578.32	0.743
3587.35	0.756
3596.39	0.764
3605.42	0.781
3614.45	0.799
3623.48	0.811
3632.52	0.821
3641.55	0.831
3650.58	0.837
3659.61	0.844
3668.65	0.846
3677.68	0.849
3686.71	0.852
3695.74	0.855
3704.78	0.856
3713.81	0.854
3722.84	0.854
3731.88	0.853
3740.91	0.854
3749.94	0.854
3758.97	0.855
3768.01	0.855
3777.04	0.855
3786.07	0.854
3795.1	0.853
