Infrared Spectrum: CHLOROACETYL HYDRAZINE
Formula: C2 H5 Cl N2 O
CAS: 30956-28-6
State: SOLID (MINERAL OIL MULL)
Class: COBLENTZ
Instrument: Not specified, most likely a prism, grating, or hybrid spectrometer.
Sampling: TRANSMISSION
Resolution: 4
Origin: DOW CHEMICAL COMPANY
MICROMETERS	TRANSMITTANCE
2.033	0.697
2.0731	0.7
2.11319	0.705
2.15329	0.705
2.19338	0.705
2.23348	0.702
2.27358	0.7
2.31367	0.703
2.35377	0.717
2.39387	0.723
2.43396	0.737
2.47406	0.745
2.51415	0.755
2.55425	0.762
2.59435	0.763
2.63444	0.778
2.67454	0.782
2.71463	0.782
2.75473	0.788
2.79483	0.792
2.83492	0.793
2.87502	0.787
2.91512	0.775
2.95521	0.737
2.99531	0.635
3.0354	0.48
3.0755	0.292
3.1156	0.188
3.15569	0.229
3.19579	0.387
3.23588	0.445
3.27598	0.361
3.31608	0.379
3.35617	0.222
3.39627	0.086
3.43637	0.151
3.47646	0.216
3.51656	0.552
3.55665	0.702
3.59675	0.743
3.63685	0.75
3.67694	0.76
3.71704	0.772
3.75713	0.777
3.79723	0.778
3.83733	0.79
3.87742	0.805
3.91752	0.816
3.95762	0.821
3.99771	0.83
4.03781	0.835
4.0779	0.84
4.118	0.846
4.1581	0.848
4.19819	0.85
4.23829	0.845
4.27838	0.845
4.31848	0.851
4.35858	0.861
4.39867	0.863
4.43877	0.863
4.47887	0.87
4.51896	0.87
4.55906	0.87
4.59915	0.871
4.63925	0.873
4.67935	0.875
4.71944	0.876
4.75954	0.881
4.79963	0.88
4.83973	0.88
4.87983	0.888
4.91992	0.893
4.96002	0.893
5.00012	0.895
5.04021	0.895
5.08031	0.895
5.1204	0.893
5.1605	0.895
5.2006	0.895
5.24069	0.895
5.28079	0.895
5.32088	0.895
5.36098	0.893
5.40108	0.893
5.44117	0.891
5.48127	0.89
5.52137	0.885
5.56146	0.871
5.60156	0.87
5.64165	0.861
5.68175	0.856
5.72185	0.836
5.76194	0.815
5.80204	0.795
5.84213	0.747
5.88223	0.705
5.92233	0.668
5.96242	0.615
6.00252	0.522
6.04262	0.415
6.08271	0.264
6.12281	0.161
6.1629	0.074
6.203	0.058
6.2431	0.103
6.28319	0.161
6.32329	0.276
6.36338	0.405
6.40348	0.489
6.44358	0.544
6.48367	0.579
6.52377	0.599
6.56387	0.564
6.60396	0.467
6.64406	0.292
6.68415	0.272
6.72425	0.4
6.76435	0.412
6.80444	0.344
6.84454	0.377
6.88463	0.47
6.92473	0.54
6.96483	0.605
7.00492	0.648
7.04502	0.618
7.08512	0.599
7.12521	0.662
7.16531	0.7
7.2054	0.582
7.2455	0.504
7.2856	0.552
7.32569	0.64
7.36579	0.687
7.40588	0.69
7.44598	0.695
7.48608	0.698
7.52617	0.697
7.56627	0.692
7.60637	0.69
7.64646	0.703
7.68656	0.707
7.72665	0.713
7.76675	0.702
7.80685	0.692
7.84694	0.702
7.88704	0.705
7.92713	0.715
7.96723	0.707
8.00733	0.693
8.04742	0.665
8.08752	0.584
8.12762	0.529
8.16771	0.535
8.20781	0.57
8.2479	0.602
8.288	0.633
8.3281	0.655
8.36819	0.688
8.40829	0.703
8.44838	0.705
8.48848	0.707
8.52858	0.702
8.56867	0.662
8.60877	0.592
8.64887	0.574
8.68896	0.603
8.72906	0.63
8.76915	0.643
8.80925	0.675
8.84935	0.7
8.88944	0.705
8.92954	0.723
8.96963	0.74
9.00973	0.748
9.04983	0.772
9.08992	0.782
9.13002	0.785
9.17012	0.785
9.21021	0.79
9.25031	0.792
9.2904	0.792
9.3305	0.798
9.3706	0.801
9.41069	0.805
9.45079	0.808
9.49088	0.813
9.53098	0.813
9.57108	0.813
9.61117	0.81
9.65127	0.808
9.69137	0.808
9.73146	0.811
9.77156	0.818
9.81165	0.821
9.85175	0.815
9.89185	0.805
9.93194	0.788
9.97204	0.778
10.0121	0.775
10.0522	0.793
10.0923	0.801
10.1324	0.808
10.1725	0.811
10.2126	0.815
10.2527	0.816
10.2928	0.818
10.3329	0.82
10.373	0.82
10.4131	0.82
10.4532	0.821
10.4933	0.821
10.5334	0.816
10.5735	0.801
10.6136	0.753
10.6537	0.665
10.6938	0.628
10.7339	0.66
10.774	0.738
10.8141	0.777
10.8542	0.788
10.8942	0.79
10.9343	0.808
10.9744	0.828
11.0145	0.838
11.0546	0.841
11.0947	0.843
11.1348	0.845
11.1749	0.845
11.215	0.845
11.2551	0.848
11.2952	0.848
11.3353	0.85
11.3754	0.856
11.4155	0.855
11.4556	0.855
11.4957	0.856
11.5358	0.856
11.5759	0.856
11.616	0.855
11.6561	0.856
11.6962	0.856
11.7363	0.856
11.7764	0.851
11.8165	0.851
11.8566	0.851
11.8967	0.851
11.9367	0.848
11.9768	0.848
12.0169	0.848
12.057	0.846
12.0971	0.838
12.1372	0.831
12.1773	0.825
12.2174	0.803
12.2575	0.778
12.2976	0.752
12.3377	0.717
12.3778	0.692
12.4179	0.665
12.458	0.62
12.4981	0.567
12.5382	0.537
12.5783	0.53
12.6184	0.547
12.6585	0.582
12.6986	0.617
12.7387	0.657
12.7788	0.702
12.8189	0.718
12.859	0.738
12.8991	0.758
12.9392	0.77
12.9793	0.778
13.0193	0.785
13.0594	0.788
13.0995	0.793
13.1396	0.797
13.1797	0.797
13.2198	0.797
13.2599	0.795
13.3	0.793
13.3401	0.792
13.3802	0.788
13.4203	0.782
13.4604	0.778
13.5005	0.77
13.5406	0.763
13.5807	0.753
13.6208	0.75
13.6609	0.742
13.701	0.733
13.7411	0.72
13.7812	0.705
13.8213	0.698
13.8614	0.693
13.9015	0.69
13.9416	0.69
13.9817	0.693
14.0217	0.698
14.0618	0.698
14.1019	0.693
14.142	0.688
14.1821	0.68
14.2222	0.673
14.2623	0.667
14.3024	0.66
14.3425	0.65
14.3826	0.645
14.4227	0.64
14.4628	0.632
14.5029	0.627
14.543	0.62
14.5831	0.613
14.6232	0.602
14.6633	0.599
14.7034	0.587
14.7435	0.577
14.7836	0.57
14.8237	0.555
14.8638	0.549
14.9039	0.545
14.944	0.539
14.9841	0.525
15.0242	0.51
15.0642	0.5
15.1043	0.487
15.1444	0.477
15.1845	0.472
15.2246	0.46
15.2647	0.45
15.3048	0.442
15.3449	0.437
15.385	0.432
15.4251	0.429
15.4652	0.424
15.5053	0.42
15.5454	0.417
15.5855	0.415
15.6256	0.415
15.6657	0.414
15.7058	0.414
15.7459	0.412
15.786	0.412
15.8261	0.41
15.8662	0.41
15.9063	0.41
