Infrared Spectrum: Perillartine
Formula: C10 H15 N O
CAS: 30950-27-7
State: gas
Origin: EPA-IR VAPOR PHASE LIBRARY
1/CM	ABSORBANCE
549.8	0.00612
559.445	0.00584
569.09	0.00398
578.734	0.00252
588.379	0.00341
598.024	0.00575
607.669	0.01353
617.313	0.01979
626.958	0.01994
636.603	0.01981
646.248	0.01989
655.893	0.02077
665.537	0.02316
675.182	0.02659
684.827	0.02948
694.472	0.0358379
704.116	0.04972
713.761	0.04461
723.406	0.0319
733.051	0.03023
742.695	0.03524
752.34	0.03086
761.985	0.02748
771.63	0.02744
781.275	0.0322
790.919	0.04906
800.564	0.05379
810.209	0.03992
819.854	0.03856
829.498	0.03273
839.143	0.02961
848.788	0.02962
858.433	0.03131
868.078	0.0355083
877.722	0.04577
887.367	0.06782
897.012	0.07992
906.657	0.07944
916.301	0.11024
925.946	0.17497
935.591	0.14127
945.236	0.10734
954.88	0.07566
964.525	0.04824
974.17	0.04606
983.815	0.04034
993.46	0.03327
1003.1	0.03024
1012.75	0.03049
1022.39	0.02859
1032.04	0.02696
1041.68	0.02778
1051.33	0.02735
1060.97	0.02472
1070.62	0.02408
1080.26	0.02437
1089.91	0.02431
1099.55	0.02452
1109.2	0.02602
1118.84	0.02496
1128.49	0.02559
1138.13	0.02661
1147.78	0.02821
1157.42	0.02858
1167.07	0.0309
1176.71	0.04049
1186.36	0.0354453
1196	0.03024
1205.64	0.03103
1215.29	0.02994
1224.93	0.03335
1234.58	0.03895
1244.22	0.06807
1253.87	0.10877
1263.51	0.05684
1273.16	0.03627
1282.8	0.03351
1292.45	0.03204
1302.09	0.03167
1311.74	0.02992
1321.38	0.02877
1331.03	0.02893
1340.67	0.0289
1350.32	0.02981
1359.96	0.0326
1369.61	0.04063
1379.25	0.05159
1388.9	0.04941
1398.54	0.05237
1408.18	0.04444
1417.83	0.03489
1427.47	0.03773
1437.12	0.04576
1446.76	0.04572
1456.41	0.0433
1466.05	0.0352283
1475.7	0.02803
1485.34	0.02534
1494.99	0.02446
1504.63	0.02408
1514.28	0.02329
1523.92	0.02316
1533.57	0.02305
1543.21	0.02303
1552.86	0.02314
1562.5	0.02325
1572.15	0.02388
1581.79	0.02464
1591.44	0.02601
1601.08	0.02717
1610.73	0.02806
1620.37	0.03114
1630.01	0.03979
1639.66	0.05893
1649.3	0.05651
1658.95	0.034388
1668.59	0.02675
1678.24	0.02461
1687.88	0.02407
1697.53	0.02379
1707.17	0.02343
1716.82	0.02353
1726.46	0.02358
1736.11	0.02328
1745.75	0.0228
1755.4	0.02275
1765.04	0.02301
1774.69	0.0236
1784.33	0.02473
1793.98	0.02536
1803.62	0.02396
1813.27	0.02317
1822.91	0.02296
1832.55	0.02297
1842.2	0.02334
1851.84	0.02353
1861.49	0.02335
1871.13	0.02347
1880.78	0.02358
1890.42	0.02335
1900.07	0.02252
1909.71	0.02211
1919.36	0.02186
1929	0.02176
1938.65	0.0216
1948.29	0.02179
1957.94	0.02176
1967.58	0.02169
1977.23	0.0216
1986.87	0.02146
1996.52	0.02145
2006.16	0.02117
2015.81	0.02139
2025.45	0.02128
2035.1	0.0214
2044.74	0.02133
2054.38	0.02126
2064.03	0.02125
2073.67	0.02145
2083.32	0.02114
2092.96	0.02116
2102.61	0.02111
2112.25	0.02136
2121.9	0.02129
2131.54	0.02107
2141.19	0.0209
2150.83	0.02122
2160.48	0.02107
2170.12	0.02126
2179.77	0.02144
2189.41	0.02125
2199.06	0.02142
2208.7	0.02141
2218.35	0.02115
2227.99	0.02138
2237.64	0.02119
2247.28	0.02131
2256.92	0.02158
2266.57	0.02117
2276.21	0.02123
2285.86	0.02115
2295.5	0.02114
2305.15	0.02105
2314.79	0.02122
2324.44	0.0212
2334.08	0.02147
2343.73	0.0213
2353.37	0.02148
2363.02	0.02156
2372.66	0.02139
2382.31	0.02104
2391.95	0.02142
2401.6	0.0213
2411.24	0.02126
2420.89	0.02102
2430.53	0.02103
2440.18	0.02098
2449.82	0.02103
2459.47	0.02093
2469.11	0.02122
2478.75	0.02149
2488.4	0.02179
2498.04	0.02221
2507.69	0.02216
2517.33	0.02161
2526.98	0.0212
2536.62	0.02171
2546.27	0.02174
2555.91	0.02158
2565.56	0.02163
2575.2	0.02182
2584.85	0.02193
2594.49	0.0218
2604.14	0.02188
2613.78	0.02214
2623.43	0.02214
2633.07	0.02214
2642.72	0.0223
2652.36	0.02224
2662.01	0.02166
2671.65	0.02182
2681.29	0.02167
2690.94	0.02133
2700.58	0.02163
2710.23	0.02142
2719.87	0.02194
2729.52	0.02242
2739.16	0.02235
2748.81	0.02249
2758.45	0.02247
2768.1	0.02257
2777.74	0.02256
2787.39	0.02273
2797.03	0.02346
2806.68	0.02429
2816.32	0.02624
2825.97	0.02921
2835.61	0.03693
2845.26	0.04696
2854.9	0.05201
2864.55	0.05507
2874.19	0.05658
2883.84	0.06122
2893.48	0.0696
2903.12	0.07265
2912.77	0.08296
2922.41	0.10287
2932.06	0.11028
2941.7	0.12035
2951.35	0.11016
2960.99	0.07498
2970.64	0.06142
2980.28	0.0638
2989.93	0.05268
2999.57	0.05013
3009.22	0.04606
3018.86	0.04167
3028.51	0.04051
3038.15	0.03887
3047.8	0.03289
3057.44	0.03027
3067.09	0.03285
3076.73	0.04237
3086.38	0.04545
3096.02	0.03659
3105.67	0.02516
3115.31	0.02328
3124.95	0.02242
3134.6	0.02227
3144.24	0.02121
3153.89	0.02082
3163.53	0.02057
3173.18	0.0209
3182.82	0.02079
3192.47	0.0212
3202.11	0.02075
3211.76	0.02086
3221.4	0.02025
3231.05	0.02036
3240.69	0.02051
3250.34	0.0213
3259.98	0.02131
3269.63	0.02134
3279.27	0.0211
3288.92	0.02051
3298.56	0.02058
3308.21	0.02041
3317.85	0.02043
3327.49	0.02025
3337.14	0.02028
3346.78	0.02077
3356.43	0.01952
3366.07	0.01991
3375.72	0.02018
3385.36	0.02078
3395.01	0.02088
3404.65	0.0201
3414.3	0.02052
3423.94	0.02057
3433.59	0.02029
3443.23	0.02078
3452.88	0.01989
3462.52	0.02021
3472.17	0.01982
3481.81	0.01995
3491.46	0.01987
3501.1	0.0208
3510.75	0.02029
3520.39	0.02118
3530.04	0.02093
3539.68	0.02033
3549.32	0.02021
3558.97	0.02087
3568.61	0.02125
3578.26	0.02067
3587.9	0.02138
3597.55	0.02299
3607.19	0.02595
3616.84	0.034478
3626.48	0.05508
3636.13	0.09833
3645.77	0.13974
3655.42	0.06147
3665.06	0.02685
3674.71	0.02317
3684.35	0.02207
3694	0.02157
3703.64	0.02099
3713.29	0.02097
3722.93	0.02043
3732.58	0.02084
3742.22	0.02071
3751.86	0.02081
3761.51	0.02111
3771.15	0.0208
3780.8	0.02005
3790.44	0.02042
3800.09	0.01973
3809.73	0.02008
3819.38	0.01979
3829.02	0.01988
3838.67	0.02002
3848.31	0.02053
3857.96	0.02009
3867.6	0.02081
3877.25	0.02045
3886.89	0.01997
3896.54	0.01986
3906.18	0.02048
3915.83	0.01978
3925.47	0.02095
3935.12	0.02023
3944.76	0.02014
3954.41	0.02052
3964.05	0.02119
3973.69	0.02138
3983.34	0.02071
3992.98	0.02127
