Infrared Spectrum: ACETIC ACID, (3,4-DIHYDRO-5-NITRO-4-OXO-6-PYRIMIDINYL)HYDRAZIDE
Formula: C6 H7 N5 O4
CAS: 30958-43-1
State: SOLID (0.8 mg / 650 mg KBr DISC)
Class: COBLENTZ III
Instrument: PERKIN-ELMER 221 (GRATING)
Instrument parameters: FILTER AT 980 CM^-^1. GRATING 4000-1428 AND NaCl PRISM 1428-650 CM^-^1
Sampling: TRANSMISSION
Resolution: 4
Origin: SOUTHERN RESEARCH INSTITUTE
1/CM	TRANSMITTANCE
600	0.653
608.563	0.653
617.125	0.653
625.688	0.65
634.251	0.6392
642.814	0.629
651.376	0.5979
659.939	0.583
668.502	0.5921
677.064	0.6123
685.627	0.636
694.19	0.6656
702.752	0.6935
711.315	0.6827
719.878	0.672
728.441	0.6818
737.003	0.692
745.566	0.689
754.129	0.707
762.691	0.71
771.254	0.709
779.817	0.6872
788.379	0.5567
796.942	0.4799
805.505	0.697
814.068	0.675
822.63	0.6281
831.193	0.5497
839.756	0.5548
848.318	0.6442
856.881	0.649
865.444	0.648
874.006	0.6443
882.569	0.6339
891.132	0.6238
899.695	0.7426
908.257	0.7646
916.82	0.768
925.383	0.768
933.945	0.764
942.508	0.757
951.071	0.748
959.634	0.7277
968.196	0.7197
976.759	0.7145
985.322	0.6898
993.884	0.6545
1002.45	0.5821
1011.01	0.6743
1019.57	0.675
1028.14	0.6099
1036.7	0.5253
1045.26	0.5417
1053.82	0.7173
1062.39	0.719
1070.95	0.7039
1079.51	0.6922
1088.07	0.6937
1096.64	0.6923
1105.2	0.6803
1113.76	0.6678
1122.32	0.6529
1130.89	0.6389
1139.45	0.6285
1148.01	0.5947
1156.58	0.5244
1165.14	0.448
1173.7	0.44
1182.26	0.3585
1190.83	0.433
1199.39	0.4432
1207.95	0.4352
1216.51	0.3965
1225.08	0.3729
1233.64	0.344
1242.2	0.3521
1250.77	0.375
1259.33	0.33
1267.89	0.2394
1276.45	0.231
1285.02	0.2729
1293.58	0.3229
1302.14	0.3497
1310.7	0.3972
1319.27	0.4087
1327.83	0.409
1336.39	0.4001
1344.96	0.3459
1353.52	0.292
1362.08	0.2789
1370.64	0.3764
1379.21	0.493
1387.77	0.534
1396.33	0.5031
1404.89	0.4191
1413.46	0.2866
1422.02	0.2814
1430.58	0.2953
1439.14	0.3212
1447.71	0.3673
1456.27	0.392
1464.83	0.3681
1473.4	0.2472
1481.96	0.2102
1490.52	0.2053
1499.08	0.1365
1507.65	0.122
1516.21	0.1297
1524.77	0.2552
1533.33	0.3056
1541.9	0.2859
1550.46	0.2341
1559.02	0.2145
1567.59	0.2516
1576.15	0.3593
1584.71	0.3601
1593.27	0.2909
1601.84	0.1468
1610.4	0.078
1618.96	0.0885
1627.52	0.1017
1636.09	0.1894
1644.65	0.2847
1653.21	0.2195
1661.78	0.1285
1670.34	0.1
1678.9	0.1159
1687.46	0.1707
1696.03	0.186
1704.59	0.1743
1713.15	0.1442
1721.71	0.1092
1730.28	0.1405
1738.84	0.3399
1747.4	0.4934
1755.96	0.5787
1764.53	0.6154
1773.09	0.6567
1781.65	0.6781
1790.22	0.7045
1798.78	0.716
1807.34	0.74
1815.9	0.7573
1824.47	0.7693
1833.03	0.7743
1841.59	0.7852
1850.15	0.7924
1858.72	0.801
1867.28	0.81
1875.84	0.814
1884.41	0.816
1892.97	0.817
1901.53	0.817
1910.09	0.818
1918.66	0.821
1927.22	0.8228
1935.78	0.83
1944.34	0.8322
1952.91	0.8323
1961.47	0.832
1970.03	0.833
1978.6	0.8334
1987.16	0.834
1995.72	0.837
2004.28	0.834
2012.85	0.822
2021.41	0.819
2029.97	0.822
2038.53	0.8295
2047.1	0.834
2055.66	0.834
2064.22	0.8335
2072.78	0.833
2081.35	0.834
2089.91	0.834
2098.47	0.832
2107.04	0.832
2115.6	0.833
2124.16	0.833
2132.72	0.833
2141.29	0.833
2149.85	0.833
2158.41	0.833
2166.97	0.833
2175.54	0.834
2184.1	0.834
2192.66	0.834
2201.23	0.833
2209.79	0.833
2218.35	0.8335
2226.91	0.832
2235.48	0.829
2244.04	0.8275
2252.6	0.8245
2261.16	0.822
2269.73	0.82
2278.29	0.818
2286.85	0.818
2295.42	0.815
2303.98	0.811
2312.54	0.808
2321.1	0.807
2329.67	0.806
2338.23	0.806
2346.79	0.805
2355.35	0.805
2363.92	0.805
2372.48	0.806
2381.04	0.806
2389.6	0.806
2398.17	0.8055
2406.73	0.802
2415.29	0.7995
2423.86	0.794
2432.42	0.794
2440.98	0.792
2449.54	0.792
2458.11	0.794
2466.67	0.795
2475.23	0.7995
2483.79	0.7925
2492.36	0.785
2500.92	0.785
2509.48	0.783
2518.05	0.78
2526.61	0.779
2535.17	0.776
2543.73	0.7735
2552.3	0.773
2560.86	0.7705
2569.42	0.766
2577.98	0.757
2586.55	0.7525
2595.11	0.747
2603.67	0.7425
2612.24	0.737
2620.8	0.732
2629.36	0.729
2637.92	0.7245
2646.49	0.72
2655.05	0.719
2663.61	0.7135
2672.17	0.704
2680.74	0.702
2689.3	0.695
2697.86	0.69
2706.42	0.684
2714.99	0.682
2723.55	0.681
2732.11	0.681
2740.68	0.6795
2749.24	0.677
2757.8	0.6745
2766.36	0.6685
2774.93	0.664
2783.49	0.657
2792.05	0.654
2800.61	0.6495
2809.18	0.644
2817.74	0.6165
2826.3	0.6045
2834.87	0.5845
2843.43	0.58
2851.99	0.576
2860.55	0.5725
2869.12	0.569
2877.68	0.567
2886.24	0.5605
2894.8	0.5495
2903.37	0.5285
2911.93	0.5005
2920.49	0.4925
2929.06	0.4885
2937.62	0.4745
2946.18	0.4695
2954.74	0.466
2963.31	0.466
2971.87	0.4635
2980.43	0.458
2988.99	0.445
2997.56	0.4345
3006.12	0.425
3014.68	0.4155
3023.24	0.406
3031.81	0.393
3040.37	0.369
3048.93	0.362
3057.5	0.361
3066.06	0.361
3074.62	0.3565
3083.18	0.3395
3091.75	0.337
3100.31	0.3215
3108.87	0.3125
3117.43	0.2965
3126	0.292
3134.56	0.289
3143.12	0.285
3151.69	0.284
3160.25	0.28
3168.81	0.277
3177.37	0.273
3185.94	0.269
3194.5	0.2645
3203.06	0.2625
3211.62	0.259
3220.19	0.2575
3228.75	0.2505
3237.31	0.2385
3245.88	0.2295
3254.44	0.2255
3263	0.225
3271.56	0.224
3280.13	0.228
3288.69	0.2335
3297.25	0.267
3305.81	0.294
3314.38	0.333
3322.94	0.381
3331.5	0.4535
3340.06	0.47
3348.63	0.4895
3357.19	0.4965
3365.75	0.503
3374.32	0.507
3382.88	0.5125
3391.44	0.527
3400	0.5345
3408.57	0.537
3417.13	0.5455
3425.69	0.55
3434.25	0.553
3442.82	0.569
3451.38	0.5765
3459.94	0.5935
3468.51	0.5995
3477.07	0.6105
3485.63	0.618
3494.19	0.622
3502.76	0.633
3511.32	0.6425
3519.88	0.646
3528.44	0.661
3537.01	0.675
3545.57	0.6855
3554.13	0.694
3562.7	0.707
3571.26	0.7095
3579.82	0.7195
3588.38	0.727
3596.95	0.739
3605.51	0.7575
3614.07	0.772
3622.63	0.778
3631.2	0.7805
3639.76	0.788
3648.32	0.809
3656.88	0.822
3665.45	0.825
3674.01	0.827
3682.57	0.827
3691.14	0.827
3699.7	0.829
3708.26	0.829
3716.82	0.829
3725.39	0.8295
3733.95	0.83
3742.51	0.828
3751.07	0.827
3759.64	0.827
3768.2	0.827
3776.76	0.827
3785.33	0.827
3793.89	0.825
3802.45	0.825
3811.01	0.823
3819.58	0.821
3828.14	0.82
3836.7	0.8185
3845.26	0.8175
3853.83	0.817
3862.39	0.817
3870.95	0.817
3879.52	0.817
3888.08	0.817
3896.64	0.817
