Infrared Spectrum: 4-Phenoxybenzonitrile
Formula: C 13 H 9 N O
CAS: 3096-81-9
State: gas
Origin: EPA-IR VAPOR PHASE LIBRARY
1/CM	ABSORBANCE
549.8	0.0101913
559.445	0.0043313
569.09	0.0027313
578.734	0.0024413
588.379	0.0029713
598.024	0.0025613
607.669	0.0022513
617.313	0.0020213
626.958	0.0014413
636.603	0.0014813
646.248	0.0027513
655.893	0.0040713
665.537	0.0065413
675.182	0.0125213
684.827	0.0249113
694.472	0.0287313
704.116	0.0149013
713.761	0.0091813
723.406	0.0091713
733.051	0.0120713
742.695	0.0168913
752.34	0.0244813
761.985	0.0344513
771.63	0.0264513
781.275	0.0144113
790.919	0.0123113
800.564	0.0119013
810.209	0.0126613
819.854	0.0145513
829.498	0.0251813
839.143	0.0406913
848.788	0.0372013
858.433	0.0312913
868.078	0.0669813
877.722	0.0299013
887.367	0.0103013
897.012	0.0085213
906.657	0.0088513
916.301	0.0058613
925.946	0.0040513
935.591	0.0028813
945.236	0.0022113
954.88	0.0023913
964.525	0.0022313
974.17	0.0021813
983.815	0.0020113
993.46	0.0023513
1003.1	0.0047213
1012.75	0.0092313
1022.39	0.0132813
1032.04	0.0039013
1041.68	0.0015113
1051.33	0.0026713
1060.97	0.0055713
1070.62	0.0069913
1080.26	0.0052713
1089.91	0.0043613
1099.55	0.0066613
1109.2	0.0072413
1118.84	0.0052313
1128.49	0.0045613
1138.13	0.0058313
1147.78	0.0134913
1157.42	0.0346213
1167.07	0.0648313
1176.71	0.0278013
1186.36	0.0293713
1196	0.0437313
1205.64	0.0369113
1215.29	0.0434313
1224.93	0.0796613
1234.58	0.188541
1244.22	0.474131
1253.87	0.356171
1263.51	0.118581
1273.16	0.0726113
1282.8	0.0473513
1292.45	0.0333113
1302.09	0.0292613
1311.74	0.0206713
1321.38	0.0140113
1331.03	0.0093113
1340.67	0.0074113
1350.32	0.0065213
1359.96	0.0062513
1369.61	0.0059713
1379.25	0.0049313
1388.9	0.0052613
1398.54	0.0062113
1408.18	0.0070813
1417.83	0.0073713
1427.47	0.0061213
1437.12	0.0061613
1446.76	0.0086613
1456.41	0.0142013
1466.05	0.0308813
1475.7	0.0822113
1485.34	0.199971
1494.99	0.255331
1504.63	0.178811
1514.28	0.0498213
1523.92	0.0238513
1533.57	0.0220813
1543.21	0.0211113
1552.86	0.0197413
1562.5	0.0237613
1572.15	0.0403313
1581.79	0.0969313
1591.44	0.150851
1601.08	0.0792113
1610.73	0.0461313
1620.37	0.0164113
1630.01	0.0089413
1639.66	0.0071613
1649.3	0.0059313
1658.95	0.0053113
1668.59	0.0043713
1678.24	0.0034013
1687.88	0.0027713
1697.53	0.0026313
1707.17	0.0028513
1716.82	0.0030013
1726.46	0.0032313
1736.11	0.0030613
1745.75	0.0028613
1755.4	0.0029313
1765.04	0.0041013
1774.69	0.0052413
1784.33	0.0033013
1793.98	0.0022313
1803.62	0.0016513
1813.27	0.0013313
1822.91	0.0012613
1832.55	0.0014713
1842.2	0.0021813
1851.84	0.0025113
1861.49	0.0029913
1871.13	0.0033613
1880.78	0.0037813
1890.42	0.0047713
1900.07	0.0053813
1909.71	0.0045113
1919.36	0.0042813
1929	0.0047513
1938.65	0.0048413
1948.29	0.0049813
1957.94	0.0040813
1967.58	0.0028813
1977.23	0.0022713
1986.87	0.0020213
1996.52	0.0019213
2006.16	0.0018513
2015.81	0.0021713
2025.45	0.0035313
2035.1	0.0046013
2044.74	0.0040513
2054.38	0.0035613
2064.03	0.0035413
2073.67	0.0029813
2083.32	0.0019613
2092.96	0.0016713
2102.61	0.0014713
2112.25	0.0011413
2121.9	0.000819
2131.54	0.0007576
2141.19	0.0006607
2150.83	0.0007362
2160.48	0.0007345
2170.12	0.0009166
2179.77	0.0011713
2189.41	0.0009213
2199.06	0.0010773
2208.7	0.0020713
2218.35	0.0063113
2227.99	0.0240813
2237.64	0.0224913
2247.28	0.0033213
2256.92	0.0014813
2266.57	0.0013613
2276.21	0.0013413
2285.86	0.0012413
2295.5	0.0011313
2305.15	0.0012013
2314.79	0.0014213
2324.44	0.0016013
2334.08	0.0016113
2343.73	0.0013813
2353.37	0.0016413
2363.02	0.0018713
2372.66	0.0022113
2382.31	0.0024813
2391.95	0.0027813
2401.6	0.0036913
2411.24	0.0039913
2420.89	0.0033413
2430.53	0.0035813
2440.18	0.0043413
2449.82	0.0039013
2459.47	0.0027713
2469.11	0.0029813
2478.75	0.0028713
2488.4	0.0023413
2498.04	0.0019913
2507.69	0.0020813
2517.33	0.0023213
2526.98	0.0024013
2536.62	0.0024113
2546.27	0.0025113
2555.91	0.0026513
2565.56	0.0022313
2575.2	0.0015713
2584.85	0.0011313
2594.49	0.0009139
2604.14	0.0007886
2613.78	0.0008204
2623.43	0.0006606
2633.07	0.0003954
2642.72	0.0004423
2652.36	0.000503
2662.01	0.0006101
2671.65	0.000648
2681.29	0.0006582
2690.94	0.0006966
2700.58	0.0007946
2710.23	0.0006683
2719.87	0.0006979
2729.52	0.000702
2739.16	0.0008895
2748.81	0.0010015
2758.45	0.0009671
2768.1	0.0010627
2777.74	0.0011113
2787.39	0.0007081
2797.03	0.0006074
2806.68	0.0006856
2816.32	0.0006027
2825.97	0.0007324
2835.61	0.0008122
2845.26	0.0007916
2854.9	0.0007181
2864.55	0.0008058
2874.19	0.0007332
2883.84	0.0006245
2893.48	0.0004694
2903.12	0.0006875
2912.77	0.0005257
2922.41	0.0003664
2932.06	0.0005539
2941.7	0.0003528
2951.35	0.000231
2960.99	0.0004119
2970.64	0.000492
2980.28	0.0006047
2989.93	0.0008827
2999.57	0.0013613
3009.22	0.0021013
3018.86	0.0041213
3028.51	0.0063913
3038.15	0.0117413
3047.8	0.0183613
3057.44	0.0151113
3067.09	0.0143013
3076.73	0.0201113
3086.38	0.0203113
3096.02	0.0133113
3105.67	0.0093313
3115.31	0.0045013
3124.95	0.0023513
3134.6	0.0012813
3144.24	0.0009958
3153.89	0.0008564
3163.53	0.000896
3173.18	0.0006263
3182.82	0.0005412
3192.47	0.0006998
3202.11	0.0008683
3211.76	0.0006607
3221.4	0.0003335
3231.05	0.0004346
3240.69	0.0003953
3250.34	0.0001976
3259.98	0.0002348
3269.63	0.00018398
3279.27	0.0003214
3288.92	8.724e-05
3298.56	0.00011413
3308.21	0
3317.85	0.0003901
3327.49	0.00015232
3337.14	0.0002575
3346.78	7.46e-05
3356.43	0.00015691
3366.07	0.00012022
3375.72	0.0004036
3385.36	0.0002768
3395.01	0.0004022
3404.65	0.0008538
3414.3	0.0009762
3423.94	0.0009589
3433.59	0.0006739
3443.23	0.000444
3452.88	0.0002801
3462.52	0.000323
3472.17	0.00015587
3481.81	0.0002835
3491.46	0.0002328
3501.1	0.0002314
3510.75	0.0002528
3520.39	0.0003147
3530.04	0.00013937
3539.68	0.0004724
3549.32	0.0002181
3558.97	0.0004325
3568.61	0.0004279
3578.26	0.00010925
3587.9	0.0002555
3597.55	0.00015931
3607.19	0.0005465
3616.84	0.0002894
3626.48	0.0004051
3636.13	0.0002889
3645.77	0.000416
3655.42	0.0002207
3665.06	0.0003292
3674.71	0.0004695
3684.35	0.0006442
3694	0.0006327
3703.64	0.0006232
3713.29	0.0005668
3722.93	0.0004279
3732.58	0.0004382
3742.22	0.0006194
3751.86	0.0003242
3761.51	0.0002962
3771.15	0.0003678
3780.8	0.0003861
3790.44	0.0004832
3800.09	0.0005064
3809.73	0.0005432
3819.38	0.0006183
3829.02	0.0007337
3838.67	0.0005973
3848.31	0.0008204
3857.96	0.0004781
3867.6	0.000366
3877.25	0.00015649
3886.89	0.0002579
3896.54	0.0002928
3906.18	0.0003758
3915.83	0.0002954
3925.47	0.0006022
3935.12	0.0004979
3944.76	0.0004185
3954.41	0.0003597
3964.05	0.0004364
3973.69	0.00015597
3983.34	0.0002556
3992.98	0.0004332
