Infrared Spectrum: 2-Hydroxy-3-methylbenzhydrazide
Formula: C 8 H 10 N 2 O 2
CAS: 30991-42-5
State: gas
Origin: EPA-IR VAPOR PHASE LIBRARY
1/CM	ABSORBANCE
549.8	0.001552
559.445	0.002092
569.09	0.001612
578.734	0.0005065
588.379	0.0007473
598.024	0.001242
607.669	0.001015
617.313	0.001382
626.958	0.001382
636.603	0.001232
646.248	0.001132
655.893	0.0010108
665.537	0.001322
675.182	0.0009135
684.827	0.001152
694.472	0.001292
704.116	0.001472
713.761	0.001462
723.406	0.001812
733.051	0.003762
742.695	0.006862
752.34	0.006822
761.985	0.004722
771.63	0.003522
781.275	0.002662
790.919	0.002502
800.564	0.002482
810.209	0.002072
819.854	0.001802
829.498	0.001842
839.143	0.002222
848.788	0.002082
858.433	0.001962
868.078	0.001482
877.722	0.001742
887.367	0.002192
897.012	0.002412
906.657	0.002592
916.301	0.001752
925.946	0.001602
935.591	0.001842
945.236	0.003342
954.88	0.005052
964.525	0.004672
974.17	0.002202
983.815	0.001622
993.46	0.001712
1003.1	0.002182
1012.75	0.002432
1022.39	0.001712
1032.04	0.0008918
1041.68	0.0008742
1051.33	0.000604
1060.97	0.00021921
1070.62	0.0010749
1080.26	0.0010382
1089.91	0.001682
1099.55	0.001752
1109.2	0.001352
1118.84	0.0011269
1128.49	0.0006508
1138.13	0.0006374
1147.78	0.0005082
1157.42	0.001242
1167.07	0.001162
1176.71	0.001862
1186.36	0.002492
1196	0.003452
1205.64	0.003152
1215.29	0.002632
1224.93	0.003632
1234.58	0.006012
1244.22	0.010392
1253.87	0.012552
1263.51	0.008592
1273.16	0.005902
1282.8	0.007982
1292.45	0.009372
1302.09	0.006402
1311.74	0.004122
1321.38	0.004692
1331.03	0.004942
1340.67	0.004522
1350.32	0.004812
1359.96	0.005282
1369.61	0.005082
1379.25	0.004332
1388.9	0.003672
1398.54	0.003082
1408.18	0.003422
1417.83	0.005132
1427.47	0.008082
1437.12	0.009872
1446.76	0.010042
1456.41	0.010252
1466.05	0.010352
1475.7	0.010512
1485.34	0.010662
1494.99	0.010332
1504.63	0.009212
1514.28	0.006702
1523.92	0.004342
1533.57	0.003022
1543.21	0.002472
1552.86	0.002222
1562.5	0.002092
1572.15	0.002272
1581.79	0.002992
1591.44	0.004252
1601.08	0.005892
1610.73	0.007192
1620.37	0.008022
1630.01	0.009562
1639.66	0.010012
1649.3	0.010422
1658.95	0.010952
1668.59	0.008772
1678.24	0.005182
1687.88	0.003122
1697.53	0.002272
1707.17	0.001662
1716.82	0.001302
1726.46	0.0009624
1736.11	0.0008263
1745.75	0.0007628
1755.4	0.000807
1765.04	0.0007308
1774.69	0.0006239
1784.33	0.0007048
1793.98	0.0006973
1803.62	0.0005692
1813.27	0.0005855
1822.91	0.0005451
1832.55	0.0005081
1842.2	0.0005891
1851.84	0.0005948
1861.49	0.0004158
1871.13	0.0003802
1880.78	0.0003993
1890.42	0.0004579
1900.07	0.0005038
1909.71	0.0004274
1919.36	0.000352
1929	0.000373
1938.65	0.0003048
1948.29	0.0003472
1957.94	0.00027
1967.58	0.0002977
1977.23	0.0002508
1986.87	0.00021807
1996.52	0.00023205
2006.16	0.0002271
2015.81	0.0003126
2025.45	0.0003172
2035.1	0.0002876
2044.74	0.00019599
2054.38	0.00024026
2064.03	0.0002937
2073.67	0.00019148
2083.32	0.00020491
2092.96	0.00013619
2102.61	0.00019418
2112.25	0.00018779
2121.9	0.0002617
2131.54	0.0003118
2141.19	0.0002773
2150.83	0.00022157
2160.48	0.000312
2170.12	0.00022866
2179.77	0.00022923
2189.41	0.0002681
2199.06	0.00017213
2208.7	0.0002511
2218.35	0.0002501
2227.99	0.0002596
2237.64	0.00023613
2247.28	0.0002749
2256.92	0.00021044
2266.57	0.0003265
2276.21	0.0003447
2285.86	0.000266
2295.5	0.0002659
2305.15	0.0003657
2314.79	0.0003123
2324.44	0.00021422
2334.08	0.0003302
2343.73	0.0002864
2353.37	0.0002574
2363.02	0.0003306
2372.66	0.0003459
2382.31	0.00023035
2391.95	0.0002531
2401.6	0.00020565
2411.24	0.0003062
2420.89	0.0003183
2430.53	0.0005064
2440.18	0.0003732
2449.82	0.00043
2459.47	0.0003645
2469.11	0.0002993
2478.75	0.000322
2488.4	0.0004188
2498.04	0.0003903
2507.69	0.000424
2517.33	0.0004527
2526.98	0.0005191
2536.62	0.0004589
2546.27	0.0005622
2555.91	0.0005192
2565.56	0.0004706
2575.2	0.0004487
2584.85	0.0005809
2594.49	0.000567
2604.14	0.0006721
2613.78	0.0006186
2623.43	0.0005628
2633.07	0.0006196
2642.72	0.0006737
2652.36	0.0005747
2662.01	0.0007239
2671.65	0.0006477
2681.29	0.0006948
2690.94	0.0007244
2700.58	0.0006335
2710.23	0.0006716
2719.87	0.0005546
2729.52	0.0006652
2739.16	0.0007547
2748.81	0.0009326
2758.45	0.0008524
2768.1	0.0008362
2777.74	0.0008484
2787.39	0.0008756
2797.03	0.0007441
2806.68	0.0008053
2816.32	0.0009266
2825.97	0.0009651
2835.61	0.0011088
2845.26	0.001202
2854.9	0.001212
2864.55	0.001522
2874.19	0.001592
2883.84	0.001462
2893.48	0.001512
2903.12	0.001552
2912.77	0.001922
2922.41	0.002422
2932.06	0.003112
2941.7	0.002962
2951.35	0.002402
2960.99	0.002322
2970.64	0.002612
2980.28	0.002752
2989.93	0.002592
2999.57	0.002492
3009.22	0.002632
3018.86	0.002732
3028.51	0.003232
3038.15	0.003532
3047.8	0.003982
3057.44	0.004322
3067.09	0.004122
3076.73	0.003802
3086.38	0.003182
3096.02	0.002792
3105.67	0.002702
3115.31	0.002402
3124.95	0.002432
3134.6	0.002432
3144.24	0.002482
3153.89	0.002592
3163.53	0.002502
3173.18	0.002422
3182.82	0.002312
3192.47	0.002372
3202.11	0.002562
3211.76	0.002672
3221.4	0.002222
3231.05	0.002152
3240.69	0.002122
3250.34	0.001962
3259.98	0.002152
3269.63	0.002012
3279.27	0.001992
3288.92	0.001852
3298.56	0.001902
3308.21	0.001822
3317.85	0.001892
3327.49	0.001872
3337.14	0.001852
3346.78	0.001942
3356.43	0.001602
3366.07	0.001632
3375.72	0.001172
3385.36	0.001392
3395.01	0.001322
3404.65	0.001202
3414.3	0.0010618
3423.94	0.001362
3433.59	0.001202
3443.23	0.001142
3452.88	0.001292
3462.52	0.001722
3472.17	0.002492
3481.81	0.003322
3491.46	0.002942
3501.1	0.002192
3510.75	0.001202
3520.39	0.0008914
3530.04	0.0006559
3539.68	0.0004987
3549.32	0.0005537
3558.97	0.0003783
3568.61	0.0005325
3578.26	0.0005688
3587.9	0.0004256
3597.55	0.000404
3607.19	0.000462
3616.84	0.0004857
3626.48	0.0004773
3636.13	0.0002548
3645.77	0.0003697
3655.42	0.0002972
3665.06	0.0004268
3674.71	0.00023988
3684.35	0.000408
3694	0.0003887
3703.64	0.0004112
3713.29	0.0002995
3722.93	9.84e-05
3732.58	0.00017459
3742.22	0.0002912
3751.86	0.0002415
3761.51	0.0001314
3771.15	0.0002506
3780.8	0.00015346
3790.44	0.00018744
3800.09	0.0003904
3809.73	0.0001686
3819.38	0.0003693
3829.02	0.0003829
3838.67	0.0005599
3848.31	0.000391
3857.96	0.0005016
3867.6	0.0003087
3877.25	7.19e-05
3886.89	0.00022733
3896.54	0.0003434
3906.18	0.0002802
3915.83	0.0004235
3925.47	0.0003724
3935.12	0.0002834
3944.76	0.0003756
3954.41	0.0003406
3964.05	0.0003007
3973.69	0.0003455
3983.34	0.0003733
3992.98	0.000442
