Infrared Spectrum: P-CHLOROBENZALDEHYDE P-CHLOROPHENYL HYDRAZONE
Formula: C13 H10 Cl2 N2
CAS: 3101-04-0
State: SOLID (MINERAL OIL MULL)
Class: COBLENTZ
Instrument: Not specified, most likely a prism, grating, or hybrid spectrometer.
Sampling: TRANSMISSION
Resolution: 4
MICROMETERS	TRANSMITTANCE
2.048	0.292
2.08911	0.31
2.13023	0.316
2.17134	0.323
2.21246	0.329
2.25357	0.329
2.29469	0.331
2.3358	0.341
2.37692	0.35
2.41803	0.359
2.45915	0.372
2.50026	0.386
2.54138	0.4
2.58249	0.408
2.62361	0.414
2.66472	0.419
2.70584	0.424
2.74695	0.427
2.78807	0.436
2.82918	0.443
2.8703	0.45
2.91141	0.457
2.95253	0.458
2.99364	0.41
3.03476	0.405
3.07587	0.453
3.11699	0.458
3.1581	0.455
3.19922	0.448
3.24033	0.439
3.28145	0.41
3.32256	0.319
3.36368	0.139
3.40479	0.027
3.44591	0.041
3.48702	0.073
3.52814	0.357
3.56925	0.527
3.61037	0.551
3.65148	0.554
3.6926	0.558
3.73371	0.565
3.77483	0.57
3.81594	0.577
3.85706	0.585
3.89817	0.599
3.93929	0.608
3.9804	0.616
4.02152	0.623
4.06263	0.63
4.10375	0.632
4.14486	0.632
4.18598	0.634
4.22709	0.64
4.26821	0.651
4.30932	0.658
4.35044	0.651
4.39155	0.658
4.43267	0.666
4.47378	0.668
4.5149	0.67
4.55601	0.678
4.59713	0.68
4.63824	0.683
4.67936	0.689
4.72047	0.689
4.76159	0.694
4.8027	0.697
4.84382	0.701
4.88493	0.707
4.92605	0.709
4.96716	0.711
5.00828	0.716
5.04939	0.723
5.09051	0.725
5.13162	0.726
5.17274	0.725
5.21385	0.721
5.25497	0.719
5.29608	0.704
5.3372	0.726
5.37831	0.74
5.41943	0.745
5.46054	0.747
5.50166	0.747
5.54277	0.749
5.58389	0.752
5.625	0.752
5.66612	0.756
5.70723	0.756
5.74835	0.764
5.78946	0.764
5.83058	0.761
5.87169	0.766
5.91281	0.773
5.95392	0.774
5.99504	0.769
6.03615	0.766
6.07727	0.771
6.11838	0.78
6.1595	0.766
6.20061	0.567
6.24173	0.45
6.28284	0.628
6.32396	0.706
6.36507	0.721
6.40619	0.726
6.4473	0.75
6.48842	0.757
6.52953	0.697
6.57065	0.567
6.61176	0.481
6.65288	0.585
6.69399	0.407
6.73511	0.281
6.77622	0.307
6.81734	0.207
6.85845	0.226
6.89957	0.359
6.94068	0.548
6.9818	0.664
7.02291	0.685
7.06403	0.597
7.10514	0.517
7.14626	0.549
7.18737	0.58
7.22849	0.455
7.2696	0.446
7.31072	0.579
7.35183	0.604
7.39295	0.572
7.43406	0.647
7.47518	0.697
7.51629	0.716
7.55741	0.716
7.59852	0.67
7.63963	0.673
7.68075	0.646
7.72186	0.57
7.76298	0.618
7.80409	0.661
7.84521	0.678
7.88632	0.678
7.92744	0.513
7.96855	0.376
8.00967	0.496
8.05078	0.654
8.0919	0.694
8.13301	0.718
8.17413	0.726
8.21524	0.74
8.25636	0.754
8.29747	0.761
8.33859	0.764
8.3797	0.768
8.42082	0.771
8.46193	0.759
8.50305	0.714
8.54416	0.685
8.58528	0.725
8.62639	0.726
8.66751	0.687
8.70862	0.668
8.74974	0.656
8.79085	0.623
8.83197	0.628
8.87308	0.695
8.9142	0.709
8.95531	0.709
8.99643	0.723
9.03754	0.695
9.07866	0.596
9.11977	0.446
9.16089	0.316
9.202	0.281
9.24312	0.546
9.28423	0.639
9.32535	0.678
9.36646	0.707
9.40758	0.738
9.44869	0.749
9.48981	0.752
9.53092	0.756
9.57204	0.762
9.61315	0.769
9.65427	0.773
9.69538	0.774
9.7365	0.776
9.77761	0.781
9.81873	0.745
9.85984	0.646
9.90096	0.675
9.94207	0.738
9.98319	0.752
10.0243	0.785
10.0654	0.788
10.1065	0.785
10.1476	0.786
10.1888	0.786
10.2299	0.781
10.271	0.78
10.3121	0.78
10.3532	0.774
10.3943	0.78
10.4355	0.783
10.4766	0.774
10.5177	0.749
10.5588	0.738
10.5999	0.761
10.641	0.785
10.6821	0.786
10.7233	0.795
10.7644	0.795
10.8055	0.769
10.8466	0.704
10.8877	0.546
10.9288	0.505
10.9699	0.646
11.0111	0.664
11.0522	0.651
11.0933	0.694
11.1344	0.757
11.1755	0.793
11.2166	0.798
11.2578	0.807
11.2989	0.816
11.34	0.819
11.3811	0.824
11.4222	0.828
11.4633	0.833
11.5044	0.833
11.5456	0.833
11.5867	0.831
11.6278	0.829
11.6689	0.824
11.71	0.812
11.7511	0.809
11.7922	0.795
11.8334	0.762
11.8745	0.704
11.9156	0.585
11.9567	0.448
11.9978	0.305
12.0389	0.202
12.0801	0.207
12.1212	0.204
12.1623	0.207
12.2034	0.233
12.2445	0.317
12.2856	0.445
12.3267	0.556
12.3679	0.642
12.409	0.676
12.4501	0.718
12.4912	0.749
12.5323	0.774
12.5734	0.781
12.6145	0.795
12.6557	0.797
12.6968	0.795
12.7379	0.795
12.779	0.797
12.8201	0.797
12.8612	0.793
12.9024	0.792
12.9435	0.788
12.9846	0.788
13.0257	0.788
13.0668	0.786
13.1079	0.785
13.149	0.781
13.1902	0.774
13.2313	0.774
13.2724	0.768
13.3135	0.766
13.3546	0.762
13.3957	0.754
13.4368	0.752
13.478	0.743
13.5191	0.735
13.5602	0.726
13.6013	0.719
13.6424	0.714
13.6835	0.707
13.7246	0.699
13.7658	0.69
13.8069	0.683
13.848	0.678
13.8891	0.685
13.9302	0.69
13.9713	0.683
14.0125	0.656
14.0536	0.623
14.0947	0.613
14.1358	0.627
14.1769	0.642
14.218	0.647
14.2591	0.64
14.3003	0.64
14.3414	0.649
14.3825	0.658
14.4236	0.658
14.4647	0.656
14.5058	0.652
14.5469	0.64
14.5881	0.639
14.6292	0.632
14.6703	0.62
14.7114	0.611
14.7525	0.603
14.7936	0.597
14.8348	0.589
14.8759	0.58
14.917	0.579
14.9581	0.575
14.9992	0.57
15.0403	0.561
15.0814	0.553
15.1226	0.549
15.1637	0.542
15.2048	0.534
15.2459	0.53
15.287	0.522
15.3281	0.517
15.3692	0.517
15.4104	0.51
15.4515	0.5
15.4926	0.489
15.5337	0.482
15.5748	0.481
15.6159	0.472
15.6571	0.469
15.6982	0.463
15.7393	0.462
15.7804	0.462
15.8215	0.46
15.8626	0.453
15.9037	0.455
