Infrared Spectrum: 1-Phenyl-1-cyclohexene
Formula: C 12 H 14
CAS: 31017-40-0
State: gas
Origin: EPA-IR VAPOR PHASE LIBRARY
1/CM	ABSORBANCE
549.8	0.004855
559.445	0.002455
569.09	0.0010345
578.734	0.0007355
588.379	0.00053212
598.024	0.0005925
607.669	0.0009168
617.313	0.0007875
626.958	0.0009663
636.603	0.001595
646.248	0.004825
655.893	0.011775
665.537	0.011665
675.182	0.017495
684.827	0.033975
694.472	0.050015
704.116	0.037825
713.761	0.021465
723.406	0.018975
733.051	0.031225
742.695	0.048225
752.34	0.049655
761.985	0.036825
771.63	0.017955
781.275	0.007145
790.919	0.005055
800.564	0.006015
810.209	0.004805
819.854	0.003625
829.498	0.005005
839.143	0.007725
848.788	0.008035
858.433	0.004565
868.078	0.002745
877.722	0.002275
887.367	0.003495
897.012	0.005845
906.657	0.008085
916.301	0.009955
925.946	0.009635
935.591	0.005675
945.236	0.002635
954.88	0.001745
964.525	0.001815
974.17	0.001505
983.815	0.002125
993.46	0.004345
1003.1	0.008615
1012.75	0.007975
1022.39	0.004935
1032.04	0.006635
1041.68	0.005635
1051.33	0.006375
1060.97	0.007185
1070.62	0.007845
1080.26	0.006915
1089.91	0.003485
1099.55	0.001995
1109.2	0.001795
1118.84	0.002535
1128.49	0.004835
1138.13	0.007095
1147.78	0.004915
1157.42	0.002685
1167.07	0.002245
1176.71	0.002275
1186.36	0.0010854
1196	0.0006708
1205.64	0.0003914
1215.29	0.0008552
1224.93	0.001755
1234.58	0.003575
1244.22	0.005315
1253.87	0.003535
1263.51	0.003685
1273.16	0.005285
1282.8	0.005195
1292.45	0.003855
1302.09	0.003435
1311.74	0.003895
1321.38	0.004955
1331.03	0.007415
1340.67	0.012845
1350.32	0.013415
1359.96	0.007335
1369.61	0.004805
1379.25	0.003115
1388.9	0.002615
1398.54	0.002505
1408.18	0.002885
1417.83	0.004425
1427.47	0.009385
1437.12	0.019715
1446.76	0.022815
1456.41	0.018645
1466.05	0.012755
1475.7	0.009245
1485.34	0.020475
1494.99	0.025415
1504.63	0.010215
1514.28	0.004315
1523.92	0.003295
1533.57	0.002665
1543.21	0.002235
1552.86	0.002215
1562.5	0.003005
1572.15	0.004865
1581.79	0.008505
1591.44	0.015855
1601.08	0.017015
1610.73	0.007165
1620.37	0.003155
1630.01	0.003055
1639.66	0.004585
1649.3	0.005565
1658.95	0.003905
1668.59	0.002515
1678.24	0.002225
1687.88	0.001965
1697.53	0.001905
1707.17	0.001945
1716.82	0.002445
1726.46	0.002875
1736.11	0.002635
1745.75	0.002305
1755.4	0.002245
1765.04	0.002265
1774.69	0.002745
1784.33	0.004155
1793.98	0.004695
1803.62	0.002955
1813.27	0.002125
1822.91	0.001715
1832.55	0.001475
1842.2	0.001595
1851.84	0.002265
1861.49	0.002815
1871.13	0.003405
1880.78	0.003045
1890.42	0.002035
1900.07	0.001755
1909.71	0.001875
1919.36	0.002515
1929	0.003745
1938.65	0.004385
1948.29	0.004715
1957.94	0.003005
1967.58	0.0011791
1977.23	0.0011409
1986.87	0.0009859
1996.52	0.0007639
2006.16	0.0006802
2015.81	0.00053817
2025.45	0.00049359
2035.1	0.0004515
2044.74	0.000476405
2054.38	0.00057341
2064.03	0.000483406
2073.67	0.00049425
2083.32	0.0004556
2092.96	0.00054077
2102.61	0.00055634
2112.25	0.00052336
2121.9	0.00054148
2131.54	0.0005296
2141.19	0.00055815
2150.83	0.0006019
2160.48	0.0006476
2170.12	0.0006767
2179.77	0.0006961
2189.41	0.0008109
2199.06	0.0007503
2208.7	0.0008094
2218.35	0.0007554
2227.99	0.0008132
2237.64	0.0008688
2247.28	0.0008847
2256.92	0.0009935
2266.57	0.0010275
2276.21	0.001013
2285.86	0.0008955
2295.5	0.0008503
2305.15	0.0009884
2314.79	0.0011605
2324.44	0.0009264
2334.08	0.0009643
2343.73	0.0010294
2353.37	0.0010338
2363.02	0.0009796
2372.66	0.0009508
2382.31	0.0008823
2391.95	0.0007731
2401.6	0.0008358
2411.24	0.00089
2420.89	0.0009955
2430.53	0.0008043
2440.18	0.000641
2449.82	0.000633
2459.47	0.0005867
2469.11	0.0006382
2478.75	0.0008448
2488.4	0.0007897
2498.04	0.0009447
2507.69	0.0011025
2517.33	0.0012375
2526.98	0.0011128
2536.62	0.0009401
2546.27	0.0007631
2555.91	0.000775
2565.56	0.0008745
2575.2	0.0011408
2584.85	0.0014072
2594.49	0.001625
2604.14	0.001625
2613.78	0.001615
2623.43	0.001605
2633.07	0.001905
2642.72	0.002455
2652.36	0.003065
2662.01	0.003415
2671.65	0.003565
2681.29	0.003055
2690.94	0.002585
2700.58	0.002095
2710.23	0.001755
2719.87	0.001645
2729.52	0.001525
2739.16	0.001555
2748.81	0.001665
2758.45	0.002025
2768.1	0.002665
2777.74	0.003485
2787.39	0.004315
2797.03	0.005105
2806.68	0.006295
2816.32	0.008285
2825.97	0.013785
2835.61	0.030725
2845.26	0.059125
2854.9	0.063835
2864.55	0.072045
2874.19	0.068685
2883.84	0.054285
2893.48	0.053435
2903.12	0.059205
2912.77	0.085465
2922.41	0.135115
2932.06	0.185615
2941.7	0.236725
2951.35	0.165345
2960.99	0.042545
2970.64	0.016525
2980.28	0.011755
2989.93	0.011785
2999.57	0.013595
3009.22	0.018425
3018.86	0.028785
3028.51	0.047585
3038.15	0.048925
3047.8	0.032245
3057.44	0.040445
3067.09	0.057255
3076.73	0.044425
3086.38	0.031825
3096.02	0.023525
3105.67	0.014375
3115.31	0.007155
3124.95	0.003585
3134.6	0.002655
3144.24	0.002445
3153.89	0.002175
3163.53	0.001655
3173.18	0.0013951
3182.82	0.0013454
3192.47	0.0012038
3202.11	0.0011298
3211.76	0.0010006
3221.4	0.0008674
3231.05	0.0009509
3240.69	0.0008466
3250.34	0.0007351
3259.98	0.0006394
3269.63	0.00054726
3279.27	0.0006731
3288.92	0.000483887
3298.56	0.000334
3308.21	0.0004209
3317.85	0.00033
3327.49	0.000315
3337.14	0.000367
3346.78	0.000426
3356.43	0.0004541
3366.07	0.00053695
3375.72	0.0004601
3385.36	0.00056749
3395.01	0.00050499
3404.65	0.00050477
3414.3	0.0004497
3423.94	0.000294
3433.59	0.00055477
3443.23	0.0006644
3452.88	0.0005659
3462.52	0.0003921
3472.17	0.000258
3481.81	0.000331
3491.46	0.000217
3501.1	0.00035
3510.75	0.000173
3520.39	0.000304
3530.04	0
3539.68	0.000131
3549.32	0.000231
3558.97	0.000312
3568.61	0.000276
3578.26	0.000233
3587.9	0.00034
3597.55	0.0004577
3607.19	0.000168
3616.84	0.000241
3626.48	0.00053809
3636.13	0.0004053
3645.77	0.00050815
3655.42	0.0007319
3665.06	0.00055408
3674.71	0.0006955
3684.35	0.0007637
3694	0.0006889
3703.64	0.0008138
3713.29	0.0008165
3722.93	0.0006362
3732.58	0.0006564
3742.22	0.0006212
3751.86	0.000303
3761.51	0.000651
3771.15	0.0004023
3780.8	0.0006631
3790.44	0.0006725
3800.09	0.0006242
3809.73	0.00052055
3819.38	0.0006294
3829.02	0.0005793
3838.67	0.00052289
3848.31	0.00053389
3857.96	0.0007322
3867.6	0.00056784
3877.25	0.00055527
3886.89	0.0004491
3896.54	0.00051313
3906.18	0.00050213
3915.83	0.0006384
3925.47	0.0009416
3935.12	0.0009608
3944.76	0.0010051
3954.41	0.0009242
3964.05	0.0007248
3973.69	0.0009067
3983.34	0.0009523
3992.98	0.0010665
