Infrared Spectrum: 9H-PURIN-6(1H)-ONE, 9-ETHYL-
Formula: C7 H8 N4 O
CAS: 31010-51-2
State: SOLID (0.6 mg / 650 mg KBr DISC)
Class: COBLENTZ III
Instrument: PERKIN-ELMER 21 (GRATING)
Instrument parameters: FILTER CHANGE ABOUT 1075 CM^-^1
Sampling: TRANSMISSION
Resolution: 2
Origin: SOUTHERN RESEARCH INSTITUTE
1/CM	TRANSMITTANCE
612.636	0.9558
621.681	0.9404
630.727	0.9107
639.772	0.781
648.818	0.8534
657.863	0.9983
666.908	0.9956
675.954	0.9737
684.999	0.9226
694.045	0.7984
703.09	0.7138
712.135	0.7346
721.181	0.9247
730.226	0.9354
739.272	0.9234
748.317	0.9094
757.362	0.8914
766.408	0.87
775.453	0.8453
784.499	0.7288
793.544	0.5956
802.589	0.7668
811.635	0.8069
820.68	0.8075
829.726	0.7985
838.771	0.7747
847.816	0.6421
856.862	0.7719
865.907	0.7683
874.953	0.7474
883.998	0.711
893.043	0.664
902.089	0.5244
911.134	0.6087
920.18	0.6105
929.225	0.5616
938.271	0.622
947.316	0.6585
956.361	0.6295
965.407	0.5639
974.452	0.7313
983.498	0.7367
992.543	0.7447
1001.59	0.7469
1010.63	0.7453
1019.68	0.7459
1028.72	0.7457
1037.77	0.7339
1046.82	0.7303
1055.86	0.7224
1064.91	0.6958
1073.95	0.6316
1083	0.3955
1092.04	0.6742
1101.09	0.6911
1110.13	0.7098
1119.18	0.6732
1128.22	0.4875
1137.27	0.5252
1146.31	0.7033
1155.36	0.68
1164.41	0.5893
1173.45	0.3517
1182.5	0.623
1191.54	0.5207
1200.59	0.2461
1209.63	0.3515
1218.68	0.6465
1227.72	0.7647
1236.77	0.6936
1245.81	0.6335
1254.86	0.7766
1263.91	0.7663
1272.95	0.7604
1282	0.7047
1291.04	0.5213
1300.09	0.6014
1309.13	0.727
1318.18	0.7131
1327.22	0.676
1336.27	0.5853
1345.31	0.2928
1354.36	0.4304
1363.4	0.5959
1372.45	0.4131
1381.5	0.6649
1390.54	0.6055
1399.59	0.5624
1408.63	0.4137
1417.68	0.2287
1426.72	0.5547
1435.77	0.6745
1444.81	0.6562
1453.86	0.5336
1462.9	0.5732
1471.95	0.439
1480.99	0.475
1490.04	0.6558
1499.09	0.6725
1508.13	0.6379
1517.18	0.5813
1526.22	0.5064
1535.27	0.6047
1544.31	0.3009
1553.36	0.4177
1562.4	0.6489
1571.45	0.62
1580.49	0.4451
1589.54	0.2676
1598.58	0.3403
1607.63	0.5977
1616.68	0.5829
1625.72	0.545
1634.77	0.4716
1643.81	0.3926
1652.86	0.2922
1661.9	0.2159
1670.95	0.0706
1679.99	0.0377
1689.04	0.0691
1698.08	0.131
1707.13	0.2347
1716.18	0.37
1725.22	0.49
1734.27	0.5832
1743.31	0.6805
1752.36	0.7207
1761.4	0.7525
1770.45	0.7741
1779.49	0.7886
1788.54	0.7969
1797.58	0.7945
1806.63	0.7871
1815.67	0.7744
1824.72	0.7704
1833.77	0.7714
1842.81	0.7801
1851.86	0.7929
1860.9	0.8084
1869.95	0.8135
1878.99	0.8142
1888.04	0.8144
1897.08	0.8143
1906.13	0.8145
1915.17	0.8143
1924.22	0.8133
1933.26	0.8115
1942.31	0.8055
1951.36	0.8015
1960.4	0.8011
1969.45	0.8035
1978.49	0.8076
1987.54	0.8144
1996.58	0.8206
2005.63	0.828
2014.67	0.8351
2023.72	0.8365
2032.76	0.8366
2041.81	0.8366
2050.86	0.8365
2059.9	0.8364
2068.95	0.8362
2077.99	0.8366
2087.04	0.837
2096.08	0.837
2105.13	0.8356
2114.17	0.834
2123.22	0.8314
2132.26	0.8294
2141.31	0.8282
2150.35	0.8269
2159.4	0.8254
2168.45	0.8234
2177.49	0.8208
2186.54	0.8166
2195.58	0.8137
2204.63	0.8131
2213.67	0.8136
2222.72	0.8125
2231.76	0.8094
2240.81	0.8061
2249.85	0.8029
2258.9	0.7996
2267.94	0.7963
2276.99	0.793
2286.04	0.7896
2295.08	0.7863
2304.13	0.7819
2313.17	0.7737
2322.22	0.7657
2331.26	0.7617
2340.31	0.7602
2349.35	0.7607
2358.4	0.7609
2367.44	0.7604
2376.49	0.7598
2385.53	0.7574
2394.58	0.7512
2403.63	0.745
2412.67	0.7382
2421.72	0.7311
2430.76	0.7243
2439.81	0.7177
2448.85	0.7094
2457.9	0.6997
2466.94	0.6902
2475.99	0.6809
2485.03	0.6696
2494.08	0.6567
2503.13	0.644
2512.17	0.6317
2521.22	0.6201
2530.26	0.6095
2539.31	0.5971
2548.35	0.5831
2557.4	0.5692
2566.44	0.5505
2575.49	0.5349
2584.53	0.5198
2593.58	0.5121
2602.62	0.5086
2611.67	0.4978
2620.72	0.4867
2629.76	0.4787
2638.81	0.478
2647.85	0.4803
2656.9	0.4784
2665.94	0.4652
2674.99	0.4513
2684.03	0.4424
2693.08	0.4375
2702.12	0.4327
2711.17	0.4275
2720.21	0.4191
2729.26	0.4078
2738.31	0.3978
2747.35	0.3887
2756.4	0.3804
2765.44	0.3691
2774.49	0.3501
2783.53	0.337
2792.58	0.334
2801.62	0.3324
2810.67	0.3323
2819.71	0.3328
2828.76	0.3341
2837.81	0.3374
2846.85	0.3417
2855.9	0.3495
2864.94	0.363
2873.99	0.3779
2883.03	0.4086
2892.08	0.4163
2901.12	0.4277
2910.17	0.4588
2919.21	0.4793
2928.26	0.4823
2937.3	0.4761
2946.35	0.4594
2955.4	0.4351
2964.44	0.4288
2973.49	0.437
2982.53	0.4501
2991.58	0.4538
3000.62	0.4412
3009.67	0.4281
3018.71	0.4166
3027.76	0.394
3036.8	0.3759
3045.85	0.3726
3054.89	0.3787
3063.94	0.406
3072.99	0.4871
3082.03	0.5196
3091.08	0.5389
3100.12	0.5527
3109.17	0.5615
3118.21	0.5748
3127.26	0.6323
3136.3	0.6577
3145.35	0.6594
3154.39	0.6619
3163.44	0.6709
3172.49	0.6827
3181.53	0.6953
3190.58	0.7065
3199.62	0.7143
3208.67	0.7207
3217.71	0.7228
3226.76	0.7225
3235.8	0.7219
3244.85	0.7204
3253.89	0.7191
3262.94	0.7188
3271.98	0.7186
3281.03	0.7174
3290.08	0.7157
3299.12	0.7129
3308.17	0.7087
3317.21	0.7036
3326.26	0.6951
3335.3	0.685
3344.35	0.6747
3353.39	0.6639
3362.44	0.6522
3371.48	0.6454
3380.53	0.632
3389.57	0.6255
3398.62	0.6239
3407.67	0.6242
3416.71	0.6252
3425.76	0.6266
3434.8	0.6287
3443.85	0.6312
3452.89	0.6341
3461.94	0.6375
3470.98	0.6419
3480.03	0.6467
3489.07	0.6522
3498.12	0.6605
3507.16	0.6692
3516.21	0.6767
3525.26	0.6838
3534.3	0.6906
3543.35	0.6973
3552.39	0.7039
3561.44	0.7104
3570.48	0.7169
3579.53	0.7236
3588.57	0.7297
3597.62	0.7352
3606.66	0.7401
3615.71	0.7436
3624.76	0.746
3633.8	0.754
3642.85	0.7612
3651.89	0.7627
3660.94	0.7627
3669.98	0.7632
3679.03	0.7634
3688.07	0.7635
3697.12	0.7635
3706.16	0.7637
3715.21	0.7638
3724.25	0.7635
3733.3	0.7632
3742.35	0.7629
3751.39	0.763
3760.44	0.7631
3769.48	0.7632
3778.53	0.7623
3787.57	0.7613
3796.62	0.7579
3805.66	0.754
3814.71	0.7526
3823.75	0.752
3832.8	0.7514
3841.84	0.7508
3850.89	0.7507
3859.94	0.7509
3868.98	0.751
3878.03	0.7514
3887.07	0.7519
3896.12	0.7524
3905.16	0.7516
3914.21	0.7502
3923.25	0.7482
3932.3	0.7466
3941.34	0.7481
3950.39	0.7505
3959.44	0.7523
3968.48	0.754
3977.53	0.7549
3986.57	0.7553
3995.62	0.7553
4004.66	0.7552
4013.71	0.755
4022.75	0.7552
4031.8	0.7555
4040.84	0.7564
4049.89	0.7592
4058.93	0.7723
4067.98	0.8279
