Infrared Spectrum: CARVONE, 2,4-DINITROPHENYL HYDRAZONE
Formula: C16 H18 N4 O4
CAS: 3102-61-2
State: SOLID (KBr PELLET)
Melting point: 193 C
Class: COBLENTZ
Instrument: Not specified, most likely a grating spectrometer.
Sampling: TRANSMISSION
Resolution: 4
Origin: CITRUS EXPERIMENT STATION, UNIVERSITY OF FLORIDA (G. EDWARDS)
MICROMETERS	TRANSMITTANCE
2.027	0.637
2.06033	0.637
2.09366	0.637
2.127	0.637
2.16033	0.637
2.19366	0.637
2.22699	0.637
2.26033	0.637
2.29366	0.637
2.32699	0.637
2.36032	0.637
2.39366	0.636
2.42699	0.636
2.46032	0.636
2.49365	0.632
2.52699	0.63
2.56032	0.629
2.59365	0.625
2.62698	0.618
2.66032	0.612
2.69365	0.605
2.72698	0.598
2.76031	0.593
2.79364	0.589
2.82698	0.585
2.86031	0.585
2.89364	0.586
2.92697	0.589
2.96031	0.6
2.99364	0.601
3.02697	0.606
3.0603	0.636
3.09364	0.648
3.12697	0.649
3.1603	0.645
3.19363	0.626
3.22697	0.621
3.2603	0.621
3.29363	0.612
3.32696	0.579
3.3603	0.54
3.39363	0.53
3.42696	0.573
3.46029	0.601
3.49363	0.605
3.52696	0.64
3.56029	0.642
3.59362	0.642
3.62695	0.642
3.66029	0.642
3.69362	0.642
3.72695	0.644
3.76028	0.645
3.79362	0.645
3.82695	0.645
3.86028	0.646
3.89361	0.646
3.92695	0.646
3.96028	0.646
3.99361	0.646
4.02694	0.646
4.06028	0.648
4.09361	0.649
4.12694	0.649
4.16027	0.651
4.19361	0.652
4.22694	0.652
4.26027	0.652
4.2936	0.652
4.32693	0.652
4.36027	0.651
4.3936	0.651
4.42693	0.651
4.46026	0.651
4.4936	0.651
4.52693	0.651
4.56026	0.651
4.59359	0.651
4.62693	0.651
4.66026	0.651
4.69359	0.649
4.72692	0.646
4.76026	0.651
4.79359	0.651
4.82692	0.651
4.86025	0.648
4.89359	0.646
4.92692	0.651
4.96025	0.651
4.99358	0.651
5.02692	0.651
5.06025	0.651
5.09358	0.651
5.12691	0.651
5.16024	0.652
5.19358	0.652
5.22691	0.651
5.26024	0.651
5.29357	0.651
5.32691	0.651
5.36024	0.649
5.39357	0.645
5.4269	0.645
5.46024	0.645
5.49357	0.645
5.5269	0.644
5.56023	0.638
5.59357	0.636
5.6269	0.634
5.66023	0.621
5.69356	0.616
5.7269	0.616
5.76023	0.616
5.79356	0.609
5.82689	0.602
5.86022	0.598
5.89356	0.594
5.92689	0.587
5.96022	0.579
5.99355	0.563
6.02689	0.522
6.06022	0.48
6.09355	0.442
6.12688	0.354
6.16022	0.212
6.19355	0.212
6.22688	0.245
6.26021	0.205
6.29355	0.296
6.32688	0.483
6.36021	0.522
6.39354	0.522
6.42688	0.516
6.46021	0.464
6.49354	0.456
6.52687	0.414
6.5602	0.335
6.59354	0.315
6.62687	0.324
6.6602	0.361
6.69353	0.465
6.72687	0.551
6.7602	0.559
6.79353	0.554
6.82686	0.528
6.8602	0.511
6.89353	0.499
6.92686	0.472
6.96019	0.401
6.99353	0.401
7.02686	0.438
7.06019	0.539
7.09352	0.585
7.12686	0.573
7.16019	0.53
7.19352	0.523
7.22685	0.524
7.26019	0.535
7.29352	0.532
7.32685	0.471
7.36018	0.344
7.39351	0.195
7.42685	0.2
7.46018	0.103
7.49351	0.126
7.52684	0.303
7.56018	0.37
7.59351	0.406
7.62684	0.48
7.66017	0.502
7.69351	0.502
7.72684	0.522
7.76017	0.524
7.7935	0.516
7.82684	0.5
7.86017	0.496
7.8935	0.497
7.92683	0.476
7.96017	0.43
7.9935	0.44
8.02683	0.515
8.06016	0.565
8.09349	0.565
8.12683	0.559
8.16016	0.554
8.19349	0.553
8.22682	0.565
8.26016	0.59
8.29349	0.6
8.32682	0.602
8.36015	0.604
8.39349	0.605
8.42682	0.605
8.46015	0.605
8.49348	0.605
8.52682	0.602
8.56015	0.6
8.59348	0.595
8.62681	0.582
8.66015	0.571
8.69348	0.55
8.72681	0.503
8.76014	0.442
8.79348	0.334
8.82681	0.214
8.86014	0.208
8.89347	0.241
8.9268	0.314
8.96014	0.386
8.99347	0.433
9.0268	0.472
9.06013	0.481
9.09347	0.481
9.1268	0.476
9.16013	0.469
9.19346	0.469
9.2268	0.481
9.26013	0.53
9.29346	0.559
9.32679	0.558
9.36013	0.55
9.39346	0.53
9.42679	0.527
9.46012	0.539
9.49346	0.527
9.52679	0.469
9.56012	0.46
9.59345	0.503
9.62678	0.548
9.66012	0.551
9.69345	0.561
9.72678	0.585
9.76011	0.601
9.79345	0.608
9.82678	0.608
9.86011	0.616
9.89344	0.618
9.92678	0.621
9.96011	0.625
9.99344	0.629
10.0268	0.629
10.0601	0.63
10.0934	0.63
10.1268	0.63
10.1601	0.632
10.1934	0.633
10.2268	0.636
10.2601	0.637
10.2934	0.637
10.3268	0.637
10.3601	0.638
10.3934	0.638
10.4268	0.638
10.4601	0.638
10.4934	0.638
10.5268	0.638
10.5601	0.637
10.5934	0.637
10.6268	0.636
10.6601	0.633
10.6934	0.63
10.7268	0.624
10.7601	0.612
10.7934	0.606
10.8268	0.604
10.8601	0.602
10.8934	0.589
10.9267	0.546
10.9601	0.551
10.9934	0.591
11.0267	0.6
11.0601	0.591
11.0934	0.579
11.1267	0.561
11.1601	0.534
11.1934	0.496
11.2267	0.485
11.2601	0.524
11.2934	0.561
11.3267	0.562
11.3601	0.563
11.3934	0.578
11.4267	0.598
11.4601	0.613
11.4934	0.622
11.5267	0.625
11.5601	0.626
11.5934	0.628
11.6267	0.626
11.6601	0.621
11.6934	0.61
11.7267	0.591
11.7601	0.532
11.7934	0.5
11.8267	0.553
11.8601	0.609
11.8934	0.62
11.9267	0.612
11.9601	0.595
11.9934	0.532
12.0267	0.5
12.06	0.563
12.0934	0.622
12.1267	0.636
12.16	0.636
12.1934	0.636
12.2267	0.636
12.26	0.634
12.2934	0.633
12.3267	0.633
12.36	0.625
12.3934	0.618
12.4267	0.609
12.46	0.601
12.4934	0.587
12.5267	0.578
12.56	0.582
12.5934	0.602
12.6267	0.62
12.66	0.621
12.6934	0.621
12.7267	0.621
12.76	0.621
12.7934	0.621
12.8267	0.62
12.86	0.62
12.8934	0.618
12.9267	0.616
12.96	0.612
12.9934	0.61
13.0267	0.608
13.06	0.6
13.0934	0.595
13.1267	0.595
13.16	0.602
13.1934	0.606
13.2267	0.606
13.26	0.605
13.2933	0.602
13.3267	0.6
13.36	0.594
13.3933	0.583
13.4267	0.558
13.46	0.508
13.4933	0.459
13.5267	0.469
13.56	0.522
13.5933	0.577
13.6267	0.59
13.66	0.59
13.6933	0.589
13.7267	0.587
13.76	0.585
13.7933	0.579
13.8267	0.569
13.86	0.558
13.8933	0.55
13.9267	0.543
13.96	0.542
13.9933	0.543
14.0267	0.544
14.06	0.548
14.0933	0.55
14.1267	0.55
14.16	0.548
14.1933	0.547
14.2267	0.546
14.26	0.543
14.2933	0.542
14.3267	0.542
14.36	0.543
14.3933	0.542
14.4266	0.542
14.46	0.542
14.4933	0.542
14.5266	0.542
14.56	0.542
14.5933	0.543
14.6266	0.543
14.66	0.543
14.6933	0.543
14.7266	0.543
14.76	0.543
14.7933	0.543
14.8266	0.543
14.86	0.543
14.8933	0.543
14.9266	0.544
14.96	0.544
