Infrared Spectrum: Ethyl 5-amino-1-methylpyrazole-4-carboxylate
Formula: C 7 H 11 N 3 O 2
CAS: 31037-02-2
State: gas
Origin: EPA-IR VAPOR PHASE LIBRARY
1/CM	ABSORBANCE
549.8	0.010927
559.445	0.009637
569.09	0.007657
578.734	0.008187
588.379	0.008347
598.024	0.008187
607.669	0.008977
617.313	0.008787
626.958	0.009907
636.603	0.009657
646.248	0.008497
655.893	0.008437
665.537	0.009597
675.182	0.011797
684.827	0.009907
694.472	0.006997
704.116	0.006047
713.761	0.006647
723.406	0.006947
733.051	0.006777
742.695	0.007817
752.34	0.008637
761.985	0.013597
771.63	0.019567
781.275	0.021877
790.919	0.017157
800.564	0.011717
810.209	0.008777
819.854	0.008657
829.498	0.009737
839.143	0.009177
848.788	0.008437
858.433	0.008247
868.078	0.010347
877.722	0.008097
887.367	0.005007
897.012	0.004417
906.657	0.004807
916.301	0.004837
925.946	0.004947
935.591	0.006347
945.236	0.011877
954.88	0.026907
964.525	0.024757
974.17	0.011497
983.815	0.007877
993.46	0.010027
1003.1	0.011717
1012.75	0.013367
1022.39	0.021547
1032.04	0.030867
1041.68	0.025587
1051.33	0.018327
1060.97	0.015837
1070.62	0.016437
1080.26	0.019217
1089.91	0.030267
1099.55	0.052627
1109.2	0.081557
1118.84	0.096627
1128.49	0.081187
1138.13	0.050397
1147.78	0.033257
1157.42	0.027067
1167.07	0.023657
1176.71	0.023517
1186.36	0.028227
1196	0.033967
1205.64	0.033087
1215.29	0.037557
1224.93	0.047857
1234.58	0.065087
1244.22	0.096327
1253.87	0.083127
1263.51	0.037977
1273.16	0.025687
1282.8	0.038087
1292.45	0.070237
1302.09	0.069737
1311.74	0.034267
1321.38	0.017417
1331.03	0.010087
1340.67	0.008027
1350.32	0.009697
1359.96	0.011617
1369.61	0.014447
1379.25	0.030847
1388.9	0.036247
1398.54	0.032257
1408.18	0.032487
1417.83	0.020667
1427.47	0.014607
1437.12	0.015807
1446.76	0.018117
1456.41	0.017277
1466.05	0.015357
1475.7	0.013897
1485.34	0.011267
1494.99	0.010997
1504.63	0.013337
1514.28	0.018157
1523.92	0.032417
1533.57	0.057507
1543.21	0.101417
1552.86	0.125717
1562.5	0.074617
1572.15	0.034887
1581.79	0.023987
1591.44	0.025417
1601.08	0.040387
1610.73	0.070247
1620.37	0.079497
1630.01	0.051487
1639.66	0.026387
1649.3	0.017047
1658.95	0.015577
1668.59	0.017987
1678.24	0.029217
1687.88	0.062997
1697.53	0.108547
1707.17	0.101677
1716.82	0.054617
1726.46	0.040167
1736.11	0.045087
1745.75	0.036987
1755.4	0.019377
1765.04	0.009277
1774.69	0.006127
1784.33	0.005067
1793.98	0.004847
1803.62	0.004497
1813.27	0.004457
1822.91	0.003967
1832.55	0.003747
1842.2	0.003307
1851.84	0.003087
1861.49	0.002887
1871.13	0.003027
1880.78	0.003087
1890.42	0.002797
1900.07	0.002757
1909.71	0.002417
1919.36	0.002257
1929	0.002137
1938.65	0.002027
1948.29	0.002067
1957.94	0.001847
1967.58	0.002047
1977.23	0.002067
1986.87	0.002167
1996.52	0.001775
2006.16	0.001967
2015.81	0.0017317
2025.45	0.0014538
2035.1	0.0014897
2044.74	0.0016664
2054.38	0.0015485
2064.03	0.0015732
2073.67	0.0014037
2083.32	0.0012834
2092.96	0.0012542
2102.61	0.0011451
2112.25	0.0014411
2121.9	0.0013853
2131.54	0.0014474
2141.19	0.0011976
2150.83	0.0013048
2160.48	0.0012452
2170.12	0.0009767
2179.77	0.0011816
2189.41	0.0010415
2199.06	0.0012704
2208.7	0.0013079
2218.35	0.00159
2227.99	0.0014385
2237.64	0.0013422
2247.28	0.001348
2256.92	0.0013276
2266.57	0.0010674
2276.21	0.0010941
2285.86	0.0010078
2295.5	0.0011133
2305.15	0.0008843
2314.79	0.0012666
2324.44	0.0012542
2334.08	0.00084742
2343.73	0.0010119
2353.37	0.0009098
2363.02	0.001164
2372.66	0.0012716
2382.31	0.0010993
2391.95	0.0014124
2401.6	0.001039
2411.24	0.0009342
2420.89	0.000888
2430.53	0.0010077
2440.18	0.000637
2449.82	0.0008986
2459.47	0.00081966
2469.11	0.0011803
2478.75	0.0010329
2488.4	0.0015381
2498.04	0.0011204
2507.69	0.0009777
2517.33	0.0011893
2526.98	0.001149
2536.62	0.0013992
2546.27	0.0011679
2555.91	0.000668
2565.56	0.00079724
2575.2	0.0009692
2584.85	0.0007659
2594.49	0.0006891
2604.14	0.00080606
2613.78	0.000413
2623.43	0.0006881
2633.07	0.0011696
2642.72	0.0007314
2652.36	0.0006923
2662.01	0.0007604
2671.65	0.00080258
2681.29	0.00079054
2690.94	0.0010404
2700.58	0.000459
2710.23	0.0010972
2719.87	0.00082092
2729.52	0.0012161
2739.16	0.0008945
2748.81	0.0011345
2758.45	0.0012669
2768.1	0.0011681
2777.74	0.0017145
2787.39	0.002377
2797.03	0.002737
2806.68	0.003267
2816.32	0.002907
2825.97	0.002497
2835.61	0.002727
2845.26	0.003607
2854.9	0.003537
2864.55	0.004177
2874.19	0.005607
2883.84	0.008657
2893.48	0.010327
2903.12	0.010537
2912.77	0.010897
2922.41	0.011627
2932.06	0.015437
2941.7	0.024137
2951.35	0.026327
2960.99	0.021497
2970.64	0.020727
2980.28	0.024807
2989.93	0.023787
2999.57	0.015447
3009.22	0.010287
3018.86	0.006087
3028.51	0.004997
3038.15	0.003767
3047.8	0.004287
3057.44	0.003587
3067.09	0.003537
3076.73	0.002967
3086.38	0.002837
3096.02	0.002617
3105.67	0.001807
3115.31	0.002107
3124.95	0.002287
3134.6	0.001977
3144.24	0.0014239
3153.89	0.0009058
3163.53	0.0012008
3173.18	0.0013427
3182.82	0.0013163
3192.47	0.0008832
3202.11	0.0015043
3211.76	0.0015093
3221.4	0.0015824
3231.05	0.0013379
3240.69	0.001184
3250.34	0.0016429
3259.98	0.0014207
3269.63	0.0015687
3279.27	0.001817
3288.92	0.001454
3298.56	0.0015491
3308.21	0.002017
3317.85	0.002197
3327.49	0.002287
3337.14	0.003317
3346.78	0.007417
3356.43	0.014637
3366.07	0.017227
3375.72	0.009857
3385.36	0.006447
3395.01	0.005817
3404.65	0.003057
3414.3	0.001947
3423.94	0.001787
3433.59	0.002197
3443.23	0.003337
3452.88	0.005377
3462.52	0.010627
3472.17	0.016177
3481.81	0.013417
3491.46	0.007567
3501.1	0.003437
3510.75	0.001977
3520.39	0.0012325
3530.04	0.0013459
3539.68	0.0010563
3549.32	0.0012062
3558.97	0.0014379
3568.61	0.0009999
3578.26	0.0009001
3587.9	0.0013897
3597.55	0.000974
3607.19	0.000576
3616.84	0.0009135
3626.48	0.00082845
3636.13	0.00024
3645.77	0.0011206
3655.42	0.0012236
3665.06	0.0007189
3674.71	0.000782741
3684.35	0.00078811
3694	8.3e-05
3703.64	0.0012273
3713.29	0.00083382
3722.93	0.0011884
3732.58	0.0012041
3742.22	0.0011578
3751.86	0.0009733
3761.51	0.0011144
3771.15	0.0009236
3780.8	0.000294
3790.44	0.00087062
3800.09	0.0009356
3809.73	0.000596
3819.38	0.000205
3829.02	0.000212
3838.67	0.00017
3848.31	0.000558
3857.96	0.000391
3867.6	0.000657
3877.25	0.000611
3886.89	0.0008903
3896.54	0.0008403
3906.18	0.0011968
3915.83	0.0010859
3925.47	0.0008826
3935.12	0.0010664
3944.76	0.0011952
3954.41	0.0009612
3964.05	0.000668
3973.69	0.0007394
3983.34	0.0010335
3992.98	0.0007623
