Infrared Spectrum: TETRA-N-BUTYL AMMONIUM IODIDE
Formula: C16 H36 I N
CAS: 311-28-4
State: SOLID (MINERAL OIL MULL)
Class: COBLENTZ
Instrument: Not specified, most likely a prism, grating, or hybrid spectrometer.
Sampling: TRANSMISSION
Resolution: 4
Origin: DOW CHEMICAL COMPANY
MICROMETERS	TRANSMITTANCE
2.041	0.609
2.08202	0.616
2.12303	0.602
2.16405	0.592
2.20506	0.581
2.24608	0.552
2.28709	0.544
2.32811	0.559
2.36913	0.568
2.41014	0.581
2.45116	0.61
2.49217	0.627
2.53319	0.634
2.5742	0.641
2.61522	0.656
2.65623	0.66
2.69725	0.677
2.73827	0.686
2.77928	0.703
2.8203	0.715
2.86131	0.721
2.90233	0.726
2.94334	0.733
2.98436	0.738
3.02538	0.74
3.06639	0.728
3.10741	0.699
3.14842	0.697
3.18944	0.696
3.23045	0.658
3.27147	0.592
3.31248	0.424
3.3535	0.081
3.39452	0.047
3.43553	0.052
3.47655	0.102
3.51756	0.419
3.55858	0.527
3.59959	0.556
3.64061	0.537
3.68163	0.571
3.72264	0.583
3.76366	0.597
3.80467	0.612
3.84569	0.633
3.8867	0.653
3.92772	0.679
3.96873	0.691
4.00975	0.699
4.05077	0.699
4.09178	0.696
4.1328	0.691
4.17381	0.691
4.21483	0.706
4.25584	0.72
4.29686	0.728
4.33788	0.72
4.37889	0.718
4.41991	0.728
4.46092	0.738
4.50194	0.735
4.54295	0.732
4.58397	0.738
4.62498	0.754
4.666	0.755
4.70702	0.761
4.74803	0.762
4.78905	0.767
4.83006	0.769
4.87108	0.776
4.91209	0.783
4.95311	0.788
4.99413	0.796
5.03514	0.8
5.07616	0.807
5.11717	0.808
5.15819	0.808
5.1992	0.81
5.24022	0.81
5.28124	0.817
5.32225	0.82
5.36327	0.822
5.40428	0.822
5.4453	0.827
5.48631	0.829
5.52733	0.829
5.56834	0.831
5.60936	0.832
5.65038	0.834
5.69139	0.829
5.73241	0.831
5.77342	0.834
5.81444	0.829
5.85545	0.827
5.89647	0.827
5.93749	0.829
5.9785	0.832
6.01952	0.829
6.06053	0.839
6.10155	0.839
6.14256	0.834
6.18358	0.836
6.22459	0.836
6.26561	0.831
6.30663	0.829
6.34764	0.822
6.38866	0.81
6.42967	0.798
6.47069	0.79
6.5117	0.781
6.55272	0.767
6.59374	0.757
6.63475	0.742
6.67577	0.677
6.71678	0.465
6.7578	0.204
6.79881	0.04
6.83983	0.066
6.88084	0.179
6.92186	0.414
6.96288	0.569
7.00389	0.609
7.04491	0.578
7.08592	0.482
7.12694	0.455
7.16795	0.467
7.20897	0.32
7.24999	0.242
7.291	0.397
7.33202	0.546
7.37303	0.622
7.41405	0.655
7.45506	0.662
7.49608	0.59
7.53709	0.561
7.57811	0.626
7.61913	0.686
7.66014	0.737
7.70116	0.752
7.74217	0.755
7.78319	0.769
7.8242	0.776
7.86522	0.783
7.90624	0.783
7.94725	0.788
7.98827	0.75
8.02928	0.694
8.0703	0.769
8.11131	0.82
8.15233	0.832
8.19335	0.839
8.23436	0.846
8.27538	0.849
8.31639	0.853
8.35741	0.836
8.39842	0.776
8.43944	0.725
8.48045	0.704
8.52147	0.593
8.56249	0.534
8.6035	0.738
8.64452	0.803
8.68553	0.831
8.72655	0.851
8.76756	0.865
8.80858	0.87
8.8496	0.872
8.89061	0.856
8.93163	0.778
8.97264	0.617
9.01366	0.44
9.05467	0.665
9.09569	0.8
9.1367	0.832
9.17772	0.844
9.21874	0.843
9.25975	0.82
9.30077	0.752
9.34178	0.667
9.3828	0.646
9.42381	0.668
9.46483	0.66
9.50585	0.766
9.54686	0.827
9.58788	0.827
9.62889	0.74
9.66991	0.609
9.71092	0.559
9.75194	0.769
9.79295	0.831
9.83397	0.849
9.87499	0.863
9.916	0.858
9.95702	0.829
9.99803	0.764
10.039	0.667
10.0801	0.588
10.1211	0.633
10.1621	0.747
10.2031	0.788
10.2441	0.82
10.2851	0.834
10.3262	0.846
10.3672	0.853
10.4082	0.861
10.4492	0.865
10.4902	0.866
10.5312	0.868
10.5723	0.866
10.6133	0.86
10.6543	0.849
10.6953	0.819
10.7363	0.759
10.7773	0.651
10.8183	0.435
10.8594	0.445
10.9004	0.691
10.9414	0.75
10.9824	0.75
11.0234	0.749
11.0644	0.679
11.1055	0.551
11.1465	0.363
11.1875	0.414
11.2285	0.593
11.2695	0.578
11.3105	0.491
11.3515	0.45
11.3926	0.585
11.4336	0.733
11.4746	0.798
11.5156	0.836
11.5566	0.858
11.5976	0.87
11.6387	0.877
11.6797	0.88
11.7207	0.883
11.7617	0.885
11.8027	0.889
11.8437	0.892
11.8848	0.899
11.9258	0.901
11.9668	0.902
12.0078	0.904
12.0488	0.904
12.0898	0.906
12.1308	0.906
12.1719	0.906
12.2129	0.904
12.2539	0.902
12.2949	0.897
12.3359	0.89
12.3769	0.88
12.418	0.861
12.459	0.839
12.5	0.822
12.541	0.81
12.582	0.819
12.623	0.854
12.664	0.877
12.7051	0.878
12.7461	0.882
12.7871	0.882
12.8281	0.88
12.8691	0.873
12.9101	0.873
12.9512	0.87
12.9922	0.868
13.0332	0.866
13.0742	0.866
13.1152	0.865
13.1562	0.858
13.1973	0.848
13.2383	0.836
13.2793	0.822
13.3203	0.802
13.3613	0.778
13.4023	0.74
13.4433	0.667
13.4844	0.573
13.5254	0.46
13.5664	0.404
13.6074	0.428
13.6484	0.554
13.6894	0.643
13.7305	0.68
13.7715	0.694
13.8125	0.706
13.8535	0.723
13.8945	0.744
13.9355	0.761
13.9765	0.774
14.0176	0.781
14.0586	0.786
14.0996	0.791
14.1406	0.793
14.1816	0.793
14.2226	0.791
14.2637	0.79
14.3047	0.786
14.3457	0.783
14.3867	0.779
14.4277	0.774
14.4687	0.769
14.5098	0.766
14.5508	0.761
14.5918	0.754
14.6328	0.749
14.6738	0.744
14.7148	0.737
14.7558	0.733
14.7969	0.728
14.8379	0.716
14.8789	0.709
14.9199	0.703
14.9609	0.697
15.0019	0.692
15.043	0.682
15.084	0.677
15.125	0.668
15.166	0.66
15.207	0.651
15.248	0.646
15.289	0.638
15.3301	0.633
15.3711	0.624
15.4121	0.616
15.4531	0.607
15.4941	0.598
15.5351	0.59
15.5762	0.58
15.6172	0.569
15.6582	0.564
15.6992	0.556
15.7402	0.549
15.7812	0.546
15.8223	0.537
15.8633	0.532
15.9043	0.537
15.9453	0.547
