Infrared Spectrum: Ethyl n-propyl sulphone
Formula: C 5 H 12 O 2 S
CAS: 31110-65-3
State: gas
Origin: EPA-IR VAPOR PHASE LIBRARY
1/CM	ABSORBANCE
549.8	0.013439
559.445	0.013009
569.09	0.008949
578.734	0.005919
588.379	0.003699
598.024	0.002979
607.669	0.002839
617.313	0.003469
626.958	0.004349
636.603	0.005459
646.248	0.007739
655.893	0.009669
665.537	0.009519
675.182	0.010129
684.827	0.014769
694.472	0.024309
704.116	0.037639
713.761	0.043629
723.406	0.035089
733.051	0.022959
742.695	0.017239
752.34	0.016969
761.985	0.019939
771.63	0.028099
781.275	0.036239
790.919	0.036049
800.564	0.030359
810.209	0.020109
819.854	0.012009
829.498	0.010709
839.143	0.011839
848.788	0.012859
858.433	0.011079
868.078	0.007669
877.722	0.003989
887.367	0.003749
897.012	0.003539
906.657	0.003349
916.301	0.002109
925.946	0.002139
935.591	0.001879
945.236	0.001769
954.88	0.001999
964.525	0.002299
974.17	0.002599
983.815	0.002909
993.46	0.002759
1003.1	0.003609
1012.75	0.004959
1022.39	0.011149
1032.04	0.019109
1041.68	0.021939
1051.33	0.017479
1060.97	0.011859
1070.62	0.008699
1080.26	0.008909
1089.91	0.010619
1099.55	0.009829
1109.2	0.010239
1118.84	0.025949
1128.49	0.071219
1138.13	0.132939
1147.78	0.141569
1157.42	0.084349
1167.07	0.030529
1176.71	0.012769
1186.36	0.008759
1196	0.007019
1205.64	0.007499
1215.29	0.007949
1224.93	0.010579
1234.58	0.015109
1244.22	0.016899
1253.87	0.016489
1263.51	0.015479
1273.16	0.020249
1282.8	0.025449
1292.45	0.029049
1302.09	0.036489
1311.74	0.058159
1321.38	0.106699
1331.03	0.167849
1340.67	0.186719
1350.32	0.138939
1359.96	0.070709
1369.61	0.027859
1379.25	0.013929
1388.9	0.011419
1398.54	0.012009
1408.18	0.014389
1417.83	0.015789
1427.47	0.012779
1437.12	0.011169
1446.76	0.014059
1456.41	0.018809
1466.05	0.019649
1475.7	0.015229
1485.34	0.009449
1494.99	0.005869
1504.63	0.004049
1514.28	0.003529
1523.92	0.003009
1533.57	0.002989
1543.21	0.002579
1552.86	0.002449
1562.5	0.002089
1572.15	0.002069
1581.79	0.002059
1591.44	0.001749
1601.08	0.0014727
1610.73	0.001749
1620.37	0.001599
1630.01	0.001799
1639.66	0.001759
1649.3	0.001729
1658.95	0.001709
1668.59	0.0015058
1678.24	0.0014001
1687.88	0.001244
1697.53	0.0011598
1707.17	0.0011429
1716.82	0.0010914
1726.46	0.0011354
1736.11	0.0011386
1745.75	0.0010562
1755.4	0.0008984
1765.04	0.0009134
1774.69	0.0009371
1784.33	0.000941
1793.98	0.0009262
1803.62	0.0008981
1813.27	0.0008053
1822.91	0.0006996
1832.55	0.0007959
1842.2	0.0007612
1851.84	0.0009793
1861.49	0.0007727
1871.13	0.0009756
1880.78	0.0009318
1890.42	0.0009275
1900.07	0.000985
1909.71	0.0010424
1919.36	0.0010347
1929	0.0011648
1938.65	0.0011048
1948.29	0.0010627
1957.94	0.0011038
1967.58	0.0012124
1977.23	0.001066
1986.87	0.0010945
1996.52	0.0011664
2006.16	0.0010543
2015.81	0.0011141
2025.45	0.0009984
2035.1	0.0011952
2044.74	0.0011014
2054.38	0.0009878
2064.03	0.000966
2073.67	0.0008893
2083.32	0.000917
2092.96	0.0009919
2102.61	0.0010122
2112.25	0.0008935
2121.9	0.0010335
2131.54	0.001172
2141.19	0.0010008
2150.83	0.0010998
2160.48	0.0010091
2170.12	0.0009635
2179.77	0.0010831
2189.41	0.0011639
2199.06	0.0013919
2208.7	0.0011408
2218.35	0.00132
2227.99	0.0014085
2237.64	0.0014135
2247.28	0.0014154
2256.92	0.0015016
2266.57	0.001619
2276.21	0.001639
2285.86	0.001589
2295.5	0.0015472
2305.15	0.0013888
2314.79	0.0011252
2324.44	0.0011248
2334.08	0.0010365
2343.73	0.00099
2353.37	0.0012375
2363.02	0.0011918
2372.66	0.0013455
2382.31	0.0013554
2391.95	0.0014264
2401.6	0.0013158
2411.24	0.001541
2420.89	0.0015234
2430.53	0.001719
2440.18	0.001649
2449.82	0.001829
2459.47	0.001989
2469.11	0.002169
2478.75	0.002229
2488.4	0.001779
2498.04	0.0014887
2507.69	0.0011684
2517.33	0.0008001
2526.98	0.0009852
2536.62	0.0009226
2546.27	0.0009515
2555.91	0.0008281
2565.56	0.0009624
2575.2	0.001002
2584.85	0.0009346
2594.49	0.0007449
2604.14	0.0009249
2613.78	0.0009237
2623.43	0.0011342
2633.07	0.0011394
2642.72	0.0011776
2652.36	0.0011171
2662.01	0.0014355
2671.65	0.0014174
2681.29	0.0013436
2690.94	0.0011732
2700.58	0.0015447
2710.23	0.0012585
2719.87	0.0012649
2729.52	0.0015663
2739.16	0.0014747
2748.81	0.001939
2758.45	0.002459
2768.1	0.002449
2777.74	0.002339
2787.39	0.002479
2797.03	0.002819
2806.68	0.003309
2816.32	0.003849
2825.97	0.003889
2835.61	0.004159
2845.26	0.004919
2854.9	0.005849
2864.55	0.008849
2874.19	0.015079
2883.84	0.024689
2893.48	0.028829
2903.12	0.025539
2912.77	0.024299
2922.41	0.029929
2932.06	0.040449
2941.7	0.052289
2951.35	0.053119
2960.99	0.050319
2970.64	0.059079
2980.28	0.067919
2989.93	0.055079
2999.57	0.034259
3009.22	0.020819
3018.86	0.012029
3028.51	0.007749
3038.15	0.006219
3047.8	0.005029
3057.44	0.004559
3067.09	0.003999
3076.73	0.003469
3086.38	0.003229
3096.02	0.002859
3105.67	0.002669
3115.31	0.002659
3124.95	0.002289
3134.6	0.002349
3144.24	0.001729
3153.89	0.002049
3163.53	0.001939
3173.18	0.002109
3182.82	0.001969
3192.47	0.001809
3202.11	0.001679
3211.76	0.0012433
3221.4	0.0011412
3231.05	0.0012081
3240.69	0.0008792
3250.34	0.0010942
3259.98	0.0009204
3269.63	0.0010565
3279.27	0.0009107
3288.92	0.0010488
3298.56	0.0008995
3308.21	0.000401
3317.85	0.0006057
3327.49	0.000663
3337.14	0.0008035
3346.78	0.0007454
3356.43	0.0009925
3366.07	0.00065703
3375.72	0.0007005
3385.36	0.0007986
3395.01	0.0005099
3404.65	0.00065001
3414.3	0.0008384
3423.94	0.00068318
3433.59	0.00066719
3443.23	0.0005003
3452.88	0.0007287
3462.52	0.0005116
3472.17	0.000354
3481.81	0.000361
3491.46	0.00066706
3501.1	0.0005654
3510.75	0.0007319
3520.39	0.00061801
3530.04	0.000419
3539.68	0.0005069
3549.32	0.00061671
3558.97	0.0008292
3568.61	0.000422
3578.26	0.000531
3587.9	0.0005423
3597.55	0.00035
3607.19	0.0007538
3616.84	0.0005325
3626.48	0.0005577
3636.13	0.0005054
3645.77	0.0008083
3655.42	0.00066419
3665.06	0.0009474
3674.71	0.000434
3684.35	0.0008564
3694	0.0009647
3703.64	0.0009211
3713.29	0.000594657
3722.93	0.0008328
3732.58	0.0009462
3742.22	0.000589566
3751.86	0.0012278
3761.51	0.00060369
3771.15	0.0008487
3780.8	0.0008341
3790.44	0.0009037
3800.09	0.0009303
3809.73	0.0005778
3819.38	0.001016
3829.02	0.0008324
3838.67	0.00067564
3848.31	0.0008892
3857.96	0.0004
3867.6	0.000325
3877.25	0.0008696
3886.89	0.0011073
3896.54	0.0005642
3906.18	0.0009189
3915.83	0.00089
3925.47	0.0008271
3935.12	0.0007435
3944.76	0.0009494
3954.41	0.0010503
3964.05	0.0009193
3973.69	0.0011163
3983.34	0.0010723
3992.98	0.0009314
