Infrared Spectrum: Benzyl phenyl sulphone
Formula: C 13 H 12 O 2 S
CAS: 3112-88-7
State: gas
Origin: EPA-IR VAPOR PHASE LIBRARY
1/CM	ABSORBANCE
549.9	0.011703
559.547	0.003893
569.193	0.001363
578.84	0.0009099
588.486	0.001693
598.133	0.003013
607.779	0.001653
617.426	0.003003
627.072	0.0011004
636.719	0.0006522
646.365	0.0008487
656.012	0.0010552
665.658	0.001753
675.305	0.002523
684.951	0.006503
694.598	0.009073
704.245	0.004193
713.891	0.003553
723.538	0.005463
733.184	0.002503
742.831	0.002833
752.477	0.005073
762.124	0.002673
771.77	0.003263
781.417	0.005303
791.063	0.004273
800.71	0.001523
810.356	0.000922
820.003	0.0011563
829.649	0.0008193
839.296	0.0007671
848.943	0.0006617
858.589	0.0012202
868.236	0.002403
877.882	0.002143
887.529	0.00091
897.175	0.0006472
906.822	0.0009655
916.468	0.001303
926.115	0.0006424
935.761	0.0004254
945.408	0.00032394
955.054	0.0003489
964.701	0.0003834
974.347	0.0004039
983.994	0.00033253
993.64	0.000547
1003.29	0.0006482
1012.93	0.0004688
1022.58	0.0010529
1032.23	0.0011365
1041.87	0.0004809
1051.52	0.0005356
1061.17	0.0010916
1070.81	0.001543
1080.46	0.003763
1090.11	0.005273
1099.75	0.002063
1109.4	0.0012264
1119.05	0.002583
1128.69	0.004043
1138.34	0.003653
1147.99	0.007723
1157.63	0.015203
1167.28	0.011453
1176.92	0.003703
1186.57	0.002223
1196.22	0.003293
1205.86	0.002063
1215.51	0.0005652
1225.16	0.0007066
1234.8	0.000722
1244.45	0.001303
1254.1	0.001993
1263.74	0.0012178
1273.39	0.0008677
1283.04	0.0010955
1292.68	0.0010727
1302.33	0.0012312
1311.98	0.001873
1321.62	0.003183
1331.27	0.006643
1340.92	0.012613
1350.56	0.014583
1360.21	0.004173
1369.86	0.0010619
1379.5	0.0007989
1389.15	0.000778
1398.79	0.0008512
1408.44	0.001303
1418.09	0.0010898
1427.73	0.0007101
1437.38	0.0012509
1447.03	0.002743
1456.67	0.001943
1466.32	0.0008003
1475.97	0.0007541
1485.61	0.0011426
1495.26	0.001763
1504.91	0.0010666
1514.55	0.00043
1524.2	0.00035777
1533.85	0.00030343
1543.49	0.0002921
1553.14	0.00029853
1562.79	0.00031979
1572.43	0.00033314
1582.08	0.0005092
1591.73	0.0006153
1601.37	0.0006237
1611.02	0.0004518
1620.67	0.00025609
1630.31	0.0002326
1639.96	0.0002514
1649.6	0.0002463
1659.25	0.0001927
1668.9	0.00025316
1678.54	0.0002778
1688.19	0.00030638
1697.84	0.0002496
1707.48	0.0002049
1717.13	0.000219
1726.78	0.0002512
1736.42	0.000195
1746.07	0.00029731
1755.72	0.00030343
1765.36	0.00033657
1775.01	0.0003528
1784.66	0.00033177
1794.3	0.0005238
1803.95	0.0006116
1813.6	0.0004904
1823.24	0.00032501
1832.89	0.00031278
1842.54	0.00026198
1852.18	0.00026198
1861.83	0.00028065
1871.47	0.0004005
1881.12	0.000444
1890.77	0.0004799
1900.41	0.0004473
1910.06	0.0004005
1919.71	0.00031723
1929.35	0.00031404
1939	0.0003878
1948.65	0.0005004
1958.29	0.0005219
1967.94	0.0003948
1977.59	0.0003322
1987.23	0.0002052
1996.88	0.0002466
2006.53	0.0001734
2016.17	0.0002234
2025.82	0.000158
2035.47	0.0001907
2045.11	0.000151
2054.76	0.0001661
2064.41	0.0001858
2074.05	0.000144
2083.7	0.0001778
2093.35	0.000167
2102.99	0.0001822
2112.64	0.0001972
2122.28	0.0002058
2131.93	0.000162
2141.58	0.0001781
2151.22	0.0002216
2160.87	0.0002422
2170.52	0.0002138
2180.16	0.0002301
2189.81	0.0002006
2199.46	0.0002197
2209.1	0.0002227
2218.75	0.000266251
2228.4	0.00025834
2238.04	0.00030132
2247.69	0.00028031
2257.34	0.00028997
2266.98	0.00029282
2276.63	0.00029428
2286.28	0.00025419
2295.92	0.000265485
2305.57	0.000263544
2315.22	0.00034291
2324.86	0.00034502
2334.51	0.000263001
2344.16	0.00031381
2353.8	0.00029679
2363.45	0.000246
2373.09	0.0002401
2382.74	0.000221
2392.39	0.0002133
2402.03	0.0002156
2411.68	0.00028913
2421.33	0.0002357
2430.97	0.0002432
2440.62	0.000265758
2450.27	0.0002453
2459.91	0.0002344
2469.56	0.0002411
2479.21	0.000199
2488.85	0.00028106
2498.5	0.00033125
2508.15	0.000237
2517.79	0.0002691
2527.44	0.00025346
2537.09	0.00030772
2546.73	0.00027463
2556.38	0.000265107
2566.03	0.00028125
2575.67	0.0002496
2585.32	0.00029185
2594.96	0.00033592
2604.61	0.00028877
2614.26	0.00029799
2623.9	0.00030554
2633.55	0.00030571
2643.2	0.0002517
2652.84	0.00033993
2662.49	0.0003761
2672.14	0.00034489
2681.78	0.00026183
2691.43	0.0002411
2701.08	0.000226
2710.72	0.0002241
2720.37	0.00028876
2730.02	0.00026127
2739.66	0.00034286
2749.31	0.00029956
2758.96	0.0001927
2768.6	0.000270539
2778.25	0.00034593
2787.9	0.000266871
2797.54	0.00028704
2807.19	0.0004088
2816.84	0.00029494
2826.48	0.00031628
2836.13	0.00027662
2845.77	0.00031978
2855.42	0.00031865
2865.07	0.00031347
2874.71	0.00033689
2884.36	0.0004191
2894.01	0.00033605
2903.65	0.00028946
2913.3	0.0005075
2922.95	0.0005961
2932.59	0.0008272
2942.24	0.000732
2951.89	0.0004691
2961.53	0.0004311
2971.18	0.0004553
2980.83	0.0006925
2990.47	0.0004921
3000.12	0.000501
3009.77	0.0006568
3019.41	0.0010326
3029.06	0.001833
3038.71	0.002443
3048.35	0.001913
3058	0.002143
3067.64	0.004223
3077.29	0.004703
3086.94	0.002703
3096.58	0.001733
3106.23	0.0009623
3115.88	0.0007759
3125.52	0.0004163
3135.17	0.0004353
3144.82	0.0004173
3154.46	0.0003944
3164.11	0.0004811
3173.76	0.0005531
3183.4	0.00028312
3193.05	0.000265421
3202.7	0.0002419
3212.34	0.000129
3221.99	0.00025984
3231.64	0.00027527
3241.28	0.0002405
3250.93	0.0002072
3260.58	0.0002006
3270.22	0.00031117
3279.87	0.000139
3289.52	9e-05
3299.16	0.00035168
3308.81	0.00033366
3318.45	0.0002524
3328.1	7e-05
3337.75	0.0002065
3347.39	0.0002435
3357.04	8.6e-05
3366.69	0.000186
3376.33	0.000124
3385.98	0.000158
3395.63	0.000271899
3405.27	0.000125
3414.92	0.0001904
3424.57	0.000264543
3434.21	0.000153
3443.86	0.000262501
3453.51	0.0002499
3463.15	0.00032838
3472.8	0.0001866
3482.45	0.0001906
3492.09	0.000148
3501.74	0.00035127
3511.39	0.000138
3521.03	0.000268177
3530.68	6.1e-05
3540.33	0.0001881
3549.97	0.0002222
3559.62	0.0001975
3569.26	0.0001649
3578.91	0.00033817
3588.56	0.000145
3598.2	0.00028099
3607.85	0.000141
3617.5	8.5e-05
3627.14	0.000267873
3636.79	0.0002035
3646.44	0.000146
3656.08	0.00025848
3665.73	0.0001864
3675.38	0.0002005
3685.02	9.2e-05
3694.67	0.000158
3704.32	0.000247
3713.96	0.0001776
3723.61	0.00028087
3733.26	0.00030419
3742.9	0.00026085
3752.55	0.0002082
3762.2	0.000146
3771.84	0.000157
3781.49	0.0001892
3791.13	0.0002353
3800.78	0.000127
3810.43	0.000268095
3820.07	0.000129
3829.72	0.0002075
3839.37	0.0002244
3849.01	0.00032941
3858.66	0.000138
3868.31	0.00029458
3877.95	0.00036286
3887.6	0.0001788
3897.25	0.0002032
3906.89	0.000324
3916.54	0.0002463
3926.19	0.0003902
3935.83	0.0002014
3945.48	0.0002379
3955.13	0.000137
3964.77	0.00034053
3974.42	0.0002424
3984.07	0.00026185
3993.71	0.0002525
