Infrared Spectrum: Benzyl methyl sulfone
Formula: C 8 H 10 O 2 S
CAS: 3112-90-1
State: gas
Instrument: HP-GC/MS/IRD
Origin: NIST Mass Spectrometry Data Center
1/CM	ABSORBANCE
550	0.000159
562	9.25e-05
574	0.0001445
586	0.0001485
598	0.0002045
610	0.000123
622	0.000142
634	0.000146
646	7.1e-05
658	0.0002085
670	0.0003555
682	0.000501
694	0.000947
706	0.000647
718	0.000316
730	0.000506
742	0.0004895
754	0.0003475
766	0.000542
778	0.0006825
790	0.0004465
802	0.000169
814	0.000104
826	0.000243
838	0.00017
850	0.0001275
862	0.0002855
874	0.0004995
886	0.000408
898	0.0001715
910	0.0002355
922	0.0002565
934	0.00014
946	0.0002755
958	0.0007005
970	0.0004545
982	0.000143
994	9.2e-05
1006	8.85e-05
1018	0.000174
1030	0.000239
1042	8.25e-05
1054	0.00017
1066	0.000196
1078	0.00014
1090	0.000176
1102	0.0003395
1114	0.000841
1126	0.001618
1138	0.001606
1150	0.002463
1162	0.0018795
1174	0.0006705
1186	0.000434
1198	0.000486
1210	0.000349
1222	0.0002105
1234	0.0002135
1246	0.0003165
1258	0.0003775
1270	0.0002365
1282	0.0002265
1294	0.0002835
1306	0.0005675
1318	0.000987
1330	0.0018555
1342	0.0045405
1354	0.0038875
1366	0.000901
1378	0.000264
1390	0.0001615
1402	0.000174
1414	0.000279
1426	0.000249
1438	0.000139
1450	0.000192
1462	0.000173
1474	8.3e-05
1486	0.0001855
1498	0.000333
1510	0.0001325
1522	5.25e-05
1534	3.6e-05
1546	2.6e-05
1558	6.35e-05
1570	3.35e-05
1582	5.65e-05
1594	0.000103
1606	0.000108
1618	7.6e-05
1630	6.1e-05
1642	7e-05
1654	6.65e-05
1666	3.2e-05
1678	4.5e-05
1690	6e-05
1702	7.2e-05
1714	3.7e-05
1726	2.65e-05
1738	6.05e-05
1750	6.2e-05
1762	7.25e-05
1774	8.75e-05
1786	4.25e-05
1798	8.15e-05
1810	4.95e-05
1822	4e-05
1834	3.45e-05
1846	2.55e-05
1858	3.9e-05
1870	2.65e-05
1882	4.8e-05
1894	4.8e-05
1906	6.45e-05
1918	6.65e-05
1930	4.8e-05
1942	8e-05
1954	7.35e-05
1966	4.95e-05
1978	4.55e-05
1990	3.8e-05
2002	2.5e-05
2014	3.35e-05
2026	5e-05
2038	6.05e-05
2050	3.05e-05
2062	4.25e-05
2074	1.2e-05
2086	2.4e-05
2098	3.3e-05
2110	5.05e-05
2122	2.65e-05
2134	3.15e-05
2146	4.1e-05
2158	3.5e-05
2170	2.6e-05
2182	2.2e-05
2194	3.25e-05
2206	3.25e-05
2218	3.4e-05
2230	2.4e-05
2242	1.3e-05
2254	4.8e-05
2266	4.7e-05
2278	2.1e-05
2290	5.7e-05
2302	4e-05
2314	4.7e-05
2326	4.55e-05
2338	7.95e-05
2350	5.75e-05
2362	4.55e-05
2374	7.85e-05
2386	5.7e-05
2398	5.6e-05
2410	3.45e-05
2422	2.95e-05
2434	4.05e-05
2446	5.8e-05
2458	5.15e-05
2470	6.2e-05
2482	5.15e-05
2494	5.25e-05
2506	4.15e-05
2518	5.45e-05
2530	2.9e-05
2542	2.4e-05
2554	1.65e-05
2566	3.9e-05
2578	5.95e-05
2590	5.9e-05
2602	2.9e-05
2614	3.75e-05
2626	5.3e-05
2638	4.6e-05
2650	5.5e-05
2662	5.8e-05
2674	6.85e-05
2686	3.4e-05
2698	9e-06
2710	3.85e-05
2722	6.65e-05
2734	6.25e-05
2746	1.15e-05
2758	4e-05
2770	5.7e-05
2782	6.4e-05
2794	5.5e-05
2806	4.6e-05
2818	4.25e-05
2830	5.75e-05
2842	3.3e-05
2854	4.45e-05
2866	1.8e-05
2878	4.4e-05
2890	4.45e-05
2902	5.6e-05
2914	6.3e-05
2926	0.000173
2938	0.0002195
2950	0.000108
2962	5.7e-05
2974	0.0001115
2986	0.000136
2998	0.0001295
3010	0.0001325
3022	0.0002815
3034	0.0004455
3046	0.0003805
3058	0.0003345
3070	0.0004635
3082	0.000481
3094	0.000328
3106	0.0002385
3118	0.000106
3130	4.45e-05
3142	0.000102
3154	7.75e-05
3166	8.5e-05
3178	4.5e-05
3190	6.8e-05
3202	4.3e-05
3214	6.85e-05
3226	6.2e-05
3238	4.15e-05
3250	3.65e-05
3262	1.7e-05
3274	0.0001115
3286	9.2e-05
3298	5.8e-05
3310	7.6e-05
3322	3.65e-05
3334	9.95e-05
3346	7.75e-05
3358	9.75e-05
3370	0.0001255
3382	9.7e-05
3394	0.0001155
3406	9.8e-05
3418	7.8e-05
3430	7.8e-05
3442	0.0001475
3454	0.000117
3466	8.85e-05
3478	9.3e-05
3490	0.000101
3502	0.0001545
3514	0.0001165
3526	7.25e-05
3538	0.000118
3550	0.000102
3562	7.9e-05
3574	0.0001315
3586	0.0001305
3598	0.0001225
3610	0.000163
3622	9.9e-05
3634	0.0001905
3646	0.000141
3658	0.0001845
3670	0.000167
3682	0.0001655
3694	0.0001375
3706	0.000121
3718	9.85e-05
3730	0.0001305
3742	9.7e-05
3754	0.0001165
3766	0.000142
3778	0.0001785
3790	0.0001545
3802	0.0001155
3814	0.000173
3826	0.0001365
3838	0.0002155
