Infrared Spectrum: D-Campholic acid
Formula: C 10 H 18 O 2
CAS: 31147-56-5
State: gas
Origin: EPA-IR VAPOR PHASE LIBRARY
1/CM	ABSORBANCE
549.8	0.0165342
559.445	0.0229342
569.09	0.0301642
578.734	0.0400142
588.379	0.0364642
598.024	0.0250942
607.669	0.0164842
617.313	0.0112742
626.958	0.0102242
636.603	0.0100742
646.248	0.0106542
655.893	0.0161942
665.537	0.0275442
675.182	0.0226342
684.827	0.00779423
694.472	0.00336423
704.116	0.00316423
713.761	0.00253423
723.406	0.00321423
733.051	0.00300423
742.695	0.00383423
752.34	0.00549423
761.985	0.00923423
771.63	0.0137242
781.275	0.0103942
790.919	0.00566423
800.564	0.00393423
810.209	0.00354423
819.854	0.00265423
829.498	0.00241423
839.143	0.00202423
848.788	0.00240423
858.433	0.00279423
868.078	0.00213423
877.722	0.00166423
887.367	0.00192423
897.012	0.00248423
906.657	0.00224423
916.301	0.00256423
925.946	0.00241423
935.591	0.00324423
945.236	0.00291423
954.88	0.00327423
964.525	0.00280423
974.17	0.00341423
983.815	0.00508423
993.46	0.00762423
1003.1	0.00849423
1012.75	0.00940423
1022.39	0.0104942
1032.04	0.0118042
1041.68	0.0163342
1051.33	0.0250342
1060.97	0.0464242
1070.62	0.0717342
1080.26	0.0776842
1089.91	0.0714942
1099.55	0.0814842
1109.2	0.0880442
1118.84	0.0657142
1128.49	0.0413942
1138.13	0.0316142
1147.78	0.0300942
1157.42	0.0307342
1167.07	0.0296642
1176.71	0.0316942
1186.36	0.0314242
1196	0.0259742
1205.64	0.0159042
1215.29	0.0130242
1224.93	0.0117842
1234.58	0.0112242
1244.22	0.00864423
1253.87	0.00751423
1263.51	0.00738423
1273.16	0.00859423
1282.8	0.0111942
1292.45	0.0151042
1302.09	0.0152642
1311.74	0.0150242
1321.38	0.0149742
1331.03	0.0122442
1340.67	0.00887423
1350.32	0.00873423
1359.96	0.0119542
1369.61	0.0212742
1379.25	0.0304742
1388.9	0.0268742
1398.54	0.0158542
1408.18	0.00739423
1417.83	0.00443423
1427.47	0.00503423
1437.12	0.00774423
1446.76	0.0147142
1456.41	0.0239542
1466.05	0.0281042
1475.7	0.0238642
1485.34	0.0139142
1494.99	0.00637423
1504.63	0.00343423
1514.28	0.00264423
1523.92	0.00241423
1533.57	0.00220423
1543.21	0.00235423
1552.86	0.00198423
1562.5	0.00183423
1572.15	0.00146423
1581.79	0.00130423
1591.44	0.00144423
1601.08	0.00135423
1610.73	0.00143423
1620.37	0.00110423
1630.01	0.00133423
1639.66	0.00152423
1649.3	0.00142423
1658.95	0.00190423
1668.59	0.00222423
1678.24	0.00291423
1687.88	0.00408423
1697.53	0.00691423
1707.17	0.0113142
1716.82	0.0159142
1726.46	0.0188042
1736.11	0.0325842
1745.75	0.0946242
1755.4	0.188954
1765.04	0.168114
1774.69	0.0657442
1784.33	0.0279242
1793.98	0.0192342
1803.62	0.0129242
1813.27	0.00812423
1822.91	0.00506423
1832.55	0.00316423
1842.2	0.00202423
1851.84	0.00162423
1861.49	0.00155423
1871.13	0.00115423
1880.78	0.00103423
1890.42	0.00078263
1900.07	0.00084223
1909.71	0.00076813
1919.36	0.00083343
1929	0.00082483
1938.65	0.00084673
1948.29	0.00066743
1957.94	0.00071693
1967.58	0.00068733
1977.23	0.00073343
1986.87	0.00077793
1996.52	0.00063653
2006.16	0.00068113
2015.81	0.00066273
2025.45	0.00070833
2035.1	0.00067543
2044.74	0.00071813
2054.38	0.00054183
2064.03	0.00048263
2073.67	0.00075843
2083.32	0.00065673
2092.96	0.00052473
2102.61	0.00058183
2112.25	0.00059883
2121.9	0.00051053
2131.54	0.00063403
2141.19	0.00063143
2150.83	0.00066813
2160.48	0.00077343
2170.12	0.00075913
2179.77	0.00089883
2189.41	0.00076093
2199.06	0.00078883
2208.7	0.00077833
2218.35	0.00087203
2227.99	0.00054073
2237.64	0.00066613
2247.28	0.00055983
2256.92	0.00060523
2266.57	0.00056583
2276.21	0.00076453
2285.86	0.00064103
2295.5	0.00058313
2305.15	0.00052793
2314.79	0.00063033
2324.44	0.00075793
2334.08	0.00080193
2343.73	0.00060763
2353.37	0.00089593
2363.02	0.00090083
2372.66	0.00077563
2382.31	0.00083423
2391.95	0.00103423
2401.6	0.00080853
2411.24	0.00070983
2420.89	0.00081753
2430.53	0.00067473
2440.18	0.00081393
2449.82	0.00074543
2459.47	0.00064433
2469.11	0.00086013
2478.75	0.00061813
2488.4	0.00058793
2498.04	0.00061513
2507.69	0.00044523
2517.33	0.00049733
2526.98	0.00051283
2536.62	0.00052073
2546.27	0.00064953
2555.91	0.00048633
2565.56	0.00051943
2575.2	0.00085263
2584.85	0.00097423
2594.49	0.00110423
2604.14	0.00125423
2613.78	0.00130423
2623.43	0.00126423
2633.07	0.00106423
2642.72	0.00120423
2652.36	0.00108423
2662.01	0.00124423
2671.65	0.00109423
2681.29	0.00132423
2690.94	0.00145423
2700.58	0.00114423
2710.23	0.00136423
2719.87	0.00149423
2729.52	0.00187423
2739.16	0.00229423
2748.81	0.00201423
2758.45	0.00187423
2768.1	0.00206423
2777.74	0.00229423
2787.39	0.00245423
2797.03	0.00265423
2806.68	0.00312423
2816.32	0.00355423
2825.97	0.00442423
2835.61	0.00517423
2845.26	0.00670423
2854.9	0.00889423
2864.55	0.0155342
2874.19	0.0353342
2883.84	0.0587142
2893.48	0.0586542
2903.12	0.0481842
2912.77	0.0452042
2922.41	0.0506142
2932.06	0.0663142
2941.7	0.0885842
2951.35	0.102244
2960.99	0.123004
2970.64	0.141324
2980.28	0.120704
2989.93	0.0724842
2999.57	0.0365042
3009.22	0.0200842
3018.86	0.0100942
3028.51	0.00589423
3038.15	0.00437423
3047.8	0.00383423
3057.44	0.00325423
3067.09	0.00290423
3076.73	0.00243423
3086.38	0.00230423
3096.02	0.00206423
3105.67	0.00205423
3115.31	0.00171423
3124.95	0.00181423
3134.6	0.00163423
3144.24	0.00167423
3153.89	0.00170423
3163.53	0.00191423
3173.18	0.00163423
3182.82	0.00165423
3192.47	0.00190423
3202.11	0.00123423
3211.76	0.00137423
3221.4	0.00147423
3231.05	0.00114423
3240.69	0.00095233
3250.34	0.00106423
3259.98	0.00063283
3269.63	0.00039293
3279.27	0.00065553
3288.92	0.00070113
3298.56	0.00051123
3308.21	0.00074483
3317.85	0.00077463
3327.49	0.00019023
3337.14	0.00066873
3346.78	0.00083543
3356.43	0.00049883
3366.07	0.00053243
3375.72	0.00029103
3385.36	0.00037353
3395.01	0.00045003
3404.65	0.00067333
3414.3	0.00022483
3423.94	0.00032053
3433.59	0.00042083
3443.23	0.00046783
3452.88	0.00069303
3462.52	0.00089743
3472.17	0.00059313
3481.81	0.00110423
3491.46	0.00199423
3501.1	0.00223423
3510.75	0.00160423
3520.39	0.00155423
3530.04	0.00155423
3539.68	0.00224423
3549.32	0.00757423
3558.97	0.0414642
3568.61	0.0696842
3578.26	0.0358542
3587.9	0.00480423
3597.55	0.00152423
3607.19	0.00132423
3616.84	0.00123423
3626.48	0.00108423
3636.13	0.00092843
3645.77	0.00048073
3655.42	0.00029503
3665.06	0.00056613
3674.71	0.00033013
3684.35	0.00027683
3694	0.00056053
3703.64	0.00029463
3713.29	0.00010463
3722.93	0.00048003
3732.58	0.00049703
3742.22	0.00057403
3751.86	0.00045723
3761.51	0.00060913
3771.15	0.00019393
3780.8	0.00034423
3790.44	0.00028643
3800.09	0.00026543
3809.73	0.00026093
3819.38	0.00065823
3829.02	0.00053993
3838.67	0.00040303
3848.31	0.00033423
3857.96	0.00049263
3867.6	0.00040213
3877.25	0.00064553
3886.89	0.00052113
3896.54	0.00012713
3906.18	0.00018403
3915.83	0.00034923
3925.47	0.00049933
3935.12	0.00057233
3944.76	0.00020013
3954.41	0.00033883
3964.05	0.00050343
3973.69	0.00036963
3983.34	0.00073243
3992.98	0.00058443
