Infrared Spectrum: DEHYDRO ABIETYL NITRILE
Formula: C20 H27 N
CAS: 31148-95-5
State: SOLUTION (15% CHCl3)
Class: COBLENTZ
Instrument: Not specified, most likely a grating spectrometer.
Sampling: TRANSMISSION
Path length: 0.009 CM
Resolution: 4
Origin: ABBOTT LABORATORIES
MICROMETERS	TRANSMITTANCE
2.007	0.993
2.0425	0.991
2.078	0.991
2.1135	0.993
2.149	0.991
2.1845	0.991
2.22	0.989
2.2555	0.979
2.291	0.97
2.3265	0.96
2.362	0.966
2.3975	0.968
2.433	0.961
2.4685	0.96
2.504	0.968
2.5395	0.973
2.575	0.968
2.6105	0.972
2.646	0.968
2.6815	0.975
2.717	0.975
2.7525	0.984
2.788	0.951
2.8235	0.93
2.859	0.935
2.8945	0.949
2.93	0.958
2.9655	0.961
3.001	0.961
3.0365	0.961
3.072	0.96
3.1075	0.953
3.143	0.947
3.1785	0.937
3.214	0.932
3.2495	0.899
3.285	0.834
3.3205	0.518
3.356	0.304
3.3915	0.149
3.427	0.292
3.4625	0.403
3.498	0.452
3.5335	0.82
3.569	0.886
3.6045	0.914
3.64	0.932
3.6755	0.933
3.711	0.94
3.7465	0.947
3.782	0.94
3.8175	0.942
3.853	0.949
3.8885	0.94
3.924	0.949
3.9595	0.947
3.995	0.949
4.0305	0.947
4.066	0.939
4.1015	0.935
4.137	0.935
4.1725	0.937
4.208	0.953
4.2435	0.96
4.279	0.961
4.3145	0.958
4.35	0.947
4.3855	0.949
4.421	0.946
4.4565	0.93
4.492	0.69
4.5275	0.921
4.563	0.946
4.5985	0.947
4.634	0.956
4.6695	0.951
4.705	0.951
4.7405	0.951
4.776	0.953
4.8115	0.953
4.847	0.954
4.8825	0.951
4.918	0.951
4.9535	0.949
4.989	0.951
5.0245	0.954
5.06	0.947
5.0955	0.949
5.131	0.947
5.1665	0.949
5.202	0.947
5.2375	0.942
5.273	0.932
5.3085	0.939
5.344	0.949
5.3795	0.946
5.415	0.946
5.4505	0.946
5.486	0.942
5.5215	0.947
5.557	0.946
5.5925	0.94
5.628	0.926
5.6635	0.926
5.699	0.939
5.7345	0.944
5.77	0.949
5.8055	0.942
5.841	0.94
5.8765	0.946
5.912	0.947
5.9475	0.942
5.983	0.935
6.0185	0.93
6.054	0.935
6.0895	0.925
6.125	0.933
6.1605	0.928
6.196	0.859
6.2315	0.902
6.267	0.923
6.3025	0.937
6.338	0.932
6.3735	0.906
6.409	0.913
6.4445	0.928
6.48	0.94
6.5155	0.937
6.551	0.928
6.5865	0.914
6.622	0.859
6.6575	0.58
6.693	0.481
6.7285	0.711
6.764	0.732
6.7995	0.586
6.835	0.464
6.8705	0.417
6.906	0.48
6.9415	0.54
6.977	0.673
7.0125	0.784
7.048	0.704
7.0835	0.751
7.119	0.827
7.1545	0.85
7.19	0.784
7.2255	0.488
7.261	0.64
7.2965	0.773
7.332	0.664
7.3675	0.805
7.403	0.845
7.4385	0.817
7.474	0.817
7.5095	0.834
7.545	0.824
7.5805	0.822
7.616	0.826
7.6515	0.803
7.687	0.838
7.7225	0.859
7.758	0.862
7.7935	0.843
7.829	0.855
7.8645	0.888
7.9	0.895
7.9355	0.89
7.971	0.885
8.0065	0.883
8.042	0.848
8.0775	0.793
8.113	0.638
8.1485	0.591
8.184	0.606
8.2195	0.646
8.255	0.657
8.2905	0.678
8.326	0.756
8.3615	0.841
8.397	0.886
8.4325	0.881
8.468	0.867
8.5035	0.855
8.539	0.8
8.5745	0.838
8.61	0.878
8.6455	0.857
8.681	0.878
8.7165	0.886
8.752	0.885
8.7875	0.853
8.823	0.841
8.8585	0.88
8.894	0.9
8.9295	0.904
8.965	0.899
9.0005	0.871
9.036	0.859
9.0715	0.855
9.107	0.871
9.1425	0.859
9.178	0.848
9.2135	0.838
9.249	0.777
9.2845	0.786
9.32	0.8
9.3555	0.84
9.391	0.86
9.4265	0.822
9.462	0.789
9.4975	0.827
9.533	0.86
9.5685	0.881
9.604	0.846
9.6395	0.76
9.675	0.76
9.7105	0.866
9.746	0.906
9.7815	0.88
9.817	0.867
9.8525	0.885
9.888	0.82
9.9235	0.834
9.959	0.888
9.9945	0.909
10.03	0.925
10.0655	0.921
10.101	0.913
10.1365	0.897
10.172	0.845
10.2075	0.848
10.243	0.88
10.2785	0.878
10.314	0.864
10.3495	0.895
10.385	0.911
10.4205	0.914
10.456	0.911
10.4915	0.89
10.527	0.885
10.5625	0.88
10.598	0.892
10.6335	0.918
10.669	0.916
10.7045	0.914
10.74	0.914
10.7755	0.923
10.811	0.906
10.8465	0.886
10.882	0.885
10.9175	0.883
10.953	0.848
10.9885	0.801
11.024	0.78
11.0595	0.824
11.095	0.873
11.1305	0.893
11.166	0.88
11.2015	0.827
11.237	0.744
11.2725	0.697
11.308	0.765
11.3435	0.841
11.379	0.878
11.4145	0.911
11.45	0.923
11.4855	0.92
11.521	0.923
11.5565	0.916
11.592	0.907
11.6275	0.871
11.663	0.86
11.6985	0.89
11.734	0.911
11.7695	0.921
11.805	0.916
11.8405	0.914
11.876	0.906
11.9115	0.892
11.947	0.869
11.9825	0.793
12.018	0.681
12.0535	0.535
12.089	0.481
12.1245	0.483
12.16	0.646
12.1955	0.796
12.231	0.859
12.2665	0.904
12.302	0.918
12.3375	0.937
12.373	0.949
12.4085	0.96
12.444	0.968
12.4795	0.97
12.515	0.979
12.5505	0.996
12.586	1.013
12.6215	1.015
12.657	1.015
12.6925	1.012
12.728	1.017
12.7635	1.015
12.799	1.01
12.8345	1.012
12.87	1.013
12.9055	1.017
12.941	1.019
12.9765	1.019
13.012	1.017
13.0475	1.015
13.083	1.013
13.1185	1.017
13.154	1.017
13.1895	1.013
13.225	1.013
13.2605	1.015
13.296	1.017
13.3315	1.015
13.367	1.015
13.4025	1.015
13.438	1.013
13.4735	1.012
13.509	1.015
13.5445	1.012
13.58	1.006
13.6155	1.006
13.651	1.012
13.6865	1.015
13.722	1.013
13.7575	1.01
13.793	1.008
13.8285	1.003
13.864	0.998
13.8995	0.993
13.935	0.984
13.9705	0.979
14.006	0.972
14.0415	0.963
14.077	0.942
14.1125	0.923
14.148	0.913
14.1835	0.907
14.219	0.911
14.2545	0.923
14.29	0.93
14.3255	0.937
14.361	0.939
14.3965	0.939
14.432	0.942
14.4675	0.953
14.503	0.961
14.5385	0.966
14.574	0.972
14.6095	0.975
14.645	0.982
14.6805	0.989
14.716	0.991
14.7515	1.006
14.787	1.015
14.8225	1.015
14.858	1.013
14.8935	1.012
14.929	0.998
14.9645	0.989
15	0.973
15.0355	0.935
15.071	0.892
15.1065	0.888
15.142	0.904
15.1775	0.925
15.213	0.94
15.2485	0.96
15.284	0.973
15.3195	0.968
15.355	0.965
15.3905	0.965
15.426	0.961
15.4615	0.96
