Infrared Spectrum: Phosphonium bromide, tetrabutyl
Formula: C16 H36 Br P
CAS: 3115-68-2
State: SOLID (SPLIT MULL), FLUOROLUBE FOR 3800-1335 CM^-^1, NUJOL FOR 1335-460 CM^-^1
Class: COBLENTZ III
Instrument: DOW KBr FOREPRISM-GRATING
Instrument parameters: BLAZED AT 3.5, 12.0, 20.0 MICRON AND CHANGED AT 5.0, 7.5, 14.9 MICRON
Sampling: TRANSMISSION
Resolution: 2
Origin: DOW CHEMICAL COMPANY
1/CM	TRANSMITTANCE
3796	0.659
3787	0.6591
3778	0.6593
3769	0.6595
3760	0.6618
3751	0.6646
3742	0.6668
3733	0.6689
3724	0.6707
3715	0.6718
3706	0.673
3697	0.6734
3688	0.674
3679	0.6745
3670	0.6753
3661	0.676
3652	0.6767
3643	0.6774
3634	0.6783
3625	0.6791
3616	0.68
3607	0.6808
3598	0.6819
3589	0.6831
3580	0.6843
3571	0.6854
3562	0.6865
3553	0.6875
3544	0.6882
3535	0.6889
3526	0.6896
3517	0.6901
3508	0.691
3499	0.6919
3490	0.6932
3481	0.6943
3472	0.6955
3463	0.6965
3454	0.6972
3445	0.698
3436	0.6986
3427	0.6991
3418	0.6991
3409	0.6992
3400	0.6992
3391	0.6993
3382	0.6994
3373	0.6995
3364	0.6996
3355	0.7001
3346	0.7011
3337	0.7021
3328	0.7032
3319	0.7041
3310	0.7053
3301	0.7064
3292	0.7075
3283	0.7088
3274	0.7108
3265	0.7128
3256	0.715
3247	0.7169
3238	0.719
3229	0.7208
3220	0.7226
3211	0.7242
3202	0.7232
3193	0.7215
3184	0.7203
3175	0.7197
3166	0.721
3157	0.7225
3148	0.7247
3139	0.7274
3130	0.7297
3121	0.7315
3112	0.7334
3103	0.7346
3094	0.7357
3085	0.7361
3076	0.7364
3067	0.7365
3058	0.7361
3049	0.7357
3040	0.7343
3031	0.7317
3022	0.7287
3013	0.724
3004	0.7126
2995	0.6755
2986	0.6188
2977	0.3973
2968	0.1366
2959	0.1492
2950	0.2409
2941	0.1834
2932	0.1667
2923	0.2152
2914	0.1983
2905	0.194
2896	0.2095
2887	0.2138
2878	0.1716
2869	0.1582
2860	0.3272
2851	0.4139
2842	0.4734
2833	0.5047
2824	0.525
2815	0.533
2806	0.5321
2797	0.5845
2788	0.6152
2779	0.6347
2770	0.6489
2761	0.659
2752	0.6669
2743	0.6708
2734	0.6736
2725	0.6819
2716	0.6882
2707	0.6912
2698	0.6936
2689	0.6956
2680	0.6976
2671	0.7008
2662	0.7044
2653	0.7082
2644	0.7105
2635	0.7132
2626	0.7169
2617	0.7215
2608	0.7265
2599	0.7314
2590	0.7358
2581	0.7364
2572	0.7365
2563	0.7367
2554	0.7378
2545	0.739
2536	0.7406
2527	0.7418
2518	0.7431
2509	0.7441
2500	0.7455
2491	0.7471
2482	0.7487
2473	0.7499
2464	0.7515
2455	0.7537
2446	0.7558
2437	0.7568
2428	0.7576
2419	0.758
2410	0.758
2401	0.7574
2392	0.7569
2383	0.7562
2374	0.7553
2365	0.7542
2356	0.753
2347	0.7518
2338	0.7504
2329	0.7489
2320	0.7478
2311	0.7486
2302	0.7512
2293	0.7553
2284	0.7593
2275	0.7639
2266	0.769
2257	0.7738
2248	0.7786
2239	0.7837
2230	0.7896
2221	0.7937
2212	0.7968
2203	0.7988
2194	0.7993
2185	0.8017
2176	0.8058
2167	0.8117
2158	0.8165
2149	0.8178
2140	0.8184
2131	0.819
2122	0.8213
2113	0.8254
2104	0.8305
2095	0.8341
2086	0.8377
2077	0.8409
2068	0.8441
2059	0.8471
2050	0.8499
2041	0.8525
2032	0.855
2023	0.8575
2014	0.8594
2005	0.8613
1996	0.864
1987	0.8671
1978	0.8695
1969	0.8704
1960	0.8831
1951	0.8764
1942	0.876
1933	0.8748
1924	0.873
1915	0.8727
1906	0.8713
1897	0.8705
1888	0.8697
1879	0.8697
1870	0.8704
1861	0.8715
1852	0.8711
1843	0.8704
1834	0.8707
1825	0.871
1816	0.8736
1807	0.8737
1798	0.8736
1789	0.872
1780	0.8718
1771	0.8725
1762	0.8736
1753	0.8731
1744	0.8721
1735	0.8689
1726	0.8663
1717	0.8668
1708	0.8678
1699	0.8692
1690	0.8707
1681	0.8725
1672	0.8736
1663	0.8735
1654	0.8697
1645	0.8664
1636	0.8627
1627	0.8607
1618	0.8656
1609	0.8725
1600	0.8785
1591	0.8825
1582	0.8833
1573	0.8832
1564	0.8812
1555	0.879
1546	0.8765
1537	0.8735
1528	0.871
1519	0.8684
1510	0.8648
1501	0.859
1492	0.8523
1483	0.8397
1474	0.7083
1465	0.4754
1456	0.5247
1447	0.606
1438	0.6644
1429	0.6865
1420	0.6254
1411	0.6751
1402	0.7458
1393	0.7653
1384	0.6972
1375	0.6858
1366	0.7604
1357	0.7753
1348	0.7635
1339	0.7874
1330	0.8011
1321	0.7165
1312	0.6734
1303	0.7115
1294	0.7347
1285	0.7291
1276	0.764
1267	0.8094
1258	0.8253
1249	0.7703
1240	0.77
1231	0.7422
1222	0.768
1213	0.7871
1204	0.7897
1195	0.8104
1186	0.8318
1177	0.8443
1168	0.8609
1159	0.8703
1150	0.8754
1141	0.8899
1132	0.8915
1123	0.8865
1114	0.8781
1105	0.7397
1096	0.6674
1087	0.6964
1078	0.8212
1069	0.8271
1060	0.826
1051	0.8297
1042	0.8465
1033	0.8608
1024	0.8609
1015	0.8211
1006	0.7976
997	0.8218
988	0.8528
979	0.8302
970	0.7949
961	0.8015
952	0.8441
943	0.8467
934	0.7974
925	0.6625
916	0.7118
907	0.6794
898	0.7489
889	0.7968
880	0.8256
871	0.846
862	0.8563
853	0.8528
844	0.8334
835	0.6853
826	0.7254
817	0.7518
808	0.7432
799	0.7539
790	0.7522
781	0.7942
772	0.8111
763	0.8075
754	0.7901
745	0.7898
736	0.7724
727	0.6895
718	0.7133
709	0.8114
700	0.8384
691	0.8605
682	0.8816
673	0.8961
664	0.8937
655	0.8984
646	0.8973
637	0.8923
628	0.8918
619	0.89
610	0.8847
601	0.8823
592	0.8802
583	0.8777
574	0.8748
565	0.8716
556	0.8664
547	0.8618
538	0.8647
529	0.862
520	0.8555
511	0.8524
502	0.8518
493	0.851
484	0.851
475	0.852
