Infrared Spectrum: 2'-Benzyloxyacetophenone
Formula: C 15 H 14 O 2
CAS: 31165-67-0
State: gas
Origin: EPA-IR VAPOR PHASE LIBRARY
1/CM	ABSORBANCE
551.7	0.00309
563.274	0.00262
574.848	0.0047
586.421	0.01396
597.995	0.01902
609.569	0.01087
621.143	0.01001
632.717	0.00699
644.291	0.00381
655.864	0.00383
667.438	0.00652
679.012	0.01313
690.586	0.02568
702.16	0.0256
713.734	0.01941
725.307	0.02577
736.881	0.04323
748.455	0.06743
760.029	0.0468
771.603	0.01661
783.177	0.00823
794.75	0.00775
806.324	0.00931
817.898	0.00801
829.472	0.00644
841.046	0.00849
852.619	0.011527
864.193	0.00795
875.767	0.00636
887.341	0.00648
898.915	0.00829
910.489	0.01077
922.062	0.00901
933.636	0.01026
945.21	0.01404
956.784	0.02137
968.358	0.02689
979.932	0.02928
991.505	0.03464
1003.08	0.04535
1014.65	0.05159
1026.23	0.03815
1037.8	0.0277
1049.37	0.02002
1060.95	0.01665
1072.52	0.01902
1084.1	0.011877
1095.67	0.0098
1107.24	0.01363
1118.82	0.02732
1130.39	0.02235
1141.97	0.01067
1153.54	0.01567
1165.11	0.01865
1176.69	0.01583
1188.26	0.02438
1199.83	0.04877
1211.41	0.0992
1222.98	0.12993
1234.56	0.12074
1246.13	0.07906
1257.7	0.05454
1269.28	0.05294
1280.85	0.08068
1292.42	0.07826
1304	0.03449
1315.57	0.01981
1327.15	0.01534
1338.72	0.01707
1350.29	0.02847
1361.87	0.04275
1373.44	0.03735
1385.02	0.02377
1396.59	0.01323
1408.16	0.01339
1419.74	0.01751
1431.31	0.02729
1442.88	0.0615
1454.46	0.05755
1466.03	0.04306
1477.61	0.07214
1489.18	0.05387
1500.75	0.02706
1512.33	0.012075
1523.9	0.0086
1535.48	0.00792
1547.05	0.00859
1558.62	0.0120936
1570.2	0.02271
1581.77	0.03352
1593.34	0.05224
1604.92	0.03693
1616.49	0.01394
1628.07	0.00942
1639.64	0.0088
1651.21	0.01083
1662.79	0.01549
1674.36	0.02388
1685.93	0.04646
1697.51	0.09524
1709.08	0.08466
1720.66	0.04502
1732.23	0.02363
1743.8	0.01375
1755.38	0.00877
1766.95	0.00647
1778.53	0.00587
1790.1	0.00597
1801.67	0.00594
1813.25	0.00473
1824.82	0.00402
1836.39	0.00341
1847.97	0.00327
1859.54	0.00362
1871.12	0.00394
1882.69	0.00406
1894.26	0.00387
1905.84	0.00412
1917.41	0.00412
1928.99	0.00443
1940.56	0.00526
1952.13	0.00475
1963.71	0.00379
1975.28	0.00275
1986.85	0.00259
1998.43	0.00263
2010	0.00282
2021.58	0.00288
2033.15	0.00267
2044.72	0.00251
2056.3	0.00234
2067.87	0.00212
2079.44	0.00202
2091.02	0.00195
2102.59	0.00167
2114.17	0.00138
2125.74	0.00124
2137.31	0.00122
2148.89	0.00117
2160.46	0.00118
2172.04	0.00125
2183.61	0.00124
2195.18	0.00118
2206.76	0.00115
2218.33	0.00111
2229.9	0.00117
2241.48	0.0012
2253.05	0.00126
2264.63	0.0013
2276.2	0.00138
2287.77	0.00153
2299.35	0.00156
2310.92	0.00166
2322.5	0.0017
2334.07	0.00147
2345.64	0.00132
2357.22	0.00123
2368.79	0.00118
2380.36	0.00121
2391.94	0.00135
2403.51	0.0014
2415.09	0.00144
2426.66	0.00148
2438.23	0.00157
2449.81	0.00166
2461.38	0.0016
2472.96	0.0014
2484.53	0.00126
2496.1	0.00124
2507.68	0.00123
2519.25	0.00126
2530.82	0.00125
2542.4	0.00117
2553.97	0.00115
2565.55	0.00115
2577.12	0.00123
2588.69	0.00113
2600.27	0.00101
2611.84	0.00087
2623.41	0.00073
2634.99	0.00087
2646.56	0.00085
2658.14	0.00088
2669.71	0.00095
2681.28	0.00093
2692.86	0.00094
2704.43	0.00102
2716.01	0.00112
2727.58	0.00122
2739.15	0.00118
2750.73	0.00102
2762.3	0.00095
2773.87	0.00104
2785.45	0.00112
2797.02	0.00128
2808.6	0.0017
2820.17	0.0022
2831.74	0.00275
2843.32	0.00352
2854.89	0.00441
2866.47	0.00673
2878.04	0.01049
2889.61	0.01103
2901.19	0.00946
2912.76	0.00973
2924.33	0.01106
2935.91	0.0127788
2947.48	0.0129937
2959.06	0.011078
2970.63	0.00872
2982.2	0.0072
2993.78	0.00724
3005.35	0.00924
3016.92	0.0123935
3028.5	0.02029
3040.07	0.02514
3051.65	0.01929
3063.22	0.02528
3074.79	0.03984
3086.37	0.02577
3097.94	0.01408
3109.52	0.00878
3121.09	0.00454
3132.66	0.00251
3144.24	0.00194
3155.81	0.00159
3167.38	0.00124
3178.96	0.00092
3190.53	0.00065
3202.11	0.00051
3213.68	0.00038
3225.25	0.00036
3236.83	0.00028
3248.4	0.00031
3259.98	0.00023
3271.55	0.00034
3283.12	0.00035
3294.7	0.00027
3306.27	0.00029
3317.84	0.0003
3329.42	0.00034
3340.99	0.00051
3352.57	0.00069
3364.14	0.00088
3375.71	0.00143
3387.29	0.00154
3398.86	0.00127
3410.43	0.00094
3422.01	0.0007
3433.58	0.00051
3445.16	0.00039
3456.73	0.0003
3468.3	0.00024
3479.88	0.00027
3491.45	0.00023
3503.03	0.00016
3514.6	0.00022
3526.17	0.00015
3537.75	0.00013
3549.32	0.00011
3560.89	0.00015
3572.47	0.00013
3584.04	0.00021
3595.62	0.00021
3607.19	0.00013
3618.76	0.00017
3630.34	0.00029
3641.91	0.00024
3653.49	0.0003
3665.06	0.00032
3676.63	0.00026
3688.21	0.00033
3699.78	0.00022
3711.35	0.00027
3722.93	0.00021
3734.5	0.00014
3746.08	9e-05
3757.65	5e-05
3769.22	8e-05
3780.8	0.00015
3792.37	0.00016
3803.94	0.00019
3815.52	0.0002
3827.09	0.00025
3838.67	0.00014
3850.24	0.00027
3861.81	0.0004
3873.39	0.00047
3884.96	0.00049
3896.54	0.00045
3908.11	0.00035
3919.68	0.00028
3931.26	0.00036
3942.83	0.00035
3954.4	0.0003
3965.98	0.00025
3977.55	0.00029
3989.13	0.00033
4000.7	0.00029
