Infrared Spectrum: PHOSPHORIC TRIAMIDE, N,N',N''-TRI-p-TOLYL-,
Formula: C21 H24 N3 O P
CAS: 31160-10-8
State: SOLID (KBr PELLET)
Class: COBLENTZ
Instrument: PERKIN-ELMER
Sampling: TRANSMISSION
Resolution: 4
Origin: STANDARD OIL OF OHIO
MICROMETERS	TRANSMITTANCE
2.02	0.925
2.05371	0.925
2.08743	0.926
2.12114	0.926
2.15486	0.923
2.18857	0.926
2.22229	0.933
2.256	0.935
2.28972	0.932
2.32343	0.932
2.35715	0.933
2.39086	0.94
2.42458	0.943
2.45829	0.937
2.492	0.943
2.52572	0.945
2.55943	0.949
2.59315	0.947
2.62686	0.949
2.66058	0.952
2.69429	0.957
2.72801	0.962
2.76172	0.986
2.79544	1.028
2.82915	1.03
2.86287	1.03
2.89658	1.028
2.93029	0.877
2.96401	0.84
2.99772	0.674
3.03144	0.561
3.06515	0.558
3.09887	0.502
3.13258	0.431
3.1663	0.468
3.20001	0.589
3.23373	0.65
3.26744	0.604
3.30116	0.64
3.33487	0.699
3.36858	0.675
3.4023	0.592
3.43601	0.651
3.46973	0.665
3.50344	0.743
3.53716	0.852
3.57087	0.891
3.60459	0.903
3.6383	0.911
3.67202	0.915
3.70573	0.928
3.73945	0.94
3.77316	0.954
3.80687	0.957
3.84059	0.957
3.8743	0.957
3.90802	0.959
3.94173	0.95
3.97545	0.947
4.00916	0.957
4.04288	0.964
4.07659	0.967
4.11031	0.967
4.14402	0.967
4.17774	0.967
4.21145	0.969
4.24516	0.966
4.27888	0.964
4.31259	0.964
4.34631	0.966
4.38002	0.974
4.41374	0.977
4.44745	0.979
4.48117	0.979
4.51488	0.977
4.5486	0.976
4.58231	0.976
4.61602	0.977
4.64974	0.977
4.68345	0.976
4.71717	0.972
4.75088	0.974
4.7846	0.977
4.81831	0.981
4.85203	0.981
4.88574	0.977
4.91946	0.974
4.95317	0.972
4.98689	0.976
5.0206	0.977
5.05431	0.976
5.08803	0.972
5.12174	0.969
5.15546	0.969
5.18917	0.966
5.22289	0.959
5.2566	0.95
5.29032	0.891
5.32403	0.918
5.35775	0.94
5.39146	0.952
5.42518	0.96
5.45889	0.964
5.4926	0.969
5.52632	0.969
5.56003	0.966
5.59375	0.957
5.62746	0.952
5.66118	0.95
5.69489	0.952
5.72861	0.959
5.76232	0.962
5.79604	0.966
5.82975	0.966
5.86347	0.972
5.89718	0.981
5.93089	0.986
5.96461	0.993
5.99832	0.984
6.03204	0.977
6.06575	0.95
6.09947	0.923
6.13318	0.696
6.1669	0.461
6.20061	0.738
6.23433	0.865
6.26804	0.816
6.30176	0.86
6.33547	0.923
6.36918	0.938
6.4029	0.923
6.43661	0.887
6.47033	0.85
6.50404	0.641
6.53776	0.349
6.57147	0.062
6.60519	0.1
6.6389	0.483
6.67262	0.621
6.70633	0.601
6.74005	0.436
6.77376	0.361
6.80747	0.346
6.84119	0.344
6.8749	0.346
6.90862	0.358
6.94233	0.422
6.97605	0.555
7.00976	0.719
7.04348	0.775
7.07719	0.801
7.11091	0.702
7.14462	0.555
7.17834	0.297
7.21205	0.298
7.24576	0.354
7.27948	0.402
7.31319	0.606
7.34691	0.782
7.38062	0.826
7.41434	0.825
7.44805	0.816
7.48177	0.85
7.51548	0.864
7.5492	0.864
7.58291	0.818
7.61663	0.504
7.65034	0.385
7.68405	0.502
7.71777	0.385
7.75148	0.169
7.7852	0.093
7.81891	0.244
7.85263	0.497
7.88634	0.657
7.92006	0.767
7.95377	0.78
7.98749	0.728
8.0212	0.648
8.05492	0.466
8.08863	0.268
8.12234	0.222
8.15606	0.431
8.18977	0.568
8.22349	0.626
8.2572	0.691
8.29092	0.704
8.32463	0.689
8.35835	0.653
8.39206	0.505
8.42578	0.28
8.45949	0.21
8.49321	0.129
8.52692	0.044
8.56063	0.04
8.59435	0.188
8.62806	0.407
8.66178	0.567
8.69549	0.685
8.72921	0.774
8.76292	0.838
8.79664	0.882
8.83035	0.918
8.86407	0.891
8.89778	0.767
8.93149	0.77
8.96521	0.772
8.99892	0.752
9.03264	0.803
9.06635	0.859
9.10007	0.881
9.13378	0.891
9.1675	0.894
9.20121	0.894
9.23493	0.893
9.26864	0.889
9.30236	0.887
9.33607	0.884
9.36978	0.886
9.4035	0.881
9.43721	0.872
9.47093	0.862
9.50464	0.852
9.53836	0.833
9.57207	0.809
9.60579	0.784
9.6395	0.772
9.67322	0.779
9.70693	0.801
9.74065	0.794
9.77436	0.685
9.80807	0.636
9.84179	0.711
9.8755	0.801
9.90922	0.814
9.94293	0.803
9.97665	0.767
10.0104	0.716
10.0441	0.667
10.0778	0.578
10.1115	0.453
10.1452	0.337
10.1789	0.207
10.2127	0.108
10.2464	0.083
10.2801	0.14
10.3138	0.254
10.3475	0.317
10.3812	0.319
10.4149	0.298
10.4487	0.254
10.4824	0.123
10.5161	0.067
10.5498	0.044
10.5835	0.151
10.6172	0.283
10.6509	0.409
10.6847	0.466
10.7184	0.504
10.7521	0.553
10.7858	0.57
10.8195	0.544
10.8532	0.497
10.8869	0.526
10.9207	0.624
10.9544	0.706
10.9881	0.753
11.0218	0.796
11.0555	0.821
11.0892	0.85
11.1229	0.867
11.1567	0.879
11.1904	0.882
11.2241	0.889
11.2578	0.896
11.2915	0.901
11.3252	0.908
11.3589	0.911
11.3927	0.913
11.4264	0.913
11.4601	0.915
11.4938	0.915
11.5275	0.913
11.5612	0.911
11.5949	0.901
11.6287	0.886
11.6624	0.853
11.6961	0.799
11.7298	0.721
11.7635	0.697
11.7972	0.701
11.831	0.711
11.8647	0.691
11.8984	0.609
11.9321	0.575
11.9658	0.601
11.9995	0.621
12.0332	0.633
12.067	0.594
12.1007	0.538
12.1344	0.456
12.1681	0.324
12.2018	0.181
12.2355	0.147
12.2692	0.179
12.303	0.208
12.3367	0.203
12.3704	0.174
12.4041	0.142
12.4378	0.331
12.4715	0.565
12.5052	0.718
12.539	0.814
12.5727	0.86
12.6064	0.884
12.6401	0.901
12.6738	0.91
12.7075	0.916
12.7412	0.921
12.775	0.926
12.8087	0.928
12.8424	0.928
12.8761	0.928
12.9098	0.926
12.9435	0.923
12.9772	0.915
13.011	0.898
13.0447	0.857
13.0784	0.809
13.1121	0.796
13.1458	0.82
13.1795	0.864
13.2133	0.887
13.247	0.904
13.2807	0.913
13.3144	0.916
13.3481	0.921
13.3818	0.921
13.4155	0.921
13.4493	0.916
13.483	0.91
13.5167	0.901
13.5504	0.898
13.5841	0.894
13.6178	0.896
13.6515	0.901
13.6853	0.91
13.719	0.915
13.7527	0.921
13.7864	0.928
13.8201	0.93
13.8538	0.935
13.8875	0.937
13.9213	0.937
13.955	0.937
13.9887	0.938
14.0224	0.937
14.0561	0.932
14.0898	0.925
14.1235	0.915
14.1573	0.899
14.191	0.838
14.2247	0.772
14.2584	0.745
14.2921	0.747
14.3258	0.801
14.3595	0.852
14.3933	0.899
14.427	0.911
14.4607	0.918
14.4944	0.925
14.5281	0.928
14.5618	0.93
14.5955	0.93
14.6293	0.928
14.663	0.926
14.6967	0.928
14.7304	0.926
14.7641	0.926
14.7978	0.925
14.8316	0.923
14.8653	0.923
14.899	0.923
14.9327	0.921
14.9664	0.918
15.0001	0.92
15.0338	0.918
15.0676	0.916
15.1013	0.918
15.135	0.916
15.1687	0.916
15.2024	0.913
15.2361	0.913
15.2698	0.91
15.3036	0.91
15.3373	0.906
15.371	0.899
15.4047	0.899
