Infrared Spectrum: 3-PHENYL-2-BENZOFURANONE
Formula: C14 H10 O2
CAS: 3117-37-1
State: SOLUTION (7% IN CHCl3)
Class: COBLENTZ
Instrument: PERKIN-ELMER
Sampling: TRANSMISSION
Path length: 0.010 CM
Resolution: 4
Origin: ABBOTT LABORATORIES - WASHBURN
MICROMETERS	TRANSMITTANCE
2.04	0.927
2.08	0.929
2.12	0.9309
2.16001	0.934
2.20001	0.941
2.24001	0.944
2.28001	0.952
2.32001	0.954
2.36002	0.9591
2.40002	0.9629
2.44002	0.957
2.48002	0.963
2.52002	0.964
2.56003	0.9571
2.60003	0.963
2.64003	0.968
2.68003	0.969
2.72003	0.9611
2.76004	0.957
2.80004	0.9488
2.84004	0.9139
2.88004	0.899
2.92004	0.9208
2.96005	0.926
3.00005	0.924
3.04005	0.926
3.08005	0.927
3.12005	0.932
3.16006	0.934
3.20006	0.9391
3.24006	0.937
3.28006	0.8751
3.32006	0.8154
3.36007	0.7938
3.40007	0.933
3.44007	0.976
3.48007	0.978
3.52007	0.979
3.56008	0.979
3.60008	0.979
3.64008	0.979
3.68008	0.979
3.72008	0.979
3.76009	0.979
3.80009	0.979
3.84009	0.978
3.88009	0.979
3.92009	0.9741
3.9601	0.9741
4.0001	0.9679
4.0401	0.954
4.0801	0.949
4.1201	0.9341
4.16011	0.9241
4.20011	0.9261
4.24011	0.926
4.28011	0.929
4.32011	0.914
4.36012	0.9043
4.40012	0.8888
4.44012	0.885
4.48012	0.894
4.52012	0.887
4.56013	0.889
4.60013	0.8798
4.64013	0.865
4.68013	0.873
4.72013	0.862
4.76014	0.855
4.80014	0.855
4.84014	0.858
4.88014	0.867
4.92014	0.863
4.96015	0.86
5.00015	0.865
5.04015	0.8668
5.08015	0.8526
5.12015	0.8324
5.16016	0.8094
5.20016	0.8271
5.24016	0.8357
5.28016	0.815
5.32016	0.8229
5.36017	0.8151
5.40017	0.7926
5.44017	0.7131
5.48017	0.3014
5.52017	0.051
5.56018	0.005
5.60018	0.2807
5.64018	0.453
5.68018	0.6135
5.72018	0.715
5.76019	0.7681
5.80019	0.797
5.84019	0.79
5.88019	0.8039
5.92019	0.8097
5.9602	0.8029
6.0002	0.796
6.0402	0.8
6.0802	0.801
6.1202	0.7968
6.16021	0.6717
6.20021	0.4763
6.24021	0.623
6.28021	0.5859
6.32021	0.7369
6.36022	0.7962
6.40022	0.8195
6.44022	0.8306
6.48022	0.822
6.52022	0.826
6.56023	0.825
6.60023	0.8197
6.64023	0.8098
6.68023	0.7003
6.72023	0.514
6.76024	0.5141
6.80024	0.3525
6.84024	0.315
6.88024	0.3461
6.92024	0.607
6.96025	0.7845
7.00025	0.811
7.04025	0.8135
7.08025	0.8099
7.12025	0.8155
7.16026	0.8204
7.20026	0.83
7.24026	0.8297
7.28026	0.825
7.32026	0.8301
7.36027	0.826
7.40027	0.8253
7.44027	0.82
7.48027	0.8121
7.52027	0.7963
7.56028	0.7595
7.60028	0.6915
7.64028	0.7385
7.68028	0.776
7.72028	0.7473
7.76029	0.544
7.80029	0.562
7.84029	0.7447
7.88029	0.7655
7.92029	0.7333
7.9603	0.695
8.0003	0.7018
8.0403	0.7206
8.0803	0.6844
8.1203	0.4875
8.16031	0.3787
8.20031	0.4081
8.24031	0.4661
8.28031	0.5046
8.32031	0.5409
8.36032	0.6224
8.40032	0.6442
8.44032	0.6366
8.48032	0.5605
8.52032	0.4635
8.56033	0.577
8.60033	0.6821
8.64033	0.7217
8.68033	0.7197
8.72033	0.6857
8.76033	0.6895
8.80034	0.6695
8.84034	0.597
8.88034	0.458
8.92034	0.1448
8.96034	0.1657
9.00035	0.4834
9.04035	0.6551
9.08035	0.692
9.12035	0.7145
9.16035	0.7277
9.20036	0.7278
9.24036	0.701
9.28036	0.5887
9.32036	0.4855
9.36036	0.3278
9.40037	0.1301
9.44037	0.0522
9.48037	0.0489
9.52037	0.1066
9.56037	0.2855
9.60038	0.4521
9.64038	0.5995
9.68038	0.6771
9.72038	0.6512
9.76038	0.7335
9.80039	0.761
9.84039	0.7153
9.88039	0.5699
9.92039	0.7339
9.96039	0.7578
10.0004	0.6915
10.0404	0.7829
10.0804	0.7981
10.1204	0.806
10.1604	0.805
10.2004	0.8052
10.2404	0.813
10.2804	0.811
10.3204	0.815
10.3604	0.815
10.4004	0.8192
10.4404	0.823
10.4804	0.818
10.5204	0.8138
10.5604	0.808
10.6004	0.8
10.6404	0.7716
10.6804	0.7302
10.7204	0.736
10.7604	0.7288
10.8004	0.6318
10.8404	0.512
10.8804	0.5304
10.9204	0.6253
10.9604	0.6364
11.0004	0.5333
11.0404	0.2398
11.0805	0.11
11.1205	0.2848
11.1605	0.4704
11.2005	0.6146
11.2405	0.6799
11.2805	0.6796
11.3205	0.653
11.3605	0.6643
11.4005	0.707
11.4405	0.7605
11.4805	0.788
11.5205	0.7673
11.5605	0.7611
11.6005	0.7572
11.6405	0.732
11.6805	0.724
11.7205	0.7477
11.7605	0.7599
11.8005	0.7637
11.8405	0.7536
11.8805	0.7458
11.9205	0.742
11.9605	0.7536
12.0005	0.7862
12.0405	0.801
12.0805	0.8045
12.1205	0.8192
12.1605	0.8286
12.2005	0.8277
12.2405	0.8331
12.2805	0.825
12.3205	0.8167
12.3605	0.8141
12.4005	0.8156
12.4405	0.8107
12.4805	0.806
12.5205	0.813
12.5605	0.8179
12.6005	0.8277
12.6405	0.8389
12.6805	0.8504
12.7205	0.8649
12.7605	0.8894
12.8005	0.9115
12.8405	0.9394
12.8805	0.956
12.9205	0.9678
12.9605	0.973
13.0005	0.973
13.0405	0.971
13.0806	0.971
13.1206	0.971
13.1606	0.971
13.2006	0.973
13.2406	0.971
13.2806	0.971
13.3206	0.971
13.3606	0.971
13.4006	0.972
13.4406	0.971
13.4806	0.971
13.5206	0.971
13.5606	0.971
13.6006	0.9728
13.6406	0.971
13.6806	0.971
13.7206	0.971
13.7606	0.969
13.8006	0.969
13.8406	0.9659
13.8806	0.9471
13.9206	0.9262
13.9606	0.8994
14.0006	0.8679
14.0406	0.8346
14.0806	0.7852
14.1206	0.7103
14.1606	0.5547
14.2006	0.453
14.2406	0.4277
14.2806	0.4808
14.3206	0.5203
14.3606	0.5093
14.4006	0.4612
14.4406	0.4289
14.4806	0.4769
14.5206	0.5696
14.5606	0.6764
14.6006	0.7436
14.6406	0.7724
14.6806	0.7872
14.7206	0.8064
14.7606	0.8254
14.8006	0.8352
14.8406	0.8432
14.8806	0.858
14.9206	0.8724
14.9606	0.8825
15.0006	0.897
15.0406	0.9032
15.0807	0.8745
15.1207	0.776
15.1607	0.7189
15.2007	0.7217
15.2407	0.7608
15.2807	0.7954
15.3207	0.8232
15.3607	0.8413
15.4007	0.8536
