Infrared Spectrum: 3-Trifluoromethylbenzoyl chloride
Formula: C 8 H 4 Cl F 3 O
CAS: 312-94-7
State: gas
Origin: EPA-IR VAPOR PHASE LIBRARY
1/CM	ABSORBANCE
549.9	0.0031945
559.547	0.0029328
569.193	0.0026175
578.84	0.0029292
588.486	0.003641
598.133	0.00402
607.779	0.0032675
617.426	0.0031514
627.072	0.00488
636.719	0.01525
646.365	0.0253
656.012	0.02366
665.658	0.03721
675.305	0.04886
684.951	0.03481
694.598	0.01462
704.245	0.00599
713.891	0.00425
723.538	0.00386
733.184	0.00406
742.831	0.00611
752.477	0.02002
762.124	0.04802
771.77	0.03864
781.417	0.0162
791.063	0.00584
800.71	0.00395
810.356	0.00387
820.003	0.00476
829.649	0.00721
839.296	0.01241
848.943	0.02415
858.589	0.0524
868.236	0.07613
877.882	0.06573
887.529	0.04727
897.175	0.02037
906.822	0.01228
916.468	0.01127
926.115	0.0106
935.761	0.00828
945.408	0.00682
955.054	0.006
964.701	0.00439
974.347	0.003355
983.994	0.0028675
993.64	0.00271869
1003.29	0.002879
1012.93	0.0039
1022.58	0.00847
1032.23	0.02193
1041.87	0.02614
1051.52	0.02304
1061.17	0.03365
1070.81	0.02175
1080.46	0.00811
1090.11	0.00662
1099.75	0.00826
1109.4	0.01394
1119.05	0.02829
1128.69	0.0326
1138.34	0.03633
1147.99	0.07379
1157.63	0.13572
1167.28	0.18239
1176.92	0.21236
1186.57	0.15106
1196.22	0.07111
1205.86	0.03526
1215.51	0.01729
1225.16	0.01108
1234.8	0.00875
1244.45	0.00858
1254.1	0.01179
1263.74	0.02606
1273.39	0.04
1283.04	0.03137
1292.68	0.02882
1302.33	0.06525
1311.98	0.14976
1321.62	0.11824
1331.27	0.02731
1340.92	0.01116
1350.56	0.008
1360.21	0.00629
1369.86	0.00498
1379.5	0.00399
1389.15	0.0033779
1398.79	0.003167
1408.44	0.0031139
1418.09	0.0032112
1427.73	0.0033463
1437.38	0.00531
1447.03	0.00775
1456.67	0.00558
1466.32	0.0030844
1475.97	0.0028313
1485.61	0.0030756
1495.26	0.0032655
1504.91	0.0028519
1514.55	0.0026314
1524.2	0.0028059
1533.85	0.0028611
1543.49	0.00272128
1553.14	0.00276881
1562.79	0.0031199
1572.43	0.00454
1582.08	0.00621
1591.73	0.00521
1601.37	0.00453
1611.02	0.00418
1620.67	0.0032894
1630.31	0.0032981
1639.96	0.00372
1649.6	0.00374
1659.25	0.0032153
1668.9	0.003007
1678.54	0.0029019
1688.19	0.0031814
1697.84	0.00373
1707.48	0.00496
1717.13	0.00681
1726.78	0.00814
1736.42	0.00921
1746.07	0.00993
1755.72	0.01112
1765.36	0.01393
1775.01	0.01796
1784.66	0.02585
1794.3	0.05161
1803.95	0.10101
1813.6	0.09255
1823.24	0.04002
1832.89	0.01867
1842.54	0.01106
1852.18	0.00662
1861.83	0.00482
1871.47	0.00381
1881.12	0.0032629
1890.77	0.0033372
1900.41	0.0032935
1910.06	0.0029542
1919.71	0.0028479
1929.35	0.0032142
1939	0.00387
1948.65	0.0033268
1958.29	0.0026426
1967.94	0.0028755
1977.59	0.0026259
1987.23	0.001998
1996.88	0.001793
2006.53	0.001784
2016.17	0.001779
2025.82	0.001928
2035.47	0.001941
2045.11	0.002051
2054.76	0.00212
2064.41	0.002107
2074.05	0.002047
2083.7	0.002032
2093.35	0.002013
2102.99	0.001827
2112.64	0.001715
2122.28	0.00166
2131.93	0.00169
2141.58	0.00164
2151.22	0.00163
2160.87	0.0016
2170.52	0.00163
2180.16	0.001682
2189.81	0.001717
2199.46	0.001799
2209.1	0.001834
2218.75	0.001916
2228.4	0.001948
2238.04	0.001947
2247.69	0.001965
2257.34	0.001943
2266.98	0.001933
2276.63	0.001929
2286.28	0.002022
2295.92	0.001992
2305.57	0.001975
2315.22	0.00199
2324.86	0.002052
2334.51	0.002249
2344.16	0.002293
2353.8	0.002097
2363.45	0.002046
2373.09	0.001961
2382.74	0.001814
2392.39	0.001753
2402.03	0.00159
2411.68	0.00148
2421.33	0.0015
2430.97	0.00145
2440.62	0.00152
2450.27	0.00152
2459.91	0.00161
2469.56	0.00168
2479.21	0.001704
2488.85	0.00159
2498.5	0.00156
2508.15	0.00146
2517.79	0.00136
2527.44	0.00137
2537.09	0.00134
2546.73	0.00131
2556.38	0.00127
2566.03	0.00127
2575.67	0.00125
2585.32	0.00128
2594.96	0.00133
2604.61	0.00129
2614.26	0.00135
2623.9	0.00136
2633.55	0.00134
2643.2	0.00121
2652.84	0.0012
2662.49	0.00121
2672.14	0.00125
2681.78	0.00129
2691.43	0.00113
2701.08	0.00116
2710.72	0.00104
2720.37	0.00091
2730.02	0.00093
2739.66	0.00089
2749.31	0.00095
2758.96	0.00095
2768.6	0.00084
2778.25	0.00091
2787.9	0.00094
2797.54	0.00105
2807.19	0.00088
2816.84	0.00066
2826.48	0.00066
2836.13	0.00062
2845.77	0.00061
2855.42	0.00062
2865.07	0.00067
2874.71	0.00065
2884.36	0.00068
2894.01	0.00067
2903.65	0.0007
2913.3	0.00069
2922.95	0.00057
2932.59	0.00046
2942.24	0.00042
2951.89	0.00035
2961.53	0.00039
2971.18	0.00034
2980.83	0.00043
2990.47	0.00062
3000.12	0.00077
3009.77	0.0008
3019.41	0.00063
3029.06	0.0008
3038.71	0.00083
3048.35	0.00106
3058	0.00143
3067.64	0.0026587
3077.29	0.00522
3086.94	0.0059
3096.58	0.00274161
3106.23	0.00094
3115.88	0.0005
3125.52	0.00033
3135.17	0.00045
3144.82	0.00037
3154.46	0.0005
3164.11	0.00053
3173.76	0.00017
3183.4	0.00044
3193.05	0.00021
3202.7	0.00011
3212.34	0.0001
3221.99	0
3231.64	0.00017
3241.28	0.00017
3250.93	0.00029
3260.58	4e-05
3270.22	0.00028
3279.87	0.00046
3289.52	0.00035
3299.16	0.00053
3308.81	0.00034
3318.45	0.00042
3328.1	0.00048
3337.75	0.00042
3347.39	0.00044
3357.04	0.00053
3366.69	0.00045
3376.33	0.00054
3385.98	0.00052
3395.63	0.00057
3405.27	0.00054
3414.92	0.00077
3424.57	0.00068
3434.21	0.00057
3443.86	0.00089
3453.51	0.00063
3463.15	0.00088
3472.8	0.00081
3482.45	0.00074
3492.09	0.00087
3501.74	0.00101
3511.39	0.00113
3521.03	0.00111
3530.68	0.00128
3540.33	0.00156
3549.97	0.00165
3559.62	0.00183
3569.26	0.001889
3578.91	0.00201
3588.56	0.002107
3598.2	0.002119
3607.85	0.001825
3617.5	0.001797
3627.14	0.00154
3636.79	0.00145
3646.44	0.00145
3656.08	0.0012
3665.73	0.00135
3675.38	0.00158
3685.02	0.00129
3694.67	0.00144
3704.32	0.00138
3713.96	0.0014
3723.61	0.00144
3733.26	0.00143
3742.9	0.0014
3752.55	0.00153
3762.2	0.00154
3771.84	0.00126
3781.49	0.00135
3791.13	0.00134
3800.78	0.00135
3810.43	0.00139
3820.07	0.0013
3829.72	0.00132
3839.37	0.00144
3849.01	0.00152
3858.66	0.00147
3868.31	0.00147
3877.95	0.00134
3887.6	0.00153
3897.25	0.00136
3906.89	0.00143
3916.54	0.00156
3926.19	0.00147
3935.83	0.00154
3945.48	0.00148
3955.13	0.00148
3964.77	0.0014
3974.42	0.00146
3984.07	0.00133
3993.71	0.0014
