Infrared Spectrum: 2-TRIFLUOROMETHYLBENZIMIDAZOLE
Formula: C8 H5 F3 N2
CAS: 312-73-2
State: SOLID (MINERAL OIL MULL)
Melting point: 207-208 C
Class: COBLENTZ
Instrument: Not specified, most likely a prism, grating, or hybrid spectrometer.
Sampling: TRANSMISSION
Resolution: 4
Origin: WYANDOTTE CHEMICALS CORP., WYANDOTTE, MICHIGAN, USA
MICROMETERS	TRANSMITTANCE
2.033	0.935
2.07275	0.94
2.11251	0.941
2.15226	0.945
2.19202	0.935
2.23177	0.928
2.27153	0.933
2.31128	0.94
2.35103	0.938
2.39079	0.94
2.43054	0.941
2.4703	0.945
2.51005	0.94
2.54981	0.945
2.58956	0.945
2.62932	0.943
2.66907	0.935
2.70882	0.922
2.74858	0.915
2.78833	0.893
2.82809	0.88
2.86784	0.864
2.9076	0.859
2.94735	0.857
2.9871	0.852
3.02686	0.852
3.06661	0.835
3.10637	0.781
3.14612	0.704
3.18588	0.62
3.22563	0.522
3.26538	0.432
3.30514	0.419
3.34489	0.124
3.38465	0.061
3.4244	0.102
3.46416	0.124
3.50391	0.16
3.54367	0.361
3.58342	0.376
3.62317	0.29
3.66293	0.333
3.70268	0.341
3.74244	0.349
3.78219	0.333
3.82195	0.411
3.8617	0.449
3.90145	0.447
3.94121	0.474
3.98096	0.524
4.02072	0.58
4.06047	0.623
4.10023	0.643
4.13998	0.663
4.17973	0.701
4.21949	0.737
4.25924	0.749
4.299	0.764
4.33875	0.792
4.37851	0.855
4.41826	0.868
4.45801	0.882
4.49777	0.903
4.53752	0.913
4.57728	0.93
4.61703	0.938
4.65679	0.943
4.69654	0.941
4.7363	0.96
4.77605	0.968
4.8158	0.971
4.85556	0.97
4.89531	0.975
4.93507	0.978
4.97482	0.971
5.01458	0.976
5.05433	0.97
5.09408	0.961
5.13384	0.97
5.17359	0.95
5.21335	0.953
5.2531	0.94
5.29286	0.915
5.33261	0.91
5.37236	0.902
5.41212	0.895
5.45187	0.895
5.49163	0.888
5.53138	0.862
5.57114	0.859
5.61089	0.832
5.65065	0.817
5.6904	0.825
5.73015	0.824
5.76991	0.822
5.80966	0.815
5.84942	0.825
5.88917	0.832
5.92893	0.822
5.96868	0.827
6.00843	0.827
6.04819	0.834
6.08794	0.834
6.1277	0.759
6.16745	0.82
6.20721	0.746
6.24696	0.739
6.28671	0.804
6.32647	0.837
6.36622	0.706
6.40598	0.457
6.44573	0.671
6.48549	0.835
6.52524	0.822
6.565	0.781
6.60475	0.65
6.6445	0.582
6.68426	0.761
6.72401	0.789
6.76377	0.529
6.80352	0.15
6.84328	0.366
6.88303	0.429
6.92278	0.54
6.96254	0.699
7.00229	0.742
7.04205	0.719
7.0818	0.565
7.12156	0.328
7.16131	0.66
7.20106	0.713
7.24082	0.592
7.28057	0.686
7.32033	0.759
7.36008	0.839
7.39984	0.825
7.43959	0.769
7.47934	0.656
7.5191	0.263
7.55885	0.286
7.59861	0.472
7.63836	0.704
7.67812	0.757
7.71787	0.56
7.75763	0.252
7.79738	0.562
7.83713	0.699
7.87689	0.61
7.91664	0.699
7.9564	0.757
7.99615	0.736
8.03591	0.661
8.07566	0.462
8.11541	0.222
8.15517	0.49
8.19492	0.47
8.23468	0.396
8.27443	0.197
8.31419	0.131
8.35394	0.049
8.39369	0.048
8.43345	0.081
8.4732	0.071
8.51296	0.041
8.55271	0.069
8.59247	0.139
8.63222	0.189
8.67198	0.159
8.71173	0.119
8.75148	0.142
8.79124	0.167
8.83099	0.162
8.87075	0.384
8.9105	0.475
8.95026	0.5
8.99001	0.66
9.02976	0.724
9.06952	0.782
9.10927	0.802
9.14903	0.819
9.18878	0.829
9.22854	0.839
9.26829	0.849
9.30804	0.852
9.3478	0.86
9.38755	0.862
9.42731	0.865
9.46706	0.867
9.50682	0.865
9.54657	0.865
9.58633	0.867
9.62608	0.868
9.66583	0.873
9.70559	0.875
9.74534	0.873
9.7851	0.872
9.82485	0.87
9.86461	0.847
9.90436	0.648
9.94411	0.711
9.98387	0.85
10.0236	0.877
10.0634	0.86
10.1031	0.8
10.1429	0.587
10.1826	0.25
10.2224	0.398
10.2621	0.595
10.3019	0.64
10.3417	0.683
10.3814	0.713
10.4212	0.683
10.4609	0.651
10.5007	0.737
10.5404	0.802
10.5802	0.824
10.6199	0.829
10.6597	0.805
10.6994	0.761
10.7392	0.82
10.779	0.832
10.8187	0.835
10.8585	0.84
10.8982	0.829
10.938	0.814
10.9777	0.81
11.0175	0.797
11.0572	0.794
11.097	0.804
11.1367	0.804
11.1765	0.829
11.2163	0.819
11.256	0.797
11.2958	0.789
11.3355	0.777
11.3753	0.777
11.415	0.777
11.4548	0.777
11.4945	0.782
11.5343	0.777
11.574	0.782
11.6138	0.782
11.6536	0.784
11.6933	0.791
11.7331	0.794
11.7728	0.804
11.8126	0.804
11.8523	0.809
11.8921	0.822
11.9318	0.83
11.9716	0.832
12.0113	0.839
12.0511	0.845
12.0908	0.849
12.1306	0.854
12.1704	0.859
12.2101	0.855
12.2499	0.839
12.2896	0.8
12.3294	0.772
12.3691	0.812
12.4089	0.852
12.4486	0.865
12.4884	0.873
12.5281	0.882
12.5679	0.887
12.6077	0.888
12.6474	0.892
12.6872	0.892
12.7269	0.893
12.7667	0.893
12.8064	0.892
12.8462	0.888
12.8859	0.887
12.9257	0.877
12.9654	0.867
13.0052	0.776
13.045	0.769
13.0847	0.756
13.1245	0.733
13.1642	0.782
13.204	0.742
13.2437	0.621
13.2835	0.358
13.3232	0.306
13.363	0.431
13.4027	0.47
13.4425	0.315
13.4823	0.157
13.522	0.17
13.5618	0.32
13.6015	0.454
13.6413	0.542
13.681	0.666
13.7208	0.718
13.7605	0.701
13.8003	0.678
13.84	0.756
13.8798	0.817
13.9195	0.837
13.9593	0.854
13.9991	0.868
14.0388	0.882
14.0786	0.888
14.1183	0.895
14.1581	0.902
14.1978	0.905
14.2376	0.907
14.2773	0.908
14.3171	0.913
14.3568	0.913
14.3966	0.915
14.4364	0.913
14.4761	0.912
14.5159	0.912
14.5556	0.912
14.5954	0.908
14.6351	0.908
14.6749	0.91
14.7146	0.902
14.7544	0.903
14.7941	0.9
14.8339	0.9
14.8737	0.897
14.9134	0.893
14.9532	0.897
14.9929	0.882
15.0327	0.852
15.0724	0.829
15.1122	0.849
15.1519	0.87
15.1917	0.882
15.2314	0.875
15.2712	0.864
15.311	0.857
15.3507	0.85
15.3905	0.845
15.4302	0.832
15.47	0.824
15.5097	0.82
15.5495	0.819
15.5892	0.812
15.629	0.81
15.6687	0.804
15.7085	0.797
15.7482	0.792
15.788	0.781
15.8278	0.776
15.8675	0.759
15.9073	0.757
15.947	0.749
15.9868	0.744
