Infrared Spectrum: (Chloromethyl)dimethylsilane
Formula: C3 H9 Cl Si
CAS: 3121-77-5
State: gas
Origin: EPA-IR VAPOR PHASE LIBRARY
1/CM	ABSORBANCE
549.8	0.0015268
559.445	0.001772
569.09	0.00086
578.734	0.001702
588.379	0.002482
598.024	0.0014773
607.669	0.005092
617.313	0.012682
626.958	0.021952
636.603	0.020772
646.248	0.011472
655.893	0.010542
665.537	0.011972
675.182	0.012762
684.827	0.015922
694.472	0.020932
704.116	0.024882
713.761	0.024072
723.406	0.020252
733.051	0.017282
742.695	0.018592
752.34	0.020512
761.985	0.021802
771.63	0.027172
781.275	0.040642
790.919	0.056832
800.564	0.064042
810.209	0.069632
819.854	0.080912
829.498	0.102222
839.143	0.115692
848.788	0.095062
858.433	0.058582
868.078	0.034052
877.722	0.022562
887.367	0.016262
897.012	0.011852
906.657	0.009102
916.301	0.007182
925.946	0.005522
935.591	0.004782
945.236	0.006752
954.88	0.010322
964.525	0.014712
974.17	0.012472
983.815	0.009482
993.46	0.010902
1003.1	0.016262
1012.75	0.017322
1022.39	0.011582
1032.04	0.004122
1041.68	0.002432
1051.33	0.002172
1060.97	0.0013113
1070.62	0.0011007
1080.26	0.0011646
1089.91	0.002032
1099.55	0.002442
1109.2	0.002292
1118.84	0.002972
1128.49	0.0006716
1138.13	0.0014944
1147.78	0.000555
1157.42	0.002172
1167.07	0.004492
1176.71	0.005542
1186.36	0.004772
1196	0.003182
1205.64	0.002362
1215.29	0.006152
1224.93	0.009752
1234.58	0.014952
1244.22	0.028102
1253.87	0.044852
1263.51	0.050652
1273.16	0.033692
1282.8	0.014912
1292.45	0.007452
1302.09	0.004982
1311.74	0.003892
1321.38	0.003262
1331.03	0.002932
1340.67	0.003182
1350.32	0.002962
1359.96	0.003572
1369.61	0.004252
1379.25	0.006382
1388.9	0.010652
1398.54	0.015482
1408.18	0.016442
1417.83	0.013882
1427.47	0.010872
1437.12	0.007862
1446.76	0.006112
1456.41	0.006562
1466.05	0.007022
1475.7	0.005922
1485.34	0.004192
1494.99	0.003082
1504.63	0.002322
1514.28	0.001962
1523.92	0.002022
1533.57	0.001822
1543.21	0.001822
1552.86	0.0014428
1562.5	0.0014742
1572.15	0.0015646
1581.79	0.0014579
1591.44	0.0012429
1601.08	0.00141
1610.73	0.0013982
1620.37	0.0015419
1630.01	0.0015297
1639.66	0.0012964
1649.3	0.0011963
1658.95	0.0015453
1668.59	0.0012189
1678.24	0.0010441
1687.88	0.0011237
1697.53	0.0011876
1707.17	0.0009256
1716.82	0.0008537
1726.46	0.0009061
1736.11	0.0010995
1745.75	0.0007889
1755.4	0.0008725
1765.04	0.0011449
1774.69	0.00072713
1784.33	0.0010673
1793.98	0.0010806
1803.62	0.0011063
1813.27	0.0014078
1822.91	0.0011883
1832.55	0.0013685
1842.2	0.0011022
1851.84	0.0011568
1861.49	0.0012234
1871.13	0.0012167
1880.78	0.0012732
1890.42	0.0012204
1900.07	0.0014125
1909.71	0.0012627
1919.36	0.0014692
1929	0.0016355
1938.65	0.0014993
1948.29	0.0014366
1957.94	0.0014464
1967.58	0.0014377
1977.23	0.0013854
1986.87	0.0011819
1996.52	0.0010082
2006.16	0.0010321
2015.81	0.0011613
2025.45	0.0009455
2035.1	0.0011413
2044.74	0.0010578
2054.38	0.001212
2064.03	0.0012915
2073.67	0.0009521
2083.32	0.0009583
2092.96	0.0012412
2102.61	0.001081
2112.25	0.001103
2121.9	0.0009444
2131.54	0.0007565
2141.19	0.0007668
2150.83	0.0010167
2160.48	0.0005823
2170.12	0.0009909
2179.77	0.0010344
2189.41	0.0011381
2199.06	0.0008439
2208.7	0.0010336
2218.35	0.0009136
2227.99	0.0008527
2237.64	0.0010453
2247.28	0.0008939
2256.92	0.00077215
2266.57	0.0009955
2276.21	0.0007004
2285.86	0.0009934
2295.5	0.0009824
2305.15	0.00069487
2314.79	0.0009063
2324.44	0.0006708
2334.08	0.0006185
2343.73	0.000917
2353.37	0.0008953
2363.02	0.00074661
2372.66	0.0009168
2382.31	0.000862
2391.95	0.000635
2401.6	0.00076865
2411.24	0.00073462
2420.89	0.000348
2430.53	0.00072486
2440.18	0.0010815
2449.82	0.000718
2459.47	0.00073286
2469.11	0.00073591
2478.75	0.0010393
2488.4	0.0010508
2498.04	0.0008861
2507.69	0.00075013
2517.33	0.0006429
2526.98	0.00074445
2536.62	0.0006085
2546.27	0.0009098
2555.91	0.0010891
2565.56	0.0011522
2575.2	0.0012653
2584.85	0.0009077
2594.49	0.0008771
2604.14	0.0007362
2613.78	0.0009696
2623.43	0.0009056
2633.07	0.0013443
2642.72	0.0013412
2652.36	0.0011357
2662.01	0.0013411
2671.65	0.0010649
2681.29	0.00096
2690.94	0.0013082
2700.58	0.0013583
2710.23	0.0013984
2719.87	0.0015363
2729.52	0.001334
2739.16	0.0016788
2748.81	0.002802
2758.45	0.002542
2768.1	0.002562
2777.74	0.002892
2787.39	0.004172
2797.03	0.005342
2806.68	0.005902
2816.32	0.006642
2825.97	0.006372
2835.61	0.007012
2845.26	0.007242
2854.9	0.008422
2864.55	0.010922
2874.19	0.021122
2883.84	0.034822
2893.48	0.041422
2903.12	0.038192
2912.77	0.037672
2922.41	0.042552
2932.06	0.043942
2941.7	0.043092
2951.35	0.054332
2960.99	0.075202
2970.64	0.069022
2980.28	0.038752
2989.93	0.018312
2999.57	0.011012
3009.22	0.008162
3018.86	0.007152
3028.51	0.005862
3038.15	0.006352
3047.8	0.005742
3057.44	0.005492
3067.09	0.005792
3076.73	0.005662
3086.38	0.004562
3096.02	0.004142
3105.67	0.004172
3115.31	0.003542
3124.95	0.003452
3134.6	0.002592
3144.24	0.002172
3153.89	0.001982
3163.53	0.0012135
3173.18	0.001822
3182.82	0.0011173
3192.47	0.001664
3202.11	0.001722
3211.76	0.0010611
3221.4	0.0013713
3231.05	0.0013676
3240.69	0.0011447
3250.34	0.000883
3259.98	0.001218
3269.63	0.0006382
3279.27	0.000556
3288.92	0.0009082
3298.56	0.0008513
3308.21	0.000476
3317.85	0.0010064
3327.49	0.0009676
3337.14	0.00077088
3346.78	0.0009953
3356.43	0.0009781
3366.07	0.00069633
3375.72	0.000581
3385.36	0.000283
3395.01	0.0010713
3404.65	0.0007205
3414.3	0.0009279
3423.94	0.0011768
3433.59	0.000497
3443.23	0.00069359
3452.88	0.0008743
3462.52	0.000785
3472.17	0.00069781
3481.81	0.0008933
3491.46	0.00073607
3501.1	0.0008951
3510.75	0.000572
3520.39	0.0008913
3530.04	0.00069543
3539.68	0.0013606
3549.32	0.0009461
3558.97	0.000396
3568.61	0.0012965
3578.26	0.0009663
3587.9	0.001682
3597.55	0.001482
3607.19	0.0014478
3616.84	0.0012533
3626.48	0.0009733
3636.13	0.0007952
3645.77	0.0016336
3655.42	0.0013518
3665.06	0.0008269
3674.71	0.0008257
3684.35	0.001902
3694	0.0016347
3703.64	0.001782
3713.29	0.001882
3722.93	0.002072
3732.58	0.0015601
3742.22	0.0013417
3751.86	0.0011182
3761.51	0.0013803
3771.15	0.001712
3780.8	0.0011421
3790.44	0.0008756
3800.09	0.0014556
3809.73	0.0005998
3819.38	0.0007837
3829.02	0.0013357
3838.67	0.000239
3848.31	4e-06
3857.96	0.0010751
3867.6	0.0010204
3877.25	0.0009721
3886.89	0.0010472
3896.54	0.001135
3906.18	0.0015482
3915.83	0.0006223
3925.47	0.0012703
3935.12	0.000513
3944.76	0.0012473
3954.41	0.000489
3964.05	0.000386
3973.69	0.0011965
3983.34	0.00074701
3992.98	0.000302
