Infrared Spectrum: 1-Naphthyl butyrate
Formula: C 14 H 14 O 2
CAS: 3121-70-8
State: gas
Origin: EPA-IR VAPOR PHASE LIBRARY
1/CM	ABSORBANCE
549.9	0.01012
559.547	0.00972
569.193	0.00759
578.84	0.0059
588.486	0.00512
598.133	0.0044
607.779	0.0044
617.426	0.00424
627.072	0.00373
636.719	0.0033524
646.365	0.0032923
656.012	0.003149
665.658	0.00274579
675.305	0.0029567
684.951	0.0028585
694.598	0.0030047
704.245	0.003389
713.891	0.00458
723.538	0.00634
733.184	0.00679
742.831	0.00881
752.477	0.02306
762.124	0.06587
771.77	0.06684
781.417	0.03834
791.063	0.03045
800.71	0.02193
810.356	0.01436
820.003	0.00965
829.649	0.00854
839.296	0.00964
848.943	0.00971
858.589	0.01123
868.236	0.01151
877.882	0.00963
887.529	0.01074
897.175	0.01099
906.822	0.01454
916.468	0.02273
926.115	0.01979
935.761	0.01032
945.408	0.00593
955.054	0.00534
964.701	0.00508
974.347	0.00445
983.994	0.00486
993.64	0.00691
1003.29	0.01552
1012.93	0.02688
1022.58	0.02218
1032.23	0.0206
1041.87	0.03159
1051.52	0.03164
1061.17	0.03311
1070.81	0.04279
1080.46	0.07625
1090.11	0.11319
1099.75	0.10738
1109.4	0.08753
1119.05	0.09037
1128.69	0.12422
1138.34	0.17265
1147.99	0.17995
1157.63	0.13136
1167.28	0.11164
1176.92	0.11475
1186.57	0.09074
1196.22	0.06143
1205.86	0.05219
1215.51	0.07151
1225.16	0.1043
1234.8	0.05612
1244.45	0.0445
1254.1	0.04682
1263.74	0.03203
1273.39	0.0221
1283.04	0.02115
1292.68	0.02262
1302.33	0.02123
1311.98	0.0167
1321.62	0.01385
1331.27	0.01531
1340.92	0.02221
1350.56	0.02946
1360.21	0.03192
1369.86	0.0285
1379.5	0.03401
1389.15	0.04936
1398.79	0.03881
1408.44	0.01685
1418.09	0.01488
1427.73	0.0152
1437.38	0.01667
1447.03	0.01779
1456.67	0.01941
1466.32	0.0224
1475.97	0.01303
1485.61	0.00932
1495.26	0.01085
1504.91	0.01764
1514.55	0.01421
1524.2	0.00638
1533.85	0.00491
1543.49	0.00456
1553.14	0.00525
1562.79	0.00911
1572.43	0.01735
1582.08	0.01728
1591.73	0.01843
1601.37	0.01874
1611.02	0.00753
1620.67	0.00619
1630.31	0.0073
1639.96	0.00644
1649.6	0.00517
1659.25	0.00501
1668.9	0.00517
1678.54	0.00563
1688.19	0.00559
1697.84	0.00528
1707.48	0.00641
1717.13	0.00779
1726.78	0.01019
1736.42	0.01467
1746.07	0.02163
1755.72	0.03295
1765.36	0.06229
1775.01	0.12261
1784.66	0.11369
1794.3	0.05142
1803.95	0.02502
1813.6	0.01534
1823.24	0.01033
1832.89	0.00792
1842.54	0.00674
1852.18	0.00546
1861.83	0.00424
1871.47	0.0036627
1881.12	0.0034905
1890.77	0.00377
1900.41	0.00493
1910.06	0.00636
1919.71	0.00638
1929.35	0.0051
1939	0.00497
1948.65	0.00437
1958.29	0.0034068
1967.94	0.0029834
1977.59	0.0029452
1987.23	0.0029101
1996.88	0.0030285
2006.53	0.0029486
2016.17	0.002852
2025.82	0.0026374
2035.47	0.002552
2045.11	0.002527
2054.76	0.002467
2064.41	0.002515
2074.05	0.002426
2083.7	0.002347
2093.35	0.002237
2102.99	0.002098
2112.64	0.002068
2122.28	0.00186
2131.93	0.001865
2141.58	0.001719
2151.22	0.001691
2160.87	0.001727
2170.52	0.001814
2180.16	0.00176
2189.81	0.001777
2199.46	0.001849
2209.1	0.001835
2218.75	0.001759
2228.4	0.001921
2238.04	0.001912
2247.69	0.001871
2257.34	0.00202
2266.98	0.001893
2276.63	0.001966
2286.28	0.002013
2295.92	0.002033
2305.57	0.002229
2315.22	0.002126
2324.86	0.001965
2334.51	0.001854
2344.16	0.001734
2353.8	0.00153
2363.45	0.00156
2373.09	0.00168
2382.74	0.00164
2392.39	0.00162
2402.03	0.00163
2411.68	0.001729
2421.33	0.001856
2430.97	0.001736
2440.62	0.00158
2450.27	0.00156
2459.91	0.00149
2469.56	0.00141
2479.21	0.00143
2488.85	0.00149
2498.5	0.00142
2508.15	0.00147
2517.79	0.00143
2527.44	0.00135
2537.09	0.00133
2546.73	0.00136
2556.38	0.00128
2566.03	0.00123
2575.67	0.0012
2585.32	0.00118
2594.96	0.00129
2604.61	0.0014
2614.26	0.00121
2623.9	0.00113
2633.55	0.0012
2643.2	0.00109
2652.84	0.00121
2662.49	0.0013
2672.14	0.00127
2681.78	0.00143
2691.43	0.00138
2701.08	0.00141
2710.72	0.00134
2720.37	0.00136
2730.02	0.00129
2739.66	0.00136
2749.31	0.0015
2758.96	0.00147
2768.6	0.00142
2778.25	0.00144
2787.9	0.00163
2797.54	0.001801
2807.19	0.002006
2816.84	0.002295
2826.48	0.00275385
2836.13	0.0029669
2845.77	0.0037
2855.42	0.00473
2865.07	0.00633
2874.71	0.01102
2884.36	0.01821
2894.01	0.01656
2903.65	0.01339
2913.3	0.01454
2922.95	0.01715
2932.59	0.02285
2942.24	0.03336
2951.89	0.03477
2961.53	0.03477
2971.18	0.0441
2980.83	0.04486
2990.47	0.02784
3000.12	0.01572
3009.77	0.0113
3019.41	0.0097
3029.06	0.009
3038.71	0.01149
3048.35	0.01928
3058	0.04178
3067.64	0.04449
3077.29	0.02713
3086.94	0.01925
3096.58	0.01372
3106.23	0.00668
3115.88	0.0028399
3125.52	0.001789
3135.17	0.0012
3144.82	0.00092
3154.46	0.001
3164.11	0.00119
3173.76	0.00088
3183.4	0.00063
3193.05	0.0006
3202.7	0.00051
3212.34	0.00041
3221.99	0.00058
3231.64	0.00039
3241.28	0.00024
3250.93	9e-05
3260.58	0.00034
3270.22	0.00019
3279.87	0.0003
3289.52	0.00014
3299.16	0.00021
3308.81	0.00026
3318.45	0.00023
3328.1	0.0002
3337.75	0.00039
3347.39	0.00027
3357.04	0.00033
3366.69	0.0006
3376.33	0.00031
3385.98	0.00069
3395.63	0.00068
3405.27	0.00058
3414.92	0.00066
3424.57	0.00045
3434.21	0.00059
3443.86	0.00062
3453.51	0.00084
3463.15	0.00077
3472.8	0.00094
3482.45	0.00074
3492.09	0.00121
3501.74	0.00133
3511.39	0.00155
3521.03	0.001746
3530.68	0.002371
3540.33	0.00236
3549.97	0.001896
3559.62	0.00145
3569.26	0.00146
3578.91	0.00144
3588.56	0.00131
3598.2	0.00137
3607.85	0.00133
3617.5	0.00134
3627.14	0.00117
3636.79	0.00105
3646.44	0.00149
3656.08	0.0013
3665.73	0.00127
3675.38	0.00139
3685.02	0.00142
3694.67	0.00127
3704.32	0.00133
3713.96	0.00121
3723.61	0.00127
3733.26	0.00139
3742.9	0.00115
3752.55	0.0013
3762.2	0.00135
3771.84	0.00137
3781.49	0.00143
3791.13	0.00162
3800.78	0.0016
3810.43	0.001747
3820.07	0.00173
3829.72	0.001717
3839.37	0.001829
3849.01	0.001867
3858.66	0.002002
3868.31	0.00165
3877.95	0.001712
3887.6	0.00164
3897.25	0.00169
3906.89	0.001758
3916.54	0.001782
3926.19	0.001707
3935.83	0.001773
3945.48	0.00165
3955.13	0.00165
3964.77	0.00188
3974.42	0.00167
3984.07	0.00164
3993.71	0.00162
