Infrared Spectrum: 1,2-DICYANO-TETRAPHENYL-ETHANE
Formula: C28 H20 N2
CAS: 3122-21-2
State: SOLID (1.0% IN KBr PELLET)
Class: COBLENTZ
Instrument: Not specified, most likely a prism, grating, or hybrid spectrometer.
Sampling: TRANSMISSION
Path length: 0.0355 CM THICK
Resolution: 4
Origin: ANDERSON PHYSICAL LABORATORY
1/CM	TRANSMITTANCE
676.471	0.605
684.919	0.5122
693.367	0.0561
701.815	0.019
710.263	0.5047
718.711	0.821
727.159	0.857
735.607	0.6881
744.055	0.0471
752.504	0.095
760.952	0.067
769.4	0.5223
777.848	0.905
786.296	0.961
794.744	0.956
803.192	0.959
811.64	0.949
820.088	0.946
828.536	0.947
836.984	0.905
845.432	0.811
853.88	0.923
862.328	0.944
870.776	0.949
879.224	0.937
887.672	0.934
896.12	0.931
904.569	0.931
913.017	0.883
921.465	0.872
929.913	0.863
938.361	0.908
946.809	0.916
955.257	0.911
963.705	0.883
972.153	0.814
980.601	0.764
989.049	0.785
997.497	0.787
1005.95	0.704
1014.39	0.763
1022.84	0.848
1031.29	0.8031
1039.74	0.5683
1048.19	0.7818
1056.63	0.86
1065.08	0.854
1073.53	0.848
1081.98	0.856
1090.43	0.748
1098.87	0.704
1107.32	0.824
1115.77	0.83
1124.22	0.788
1132.67	0.862
1141.11	0.874
1149.56	0.875
1158.01	0.83
1166.46	0.628
1174.91	0.74
1183.35	0.824
1191.8	0.778
1200.25	0.5511
1208.7	0.6977
1217.15	0.862
1225.59	0.889
1234.04	0.895
1242.49	0.893
1250.94	0.892
1259.39	0.889
1267.83	0.887
1276.28	0.887
1284.73	0.881
1293.18	0.865
1301.63	0.884
1310.08	0.896
1318.52	0.883
1326.97	0.857
1335.42	0.838
1343.87	0.803
1352.32	0.832
1360.76	0.878
1369.21	0.883
1377.66	0.877
1386.11	0.859
1394.56	0.833
1403	0.824
1411.45	0.8
1419.9	0.805
1428.35	0.82
1436.8	0.803
1445.24	0.7102
1453.69	0.1672
1462.14	0.4306
1470.59	0.797
1479.04	0.805
1487.48	0.7361
1495.93	0.3651
1504.38	0.218
1512.83	0.658
1521.28	0.836
1529.72	0.86
1538.17	0.875
1546.62	0.872
1555.07	0.881
1563.52	0.881
1571.97	0.875
1580.41	0.806
1588.86	0.58
1597.31	0.574
1605.76	0.545
1614.21	0.7269
1622.65	0.811
1631.1	0.823
1639.55	0.832
1648	0.842
1656.45	0.85
1664.89	0.85
1673.34	0.85
1681.79	0.859
1690.24	0.863
1698.69	0.878
1707.13	0.881
1715.58	0.881
1724.03	0.881
1732.48	0.88
1740.93	0.877
1749.37	0.865
1757.82	0.86
1766.27	0.859
1774.72	0.862
1783.17	0.872
1791.61	0.863
1800.06	0.842
1808.51	0.821
1816.96	0.83
1825.41	0.841
1833.85	0.853
1842.3	0.863
1850.75	0.877
1859.2	0.877
1867.65	0.863
1876.1	0.838
1884.54	0.823
1892.99	0.815
1901.44	0.827
1909.89	0.845
1918.34	0.851
1926.78	0.854
1935.23	0.857
1943.68	0.848
1952.13	0.821
1960.58	0.802
1969.02	0.8
1977.47	0.797
1985.92	0.829
1994.37	0.836
2002.82	0.8275
2011.26	0.826
2019.71	0.8275
2028.16	0.8403
2036.61	0.8562
2045.06	0.86
2053.5	0.862
2061.95	0.862
2070.4	0.862
2078.85	0.862
2087.3	0.86
2095.74	0.86
2104.19	0.86
2112.64	0.8587
2121.09	0.857
2129.54	0.856
2137.98	0.8542
2146.43	0.854
2154.88	0.853
2163.33	0.853
2171.78	0.8511
2180.23	0.85
2188.67	0.848
2197.12	0.847
2205.57	0.845
2214.02	0.8448
2222.47	0.8415
2230.91	0.8382
2239.36	0.8357
2247.81	0.803
2256.26	0.788
2264.71	0.8027
2273.15	0.8231
2281.6	0.8293
2290.05	0.832
2298.5	0.832
2306.95	0.8299
2315.39	0.8253
2323.84	0.8234
2332.29	0.8213
2340.74	0.818
2349.19	0.8162
2357.63	0.8143
2366.08	0.8122
2374.53	0.812
2382.98	0.812
2391.43	0.811
2399.87	0.811
2408.32	0.811
2416.77	0.811
2425.22	0.811
2433.67	0.811
2442.11	0.811
2450.56	0.811
2459.01	0.811
2467.46	0.811
2475.91	0.8104
2484.36	0.809
2492.8	0.809
2501.25	0.8078
2509.7	0.8043
2518.15	0.803
2526.6	0.802
2535.04	0.802
2543.49	0.802
2551.94	0.8
2560.39	0.799
2568.84	0.7968
2577.28	0.7936
2585.73	0.7903
2594.18	0.7871
2602.63	0.787
2611.08	0.785
2619.52	0.7843
2627.97	0.784
2636.42	0.782
2644.87	0.78
2653.32	0.776
2661.76	0.773
2670.21	0.7685
2678.66	0.767
2687.11	0.767
2695.56	0.767
2704	0.766
2712.45	0.764
2720.9	0.7632
2729.35	0.763
2737.8	0.761
2746.24	0.761
2754.69	0.7582
2763.14	0.7567
2771.59	0.7516
2780.04	0.7484
2788.49	0.7462
2796.93	0.7447
2805.38	0.7426
2813.83	0.739
2822.28	0.737
2830.73	0.7356
2839.17	0.7335
2847.62	0.7315
2856.07	0.7271
2864.52	0.7235
2872.97	0.7205
2881.41	0.719
2889.86	0.7159
2898.31	0.7097
2906.76	0.7064
2915.21	0.7036
2923.65	0.701
2932.1	0.6993
2940.55	0.6958
2949	0.6942
2957.45	0.6938
2965.89	0.691
2974.34	0.6884
2982.79	0.6851
2991.24	0.6816
2999.69	0.674
3008.13	0.6636
3016.58	0.6554
3025.03	0.6282
3033.48	0.5967
3041.93	0.5782
3050.38	0.5681
3058.82	0.5609
3067.27	0.5447
3075.72	0.535
3084.17	0.5381
3092.62	0.5608
3101.06	0.5853
3109.51	0.5973
3117.96	0.6073
3126.41	0.6251
3134.86	0.6511
3143.3	0.6643
3151.75	0.668
3160.2	0.668
3168.65	0.668
3177.1	0.667
3185.54	0.661
3193.99	0.659
3202.44	0.6567
3210.89	0.6521
3219.34	0.6435
3227.78	0.6376
3236.23	0.637
3244.68	0.635
3253.13	0.634
3261.58	0.632
3270.02	0.631
3278.47	0.629
3286.92	0.6245
3295.37	0.621
3303.82	0.6145
3312.26	0.6099
3320.71	0.6064
3329.16	0.6024
3337.61	0.5966
3346.06	0.5858
3354.51	0.5771
3362.95	0.5684
3371.4	0.5635
3379.85	0.5557
3388.3	0.5489
3396.75	0.5421
3405.19	0.531
3413.64	0.5227
3422.09	0.518
3430.54	0.517
3438.99	0.515
3447.43	0.514
3455.88	0.5131
3464.33	0.512
3472.78	0.512
3481.23	0.514
3489.67	0.5164
3498.12	0.5222
3506.57	0.526
3515.02	0.5323
3523.47	0.535
3531.91	0.535
3540.36	0.5361
3548.81	0.538
3557.26	0.5427
3565.71	0.5496
3574.15	0.5542
3582.6	0.5593
3591.05	0.5626
3599.5	0.5677
3607.95	0.5724
3616.39	0.5774
3624.84	0.5829
3633.29	0.586
3641.74	0.589
3650.19	0.59
3658.64	0.592
3667.08	0.5929
3675.53	0.595
3683.98	0.5969
3692.43	0.599
3700.88	0.602
3709.32	0.6025
3717.77	0.604
3726.22	0.604
3734.67	0.604
3743.12	0.6035
3751.56	0.602
3760.01	0.6012
3768.46	0.599
3776.91	0.5996
3785.36	0.6016
3793.8	0.6037
3802.25	0.605
3810.7	0.605
3819.15	0.6044
3827.6	0.604
3836.04	0.602
3844.49	0.602
3852.94	0.601
3861.39	0.599
3869.84	0.599
3878.28	0.598
3886.73	0.5966
3895.18	0.596
3903.63	0.5946
3912.08	0.588
3920.52	0.586
3928.97	0.584
3937.42	0.583
3945.87	0.582
3954.32	0.5802
3962.77	0.58
3971.21	0.5794
3979.66	0.578
