Infrared Spectrum: PYRIMIDINE, 4-AMINO-2,6-DICHLORO-5-NITRO-
Formula: C4 H2 Cl2 N4 O2
CAS: 31221-68-8
State: SOLID (1 mg / 650 mg KBr DISC)
Class: COBLENTZ III
Instrument: PERKIN-ELMER 21 (GRATING)
Instrument parameters: FILTER CHANGE AT 1020 CM^-^1
Sampling: TRANSMISSION
Resolution: 2
Origin: SOUTHERN RESEARCH INSTITUTE
1/CM	TRANSMITTANCE
603.959	0.576
613.089	0.5711
622.22	0.5662
631.35	0.5622
640.481	0.561
649.611	0.5453
658.742	0.5049
667.872	0.5443
677.002	0.6191
686.133	0.6217
695.263	0.6148
704.394	0.6058
713.524	0.596
722.655	0.596
731.785	0.626
740.915	0.5979
750.046	0.5413
759.176	0.5843
768.307	0.641
777.437	0.6038
786.568	0.315
795.698	0.609
804.829	0.699
813.959	0.6671
823.089	0.5746
832.22	0.6165
841.35	0.6753
850.481	0.6355
859.611	0.5853
868.742	0.425
877.872	0.1503
887.002	0.3911
896.133	0.6704
905.263	0.795
914.394	0.786
923.524	0.7733
932.655	0.7516
941.785	0.7329
950.915	0.7142
960.046	0.6991
969.176	0.6837
978.307	0.6542
987.437	0.6189
996.568	0.4794
1005.7	0.239
1014.83	0.3154
1023.96	0.6174
1033.09	0.5966
1042.22	0.5313
1051.35	0.5847
1060.48	0.683
1069.61	0.6714
1078.74	0.6401
1087.87	0.6
1097	0.5713
1106.13	0.54
1115.26	0.558
1124.39	0.567
1133.52	0.5643
1142.65	0.555
1151.78	0.5363
1160.92	0.5094
1170.05	0.484
1179.18	0.4447
1188.31	0.3952
1197.44	0.3311
1206.57	0.2581
1215.7	0.1509
1224.83	0.0748
1233.96	0.0584
1243.09	0.0768
1252.22	0.104
1261.35	0.178
1270.48	0.3288
1279.61	0.4737
1288.74	0.5328
1297.87	0.576
1307	0.5712
1316.13	0.529
1325.26	0.4193
1334.39	0.2968
1343.52	0.3055
1352.65	0.2522
1361.78	0.4196
1370.92	0.5592
1380.05	0.5972
1389.18	0.5919
1398.31	0.582
1407.44	0.5583
1416.57	0.522
1425.7	0.4874
1434.83	0.4433
1443.96	0.3557
1453.09	0.2253
1462.22	0.1226
1471.35	0.1071
1480.48	0.1704
1489.61	0.26
1498.74	0.2005
1507.87	0.0738
1517	0.0591
1526.13	0.0797
1535.26	0.2228
1544.39	0.2506
1553.52	0.1514
1562.65	0.052
1571.78	0.0678
1580.92	0.1603
1590.05	0.2934
1599.18	0.3808
1608.31	0.3262
1617.44	0.0987
1626.57	0.048
1635.7	0.0787
1644.83	0.1373
1653.96	0.2737
1663.09	0.4043
1672.22	0.4971
1681.35	0.5866
1690.48	0.6483
1699.61	0.6943
1708.74	0.723
1717.87	0.7827
1727	0.8047
1736.13	0.841
1745.26	0.8479
1754.39	0.854
1763.52	0.8701
1772.65	0.8834
1781.78	0.881
1790.92	0.89
1800.05	0.891
1809.18	0.89
1818.31	0.886
1827.44	0.884
1836.57	0.884
1845.7	0.884
1854.83	0.884
1863.96	0.884
1873.09	0.884
1882.22	0.884
1891.35	0.884
1900.48	0.881
1909.61	0.879
1918.74	0.877
1927.87	0.873
1937	0.8702
1946.13	0.868
1955.26	0.8679
1964.39	0.867
1973.52	0.864
1982.65	0.861
1991.78	0.8598
2000.92	0.858
2010.05	0.855
2019.18	0.8503
2028.31	0.848
2037.44	0.845
2046.57	0.839
2055.7	0.8326
2064.83	0.828
2073.96	0.8253
2083.09	0.8203
2092.22	0.82
2101.35	0.821
2110.48	0.821
2119.61	0.821
2128.74	0.821
2137.87	0.821
2147	0.821
2156.13	0.817
2165.26	0.8123
2174.39	0.811
2183.52	0.809
2192.65	0.807
2201.78	0.8033
2210.92	0.7986
2220.05	0.7893
2229.18	0.785
2238.31	0.785
2247.44	0.785
2256.57	0.785
2265.7	0.785
2274.83	0.785
2283.96	0.7836
2293.09	0.779
2302.22	0.777
2311.35	0.7723
2320.48	0.7693
2329.61	0.768
2338.74	0.768
2347.87	0.766
2357	0.7674
2366.13	0.768
2375.26	0.764
2384.39	0.7523
2393.52	0.746
2402.65	0.7439
2411.78	0.7383
2420.92	0.7333
2430.05	0.731
2439.18	0.727
2448.31	0.7216
2457.44	0.717
2466.57	0.714
2475.7	0.716
2484.83	0.7167
2493.96	0.717
2503.09	0.717
2512.22	0.7163
2521.35	0.7133
2530.48	0.7056
2539.61	0.705
2548.74	0.704
2557.87	0.704
2567	0.704
2576.13	0.6996
2585.26	0.699
2594.39	0.6946
2603.52	0.69
2612.65	0.6873
2621.78	0.6806
2630.92	0.677
2640.05	0.673
2649.18	0.673
2658.31	0.673
2667.44	0.67
2676.57	0.666
2685.7	0.6643
2694.83	0.662
2703.96	0.657
2713.09	0.653
2722.22	0.653
2731.35	0.653
2740.48	0.6513
2749.61	0.651
2758.74	0.652
2767.87	0.649
2777	0.6456
2786.13	0.6383
2795.26	0.6326
2804.39	0.625
2813.52	0.622
2822.65	0.619
2831.78	0.6143
2840.92	0.613
2850.05	0.609
2859.18	0.605
2868.31	0.5963
2877.44	0.591
2886.57	0.5843
2895.7	0.5793
2904.83	0.576
2913.96	0.574
2923.09	0.5676
2932.22	0.566
2941.35	0.5623
2950.48	0.5556
2959.61	0.5486
2968.74	0.5403
2977.87	0.5273
2987	0.5119
2996.13	0.4893
3005.26	0.4803
3014.39	0.4686
3023.52	0.4606
3032.65	0.4509
3041.78	0.4386
3050.91	0.4228
3060.05	0.3988
3069.18	0.3689
3078.31	0.3486
3087.44	0.3356
3096.57	0.3253
3105.7	0.3054
3114.83	0.2829
3123.96	0.2579
3133.09	0.2418
3142.22	0.2166
3151.35	0.2073
3160.48	0.2064
3169.61	0.2373
3178.74	0.2858
3187.87	0.295
3197	0.3027
3206.13	0.3117
3215.26	0.3254
3224.39	0.3337
3233.52	0.3283
3242.65	0.312
3251.78	0.2842
3260.91	0.2659
3270.05	0.2674
3279.18	0.2737
3288.31	0.2974
3297.44	0.3213
3306.57	0.3622
3315.7	0.4095
3324.83	0.4467
3333.96	0.4577
3343.09	0.4573
3352.22	0.4516
3361.35	0.4413
3370.48	0.4249
3379.61	0.4126
3388.74	0.3943
3397.87	0.3739
3407	0.3513
3416.13	0.305
3425.26	0.241
3434.39	0.213
3443.52	0.2188
3452.65	0.2781
3461.78	0.4059
3470.91	0.5281
3480.05	0.5768
3489.18	0.5864
3498.31	0.5957
3507.44	0.6
3516.57	0.604
3525.7	0.611
3534.83	0.6184
3543.96	0.626
3553.09	0.627
3562.22	0.6294
3571.35	0.6347
3580.48	0.6388
3589.61	0.648
3598.74	0.6533
3607.87	0.656
3617	0.6594
3626.13	0.664
3635.26	0.665
3644.39	0.665
3653.52	0.664
3662.65	0.664
3671.78	0.664
3680.91	0.664
3690.05	0.664
3699.18	0.6647
3708.31	0.664
3717.44	0.6613
3726.57	0.658
3735.7	0.658
3744.83	0.657
3753.96	0.656
3763.09	0.657
3772.22	0.658
3781.35	0.658
3790.48	0.6549
3799.61	0.651
3808.74	0.647
3817.87	0.643
3827	0.6346
3836.13	0.632
3845.26	0.632
3854.39	0.631
3863.52	0.631
3872.65	0.628
3881.78	0.627
3890.91	0.623
3900.05	0.622
3909.18	0.622
3918.31	0.622
3927.44	0.621
3936.57	0.618
3945.7	0.6143
3954.83	0.614
3963.96	0.6116
3973.09	0.611
3982.22	0.6116
3991.35	0.6066
4000.48	0.602
