Infrared Spectrum: VALERIC ACID, 4-HYDROXY-4-METHYL-, g-LACTONE
Formula: C6 H10 O2
CAS: 3123-97-5
Boiling point: 48-49 C AT 1 mmHg
Class: COBLENTZ
Instrument: Not specified, most likely a prism, grating, or hybrid spectrometer.
Sampling: TRANSMISSION
Path length: SMEAR
Resolution: 4
Origin: TENNESSEE EASTMAN COMPANY, RESEARCH LABORATORIES
MICROMETERS	TRANSMITTANCE
2.028	0.991
2.06931	0.991
2.11062	0.991
2.15193	0.993
2.19324	0.993
2.23455	0.984
2.27587	0.981
2.31718	0.981
2.35849	0.981
2.3998	0.979
2.44111	0.981
2.48242	0.981
2.52373	0.981
2.56504	0.981
2.60635	0.981
2.64766	0.981
2.68898	0.979
2.73029	0.953
2.7716	0.938
2.81291	0.909
2.85422	0.901
2.89553	0.921
2.93684	0.928
2.97815	0.933
3.01946	0.933
3.06077	0.93
3.10209	0.924
3.1434	0.919
3.18471	0.918
3.22602	0.918
3.26733	0.912
3.30864	0.831
3.34995	0.448
3.39126	0.662
3.43257	0.745
3.47388	0.851
3.5152	0.911
3.55651	0.931
3.59782	0.94
3.63913	0.943
3.68044	0.945
3.72175	0.948
3.76306	0.95
3.80437	0.953
3.84568	0.953
3.88699	0.952
3.92831	0.952
3.96962	0.952
4.01093	0.952
4.05224	0.953
4.09355	0.953
4.13486	0.952
4.17617	0.947
4.21748	0.948
4.25879	0.948
4.3001	0.947
4.34142	0.947
4.38273	0.945
4.42404	0.945
4.46535	0.948
4.50666	0.95
4.54797	0.95
4.58928	0.95
4.63059	0.95
4.6719	0.95
4.71321	0.95
4.75453	0.95
4.79584	0.95
4.83715	0.95
4.87846	0.952
4.91977	0.952
4.96108	0.952
5.00239	0.952
5.0437	0.952
5.08501	0.953
5.12632	0.953
5.16764	0.953
5.20895	0.94
5.25026	0.931
5.29157	0.921
5.33288	0.912
5.37419	0.899
5.4155	0.877
5.45681	0.778
5.49812	0.672
5.53943	0.482
5.58075	0.139
5.62206	0.051
5.66337	0.047
5.70468	0.245
5.74599	0.423
5.7873	0.534
5.82861	0.655
5.86992	0.735
5.91123	0.793
5.95254	0.824
5.99386	0.849
6.03517	0.843
6.07648	0.837
6.11779	0.853
6.1591	0.88
6.20041	0.889
6.24172	0.885
6.28303	0.901
6.32434	0.907
6.36565	0.907
6.40697	0.907
6.44828	0.907
6.48959	0.907
6.5309	0.906
6.57221	0.906
6.61352	0.904
6.65483	0.899
6.69614	0.861
6.73745	0.81
6.77876	0.672
6.82007	0.59
6.86139	0.701
6.9027	0.735
6.94401	0.773
6.98532	0.697
7.02663	0.757
7.06794	0.831
7.10925	0.819
7.15056	0.585
7.19187	0.525
7.23318	0.503
7.2745	0.58
7.31581	0.779
7.35712	0.836
7.39843	0.848
7.43974	0.848
7.48105	0.819
7.52236	0.79
7.56367	0.691
7.60498	0.621
7.64629	0.607
7.68761	0.53
7.72892	0.419
7.77023	0.284
7.81154	0.117
7.85285	0.172
7.89416	0.377
7.93547	0.421
7.97678	0.401
8.01809	0.581
8.0594	0.658
8.10072	0.658
8.14203	0.696
8.18334	0.738
8.22465	0.759
8.26596	0.757
8.30727	0.716
8.34858	0.662
8.38989	0.578
8.4312	0.421
8.47251	0.266
8.51383	0.191
8.55514	0.162
8.59645	0.221
8.63776	0.337
8.67907	0.341
8.72038	0.206
8.76169	0.139
8.803	0.177
8.84431	0.31
8.88562	0.37
8.92694	0.331
8.96825	0.245
9.00956	0.339
9.05087	0.522
9.09218	0.677
9.13349	0.75
9.1748	0.783
9.21611	0.81
9.25742	0.824
9.29873	0.836
9.34005	0.846
9.38136	0.853
9.42267	0.856
9.46398	0.86
9.50529	0.863
9.5466	0.863
9.58791	0.861
9.62922	0.846
9.67053	0.796
9.71184	0.79
9.75316	0.819
9.79447	0.829
9.83578	0.81
9.87709	0.75
9.9184	0.752
9.95971	0.796
10.001	0.81
10.0423	0.815
10.0836	0.796
10.125	0.755
10.1663	0.737
10.2076	0.74
10.2489	0.732
10.2902	0.682
10.3315	0.554
10.3728	0.337
10.4141	0.247
10.4554	0.319
10.4968	0.484
10.5381	0.566
10.5794	0.576
10.6207	0.474
10.662	0.295
10.7033	0.197
10.7446	0.225
10.7859	0.336
10.8272	0.498
10.8686	0.648
10.9099	0.732
10.9512	0.773
10.9925	0.793
11.0338	0.795
11.0751	0.79
11.1164	0.718
11.1577	0.631
11.199	0.592
11.2404	0.663
11.2817	0.749
11.323	0.798
11.3643	0.829
11.4056	0.846
11.4469	0.854
11.4882	0.861
11.5295	0.87
11.5708	0.878
11.6121	0.889
11.6535	0.897
11.6948	0.899
11.7361	0.901
11.7774	0.906
11.8187	0.909
11.86	0.909
11.9013	0.911
11.9426	0.909
11.9839	0.909
12.0253	0.909
12.0666	0.909
12.1079	0.909
12.1492	0.909
12.1905	0.909
12.2318	0.906
12.2731	0.897
12.3144	0.883
12.3557	0.848
12.3971	0.791
12.4384	0.706
12.4797	0.686
12.521	0.747
12.5623	0.805
12.6036	0.832
12.6449	0.848
12.6862	0.851
12.7275	0.854
12.7689	0.856
12.8102	0.856
12.8515	0.851
12.8928	0.831
12.9341	0.803
12.9754	0.802
13.0167	0.817
13.058	0.837
13.0993	0.856
13.1407	0.866
13.182	0.878
13.2233	0.889
13.2646	0.894
13.3059	0.895
13.3472	0.899
13.3885	0.901
13.4298	0.902
13.4711	0.902
13.5125	0.902
13.5538	0.902
13.5951	0.902
13.6364	0.902
13.6777	0.902
13.719	0.902
13.7603	0.902
13.8016	0.902
13.8429	0.902
13.8843	0.902
13.9256	0.902
13.9669	0.902
14.0082	0.901
14.0495	0.897
14.0908	0.894
14.1321	0.89
14.1734	0.889
14.2147	0.885
14.2561	0.882
14.2974	0.878
14.3387	0.875
14.38	0.87
14.4213	0.866
14.4626	0.861
14.5039	0.856
14.5452	0.853
14.5865	0.851
14.6279	0.848
14.6692	0.843
14.7105	0.831
14.7518	0.829
14.7931	0.827
14.8344	0.82
14.8757	0.81
14.917	0.802
14.9583	0.795
14.9997	0.781
15.041	0.769
15.0823	0.757
15.1236	0.747
15.1649	0.732
15.2062	0.72
15.2475	0.706
15.2888	0.694
15.3301	0.672
15.3714	0.66
15.4128	0.648
15.4541	0.639
15.4954	0.636
15.5367	0.634
15.578	0.636
15.6193	0.643
15.6606	0.651
15.7019	0.662
15.7432	0.665
15.7846	0.67
15.8259	0.672
15.8672	0.675
15.9085	0.677
15.9498	0.677
15.9911	0.677
