Infrared Spectrum: trans-2,2,Dimethyl-3-hexene
Formula: C 8 H 16
CAS: 3123-93-1
State: gas
Origin: EPA-IR VAPOR PHASE LIBRARY
1/CM	ABSORBANCE
501.5	0.000362
513.074	0.000301
524.648	0.00025
536.222	0.000273
547.796	0.000285
559.37	0.000171
570.944	3.1e-05
582.518	0.000108
594.092	0.000199
605.666	5.8e-05
617.24	0.000205
628.814	0.000157
640.388	8.2e-05
651.962	0.000151
663.536	0.000257
675.11	0.000254
686.684	0.000334
698.258	0.00031
709.832	0.00050342
721.406	0.00055737
732.98	0.0006861
744.554	0.0009428
756.128	0.0009007
767.702	0.0010999
779.276	0.001536
790.85	0.001706
802.423	0.0011677
813.997	0.0010433
825.571	0.001091
837.145	0.0011778
848.719	0.0013
860.293	0.001516
871.867	0.002376
883.441	0.003996
895.015	0.007816
906.589	0.012916
918.163	0.014596
929.737	0.013216
941.311	0.014126
952.885	0.021946
964.459	0.033756
976.033	0.033826
987.607	0.019746
999.181	0.010026
1010.76	0.007926
1022.33	0.009256
1033.9	0.007866
1045.48	0.004726
1057.05	0.003656
1068.63	0.003736
1080.2	0.003516
1091.77	0.003016
1103.35	0.002496
1114.92	0.002506
1126.49	0.002286
1138.07	0.002166
1149.64	0.002236
1161.22	0.002776
1172.79	0.004316
1184.36	0.007266
1195.94	0.010486
1207.51	0.009096
1219.09	0.006266
1230.66	0.006726
1242.23	0.009526
1253.81	0.011786
1265.38	0.011656
1276.96	0.008486
1288.53	0.005986
1300.1	0.006836
1311.68	0.009016
1323.25	0.011676
1334.83	0.012356
1346.4	0.015426
1357.97	0.027106
1369.55	0.034066
1381.12	0.023066
1392.7	0.014546
1404.27	0.010226
1415.84	0.007686
1427.42	0.009176
1438.99	0.013906
1450.57	0.022476
1462.14	0.031706
1473.71	0.034686
1485.29	0.024756
1496.86	0.010816
1508.44	0.005106
1520.01	0.003066
1531.58	0.002066
1543.16	0.001516
1554.73	0.0013025
1566.31	0.0012779
1577.88	0.0012002
1589.45	0.0012246
1601.03	0.0012993
1612.6	0.0012723
1624.18	0.0012387
1635.75	0.0011517
1647.32	0.0011317
1658.9	0.0011367
1670.47	0.0011388
1682.05	0.0010771
1693.62	0.0011358
1705.19	0.0012303
1716.77	0.001343
1728.34	0.0014644
1739.92	0.001646
1751.49	0.001816
1763.06	0.001946
1774.64	0.002266
1786.21	0.002856
1797.79	0.002786
1809.36	0.002116
1820.93	0.0014651
1832.51	0.0011733
1844.08	0.0009838
1855.66	0.0009267
1867.23	0.0008121
1878.8	0.0007574
1890.38	0.0007303
1901.95	0.0007602
1913.53	0.0006953
1925.1	0.0006987
1936.67	0.0007333
1948.25	0.000705
1959.82	0.0006589
1971.4	0.0006605
1982.97	0.0007091
1994.54	0.0007373
2006.12	0.000739
2017.69	0.0007356
2029.27	0.0007641
2040.84	0.00075
2052.41	0.0006767
2063.99	0.0006548
2075.56	0.0006529
2087.14	0.0006545
2098.71	0.0007024
2110.28	0.0007298
2121.86	0.0008031
2133.43	0.0007394
2145.01	0.0006939
2156.58	0.0006863
2168.15	0.0007027
2179.73	0.0006925
2191.3	0.0006749
2202.88	0.0006944
2214.45	0.0007199
2226.02	0.0007616
2237.6	0.0007511
2249.17	0.0007482
2260.74	0.000781
2272.32	0.000872
2283.89	0.0009583
2295.47	0.0009184
2307.04	0.0007832
2318.61	0.0007018
2330.19	0.0007482
2341.76	0.0007715
2353.34	0.00085
2364.91	0.0009534
2376.48	0.0010894
2388.06	0.0011582
2399.63	0.0011729
2411.21	0.0010838
2422.78	0.0009072
2434.35	0.0008388
2445.93	0.0008252
2457.5	0.0008066
2469.08	0.0008499
2480.65	0.0008923
2492.22	0.0009213
2503.8	0.0009383
2515.37	0.0009792
2526.95	0.0010869
2538.52	0.0011886
2550.09	0.0013503
2561.67	0.001556
2573.24	0.001556
2584.82	0.001506
2596.39	0.001546
2607.96	0.001586
2619.54	0.001566
2631.11	0.001666
2642.69	0.001746
2654.26	0.001886
2665.83	0.002006
2677.41	0.002206
2688.98	0.002566
2700.56	0.003016
2712.13	0.003766
2723.7	0.004396
2735.28	0.004676
2746.85	0.004776
2758.43	0.004636
2770	0.004826
2781.57	0.005546
2793.15	0.006476
2804.72	0.008216
2816.3	0.010566
2827.87	0.014346
2839.44	0.021266
2851.02	0.037346
2862.59	0.066126
2874.17	0.092136
2885.74	0.098796
2897.31	0.100676
2908.89	0.110316
2920.46	0.115846
2932.04	0.132146
2943.61	0.179446
2955.18	0.278086
2966.76	0.344236
2978.33	0.218816
2989.91	0.083556
3001.48	0.044386
3013.05	0.035326
3024.63	0.031146
3036.2	0.023116
3047.78	0.014996
3059.35	0.010566
3070.92	0.008626
3082.5	0.007466
3094.07	0.006716
3105.65	0.006246
3117.22	0.005966
3128.79	0.005556
3140.37	0.004846
3151.94	0.004136
3163.52	0.004036
3175.09	0.004206
3186.66	0.004366
3198.24	0.004106
3209.81	0.003826
3221.39	0.003616
3232.96	0.003516
3244.53	0.003156
3256.11	0.002576
3267.68	0.002026
3279.26	0.001806
3290.83	0.001776
3302.4	0.001836
3313.98	0.001736
3325.55	0.001506
3337.13	0.0013824
3348.7	0.0013075
3360.27	0.0012647
3371.85	0.0011956
3383.42	0.0011938
3395	0.0011398
3406.57	0.001121
3418.14	0.0010823
3429.72	0.0011958
3441.29	0.0009912
3452.86	0.0009193
3464.44	0.0009457
3476.01	0.000841
3487.59	0.0008415
3499.16	0.0007646
3510.73	0.0007153
3522.31	0.0006094
3533.88	0.00053231
3545.46	0.000605
3557.03	0.00051433
3568.6	0.0004694
3580.18	0.00054322
3591.75	0.00047203
3603.33	0.00051798
3614.9	0.00055072
3626.47	0.0005781
3638.05	0.00057135
3649.62	0.00055063
3661.2	0.0006311
3672.77	0.0006816
3684.34	0.0006782
3695.92	0.0006743
3707.49	0.0007438
3719.07	0.0008109
3730.64	0.0008097
3742.21	0.0007856
3753.79	0.0008473
3765.36	0.0008955
3776.94	0.0009627
3788.51	0.0011414
3800.08	0.0011259
3811.66	0.0011431
3823.23	0.001183
3834.81	0.0010902
3846.38	0.0011414
3857.95	0.0010865
3869.53	0.0011154
3881.1	0.0013872
3892.68	0.0014694
3904.25	0.001486
3915.82	0.0013007
3927.4	0.0012336
3938.97	0.0012903
3950.55	0.0013458
3962.12	0.0013373
3973.69	0.0013813
3985.27	0.0013484
3996.84	0.00134
