Infrared Spectrum: 3-Methoxyphenyl isothiocyanate
Formula: C 8 H 7 N O S
CAS: 3125-64-2
State: gas
Origin: EPA-IR VAPOR PHASE LIBRARY
1/CM	ABSORBANCE
549.8	0.018972
559.445	0.019922
569.09	0.016172
578.734	0.011162
588.379	0.007062
598.024	0.005172
607.669	0.004392
617.313	0.003602
626.958	0.003972
636.603	0.004842
646.248	0.004672
655.893	0.005252
665.537	0.010332
675.182	0.020112
684.827	0.020322
694.472	0.009852
704.116	0.003612
713.761	0.002132
723.406	0.002282
733.051	0.002782
742.695	0.003462
752.34	0.008072
761.985	0.019862
771.63	0.031142
781.275	0.027662
790.919	0.021702
800.564	0.031442
810.209	0.049712
819.854	0.048852
829.498	0.031422
839.143	0.023802
848.788	0.019132
858.433	0.018032
868.078	0.016852
877.722	0.009932
887.367	0.005302
897.012	0.005112
906.657	0.005712
916.301	0.004882
925.946	0.004152
935.591	0.003552
945.236	0.003332
954.88	0.005692
964.525	0.013742
974.17	0.023832
983.815	0.017582
993.46	0.013882
1003.1	0.010902
1012.75	0.009322
1022.39	0.013952
1032.04	0.027502
1041.68	0.041762
1051.33	0.040382
1060.97	0.021512
1070.62	0.012002
1080.26	0.010422
1089.91	0.007132
1099.55	0.003432
1109.2	0.003272
1118.84	0.004172
1128.49	0.006042
1138.13	0.010742
1147.78	0.034952
1157.42	0.062282
1167.07	0.051112
1176.71	0.045362
1186.36	0.035662
1196	0.045782
1205.64	0.039812
1215.29	0.020112
1224.93	0.010132
1234.58	0.008212
1244.22	0.009912
1253.87	0.018722
1263.51	0.037072
1273.16	0.054802
1282.8	0.075262
1292.45	0.069662
1302.09	0.048392
1311.74	0.034682
1321.38	0.022632
1331.03	0.016152
1340.67	0.009512
1350.32	0.004942
1359.96	0.003672
1369.61	0.003412
1379.25	0.003362
1388.9	0.003592
1398.54	0.004932
1408.18	0.006632
1417.83	0.010942
1427.47	0.022442
1437.12	0.031232
1446.76	0.030162
1456.41	0.034162
1466.05	0.042862
1475.7	0.059202
1485.34	0.095002
1494.99	0.070942
1504.63	0.019902
1514.28	0.011452
1523.92	0.011282
1533.57	0.013042
1543.21	0.016672
1552.86	0.022472
1562.5	0.030492
1572.15	0.053622
1581.79	0.108742
1591.44	0.191062
1601.08	0.192722
1610.73	0.097372
1620.37	0.038102
1630.01	0.020712
1639.66	0.012452
1649.3	0.008652
1658.95	0.006642
1668.59	0.005312
1678.24	0.004692
1687.88	0.004222
1697.53	0.003832
1707.17	0.003932
1716.82	0.004492
1726.46	0.004672
1736.11	0.004712
1745.75	0.004572
1755.4	0.004392
1765.04	0.003862
1774.69	0.003662
1784.33	0.003772
1793.98	0.004062
1803.62	0.004362
1813.27	0.004412
1822.91	0.004322
1832.55	0.004592
1842.2	0.004692
1851.84	0.004292
1861.49	0.004282
1871.13	0.004602
1880.78	0.005212
1890.42	0.006492
1900.07	0.008802
1909.71	0.012782
1919.36	0.018122
1929	0.025152
1938.65	0.035272
1948.29	0.048582
1957.94	0.064132
1967.58	0.081352
1977.23	0.100962
1986.87	0.129052
1996.52	0.169112
2006.16	0.217332
2015.81	0.262422
2025.45	0.307992
2035.1	0.377482
2044.74	0.456852
2054.38	0.396252
2064.03	0.256292
2073.67	0.195842
2083.32	0.215052
2092.96	0.265682
2102.61	0.271902
2112.25	0.206322
2121.9	0.137052
2131.54	0.103072
2141.19	0.088092
2150.83	0.077732
2160.48	0.065122
2170.12	0.049022
2179.77	0.035042
2189.41	0.025652
2199.06	0.018512
2208.7	0.013162
2218.35	0.010412
2227.99	0.009332
2237.64	0.009302
2247.28	0.008862
2256.92	0.007792
2266.57	0.007092
2276.21	0.005962
2285.86	0.004482
2295.5	0.003552
2305.15	0.002962
2314.79	0.002732
2324.44	0.002412
2334.08	0.002332
2343.73	0.002362
2353.37	0.002632
2363.02	0.002782
2372.66	0.002912
2382.31	0.002952
2391.95	0.003232
2401.6	0.003802
2411.24	0.004592
2420.89	0.005412
2430.53	0.005802
2440.18	0.005552
2449.82	0.005302
2459.47	0.005152
2469.11	0.004872
2478.75	0.004792
2488.4	0.004562
2498.04	0.004152
2507.69	0.004022
2517.33	0.003992
2526.98	0.004142
2536.62	0.004332
2546.27	0.004872
2555.91	0.005432
2565.56	0.006242
2575.2	0.007122
2584.85	0.007242
2594.49	0.005412
2604.14	0.003652
2613.78	0.002772
2623.43	0.002162
2633.07	0.002052
2642.72	0.002052
2652.36	0.001992
2662.01	0.001802
2671.65	0.001912
2681.29	0.002102
2690.94	0.002322
2700.58	0.002582
2710.23	0.002792
2719.87	0.003342
2729.52	0.003832
2739.16	0.003932
2748.81	0.003382
2758.45	0.002992
2768.1	0.003002
2777.74	0.003002
2787.39	0.003282
2797.03	0.003372
2806.68	0.003602
2816.32	0.004302
2825.97	0.006082
2835.61	0.010292
2845.26	0.016452
2854.9	0.014032
2864.55	0.009092
2874.19	0.008082
2883.84	0.008212
2893.48	0.008852
2903.12	0.009972
2912.77	0.012242
2922.41	0.014452
2932.06	0.015042
2941.7	0.020742
2951.35	0.026062
2960.99	0.022532
2970.64	0.016882
2980.28	0.011582
2989.93	0.010072
2999.57	0.013082
3009.22	0.020642
3018.86	0.017702
3028.51	0.009272
3038.15	0.007622
3047.8	0.006792
3057.44	0.006072
3067.09	0.006612
3076.73	0.009612
3086.38	0.010242
3096.02	0.007452
3105.67	0.004612
3115.31	0.002902
3124.95	0.002012
3134.6	0.0013537
3144.24	0.0012292
3153.89	0.00105
3163.53	0.0006429
3173.18	0.0007657
3182.82	0.0006211
3192.47	0.0007608
3202.11	0.0007481
3211.76	0.000468
3221.4	0.0004724
3231.05	0.0003
3240.69	0.000351
3250.34	0.00033
3259.98	0.000364
3269.63	0.000201
3279.27	0.000326
3288.92	0.000211
3298.56	8.9e-05
3308.21	0.000143
3317.85	0.000341
3327.49	0.000152
3337.14	0.00019
3346.78	0.00036
3356.43	0.000199
3366.07	0.000329
3375.72	0.000383
3385.36	0.0004141
3395.01	0.000367
3404.65	0.000281
3414.3	0.000339
3423.94	0.000219
3433.59	0.000272
3443.23	0.0004682
3452.88	0.000394
3462.52	0.00059469
3472.17	0.00056457
3481.81	0.00060137
3491.46	0.0004249
3501.1	0.0004713
3510.75	0.0004806
3520.39	0.0006314
3530.04	0.000324
3539.68	0.000401
3549.32	0.0004616
3558.97	0.0007845
3568.61	0.0004414
3578.26	0.000520383
3587.9	0.000514912
3597.55	0.00052466
3607.19	0.00050884
3616.84	0.0006426
3626.48	0.0006454
3636.13	0.00058063
3645.77	0.00050267
3655.42	0.0006205
3665.06	0.00058959
3674.71	0.0004926
3684.35	0.0007684
3694	0.0005731
3703.64	0.0006489
3713.29	0.0007576
3722.93	0.000739
3732.58	0.0006408
3742.22	0.0007285
3751.86	0.0007074
3761.51	0.0007751
3771.15	0.0007048
3780.8	0.0008973
3790.44	0.0006617
3800.09	0.0008995
3809.73	0.0008697
3819.38	0.0007553
3829.02	0.0007644
3838.67	0.0007735
3848.31	0.0009379
3857.96	0.0008733
3867.6	0.000981
3877.25	0.0012133
3886.89	0.0012056
3896.54	0.0013006
3906.18	0.0010503
3915.83	0.0013385
3925.47	0.0012784
3935.12	0.0013804
3944.76	0.001522
3954.41	0.001532
3964.05	0.001712
3973.69	0.001862
3983.34	0.002092
3992.98	0.002102
