Infrared Spectrum: 3-Methoxycarbonylphenyl isothiocyanate
Formula: C 9 H 7 N O 2 S
CAS: 3125-66-4
State: gas
Origin: EPA-IR VAPOR PHASE LIBRARY
1/CM	ABSORBANCE
549.8	0.013454
559.445	0.011634
569.09	0.010484
578.734	0.008644
588.379	0.006424
598.024	0.004284
607.669	0.003494
617.313	0.002614
626.958	0.002194
636.603	0.002274
646.248	0.003084
655.893	0.004444
665.537	0.005924
675.182	0.010354
684.827	0.008884
694.472	0.008004
704.116	0.008884
713.761	0.013104
723.406	0.023484
733.051	0.035574
742.695	0.035834
752.34	0.051534
761.985	0.027724
771.63	0.008654
781.275	0.004274
790.919	0.004624
800.564	0.006904
810.209	0.008544
819.854	0.010654
829.498	0.010324
839.143	0.003974
848.788	0.002494
858.433	0.002514
868.078	0.002244
877.722	0.002124
887.367	0.004124
897.012	0.008754
906.657	0.009664
916.301	0.005364
925.946	0.003964
935.591	0.007424
945.236	0.014044
954.88	0.016814
964.525	0.012094
974.17	0.006684
983.815	0.007454
993.46	0.012054
1003.1	0.015794
1012.75	0.009014
1022.39	0.003564
1032.04	0.003274
1041.68	0.003174
1051.33	0.004124
1060.97	0.010014
1070.62	0.024894
1080.26	0.029314
1089.91	0.030184
1099.55	0.047984
1109.2	0.043944
1118.84	0.018884
1128.49	0.010064
1138.13	0.007024
1147.78	0.006704
1157.42	0.011624
1167.07	0.017134
1176.71	0.009244
1186.36	0.011384
1196	0.019644
1205.64	0.048884
1215.29	0.122604
1224.93	0.151454
1234.58	0.067414
1244.22	0.027814
1253.87	0.023544
1263.51	0.033654
1273.16	0.074024
1282.8	0.173254
1292.45	0.214304
1302.09	0.113374
1311.74	0.039474
1321.38	0.018764
1331.03	0.013054
1340.67	0.009994
1350.32	0.007764
1359.96	0.006284
1369.61	0.005384
1379.25	0.004554
1388.9	0.004704
1398.54	0.005614
1408.18	0.007044
1417.83	0.010284
1427.47	0.020954
1437.12	0.048864
1446.76	0.054884
1456.41	0.018774
1466.05	0.012044
1475.7	0.016034
1485.34	0.019354
1494.99	0.010324
1504.63	0.006284
1514.28	0.004414
1523.92	0.003884
1533.57	0.003904
1543.21	0.004954
1552.86	0.007844
1562.5	0.012834
1572.15	0.023634
1581.79	0.040504
1591.44	0.035724
1601.08	0.033274
1610.73	0.023544
1620.37	0.010774
1630.01	0.006194
1639.66	0.004904
1649.3	0.004564
1658.95	0.004604
1668.59	0.004944
1678.24	0.004744
1687.88	0.005264
1697.53	0.007324
1707.17	0.012534
1716.82	0.017884
1726.46	0.020004
1736.11	0.049864
1745.75	0.174324
1755.4	0.130984
1765.04	0.022944
1774.69	0.015734
1784.33	0.016044
1793.98	0.009774
1803.62	0.007374
1813.27	0.006134
1822.91	0.005604
1832.55	0.005104
1842.2	0.004304
1851.84	0.003904
1861.49	0.004024
1871.13	0.005074
1880.78	0.007124
1890.42	0.008834
1900.07	0.009744
1909.71	0.011824
1919.36	0.016204
1929	0.023464
1938.65	0.033774
1948.29	0.044844
1957.94	0.055064
1967.58	0.069494
1977.23	0.091494
1986.87	0.119004
1996.52	0.153034
2006.16	0.191594
2015.81	0.226984
2025.45	0.266354
2035.1	0.324754
2044.74	0.316324
2054.38	0.214174
2064.03	0.164174
2073.67	0.187374
2083.32	0.225714
2092.96	0.207954
2102.61	0.153104
2112.25	0.113224
2121.9	0.094114
2131.54	0.080274
2141.19	0.065204
2150.83	0.049294
2160.48	0.038464
2170.12	0.031944
2179.77	0.025154
2189.41	0.017984
2199.06	0.013644
2208.7	0.012354
2218.35	0.011224
2227.99	0.009304
2237.64	0.007244
2247.28	0.005454
2256.92	0.004394
2266.57	0.003764
2276.21	0.003484
2285.86	0.003104
2295.5	0.002654
2305.15	0.002234
2314.79	0.002214
2324.44	0.002424
2334.08	0.002284
2343.73	0.001964
2353.37	0.001804
2363.02	0.002034
2372.66	0.002154
2382.31	0.002474
2391.95	0.002594
2401.6	0.002904
2411.24	0.003134
2420.89	0.003254
2430.53	0.003174
2440.18	0.003024
2449.82	0.002724
2459.47	0.002374
2469.11	0.002514
2478.75	0.002574
2488.4	0.002984
2498.04	0.003314
2507.69	0.003384
2517.33	0.003194
2526.98	0.003144
2536.62	0.003404
2546.27	0.003794
2555.91	0.004474
2565.56	0.005294
2575.2	0.006284
2584.85	0.006034
2594.49	0.004124
2604.14	0.002534
2613.78	0.001904
2623.43	0.001534
2633.07	0.001364
2642.72	0.0013265
2652.36	0.0013043
2662.01	0.0012373
2671.65	0.0012093
2681.29	0.0012107
2690.94	0.0012305
2700.58	0.001574
2710.23	0.001694
2719.87	0.001764
2729.52	0.002064
2739.16	0.002324
2748.81	0.002594
2758.45	0.003074
2768.1	0.003234
2777.74	0.003194
2787.39	0.002604
2797.03	0.002194
2806.68	0.002064
2816.32	0.002264
2825.97	0.002474
2835.61	0.003044
2845.26	0.004974
2854.9	0.005814
2864.55	0.003434
2874.19	0.002994
2883.84	0.003274
2893.48	0.003834
2903.12	0.004514
2912.77	0.005124
2922.41	0.005114
2932.06	0.004894
2941.7	0.006394
2951.35	0.012934
2960.99	0.029644
2970.64	0.017934
2980.28	0.006924
2989.93	0.006084
2999.57	0.007314
3009.22	0.007294
3018.86	0.006284
3028.51	0.006724
3038.15	0.006844
3047.8	0.005524
3057.44	0.004314
3067.09	0.005494
3076.73	0.007994
3086.38	0.006934
3096.02	0.004604
3105.67	0.003104
3115.31	0.002024
3124.95	0.0011984
3134.6	0.0009449
3144.24	0.0008675
3153.89	0.0008555
3163.53	0.000639
3173.18	0.0006847
3182.82	0.0006209
3192.47	0.0006079
3202.11	0.0005585
3211.76	0.00034412
3221.4	0.00026
3231.05	0.00025
3240.69	0.00043513
3250.34	0.000223
3259.98	0.0003086
3269.63	0.000142
3279.27	0.0002594
3288.92	0.0002738
3298.56	0.0002725
3308.21	0.000326
3317.85	0.00043992
3327.49	0.0003302
3337.14	0.00042042
3346.78	0.00037481
3356.43	0.0003266
3366.07	0.00035008
3375.72	0.0002946
3385.36	0.00045399
3395.01	0.00039165
3404.65	0.0003142
3414.3	0.0003329
3423.94	0.0004807
3433.59	0.0006399
3443.23	0.0006853
3452.88	0.0008703
3462.52	0.0010138
3472.17	0.001654
3481.81	0.002164
3491.46	0.0012737
3501.1	0.0008264
3510.75	0.0006286
3520.39	0.0004598
3530.04	0.00044242
3539.68	0.0005666
3549.32	0.0003207
3558.97	0.0004936
3568.61	0.0004557
3578.26	0.00036922
3587.9	0.000217
3597.55	0.0005061
3607.19	0.00039603
3616.84	0.00040767
3626.48	0.00040186
3636.13	0.0003266
3645.77	0.0004681
3655.42	0.00034
3665.06	0.000599
3674.71	0.00038082
3684.35	0.00043337
3694	0.0006116
3703.64	0.0006527
3713.29	0.0006123
3722.93	0.00043202
3732.58	0.000356998
3742.22	0.0005115
3751.86	0.0005077
3761.51	0.0007401
3771.15	0.0007731
3780.8	0.0005293
3790.44	0.0005141
3800.09	0.0006015
3809.73	0.0005521
3819.38	0.0005906
3829.02	0.0004837
3838.67	0.0007093
3848.31	0.0007922
3857.96	0.0007734
3867.6	0.0008835
3877.25	0.0007907
3886.89	0.0007427
3896.54	0.0009798
3906.18	0.001077
3915.83	0.0009222
3925.47	0.0013434
3935.12	0.001167
3944.76	0.0012337
3954.41	0.001504
3964.05	0.001574
3973.69	0.001444
3983.34	0.001544
3992.98	0.001674
