Infrared Spectrum: 3-Cyanophenyl isothiocyanate
Formula: C 8 H 4 N 2 S
CAS: 3125-78-8
State: gas
Origin: EPA-IR VAPOR PHASE LIBRARY
1/CM	ABSORBANCE
549.8	0.017167
559.445	0.025147
569.09	0.022937
578.734	0.015347
588.379	0.012917
598.024	0.011047
607.669	0.009167
617.313	0.006707
626.958	0.006757
636.603	0.008097
646.248	0.008017
655.893	0.007237
665.537	0.015047
675.182	0.030397
684.827	0.023117
694.472	0.010417
704.116	0.005087
713.761	0.003757
723.406	0.003137
733.051	0.004157
742.695	0.006987
752.34	0.009007
761.985	0.007267
771.63	0.013647
781.275	0.039677
790.919	0.072537
800.564	0.059797
810.209	0.039987
819.854	0.025167
829.498	0.011197
839.143	0.006257
848.788	0.003927
858.433	0.003637
868.078	0.005687
877.722	0.015367
887.367	0.024457
897.012	0.015097
906.657	0.007737
916.301	0.004557
925.946	0.004397
935.591	0.003357
945.236	0.002117
954.88	0.002937
964.525	0.004217
974.17	0.008707
983.815	0.016917
993.46	0.013197
1003.1	0.008357
1012.75	0.004857
1022.39	0.003647
1032.04	0.002497
1041.68	0.002627
1051.33	0.002877
1060.97	0.002347
1070.62	0.002357
1080.26	0.004747
1089.91	0.006157
1099.55	0.004407
1109.2	0.003087
1118.84	0.002377
1128.49	0.002517
1138.13	0.001947
1147.78	0.003017
1157.42	0.003427
1167.07	0.003647
1176.71	0.001997
1186.36	0.002567
1196	0.003067
1205.64	0.003227
1215.29	0.003367
1224.93	0.003857
1234.58	0.004387
1244.22	0.004877
1253.87	0.007177
1263.51	0.012097
1273.16	0.020327
1282.8	0.018407
1292.45	0.006497
1302.09	0.004967
1311.74	0.006377
1321.38	0.002717
1331.03	0.0016261
1340.67	0.002037
1350.32	0.002227
1359.96	0.002137
1369.61	0.002037
1379.25	0.001717
1388.9	0.001747
1398.54	0.002437
1408.18	0.005587
1417.83	0.015417
1427.47	0.016957
1437.12	0.010287
1446.76	0.007847
1456.41	0.007707
1466.05	0.020837
1475.7	0.048677
1485.34	0.034337
1494.99	0.013057
1504.63	0.005727
1514.28	0.004587
1523.92	0.004467
1533.57	0.005397
1543.21	0.007457
1552.86	0.012617
1562.5	0.029227
1572.15	0.063767
1581.79	0.083927
1591.44	0.081007
1601.08	0.067127
1610.73	0.037407
1620.37	0.019797
1630.01	0.011637
1639.66	0.008117
1649.3	0.006727
1658.95	0.005797
1668.59	0.004857
1678.24	0.004727
1687.88	0.005517
1697.53	0.005587
1707.17	0.003697
1716.82	0.003037
1726.46	0.003007
1736.11	0.002897
1745.75	0.003077
1755.4	0.004027
1765.04	0.004807
1774.69	0.005097
1784.33	0.005457
1793.98	0.006287
1803.62	0.007667
1813.27	0.008047
1822.91	0.006477
1832.55	0.006047
1842.2	0.006237
1851.84	0.006457
1861.49	0.007227
1871.13	0.009977
1880.78	0.012457
1890.42	0.013267
1900.07	0.017067
1909.71	0.024017
1919.36	0.034517
1929	0.051087
1938.65	0.076927
1948.29	0.110417
1957.94	0.143607
1967.58	0.174667
1977.23	0.217797
1986.87	0.271077
1996.52	0.319217
2006.16	0.372127
2015.81	0.471177
2025.45	0.663567
2035.1	0.653667
2044.74	0.409977
2054.38	0.258277
2064.03	0.247607
2073.67	0.311227
2083.32	0.348917
2092.96	0.300837
2102.61	0.211447
2112.25	0.147527
2121.9	0.116417
2131.54	0.104717
2141.19	0.099757
2150.83	0.080967
2160.48	0.052497
2170.12	0.035957
2179.77	0.026607
2189.41	0.019917
2199.06	0.015207
2208.7	0.012707
2218.35	0.013287
2227.99	0.016237
2237.64	0.017037
2247.28	0.013677
2256.92	0.013177
2266.57	0.011597
2276.21	0.007867
2285.86	0.005587
2295.5	0.005047
2305.15	0.005107
2314.79	0.004637
2324.44	0.004047
2334.08	0.003667
2343.73	0.003237
2353.37	0.003557
2363.02	0.003797
2372.66	0.003797
2382.31	0.003687
2391.95	0.003857
2401.6	0.004507
2411.24	0.005037
2420.89	0.006377
2430.53	0.006687
2440.18	0.005557
2449.82	0.004507
2459.47	0.004237
2469.11	0.004267
2478.75	0.004377
2488.4	0.004407
2498.04	0.004767
2507.69	0.005627
2517.33	0.006167
2526.98	0.007167
2536.62	0.008437
2546.27	0.009597
2555.91	0.011477
2565.56	0.012017
2575.2	0.009667
2584.85	0.007237
2594.49	0.005937
2604.14	0.004427
2613.78	0.003027
2623.43	0.002877
2633.07	0.002727
2642.72	0.002537
2652.36	0.002547
2662.01	0.002297
2671.65	0.002767
2681.29	0.003037
2690.94	0.003557
2700.58	0.003947
2710.23	0.004317
2719.87	0.004137
2729.52	0.003917
2739.16	0.003887
2748.81	0.003567
2758.45	0.003027
2768.1	0.003517
2777.74	0.003357
2787.39	0.003497
2797.03	0.003297
2806.68	0.003667
2816.32	0.003937
2825.97	0.004517
2835.61	0.004537
2845.26	0.004297
2854.9	0.003777
2864.55	0.003187
2874.19	0.002497
2883.84	0.002027
2893.48	0.002367
2903.12	0.002277
2912.77	0.002517
2922.41	0.003097
2932.06	0.002837
2941.7	0.002897
2951.35	0.002577
2960.99	0.002497
2970.64	0.002337
2980.28	0.002037
2989.93	0.002247
2999.57	0.002197
3009.22	0.002397
3018.86	0.002667
3028.51	0.003057
3038.15	0.003207
3047.8	0.002977
3057.44	0.002927
3067.09	0.003937
3076.73	0.006497
3086.38	0.006417
3096.02	0.004117
3105.67	0.002787
3115.31	0.0016722
3124.95	0.0011703
3134.6	0.0008975
3144.24	0.0008698
3153.89	0.00074872
3163.53	0.000578
3173.18	5.1e-05
3182.82	0.00071877
3192.47	0.000471
3202.11	0.000579
3211.76	0.0007416
3221.4	0.0006197
3231.05	0.000478
3240.69	0.0006055
3250.34	0.000428
3259.98	0.000449
3269.63	0.000576
3279.27	0.000419
3288.92	0.000582
3298.56	0.0008136
3308.21	0.0006563
3317.85	0.00069784
3327.49	0.0006358
3337.14	0.000311
3346.78	0.0009498
3356.43	0.000321
3366.07	0.000577
3375.72	0.00070709
3385.36	0.0008223
3395.01	0.0012954
3404.65	0.00068284
3414.3	0.000497
3423.94	0.0009491
3433.59	0.00032
3443.23	0.0009067
3452.88	0.000532
3462.52	0.00070452
3472.17	0.000566
3481.81	0.00074925
3491.46	0.0008633
3501.1	0.0008563
3510.75	0.0007388
3520.39	0.0005889
3530.04	0.000689022
3539.68	0.0005944
3549.32	0.0008656
3558.97	0.00072771
3568.61	0.0005962
3578.26	0.0006354
3587.9	0.000371
3597.55	0.0010967
3607.19	0.0010101
3616.84	0.0010826
3626.48	0.00073909
3636.13	0.0006093
3645.77	0.00026
3655.42	0.0006451
3665.06	0.0009515
3674.71	0.0010243
3684.35	0.00075561
3694	0.0012123
3703.64	0.0012203
3713.29	0.0010143
3722.93	0.00076034
3732.58	0.0011333
3742.22	0.000997
3751.86	0.0009308
3761.51	0.0012249
3771.15	0.0009811
3780.8	0.0009379
3790.44	0.0010354
3800.09	0.0015099
3809.73	0.0008616
3819.38	0.0013469
3829.02	0.0013784
3838.67	0.0008096
3848.31	0.001076
3857.96	0.0010842
3867.6	0.001717
3877.25	0.001351
3886.89	0.0012038
3896.54	0.0015255
3906.18	0.001817
3915.83	0.001807
3925.47	0.002137
3935.12	0.002267
3944.76	0.002737
3954.41	0.002127
3964.05	0.003117
3973.69	0.002477
3983.34	0.002647
3992.98	0.002487
