Infrared Spectrum: 3-Acetylphenylisothiocyanate
Formula: C 9 H 7 N O S
CAS: 3125-71-1
State: gas
Origin: EPA-IR VAPOR PHASE LIBRARY
1/CM	ABSORBANCE
551.7	0.02068
563.274	0.01855
574.848	0.02136
586.421	0.02965
597.995	0.02649
609.569	0.01382
621.143	0.00778
632.717	0.00581
644.291	0.00589
655.864	0.00889
667.438	0.01941
679.012	0.02925
690.586	0.02099
702.16	0.00724
713.734	0.00334
725.307	0.00312
736.881	0.00441
748.455	0.00741
760.029	0.01579
771.603	0.02819
783.177	0.04279
794.75	0.03405
806.324	0.01215
817.898	0.00412
829.472	0.0031
841.046	0.00315
852.619	0.00308
864.193	0.00433
875.767	0.00943
887.341	0.00931
898.915	0.00945
910.489	0.00921
922.062	0.00664
933.636	0.00795
945.21	0.01246
956.784	0.01478
968.358	0.01533
979.932	0.01558
991.505	0.01227
1003.08	0.00867
1014.65	0.0056
1026.23	0.00501
1037.8	0.00386
1049.37	0.00335
1060.95	0.00418
1072.52	0.00671
1084.1	0.00574
1095.67	0.00447
1107.24	0.00383
1118.82	0.0032
1130.39	0.00322
1141.97	0.0038
1153.54	0.00637
1165.11	0.0114
1176.69	0.00915
1188.26	0.01558
1199.83	0.04164
1211.41	0.06554
1222.98	0.02669
1234.56	0.01311
1246.13	0.01855
1257.7	0.03884
1269.28	0.0922
1280.85	0.11676
1292.42	0.05111
1304	0.01902
1315.57	0.01028
1327.15	0.008
1338.72	0.00986
1350.29	0.02262
1361.87	0.04169
1373.44	0.02316
1385.02	0.01192
1396.59	0.01068
1408.16	0.01254
1419.74	0.02427
1431.31	0.04628
1442.88	0.02675
1454.46	0.01204
1466.03	0.01247
1477.61	0.02254
1489.18	0.01511
1500.75	0.00613
1512.33	0.00497
1523.9	0.00555
1535.48	0.00708
1547.05	0.00934
1558.62	0.01697
1570.2	0.03788
1581.77	0.0577
1593.34	0.04849
1604.92	0.03076
1616.49	0.01279
1628.07	0.00799
1639.64	0.00728
1651.21	0.00822
1662.79	0.01146
1674.36	0.01834
1685.93	0.02501
1697.51	0.05867
1709.08	0.14309
1720.66	0.05915
1732.23	0.01919
1743.8	0.01681
1755.38	0.01153
1766.95	0.00797
1778.53	0.00586
1790.1	0.00537
1801.67	0.00579
1813.25	0.00572
1824.82	0.00549
1836.39	0.0055
1847.97	0.00565
1859.54	0.00679
1871.12	0.00845
1882.69	0.0103
1894.26	0.01298
1905.84	0.01682
1917.41	0.02422
1928.99	0.03615
1940.56	0.05103
1952.13	0.06784
1963.71	0.08954
1975.28	0.1206
1986.85	0.16469
1998.43	0.22497
2010	0.28205
2021.58	0.34358
2033.15	0.4615
2044.72	0.44764
2056.3	0.25846
2067.87	0.20605
2079.44	0.27028
2091.02	0.29864
2102.59	0.21616
2114.17	0.13839
2125.74	0.10822
2137.31	0.09077
2148.89	0.07259
2160.46	0.05239
2172.04	0.03911
2183.61	0.0314
2195.18	0.02369
2206.76	0.01746
2218.33	0.01298
2229.9	0.01023
2241.48	0.0091
2253.05	0.0084
2264.63	0.00653
2276.2	0.00476
2287.77	0.00352
2299.35	0.00284
2310.92	0.00251
2322.5	0.00251
2334.07	0.00255
2345.64	0.00261
2357.22	0.00281
2368.79	0.00307
2380.36	0.00332
2391.94	0.00371
2403.51	0.00467
2415.09	0.00506
2426.66	0.00448
2438.23	0.00376
2449.81	0.00366
2461.38	0.00366
2472.96	0.00394
2484.53	0.00435
2496.1	0.00414
2507.68	0.00382
2519.25	0.00398
2530.82	0.00457
2542.4	0.00528
2553.97	0.00632
2565.55	0.00758
2577.12	0.00852
2588.69	0.0066
2600.27	0.00376
2611.84	0.00253
2623.41	0.00217
2634.99	0.00213
2646.56	0.00196
2658.14	0.00186
2669.71	0.00189
2681.28	0.00206
2692.86	0.00235
2704.43	0.00277
2716.01	0.00287
2727.58	0.00281
2739.15	0.0026
2750.73	0.00272
2762.3	0.00293
2773.87	0.00321
2785.45	0.0033
2797.02	0.00361
2808.6	0.0038
2820.17	0.00365
2831.74	0.00325
2843.32	0.00287
2854.89	0.00267
2866.47	0.00263
2878.04	0.0024
2889.61	0.00218
2901.19	0.00225
2912.76	0.00249
2924.33	0.00316
2935.91	0.00411
2947.48	0.00362
2959.06	0.00385
2970.63	0.00491
2982.2	0.00503
2993.78	0.00464
3005.35	0.00598
3016.92	0.00802
3028.5	0.00656
3040.07	0.00583
3051.65	0.00514
3063.22	0.00729
3074.79	0.01182
3086.37	0.01009
3097.94	0.00634
3109.52	0.00356
3121.09	0.00214
3132.66	0.00152
3144.24	0.0013
3155.81	0.00109
3167.38	0.00102
3178.96	0.0008975
3190.53	0.0007916
3202.11	0.0006557
3213.68	0.0006812
3225.25	0.0006621
3236.83	0.0006208
3248.4	0.0006258
3259.98	0.0005309
3271.55	0.0006517
3283.12	0.0005043
3294.7	0.0006625
3306.27	0.0005728
3317.84	0.0007376
3329.42	0.0006994
3340.99	0.0008813
3352.57	0.0009044
3364.14	0.00114
3375.71	0.0014
3387.29	0.00214
3398.86	0.00322
3410.43	0.00253
3422.01	0.00151
3433.58	0.00115
3445.16	0.00105
3456.73	0.00103
3468.3	0.00101
3479.88	0.00106
3491.45	0.000973
3503.03	0.00101
3514.6	0.0009708
3526.17	0.000896
3537.75	0.0008746
3549.32	0.0009592
3560.89	0.0009264
3572.47	0.0008629
3584.04	0.0009646
3595.62	0.00101
3607.19	0.000818
3618.76	0.000926
3630.34	0.0009025
3641.91	0.0009314
3653.49	0.00102
3665.06	0.00101
3676.63	0.00104
3688.21	0.001
3699.78	0.000932
3711.35	0.0009874
3722.93	0.00111
3734.5	0.0012
3746.08	0.00118
3757.65	0.00116
3769.22	0.00116
3780.8	0.00109
3792.37	0.00119
3803.94	0.00127
3815.52	0.00117
3827.09	0.00122
3838.67	0.00141
3850.24	0.0015
3861.81	0.00144
3873.39	0.00154
3884.96	0.00149
3896.54	0.00158
3908.11	0.00163
3919.68	0.00179
3931.26	0.00198
3942.83	0.00218
3954.4	0.00225
3965.98	0.00241
3977.55	0.00256
3989.13	0.00269
4000.7	0.00256
