Infrared Spectrum: 3-Iodophenylisothiocyanate
Formula: C 7 H 4 I N S
CAS: 3125-73-3
State: gas
Origin: EPA-IR VAPOR PHASE LIBRARY
1/CM	ABSORBANCE
549.8	0.02178
559.445	0.01773
569.09	0.01467
578.734	0.0175
588.379	0.01381
598.024	0.00905
607.669	0.00718
617.313	0.00583
626.958	0.00537
636.603	0.00615
646.248	0.01014
655.893	0.014856
665.537	0.02058
675.182	0.03028
684.827	0.02473
694.472	0.01641
704.116	0.01626
713.761	0.02861
723.406	0.05736
733.051	0.0628
742.695	0.03658
752.34	0.0121
761.985	0.02496
771.63	0.06025
781.275	0.04836
790.919	0.0119
800.564	0.00438
810.209	0.00541
819.854	0.00702
829.498	0.0051
839.143	0.00352
848.788	0.00383
858.433	0.00879
868.078	0.0186
877.722	0.015061
887.367	0.00824
897.012	0.00958
906.657	0.0089
916.301	0.0084
925.946	0.00834
935.591	0.01155
945.236	0.01909
954.88	0.028
964.525	0.02152
974.17	0.01152
983.815	0.00987
993.46	0.01724
1003.1	0.00923
1012.75	0.00389
1022.39	0.00295
1032.04	0.00305
1041.68	0.00434
1051.33	0.01087
1060.97	0.02459
1070.62	0.01062
1080.26	0.00721
1089.91	0.00549
1099.55	0.00308
1109.2	0.00418
1118.84	0.00334
1128.49	0.00205
1138.13	0.00241
1147.78	0.00256
1157.42	0.00279
1167.07	0.00363
1176.71	0.00213
1186.36	0.00255
1196	0.00326
1205.64	0.00425
1215.29	0.0038
1224.93	0.00524
1234.58	0.00695
1244.22	0.00632
1253.87	0.00701
1263.51	0.00791
1273.16	0.00671
1282.8	0.00738
1292.45	0.01127
1302.09	0.00708
1311.74	0.00577
1321.38	0.00743
1331.03	0.00772
1340.67	0.00336
1350.32	0.00272
1359.96	0.00291
1369.61	0.00344
1379.25	0.00507
1388.9	0.00806
1398.54	0.01355
1408.18	0.02242
1417.83	0.02412
1427.47	0.01113
1437.12	0.00779
1446.76	0.011
1456.41	0.02751
1466.05	0.10093
1475.7	0.06759
1485.34	0.01217
1494.99	0.01167
1504.63	0.01348
1514.28	0.00796
1523.92	0.00836
1533.57	0.01283
1543.21	0.02631
1552.86	0.0627
1562.5	0.11989
1572.15	0.16088
1581.79	0.222
1591.44	0.06169
1601.08	0.0153794
1610.73	0.01041
1620.37	0.0094
1630.01	0.00818
1639.66	0.00777
1649.3	0.00723
1658.95	0.00684
1668.59	0.00724
1678.24	0.00519
1687.88	0.0043
1697.53	0.00445
1707.17	0.00462
1716.82	0.00491
1726.46	0.0055
1736.11	0.00594
1745.75	0.00522
1755.4	0.00517
1765.04	0.00604
1774.69	0.00655
1784.33	0.00739
1793.98	0.00738
1803.62	0.00619
1813.27	0.00608
1822.91	0.00608
1832.55	0.00651
1842.2	0.00714
1851.84	0.00913
1861.49	0.01179
1871.13	0.01146
1880.78	0.01386
1890.42	0.01807
1900.07	0.02399
1909.71	0.02985
1919.36	0.03614
1929	0.04506
1938.65	0.057
1948.29	0.07554
1957.94	0.10288
1967.58	0.13754
1977.23	0.18642
1986.87	0.25451
1996.52	0.3352
2006.16	0.41077
2015.81	0.46875
2025.45	0.56168
2035.1	0.67436
2044.74	0.52245
2054.38	0.3376
2064.03	0.3217
2073.67	0.40674
2083.32	0.42976
2092.96	0.34205
2102.61	0.24424
2112.25	0.20124
2121.9	0.16886
2131.54	0.12876
2141.19	0.09823
2150.83	0.077
2160.48	0.06257
2170.12	0.05111
2179.77	0.04545
2189.41	0.0431
2199.06	0.03667
2208.7	0.0279
2218.35	0.02201
2227.99	0.01699
2237.64	0.01297
2247.28	0.01081
2256.92	0.00855
2266.57	0.00641
2276.21	0.00533
2285.86	0.00499
2295.5	0.00459
2305.15	0.00426
2314.79	0.00384
2324.44	0.00377
2334.08	0.00371
2343.73	0.00357
2353.37	0.00357
2363.02	0.00362
2372.66	0.00383
2382.31	0.00408
2391.95	0.00447
2401.6	0.00502
2411.24	0.00517
2420.89	0.00546
2430.53	0.00574
2440.18	0.00616
2449.82	0.00658
2459.47	0.00673
2469.11	0.00649
2478.75	0.00687
2488.4	0.00715
2498.04	0.00663
2507.69	0.00585
2517.33	0.00565
2526.98	0.00619
2536.62	0.00664
2546.27	0.00784
2555.91	0.00908
2565.56	0.01155
2575.2	0.01305
2584.85	0.00929
2594.49	0.00508
2604.14	0.00368
2613.78	0.00317
2623.43	0.003
2633.07	0.0026
2642.72	0.00236
2652.36	0.0023
2662.01	0.00231
2671.65	0.00245
2681.29	0.00241
2690.94	0.00263
2700.58	0.0028
2710.23	0.00315
2719.87	0.0039
2729.52	0.00467
2739.16	0.00526
2748.81	0.00651
2758.45	0.00786
2768.1	0.00821
2777.74	0.00748
2787.39	0.0059
2797.03	0.00422
2806.68	0.0038
2816.32	0.00361
2825.97	0.00294
2835.61	0.00229
2845.26	0.00162
2854.9	0.00158
2864.55	0.00149
2874.19	0.00159
2883.84	0.00163
2893.48	0.00152
2903.12	0.00176
2912.77	0.00187
2922.41	0.00232
2932.06	0.0025
2941.7	0.00249
2951.35	0.00253
2960.99	0.00271
2970.64	0.00302
2980.28	0.0031
2989.93	0.00361
2999.57	0.00355
3009.22	0.00359
3018.86	0.00342
3028.51	0.00294
3038.15	0.00279
3047.8	0.00316
3057.44	0.00523
3067.09	0.00941
3076.73	0.01149
3086.38	0.00757
3096.02	0.00363
3105.67	0.00157
3115.31	0.00136
3124.95	0.00126
3134.6	0.00112
3144.24	0.00109
3153.89	0.00088
3163.53	0.00089
3173.18	0.00045
3182.82	0.00037
3192.47	0.00028
3202.11	9e-05
3211.76	0.00026
3221.4	0.00024
3231.05	0.00027
3240.69	0.00028
3250.34	0.00034
3259.98	0.00018
3269.63	0.0001
3279.27	0.00017
3288.92	0.00024
3298.56	0.00016
3308.21	0.00045
3317.85	0.00014
3327.49	0.0001
3337.14	7e-05
3346.78	0.00021
3356.43	0.00015
3366.07	2e-05
3375.72	0.00018
3385.36	0.00025
3395.01	0.00039
3404.65	0.00017
3414.3	0.00046
3423.94	0.00046
3433.59	0.00034
3443.23	0.0003
3452.88	0.0002
3462.52	0.00022
3472.17	0.00018
3481.81	0.00023
3491.46	0.00034
3501.1	0.00033
3510.75	0.00053
3520.39	0
3530.04	0.00026
3539.68	0.0003
3549.32	0.00045
3558.97	0.0004
3568.61	0.00036
3578.26	0.00039
3587.9	0.00028
3597.55	0.00043
3607.19	0.00014
3616.84	0.00034
3626.48	0.00044
3636.13	0.00034
3645.77	0.00033
3655.42	0.00033
3665.06	0.00061
3674.71	0.00061
3684.35	0.00043
3694	0.00038
3703.64	0.00049
3713.29	0.00081
3722.93	0.00076
3732.58	0.00085
3742.22	0.00074
3751.86	0.00068
3761.51	0.00061
3771.15	0.00066
3780.8	0.00067
3790.44	0.00074
3800.09	0.00108
3809.73	0.00073
3819.38	0.00088
3829.02	0.00055
3838.67	0.00079
3848.31	0.0007
3857.96	0.00076
3867.6	0.00091
3877.25	0.00087
3886.89	0.00101
3896.54	0.00108
3906.18	0.00129
3915.83	0.00155
3925.47	0.00158
3935.12	0.00174
3944.76	0.00196
3954.41	0.00198
3964.05	0.00188
3973.69	0.00225
3983.34	0.00223
3992.98	0.00237
