Infrared Spectrum: 1-Methyl-3-n-propyl-2-pyrazolin-5-one
Formula: C 7 H 12 N 2 O
CAS: 31272-04-5
State: gas
Origin: EPA-IR VAPOR PHASE LIBRARY
1/CM	ABSORBANCE
549.8	0.001909
559.445	0.001639
569.09	0.001649
578.734	0.001849
588.379	0.0010518
598.024	0.001949
607.669	0.001619
617.313	0.001839
626.958	0.001809
636.603	0.002199
646.248	0.003939
655.893	0.006789
665.537	0.004659
675.182	0.002249
684.827	0.0012857
694.472	0.001286
704.116	0.0009764
713.761	0.001056
723.406	0.001449
733.051	0.0013224
742.695	0.001719
752.34	0.0010439
761.985	0.0014347
771.63	0.001479
781.275	0.001459
790.919	0.001879
800.564	0.001619
810.209	0.002279
819.854	0.001649
829.498	0.0011362
839.143	0.0010657
848.788	0.00108
858.433	0.001869
868.078	0.002369
877.722	0.002999
887.367	0.002429
897.012	0.002829
906.657	0.003099
916.301	0.002929
925.946	0.002109
935.591	0.002249
945.236	0.002119
954.88	0.003679
964.525	0.008089
974.17	0.013819
983.815	0.011119
993.46	0.004169
1003.1	0.001779
1012.75	0.001669
1022.39	0.001579
1032.04	0.002019
1041.68	0.0009185
1051.33	0.001011
1060.97	0.001959
1070.62	0.003549
1080.26	0.004339
1089.91	0.004389
1099.55	0.004189
1109.2	0.002519
1118.84	0.003839
1128.49	0.003449
1138.13	0.003879
1147.78	0.003319
1157.42	0.003989
1167.07	0.003869
1176.71	0.002919
1186.36	0.002439
1196	0.002459
1205.64	0.004479
1215.29	0.005899
1224.93	0.007909
1234.58	0.009429
1244.22	0.010219
1253.87	0.008039
1263.51	0.005939
1273.16	0.005599
1282.8	0.005909
1292.45	0.007249
1302.09	0.008899
1311.74	0.009859
1321.38	0.010549
1331.03	0.011719
1340.67	0.013049
1350.32	0.014249
1359.96	0.016519
1369.61	0.018659
1379.25	0.018739
1388.9	0.015229
1398.54	0.009819
1408.18	0.006759
1417.83	0.006289
1427.47	0.005619
1437.12	0.005149
1446.76	0.005369
1456.41	0.006009
1466.05	0.006009
1475.7	0.005219
1485.34	0.003729
1494.99	0.002699
1504.63	0.002499
1514.28	0.002439
1523.92	0.002489
1533.57	0.002579
1543.21	0.003459
1552.86	0.004739
1562.5	0.004799
1572.15	0.003569
1581.79	0.003109
1591.44	0.003299
1601.08	0.002859
1610.73	0.002049
1620.37	0.001549
1630.01	0.001639
1639.66	0.001699
1649.3	0.001869
1658.95	0.001909
1668.59	0.002419
1678.24	0.003099
1687.88	0.004759
1697.53	0.007099
1707.17	0.010529
1716.82	0.021989
1726.46	0.061379
1736.11	0.137889
1745.75	0.135279
1755.4	0.044389
1765.04	0.013489
1774.69	0.006399
1784.33	0.004139
1793.98	0.002669
1803.62	0.002219
1813.27	0.001939
1822.91	0.001559
1832.55	0.001459
1842.2	0.0012497
1851.84	0.0012536
1861.49	0.0008525
1871.13	0.0007849
1880.78	0.0007822
1890.42	0.0008951
1900.07	0.0008036
1909.71	0.0008977
1919.36	0.0007932
1929	0.0008079
1938.65	0.000749
1948.29	0.0008422
1957.94	0.0007943
1967.58	0.0007275
1977.23	0.0007397
1986.87	0.00050829
1996.52	0.000705
2006.16	0.000739
2015.81	0.0006818
2025.45	0.0007002
2035.1	0.000768
2044.74	0.0006911
2054.38	0.0006513
2064.03	0.000643
2073.67	0.0006911
2083.32	0.0005937
2092.96	0.0004028
2102.61	0.000654
2112.25	0.0006266
2121.9	0.0005702
2131.54	0.0007677
2141.19	0.0008107
2150.83	0.0006735
2160.48	0.0008185
2170.12	0.0008816
2179.77	0.0009313
2189.41	0.0007852
2199.06	0.0007848
2208.7	0.0008018
2218.35	0.0008564
2227.99	0.0006567
2237.64	0.0006359
2247.28	0.0006874
2256.92	0.0006151
2266.57	0.00078
2276.21	0.000543
2285.86	0.0005778
2295.5	0.0008129
2305.15	0.0008208
2314.79	0.0006553
2324.44	0.0006813
2334.08	0.0006073
2343.73	0.0005465
2353.37	0.00053261
2363.02	0.00048593
2372.66	0.000656
2382.31	0.000655
2391.95	0.0007881
2401.6	0.0006321
2411.24	0.0008702
2420.89	0.0008095
2430.53	0.0007251
2440.18	0.0006703
2449.82	0.00051471
2459.47	0.0008292
2469.11	0.0006866
2478.75	0.0007031
2488.4	0.0007476
2498.04	0.0008097
2507.69	0.0008075
2517.33	0.0007381
2526.98	0.0007358
2536.62	0.0006759
2546.27	0.000732
2555.91	0.0008683
2565.56	0.0006919
2575.2	0.0006085
2584.85	0.0006408
2594.49	0.000709
2604.14	0.0006337
2613.78	0.0006699
2623.43	0.00046802
2633.07	0.00049405
2642.72	0.0004094
2652.36	0.00056
2662.01	0.0007933
2671.65	0.0007949
2681.29	0.0010388
2690.94	0.0006416
2700.58	0.0008081
2710.23	0.0008339
2719.87	0.0006192
2729.52	0.0007906
2739.16	0.0008419
2748.81	0.0010942
2758.45	0.0010229
2768.1	0.0011167
2777.74	0.0013741
2787.39	0.0014244
2797.03	0.001599
2806.68	0.001979
2816.32	0.002169
2825.97	0.002919
2835.61	0.003159
2845.26	0.003719
2854.9	0.004659
2864.55	0.005789
2874.19	0.008869
2883.84	0.011999
2893.48	0.012589
2903.12	0.012079
2912.77	0.013199
2922.41	0.014259
2932.06	0.017869
2941.7	0.023269
2951.35	0.024119
2960.99	0.023009
2970.64	0.023589
2980.28	0.018839
2989.93	0.010259
2999.57	0.005669
3009.22	0.003919
3018.86	0.002869
3028.51	0.002259
3038.15	0.001839
3047.8	0.001949
3057.44	0.001829
3067.09	0.001659
3076.73	0.001629
3086.38	0.0013652
3096.02	0.001519
3105.67	0.0010629
3115.31	0.001027
3124.95	0.000997
3134.6	0.0007786
3144.24	0.0008487
3153.89	0.0009678
3163.53	0.0007529
3173.18	0.00047541
3182.82	0.0006364
3192.47	0.0006709
3202.11	0.0005993
3211.76	0.000317
3221.4	0.0005859
3231.05	7.9e-05
3240.69	0.00043669
3250.34	0.00051982
3259.98	0.0004042
3269.63	0.00051088
3279.27	0.0003928
3288.92	0.000304
3298.56	0.0004083
3308.21	0.0007047
3317.85	0.0003758
3327.49	0.0003867
3337.14	0.0005637
3346.78	0.0003723
3356.43	0.00045484
3366.07	0.0003809
3375.72	0.0003532
3385.36	0.000440625
3395.01	0.0005659
3404.65	0.00049119
3414.3	0.0006451
3423.94	0.0005824
3433.59	0.0005421
3443.23	0.0010929
3452.88	0.0012899
3462.52	0.001969
3472.17	0.001719
3481.81	0.001165
3491.46	0.000773
3501.1	0.0005779
3510.75	0.00051489
3520.39	0.0003915
3530.04	0.0006806
3539.68	0.0006297
3549.32	0.00045926
3558.97	0.00050009
3568.61	0.0005722
3578.26	0.0004093
3587.9	0.0006931
3597.55	0.0006524
3607.19	0.0006265
3616.84	0.0007494
3626.48	0.0008334
3636.13	0.0007528
3645.77	0.0005524
3655.42	0.0009199
3665.06	0.0010207
3674.71	0.0011726
3684.35	0.0005983
3694	0.000655
3703.64	0.0006135
3713.29	0.0007087
3722.93	0.000319
3732.58	0.0004991
3742.22	0.0003722
3751.86	0.0006534
3761.51	0.0006825
3771.15	0.00051122
3780.8	0.000441482
3790.44	0.0003631
3800.09	0.00046279
3809.73	0.00048479
3819.38	0.0003443
3829.02	0.0008248
3838.67	0.00050894
3848.31	0.0003628
3857.96	0.0006654
3867.6	0.0005484
3877.25	0.00049438
3886.89	0.0007568
3896.54	0.0003662
3906.18	0.0007865
3915.83	0.000285
3925.47	0.0006921
3935.12	0.0003616
3944.76	0.0007339
3954.41	0.0006268
3964.05	0.0005958
3973.69	0.0004801
3983.34	0.0003452
3992.98	0.0007708
