Infrared Spectrum: 5-Acetylvaleric acid
Formula: C 7 H 12 O 3
CAS: 3128-07-2
State: gas
Origin: EPA-IR VAPOR PHASE LIBRARY
1/CM	ABSORBANCE
549.9	0.00774
559.547	0.00821
569.193	0.0081
578.84	0.00824
588.486	0.00923
598.133	0.00998
607.779	0.01013
617.426	0.00999
627.072	0.01007
636.719	0.00884
646.365	0.00608
656.012	0.00562
665.658	0.00505
675.305	0.0036
684.951	0.00347
694.598	0.00377
704.245	0.00379
713.891	0.00405
723.538	0.00415
733.184	0.00345
742.831	0.00299
752.477	0.003
762.124	0.00311
771.77	0.00248
781.417	0.0019007
791.063	0.0015417
800.71	0.0013675
810.356	0.00133
820.003	0.00117284
829.649	0.00115674
839.296	0.0014417
848.943	0.0014686
858.589	0.0015262
868.236	0.0015822
877.882	0.0016392
887.529	0.0016244
897.175	0.0016185
906.822	0.001637
916.468	0.00188
926.115	0.00214
935.761	0.00226
945.408	0.00249
955.054	0.00271
964.701	0.00276
974.347	0.00274
983.994	0.00272
993.64	0.00278
1003.29	0.00296
1012.93	0.00325
1022.58	0.00381
1032.23	0.00469
1041.87	0.00619
1051.52	0.00835
1061.17	0.01119
1070.81	0.01386
1080.46	0.01477
1090.11	0.01525
1099.75	0.01877
1109.4	0.02599
1119.05	0.03575
1128.69	0.03621
1138.34	0.02983
1147.99	0.0293
1157.63	0.02894
1167.28	0.02587
1176.92	0.02416
1186.57	0.02027
1196.22	0.01502
1205.86	0.01267
1215.51	0.0111
1225.16	0.0095
1234.8	0.00854
1244.45	0.00766
1254.1	0.0072
1263.74	0.00721
1273.39	0.00798
1283.04	0.00866
1292.68	0.00816
1302.33	0.00881
1311.98	0.0091
1321.62	0.00999
1331.27	0.00988
1340.92	0.01016
1350.56	0.01381
1360.21	0.01851
1369.86	0.0179
1379.5	0.01361
1389.15	0.01041
1398.79	0.00789
1408.44	0.00677
1418.09	0.00679
1427.73	0.00692
1437.38	0.00657
1447.03	0.00604
1456.67	0.00565
1466.32	0.00454
1475.97	0.00311
1485.61	0.00227
1495.26	0.0018682
1504.91	0.0016345
1514.55	0.0015321
1524.2	0.0014682
1533.85	0.0014147
1543.49	0.0013459
1553.14	0.0013013
1562.79	0.0012543
1572.43	0.0012639
1582.08	0.0012536
1591.73	0.0012303
1601.37	0.001272
1611.02	0.0013747
1620.67	0.001418
1630.31	0.001349
1639.96	0.0013868
1649.6	0.001486
1659.25	0.0017451
1668.9	0.00227
1678.54	0.00313
1688.19	0.00467
1697.84	0.00717
1707.48	0.0116
1717.13	0.0196
1726.78	0.02924
1736.42	0.03283
1746.07	0.03071
1755.72	0.03456
1765.36	0.04819
1775.01	0.05475
1784.66	0.04576
1794.3	0.0292
1803.95	0.01723
1813.6	0.00969
1823.24	0.0053
1832.89	0.00318
1842.54	0.00225
1852.18	0.0017606
1861.83	0.0014523
1871.47	0.0013235
1881.12	0.00120961
1890.77	0.00115549
1900.41	0.0011046
1910.06	0.0010937
1919.71	0.0010648
1929.35	0.001009
1939	0.00094
1948.65	0.000944
1958.29	0.000888
1967.94	0.000891
1977.59	0.000837
1987.23	0.000838
1996.88	0.00083
2006.53	0.000839
2016.17	0.000812
2025.82	0.000805
2035.47	0.000818
2045.11	0.000812
2054.76	0.000816
2064.41	0.000837
2074.05	0.000816
2083.7	0.000856
2093.35	0.000818
2102.99	0.000844
2112.64	0.000876
2122.28	0.000846
2131.93	0.000887
2141.58	0.000911
2151.22	0.000871
2160.87	0.0009
2170.52	0.000905
2180.16	0.000905
2189.81	0.000915
2199.46	0.000923
2209.1	0.000893
2218.75	0.000908
2228.4	0.000916
2238.04	0.000946
2247.69	0.00094
2257.34	0.000882
2266.98	0.000873
2276.63	0.000879
2286.28	0.000863
2295.92	0.000857
2305.57	0.000874
2315.22	0.00087
2324.86	0.000913
2334.51	0.000899
2344.16	0.000915
2353.8	0.000896
2363.45	0.000869
2373.09	0.000834
2382.74	0.000841
2392.39	0.000828
2402.03	0.000809
2411.68	0.0008
2421.33	0.000809
2430.97	0.000793
2440.62	0.000806
2450.27	0.000804
2459.91	0.000798
2469.56	0.000784
2479.21	0.000823
2488.85	0.000779
2498.5	0.000814
2508.15	0.000819
2517.79	0.000807
2527.44	0.000786
2537.09	0.00078
2546.73	0.000757
2556.38	0.000728
2566.03	0.000733
2575.67	0.000735
2585.32	0.000785
2594.96	0.000743
2604.61	0.000735
2614.26	0.000758
2623.9	0.000722
2633.55	0.000799
2643.2	0.000739
2652.84	0.000755
2662.49	0.000779
2672.14	0.000771
2681.78	0.000829
2691.43	0.000797
2701.08	0.000819
2710.72	0.000799
2720.37	0.000842
2730.02	0.000797
2739.66	0.000786
2749.31	0.000803
2758.96	0.000861
2768.6	0.000811
2778.25	0.000925
2787.9	0.000925
2797.54	0.001031
2807.19	0.001255
2816.84	0.0013454
2826.48	0.0014863
2836.13	0.0018218
2845.77	0.00223
2855.42	0.00297
2865.07	0.00404
2874.71	0.00518
2884.36	0.00568
2894.01	0.00627
2903.65	0.00717
2913.3	0.00805
2922.95	0.00972
2932.59	0.01199
2942.24	0.01384
2951.89	0.01499
2961.53	0.01387
2971.18	0.0104
2980.83	0.00694
2990.47	0.00463
3000.12	0.00356
3009.77	0.00324
3019.41	0.0026
3029.06	0.0018898
3038.71	0.0016681
3048.35	0.0014269
3058	0.0012784
3067.64	0.00117931
3077.29	0.0010956
3086.94	0.0010762
3096.58	0.000914
3106.23	0.000668
3115.88	0.000621
3125.52	0.000382
3135.17	0.000344
3144.82	0.000267
3154.46	0.00031
3164.11	0.000164
3173.76	0.000325
3183.4	0.000165
3193.05	0.0001
3202.7	0.000195
3212.34	0.000231
3221.99	4e-05
3231.64	0.000142
3241.28	3e-05
3250.93	5e-05
3260.58	0.000149
3270.22	0.000134
3279.87	3e-05
3289.52	0.00011
3299.16	0.00011
3308.81	0.00011
3318.45	0.000163
3328.1	0.000167
3337.75	6e-05
3347.39	0.000171
3357.04	8e-05
3366.69	0.0002
3376.33	0.00015
3385.98	0.0002
3395.63	0.000239
3405.27	0.000284
3414.92	0.000351
3424.57	0.000497
3434.21	0.000586
3443.86	0.000585
3453.51	0.000619
3463.15	0.000529
3472.8	0.000456
3482.45	0.000379
3492.09	0.000432
3501.74	0.000597
3511.39	0.000622
3521.03	0.000828
3530.68	0.0010436
3540.33	0.0013903
3549.97	0.00243
3559.62	0.00534
3569.26	0.0171
3578.91	0.02046
3588.56	0.00793
3598.2	0.00251
3607.85	0.0012349
3617.5	0.000928
3627.14	0.000688
3636.79	0.000616
3646.44	0.000524
3656.08	0.000479
3665.73	0.000437
3675.38	0.000535
3685.02	0.000442
3694.67	0.000478
3704.32	0.000449
3713.96	0.000449
3723.61	0.000469
3733.26	0.000418
3742.9	0.000443
3752.55	0.000504
3762.2	0.000466
3771.84	0.000498
3781.49	0.000509
3791.13	0.00055
3800.78	0.000496
3810.43	0.000575
3820.07	0.000544
3829.72	0.000514
3839.37	0.000609
3849.01	0.000574
3858.66	0.000494
3868.31	0.000494
3877.95	0.000573
3887.6	0.000613
3897.25	0.00059
3906.89	0.000593
3916.54	0.000564
3926.19	0.000644
3935.83	0.00064
3945.48	0.000627
3955.13	0.000591
3964.77	0.000571
3974.42	0.000701
3984.07	0.000606
3993.71	0.000696
