Infrared Spectrum: 2,6,11-Trimethyldodecane
Formula: C 15 H 32
CAS: 31295-56-4
State: gas
Instrument: HP-GC/MS/IRD
Origin: NIST Mass Spectrometry Data Center
1/CM	ABSORBANCE
550	0.0004329
562	0.0002145
574	0.0004251
586	0.0002145
598	0.0001989
610	0.0001326
622	0.0001989
634	0.0001833
646	6.63e-05
658	0
670	0.0001053
682	0.0001131
694	0.0001638
706	0.0002652
718	0.0002808
730	0.000468
742	0.0003666
754	0.0002457
766	0.0001755
778	0.000195
790	0.0001755
802	0.0001989
814	0.000234
826	0.0001443
838	0.0002652
850	0.0002574
862	0.0002145
874	0.0001794
886	0.0002145
898	0.0002379
910	0.0003276
922	0.000429
934	0.0004251
946	0.0003861
958	0.0003276
970	0.000351
982	0.0003432
994	0.0003042
1006	0.0003276
1018	0.0003744
1030	0.0002925
1042	0.0002925
1054	0.0002418
1066	0.0001872
1078	9.36e-05
1090	0.0001092
1102	0.0001716
1114	0.0001599
1126	0.0002301
1138	0.0004641
1150	0.0007098
1162	0.0010959
1174	0.0009867
1186	0.0005694
1198	0.0004953
1210	0.0004563
1222	0.0004836
1234	0.0003861
1246	0.0004095
1258	0.0003939
1270	0.0005538
1282	0.0005382
1294	0.0006396
1306	0.0007488
1318	0.0010296
1330	0.0012012
1342	0.0016848
1354	0.0019266
1366	0.0031317
1378	0.0039078
1390	0.0035958
1402	0.0014235
1414	0.0010023
1426	0.0010179
1438	0.001911
1450	0.003198
1462	0.0051948
1474	0.004563
1486	0.0019773
1498	0.00117
1510	0.0014469
1522	0.0009984
1534	0.0005811
1546	0.0006786
1558	0.0008853
1570	0.0002418
1582	0.0001053
1594	0.0001209
1606	0.0001404
1618	0.0002847
1630	0.0002262
1642	0.0003198
1654	0.0007605
1666	0.0003861
1678	0.0004875
1690	0.0003822
1702	0.0007137
1714	0.0005772
1726	0.0002496
1738	0.0004719
1750	0.0005655
1762	0.0003393
1774	0.0003666
1786	0.000312
1798	0.0002925
1810	0.0001599
1822	0.000195
1834	0.0001599
1846	0.0003198
1858	0.0001014
1870	0.0002028
1882	5.46e-05
1894	0.0001014
1906	6.24e-05
1918	0.0001521
1930	4.29e-05
1942	0.0001014
1954	3.12e-05
1966	5.85e-05
1978	1.17e-05
1990	8.97e-05
2002	7.8e-06
2014	5.07e-05
2026	2.73e-05
2038	4.29e-05
2050	7.8e-06
2062	3.12e-05
2074	2.34e-05
2086	1.17e-05
2098	0
2110	1.95e-05
2122	2.73e-05
2134	3.9e-05
2146	2.34e-05
2158	3.51e-05
2170	2.73e-05
2182	1.17e-05
2194	0
2206	1.17e-05
2218	1.56e-05
2230	1.95e-05
2242	3.9e-06
2254	3.9e-06
2266	2.34e-05
2278	3.9e-05
2290	7.41e-05
2302	6.24e-05
2314	8.19e-05
2326	7.41e-05
2338	6.63e-05
2350	6.63e-05
2362	5.85e-05
2374	9.36e-05
2386	6.24e-05
2398	3.9e-05
2410	6.63e-05
2422	3.12e-05
2434	3.12e-05
2446	3.51e-05
2458	3.51e-05
2470	3.9e-05
2482	3.51e-05
2494	3.9e-05
2506	7.02e-05
2518	9.36e-05
2530	0.0001092
2542	9.75e-05
2554	0.0001131
2566	0.000156
2578	0.0002028
2590	0.0002574
2602	0.0002847
2614	0.0003003
2626	0.0003276
2638	0.0003549
2650	0.000351
2662	0.0003237
2674	0.0003783
2686	0.0003861
2698	0.0004095
2710	0.0004914
2722	0.0005928
2734	0.0006942
2746	0.0006591
2758	0.0006747
2770	0.0007722
2782	0.000858
2794	0.0010998
2806	0.0014235
2818	0.00195
2830	0.0028431
2842	0.005187
2854	0.0107133
2866	0.013806
2878	0.0170742
2890	0.0160758
2902	0.0200187
2914	0.0261144
2926	0.0340236
2938	0.0359307
2950	0.0286416
2962	0.039
2974	0.022932
2986	0.0073164
2998	0.0033189
3010	0.0019539
3022	0.0013221
3034	0.0009984
3046	0.000858
3058	0.0007527
3070	0.0006981
3082	0.0006591
3094	0.0005928
3106	0.0005109
3118	0.0004758
3130	0.0004563
3142	0.0004719
3154	0.0004329
3166	0.0004485
3178	0.0004251
3190	0.0004056
3202	0.0003042
3214	0.0002535
3226	0.0001638
3238	0.0001053
3250	0.0001053
3262	9.75e-05
3274	9.36e-05
3286	0.0001014
3298	0.0001053
3310	7.02e-05
3322	0.0001248
3334	0.0001638
3346	8.97e-05
3358	0.0001092
3370	8.58e-05
3382	7.41e-05
3394	8.58e-05
3406	6.63e-05
3418	7.41e-05
3430	2.73e-05
3442	9.36e-05
3454	4.68e-05
3466	2.34e-05
3478	8.19e-05
3490	1.56e-05
3502	0.0001404
3514	3.12e-05
3526	0.0002691
3538	8.97e-05
3550	0.0001794
3562	0.0002652
3574	0.0001053
3586	0.0003939
3598	0.0001638
3610	0.0004407
3622	0.0002301
3634	0.0001794
3646	0.0003861
3658	0.0001599
3670	0.00039
3682	0.0001209
3694	0.000156
3706	0.0001521
3718	0.0002106
3730	0.0003939
3742	0.0005304
3754	0.0003666
3766	0.0001404
3778	5.07e-05
3790	6.63e-05
3802	0.0003081
3814	0.0001755
3826	0.0002067
3838	0.0004407
