Infrared Spectrum: Octafluoronaphthalene
Formula: C 10 F 8
CAS: 313-72-4
State: gas
Instrument: HP-GC/MS/IRD
Origin: NIST Mass Spectrometry Data Center
1/CM	ABSORBANCE
550	0.0005603
562	0
574	0.0001293
586	0.0001293
598	0.0002155
610	0.0003017
622	0.0002586
634	0.0002155
646	0.0001724
658	0.0004741
670	0.0012499
682	0.0012499
694	0.000862
706	0.0007758
718	0.0011637
730	0.001724
742	0.0024998
754	0.0040083
766	0.0109905
778	0.0467204
790	0.109388
802	0.0532716
814	0.0090941
826	0.0046117
838	0.0021119
850	0.0015947
862	0.0011637
874	0.0012068
886	0.0012068
898	0.0018964
910	0.0034049
922	0.0041807
934	0.0111629
946	0.105509
958	0.154384
970	0.023705
982	0.006034
994	0.0046117
1006	0.0066805
1018	0.0083183
1030	0.0066805
1042	0.0058185
1054	0.0040945
1066	0.0029308
1078	0.0028015
1090	0.0037066
1102	0.0040514
1114	0.0131455
1126	0.0886567
1138	0.0334456
1150	0.0114215
1162	0.0096544
1174	0.0109043
1186	0.0245239
1198	0.0858983
1210	0.0517631
1222	0.0062064
1234	0.0040514
1246	0.0038359
1258	0.0021981
1270	0.0020688
1282	0.0037066
1294	0.0053013
1306	0.003017
1318	0.003448
1330	0.0088786
1342	0.0081459
1354	0.0050427
1366	0.0050858
1378	0.0084476
1390	0.0177572
1402	0.088786
1414	0.296269
1426	0.0953803
1438	0.03017
1450	0.0347386
1462	0.146799
1474	0.427595
1486	0.217052
1498	0.0444361
1510	0.0687445
1522	0.0466342
1534	0.0322388
1546	0.0287477
1558	0.0138351
1570	0.0136196
1582	0.010344
1594	0.0059478
1606	0.0042238
1618	0.0049996
1630	0.0143523
1642	0.0710288
1654	0.150505
1666	0.0591763
1678	0.0152574
1690	0.0101716
1702	0.0083614
1714	0.0048272
1726	0.0031894
1738	0.0018102
1750	0.001724
1762	0.001724
1774	0.001293
1786	0.0011637
1798	0.001724
1810	0.0019826
1822	0.0015516
1834	0.0014223
1846	0.0013792
1858	0.0018964
1870	0.0018533
1882	0.0011637
1894	0.0008189
1906	0.000862
1918	0.0010344
1930	0.0008189
1942	0.0011637
1954	0.001293
1966	0.0012068
1978	0.0014223
1990	0.0011206
2002	0.0008189
2014	0.0005603
2026	0.0006034
2038	0.0007327
2050	0.0009051
2062	0.0006896
2074	0.0003448
2086	0.0003017
2098	0.0002586
2110	0.0001724
2122	8.62e-05
2134	0.0001724
2146	0.0003448
2158	0.0005603
2170	0.0006896
2182	0.0011206
2194	0.0021981
2206	0.0015516
2218	0.0006034
2230	0.0006896
2242	0.0013792
2254	0.0012499
2266	0.000862
2278	0.0012499
2290	0.0014223
2302	0.0015947
2314	0.0009482
2326	0.000431
2338	0.0002586
2350	0.0002586
2362	0.0003017
2374	0.0003448
2386	0.000431
2398	0.0012499
2410	0.0019826
2422	0.0007758
2434	0.000431
2446	0.0004741
2458	0.0006465
2470	0.0010775
2482	0.0018533
2494	0.001293
2506	0.0009051
2518	0.0015947
2530	0.0015947
2542	0.0010775
2554	0.0009482
2566	0.0010344
2578	0.0009051
2590	0.0006896
2602	0.0009051
2614	0.0011637
2626	0.0010775
2638	0.0012068
2650	0.0012068
2662	0.0012068
2674	0.0009051
2686	0.0014654
2698	0.0016809
2710	0.0010775
2722	0.0004741
2734	0.0001724
2746	8.62e-05
2758	4.31e-05
2770	4.31e-05
2782	0.0001293
2794	0.0001293
2806	0.0001293
2818	8.62e-05
2830	8.62e-05
2842	4.31e-05
2854	0.0003017
2866	0.0004741
2878	0.000431
2890	0.000431
2902	0.0003879
2914	0.0001724
2926	0.0002586
2938	0.0004741
2950	0.0004741
2962	0.0007758
2974	0.0012068
2986	0.0014223
2998	0.0008189
3010	0.0006465
3022	0.0007327
3034	0.0006034
3046	0.0003448
3058	0.0001724
3070	8.62e-05
3082	4.31e-05
3094	0
3106	0
3118	0
3130	0
3142	0
3154	8.62e-05
3166	4.31e-05
3178	4.31e-05
3190	8.62e-05
3202	4.31e-05
3214	0
3226	0
3238	0
3250	8.62e-05
3262	4.31e-05
3274	8.62e-05
3286	0.0001724
3298	0.0002586
3310	0.0001724
3322	0.0002155
3334	0.0001293
3346	0.0001724
3358	0.0001724
3370	0.0002155
3382	0.0001724
3394	0.0001293
3406	0.0001724
3418	0.0001724
3430	0.0002586
3442	0.0002155
3454	0.0001724
3466	0.0002155
3478	0.0002155
3490	0.0002586
3502	0.0001724
3514	0.0002155
3526	0.0003448
3538	0.0003017
3550	0.0002586
3562	0.0003017
3574	0.0002586
3586	0.0002586
3598	0.0003017
3610	0.0003017
3622	0.0003879
3634	0.0003448
3646	0.0003879
3658	0.0003448
3670	0.0003448
3682	0.0003448
3694	0.0003448
3706	0.0003448
3718	0.0004741
3730	0.0005172
3742	0.0004741
3754	0.0005172
3766	0.000431
3778	0.000431
3790	0.0003879
3802	0.0004741
3814	0.0004741
3826	0.000431
3838	0.0004741
