Infrared Spectrum: .alpha.,.alpha.,alpha.-Trifluoro-2,4,6-trimethylacetophenone
Formula: C 11 H 11 F 3 O
CAS: 313-56-4
State: gas
Origin: EPA-IR VAPOR PHASE LIBRARY
1/CM	ABSORBANCE
549.8	0.006113
559.445	0.003523
569.09	0.003533
578.734	0.002333
588.379	0.003273
598.024	0.004403
607.669	0.013823
617.313	0.036253
626.958	0.026653
636.603	0.008243
646.248	0.003653
655.893	0.002813
665.537	0.002693
675.182	0.003013
684.827	0.003253
694.472	0.003803
704.116	0.003913
713.761	0.007143
723.406	0.011193
733.051	0.032703
742.695	0.039313
752.34	0.015393
761.985	0.010783
771.63	0.009713
781.275	0.008313
790.919	0.006063
800.564	0.004933
810.209	0.003503
819.854	0.006643
829.498	0.005653
839.143	0.021193
848.788	0.045683
858.433	0.018073
868.078	0.007413
877.722	0.008963
887.367	0.019523
897.012	0.055703
906.657	0.129813
916.301	0.109113
925.946	0.044233
935.591	0.023163
945.236	0.027913
954.88	0.062933
964.525	0.047253
974.17	0.014983
983.815	0.009033
993.46	0.008193
1003.1	0.007393
1012.75	0.009033
1022.39	0.009343
1032.04	0.009533
1041.68	0.010443
1051.33	0.008553
1060.97	0.007653
1070.62	0.007523
1080.26	0.007173
1089.91	0.009783
1099.55	0.009763
1109.2	0.013473
1118.84	0.025943
1128.49	0.058943
1138.13	0.150143
1147.78	0.222173
1157.42	0.273253
1167.07	0.278563
1176.71	0.177193
1186.36	0.177143
1196	0.319693
1205.64	0.318703
1215.29	0.211283
1224.93	0.079113
1234.58	0.029513
1244.22	0.019133
1253.87	0.016613
1263.51	0.018083
1273.16	0.025763
1282.8	0.040713
1292.45	0.046473
1302.09	0.038753
1311.74	0.030303
1321.38	0.014463
1331.03	0.009593
1340.67	0.008293
1350.32	0.007693
1359.96	0.008093
1369.61	0.008583
1379.25	0.011943
1388.9	0.014953
1398.54	0.011753
1408.18	0.011443
1417.83	0.015123
1427.47	0.018623
1437.12	0.019163
1446.76	0.018713
1456.41	0.018743
1466.05	0.018593
1475.7	0.017743
1485.34	0.017113
1494.99	0.016393
1504.63	0.015843
1514.28	0.015673
1523.92	0.015843
1533.57	0.015013
1543.21	0.015393
1552.86	0.017093
1562.5	0.018673
1572.15	0.018903
1581.79	0.016903
1591.44	0.019243
1601.08	0.040353
1610.73	0.062103
1620.37	0.025313
1630.01	0.006363
1639.66	0.004543
1649.3	0.004353
1658.95	0.004193
1668.59	0.004493
1678.24	0.005073
1687.88	0.006713
1697.53	0.009343
1707.17	0.012193
1716.82	0.019393
1726.46	0.041473
1736.11	0.106353
1745.75	0.167643
1755.4	0.080613
1765.04	0.022163
1774.69	0.010883
1784.33	0.009893
1793.98	0.009593
1803.62	0.007523
1813.27	0.005243
1822.91	0.004303
1832.55	0.003063
1842.2	0.002173
1851.84	0.002263
1861.49	0.002183
1871.13	0.002623
1880.78	0.002703
1890.42	0.002803
1900.07	0.002903
1909.71	0.002533
1919.36	0.002403
1929	0.002493
1938.65	0.002523
1948.29	0.002493
1957.94	0.002033
1967.58	0.0015522
1977.23	0.0014654
1986.87	0.0012395
1996.52	0.0013636
2006.16	0.0012693
2015.81	0.0013225
2025.45	0.0012809
2035.1	0.0014715
2044.74	0.0012765
2054.38	0.0014277
2064.03	0.0011458
2073.67	0.0013364
2083.32	0.001355
2092.96	0.0010612
2102.61	0.0014645
2112.25	0.001332
2121.9	0.00167
2131.54	0.0015586
2141.19	0.0015369
2150.83	0.0012235
2160.48	0.0013271
2170.12	0.0015676
2179.77	0.0017875
2189.41	0.0015826
2199.06	0.0013774
2208.7	0.0013488
2218.35	0.001455
2227.99	0.0014079
2237.64	0.0015328
2247.28	0.0013508
2256.92	0.001218
2266.57	0.0014731
2276.21	0.0012544
2285.86	0.0018755
2295.5	0.002023
2305.15	0.0018612
2314.79	0.001953
2324.44	0.002033
2334.08	0.002113
2343.73	0.002533
2353.37	0.002073
2363.02	0.002433
2372.66	0.002123
2382.31	0.002223
2391.95	0.002283
2401.6	0.002473
2411.24	0.002533
2420.89	0.002643
2430.53	0.002403
2440.18	0.002213
2449.82	0.002493
2459.47	0.002183
2469.11	0.002373
2478.75	0.002073
2488.4	0.002083
2498.04	0.002053
2507.69	0.0019327
2517.33	0.0017791
2526.98	0.0015225
2536.62	0.0012387
2546.27	0.00099475
2555.91	0.0010637
2565.56	0.0012035
2575.2	0.0012557
2584.85	0.0010799
2594.49	0.00097711
2604.14	0.0010681
2613.78	0.0014519
2623.43	0.0014945
2633.07	0.0011148
2642.72	0.0014662
2652.36	0.0012179
2662.01	0.0012823
2671.65	0.00159
2681.29	0.0016004
2690.94	0.0013575
2700.58	0.00168
2710.23	0.0016229
2719.87	0.0017596
2729.52	0.002103
2739.16	0.003383
2748.81	0.003503
2758.45	0.003433
2768.1	0.002553
2777.74	0.002153
2787.39	0.002263
2797.03	0.002763
2806.68	0.002883
2816.32	0.003003
2825.97	0.003713
2835.61	0.005013
2845.26	0.006903
2854.9	0.010613
2864.55	0.017453
2874.19	0.022663
2883.84	0.021983
2893.48	0.020173
2903.12	0.020823
2912.77	0.024723
2922.41	0.036233
2932.06	0.050513
2941.7	0.048923
2951.35	0.035553
2960.99	0.026503
2970.64	0.023953
2980.28	0.024493
2989.93	0.026763
2999.57	0.028133
3009.22	0.029763
3018.86	0.032863
3028.51	0.033073
3038.15	0.029073
3047.8	0.024813
3057.44	0.017033
3067.09	0.011763
3076.73	0.008693
3086.38	0.006923
3096.02	0.005803
3105.67	0.004223
3115.31	0.003303
3124.95	0.003113
3134.6	0.002763
3144.24	0.002253
3153.89	0.0013457
3163.53	0.0018586
3173.18	0.0014383
3182.82	0.0016799
3192.47	0.0014019
3202.11	0.0014513
3211.76	0.0016426
3221.4	0.000738
3231.05	0.0009132
3240.69	0.0013494
3250.34	0.00099215
3259.98	0.0012773
3269.63	0.0008899
3279.27	0.0012943
3288.92	0.0008541
3298.56	0.0008772
3308.21	0.000631
3317.85	0.000461
3327.49	0.000683
3337.14	0.0010884
3346.78	0.0013196
3356.43	0.00095529
3366.07	0.0012728
3375.72	0.00097877
3385.36	0.0012594
3395.01	0.000802
3404.65	0.0011687
3414.3	0.0012858
3423.94	0.000697
3433.59	0.0010871
3443.23	0.0011168
3452.88	0.002263
3462.52	0.003043
3472.17	0.003063
3481.81	0.002143
3491.46	0.0016724
3501.1	0.00101963
3510.75	0.000811
3520.39	0.000377
3530.04	0.000713
3539.68	0.000515
3549.32	0.00102744
3558.97	0.0013674
3568.61	0.00103176
3578.26	0.001447
3587.9	0.000729
3597.55	0.000672
3607.19	0.0012151
3616.84	0.0013436
3626.48	0.000738
3636.13	0.000411
3645.77	0.000433
3655.42	0.000713
3665.06	0.000685
3674.71	0.000537
3684.35	0.000321
3694	0.00100358
3703.64	0.000573
3713.29	0.0009499
3722.93	0.000138
3732.58	0.000517
3742.22	0.0010298
3751.86	0.00101172
3761.51	0.000591
3771.15	0.000717
3780.8	0.00098491
3790.44	0.0012528
3800.09	0.000108
3809.73	0.000514
3819.38	0.000598
3829.02	0.000352
3838.67	0.000941102
3848.31	0.000798
3857.96	0.0008988
3867.6	0.000755
3877.25	0.0013103
3886.89	0.000695
3896.54	0.000572
3906.18	0.000731
3915.83	0.0015266
3925.47	0.00099363
3935.12	0.0015749
3944.76	0.0013932
3954.41	0.0012399
3964.05	0.00100731
3973.69	0.0012049
3983.34	0.0017204
3992.98	0.0011201
