Infrared Spectrum: 2-Ethylbenzofuran
Formula: C 10 H 10 O
CAS: 3131-63-3
State: gas
Origin: EPA-IR VAPOR PHASE LIBRARY
1/CM	ABSORBANCE
549.8	0.0010118
559.445	0.0005127
569.09	0.0007982
578.734	0.0006454
588.379	0.001158
598.024	0.002308
607.669	0.004758
617.313	0.005068
626.958	0.003308
636.603	0.003568
646.248	0.003128
655.893	0.002588
665.537	0.003168
675.182	0.004368
684.827	0.004408
694.472	0.003138
704.116	0.003518
713.761	0.008628
723.406	0.028068
733.051	0.058258
742.695	0.067338
752.34	0.052258
761.985	0.025878
771.63	0.016998
781.275	0.025318
790.919	0.035508
800.564	0.037348
810.209	0.028288
819.854	0.013408
829.498	0.004998
839.143	0.003528
848.788	0.003298
858.433	0.003748
868.078	0.005798
877.722	0.012168
887.367	0.013138
897.012	0.005318
906.657	0.004418
916.301	0.009558
925.946	0.017738
935.591	0.017348
945.236	0.010808
954.88	0.008708
964.525	0.012668
974.17	0.015798
983.815	0.013978
993.46	0.011138
1003.1	0.015808
1012.75	0.013678
1022.39	0.005258
1032.04	0.002898
1041.68	0.004998
1051.33	0.009728
1060.97	0.010358
1070.62	0.006578
1080.26	0.004188
1089.91	0.003618
1099.55	0.010188
1109.2	0.011448
1118.84	0.006738
1128.49	0.007548
1138.13	0.008978
1147.78	0.010008
1157.42	0.015868
1167.07	0.033438
1176.71	0.048698
1186.36	0.038188
1196	0.017358
1205.64	0.007418
1215.29	0.006458
1224.93	0.012458
1234.58	0.027928
1244.22	0.067538
1253.87	0.092408
1263.51	0.048538
1273.16	0.016668
1282.8	0.010528
1292.45	0.009758
1302.09	0.014838
1311.74	0.021418
1321.38	0.019918
1331.03	0.012318
1340.67	0.009458
1350.32	0.008198
1359.96	0.007078
1369.61	0.006028
1379.25	0.005418
1388.9	0.005218
1398.54	0.005178
1408.18	0.008078
1417.83	0.009638
1427.47	0.009948
1437.12	0.019828
1446.76	0.056848
1456.41	0.083058
1466.05	0.052458
1475.7	0.021528
1485.34	0.010608
1494.99	0.005998
1504.63	0.004228
1514.28	0.003648
1523.92	0.003638
1533.57	0.003408
1543.21	0.003148
1552.86	0.004008
1562.5	0.006988
1572.15	0.014528
1581.79	0.026808
1591.44	0.032138
1601.08	0.024348
1610.73	0.014618
1620.37	0.005978
1630.01	0.003228
1639.66	0.002748
1649.3	0.003578
1658.95	0.004188
1668.59	0.002938
1678.24	0.001808
1687.88	0.001918
1697.53	0.001818
1707.17	0.001688
1716.82	0.001358
1726.46	0.0010977
1736.11	0.001388
1745.75	0.002278
1755.4	0.003688
1765.04	0.004228
1774.69	0.003348
1784.33	0.001768
1793.98	0.001908
1803.62	0.002568
1813.27	0.001788
1822.91	0.0008216
1832.55	0.001378
1842.2	0.002248
1851.84	0.002198
1861.49	0.002068
1871.13	0.002908
1880.78	0.003448
1890.42	0.002808
1900.07	0.001698
1909.71	0.002648
1919.36	0.004248
1929	0.002638
1938.65	0.0008663
1948.29	0.0008453
1957.94	0.0007817
1967.58	0.0007373
1977.23	0.0007607
1986.87	0.0008945
1996.52	0.0006981
2006.16	0.000502
2015.81	0.0006693
2025.45	0.0006752
2035.1	0.0007902
2044.74	0.0008868
2054.38	0.0010982
2064.03	0.001148
2073.67	0.0008328
2083.32	0.0006856
2092.96	0.0007592
2102.61	0.0007829
2112.25	0.0008973
2121.9	0.0009443
2131.54	0.0009438
2141.19	0.0007199
2150.83	0.000617
2160.48	0.0006043
2170.12	0.0005032
2179.77	0.0005467
2189.41	0.0005883
2199.06	0.0005892
2208.7	0.0008289
2218.35	0.0008306
2227.99	0.0008319
2237.64	0.0008514
2247.28	0.0010923
2256.92	0.001158
2266.57	0.001328
2276.21	0.001118
2285.86	0.0010731
2295.5	0.0010347
2305.15	0.0009568
2314.79	0.0008197
2324.44	0.0009022
2334.08	0.0009687
2343.73	0.0009942
2353.37	0.0009739
2363.02	0.0008858
2372.66	0.0006887
2382.31	0.0006574
2391.95	0.0005856
2401.6	0.0006871
2411.24	0.0007689
2420.89	0.0008226
2430.53	0.0009868
2440.18	0.0010274
2449.82	0.0009929
2459.47	0.0010954
2469.11	0.001188
2478.75	0.001388
2488.4	0.001558
2498.04	0.001558
2507.69	0.001128
2517.33	0.0010457
2526.98	0.0009246
2536.62	0.0010001
2546.27	0.0009543
2555.91	0.000948
2565.56	0.0010914
2575.2	0.001148
2584.85	0.0010768
2594.49	0.0010007
2604.14	0.0009847
2613.78	0.0008694
2623.43	0.0010004
2633.07	0.0010323
2642.72	0.001208
2652.36	0.001348
2662.01	0.001318
2671.65	0.001348
2681.29	0.001318
2690.94	0.001198
2700.58	0.001208
2710.23	0.001218
2719.87	0.001298
2729.52	0.001138
2739.16	0.001308
2748.81	0.001538
2758.45	0.001598
2768.1	0.001588
2777.74	0.001808
2787.39	0.001898
2797.03	0.002258
2806.68	0.002458
2816.32	0.002628
2825.97	0.003008
2835.61	0.003828
2845.26	0.005428
2854.9	0.008488
2864.55	0.010918
2874.19	0.011888
2883.84	0.015948
2893.48	0.020498
2903.12	0.020938
2912.77	0.020748
2922.41	0.024098
2932.06	0.028748
2941.7	0.035578
2951.35	0.038808
2960.99	0.031568
2970.64	0.036738
2980.28	0.062078
2989.93	0.051968
2999.57	0.021968
3009.22	0.011708
3018.86	0.010128
3028.51	0.012888
3038.15	0.016868
3047.8	0.021578
3057.44	0.025508
3067.09	0.031728
3076.73	0.034668
3086.38	0.025848
3096.02	0.017148
3105.67	0.011988
3115.31	0.009448
3124.95	0.005588
3134.6	0.002328
3144.24	0.001838
3153.89	0.001978
3163.53	0.001788
3173.18	0.001818
3182.82	0.001428
3192.47	0.001298
3202.11	0.001298
3211.76	0.001248
3221.4	0.0010044
3231.05	0.0008097
3240.69	0.0005932
3250.34	0.0003248
3259.98	0.0003866
3269.63	6.25e-05
3279.27	0.000297
3288.92	0.0003721
3298.56	0.0003988
3308.21	0.0003212
3317.85	0.0004519
3327.49	0.0002752
3337.14	0.0004984
3346.78	0.000115533
3356.43	0.00017547
3366.07	0.0002765
3375.72	0.00012305
3385.36	0.0002515
3395.01	0.0001867
3404.65	0.0002842
3414.3	0.0004166
3423.94	0.00017141
3433.59	0.0001888
3443.23	0.00020603
3452.88	7.4e-05
3462.52	0.0005273
3472.17	0.00017318
3481.81	0.00017682
3491.46	0.0003964
3501.1	0.0002105
3510.75	0.000147
3520.39	0.0002667
3530.04	0.0002754
3539.68	0.0002268
3549.32	0.0002754
3558.97	0.0002418
3568.61	0.00013418
3578.26	0.0002817
3587.9	0.0004059
3597.55	0.0002864
3607.19	0.000356
3616.84	0.0003566
3626.48	0.0003595
3636.13	0.0004087
3645.77	0.0003868
3655.42	0.0004776
3665.06	0.0002741
3674.71	0.0004215
3684.35	0.0004973
3694	0.0004301
3703.64	0.0005854
3713.29	0.0004995
3722.93	0.0004651
3732.58	0.0003505
3742.22	0.0004458
3751.86	0.0004522
3761.51	0.0005478
3771.15	0.0005361
3780.8	0.0003849
3790.44	0.0004461
3800.09	0.000323
3809.73	0.0004867
3819.38	0.0002496
3829.02	0.0004991
3838.67	0.0002974
3848.31	0.0004618
3857.96	0.0003584
3867.6	0.0004112
3877.25	0.0003133
3886.89	0.0005494
3896.54	0.0006885
3906.18	0.0007572
3915.83	0.0009813
3925.47	0.0008906
3935.12	0.0010078
3944.76	0.001338
3954.41	0.001388
3964.05	0.001158
3973.69	0.0010008
3983.34	0.0006061
3992.98	0.000731
