Infrared Spectrum: 4(2-FUROYL)MORPHOLINE
Formula: C9 H11 N O3
CAS: 31330-59-3
State: SOLUTION (10% CCl4 FOR 5000-1330, 10% CS2 FOR 1330-625 CM^-^1)
Class: COBLENTZ
Instrument: Not specified, most likely a prism, grating, or hybrid spectrometer.
Sampling: TRANSMISSION
Path length: 0.0120 CM, 0.0116 CM
Resolution: 4
Origin: DOW CHEMICAL COMPANY
MICROMETERS	TRANSMITTANCE
2.053	0.894
2.0931	0.897
2.13319	0.897
2.17329	0.892
2.21338	0.881
2.25348	0.877
2.29357	0.877
2.33367	0.876
2.37376	0.881
2.41386	0.881
2.45396	0.876
2.49405	0.876
2.53415	0.886
2.57424	0.889
2.61434	0.903
2.65443	0.899
2.69453	0.901
2.73463	0.899
2.77472	0.897
2.81482	0.891
2.85491	0.879
2.89501	0.877
2.9351	0.877
2.9752	0.877
3.01529	0.871
3.05539	0.847
3.09549	0.849
3.13558	0.854
3.17568	0.811
3.21577	0.834
3.25587	0.854
3.29596	0.814
3.33606	0.658
3.37616	0.456
3.41625	0.53
3.45635	0.451
3.49644	0.372
3.53654	0.77
3.57663	0.847
3.61673	0.824
3.65682	0.836
3.69692	0.842
3.73702	0.857
3.77711	0.876
3.81721	0.891
3.8573	0.887
3.8974	0.879
3.93749	0.901
3.97759	0.901
4.01769	0.892
4.05778	0.889
4.09788	0.897
4.13797	0.896
4.17807	0.879
4.21816	0.881
4.25826	0.896
4.29835	0.894
4.33845	0.877
4.37855	0.882
4.41864	0.899
4.45874	0.897
4.49883	0.901
4.53893	0.908
4.57902	0.911
4.61912	0.911
4.65921	0.906
4.69931	0.899
4.73941	0.896
4.7795	0.889
4.8196	0.889
4.85969	0.901
4.89979	0.899
4.93988	0.908
4.97998	0.903
5.02008	0.889
5.06017	0.897
5.10027	0.897
5.14036	0.887
5.18046	0.901
5.22055	0.906
5.26065	0.906
5.30074	0.894
5.34084	0.894
5.38094	0.897
5.42103	0.897
5.46113	0.901
5.50122	0.899
5.54132	0.889
5.58141	0.887
5.62151	0.869
5.66161	0.847
5.7017	0.829
5.7418	0.827
5.78189	0.811
5.82199	0.792
5.86208	0.764
5.90218	0.722
5.94227	0.657
5.98237	0.54
6.02247	0.282
6.06256	0.112
6.10266	0.028
6.14275	0.028
6.18285	0.09
6.22294	0.322
6.26304	0.369
6.30314	0.209
6.34323	0.187
6.38333	0.312
6.42342	0.389
6.46352	0.436
6.50361	0.5
6.54371	0.548
6.5838	0.571
6.6239	0.573
6.664	0.404
6.70409	0.15
6.74419	0.198
6.78428	0.459
6.82438	0.474
6.86447	0.304
6.90457	0.2
6.94466	0.115
6.98476	0.033
7.02486	0.05
7.06495	0.18
7.10505	0.367
7.14514	0.516
7.18524	0.598
7.22533	0.605
7.26543	0.652
7.30553	0.591
7.34562	0.528
7.38572	0.727
7.42581	0.77
7.46591	0.747
7.506	0.688
7.5461	0.74
7.58619	0.757
7.62629	0.658
7.66639	0.382
7.70648	0.269
7.74658	0.347
7.78667	0.086
7.82677	0.093
7.86686	0.167
7.90696	0.081
7.94706	0.138
7.98715	0.471
8.02725	0.682
8.06734	0.717
8.10744	0.6
8.14753	0.411
8.18763	0.494
8.22772	0.665
8.26782	0.749
8.30792	0.745
8.34801	0.653
8.38811	0.51
8.4282	0.224
8.4683	0.1
8.50839	0.381
8.54849	0.675
8.58859	0.754
8.62868	0.779
8.66878	0.755
8.70887	0.65
8.74897	0.593
8.78906	0.637
8.82916	0.628
8.86925	0.471
8.90935	0.172
8.94945	0.033
8.98954	0.065
9.02964	0.197
9.06973	0.476
9.10983	0.68
9.14992	0.742
9.19002	0.759
9.23011	0.725
9.27021	0.605
9.31031	0.454
9.3504	0.441
9.3905	0.468
9.43059	0.578
9.47069	0.74
9.51078	0.775
9.55088	0.785
9.59098	0.772
9.63107	0.698
9.67117	0.543
9.71126	0.302
9.75136	0.063
9.79145	0.056
9.83155	0.14
9.87164	0.165
9.91174	0.188
9.95184	0.397
9.99193	0.685
10.032	0.779
10.0721	0.821
10.1122	0.842
10.1523	0.859
10.1924	0.866
10.2325	0.874
10.2726	0.874
10.3127	0.871
10.3528	0.861
10.3929	0.844
10.433	0.807
10.4731	0.77
10.5132	0.653
10.5533	0.429
10.5934	0.197
10.6335	0.27
10.6736	0.526
10.7137	0.66
10.7537	0.653
10.7938	0.525
10.8339	0.411
10.874	0.491
10.9141	0.724
10.9542	0.811
10.9943	0.841
11.0344	0.856
11.0745	0.859
11.1146	0.857
11.1547	0.841
11.1948	0.802
11.2349	0.724
11.275	0.535
11.3151	0.464
11.3552	0.657
11.3953	0.665
11.4354	0.657
11.4755	0.65
11.5156	0.655
11.5557	0.66
11.5958	0.67
11.6359	0.68
11.6759	0.682
11.716	0.682
11.7561	0.678
11.7962	0.657
11.8363	0.63
11.8764	0.593
11.9165	0.459
11.9566	0.259
11.9967	0.239
12.0368	0.354
12.0769	0.436
12.117	0.505
12.1571	0.618
12.1972	0.687
12.2373	0.749
12.2774	0.787
12.3175	0.802
12.3576	0.814
12.3977	0.824
12.4378	0.827
12.4779	0.827
12.518	0.829
12.5581	0.831
12.5981	0.831
12.6382	0.822
12.6783	0.817
12.7184	0.809
12.7585	0.804
12.7986	0.795
12.8387	0.785
12.8788	0.767
12.9189	0.74
12.959	0.7
12.9991	0.653
13.0392	0.602
13.0793	0.55
13.1194	0.478
13.1595	0.409
13.1996	0.337
13.2397	0.2
13.2798	0.105
13.3199	0.028
13.36	0.005
13.4001	0.008
13.4402	0.075
13.4803	0.168
13.5203	0.279
13.5604	0.371
13.6005	0.469
13.6406	0.553
13.6807	0.62
13.7208	0.658
13.7609	0.68
13.801	0.698
13.8411	0.709
13.8812	0.717
13.9213	0.722
13.9614	0.727
14.0015	0.73
14.0416	0.73
14.0817	0.727
14.1218	0.725
14.1619	0.717
14.202	0.715
14.2421	0.707
14.2822	0.698
14.3223	0.688
14.3624	0.678
14.4024	0.668
14.4425	0.653
14.4826	0.637
14.5227	0.617
14.5628	0.6
14.6029	0.588
14.643	0.576
14.6831	0.566
14.7232	0.55
14.7633	0.541
14.8034	0.525
14.8435	0.515
14.8836	0.505
14.9237	0.498
14.9638	0.498
15.0039	0.498
15.044	0.496
15.0841	0.493
15.1242	0.488
15.1643	0.484
15.2044	0.479
15.2445	0.471
15.2846	0.461
15.3246	0.454
15.3647	0.451
15.4048	0.448
15.4449	0.443
15.485	0.436
15.5251	0.431
15.5652	0.428
15.6053	0.424
15.6454	0.421
15.6855	0.419
15.7256	0.419
15.7657	0.419
15.8058	0.416
15.8459	0.414
15.886	0.414
