Infrared Spectrum: 3-Nonyn-1-ol
Formula: C 9 H 16 O
CAS: 31333-13-8
State: gas
Instrument: HP-GC/MS/IRD
Origin: NIST Mass Spectrometry Data Center
1/CM	ABSORBANCE
550	0.0011412
562	0.0005364
574	0.0002592
586	0.0002304
598	0.000216
610	0.000234
622	0.0001296
634	7.2e-05
646	9e-05
658	6.48e-05
670	5.4e-05
682	9.72e-05
694	0.0001476
706	0.000216
718	0.0003276
730	0.0004428
742	0.0003888
754	0.0002736
766	0.0002376
778	0.0001764
790	0.0001368
802	0.000144
814	0.0001476
826	0.0004212
838	0.0007056
850	0.000864
862	0.0007236
874	0.0005076
886	0.00045
898	0.0005148
910	0.000558
922	0.0005904
934	0.0006912
946	0.0007524
958	0.0008388
970	0.0010656
982	0.0014904
994	0.0021564
1006	0.0030348
1018	0.0046512
1030	0.0089856
1042	0.0154008
1054	0.0132732
1066	0.0085788
1078	0.0046908
1090	0.0023148
1102	0.0014832
1114	0.0011232
1126	0.0008964
1138	0.0009396
1150	0.0009252
1162	0.00099
1174	0.0013356
1186	0.0017856
1198	0.0018396
1210	0.001674
1222	0.0014616
1234	0.0013032
1246	0.001134
1258	0.0010656
1270	0.0013212
1282	0.0017964
1294	0.0019836
1306	0.0021636
1318	0.0030744
1330	0.0048096
1342	0.004248
1354	0.0032436
1366	0.0031248
1378	0.003816
1390	0.0041184
1402	0.003222
1414	0.0024444
1426	0.002574
1438	0.0034416
1450	0.0033516
1462	0.003258
1474	0.0025416
1486	0.0014328
1498	0.0008352
1510	0.0005256
1522	0.000378
1534	0.0002808
1546	0.0002016
1558	0.0001332
1570	0.0001368
1582	0.0001044
1594	0.0001152
1606	9e-05
1618	6.84e-05
1630	1.8e-05
1642	5.04e-05
1654	3.6e-06
1666	3.6e-05
1678	1.08e-05
1690	2.52e-05
1702	7.2e-06
1714	1.44e-05
1726	3.96e-05
1738	1.08e-05
1750	3.6e-06
1762	1.44e-05
1774	0
1786	2.52e-05
1798	3.6e-06
1810	2.16e-05
1822	4.32e-05
1834	5.4e-05
1846	4.68e-05
1858	4.68e-05
1870	6.12e-05
1882	9.36e-05
1894	0.000108
1906	0.0001224
1918	7.92e-05
1930	5.4e-05
1942	7.2e-05
1954	5.76e-05
1966	6.48e-05
1978	4.68e-05
1990	4.68e-05
2002	6.12e-05
2014	0.0001008
2026	9.72e-05
2038	0.0001368
2050	0.0001656
2062	0.0001872
2074	0.0002196
2086	0.0001836
2098	0.0001728
2110	0.0001548
2122	0.0001332
2134	9.72e-05
2146	6.84e-05
2158	8.28e-05
2170	7.92e-05
2182	7.92e-05
2194	0.0001008
2206	9.36e-05
2218	0.0001296
2230	0.0001224
2242	9.72e-05
2254	0.0001224
2266	9.36e-05
2278	0.0001296
2290	0.000108
2302	6.48e-05
2314	3.96e-05
2326	7.2e-06
2338	0
2350	3.6e-05
2362	0
2374	4.68e-05
2386	0.0001224
2398	0.0001008
2410	0.0001512
2422	0.0001476
2434	0.0001476
2446	0.0001224
2458	0.000126
2470	0.0001188
2482	0.000108
2494	9.36e-05
2506	0.000144
2518	0.0001296
2530	0.0001836
2542	0.0001404
2554	0.0001656
2566	0.000198
2578	0.0002016
2590	0.0001728
2602	0.000198
2614	0.0002376
2626	0.000306
2638	0.0003744
2650	0.0004392
2662	0.0005148
2674	0.0004896
2686	0.0004788
2698	0.0004716
2710	0.0004824
2722	0.0005796
2734	0.0006804
2746	0.0007668
2758	0.00081
2770	0.0008604
2782	0.0009684
2794	0.0012024
2806	0.0014544
2818	0.0019512
2830	0.00288
2842	0.0047628
2854	0.0080964
2866	0.0122148
2878	0.0143532
2890	0.0141048
2902	0.013608
2914	0.0187416
2926	0.028044
2938	0.036
2950	0.0294336
2962	0.0237636
2974	0.0194868
2986	0.0084816
2998	0.0040716
3010	0.0025488
3022	0.0018072
3034	0.0013284
3046	0.0010116
3058	0.0008136
3070	0.0006948
3082	0.0005796
3094	0.0005004
3106	0.0004248
3118	0.0004104
3130	0.0003456
3142	0.000306
3154	0.000216
3166	0.000234
3178	0.0001908
3190	0.0002052
3202	0.0001512
3214	0.0001512
3226	0.0001152
3238	8.64e-05
3250	6.84e-05
3262	9e-05
3274	0.0001116
3286	0.000144
3298	8.28e-05
3310	0.0001188
3322	0.0001332
3334	0.000108
3346	4.32e-05
3358	0.0001332
3370	7.92e-05
3382	8.64e-05
3394	8.28e-05
3406	9e-05
3418	9.72e-05
3430	0.0001332
3442	0.0001224
3454	9e-05
3466	0.0001224
3478	6.48e-05
3490	0.0001188
3502	0.0001188
3514	0.0001332
3526	0.0001692
3538	0.0002448
3550	0.0002808
3562	0.0002808
3574	0.0003384
3586	0.0003672
3598	0.00081
3610	0.0026208
3622	0.0024012
3634	0.0010764
3646	0.0009072
3658	0.0015048
3670	0.0018144
3682	0.0011988
3694	0.0005436
3706	0.000378
3718	0.00027
3730	0.0001944
3742	0.0001188
3754	7.56e-05
3766	0.0001008
3778	9.72e-05
3790	6.84e-05
3802	9.72e-05
3814	9e-05
3826	6.48e-05
3838	4.68e-05
