Infrared Spectrum: 1-PHENYLCARBAMOYL-2,3-PHTHALOYLPYRROCOLINE
Formula: C23 H14 N2 O3
CAS: 3135-54-4
State: SOLID (KBr PRESSING)
Melting point: 265 C
Class: COBLENTZ
Instrument: Not specified, most likely a prism, grating, or hybrid spectrometer.
Sampling: TRANSMISSION
Resolution: 4
Origin: EASTMAN KODAK COMPANY, RESEARCH LABORATORIES, ROCHESTER, N.Y.
MICROMETERS	TRANSMITTANCE
2.02	0.522
2.05985	0.521
2.0997	0.526
2.13955	0.532
2.17939	0.539
2.21924	0.54
2.25909	0.545
2.29894	0.549
2.33879	0.552
2.37864	0.557
2.41849	0.562
2.45833	0.559
2.49818	0.572
2.53803	0.568
2.57788	0.588
2.61773	0.595
2.65758	0.604
2.69743	0.609
2.73727	0.59
2.77712	0.537
2.81697	0.462
2.85682	0.427
2.89667	0.398
2.93652	0.411
2.97637	0.468
3.01621	0.486
3.05606	0.49
3.09591	0.526
3.13576	0.521
3.17561	0.516
3.21546	0.48
3.25531	0.429
3.29516	0.421
3.335	0.531
3.37485	0.57
3.4147	0.577
3.45455	0.606
3.4944	0.613
3.53425	0.64
3.5741	0.65
3.61394	0.659
3.65379	0.66
3.69364	0.667
3.73349	0.667
3.77334	0.672
3.81319	0.683
3.85304	0.685
3.89288	0.69
3.93273	0.693
3.97258	0.696
4.01243	0.698
4.05228	0.7
4.09213	0.704
4.13198	0.708
4.17182	0.716
4.21167	0.724
4.25152	0.729
4.29137	0.736
4.33122	0.736
4.37107	0.737
4.41092	0.739
4.45076	0.747
4.49061	0.75
4.53046	0.754
4.57031	0.754
4.61016	0.757
4.65001	0.757
4.68986	0.757
4.7297	0.759
4.76955	0.76
4.8094	0.763
4.84925	0.763
4.8891	0.767
4.92895	0.765
4.9688	0.772
5.00864	0.773
5.04849	0.768
5.08834	0.765
5.12819	0.767
5.16804	0.777
5.20789	0.783
5.24774	0.791
5.28759	0.788
5.32743	0.79
5.36728	0.798
5.40713	0.801
5.44698	0.804
5.48683	0.804
5.52668	0.798
5.56653	0.798
5.60637	0.803
5.64622	0.806
5.68607	0.806
5.72592	0.791
5.76577	0.775
5.80562	0.768
5.84547	0.768
5.88531	0.763
5.92516	0.742
5.96501	0.618
6.00486	0.326
6.04471	0.347
6.08456	0.154
6.12441	0.152
6.16425	0.211
6.2041	0.359
6.24395	0.298
6.2838	0.25
6.32365	0.349
6.3635	0.45
6.40335	0.28
6.44319	0.378
6.48304	0.498
6.52289	0.539
6.56274	0.549
6.60259	0.627
6.64244	0.577
6.68229	0.2
6.72213	0.159
6.76198	0.227
6.80183	0.329
6.84168	0.419
6.88153	0.329
6.92138	0.403
6.96123	0.608
7.00107	0.678
7.04092	0.667
7.08077	0.652
7.12062	0.696
7.16047	0.691
7.20032	0.472
7.24017	0.488
7.28002	0.667
7.31986	0.668
7.35971	0.518
7.39956	0.693
7.43941	0.757
7.47926	0.752
7.51911	0.698
7.55896	0.578
7.5988	0.408
7.63865	0.36
7.6785	0.421
7.71835	0.498
7.7582	0.678
7.79805	0.719
7.8379	0.688
7.87774	0.668
7.91759	0.477
7.95744	0.488
7.99729	0.565
8.03714	0.64
8.07699	0.431
8.11684	0.249
8.15668	0.127
8.19653	0.295
8.23638	0.627
8.27623	0.65
8.31608	0.662
8.35593	0.721
8.39578	0.773
8.43562	0.796
8.47547	0.767
8.51532	0.76
8.55517	0.762
8.59502	0.583
8.63487	0.496
8.67472	0.613
8.71456	0.737
8.75441	0.79
8.79426	0.808
8.83411	0.79
8.87396	0.759
8.91381	0.7
8.95366	0.75
8.9935	0.808
9.03335	0.824
9.0732	0.826
9.11305	0.839
9.1529	0.834
9.19275	0.809
9.2326	0.808
9.27245	0.749
9.31229	0.759
9.35214	0.8
9.39199	0.749
9.43184	0.59
9.47169	0.657
9.51154	0.786
9.55139	0.839
9.59123	0.849
9.63108	0.86
9.67093	0.859
9.71078	0.778
9.75063	0.64
9.79048	0.75
9.83033	0.8
9.87017	0.829
9.91002	0.854
9.94987	0.868
9.98972	0.873
10.0296	0.85
10.0694	0.86
10.1093	0.865
10.1491	0.863
10.189	0.855
10.2288	0.775
10.2687	0.659
10.3085	0.714
10.3484	0.818
10.3882	0.849
10.4281	0.862
10.4679	0.87
10.5078	0.881
10.5476	0.888
10.5874	0.891
10.6273	0.898
10.6671	0.906
10.707	0.913
10.7468	0.922
10.7867	0.929
10.8265	0.931
10.8664	0.936
10.9062	0.936
10.9461	0.931
10.9859	0.929
11.0258	0.909
11.0656	0.872
11.1055	0.84
11.1453	0.834
11.1852	0.863
11.225	0.89
11.2649	0.919
11.3047	0.909
11.3446	0.862
11.3844	0.87
11.4243	0.901
11.4641	0.921
11.504	0.919
11.5438	0.919
11.5837	0.909
11.6235	0.893
11.6634	0.85
11.7032	0.822
11.7431	0.831
11.7829	0.849
11.8228	0.862
11.8626	0.873
11.9025	0.883
11.9423	0.89
11.9821	0.893
12.022	0.908
12.0618	0.918
12.1017	0.926
12.1415	0.927
12.1814	0.932
12.2212	0.931
12.2611	0.922
12.3009	0.9
12.3408	0.89
12.3806	0.9
12.4205	0.893
12.4603	0.873
12.5002	0.826
12.54	0.821
12.5799	0.821
12.6197	0.818
12.6596	0.811
12.6994	0.801
12.7393	0.76
12.7791	0.681
12.819	0.606
12.8588	0.559
12.8987	0.557
12.9385	0.568
12.9784	0.557
13.0182	0.529
13.0581	0.508
13.0979	0.481
13.1378	0.439
13.1776	0.418
13.2175	0.388
13.2573	0.365
13.2972	0.367
13.337	0.4
13.3769	0.462
13.4167	0.583
13.4565	0.703
13.4964	0.781
13.5362	0.822
13.5761	0.852
13.6159	0.862
13.6558	0.867
13.6956	0.857
13.7355	0.818
13.7753	0.778
13.8152	0.775
13.855	0.783
13.8949	0.719
13.9347	0.542
13.9746	0.406
14.0144	0.414
14.0543	0.44
14.0941	0.559
14.134	0.704
14.1738	0.795
14.2137	0.816
14.2535	0.816
14.2934	0.801
14.3332	0.767
14.3731	0.709
14.4129	0.649
14.4528	0.631
14.4926	0.634
14.5325	0.659
14.5723	0.729
14.6122	0.798
14.652	0.847
14.6919	0.868
14.7317	0.891
14.7716	0.898
14.8114	0.903
14.8512	0.901
14.8911	0.903
14.9309	0.896
14.9708	0.857
15.0106	0.829
15.0505	0.816
15.0903	0.822
15.1302	0.85
15.17	0.878
15.2099	0.885
15.2497	0.883
15.2896	0.877
15.3294	0.87
15.3693	0.86
15.4091	0.832
15.449	0.8
15.4888	0.759
15.5287	0.747
15.5685	0.754
15.6084	0.767
15.6482	0.781
15.6881	0.796
15.7279	0.8
15.7678	0.801
15.8076	0.801
15.8475	0.8
15.8873	0.796
15.9272	0.798
15.967	0.795
16.0069	0.791
