Infrared Spectrum: Formamide, N-2-pyrimidinyl-
Formula: C5 H5 N3 O
CAS: 31354-57-1
State: SOLID (SPLIT MULL), FLUOROLUBE FOR 3800-1330 CM^-^1, NUJOL FOR 1330-400 CM^-^1
Class: COBLENTZ III
Instrument: BECKMAN IR-9 (GRATING)
Instrument parameters: ORDER CHANGES: 670, 1200, 2000 CM^-^1
Sampling: TRANSMISSION
Resolution: 2
Origin: DOW CHEMICAL COMPANY
1/CM	TRANSMITTANCE
400	0.6361
409	0.6246
418	0.6147
427	0.6013
436	0.5857
445	0.6343
454	0.6712
463	0.701
472	0.7188
481	0.7191
490	0.7079
499	0.5323
508	0.1954
517	0.475
526	0.6421
535	0.7693
544	0.7914
553	0.7993
562	0.8049
571	0.8087
580	0.8106
589	0.8117
598	0.8121
607	0.8126
616	0.811
625	0.8072
634	0.7758
643	0.6672
652	0.8029
661	0.8191
670	0.8243
679	0.8265
688	0.8259
697	0.8173
706	0.741
715	0.7652
724	0.7267
733	0.7546
742	0.767
751	0.7716
760	0.7692
769	0.761
778	0.747
787	0.7458
796	0.6604
805	0.2035
814	0.5296
823	0.6572
832	0.6458
841	0.5899
850	0.4822
859	0.4675
868	0.6137
877	0.6885
886	0.7202
895	0.7346
904	0.7427
913	0.7498
922	0.7511
931	0.7503
940	0.7491
949	0.7494
958	0.7501
967	0.7497
976	0.7498
985	0.7522
994	0.7394
1003	0.7275
1012	0.7471
1021	0.7528
1030	0.7543
1039	0.7487
1048	0.657
1057	0.7315
1066	0.7381
1075	0.7372
1084	0.7355
1093	0.7369
1102	0.734
1111	0.6735
1120	0.7251
1129	0.7306
1138	0.7288
1147	0.7228
1156	0.7144
1165	0.697
1174	0.6363
1183	0.6226
1192	0.6655
1201	0.6321
1210	0.5842
1219	0.3687
1228	0.3165
1237	0.2619
1246	0.5966
1255	0.6967
1264	0.6879
1273	0.4534
1282	0.06
1291	0.4315
1300	0.6545
1309	0.6994
1318	0.7093
1327	0.7107
1336	0.681
1345	0.6473
1354	0.7167
1363	0.7522
1372	0.742
1381	0.7187
1390	0.7206
1399	0.6756
1408	0.5228
1417	0.35
1426	0.6252
1435	0.7697
1444	0.6677
1453	0.3306
1462	0.7996
1471	0.8299
1480	0.8259
1489	0.8077
1498	0.7853
1507	0.7372
1516	0.5901
1525	0.4353
1534	0.7792
1543	0.789
1552	0.7581
1561	0.7079
1570	0.6238
1579	0.4406
1588	0.2735
1597	0.5919
1606	0.7893
1615	0.8258
1624	0.8194
1633	0.8065
1642	0.7808
1651	0.7449
1660	0.6842
1669	0.6147
1678	0.5196
1687	0.423
1696	0.3746
1705	0.4328
1714	0.4768
1723	0.5413
1732	0.6506
1741	0.7876
1750	0.8494
1759	0.8622
1768	0.8693
1777	0.8754
1786	0.8816
1795	0.8867
1804	0.8893
1813	0.8896
1822	0.8901
1831	0.8907
1840	0.8889
1849	0.8872
1858	0.8855
1867	0.8834
1876	0.8773
1885	0.8776
1894	0.8791
1903	0.8787
1912	0.8764
1921	0.8745
1930	0.875
1939	0.8755
1948	0.8737
1957	0.8703
1966	0.8659
1975	0.8568
1984	0.8533
1993	0.8614
2002	0.87
2011	0.8707
2020	0.8692
2029	0.8666
2038	0.8629
2047	0.8584
2056	0.8537
2065	0.8496
2074	0.8471
2083	0.8448
2092	0.8436
2101	0.8424
2110	0.8412
2119	0.8398
2128	0.838
2137	0.8359
2146	0.8337
2155	0.8315
2164	0.829
2173	0.8258
2182	0.8227
2191	0.8194
2200	0.8167
2209	0.8159
2218	0.8126
2227	0.8071
2236	0.8016
2245	0.7976
2254	0.7937
2263	0.7898
2272	0.7861
2281	0.7826
2290	0.779
2299	0.7754
2308	0.7728
2317	0.7709
2326	0.769
2335	0.7674
2344	0.7672
2353	0.7675
2362	0.7684
2371	0.7694
2380	0.7707
2389	0.7707
2398	0.7684
2407	0.7653
2416	0.7623
2425	0.7603
2434	0.7593
2443	0.7582
2452	0.7589
2461	0.7612
2470	0.762
2479	0.7599
2488	0.7567
2497	0.7555
2506	0.7543
2515	0.7532
2524	0.7521
2533	0.7514
2542	0.7502
2551	0.7486
2560	0.7471
2569	0.7448
2578	0.7418
2587	0.7389
2596	0.7362
2605	0.7335
2614	0.7305
2623	0.7267
2632	0.7229
2641	0.719
2650	0.7151
2659	0.7111
2668	0.7071
2677	0.7029
2686	0.6987
2695	0.6946
2704	0.6909
2713	0.6863
2722	0.6815
2731	0.6745
2740	0.6664
2749	0.6566
2758	0.6443
2767	0.6322
2776	0.6206
2785	0.6032
2794	0.6014
2803	0.6138
2812	0.6352
2821	0.6367
2830	0.6175
2839	0.5951
2848	0.5761
2857	0.5657
2866	0.5717
2875	0.5721
2884	0.5529
2893	0.5271
2902	0.5619
2911	0.5682
2920	0.54
2929	0.5319
2938	0.5419
2947	0.5466
2956	0.545
2965	0.5466
2974	0.5529
2983	0.559
2992	0.5605
3001	0.5663
3010	0.5989
3019	0.6425
3028	0.6628
3037	0.6615
3046	0.6223
3055	0.5832
3064	0.5686
3073	0.6052
3082	0.6259
3091	0.5931
3100	0.5765
3109	0.5969
3118	0.5952
3127	0.5531
3136	0.5549
3145	0.5954
3154	0.6564
3163	0.6855
3172	0.6939
3181	0.6973
3190	0.6952
3199	0.6839
3208	0.6856
3217	0.6962
3226	0.7141
3235	0.7302
3244	0.7401
3253	0.7422
3262	0.743
3271	0.7434
3280	0.7434
3289	0.7433
3298	0.7431
3307	0.743
3316	0.7426
3325	0.742
3334	0.7407
3343	0.7392
3352	0.7377
3361	0.7361
3370	0.7345
3379	0.7328
3388	0.7317
3397	0.7306
3406	0.73
3415	0.73
3424	0.7298
3433	0.729
3442	0.7281
3451	0.7271
3460	0.7261
3469	0.7251
3478	0.7243
3487	0.7234
3496	0.7227
3505	0.7219
3514	0.721
3523	0.7199
3532	0.7189
3541	0.7178
3550	0.7168
3559	0.7155
3568	0.7142
3577	0.7111
3586	0.7076
3595	0.7067
3604	0.7059
3613	0.7049
3622	0.7039
3631	0.7029
3640	0.7017
3649	0.7006
3658	0.6994
3667	0.6983
3676	0.6973
3685	0.6962
3694	0.6952
3703	0.6942
3712	0.6937
3721	0.6933
3730	0.693
3739	0.6927
3748	0.6924
3757	0.6922
3766	0.6922
3775	0.692
3784	0.6908
3793	0.6893
