Infrared Spectrum: Pyrimidinone, 4(3H)-, 5-amino-6-chloro
Formula: C4 H4 Cl N3 O
CAS: 3137-60-8
State: SOLID (0.7 mg / 650 mg KBr DISC)
Class: COBLENTZ III
Instrument: PERKIN-ELMER 221 (GRATING)
Instrument parameters: FILTER AT 980 CM^-^1. GRATING 4000-1428 CM^-^1, NaCl PRISM 1428-650 CM^-^1
Resolution: 2
Origin: SOUTHERN RESEARCH INSTITUTE
1/CM	TRANSMITTANCE
608.59	0.7097
617.618	0.7054
626.645	0.697
635.673	0.6572
644.701	0.6397
653.728	0.6122
662.756	0.6387
671.783	0.603
680.811	0.5821
689.839	0.6091
698.866	0.6383
707.894	0.6762
716.922	0.6971
725.949	0.7016
734.977	0.7023
744.004	0.6987
753.032	0.6886
762.06	0.6363
771.087	0.6712
780.115	0.6688
789.143	0.6605
798.17	0.6434
807.198	0.6085
816.225	0.5235
825.253	0.6081
834.281	0.5813
843.308	0.5032
852.336	0.5234
861.364	0.5365
870.391	0.6179
879.419	0.6174
888.446	0.5816
897.474	0.5872
906.502	0.5665
915.529	0.5419
924.557	0.5653
933.585	0.5555
942.612	0.5061
951.64	0.4467
960.668	0.5123
969.695	0.3941
978.723	0.4658
987.75	0.3291
996.778	0.6453
1005.81	0.632
1014.83	0.5985
1023.86	0.6629
1032.89	0.663
1041.92	0.6607
1050.94	0.6567
1059.97	0.6519
1069	0.6391
1078.03	0.6152
1087.05	0.5622
1096.08	0.5248
1105.11	0.5489
1114.14	0.5494
1123.16	0.5548
1132.19	0.5504
1141.22	0.4886
1150.25	0.4278
1159.28	0.507
1168.3	0.6162
1177.33	0.6093
1186.36	0.5819
1195.39	0.5894
1204.41	0.6313
1213.44	0.6279
1222.47	0.6228
1231.5	0.6067
1240.52	0.5852
1249.55	0.5277
1258.58	0.418
1267.61	0.3577
1276.63	0.3039
1285.66	0.513
1294.69	0.4952
1303.72	0.4419
1312.75	0.3828
1321.77	0.5381
1330.8	0.6092
1339.83	0.6045
1348.86	0.5842
1357.88	0.4445
1366.91	0.4239
1375.94	0.4021
1384.97	0.1817
1393.99	0.3159
1403.02	0.4298
1412.05	0.5418
1421.08	0.6368
1430.1	0.6337
1439.13	0.6145
1448.16	0.5898
1457.19	0.5543
1466.21	0.5082
1475.24	0.3935
1484.27	0.4201
1493.3	0.4858
1502.33	0.4307
1511.35	0.3995
1520.38	0.3829
1529.41	0.3864
1538.44	0.4683
1547.46	0.4644
1556.49	0.3805
1565.52	0.321
1574.55	0.369
1583.57	0.2501
1592.6	0.1884
1601.63	0.2462
1610.66	0.2343
1619.68	0.1933
1628.71	0.1053
1637.74	0.1786
1646.77	0.1426
1655.79	0.0826
1664.82	0.0948
1673.85	0.0951
1682.88	0.0954
1691.91	0.0958
1700.93	0.0975
1709.96	0.1059
1718.99	0.3018
1728.02	0.421
1737.04	0.5084
1746.07	0.5688
1755.1	0.6185
1764.13	0.6492
1773.15	0.6635
1782.18	0.6798
1791.21	0.6965
1800.24	0.7105
1809.26	0.722
1818.29	0.7292
1827.32	0.7317
1836.35	0.7368
1845.38	0.735
1854.4	0.7332
1863.43	0.7306
1872.46	0.7229
1881.49	0.7132
1890.51	0.7088
1899.54	0.7073
1908.57	0.7061
1917.6	0.7047
1926.62	0.7036
1935.65	0.7034
1944.68	0.705
1953.71	0.7074
1962.73	0.7081
1971.76	0.7078
1980.79	0.7073
1989.82	0.7076
1998.84	0.7096
2007.87	0.7137
2016.9	0.7181
2025.93	0.7218
2034.96	0.7245
2043.98	0.7263
2053.01	0.7281
2062.04	0.7289
2071.07	0.7292
2080.09	0.7292
2089.12	0.7288
2098.15	0.728
2107.18	0.7276
2116.2	0.7274
2125.23	0.7273
2134.26	0.7272
2143.29	0.7272
2152.31	0.727
2161.34	0.7269
2170.37	0.7268
2179.4	0.7248
2188.43	0.7192
2197.45	0.7147
2206.48	0.7125
2215.51	0.7114
2224.54	0.709
2233.56	0.7053
2242.59	0.7012
2251.62	0.6963
2260.65	0.6902
2269.67	0.6836
2278.7	0.6767
2287.73	0.6736
2296.76	0.6711
2305.78	0.6698
2314.81	0.6665
2323.84	0.6544
2332.87	0.6459
2341.89	0.6424
2350.92	0.6374
2359.95	0.6289
2368.98	0.6261
2378.01	0.6251
2387.03	0.6204
2396.06	0.615
2405.09	0.6098
2414.12	0.6055
2423.14	0.6013
2432.17	0.5961
2441.2	0.5905
2450.23	0.5861
2459.25	0.5817
2468.28	0.5779
2477.31	0.5744
2486.34	0.5697
2495.36	0.5628
2504.39	0.553
2513.42	0.5432
2522.45	0.5354
2531.47	0.5293
2540.5	0.5236
2549.53	0.5182
2558.56	0.513
2567.59	0.5079
2576.61	0.5028
2585.64	0.4982
2594.67	0.4936
2603.7	0.4914
2612.72	0.4909
2621.75	0.4904
2630.78	0.4897
2639.81	0.4893
2648.83	0.4903
2657.86	0.4912
2666.89	0.492
2675.92	0.4905
2684.94	0.4847
2693.97	0.4781
2703	0.4743
2712.03	0.4731
2721.06	0.4722
2730.08	0.4725
2739.11	0.4724
2748.14	0.4716
2757.17	0.4708
2766.19	0.4694
2775.22	0.4681
2784.25	0.4666
2793.28	0.4629
2802.3	0.458
2811.33	0.4533
2820.36	0.4527
2829.39	0.4517
2838.41	0.4445
2847.44	0.4375
2856.47	0.4364
2865.5	0.4346
2874.52	0.4307
2883.55	0.4231
2892.58	0.4053
2901.61	0.3876
2910.64	0.381
2919.66	0.376
2928.69	0.3759
2937.72	0.3781
2946.75	0.3868
2955.77	0.4038
2964.8	0.412
2973.83	0.41
2982.86	0.4042
2991.88	0.3951
3000.91	0.387
3009.94	0.3832
3018.97	0.3695
3027.99	0.3555
3037.02	0.3568
3046.05	0.365
3055.08	0.3731
3064.11	0.3697
3073.13	0.3628
3082.16	0.3547
3091.19	0.3461
3100.22	0.3366
3109.24	0.3199
3118.27	0.3208
3127.3	0.3314
3136.33	0.3377
3145.35	0.3545
3154.38	0.35
3163.41	0.3163
3172.44	0.2997
3181.46	0.3028
3190.49	0.3065
3199.52	0.3101
3208.55	0.3134
3217.57	0.316
3226.6	0.3189
3235.63	0.3239
3244.66	0.3361
3253.69	0.3765
3262.71	0.4214
3271.74	0.4441
3280.77	0.4474
3289.8	0.4459
3298.82	0.4415
3307.85	0.4232
3316.88	0.3834
3325.91	0.324
3334.93	0.3131
3343.96	0.3996
3352.99	0.5095
3362.02	0.5442
3371.04	0.5429
3380.07	0.5345
3389.1	0.5255
3398.13	0.514
3407.15	0.4883
3416.18	0.4547
3425.21	0.4066
3434.24	0.3683
3443.27	0.4025
3452.29	0.5047
3461.32	0.5571
3470.35	0.5743
3479.38	0.5874
3488.4	0.5965
3497.43	0.603
3506.46	0.6069
3515.49	0.6112
3524.51	0.6209
3533.54	0.6301
3542.57	0.6375
3551.6	0.6432
3560.62	0.6576
3569.65	0.6666
3578.68	0.672
3587.71	0.6761
3596.74	0.6797
3605.76	0.6974
3614.79	0.7106
3623.82	0.7168
3632.85	0.7205
3641.87	0.7221
3650.9	0.7226
3659.93	0.7223
3668.96	0.7218
3677.98	0.7211
3687.01	0.7205
3696.04	0.7198
3705.07	0.7192
3714.09	0.7186
3723.12	0.7181
3732.15	0.7177
3741.18	0.7173
3750.2	0.7169
3759.23	0.7162
3768.26	0.715
3777.29	0.7139
3786.32	0.7127
3795.34	0.7117
3804.37	0.7109
3813.4	0.7102
3822.43	0.7094
3831.45	0.7088
3840.48	0.7082
3849.51	0.7075
3858.54	0.7068
3867.56	0.7065
3876.59	0.7063
3885.62	0.7062
3894.65	0.706
3903.67	0.706
3912.7	0.7062
3921.73	0.7064
3930.76	0.7066
3939.79	0.7071
3948.81	0.7084
3957.84	0.7097
3966.87	0.71
3975.9	0.7101
3984.92	0.71
3993.95	0.7097
4002.98	0.7095
