Infrared Spectrum: 4-PYRIMIDINOL, 6-HYDRAZINO-5-NITRO- (KETO FORM)
Formula: C4 H5 N5 O3
CAS: 3137-55-1
State: SOLID (0.9 mg / 650 mg, KBr DISC)
Class: COBLENTZ III
Instrument: PERKIN-ELMER 21 (GRATING)
Instrument parameters: FILTER CHANGE AT ABOUT 1020 CM^-^1
Sampling: TRANSMISSION
Resolution: 2
Origin: SOUTHERN RESEARCH INSTITUTE
1/CM	TRANSMITTANCE
607.786	0.517
617.042	0.517
626.298	0.528
635.555	0.5456
644.811	0.5585
654.067	0.561
663.323	0.556
672.579	0.5453
681.836	0.5305
691.092	0.5174
700.348	0.4783
709.604	0.4405
718.86	0.5098
728.116	0.5023
737.373	0.4646
746.629	0.421
755.885	0.5512
765.141	0.4534
774.397	0.3352
783.654	0.4188
792.91	0.4649
802.166	0.5846
811.422	0.5659
820.678	0.5869
829.935	0.6026
839.191	0.5886
848.447	0.5548
857.703	0.4978
866.959	0.4642
876.216	0.4711
885.472	0.5051
894.728	0.4754
903.984	0.4628
913.24	0.4688
922.497	0.4617
931.753	0.4557
941.009	0.4716
950.265	0.4576
959.521	0.423
968.777	0.3913
978.034	0.5109
987.29	0.607
996.546	0.5843
1005.8	0.5638
1015.06	0.5546
1024.31	0.5166
1033.57	0.4503
1042.83	0.3831
1052.08	0.2722
1061.34	0.2019
1070.6	0.4787
1079.85	0.5147
1089.11	0.5668
1098.36	0.5885
1107.62	0.5725
1116.88	0.5454
1126.13	0.4941
1135.39	0.4625
1144.65	0.4608
1153.9	0.4439
1163.16	0.4056
1172.41	0.342
1181.67	0.2644
1190.93	0.1983
1200.18	0.254
1209.44	0.294
1218.69	0.3
1227.95	0.2852
1237.21	0.218
1246.46	0.0951
1255.72	0.1505
1264.98	0.2263
1274.23	0.2075
1283.49	0.1899
1292.74	0.3443
1302	0.3822
1311.26	0.413
1320.51	0.4101
1329.77	0.3945
1339.03	0.3
1348.28	0.272
1357.54	0.4223
1366.79	0.3467
1376.05	0.2707
1385.31	0.45
1394.56	0.4409
1403.82	0.3146
1413.07	0.2616
1422.33	0.3594
1431.59	0.4537
1440.84	0.4728
1450.1	0.4395
1459.36	0.3687
1468.61	0.2719
1477.87	0.243
1487.12	0.1864
1496.38	0.1437
1505.64	0.1851
1514.89	0.3056
1524.15	0.295
1533.41	0.2856
1542.66	0.2231
1551.92	0.16
1561.17	0.1765
1570.43	0.2008
1579.69	0.1876
1588.94	0.1745
1598.2	0.1002
1607.45	0.059
1616.71	0.0778
1625.97	0.1296
1635.22	0.2214
1644.48	0.2732
1653.74	0.3475
1662.99	0.3298
1672.25	0.2392
1681.5	0.1538
1690.76	0.1746
1700.02	0.2374
1709.27	0.3583
1718.53	0.4965
1727.79	0.6032
1737.04	0.676
1746.3	0.7347
1755.55	0.7527
1764.81	0.7712
1774.07	0.7857
1783.32	0.8043
1792.58	0.823
1801.83	0.8291
1811.09	0.8385
1820.35	0.85
1829.6	0.851
1838.86	0.8507
1848.12	0.8496
1857.37	0.85
1866.63	0.848
1875.88	0.848
1885.14	0.8431
1894.4	0.84
1903.65	0.8382
1912.91	0.8395
1922.17	0.8366
1931.42	0.834
1940.68	0.8275
1949.93	0.823
1959.19	0.8167
1968.45	0.8066
1977.7	0.8027
1986.96	0.7978
1996.21	0.7928
2005.47	0.7877
2014.73	0.776
2023.98	0.7841
2033.24	0.788
2042.5	0.788
2051.75	0.784
2061.01	0.7797
2070.26	0.7747
2079.52	0.7719
2088.78	0.768
2098.03	0.764
2107.29	0.761
2116.55	0.7569
2125.8	0.7529
2135.06	0.751
2144.31	0.748
2153.57	0.744
2162.83	0.742
2172.08	0.735
2181.34	0.7319
2190.59	0.727
2199.85	0.725
2209.11	0.719
2218.36	0.7149
2227.62	0.711
2236.88	0.71
2246.13	0.7047
2255.39	0.698
2264.64	0.693
2273.9	0.688
2283.16	0.6837
2292.41	0.6759
2301.67	0.6675
2310.93	0.6599
2320.18	0.656
2329.44	0.6559
2338.69	0.655
2347.95	0.655
2357.21	0.655
2366.46	0.655
2375.72	0.6547
2384.97	0.6509
2394.23	0.6417
2403.49	0.6337
2412.74	0.626
2422	0.626
2431.26	0.6229
2440.51	0.6149
2449.77	0.6127
2459.02	0.611
2468.28	0.611
2477.54	0.611
2486.79	0.609
2496.05	0.6069
2505.31	0.602
2514.56	0.598
2523.82	0.5957
2533.07	0.589
2542.33	0.584
2551.59	0.5819
2560.84	0.577
2570.1	0.573
2579.35	0.5689
2588.61	0.5649
2597.87	0.561
2607.12	0.561
2616.38	0.557
2625.64	0.556
2634.89	0.55
2644.15	0.5469
2653.4	0.544
2662.66	0.5429
2671.92	0.539
2681.17	0.538
2690.43	0.536
2699.69	0.534
2708.94	0.5297
2718.2	0.5219
2727.45	0.517
2736.71	0.5087
2745.97	0.5009
2755.22	0.496
2764.48	0.4917
2773.73	0.485
2782.99	0.4779
2792.25	0.473
2801.5	0.4707
2810.76	0.4609
2820.02	0.455
2829.27	0.448
2838.53	0.443
2847.78	0.439
2857.04	0.432
2866.3	0.4267
2875.55	0.4167
2884.81	0.3997
2894.07	0.3878
2903.32	0.3719
2912.58	0.3569
2921.83	0.343
2931.09	0.3389
2940.35	0.335
2949.6	0.3309
2958.86	0.327
2968.11	0.326
2977.37	0.323
2986.63	0.3179
2995.88	0.31
3005.14	0.303
3014.4	0.302
3023.65	0.2977
3032.91	0.2845
3042.16	0.2666
3051.42	0.2416
3060.68	0.2229
3069.93	0.217
3079.19	0.2047
3088.45	0.1937
3097.7	0.1837
3106.96	0.1759
3116.21	0.1719
3125.47	0.171
3134.73	0.1733
3143.98	0.1801
3153.24	0.1934
3162.49	0.2051
3171.75	0.2253
3181.01	0.236
3190.26	0.2423
3199.52	0.2573
3208.78	0.26
3218.03	0.2559
3227.29	0.2479
3236.54	0.242
3245.8	0.238
3255.06	0.2434
3264.31	0.2645
3273.57	0.2774
3282.83	0.2984
3292.08	0.315
3301.34	0.3109
3310.59	0.306
3319.85	0.3113
3329.11	0.3303
3338.36	0.3534
3347.62	0.3757
3356.88	0.3965
3366.13	0.4259
3375.39	0.4758
3384.64	0.5311
3393.9	0.543
3403.16	0.54
3412.41	0.5349
3421.67	0.531
3430.92	0.5229
3440.18	0.518
3449.44	0.518
3458.69	0.5149
3467.95	0.5069
3477.21	0.501
3486.46	0.501
3495.72	0.5011
3504.97	0.502
3514.23	0.5033
3523.49	0.51
3532.74	0.513
3542	0.518
3551.26	0.518
3560.51	0.5181
3569.77	0.5211
3579.02	0.523
3588.28	0.525
3597.54	0.5253
3606.79	0.532
3616.05	0.535
3625.3	0.536
3634.56	0.538
3643.82	0.539
3653.07	0.539
3662.33	0.538
3671.59	0.538
3680.84	0.538
3690.1	0.5377
3699.35	0.5351
3708.61	0.534
3717.87	0.53
3727.12	0.527
3736.38	0.5269
3745.64	0.5259
3754.89	0.519
3764.15	0.514
3773.4	0.507
3782.66	0.505
3791.92	0.503
3801.17	0.505
3810.43	0.506
3819.68	0.505
3828.94	0.5019
3838.2	0.493
3847.45	0.4889
3856.71	0.485
3865.97	0.481
3875.22	0.48
3884.48	0.478
3893.73	0.476
3902.99	0.4729
3912.25	0.4707
3921.5	0.468
3930.76	0.468
3940.02	0.467
3949.27	0.4689
3958.53	0.469
3967.78	0.467
3977.04	0.463
3986.3	0.464
3995.55	0.463
4004.81	0.46
