Infrared Spectrum: 3-Ethoxycarbonylphenyl isothiocyanate
Formula: C10 H9 N O2 S
CAS: 3137-84-6
State: gas
Origin: EPA-IR VAPOR PHASE LIBRARY
1/CM	ABSORBANCE
549.8	0.012656
559.445	0.011116
569.09	0.009836
578.734	0.007716
588.379	0.005746
598.024	0.004366
607.669	0.003106
617.313	0.002236
626.958	0.002466
636.603	0.002076
646.248	0.002796
655.893	0.004116
665.537	0.005596
675.182	0.009506
684.827	0.008046
694.472	0.006926
704.116	0.007966
713.761	0.013006
723.406	0.024406
733.051	0.025766
742.695	0.027426
752.34	0.044356
761.985	0.024416
771.63	0.008906
781.275	0.006216
790.919	0.006146
800.564	0.007646
810.209	0.006566
819.854	0.003256
829.498	0.002696
839.143	0.003896
848.788	0.005516
858.433	0.007276
868.078	0.012506
877.722	0.010906
887.367	0.006496
897.012	0.009656
906.657	0.010136
916.301	0.006406
925.946	0.003906
935.591	0.003056
945.236	0.003316
954.88	0.004266
964.525	0.006496
974.17	0.009986
983.815	0.010566
993.46	0.009246
1003.1	0.011416
1012.75	0.016166
1022.39	0.021546
1032.04	0.015906
1041.68	0.008926
1051.33	0.007486
1060.97	0.012336
1070.62	0.031946
1080.26	0.035116
1089.91	0.037086
1099.55	0.074276
1109.2	0.063706
1118.84	0.020376
1128.49	0.010816
1138.13	0.007936
1147.78	0.007746
1157.42	0.013296
1167.07	0.021076
1176.71	0.012186
1186.36	0.013906
1196	0.025256
1205.64	0.066986
1215.29	0.157636
1224.93	0.132906
1234.58	0.041346
1244.22	0.022526
1253.87	0.023196
1263.51	0.037706
1273.16	0.090446
1282.8	0.192236
1292.45	0.163226
1302.09	0.071536
1311.74	0.031176
1321.38	0.015386
1331.03	0.009806
1340.67	0.007586
1350.32	0.006986
1359.96	0.010206
1369.61	0.020816
1379.25	0.011596
1388.9	0.008296
1398.54	0.008756
1408.18	0.008206
1417.83	0.010126
1427.47	0.018996
1437.12	0.033616
1446.76	0.021366
1456.41	0.012736
1466.05	0.014456
1475.7	0.020756
1485.34	0.018706
1494.99	0.008896
1504.63	0.005786
1514.28	0.004466
1523.92	0.003916
1533.57	0.004086
1543.21	0.004506
1552.86	0.005896
1562.5	0.009996
1572.15	0.020756
1581.79	0.035476
1591.44	0.031706
1601.08	0.031396
1610.73	0.018646
1620.37	0.007696
1630.01	0.004796
1639.66	0.003966
1649.3	0.004026
1658.95	0.004336
1668.59	0.004646
1678.24	0.004776
1687.88	0.005676
1697.53	0.008466
1707.17	0.012526
1716.82	0.017936
1726.46	0.030806
1736.11	0.091516
1745.75	0.149606
1755.4	0.050086
1765.04	0.017916
1774.69	0.013196
1784.33	0.008906
1793.98	0.006586
1803.62	0.005676
1813.27	0.005166
1822.91	0.005126
1832.55	0.005166
1842.2	0.004716
1851.84	0.004146
1861.49	0.004146
1871.13	0.004716
1880.78	0.006096
1890.42	0.007396
1900.07	0.007906
1909.71	0.009756
1919.36	0.013406
1929	0.019596
1938.65	0.028716
1948.29	0.039226
1957.94	0.049276
1967.58	0.061686
1977.23	0.078746
1986.87	0.100666
1996.52	0.129266
2006.16	0.164086
2015.81	0.199106
2025.45	0.232956
2035.1	0.274986
2044.74	0.273416
2054.38	0.191556
2064.03	0.152436
2073.67	0.168636
2083.32	0.191266
2092.96	0.176756
2102.61	0.136866
2112.25	0.105546
2121.9	0.087026
2131.54	0.071846
2141.19	0.056186
2150.83	0.041556
2160.48	0.030916
2170.12	0.024016
2179.77	0.020576
2189.41	0.019546
2199.06	0.016946
2208.7	0.011946
2218.35	0.008246
2227.99	0.006346
2237.64	0.005646
2247.28	0.005366
2256.92	0.005206
2266.57	0.004216
2276.21	0.003056
2285.86	0.002486
2295.5	0.002176
2305.15	0.002126
2314.79	0.002216
2324.44	0.002296
2334.08	0.001966
2343.73	0.001676
2353.37	0.001596
2363.02	0.001686
2372.66	0.001876
2382.31	0.002066
2391.95	0.002316
2401.6	0.002556
2411.24	0.002626
2420.89	0.002846
2430.53	0.002826
2440.18	0.002486
2449.82	0.002436
2459.47	0.002306
2469.11	0.002246
2478.75	0.002476
2488.4	0.002746
2498.04	0.002876
2507.69	0.002876
2517.33	0.002616
2526.98	0.002636
2536.62	0.002986
2546.27	0.003346
2555.91	0.003886
2565.56	0.004706
2575.2	0.005386
2584.85	0.004826
2594.49	0.003226
2604.14	0.002056
2613.78	0.001536
2623.43	0.001276
2633.07	0.0011193
2642.72	0.0009973
2652.36	0.0009695
2662.01	0.0009442
2671.65	0.00098
2681.29	0.0009193
2690.94	0.0011842
2700.58	0.0011851
2710.23	0.0012148
2719.87	0.001526
2729.52	0.001936
2739.16	0.002166
2748.81	0.002476
2758.45	0.002786
2768.1	0.003016
2777.74	0.002916
2787.39	0.002406
2797.03	0.002076
2806.68	0.002046
2816.32	0.002286
2825.97	0.002326
2835.61	0.002056
2845.26	0.002156
2854.9	0.002416
2864.55	0.002846
2874.19	0.003586
2883.84	0.004936
2893.48	0.005256
2903.12	0.005616
2912.77	0.006686
2922.41	0.006766
2932.06	0.007816
2941.7	0.011996
2951.35	0.011686
2960.99	0.010516
2970.64	0.013996
2980.28	0.021396
2989.93	0.025096
2999.57	0.016036
3009.22	0.010596
3018.86	0.006896
3028.51	0.004986
3038.15	0.004426
3047.8	0.003926
3057.44	0.003056
3067.09	0.004296
3076.73	0.007166
3086.38	0.005806
3096.02	0.003586
3105.67	0.002446
3115.31	0.001306
3124.95	0.0008653
3134.6	0.0007227
3144.24	0.0007845
3153.89	0.0006016
3163.53	0.0008541
3173.18	0.0006807
3182.82	0.0004477
3192.47	0.0004195
3202.11	0.0004576
3211.76	0.00031988
3221.4	0.0001685
3231.05	0.0002312
3240.69	0.0002055
3250.34	0.0003858
3259.98	0.00034762
3269.63	0.00027886
3279.27	0.0002492
3288.92	0.00032436
3298.56	0.00034058
3308.21	8.9e-05
3317.85	0.000254
3327.49	0.00035723
3337.14	0.0003966
3346.78	0.00030607
3356.43	0.0001902
3366.07	0.000268361
3375.72	0.0003929
3385.36	0.0003729
3395.01	0.0005187
3404.65	0.000433
3414.3	0.00033555
3423.94	0.00031712
3433.59	0.0005896
3443.23	0.0006831
3452.88	0.0011052
3462.52	0.001566
3472.17	0.001696
3481.81	0.000934
3491.46	0.0008243
3501.1	0.0007817
3510.75	0.0004441
3520.39	0.0004918
3530.04	0.00028685
3539.68	0.0005647
3549.32	0.00032038
3558.97	0.0004097
3568.61	0.0004002
3578.26	0.0004994
3587.9	0.000466
3597.55	0.0004558
3607.19	0.0002504
3616.84	0.0004189
3626.48	0.0005759
3636.13	0.000509
3645.77	0.0002199
3655.42	0.00036461
3665.06	0.00036158
3674.71	0.00031324
3684.35	0.0003746
3694	0.0003789
3703.64	0.0004727
3713.29	0.0004247
3722.93	0.0006099
3732.58	0.0004266
3742.22	0.00035699
3751.86	0.00034531
3761.51	0.0005158
3771.15	0.000583
3780.8	0.0005327
3790.44	0.0005628
3800.09	0.0007573
3809.73	0.0006463
3819.38	0.000683
3829.02	0.0006593
3838.67	0.0006194
3848.31	0.0005789
3857.96	0.0007631
3867.6	0.0007386
3877.25	0.0006388
3886.89	0.0005333
3896.54	0.0009139
3906.18	0.0007219
3915.83	0.0007647
3925.47	0.0010515
3935.12	0.0010246
3944.76	0.001175
3954.41	0.0008615
3964.05	0.0012565
3973.69	0.001346
3983.34	0.001476
3992.98	0.001616
