Infrared Spectrum: 4-Pyrimidinol, 6-chloro-5-nitro-
Formula: C4 H2 Cl N3 O3
CAS: 3137-56-2
State: SOLID (1 mg / 650 mg KBr DISC)
Class: COBLENTZ III
Instrument: PERKIN-ELMER 21 (GRATING)
Instrument parameters: FILTER CHANGE ABOUT 1100 CM^-^1
Sampling: TRANSMISSION
Resolution: 2
Origin: SOUTHERN RESEARCH INSTITUTE
1/CM	TRANSMITTANCE
598.667	0.8702
607.718	0.8609
616.769	0.8582
625.82	0.8483
634.872	0.8026
643.923	0.7579
652.974	0.8567
662.025	0.8729
671.076	0.8609
680.127	0.8396
689.178	0.8158
698.23	0.7869
707.281	0.7353
716.332	0.6157
725.383	0.7575
734.434	0.75
743.485	0.7175
752.537	0.6752
761.588	0.5557
770.639	0.5605
779.69	0.5776
788.741	0.3416
797.792	0.6386
806.843	0.6224
815.895	0.5896
824.946	0.5305
833.997	0.4628
843.048	0.3934
852.099	0.2034
861.15	0.2893
870.201	0.3015
879.253	0.3068
888.304	0.4303
897.355	0.5467
906.406	0.617
915.457	0.6286
924.508	0.6279
933.56	0.6148
942.611	0.5956
951.662	0.5584
960.713	0.5004
969.764	0.415
978.815	0.1584
987.866	0.2169
996.918	0.5644
1005.97	0.7212
1015.02	0.6966
1024.07	0.6647
1033.12	0.6327
1042.17	0.6007
1051.22	0.566
1060.28	0.5245
1069.33	0.4768
1078.38	0.3258
1087.43	0.4521
1096.48	0.457
1105.53	0.4555
1114.58	0.3721
1123.63	0.245
1132.68	0.1447
1141.74	0.2114
1150.79	0.614
1159.84	0.7086
1168.89	0.6851
1177.94	0.6384
1186.99	0.5554
1196.04	0.4281
1205.09	0.3786
1214.15	0.5239
1223.2	0.5994
1232.25	0.6031
1241.3	0.5917
1250.35	0.5689
1259.4	0.5462
1268.45	0.5115
1277.5	0.4709
1286.55	0.3928
1295.61	0.4282
1304.66	0.4376
1313.71	0.4288
1322.76	0.4073
1331.81	0.383
1340.86	0.3427
1349.91	0.2412
1358.96	0.1764
1368.01	0.2223
1377.07	0.3612
1386.12	0.2598
1395.17	0.0866
1404.22	0.1731
1413.27	0.5656
1422.32	0.555
1431.37	0.4634
1440.42	0.4047
1449.48	0.379
1458.53	0.3453
1467.58	0.3528
1476.63	0.3323
1485.68	0.2785
1494.73	0.1953
1503.78	0.1587
1512.83	0.1067
1521.88	0.0833
1530.94	0.0802
1539.99	0.0887
1549.04	0.0981
1558.09	0.1616
1567.14	0.1676
1576.19	0.1531
1585.24	0.0732
1594.29	0.0869
1603.34	0.2801
1612.4	0.495
1621.45	0.4268
1630.5	0.3385
1639.55	0.2298
1648.6	0.1449
1657.65	0.0921
1666.7	0.1105
1675.75	0.1094
1684.8	0.0719
1693.86	0.0723
1702.91	0.0847
1711.96	0.1246
1721.01	0.1789
1730.06	0.2512
1739.11	0.3307
1748.16	0.4253
1757.21	0.4914
1766.27	0.5611
1775.32	0.6296
1784.37	0.6686
1793.42	0.7037
1802.47	0.7333
1811.52	0.7597
1820.57	0.7808
1829.62	0.7861
1838.67	0.7902
1847.73	0.8
1856.78	0.8278
1865.83	0.8262
1874.88	0.8237
1883.93	0.8137
1892.98	0.8111
1902.03	0.8253
1911.08	0.8359
1920.13	0.8362
1929.19	0.834
1938.24	0.8257
1947.29	0.8116
1956.34	0.7914
1965.39	0.7631
1974.44	0.7494
1983.49	0.7598
1992.54	0.7832
2001.6	0.8092
2010.65	0.8099
2019.7	0.8063
2028.75	0.8015
2037.8	0.7961
2046.85	0.7909
2055.9	0.7862
2064.95	0.7868
2074	0.7844
2083.06	0.78
2092.11	0.7739
2101.16	0.7651
2110.21	0.7567
2119.26	0.7546
2128.31	0.7539
2137.36	0.7458
2146.41	0.7438
2155.46	0.7437
2164.52	0.74
2173.57	0.7348
2182.62	0.7278
2191.67	0.7194
2200.72	0.712
2209.77	0.7048
2218.82	0.6969
2227.87	0.6883
2236.92	0.6771
2245.98	0.6698
2255.03	0.6698
2264.08	0.6734
2273.13	0.6829
2282.18	0.6881
2291.23	0.6834
2300.28	0.6742
2309.33	0.6628
2318.39	0.6491
2327.44	0.6444
2336.49	0.6408
2345.54	0.6371
2354.59	0.6333
2363.64	0.6329
2372.69	0.6336
2381.74	0.6321
2390.79	0.6302
2399.85	0.6296
2408.9	0.6303
2417.95	0.632
2427	0.6338
2436.05	0.6313
2445.1	0.6253
2454.15	0.619
2463.2	0.6141
2472.25	0.6091
2481.31	0.6035
2490.36	0.5986
2499.41	0.5943
2508.46	0.5901
2517.51	0.5863
2526.56	0.5821
2535.61	0.5777
2544.66	0.5734
2553.72	0.5709
2562.77	0.5686
2571.82	0.5667
2580.87	0.5616
2589.92	0.5537
2598.97	0.5442
2608.02	0.5353
2617.07	0.5285
2626.12	0.5222
2635.18	0.5193
2644.23	0.5203
2653.28	0.5264
2662.33	0.5308
2671.38	0.5255
2680.43	0.5189
2689.48	0.5098
2698.53	0.5047
2707.58	0.5004
2716.64	0.4973
2725.69	0.4945
2734.74	0.4915
2743.79	0.4874
2752.84	0.4821
2761.89	0.4758
2770.94	0.4675
2779.99	0.4578
2789.05	0.4468
2798.1	0.4349
2807.15	0.4226
2816.2	0.4096
2825.25	0.3945
2834.3	0.377
2843.35	0.3499
2852.4	0.3229
2861.45	0.31
2870.51	0.3035
2879.56	0.3007
2888.61	0.3009
2897.66	0.3069
2906.71	0.3086
2915.76	0.2966
2924.81	0.2799
2933.86	0.2717
2942.91	0.2694
2951.97	0.2703
2961.02	0.2732
2970.07	0.2787
2979.12	0.2754
2988.17	0.2622
2997.22	0.2481
3006.27	0.2355
3015.32	0.2248
3024.37	0.2174
3033.43	0.1971
3042.48	0.1858
3051.53	0.1773
3060.58	0.1704
3069.63	0.1655
3078.68	0.1612
3087.73	0.1581
3096.78	0.1595
3105.84	0.1636
3114.89	0.1726
3123.94	0.1861
3132.99	0.2001
3142.04	0.217
3151.09	0.2373
3160.14	0.2638
3169.19	0.2916
3178.24	0.3194
3187.3	0.3511
3196.35	0.3791
3205.4	0.4089
3214.45	0.4406
3223.5	0.4812
3232.55	0.5145
3241.6	0.5472
3250.65	0.5809
3259.7	0.5985
3268.76	0.6094
3277.81	0.6151
3286.86	0.6166
3295.91	0.6165
3304.96	0.6117
3314.01	0.6055
3323.06	0.5976
3332.11	0.5877
3341.17	0.5779
3350.22	0.5707
3359.27	0.5675
3368.32	0.5652
3377.37	0.5631
3386.42	0.5532
3395.47	0.5388
3404.52	0.5317
3413.57	0.527
3422.63	0.5238
3431.68	0.522
3440.73	0.5209
3449.78	0.5205
3458.83	0.5219
3467.88	0.5238
3476.93	0.5274
3485.98	0.5309
3495.03	0.5344
3504.09	0.5378
3513.14	0.5412
3522.19	0.544
3531.24	0.5465
3540.29	0.5498
3549.34	0.5537
3558.39	0.5576
3567.44	0.5615
3576.5	0.5654
3585.55	0.5696
3594.6	0.5754
3603.65	0.5811
3612.7	0.5843
3621.75	0.5873
3630.8	0.5903
3639.85	0.5925
3648.9	0.5933
3657.96	0.5941
3667.01	0.5941
3676.06	0.5926
3685.11	0.5907
3694.16	0.5901
3703.21	0.5923
3712.26	0.5945
3721.31	0.5914
3730.36	0.5861
3739.42	0.5807
3748.47	0.5752
3757.52	0.5726
3766.57	0.5748
3775.62	0.5777
3784.67	0.5788
3793.72	0.5762
3802.77	0.5714
3811.82	0.566
3820.88	0.5637
3829.93	0.5636
3838.98	0.565
3848.03	0.5659
3857.08	0.5656
3866.13	0.5647
3875.18	0.5608
3884.23	0.5573
3893.29	0.5578
3902.34	0.5577
3911.39	0.5575
3920.44	0.5576
3929.49	0.5571
3938.54	0.5563
3947.59	0.5558
3956.64	0.5589
3965.69	0.5567
3974.75	0.5535
3983.8	0.5507
3992.85	0.5492
4001.9	0.5493
4010.95	0.5522
