Infrared Spectrum: .alpha.-(4-Toluenesulphonyl)acetophenone
Formula: C 15 H 14 O 3 S
CAS: 31378-03-7
State: gas
Origin: EPA-IR VAPOR PHASE LIBRARY
1/CM	ABSORBANCE
549.8	0.004695
559.445	0.004645
569.09	0.004665
578.735	0.011285
588.38	0.013325
598.025	0.003545
607.67	0.002255
617.315	0.003885
626.96	0.006725
636.605	0.004225
646.251	0.002025
655.896	0.003015
665.541	0.004755
675.186	0.005805
684.831	0.008325
694.476	0.005095
704.121	0.004885
713.766	0.005195
723.411	0.007405
733.056	0.018245
742.701	0.024265
752.346	0.014925
761.991	0.005595
771.636	0.002875
781.281	0.002465
790.926	0.002815
800.571	0.004255
810.216	0.009195
819.861	0.007375
829.507	0.003785
839.152	0.002465
848.797	0.001545
858.442	0.001465
868.087	0.001785
877.732	0.002895
887.377	0.004305
897.022	0.003835
906.667	0.001715
916.312	0.001013
925.957	0.0010988
935.602	0.000958
945.247	0.0010539
954.892	0.001505
964.537	0.002045
974.182	0.003635
983.827	0.007525
993.472	0.013725
1003.12	0.011745
1012.76	0.006195
1022.41	0.003545
1032.05	0.002075
1041.7	0.001785
1051.34	0.001725
1060.99	0.001855
1070.63	0.002615
1080.28	0.005935
1089.92	0.010405
1099.57	0.004175
1109.21	0.002895
1118.86	0.003875
1128.5	0.004715
1138.15	0.006365
1147.79	0.014185
1157.44	0.036135
1167.08	0.030455
1176.73	0.011155
1186.37	0.010125
1196.02	0.006605
1205.66	0.008275
1215.31	0.010755
1224.95	0.008125
1234.6	0.006175
1244.24	0.006355
1253.89	0.011005
1263.53	0.022515
1273.18	0.027335
1282.82	0.015315
1292.47	0.008915
1302.11	0.006975
1311.76	0.005925
1321.4	0.005305
1331.05	0.008325
1340.69	0.020195
1350.34	0.038565
1359.98	0.018975
1369.63	0.005855
1379.27	0.003405
1388.92	0.003535
1398.56	0.005255
1408.21	0.005615
1417.85	0.003295
1427.5	0.002295
1437.14	0.002705
1446.79	0.005225
1456.43	0.003285
1466.08	0.001795
1475.73	0.001705
1485.37	0.002095
1495.02	0.003105
1504.66	0.001845
1514.31	0.001345
1523.95	0.0012665
1533.6	0.001241
1543.24	0.0011847
1552.89	0.001325
1562.53	0.001635
1572.18	0.002745
1581.82	0.004395
1591.47	0.006405
1601.11	0.007615
1610.76	0.004195
1620.4	0.002665
1630.05	0.001925
1639.69	0.001785
1649.34	0.001915
1658.98	0.002175
1668.63	0.003125
1678.27	0.006615
1687.92	0.018425
1697.56	0.020955
1707.21	0.011815
1716.85	0.005305
1726.5	0.002615
1736.14	0.001695
1745.79	0.0012682
1755.43	0.0011042
1765.08	0.000991
1774.72	0.0007973
1784.37	0.0007734
1794.01	0.0010901
1803.66	0.0011736
1813.3	0.0007809
1822.95	0.0005448
1832.59	0.0004725
1842.24	0.000496
1851.88	0.0004372
1861.53	0.0004671
1871.17	0.0005209
1880.82	0.0005927
1890.46	0.000659
1900.11	0.0009153
1909.75	0.0011539
1919.4	0.0009404
1929.04	0.0005586
1938.69	0.0005665
1948.33	0.0006131
1957.98	0.0007018
1967.62	0.0006992
1977.27	0.0005945
1986.91	0.0004245
1996.56	0.0004078
2006.2	0.0004433
2015.85	0.0003751
2025.49	0.00036683
2035.14	0.00032274
2044.78	0.00030052
2054.43	0.0003054
2064.07	0.0002479
2073.72	0.0002086
2083.36	0.0002201
2093.01	0.0002524
2102.65	0.000234
2112.3	0.00033196
2121.94	0.0002134
2131.59	0.00030929
2141.23	0.00027388
2150.88	0.00027177
2160.52	0.00027335
2170.17	0.00031767
2179.81	0.0002581
2189.46	0.00031597
2199.1	0.000282862
2208.75	0.0002602
2218.39	0.0002559
2228.04	0.0002636
2237.68	0.0003754
2247.33	0.00035804
2256.97	0.0003895
2266.62	0.00034379
2276.26	0.00033704
2285.91	0.0003822
2295.55	0.00036747
2305.2	0.0003976
2314.84	0.00034442
2324.49	0.00036137
2334.13	0.0002515
2343.78	0.00029022
2353.42	0.00029541
2363.07	0.00030359
2372.72	0.00034003
2382.36	0.00029282
2392.01	0.00032359
2401.65	0.00030072
2411.3	0.00030217
2420.94	0.00035045
2430.59	0.00033255
2440.23	0.00028943
2449.88	0.00032764
2459.52	0.00028623
2469.17	0.00033857
2478.81	0.00027392
2488.46	0.00032304
2498.1	0.00034222
2507.75	0.0003767
2517.39	0.00036657
2527.04	0.0002287
2536.68	0.0002605
2546.33	0.0002641
2555.97	0.0002563
2565.62	0.00035444
2575.26	0.00035853
2584.91	0.0003936
2594.55	0.00037392
2604.2	0.00031054
2613.84	0.00032999
2623.49	0.00028599
2633.13	0.00027376
2642.78	0.0002483
2652.42	0.0002599
2662.07	0.0002356
2671.71	0.0001863
2681.36	0.000232
2691	0.000161
2700.65	0.00026517
2710.29	0.0001772
2719.94	0.0002164
2729.58	0.00031942
2739.23	0.0002712
2748.87	0.00034107
2758.52	0.00029559
2768.16	0.0002102
2777.81	0.000278836
2787.45	0.00031146
2797.1	0.00026714
2806.74	0.000284532
2816.39	0.00030322
2826.03	0.00033111
2835.68	0.00029589
2845.32	0.0004802
2854.97	0.0006545
2864.61	0.0010858
2874.26	0.001415
2883.9	0.001535
2893.55	0.001315
2903.19	0.0012157
2912.84	0.001445
2922.48	0.002065
2932.13	0.003185
2941.77	0.002865
2951.42	0.001765
2961.06	0.001375
2970.71	0.0012726
2980.35	0.0010963
2990	0.001305
2999.64	0.001525
3009.29	0.001885
3018.93	0.001995
3028.58	0.003115
3038.22	0.004145
3047.87	0.004205
3057.51	0.004285
3067.16	0.006015
3076.8	0.005805
3086.45	0.003355
3096.09	0.002645
3105.74	0.001655
3115.38	0.001036
3125.03	0.0006504
3134.67	0.0005262
3144.32	0.0004822
3153.96	0.0004592
3163.61	0.0003933
3173.25	0.00035399
3182.9	0.00034986
3192.54	0.00035405
3202.19	0.000143
3211.83	0.0002299
3221.48	0.0002394
3231.12	0.00029588
3240.77	8.7e-05
3250.41	0.000104
3260.06	0.0001807
3269.7	0.000153
3279.35	0.00017
3289	0.0002237
3298.64	0.000169
3308.29	0.0001782
3317.93	8.1e-05
3327.58	0.000226
3337.22	0.00030651
3346.87	0.00036909
3356.51	0.0004697
3366.16	0.0005183
3375.8	0.0004438
3385.45	0.0004126
3395.09	0.000199
3404.74	0.00030242
3414.38	0.000105
3424.03	0.0001814
3433.67	0.00014
3443.32	9.7e-05
3452.96	0.000146
3462.61	0.000112
3472.25	0.0001773
3481.9	0.000173
3491.54	0.0002412
3501.19	0.0001958
3510.83	0.0002068
3520.48	0.0002205
3530.12	0.0002125
3539.77	0.0002465
3549.41	0.0002416
3559.06	8.1e-05
3568.7	0.0002531
3578.35	0.0002198
3587.99	0.000280451
3597.64	5.8e-05
3607.28	4.2e-05
3616.93	0.000284377
3626.57	0.00026614
3636.22	0.0002633
3645.86	0.0002469
3655.51	0.0003967
3665.15	0.00034075
3674.8	0.0003774
3684.44	0.000158
3694.09	0.000124
3703.73	0.00028591
3713.38	0.00011
3723.02	0.0001827
3732.67	0.00036545
3742.31	0.0001789
3751.96	0.000159
3761.6	0.000122
3771.25	0.0002069
3780.89	0.0002526
3790.54	0.000143
3800.18	8.6e-05
3809.83	0.0002364
3819.47	0.00014
3829.12	0.000159
3838.76	0.000208
3848.41	0.000121
3858.05	0.0001809
3867.7	9e-06
3877.34	7.7e-05
3886.99	0.0002371
3896.63	0.00029074
3906.28	0.000277041
3915.92	0.00031141
3925.57	4.8e-05
3935.21	5.1e-05
3944.86	0.0002232
3954.5	0.000281145
3964.15	0.00017
3973.79	0.0002549
3983.44	0.0002332
3993.08	0.000277837
