Infrared Spectrum: Pyrimidine, 4-amino-6-hydrazino-5-nitro-
Formula: C4 H6 N6 O2
CAS: 3137-54-0
State: SOLID (0.9 mg / 650 mg KBr DISC)
Class: COBLENTZ III
Instrument: PERKIN-ELMER 21 (GRATING)
Instrument parameters: FILTER CHANGE ABOUT 1090 CM^-^1
Sampling: TRANSMISSION
Resolution: 2
Origin: SOUTHERN RESEARCH INSTITUTE
1/CM	TRANSMITTANCE
600.04	0.6413
609.088	0.6515
618.135	0.6719
627.183	0.6951
636.23	0.7113
645.278	0.7056
654.325	0.6282
663.373	0.5301
672.42	0.517
681.468	0.6954
690.515	0.8627
699.563	0.8375
708.611	0.7196
717.658	0.6018
726.706	0.6916
735.753	0.7897
744.801	0.7626
753.848	0.7842
762.896	0.7777
771.943	0.7482
780.991	0.7007
790.038	0.5707
799.086	0.6244
808.133	0.7227
817.181	0.6319
826.229	0.672
835.276	0.6655
844.324	0.6243
853.371	0.6166
862.419	0.6614
871.466	0.6721
880.514	0.6056
889.561	0.6045
898.609	0.6973
907.656	0.6934
916.704	0.6748
925.752	0.6411
934.799	0.5845
943.847	0.51
952.894	0.4001
961.942	0.3492
970.989	0.4752
980.037	0.6777
989.084	0.6875
998.132	0.6514
1007.18	0.618
1016.23	0.5619
1025.27	0.5248
1034.32	0.6139
1043.37	0.5867
1052.42	0.5235
1061.46	0.3766
1070.51	0.3211
1079.56	0.5936
1088.61	0.639
1097.65	0.5954
1106.7	0.5567
1115.75	0.4845
1124.8	0.4306
1133.85	0.4532
1142.89	0.4434
1151.94	0.4192
1160.99	0.3892
1170.04	0.3611
1179.08	0.3257
1188.13	0.286
1197.18	0.2597
1206.23	0.293
1215.27	0.2772
1224.32	0.2301
1233.37	0.1735
1242.42	0.1466
1251.46	0.1444
1260.51	0.16
1269.56	0.1931
1278.61	0.2611
1287.65	0.3417
1296.7	0.3824
1305.75	0.3766
1314.8	0.3912
1323.84	0.4959
1332.89	0.4196
1341.94	0.2949
1350.99	0.2888
1360.03	0.3437
1369.08	0.4541
1378.13	0.386
1387.18	0.5713
1396.22	0.6338
1405.27	0.6021
1414.32	0.5761
1423.37	0.505
1432.41	0.4244
1441.46	0.3707
1450.51	0.3805
1459.56	0.3524
1468.6	0.3295
1477.65	0.3004
1486.7	0.2477
1495.75	0.1987
1504.79	0.1901
1513.84	0.2819
1522.89	0.291
1531.94	0.2778
1540.98	0.1669
1550.03	0.16
1559.08	0.1671
1568.13	0.1932
1577.17	0.2223
1586.22	0.2444
1595.27	0.2756
1604.32	0.3341
1613.36	0.3485
1622.41	0.3346
1631.46	0.3245
1640.51	0.3371
1649.55	0.4016
1658.6	0.4569
1667.65	0.5487
1676.7	0.6164
1685.75	0.6539
1694.79	0.6544
1703.84	0.6439
1712.89	0.6064
1721.94	0.5705
1730.98	0.5784
1740.03	0.6875
1749.08	0.7841
1758.13	0.8413
1767.17	0.8559
1776.22	0.8623
1785.27	0.8633
1794.32	0.8671
1803.36	0.8698
1812.41	0.8713
1821.46	0.864
1830.51	0.8635
1839.55	0.863
1848.6	0.8608
1857.65	0.8568
1866.7	0.8527
1875.74	0.8478
1884.79	0.8425
1893.84	0.837
1902.89	0.8328
1911.93	0.8285
1920.98	0.8235
1930.03	0.8187
1939.08	0.8144
1948.12	0.8101
1957.17	0.8054
1966.22	0.8004
1975.27	0.7954
1984.31	0.7892
1993.36	0.7839
2002.41	0.7808
2011.46	0.7777
2020.5	0.774
2029.55	0.7674
2038.6	0.76
2047.65	0.7573
2056.69	0.756
2065.74	0.7538
2074.79	0.7497
2083.84	0.7442
2092.88	0.7384
2101.93	0.7326
2110.98	0.7269
2120.03	0.7222
2129.07	0.7176
2138.12	0.7124
2147.17	0.7072
2156.22	0.7023
2165.26	0.6989
2174.31	0.6942
2183.36	0.686
2192.41	0.6804
2201.46	0.6763
2210.5	0.671
2219.55	0.6658
2228.6	0.662
2237.65	0.6583
2246.69	0.6542
2255.74	0.6498
2264.79	0.6453
2273.84	0.6409
2282.88	0.6346
2291.93	0.623
2300.98	0.6138
2310.03	0.6064
2319.07	0.6
2328.12	0.597
2337.17	0.5942
2346.22	0.5919
2355.26	0.5903
2364.31	0.5898
2373.36	0.5889
2382.41	0.5875
2391.45	0.5866
2400.5	0.5858
2409.55	0.5837
2418.6	0.5802
2427.64	0.5752
2436.69	0.57
2445.74	0.5647
2454.79	0.5595
2463.83	0.5543
2472.88	0.5496
2481.93	0.5447
2490.98	0.5385
2500.02	0.532
2509.07	0.5285
2518.12	0.5247
2527.17	0.5206
2536.21	0.5154
2545.26	0.5097
2554.31	0.5038
2563.36	0.4978
2572.4	0.4939
2581.45	0.4901
2590.5	0.4862
2599.55	0.4832
2608.59	0.4805
2617.64	0.4777
2626.69	0.4743
2635.74	0.47
2644.78	0.465
2653.83	0.4585
2662.88	0.4521
2671.93	0.4478
2680.97	0.4445
2690.02	0.4411
2699.07	0.4376
2708.12	0.434
2717.16	0.4305
2726.21	0.4269
2735.26	0.4231
2744.31	0.4166
2753.36	0.4087
2762.4	0.398
2771.45	0.388
2780.5	0.3784
2789.55	0.3678
2798.59	0.3564
2807.64	0.3451
2816.69	0.334
2825.74	0.3228
2834.78	0.3111
2843.83	0.3006
2852.88	0.2992
2861.93	0.3015
2870.97	0.3027
2880.02	0.2947
2889.07	0.2814
2898.12	0.2663
2907.16	0.2544
2916.21	0.2534
2925.26	0.2542
2934.31	0.2552
2943.35	0.259
2952.4	0.2792
2961.45	0.2911
2970.5	0.3014
2979.54	0.3107
2988.59	0.3185
2997.64	0.3221
3006.69	0.3259
3015.73	0.3318
3024.78	0.3381
3033.83	0.3433
3042.88	0.3472
3051.92	0.3507
3060.97	0.3542
3070.02	0.3581
3079.07	0.3619
3088.11	0.3662
3097.16	0.3714
3106.21	0.3756
3115.26	0.3769
3124.3	0.3744
3133.35	0.3702
3142.4	0.3637
3151.45	0.355
3160.49	0.3444
3169.54	0.3328
3178.59	0.3196
3187.64	0.3047
3196.68	0.2885
3205.73	0.274
3214.78	0.2624
3223.83	0.2552
3232.87	0.2529
3241.92	0.2653
3250.97	0.2885
3260.02	0.3136
3269.07	0.3516
3278.11	0.3807
3287.16	0.3893
3296.21	0.384
3305.26	0.3742
3314.3	0.3665
3323.35	0.3718
3332.4	0.4055
3341.45	0.418
3350.49	0.4092
3359.54	0.3818
3368.59	0.3507
3377.64	0.3367
3386.68	0.3585
3395.73	0.4531
3404.78	0.5246
3413.83	0.544
3422.87	0.5466
3431.92	0.5446
3440.97	0.5438
3450.02	0.5457
3459.06	0.5462
3468.11	0.5411
3477.16	0.5374
3486.21	0.5349
3495.25	0.5339
3504.3	0.5327
3513.35	0.5312
3522.4	0.5293
3531.44	0.5275
3540.49	0.5254
3549.54	0.5228
3558.59	0.521
3567.63	0.5196
3576.68	0.5149
3585.73	0.5141
3594.78	0.5138
3603.82	0.5135
3612.87	0.5133
3621.92	0.5142
3630.97	0.5175
3640.01	0.5145
3649.06	0.5075
3658.11	0.5062
3667.16	0.508
3676.2	0.5091
3685.25	0.5097
3694.3	0.5097
3703.35	0.5097
3712.39	0.5095
3721.44	0.5087
3730.49	0.507
3739.54	0.5026
3748.58	0.4975
3757.63	0.4964
3766.68	0.4959
3775.73	0.494
3784.78	0.4869
3793.82	0.4851
3802.87	0.4844
3811.92	0.4838
3820.97	0.4844
3830.01	0.484
3839.06	0.4799
3848.11	0.4802
3857.16	0.484
3866.2	0.4838
3875.25	0.4768
3884.3	0.4749
3893.35	0.4745
3902.39	0.4739
3911.44	0.4731
3920.49	0.472
3929.54	0.4698
3938.58	0.465
3947.63	0.4667
3956.68	0.4712
3965.73	0.4698
3974.77	0.4668
3983.82	0.4635
3992.87	0.4594
4001.92	0.4543
4010.96	0.4461
