Infrared Spectrum: Bromacil
Formula: C 9 H 13 Br N 2 O 2
CAS: 314-40-9
State: gas
Instrument: HP-GC/MS/IRD
Origin: NIST Mass Spectrometry Data Center
1/CM	ABSORBANCE
550	0.0007632
562	0.0014304
574	0.0014352
586	0.0007704
598	0.000312
610	0.000228
622	0.0002208
634	0.0003504
646	0.000672
658	0.0004368
670	0.000336
682	0.0004704
694	0.0005232
706	0.0003408
718	0.000336
730	0.0004848
742	0.0011496
754	0.0018144
766	0.0021216
778	0.000684
790	0.0004128
802	0.0005208
814	0.000444
826	0.0002784
838	0.000252
850	0.0003336
862	0.0003792
874	0.0002352
886	0.0002592
898	0.000228
910	0.0002736
922	0.0002328
934	0.0002616
946	0.0003336
958	0.0005448
970	0.0006384
982	0.000612
994	0.0006456
1006	0.0006696
1018	0.0007584
1030	0.0006576
1042	0.0010488
1054	0.0015792
1066	0.0026064
1078	0.0021672
1090	0.0015
1102	0.001284
1114	0.000996
1126	0.0009096
1138	0.0007872
1150	0.0005688
1162	0.000576
1174	0.0005952
1186	0.0005928
1198	0.0004464
1210	9.6e-05
1222	6.72e-05
1234	0.0001776
1246	0.0002808
1258	0.0006672
1270	0.0014688
1282	0.0013008
1294	0.0010608
1306	0.0009408
1318	0.0009696
1330	0.0010272
1342	0.0014136
1354	0.0032808
1366	0.0054504
1378	0.0059976
1390	0.0054288
1402	0.00414
1414	0.0044208
1426	0.0024312
1438	0.0016608
1450	0.0026832
1462	0.0041232
1474	0.0028824
1486	0.0013968
1498	0.0010824
1510	0.0011376
1522	0.0009552
1534	0.000672
1546	0.0005184
1558	0.0005136
1570	0.00054
1582	0.000564
1594	0.0006504
1606	0.000864
1618	0.00126
1630	0.0023184
1642	0.0049272
1654	0.0036096
1666	0.0028296
1678	0.0052896
1690	0.0181776
1702	0.0201576
1714	0.0056592
1726	0.0062544
1738	0.018324
1750	0.0082368
1762	0.0021216
1774	0.0011496
1786	0.000732
1798	0.0005232
1810	0.0004296
1822	0.0003336
1834	0.0002736
1846	0.0002304
1858	0.000192
1870	0.0001848
1882	0.000216
1894	0.0001944
1906	0.0001968
1918	0.0001632
1930	0.0001392
1942	0.0001176
1954	0.0001224
1966	0.000108
1978	0.0001056
1990	0.0001008
2002	9.84e-05
2014	9.6e-05
2026	0.000108
2038	9.36e-05
2050	9.6e-05
2062	6.48e-05
2074	7.44e-05
2086	8.16e-05
2098	8.4e-05
2110	6e-05
2122	7.2e-05
2134	7.44e-05
2146	6.72e-05
2158	9.6e-05
2170	7.92e-05
2182	8.4e-05
2194	6.24e-05
2206	7.2e-05
2218	6.48e-05
2230	6.72e-05
2242	6.96e-05
2254	4.8e-05
2266	5.28e-05
2278	6.48e-05
2290	6.48e-05
2302	4.08e-05
2314	5.04e-05
2326	4.8e-05
2338	5.52e-05
2350	6.24e-05
2362	8.88e-05
2374	6.24e-05
2386	7.92e-05
2398	6.96e-05
2410	5.52e-05
2422	5.76e-05
2434	5.28e-05
2446	4.8e-05
2458	4.08e-05
2470	4.8e-05
2482	4.8e-05
2494	5.76e-05
2506	4.8e-05
2518	4.32e-05
2530	3.36e-05
2542	4.08e-05
2554	3.12e-05
2566	3.36e-05
2578	5.52e-05
2590	4.08e-05
2602	6.48e-05
2614	3.84e-05
2626	9.6e-06
2638	4.32e-05
2650	2.88e-05
2662	3.6e-05
2674	4.32e-05
2686	1.92e-05
2698	6.72e-05
2710	9.84e-05
2722	0.0001032
2734	0.0001128
2746	0.0001368
2758	0.0001104
2770	0.0001176
2782	0.00012
2794	0.0001416
2806	0.000144
2818	0.0001632
2830	0.0002232
2842	0.0002832
2854	0.0003072
2866	0.0004416
2878	0.0009192
2890	0.0011856
2902	0.000864
2914	0.0009216
2926	0.001404
2938	0.0020112
2950	0.0017424
2962	0.0017568
2974	0.0034584
2986	0.0020136
2998	0.00084
3010	0.0006216
3022	0.0003648
3034	0.0003096
3046	0.0002088
3058	0.0002184
3070	0.0001272
3082	0.0001512
3094	0.0001272
3106	0.0001512
3118	0.000132
3130	0.0001248
3142	0.000168
3154	0.0001296
3166	0.0001176
3178	0.000108
3190	9.84e-05
3202	6.48e-05
3214	6.96e-05
3226	7.2e-05
3238	6.48e-05
3250	4.8e-05
3262	5.76e-05
3274	7.68e-05
3286	0.0001008
3298	4.08e-05
3310	2.4e-05
3322	6.72e-05
3334	6.96e-05
3346	8.16e-05
3358	0.0001248
3370	0.0001896
3382	0.0002136
3394	0.0001656
3406	0.00018
3418	0.0002376
3430	0.0003696
3442	0.0008376
3454	0.0027504
3466	0.002892
3478	0.000804
3490	0.0002688
3502	0.0001032
3514	9.36e-05
3526	7.92e-05
3538	0
3550	2.16e-05
3562	9.36e-05
3574	4.08e-05
3586	5.76e-05
3598	6.96e-05
3610	1.44e-05
3622	3.36e-05
3634	7.2e-05
3646	6.72e-05
3658	4.08e-05
3670	5.52e-05
3682	6e-05
3694	5.76e-05
3706	1.92e-05
3718	7.92e-05
3730	6.96e-05
3742	5.04e-05
3754	6.96e-05
3766	3.84e-05
3778	7.68e-05
3790	7.2e-05
3802	9.12e-05
3814	6.24e-05
3826	0.000156
3838	8.88e-05
