Infrared Spectrum: Ethylthiocarbamic acid, 2-formylhydrazide
Formula: C4 H9 N3 O S
CAS: 31409-15-1
State: SOLID (SPLIT MULL)
Melting point: 154-155 C
Class: COBLENTZ II
Instrument: DOW KBr FOREPRISM-GRATING
Instrument parameters: BLAZED AT 3.5, 12.0, 20.0 MICRON AND CHANGED AT 5.0, 7.5, 14.9 MICRON
Sampling: TRANSMISSION
Resolution: 2
Origin: DOW CHEMICAL COMPANY
1/CM	TRANSMITTANCE
3800	0.7911
3791	0.7918
3782	0.7925
3773	0.7934
3764	0.7942
3755	0.7951
3746	0.796
3737	0.7968
3728	0.7978
3719	0.7989
3710	0.8
3701	0.8012
3692	0.8025
3683	0.8038
3674	0.8048
3665	0.8057
3656	0.8065
3647	0.8068
3638	0.8071
3629	0.808
3620	0.809
3611	0.8097
3602	0.8105
3593	0.8111
3584	0.8092
3575	0.7985
3566	0.8075
3557	0.8103
3548	0.81
3539	0.8103
3530	0.8108
3521	0.8121
3512	0.8138
3503	0.8154
3494	0.8175
3485	0.8196
3476	0.8217
3467	0.8228
3458	0.824
3449	0.8252
3440	0.8262
3431	0.8271
3422	0.8275
3413	0.8264
3404	0.8247
3395	0.8201
3386	0.8144
3377	0.8078
3368	0.7991
3359	0.7878
3350	0.7682
3341	0.7339
3332	0.7048
3323	0.6472
3314	0.5316
3305	0.3872
3296	0.2269
3287	0.2004
3278	0.2484
3269	0.3724
3260	0.4309
3251	0.4588
3242	0.474
3233	0.4824
3224	0.4862
3215	0.4881
3206	0.4862
3197	0.4794
3188	0.4577
3179	0.4223
3170	0.3843
3161	0.3612
3152	0.3573
3143	0.3675
3134	0.3868
3125	0.4147
3116	0.4698
3107	0.5091
3098	0.5319
3089	0.5435
3080	0.5517
3071	0.5578
3062	0.5669
3053	0.5776
3044	0.5929
3035	0.6044
3026	0.6097
3017	0.6092
3008	0.6015
2999	0.5809
2990	0.5345
2981	0.497
2972	0.4066
2963	0.4857
2954	0.527
2945	0.547
2936	0.5441
2927	0.5398
2918	0.5469
2909	0.5589
2900	0.5721
2891	0.5859
2882	0.6068
2873	0.6169
2864	0.629
2855	0.6464
2846	0.6614
2837	0.6734
2828	0.6831
2819	0.6926
2810	0.7006
2801	0.7078
2792	0.715
2783	0.7215
2774	0.728
2765	0.7343
2756	0.7403
2747	0.7462
2738	0.7522
2729	0.7581
2720	0.7607
2711	0.7611
2702	0.7637
2693	0.7661
2684	0.7688
2675	0.7718
2666	0.7749
2657	0.7778
2648	0.7803
2639	0.7828
2630	0.7853
2621	0.7875
2612	0.7896
2603	0.7915
2594	0.7937
2585	0.7957
2576	0.7975
2567	0.7993
2558	0.8011
2549	0.8028
2540	0.8045
2531	0.8054
2522	0.8064
2513	0.8072
2504	0.8078
2495	0.8081
2486	0.8085
2477	0.8088
2468	0.8091
2459	0.8094
2450	0.8097
2441	0.8099
2432	0.8103
2423	0.8105
2414	0.8108
2405	0.8111
2396	0.8115
2387	0.8118
2378	0.8124
2369	0.8131
2360	0.8124
2351	0.8114
2342	0.8111
2333	0.8115
2324	0.8114
2315	0.8104
2306	0.8089
2297	0.8108
2288	0.8138
2279	0.8175
2270	0.8212
2261	0.824
2252	0.8267
2243	0.8293
2234	0.832
2225	0.8343
2216	0.8366
2207	0.8388
2198	0.8411
2189	0.843
2180	0.8447
2171	0.8464
2162	0.8481
2153	0.8497
2144	0.8516
2135	0.8534
2126	0.8553
2117	0.857
2108	0.8575
2099	0.8581
2090	0.8586
2081	0.859
2072	0.8595
2063	0.8599
2054	0.8596
2045	0.8593
2036	0.8591
2027	0.8588
2018	0.8588
2009	0.8589
2000	0.8607
1991	0.8674
1982	0.8698
1973	0.8711
1964	0.872
1955	0.8721
1946	0.8717
1937	0.8712
1928	0.8711
1919	0.8712
1910	0.8721
1901	0.8732
1892	0.8742
1883	0.8752
1874	0.8753
1865	0.8749
1856	0.8749
1847	0.875
1838	0.8747
1829	0.8739
1820	0.8736
1811	0.874
1802	0.8733
1793	0.8724
1784	0.8714
1775	0.8705
1766	0.8677
1757	0.8647
1748	0.8603
1739	0.8544
1730	0.8423
1721	0.8255
1712	0.8018
1703	0.7355
1694	0.5638
1685	0.208
1676	0.0348
1667	0.4022
1658	0.5832
1649	0.5988
1640	0.6854
1631	0.7058
1622	0.7171
1613	0.7332
1604	0.7372
1595	0.7245
1586	0.6894
1577	0.6003
1568	0.3814
1559	0.3071
1550	0.4515
1541	0.5326
1532	0.6053
1523	0.5227
1514	0.5339
1505	0.626
1496	0.5505
1487	0.5327
1478	0.6491
1469	0.6846
1460	0.721
1451	0.7211
1442	0.7178
1433	0.7451
1424	0.7428
1415	0.7017
1406	0.6521
1397	0.6935
1388	0.5168
1379	0.4319
1370	0.6645
1361	0.7021
1352	0.6932
1343	0.6742
1334	0.6694
1325	0.5803
1316	0.5245
1307	0.6123
1298	0.5959
1289	0.5676
1280	0.6047
1271	0.6345
1262	0.6169
1253	0.6997
1244	0.7415
1235	0.7594
1226	0.7628
1217	0.743
1208	0.6428
1199	0.4781
1190	0.4475
1181	0.5738
1172	0.6545
1163	0.6604
1154	0.565
1145	0.6587
1136	0.7292
1127	0.7371
1118	0.7019
1109	0.7188
1100	0.7564
1091	0.7814
1082	0.7883
1073	0.7796
1064	0.6179
1055	0.7674
1046	0.7988
1037	0.8044
1028	0.7928
1019	0.8198
1010	0.7917
1001	0.8185
992	0.8289
983	0.8302
974	0.8271
965	0.8224
956	0.8141
947	0.8197
938	0.8257
929	0.8297
920	0.8336
911	0.837
902	0.8387
893	0.8352
884	0.8398
875	0.8371
866	0.8257
857	0.7793
848	0.6255
839	0.7781
830	0.8198
821	0.8232
812	0.7965
803	0.8151
794	0.8231
785	0.8087
776	0.8076
767	0.8145
758	0.8188
749	0.8095
740	0.7858
731	0.7565
722	0.7228
713	0.7656
704	0.7803
695	0.7891
686	0.7925
677	0.7934
668	0.7872
659	0.7828
650	0.7753
641	0.7591
632	0.7253
623	0.7046
614	0.693
605	0.6757
596	0.6605
587	0.632
578	0.5615
569	0.6406
560	0.6978
551	0.7101
542	0.706
533	0.7003
524	0.6951
515	0.6965
506	0.7011
497	0.7138
488	0.7246
479	0.7361
470	0.7292
461	0.6951
