Infrared Spectrum: 2,3,4-Tribromothiophene
Formula: C 4 H Br 3 S
CAS: 3141-25-1
State: gas
Origin: EPA-IR VAPOR PHASE LIBRARY
1/CM	ABSORBANCE
549.8	0.002168
559.445	0.001938
569.09	0.001748
578.734	0.0007936
588.379	0.001788
598.024	0.0011138
607.669	0.003778
617.313	0.009278
626.958	0.004618
636.603	0.0012222
646.248	0.002068
655.893	0.003008
665.537	0.003168
675.182	0.008088
684.827	0.011018
694.472	0.011798
704.116	0.038488
713.761	0.097338
723.406	0.124008
733.051	0.067548
742.695	0.007978
752.34	0.002548
761.985	0.002458
771.63	0.001728
781.275	0.001848
790.919	0.002068
800.564	0.0016402
810.209	0.002858
819.854	0.006858
829.498	0.013988
839.143	0.020798
848.788	0.016398
858.433	0.009498
868.078	0.048208
877.722	0.147768
887.367	0.084318
897.012	0.015828
906.657	0.007108
916.301	0.003468
925.946	0.003608
935.591	0.005518
945.236	0.005718
954.88	0.002698
964.525	0.001768
974.17	0.0013973
983.815	0.002018
993.46	0.005358
1003.1	0.010278
1012.75	0.004168
1022.39	0.0015256
1032.04	0.0010754
1041.68	0.0016103
1051.33	0.001788
1060.97	0.003908
1070.62	0.004418
1080.26	0.008468
1089.91	0.003608
1099.55	0.003208
1109.2	0.004588
1118.84	0.014238
1128.49	0.036808
1138.13	0.015668
1147.78	0.004618
1157.42	0.001998
1167.07	0.0011596
1176.71	0.002198
1186.36	0.002528
1196	0.003418
1205.64	0.001978
1215.29	0.001898
1224.93	0.004328
1234.58	0.010708
1244.22	0.006778
1253.87	0.003898
1263.51	0.005278
1273.16	0.013038
1282.8	0.034268
1292.45	0.077288
1302.09	0.135518
1311.74	0.097628
1321.38	0.011298
1331.03	0.005418
1340.67	0.006898
1350.32	0.004448
1359.96	0.003448
1369.61	0.003828
1379.25	0.004898
1388.9	0.013098
1398.54	0.030708
1408.18	0.022048
1417.83	0.006978
1427.47	0.005798
1437.12	0.007418
1446.76	0.022588
1456.41	0.021628
1466.05	0.013278
1475.7	0.038828
1485.34	0.078618
1494.99	0.026218
1504.63	0.004848
1514.28	0.006448
1523.92	0.005698
1533.57	0.002228
1543.21	0.001788
1552.86	0.001808
1562.5	0.0014874
1572.15	0.0013337
1581.79	0.0012389
1591.44	0.0014681
1601.08	0.0014505
1610.73	0.0012575
1620.37	0.0012382
1630.01	0.0012938
1639.66	0.0014352
1649.3	0.0015867
1658.95	0.001988
1668.59	0.001908
1678.24	0.001868
1687.88	0.001938
1697.53	0.001998
1707.17	0.001718
1716.82	0.0015114
1726.46	0.0013294
1736.11	0.0011723
1745.75	0.0010537
1755.4	0.0010293
1765.04	0.0009685
1774.69	0.0008366
1784.33	0.0008961
1793.98	0.0009516
1803.62	0.0010102
1813.27	0.0010742
1822.91	0.0011869
1832.55	0.0014649
1842.2	0.0016176
1851.84	0.001372
1861.49	0.0011922
1871.13	0.00098
1880.78	0.0010169
1890.42	0.0009038
1900.07	0.0008131
1909.71	0.0009413
1919.36	0.0008458
1929	0.0008525
1938.65	0.0010962
1948.29	0.0011605
1957.94	0.0013028
1967.58	0.0015994
1977.23	0.0016074
1986.87	0.0014405
1996.52	0.0014653
2006.16	0.001598
2015.81	0.0012996
2025.45	0.0010625
2035.1	0.0009765
2044.74	0.0008545
2054.38	0.0009164
2064.03	0.0008391
2073.67	0.0008374
2083.32	0.0009831
2092.96	0.00075326
2102.61	0.0008414
2112.25	0.0012155
2121.9	0.00122
2131.54	0.0012308
2141.19	0.0010308
2150.83	0.0011132
2160.48	0.0010545
2170.12	0.0009824
2179.77	0.0010213
2189.41	0.0011222
2199.06	0.0009934
2208.7	0.0010021
2218.35	0.0009692
2227.99	0.0009408
2237.64	0.0012245
2247.28	0.0016863
2256.92	0.0016234
2266.57	0.001361
2276.21	0.0012922
2285.86	0.0013731
2295.5	0.0011432
2305.15	0.0011148
2314.79	0.0010528
2324.44	0.0012035
2334.08	0.0009555
2343.73	0.0009093
2353.37	0.0010066
2363.02	0.000941
2372.66	0.0012191
2382.31	0.0011913
2391.95	0.0012265
2401.6	0.0014015
2411.24	0.0012961
2420.89	0.0015287
2430.53	0.001339
2440.18	0.0010804
2449.82	0.0009433
2459.47	0.0009467
2469.11	0.0010065
2478.75	0.0010493
2488.4	0.0010152
2498.04	0.0008664
2507.69	0.0011786
2517.33	0.00077338
2526.98	0.000690742
2536.62	0.00078095
2546.27	0.0010196
2555.91	0.0006623
2565.56	0.0008999
2575.2	0.0008165
2584.85	0.0009282
2594.49	0.0009233
2604.14	0.0011634
2613.78	0.0008377
2623.43	0.0008267
2633.07	0.0009761
2642.72	0.0008981
2652.36	0.0009922
2662.01	0.0011365
2671.65	0.000962
2681.29	0.00073859
2690.94	0.0009311
2700.58	0.0008007
2710.23	0.0008605
2719.87	0.0008702
2729.52	0.00075672
2739.16	0.0008314
2748.81	0.00075643
2758.45	0.0010019
2768.1	0.0010281
2777.74	0.0009098
2787.39	0.0012638
2797.03	0.0010201
2806.68	0.0009664
2816.32	0.0008678
2825.97	0.0008246
2835.61	0.00076981
2845.26	0.0009701
2854.9	0.000828
2864.55	0.001016
2874.19	0.0008661
2883.84	0.0009082
2893.48	0.00071121
2903.12	0.0009395
2912.77	0.0006561
2922.41	0.00098
2932.06	0.000539
2941.7	0.0007855
2951.35	0.0008303
2960.99	0.0006757
2970.64	0.0007953
2980.28	0.00072359
2989.93	0.0006478
2999.57	0.0009204
3009.22	0.0006764
3018.86	0.0006228
3028.51	0.0005946
3038.15	0.00075962
3047.8	0.000578
3057.44	0.0008056
3067.09	0.0008509
3076.73	0.0008865
3086.38	0.0010116
3096.02	0.0014246
3105.67	0.004138
3115.31	0.008878
3124.95	0.020118
3134.6	0.006618
3144.24	0.0014214
3153.89	0.00073469
3163.53	0.00076615
3173.18	0.000533
3182.82	0.0006153
3192.47	0.0006681
3202.11	0.00068038
3211.76	0.0005895
3221.4	0.000378
3231.05	0.00076137
3240.69	0.000689537
3250.34	0.000323
3259.98	0.00052
3269.63	0.00067807
3279.27	0.00068596
3288.92	0.0006518
3298.56	0.0006505
3308.21	0.000424
3317.85	0.00054
3327.49	0.000527
3337.14	0.000575
3346.78	0.0006587
3356.43	0.000543
3366.07	0.000568
3375.72	0.00045
3385.36	0.000541
3395.01	0.0008007
3404.65	0.000542
3414.3	0.0008693
3423.94	0.000695619
3433.59	0.00076034
3443.23	0.0005
3452.88	0.000533
3462.52	0.000516
3472.17	0.0008563
3481.81	0.00073746
3491.46	0.000963
3501.1	0.0006675
3510.75	0.0008462
3520.39	0.0006842
3530.04	0.000513
3539.68	0.000693556
3549.32	0.000521
3558.97	0.0006265
3568.61	0.00074533
3578.26	0.0008666
3587.9	0.0007937
3597.55	0.0006558
3607.19	0.0008628
3616.84	0.000292
3626.48	0.0006482
3636.13	0.0008238
3645.77	0.0006253
3655.42	0.000434
3665.06	0.0005906
3674.71	0.000445
3684.35	0.00075127
3694	0.000442
3703.64	0.00048
3713.29	0.0009729
3722.93	0.000318
3732.58	0.00045
3742.22	0.00070744
3751.86	0.000314
3761.51	0.0006658
3771.15	0.000276
3780.8	0.000171
3790.44	0.0005932
3800.09	0.000479
3809.73	0.000775
3819.38	0.0005924
3829.02	0.0010285
3838.67	0.001053
3848.31	0.0009667
3857.96	0.000354
3867.6	0.000221
3877.25	0.000367
3886.89	0.0006613
3896.54	0.00071749
3906.18	0.00041
3915.83	0.0009309
3925.47	0.0006453
3935.12	0.0006689
3944.76	0.000381
3954.41	0.000574
3964.05	0.00071718
3973.69	0.0008786
3983.34	0.00076823
3992.98	0.0011057
