Infrared Spectrum: NORBORNANE, 2,3-EPOXY-,EXO-
Formula: C7 H10 O
CAS: 3146-39-2
State: SOLUTION (10% CCl4 FOR 4000-1200, 10% CS2 FOR 1200-450 CM^-^1) VS SOLVENT
Class: COBLENTZ III
Instrument: CARY 90 (GRATING)
Instrument parameters: ORDER CHANGES: 3000, 2000, 1200 CM^-^1
Sampling: TRANSMISSION
Path length: 0.009 CM, AND 0.009 CM
Resolution: 2
Origin: WESTERN REGIONAL RES. USDA
1/CM	TRANSMITTANCE
4018	0.8933
4009.03	0.8921
4000.07	0.8909
3991.1	0.8901
3982.13	0.8895
3973.16	0.8892
3964.2	0.8889
3955.23	0.889
3946.26	0.8893
3937.29	0.8895
3928.33	0.8897
3919.36	0.8897
3910.39	0.8897
3901.42	0.8898
3892.46	0.8898
3883.49	0.8899
3874.52	0.8899
3865.56	0.89
3856.59	0.8901
3847.62	0.8905
3838.65	0.8908
3829.69	0.8913
3820.72	0.8917
3811.75	0.892
3802.78	0.8921
3793.82	0.8925
3784.85	0.8928
3775.88	0.8932
3766.91	0.8936
3757.95	0.894
3748.98	0.8944
3740.01	0.8949
3731.05	0.8952
3722.08	0.8957
3713.11	0.896
3704.14	0.8964
3695.18	0.8966
3686.21	0.8967
3677.24	0.8968
3668.27	0.8968
3659.31	0.897
3650.34	0.8974
3641.37	0.8977
3632.4	0.8981
3623.44	0.8982
3614.47	0.8965
3605.5	0.8947
3596.54	0.8931
3587.57	0.8921
3578.6	0.891
3569.63	0.89
3560.67	0.8893
3551.7	0.8896
3542.73	0.8899
3533.76	0.8903
3524.8	0.8905
3515.83	0.8907
3506.86	0.8909
3497.89	0.8911
3488.93	0.8918
3479.96	0.8928
3470.99	0.8937
3462.03	0.8947
3453.06	0.8956
3444.09	0.8966
3435.12	0.8981
3426.16	0.8998
3417.19	0.9014
3408.22	0.9023
3399.25	0.9031
3390.29	0.9039
3381.32	0.904
3372.35	0.9038
3363.38	0.9032
3354.42	0.9027
3345.45	0.9021
3336.48	0.9017
3327.52	0.9014
3318.55	0.9009
3309.58	0.9005
3300.61	0.9007
3291.65	0.9013
3282.68	0.9018
3273.71	0.902
3264.74	0.9021
3255.78	0.9025
3246.81	0.903
3237.84	0.9003
3228.87	0.8975
3219.91	0.8948
3210.94	0.893
3201.97	0.8934
3193	0.8939
3184.04	0.8946
3175.07	0.8958
3166.1	0.8971
3157.14	0.8973
3148.17	0.8971
3139.2	0.8968
3130.23	0.8964
3121.27	0.8954
3112.3	0.8936
3103.33	0.8909
3094.36	0.8872
3085.4	0.8819
3076.43	0.8717
3067.46	0.85
3058.49	0.8264
3049.53	0.7346
3040.56	0.598
3031.59	0.5326
3022.63	0.6213
3013.66	0.659
3004.69	0.547
2995.72	0.4038
2986.76	0.2607
2977.79	0.1656
2968.82	0.1725
2959.85	0.1948
2950.89	0.342
2941.92	0.5004
2932.95	0.5431
2923.98	0.5542
2915.02	0.6608
2906.05	0.7099
2897.08	0.7548
2888.12	0.7071
2879.15	0.3108
2870.18	0.4768
2861.21	0.7075
2852.25	0.8363
2843.28	0.8616
2834.31	0.8714
2825.34	0.8752
2816.38	0.8783
2807.41	0.8807
2798.44	0.8818
2789.47	0.8821
2780.51	0.8815
2771.54	0.8799
2762.57	0.8774
2753.61	0.8749
2744.64	0.8729
2735.67	0.8718
2726.7	0.8723
2717.74	0.8727
2708.77	0.873
2699.8	0.8728
2690.83	0.8728
2681.87	0.8727
2672.9	0.8727
2663.93	0.873
2654.96	0.8732
2646	0.8736
2637.03	0.8738
2628.06	0.874
2619.1	0.8737
2610.13	0.8735
2601.16	0.8733
2592.19	0.873
2583.23	0.8727
2574.26	0.8724
2565.29	0.8719
2556.32	0.8716
2547.36	0.8711
2538.39	0.8707
2529.42	0.8702
2520.45	0.8698
2511.49	0.8694
2502.52	0.8695
2493.55	0.8695
2484.59	0.8696
2475.62	0.8695
2466.65	0.8694
2457.68	0.8693
2448.72	0.8688
2439.75	0.868
2430.78	0.8671
2421.81	0.8663
2412.85	0.8651
2403.88	0.864
2394.91	0.8636
2385.94	0.8632
2376.98	0.8628
2368.01	0.8624
2359.04	0.8618
2350.08	0.8614
2341.11	0.8605
2332.14	0.8594
2323.17	0.8582
2314.21	0.858
2305.24	0.858
2296.27	0.8586
2287.3	0.8594
2278.34	0.8594
2269.37	0.8591
2260.4	0.8593
2251.43	0.8599
2242.47	0.8605
2233.5	0.8611
2224.53	0.8614
2215.57	0.8612
2206.6	0.8602
2197.63	0.8617
2188.66	0.8603
2179.7	0.8587
2170.73	0.8593
2161.76	0.8598
2152.79	0.8602
2143.83	0.8607
2134.86	0.8599
2125.89	0.8575
2116.92	0.8555
2107.96	0.856
2098.99	0.8575
2090.02	0.8585
2081.06	0.858
2072.09	0.8563
2063.12	0.855
2054.15	0.8549
2045.19	0.8549
2036.22	0.8552
2027.25	0.8547
2018.28	0.8538
2009.32	0.8531
2000.35	0.8523
1991.38	0.8344
1982.41	0.831
1973.45	0.8333
1964.48	0.8365
1955.51	0.8339
1946.55	0.8306
1937.58	0.8302
1928.61	0.8322
1919.64	0.8351
1910.68	0.8357
1901.71	0.833
1892.74	0.834
1883.77	0.8381
1874.81	0.8318
1865.84	0.8346
1856.87	0.8354
1847.9	0.8334
1838.94	0.8296
1829.97	0.8284
1821	0.8295
1812.03	0.8316
1803.07	0.8309
1794.1	0.8264
1785.13	0.8266
1776.17	0.8296
1767.2	0.8304
1758.23	0.8244
1749.26	0.8164
1740.3	0.8073
1731.33	0.8016
1722.36	0.8089
1713.39	0.827
1704.43	0.826
1695.46	0.8285
1686.49	0.8305
1677.52	0.8284
1668.56	0.8287
1659.59	0.831
1650.62	0.8317
1641.66	0.8309
1632.69	0.8299
1623.72	0.8269
1614.75	0.8207
1605.79	0.8177
1596.82	0.8143
1587.85	0.8107
1578.88	0.8086
1569.92	0.8061
1560.95	0.8039
1551.98	0.8004
1543.01	0.7984
1534.05	0.8017
1525.08	0.8077
1516.11	0.8085
1507.15	0.8055
1498.18	0.8022
1489.21	0.7977
1480.24	0.7916
1471.28	0.6228
1462.31	0.7607
1453.34	0.7515
1444.37	0.6521
1435.41	0.7743
1426.44	0.8001
1417.47	0.8146
1408.5	0.8163
1399.54	0.7896
1390.57	0.6999
1381.6	0.7238
1372.64	0.553
1363.67	0.7597
1354.7	0.808
1345.73	0.8166
1336.77	0.8111
1327.8	0.804
1318.83	0.6861
1309.86	0.7616
1300.9	0.7051
1291.93	0.6439
1282.96	0.7204
1273.99	0.7725
1265.03	0.7559
1256.06	0.7525
1247.09	0.7796
1238.13	0.7825
1229.16	0.7834
1220.19	0.6065
1211.22	0.7726
1202.26	0.8018
1193.29	0.8035
1184.32	0.7987
1175.35	0.7385
1166.39	0.7775
1157.42	0.7395
1148.45	0.7993
1139.48	0.7983
1130.52	0.766
1121.55	0.4461
1112.58	0.7471
1103.62	0.7992
1094.65	0.7764
1085.68	0.7876
1076.71	0.8047
1067.75	0.8
1058.78	0.8228
1049.81	0.8258
1040.84	0.8134
1031.88	0.7922
1022.91	0.4253
1013.94	0.7201
1004.97	0.7818
996.007	0.7719
987.04	0.2688
978.073	0.543
969.105	0.5559
960.138	0.7553
951.171	0.7541
942.203	0.7972
933.236	0.7968
924.269	0.7104
915.301	0.7261
906.334	0.7545
897.367	0.6957
888.399	0.7796
879.432	0.6875
870.464	0.4131
861.497	0.4616
852.53	0.2386
843.562	0.0261
834.595	0.6212
825.628	0.735
816.66	0.7787
807.693	0.7868
798.726	0.7837
789.758	0.8039
780.791	0.8067
771.824	0.7953
762.856	0.4453
753.889	0.6715
744.922	0.7933
735.954	0.8365
726.987	0.8389
718.02	0.8393
709.052	0.8389
700.085	0.8388
691.118	0.8383
682.15	0.8381
673.183	0.8369
664.216	0.8236
655.248	0.8195
646.281	0.8152
637.314	0.8185
628.346	0.8182
619.379	0.8171
610.412	0.8186
601.444	0.821
592.477	0.8225
583.51	0.8196
574.542	0.8073
565.575	0.8039
556.608	0.7796
547.64	0.2851
538.673	0.7472
529.706	0.8078
520.738	0.8206
511.771	0.8175
502.804	0.817
493.836	0.7986
484.869	0.7905
475.902	0.7991
466.934	0.8091
457.967	0.4163
