Infrared Spectrum: Propionic acid, 2-(diisopropylphosphono)-, methyl ester
Formula: C10 H21 O5 P
CAS: 31460-07-8
State: LIQUID (NEAT)
Class: COBLENTZ III
Instrument: PERKIN-ELMER 21 (GRATING)
Instrument parameters: FILTER CHANGE ABOUT 1090 CM^-^1
Sampling: TRANSMISSION
Path length: CAPILLARY
Resolution: 2
Origin: SOUTHERN RESEARCH INSTITUTE
1/CM	TRANSMITTANCE
607	0.7529
616	0.7545
625	0.7652
634	0.785
643	0.8158
652	0.8379
661	0.8605
670	0.8838
679	0.8959
688	0.8917
697	0.8798
706	0.862
715	0.8499
724	0.8593
733	0.8581
742	0.8411
751	0.806
760	0.7709
769	0.7334
778	0.7411
787	0.789
796	0.8011
805	0.764
814	0.7613
823	0.7968
832	0.787
841	0.7774
850	0.7542
859	0.7497
868	0.7242
877	0.7255
886	0.641
895	0.5867
904	0.6725
913	0.688
922	0.6898
931	0.6699
940	0.6551
949	0.6514
958	0.6001
967	0.4627
976	0.328
985	0.088
994	0.0639
1003	0.08
1012	0.0968
1021	0.1421
1030	0.311
1039	0.5008
1048	0.6148
1057	0.6384
1066	0.6507
1075	0.6716
1084	0.5858
1093	0.6171
1102	0.4451
1111	0.2627
1120	0.3913
1129	0.5119
1138	0.4941
1147	0.369
1156	0.4504
1165	0.4757
1174	0.4247
1183	0.3813
1192	0.472
1201	0.5429
1210	0.5802
1219	0.5751
1228	0.4965
1237	0.373
1246	0.2588
1255	0.1897
1264	0.1785
1273	0.2584
1282	0.3757
1291	0.4974
1300	0.5521
1309	0.5384
1318	0.5211
1327	0.5675
1336	0.612
1345	0.6283
1354	0.6163
1363	0.6118
1372	0.6026
1381	0.4101
1390	0.4133
1399	0.5838
1408	0.6589
1417	0.6799
1426	0.6754
1435	0.6646
1444	0.5943
1453	0.578
1462	0.5062
1471	0.4939
1480	0.63
1489	0.692
1498	0.7101
1507	0.719
1516	0.7233
1525	0.7244
1534	0.7243
1543	0.7251
1552	0.7251
1561	0.7236
1570	0.7211
1579	0.7179
1588	0.7166
1597	0.7126
1606	0.7072
1615	0.7058
1624	0.6858
1633	0.6812
1642	0.6795
1651	0.6841
1660	0.6864
1669	0.6835
1678	0.6789
1687	0.6722
1696	0.6538
1705	0.6217
1714	0.5682
1723	0.3295
1732	0.2171
1741	0.2416
1750	0.4066
1759	0.5485
1768	0.6207
1777	0.6541
1786	0.6752
1795	0.6862
1804	0.6942
1813	0.6976
1822	0.6989
1831	0.7005
1840	0.7036
1849	0.703
1858	0.6974
1867	0.6959
1876	0.6953
1885	0.6957
1894	0.696
1903	0.6962
1912	0.7012
1921	0.7012
1930	0.6999
1939	0.699
1948	0.6983
1957	0.6976
1966	0.6968
1975	0.6959
1984	0.694
1993	0.6921
2002	0.6908
2011	0.6899
2020	0.6906
2029	0.6913
2038	0.6858
2047	0.6927
2056	0.691
2065	0.6888
2074	0.6848
2083	0.6806
2092	0.6841
2101	0.6862
2110	0.6841
2119	0.6808
2128	0.6773
2137	0.6787
2146	0.6809
2155	0.6858
2164	0.6888
2173	0.6899
2182	0.6893
2191	0.6879
2200	0.6857
2209	0.6828
2218	0.6808
2227	0.6795
2236	0.6782
2245	0.6771
2254	0.6764
2263	0.6758
2272	0.6756
2281	0.6764
2290	0.6783
2299	0.6827
2308	0.6857
2317	0.6862
2326	0.6853
2335	0.6818
2344	0.6795
2353	0.6788
2362	0.6789
2371	0.6792
2380	0.6807
2389	0.683
2398	0.683
2407	0.6824
2416	0.6812
2425	0.6799
2434	0.6792
2443	0.6785
2452	0.6773
2461	0.6759
2470	0.6739
2479	0.6712
2488	0.6709
2497	0.6708
2506	0.6737
2515	0.6742
2524	0.672
2533	0.673
2542	0.674
2551	0.6757
2560	0.6781
2569	0.6806
2578	0.6773
2587	0.6731
2596	0.6722
2605	0.6715
2614	0.6715
2623	0.6711
2632	0.6724
2641	0.6745
2650	0.6744
2659	0.6743
2668	0.6733
2677	0.6723
2686	0.6715
2695	0.6711
2704	0.6695
2713	0.6659
2722	0.664
2731	0.6629
2740	0.662
2749	0.659
2758	0.6563
2767	0.656
2776	0.6585
2785	0.6643
2794	0.6648
2803	0.6642
2812	0.6634
2821	0.66
2830	0.6518
2839	0.6462
2848	0.642
2857	0.6216
2866	0.6098
2875	0.5801
2884	0.5633
2893	0.5497
2902	0.5409
2911	0.5332
2920	0.5108
2929	0.4849
2938	0.4536
2947	0.4536
2956	0.4561
2965	0.4558
2974	0.3955
2983	0.3224
2992	0.3255
3001	0.4146
3010	0.5123
3019	0.5659
3028	0.601
3037	0.6179
3046	0.6268
3055	0.633
3064	0.6374
3073	0.6403
3082	0.6426
3091	0.6443
3100	0.6453
3109	0.6453
3118	0.645
3127	0.6441
3136	0.6429
3145	0.6415
3154	0.6399
3163	0.638
3172	0.6369
3181	0.6362
3190	0.6344
3199	0.6326
3208	0.6316
3217	0.6307
3226	0.6308
3235	0.631
3244	0.6314
3253	0.6296
3262	0.6237
3271	0.6209
3280	0.6228
3289	0.6225
3298	0.6234
3307	0.6239
3316	0.6236
3325	0.6226
3334	0.6203
3343	0.6175
3352	0.6145
3361	0.6109
3370	0.6076
3379	0.6042
3388	0.5996
3397	0.592
3406	0.5842
3415	0.5782
3424	0.5738
3433	0.5669
3442	0.5596
3451	0.5532
3460	0.5481
3469	0.5435
3478	0.5445
3487	0.5478
3496	0.5507
3505	0.5525
3514	0.5537
3523	0.5539
3532	0.5531
3541	0.5522
3550	0.5529
3559	0.5558
3568	0.5616
3577	0.5692
3586	0.5777
3595	0.5856
3604	0.5898
3613	0.5922
3622	0.5939
3631	0.595
3640	0.5956
3649	0.5967
3658	0.5995
3667	0.6033
3676	0.6075
3685	0.6129
3694	0.6184
3703	0.6239
3712	0.6294
3721	0.64
3730	0.6535
3739	0.6572
3748	0.6557
3757	0.6534
3766	0.6539
3775	0.6483
3784	0.643
3793	0.6426
3802	0.6427
3811	0.6435
3820	0.6454
3829	0.6516
3838	0.6533
3847	0.6548
3856	0.6557
3865	0.6494
3874	0.6422
3883	0.642
3892	0.6477
3901	0.6501
3910	0.649
3919	0.6462
3928	0.6426
3937	0.6391
3946	0.6366
3955	0.6357
3964	0.6366
3973	0.6391
3982	0.6447
3991	0.6581
4000	0.6816
