Infrared Spectrum: Methyl-2,4,6-Trihydroxybenzoate
Formula: C8 H8 O5
CAS: 3147-39-5
State: gas
Origin: EPA-IR VAPOR PHASE LIBRARY
1/CM	ABSORBANCE
549.8	0.01627
559.445	0.02386
569.09	0.02838
578.734	0.0128
588.379	0.00439
598.024	0.00153
607.669	0.02002
617.313	0.03666
626.958	0.03519
636.603	0.03986
646.248	0.0324
655.893	0.02491
665.537	0.0288
675.182	0.0329
684.827	0.0394
694.472	0.04935
704.116	0.05732
713.761	0.05393
723.406	0.04597
733.051	0.03611
742.695	0.03186
752.34	0.03124
761.985	0.03252
771.63	0.03244
781.275	0.03285
790.919	0.03596
800.564	0.04164
810.209	0.05239
819.854	0.0479404
829.498	0.05293
839.143	0.05756
848.788	0.04381
858.433	0.03584
868.078	0.03424
877.722	0.03399
887.367	0.03265
897.012	0.03279
906.657	0.03397
916.301	0.034
925.946	0.03568
935.591	0.03692
945.236	0.04401
954.88	0.04569
964.525	0.03896
974.17	0.03505
983.815	0.03532
993.46	0.03713
1003.1	0.05227
1012.75	0.05305
1022.39	0.03705
1032.04	0.03752
1041.68	0.03926
1051.33	0.04279
1060.97	0.05639
1070.62	0.08205
1080.26	0.11672
1089.91	0.14196
1099.55	0.13159
1109.2	0.08394
1118.84	0.06327
1128.49	0.08218
1138.13	0.1688
1147.78	0.20588
1157.42	0.12859
1167.07	0.11791
1176.71	0.11094
1186.36	0.09016
1196	0.08605
1205.64	0.09218
1215.29	0.13346
1224.93	0.25259
1234.58	0.26822
1244.22	0.1634
1253.87	0.14199
1263.51	0.12018
1273.16	0.10315
1282.8	0.10746
1292.45	0.1206
1302.09	0.13104
1311.74	0.1101
1321.38	0.08202
1331.03	0.07182
1340.67	0.06806
1350.32	0.06559
1359.96	0.0653
1369.61	0.06342
1379.25	0.06038
1388.9	0.06566
1398.54	0.08218
1408.18	0.09639
1417.83	0.0936
1427.47	0.08017
1437.12	0.08924
1446.76	0.08703
1456.41	0.06722
1466.05	0.07261
1475.7	0.08983
1485.34	0.09276
1494.99	0.07937
1504.63	0.08201
1514.28	0.08131
1523.92	0.06476
1533.57	0.05407
1543.21	0.046371
1552.86	0.04503
1562.5	0.04873
1572.15	0.05829
1581.79	0.08717
1591.44	0.14878
1601.08	0.17593
1610.73	0.13226
1620.37	0.11656
1630.01	0.12271
1639.66	0.16451
1649.3	0.24072
1658.95	0.20653
1668.59	0.14259
1678.24	0.17502
1687.88	0.22787
1697.53	0.20079
1707.17	0.12565
1716.82	0.07318
1726.46	0.05069
1736.11	0.04174
1745.75	0.03772
1755.4	0.0368
1765.04	0.03584
1774.69	0.03441
1784.33	0.03374
1793.98	0.03319
1803.62	0.03239
1813.27	0.03202
1822.91	0.0319
1832.55	0.03119
1842.2	0.03104
1851.84	0.0313
1861.49	0.03114
1871.13	0.03112
1880.78	0.03141
1890.42	0.03186
1900.07	0.03204
1909.71	0.03157
1919.36	0.03122
1929	0.03047
1938.65	0.03047
1948.29	0.02987
1957.94	0.03025
1967.58	0.02995
1977.23	0.02996
1986.87	0.02995
1996.52	0.03005
2006.16	0.03042
2015.81	0.03064
2025.45	0.03083
2035.1	0.03065
2044.74	0.03042
2054.38	0.03014
2064.03	0.02998
2073.67	0.03011
2083.32	0.02968
2092.96	0.02996
2102.61	0.02966
2112.25	0.02939
2121.9	0.02957
2131.54	0.02937
2141.19	0.02964
2150.83	0.02957
2160.48	0.0299
2170.12	0.0295
2179.77	0.03023
2189.41	0.03032
2199.06	0.02982
2208.7	0.03031
2218.35	0.03032
2227.99	0.03088
2237.64	0.03067
2247.28	0.0306
2256.92	0.02996
2266.57	0.02921
2276.21	0.02955
2285.86	0.02974
2295.5	0.03032
2305.15	0.031
2314.79	0.0317
2324.44	0.0323
2334.08	0.03186
2343.73	0.03182
2353.37	0.03172
2363.02	0.03345
2372.66	0.03196
2382.31	0.03089
2391.95	0.03065
2401.6	0.02978
2411.24	0.02988
2420.89	0.03026
2430.53	0.02959
2440.18	0.02949
2449.82	0.02989
2459.47	0.02978
2469.11	0.02941
2478.75	0.03018
2488.4	0.03071
2498.04	0.03013
2507.69	0.03159
2517.33	0.03174
2526.98	0.03074
2536.62	0.03076
2546.27	0.03078
2555.91	0.03041
2565.56	0.03037
2575.2	0.03066
2584.85	0.0303
2594.49	0.03099
2604.14	0.03052
2613.78	0.03102
2623.43	0.0306
2633.07	0.03033
2642.72	0.03094
2652.36	0.03092
2662.01	0.0304
2671.65	0.03028
2681.29	0.03054
2690.94	0.02922
2700.58	0.02956
2710.23	0.02981
2719.87	0.03039
2729.52	0.02995
2739.16	0.03021
2748.81	0.02959
2758.45	0.03029
2768.1	0.02954
2777.74	0.03045
2787.39	0.03045
2797.03	0.0301
2806.68	0.03063
2816.32	0.03022
2825.97	0.03069
2835.61	0.03167
2845.26	0.03214
2854.9	0.03352
2864.55	0.0325
2874.19	0.03165
2883.84	0.03173
2893.48	0.0331
2903.12	0.03272
2912.77	0.03424
2922.41	0.03501
2932.06	0.03559
2941.7	0.03407
2951.35	0.03656
2960.99	0.0493
2970.64	0.05426
2980.28	0.04043
2989.93	0.0348
2999.57	0.03566
3009.22	0.03694
3018.86	0.03709
3028.51	0.03567
3038.15	0.03595
3047.8	0.03395
3057.44	0.03488
3067.09	0.03468
3076.73	0.03308
3086.38	0.03344
3096.02	0.03389
3105.67	0.03425
3115.31	0.03414
3124.95	0.03467
3134.6	0.03493
3144.24	0.03531
3153.89	0.03651
3163.53	0.0373
3173.18	0.03999
3182.82	0.04397
3192.47	0.0474558
3202.11	0.04912
3211.76	0.05272
3221.4	0.05218
3231.05	0.05248
3240.69	0.05196
3250.34	0.0498
3259.98	0.04902
3269.63	0.04825
3279.27	0.04548
3288.92	0.04362
3298.56	0.04354
3308.21	0.04222
3317.85	0.04365
3327.49	0.04018
3337.14	0.04009
3346.78	0.03915
3356.43	0.03762
3366.07	0.03625
3375.72	0.03619
3385.36	0.03579
3395.01	0.03472
3404.65	0.03406
3414.3	0.03433
3423.94	0.03362
3433.59	0.03536
3443.23	0.03569
3452.88	0.03946
3462.52	0.04571
3472.17	0.06608
3481.81	0.10587
3491.46	0.13752
3501.1	0.11973
3510.75	0.08757
3520.39	0.06954
3530.04	0.05758
3539.68	0.0476232
3549.32	0.03928
3558.97	0.03507
3568.61	0.03305
3578.26	0.03268
3587.9	0.02944
3597.55	0.03139
3607.19	0.02929
3616.84	0.03055
3626.48	0.03765
3636.13	0.06726
3645.77	0.09143
3655.42	0.05285
3665.06	0.03084
3674.71	0.02896
3684.35	0.02805
3694	0.02777
3703.64	0.02687
3713.29	0.02753
3722.93	0.02748
3732.58	0.02702
3742.22	0.02829
3751.86	0.02641
3761.51	0.02688
3771.15	0.02792
3780.8	0.02717
3790.44	0.02593
3800.09	0.02619
3809.73	0.02765
3819.38	0.02626
3829.02	0.02725
3838.67	0.02811
3848.31	0.02822
3857.96	0.02783
3867.6	0.02827
3877.25	0.02815
3886.89	0.02691
3896.54	0.02749
3906.18	0.02904
3915.83	0.02754
3925.47	0.0283
3935.12	0.02745
3944.76	0.02521
3954.41	0.02822
3964.05	0.026
3973.69	0.02681
3983.34	0.02856
3992.98	0.02816
