Infrared Spectrum: 2,6-Dihydroxybenzamide
Formula: C 7 H 7 N O 3
CAS: 3147-50-0
State: gas
Origin: EPA-IR VAPOR PHASE LIBRARY
1/CM	ABSORBANCE
549.8	0.0051
559.445	0.00515
569.09	0.00374
578.734	0.00502
588.379	0.00548
598.024	0.00338
607.669	0.00237
617.313	0.00198
626.958	0.00207
636.603	0.00198
646.248	0.00201
655.893	0.00194
665.537	0.00233
675.182	0.0037
684.827	0.00914
694.472	0.01722
704.116	0.0134
713.761	0.00721
723.406	0.00499
733.051	0.00657
742.695	0.00994
752.34	0.01389
761.985	0.0089
771.63	0.00467
781.275	0.00329
790.919	0.00518
800.564	0.0085
810.209	0.01188
819.854	0.01415
829.498	0.01408
839.143	0.01407
848.788	0.01136
858.433	0.00814
868.078	0.00573
877.722	0.00471
887.367	0.00465
897.012	0.00491
906.657	0.00496
916.301	0.00506
925.946	0.00506
935.591	0.00532
945.236	0.005
954.88	0.00545
964.525	0.00571
974.17	0.0054
983.815	0.00571
993.46	0.00813
1003.1	0.02039
1012.75	0.02823
1022.39	0.0212
1032.04	0.0066
1041.68	0.00444
1051.33	0.00612
1060.97	0.0067
1070.62	0.00602
1080.26	0.00355
1089.91	0.00326
1099.55	0.00326
1109.2	0.00365
1118.84	0.00431
1128.49	0.0038
1138.13	0.00463
1147.78	0.00517
1157.42	0.00556
1167.07	0.00517
1176.71	0.00589
1186.36	0.00677
1196	0.00946
1205.64	0.01265
1215.29	0.01914
1224.93	0.034
1234.58	0.06257
1244.22	0.06907
1253.87	0.04218
1263.51	0.01335
1273.16	0.00804
1282.8	0.00652
1292.45	0.00547
1302.09	0.00528
1311.74	0.00668
1321.38	0.00789
1331.03	0.00745
1340.67	0.00799
1350.32	0.00941
1359.96	0.01031
1369.61	0.01172
1379.25	0.01473
1388.9	0.02105
1398.54	0.03058
1408.18	0.03107
1417.83	0.01994
1427.47	0.01179
1437.12	0.01515
1446.76	0.03127
1456.41	0.03871
1466.05	0.02745
1475.7	0.01378
1485.34	0.01474
1494.99	0.01572
1504.63	0.01229
1514.28	0.00798
1523.92	0.00718
1533.57	0.00794
1543.21	0.01025
1552.86	0.01541
1562.5	0.0263
1572.15	0.04072
1581.79	0.05009
1591.44	0.052
1601.08	0.05562
1610.73	0.06505
1620.37	0.06395
1630.01	0.04682
1639.66	0.03258
1649.3	0.03809
1658.95	0.06011
1668.59	0.07018
1678.24	0.05434
1687.88	0.03072
1697.53	0.01624
1707.17	0.01048
1716.82	0.00776
1726.46	0.00585
1736.11	0.00487
1745.75	0.00396
1755.4	0.00294
1765.04	0.00211
1774.69	0.00149
1784.33	0.00142
1793.98	0.0016
1803.62	0.00174
1813.27	0.00185
1822.91	0.00168
1832.55	0.00141
1842.2	0.00114
1851.84	0.00123
1861.49	0.00114
1871.13	0.00107
1880.78	0.0009849
1890.42	0.00102
1900.07	0.00112
1909.71	0.00159
1919.36	0.00171
1929	0.00129
1938.65	0.00105
1948.29	0.0009007
1957.94	0.00102
1967.58	0.0009801
1977.23	0.00101
1986.87	0.0008839
1996.52	0.0008627
2006.16	0.0007591
2015.81	0.0008129
2025.45	0.00075
2035.1	0.0008516
2044.74	0.0007729
2054.38	0.0006722
2064.03	0.0007318
2073.67	0.0007345
2083.32	0.0007897
2092.96	0.0008834
2102.61	0.000847
2112.25	0.0009103
2121.9	0.0009058
2131.54	0.0007479
2141.19	0.0007684
2150.83	0.0008259
2160.48	0.0008273
2170.12	0.0007977
2179.77	0.0008947
2189.41	0.0009332
2199.06	0.0009938
2208.7	0.0009331
2218.35	0.0009965
2227.99	0.0009559
2237.64	0.000971
2247.28	0.001
2256.92	0.0011
2266.57	0.00107
2276.21	0.00106
2285.86	0.00109
2295.5	0.00112
2305.15	0.0012
2314.79	0.00123
2324.44	0.00143
2334.08	0.00146
2343.73	0.00134
2353.37	0.0015
2363.02	0.00147
2372.66	0.00151
2382.31	0.00162
2391.95	0.0016
2401.6	0.0017
2411.24	0.00168
2420.89	0.00168
2430.53	0.00163
2440.18	0.00184
2449.82	0.002
2459.47	0.00199
2469.11	0.00192
2478.75	0.00182
2488.4	0.00193
2498.04	0.00195
2507.69	0.00228
2517.33	0.00227
2526.98	0.00203
2536.62	0.00191
2546.27	0.00206
2555.91	0.00218
2565.56	0.00212
2575.2	0.002
2584.85	0.0022
2594.49	0.00249
2604.14	0.00251
2613.78	0.00296
2623.43	0.00281
2633.07	0.0031
2642.72	0.00302
2652.36	0.0033
2662.01	0.00296
2671.65	0.00288
2681.29	0.0027
2690.94	0.00293
2700.58	0.00308
2710.23	0.00324
2719.87	0.00396
2729.52	0.00447
2739.16	0.00482
2748.81	0.00548
2758.45	0.0058
2768.1	0.00614
2777.74	0.00629
2787.39	0.00601
2797.03	0.00535
2806.68	0.00511
2816.32	0.00582
2825.97	0.00651
2835.61	0.00658
2845.26	0.00616
2854.9	0.00594
2864.55	0.0058
2874.19	0.00606
2883.84	0.00537
2893.48	0.00536
2903.12	0.00504
2912.77	0.00495
2922.41	0.00502
2932.06	0.00516
2941.7	0.00535
2951.35	0.0055
2960.99	0.00555
2970.64	0.00558
2980.28	0.00575
2989.93	0.00546
2999.57	0.00549
3009.22	0.00616
3018.86	0.0066
3028.51	0.00754
3038.15	0.00841
3047.8	0.00851
3057.44	0.00817
3067.09	0.0076
3076.73	0.00749
3086.38	0.00674
3096.02	0.006
3105.67	0.00545
3115.31	0.00525
3124.95	0.00503
3134.6	0.00527
3144.24	0.00547
3153.89	0.00555
3163.53	0.00536
3173.18	0.00521
3182.82	0.00493
3192.47	0.00454
3202.11	0.00477
3211.76	0.00454
3221.4	0.00455
3231.05	0.00432
3240.69	0.00438
3250.34	0.00381
3259.98	0.00398
3269.63	0.00358
3279.27	0.00358
3288.92	0.00341
3298.56	0.00328
3308.21	0.00306
3317.85	0.00306
3327.49	0.0031
3337.14	0.00309
3346.78	0.00303
3356.43	0.00293
3366.07	0.00263
3375.72	0.00256
3385.36	0.00304
3395.01	0.00414
3404.65	0.00732
3414.3	0.01104
3423.94	0.01266
3433.59	0.0087
3443.23	0.00336
3452.88	0.00216
3462.52	0.00223
3472.17	0.00199
3481.81	0.00215
3491.46	0.00303
3501.1	0.0045
3510.75	0.00646
3520.39	0.01013
3530.04	0.01423
3539.68	0.02007
3549.32	0.01931
3558.97	0.01089
3568.61	0.00311
3578.26	0.0021
3587.9	0.00193
3597.55	0.00154
3607.19	0.00154
3616.84	0.00171
3626.48	0.00303
3636.13	0.00932
3645.77	0.01708
3655.42	0.0144
3665.06	0.00403
3674.71	0.00142
3684.35	0.0008358
3694	0.0008631
3703.64	0.0006272
3713.29	0.0006861
3722.93	0.0007156
3732.58	0.0007791
3742.22	0.0004827
3751.86	0.0005283
3761.51	0.0005627
3771.15	0.00056
3780.8	0.000621
3790.44	0.0003221
3800.09	0.0005667
3809.73	0.0005031
3819.38	0.0009464
3829.02	0.0005976
3838.67	0.0007725
3848.31	0.000611
3857.96	0.0004545
3867.6	0.0004091
3877.25	0.0004527
3886.89	0.0004701
3896.54	0.0006699
3906.18	0.0002873
3915.83	0.000519
3925.47	0.0004862
3935.12	0.0005695
3944.76	0.000664
3954.41	0.0006605
3964.05	0.0005892
3973.69	0.0003883
3983.34	0.0001047
3992.98	0.0001586
