Infrared Spectrum: 1,2-Diacetylhydrazine
Formula: C 4 H 8 N 2 O 2
CAS: 3148-73-0
State: gas
Origin: EPA-IR VAPOR PHASE LIBRARY
1/CM	ABSORBANCE
549.9	0.001693
559.547	0.001683
569.193	0.001613
578.84	0.001663
588.486	0.001663
598.133	0.001733
607.779	0.001753
617.426	0.001683
627.072	0.001633
636.719	0.0015308
646.365	0.0014134
656.012	0.0012894
665.658	0.0011704
675.305	0.0010009
684.951	0.0009064
694.598	0.000823
704.245	0.0009478
713.891	0.0009821
723.538	0.0009174
733.184	0.0009046
742.831	0.0009822
752.477	0.0010277
762.124	0.0010803
771.77	0.0010858
781.417	0.0010662
791.063	0.0010793
800.71	0.0010907
810.356	0.0011233
820.003	0.0010848
829.649	0.00101
839.296	0.0009305
848.943	0.0008625
858.589	0.0008048
868.236	0.0007616
877.882	0.0007182
887.529	0.0006472
897.175	0.00061814
906.822	0.00060567
916.468	0.000695
926.115	0.0006907
935.761	0.000683
945.408	0.0008529
955.054	0.0010913
964.701	0.0013243
974.347	0.001613
983.994	0.001803
993.64	0.001673
1003.29	0.0013274
1012.93	0.0010444
1022.58	0.0009582
1032.23	0.0010392
1041.87	0.0010713
1051.52	0.0012919
1061.17	0.0013903
1070.81	0.001304
1080.46	0.001122
1090.11	0.0009062
1099.75	0.0007091
1109.4	0.00061551
1119.05	0.00053505
1128.69	0.00055239
1138.34	0.00059924
1147.99	0.0007272
1157.63	0.0008661
1167.28	0.0010705
1176.92	0.0013788
1186.57	0.001723
1196.22	0.002583
1205.86	0.004803
1215.51	0.007533
1225.16	0.007833
1234.8	0.005603
1244.45	0.003773
1254.1	0.002903
1263.74	0.002493
1273.39	0.002133
1283.04	0.001903
1292.68	0.001883
1302.33	0.001833
1311.98	0.001583
1321.62	0.0013929
1331.27	0.0013414
1340.92	0.0014059
1350.56	0.001793
1360.21	0.002783
1369.86	0.003753
1379.5	0.004383
1389.15	0.004673
1398.79	0.005953
1408.44	0.009103
1418.09	0.012873
1427.73	0.014513
1437.38	0.012113
1447.03	0.008533
1456.67	0.005483
1466.32	0.003803
1475.97	0.002863
1485.61	0.002393
1495.26	0.002093
1504.91	0.002063
1514.55	0.0013225
1524.2	0.0011641
1533.85	0.0009558
1543.49	0.0007033
1553.14	0.0006861
1562.79	0.0007331
1572.43	0.0008546
1582.08	0.0008664
1591.73	0.0009181
1601.37	0.0009379
1611.02	0.0011008
1620.67	0.0012935
1630.31	0.001603
1639.96	0.002133
1649.6	0.002973
1659.25	0.004613
1668.9	0.007293
1678.54	0.010933
1688.19	0.013033
1697.84	0.013433
1707.48	0.012973
1717.13	0.012373
1726.78	0.012593
1736.42	0.012173
1746.07	0.010893
1755.72	0.008093
1765.36	0.005193
1775.01	0.003053
1784.66	0.001793
1794.3	0.00122
1803.95	0.0009748
1813.6	0.0008956
1823.24	0.0008622
1832.89	0.0008744
1842.54	0.0007624
1852.18	0.00062564
1861.83	0.0004983
1871.47	0.000383
1881.12	0.000358
1890.77	0.000333
1900.41	0.0003
1910.06	0.000303
1919.71	0.000306
1929.35	0.000317
1939	0.000311
1948.65	0.000321
1958.29	0.000303
1967.94	0.000313
1977.59	0.000335
1987.23	0.000341
1996.88	0.000335
2006.53	0.000355
2016.17	0.000333
2025.82	0.000358
2035.47	0.000325
2045.11	0.000341
2054.76	0.000344
2064.41	0.000324
2074.05	0.000331
2083.7	0.000331
2093.35	0.000323
2102.99	0.00034
2112.64	0.00034
2122.28	0.000348
2131.93	0.000367
2141.58	0.000353
2151.22	0.000362
2160.87	0.000397
2170.52	0.000386
2180.16	0.000379
2189.81	0.000364
2199.46	0.000345
2209.1	0.000307
2218.75	0.00026
2228.4	0.000211
2238.04	0.000163
2247.69	0.00012
2257.34	0.000157
2266.98	9.6e-05
2276.63	5.6e-05
2286.28	6.3e-05
2295.92	0.000168
2305.57	0.000187
2315.22	0.000161
2324.86	0.000222
2334.51	0.000276
2344.16	0.000295
2353.8	0.000315
2363.45	0.000349
2373.09	0.000337
2382.74	0.000264
2392.39	0.000232
2402.03	0.00024
2411.68	0.000224
2421.33	0.000235
2430.97	0.000216
2440.62	0.000248
2450.27	0.000242
2459.91	0.000224
2469.56	0.000239
2479.21	0.000238
2488.85	0.000246
2498.5	0.000243
2508.15	0.000255
2517.79	0.000244
2527.44	0.000215
2537.09	0.000264
2546.73	0.000271
2556.38	0.000254
2566.03	0.000269
2575.67	0.000245
2585.32	0.000206
2594.96	0.00019
2604.61	0.000189
2614.26	0.000123
2623.9	0.000161
2633.55	0.000216
2643.2	0.000243
2652.84	0.000273
2662.49	0.000279
2672.14	0.000277
2681.78	0.000272
2691.43	0.000267
2701.08	0.000308
2710.72	0.000305
2720.37	0.00029
2730.02	0.000293
2739.66	0.00026
2749.31	0.000221
2758.96	0.000248
2768.6	0.000254
2778.25	0.000262
2787.9	0.000276
2797.54	0.000243
2807.19	0.000262
2816.84	0.000251
2826.48	0.00025
2836.13	0.000268
2845.77	0.000238
2855.42	0.000239
2865.07	0.00024
2874.71	0.000229
2884.36	0.000212
2894.01	0.000274
2903.65	0.000234
2913.3	0.000313
2922.95	0.000423
2932.59	0.000395
2942.24	0.0004668
2951.89	0.000542078
2961.53	0.000415
2971.18	0.000159
2980.83	0.000185
2990.47	0.000351
3000.12	0.000394
3009.77	0.0004622
3019.41	0.0004682
3029.06	0.0004
3038.71	0.000308
3048.35	0.000318
3058	0.000419
3067.64	0.000248
3077.29	0.000382
3086.94	0.000322
3096.58	0.000325
3106.23	0.000307
3115.88	0.000236
3125.52	0.000261
3135.17	0.000232
3144.82	0.000169
3154.46	6.6e-05
3164.11	0.0001
3173.76	9e-05
3183.4	7.3e-05
3193.05	7.3e-05
3202.7	0.000109
3212.34	0.000138
3221.99	0.000155
3231.64	0.000164
3241.28	9.3e-05
3250.93	0.000187
3260.58	0.000236
3270.22	0.000177
3279.87	0.000228
3289.52	0.000343
3299.16	0.00031
3308.81	0.000318
3318.45	0.000314
3328.1	0.000351
3337.75	0.000378
3347.39	0.0004696
3357.04	0.0004722
3366.69	0.0007018
3376.33	0.0009227
3385.98	0.0014326
3395.63	0.002023
3405.27	0.003193
3414.92	0.004653
3424.57	0.005253
3434.21	0.004343
3443.86	0.002813
3453.51	0.001683
3463.15	0.0009966
3472.8	0.0007203
3482.45	0.0004398
3492.09	0.0004574
3501.74	0.0004
3511.39	0.000398
3521.03	0.000347
3530.68	0.000359
3540.33	0.000315
3549.97	0.000229
3559.62	0.000266
3569.26	0.000214
3578.91	0.000173
3588.56	0.000122
3598.2	0.000226
3607.85	0.000231
3617.5	0.000124
3627.14	5e-05
3636.79	0.000182
3646.44	8.8e-05
3656.08	0.000158
3665.73	0.000184
3675.38	0.000174
3685.02	0.000202
3694.67	0.000244
3704.32	0.000219
3713.96	0.000181
3723.61	0.000141
3733.26	8.8e-05
3742.9	0.000118
3752.55	0.000106
3762.2	0.000186
3771.84	0.000236
3781.49	0.000197
3791.13	0.000237
3800.78	0.000117
3810.43	0.000204
3820.07	0.000188
3829.72	0.000206
3839.37	0.000182
3849.01	0.000195
3858.66	0.000208
3868.31	0.000127
3877.95	0.000185
3887.6	0.000171
3897.25	0.000147
3906.89	0.00017
3916.54	0.000188
3926.19	0.000155
3935.83	0.00023
3945.48	0.000183
3955.13	0.000165
3964.77	0.000162
3974.42	0.000168
3984.07	0.000213
3993.71	0.00018
