Infrared Spectrum: Zectran
Formula: C 12 H 18 N 2 O 2
CAS: 315-18-4
State: gas
Instrument: HP-GC/MS/IRD
Origin: NIST Mass Spectrometry Data Center
1/CM	ABSORBANCE
550	0.000288
562	0.000234
574	0.000456
586	0.000633
598	0.000762
610	0.000471
622	0.000378
634	0.000234
646	0.000108
658	0.000114
670	5.7e-05
682	4.5e-05
694	6e-05
706	5.7e-05
718	8.1e-05
730	0.000141
742	0.00024
754	0.00048
766	0.000564
778	0.000618
790	0.000534
802	0.000384
814	0.000327
826	0.00039
838	0.000471
850	0.000747
862	0.001356
874	0.001392
886	0.001293
898	0.001506
910	0.00177
922	0.002247
934	0.003165
946	0.0051
958	0.002313
970	0.001395
982	0.001395
994	0.001791
1006	0.00288
1018	0.002955
1030	0.001953
1042	0.001968
1054	0.003402
1066	0.004719
1078	0.0042
1090	0.006534
1102	0.005853
1114	0.002676
1126	0.003081
1138	0.005412
1150	0.017607
1162	0.026304
1174	0.009462
1186	0.008952
1198	0.015078
1210	0.027459
1222	0.027324
1234	0.014547
1246	0.008022
1258	0.005745
1270	0.006606
1282	0.011571
1294	0.007689
1306	0.003804
1318	0.004725
1330	0.005829
1342	0.003849
1354	0.002166
1366	0.001872
1378	0.001998
1390	0.001695
1402	0.002082
1414	0.004005
1426	0.008274
1438	0.008166
1450	0.009801
1462	0.0138
1474	0.018855
1486	0.020079
1498	0.015456
1510	0.009819
1522	0.007035
1534	0.005358
1546	0.003972
1558	0.003042
1570	0.002655
1582	0.002889
1594	0.003132
1606	0.002493
1618	0.001413
1630	0.000885
1642	0.000624
1654	0.000555
1666	0.000612
1678	0.000576
1690	0.000603
1702	0.000762
1714	0.001176
1726	0.002085
1738	0.003408
1750	0.006159
1762	0.01404
1774	0.023778
1786	0.012303
1798	0.004326
1810	0.002271
1822	0.001398
1834	0.000699
1846	0.000468
1858	0.000384
1870	0.000324
1882	0.000279
1894	0.00024
1906	0.000135
1918	8.4e-05
1930	5.7e-05
1942	4.8e-05
1954	4.5e-05
1966	1.8e-05
1978	3.3e-05
1990	3.6e-05
2002	2.1e-05
2014	7.2e-05
2026	9e-05
2038	6e-05
2050	0.000105
2062	0.000156
2074	0.000162
2086	0.000132
2098	0.000114
2110	0.000165
2122	0.000219
2134	0.000258
2146	0.000195
2158	0.000147
2170	0.00012
2182	0.000123
2194	0.000108
2206	0.000135
2218	0.000282
2230	0.000522
2242	0.000813
2254	0.001149
2266	0.001347
2278	0.001557
2290	0.001359
2302	0.001116
2314	0.001002
2326	0.000489
2338	0.000339
2350	0.000243
2362	2.4e-05
2374	4.5e-05
2386	3e-06
2398	3e-05
2410	1.2e-05
2422	6e-06
2434	5.4e-05
2446	9e-05
2458	5.4e-05
2470	4.8e-05
2482	7.8e-05
2494	6.9e-05
2506	6.3e-05
2518	7.2e-05
2530	5.4e-05
2542	6.6e-05
2554	6.6e-05
2566	9.3e-05
2578	8.7e-05
2590	0.000102
2602	0.000114
2614	0.000144
2626	0.000192
2638	0.000135
2650	0.000204
2662	0.000219
2674	0.000276
2686	0.000336
2698	0.000348
2710	0.000411
2722	0.000525
2734	0.000756
2746	0.000942
2758	0.001356
2770	0.002163
2782	0.004113
2794	0.005895
2806	0.004317
2818	0.003726
2830	0.004767
2842	0.005385
2854	0.005601
2866	0.006033
2878	0.006186
2890	0.006339
2902	0.006897
2914	0.007629
2926	0.008532
2938	0.008409
2950	0.007119
2962	0.006411
2974	0.005583
2986	0.00414
2998	0.003018
3010	0.002454
3022	0.002106
3034	0.001983
3046	0.00192
3058	0.001758
3070	0.001272
3082	0.000921
3094	0.000705
3106	0.000489
3118	0.000354
3130	0.000291
3142	0.00021
3154	0.000255
3166	0.000105
3178	0.000183
3190	0.000171
3202	0.000114
3214	9e-05
3226	8.7e-05
3238	6e-06
3250	4.5e-05
3262	9.6e-05
3274	9e-05
3286	7.8e-05
3298	7.2e-05
3310	1.5e-05
3322	1.5e-05
3334	6.9e-05
3346	7.5e-05
3358	9.3e-05
3370	0.000102
3382	7.2e-05
3394	9.9e-05
3406	0.00012
3418	0.000138
3430	0.000114
3442	0.000306
3454	0.000495
3466	0.000975
3478	0.001686
3490	0.002268
3502	0.001698
3514	0.00078
3526	0.0006
3538	0.000417
3550	0.000279
3562	0.00024
3574	0.000207
3586	0.000132
3598	0.000171
3610	0.000138
3622	0.000204
3634	0.000162
3646	0.000339
3658	0.000309
3670	0.00021
3682	0.000126
3694	0.000114
3706	0.000147
3718	0.000132
3730	0.000171
3742	0.000123
3754	0.000114
3766	0.000147
3778	0.000186
3790	0.000138
3802	0.000162
3814	0.000123
3826	0.000183
3838	0.000117
