Infrared Spectrum: trans-2-Nonen-1-ol
Formula: C 9 H 18 O
CAS: 31502-14-4
State: gas
Instrument: HP-GC/MS/IRD
Origin: NIST Mass Spectrometry Data Center
1/CM	ABSORBANCE
550	0.000444
562	0.0002405
574	1.85e-05
586	0.000222
598	0.0003145
610	0.000555
622	0.000592
634	0.0006105
646	0.0004995
658	0.000518
670	0.0004625
682	0.0005735
694	0.0008695
706	0.0014615
718	0.0025345
730	0.002886
742	0.0021645
754	0.0017575
766	0.0016835
778	0.0016095
790	0.001517
802	0.0013505
814	0.001554
826	0.001739
838	0.0017945
850	0.002146
862	0.0025345
874	0.003182
886	0.0039775
898	0.0050135
910	0.0065675
922	0.008806
934	0.0124875
946	0.019277
958	0.0327635
970	0.0440855
982	0.041107
994	0.044474
1006	0.047286
1018	0.034114
1030	0.023606
1042	0.0185
1054	0.016317
1066	0.0172235
1078	0.019906
1090	0.018796
1102	0.0132275
1114	0.009176
1126	0.007252
1138	0.006216
1150	0.00555
1162	0.0057905
1174	0.006623
1186	0.0071965
1198	0.007511
1210	0.007733
1222	0.007548
1234	0.006956
1246	0.0066785
1258	0.0068265
1270	0.0071595
1282	0.007511
1294	0.0084545
1306	0.0094905
1318	0.009694
1330	0.0103785
1342	0.012506
1354	0.0153365
1366	0.0192955
1378	0.0248085
1390	0.0226625
1402	0.014467
1414	0.0097495
1426	0.0084175
1438	0.0112665
1450	0.015244
1462	0.0168905
1474	0.012358
1486	0.0060865
1498	0.003256
1510	0.002109
1522	0.0014985
1534	0.00111
1546	0.000814
1558	0.0006475
1570	0.000555
1582	0.000481
1594	0.0004625
1606	0.0004625
1618	0.000481
1630	0.0006845
1642	0.001221
1654	0.0026085
1666	0.0044215
1678	0.0022015
1690	0.000814
1702	0.000666
1714	0.000777
1726	0.0006845
1738	0.0006105
1750	0.000592
1762	0.000518
1774	0.0003885
1786	0.000296
1798	0.0001665
1810	0.0001295
1822	9.25e-05
1834	9.25e-05
1846	3.7e-05
1858	3.7e-05
1870	0
1882	3.7e-05
1894	5.55e-05
1906	9.25e-05
1918	7.4e-05
1930	0.0001295
1942	0.000111
1954	0.000185
1966	0.0002405
1978	0.0002775
1990	0.0003885
2002	0.00037
2014	0.00037
2026	0.00037
2038	0.000296
2050	0.000296
2062	0.0002405
2074	0.0002035
2086	0.000111
2098	7.4e-05
2110	1.85e-05
2122	1.85e-05
2134	0
2146	1.85e-05
2158	3.7e-05
2170	5.55e-05
2182	1.85e-05
2194	0
2206	0
2218	3.7e-05
2230	3.7e-05
2242	3.7e-05
2254	0.000111
2266	9.25e-05
2278	0.000111
2290	0.0001295
2302	0.0001665
2314	0.0002035
2326	0.000222
2338	0.000222
2350	0.0002775
2362	0.0003145
2374	0.0003515
2386	0.000333
2398	0.000333
2410	0.0002775
2422	0.000259
2434	0.000222
2446	0.000222
2458	0.000222
2470	0.000222
2482	0.0002035
2494	0.000222
2506	0.000259
2518	0.00037
2530	0.0004255
2542	0.0005365
2554	0.000629
2566	0.000703
2578	0.000703
2590	0.0007585
2602	0.0008695
2614	0.001036
2626	0.0012025
2638	0.001406
2650	0.0016465
2662	0.00185
2674	0.0020905
2686	0.002183
2698	0.002183
2710	0.0023865
2722	0.0027195
2734	0.003182
2746	0.0036815
2758	0.003885
2770	0.0043845
2782	0.005328
2794	0.00666
2806	0.008473
2818	0.011507
2830	0.016909
2842	0.0292485
2854	0.055833
2866	0.0810855
2878	0.079254
2890	0.0675435
2902	0.0705035
2914	0.101121
2926	0.161061
2938	0.179709
2950	0.121878
2962	0.096052
2974	0.0783105
2986	0.0400525
2998	0.02627
3010	0.0214785
3022	0.018463
3034	0.014245
3046	0.0094905
3058	0.006253
3070	0.0044585
3082	0.003404
3094	0.0027565
3106	0.0022755
3118	0.0019055
3130	0.0016835
3142	0.001406
3154	0.001184
3166	0.0010915
3178	0.000962
3190	0.0009065
3202	0.0006845
3214	0.0004995
3226	0.0003885
3238	0.000296
3250	0.000222
3262	9.25e-05
3274	7.4e-05
3286	5.55e-05
3298	3.7e-05
3310	0
3322	3.7e-05
3334	0.000111
3346	0.000185
3358	0.0001295
3370	0.0002775
3382	0.0003145
3394	0.0002405
3406	0.000259
3418	0.0002775
3430	0.000296
3442	0.000296
3454	0.0002405
3466	0.0001665
3478	0.000259
3490	0.000222
3502	0.000148
3514	0.000259
3526	0.000148
3538	0.0002405
3550	0.000185
3562	0.000333
3574	0.000407
3586	0.000444
3598	0.000814
3610	0.001369
3622	0.0022015
3634	0.0039035
3646	0.0066045
3658	0.0086765
3670	0.0075665
3682	0.004292
3694	0.002405
3706	0.001443
3718	0.0009805
3730	0.000666
3742	0.000629
3754	0.0005365
3766	0.000518
3778	0.000407
3790	0.00037
3802	0.0004255
3814	0.000481
3826	0.0005365
3838	0.0005365
