Infrared Spectrum: 1-Phenyl-1-penten-3-one
Formula: C 11 H 12 O
CAS: 3152-68-9
State: gas
Origin: EPA-IR VAPOR PHASE LIBRARY
1/CM	ABSORBANCE
549.8	0.002173
559.445	0.001913
569.09	0.001903
578.734	0.0008371
588.379	0.0010376
598.024	0.0006576
607.669	0.0004192
617.313	0.000198
626.958	0.0004145
636.603	0.0004821
646.248	0.0004909
655.893	0.0006588
665.537	0.001613
675.182	0.002663
684.827	0.004703
694.472	0.005263
704.116	0.003473
713.761	0.002723
723.406	0.002903
733.051	0.003903
742.695	0.005103
752.34	0.004373
761.985	0.003203
771.63	0.002013
781.275	0.001593
790.919	0.001463
800.564	0.001543
810.209	0.001493
819.854	0.0009894
829.498	0.0007299
839.143	0.0008169
848.788	0.000887
858.433	0.0009297
868.078	0.0010388
877.722	0.0011529
887.367	0.0007574
897.012	0.0009228
906.657	0.0009082
916.301	0.0007731
925.946	0.0012022
935.591	0.001713
945.236	0.002363
954.88	0.003853
964.525	0.005973
974.17	0.007453
983.815	0.006153
993.46	0.004173
1003.1	0.002963
1012.75	0.002473
1022.39	0.004303
1032.04	0.006263
1041.68	0.005353
1051.33	0.003183
1060.97	0.003013
1070.62	0.002623
1080.26	0.002423
1089.91	0.002423
1099.55	0.002553
1109.2	0.005463
1118.84	0.006393
1128.49	0.003673
1138.13	0.003553
1147.78	0.003773
1157.42	0.004213
1167.07	0.005603
1176.71	0.008273
1186.36	0.009073
1196	0.006903
1205.64	0.003613
1215.29	0.001563
1224.93	0.0007698
1234.58	0.0006088
1244.22	0.001323
1253.87	0.001383
1263.51	0.002143
1273.16	0.002793
1282.8	0.003263
1292.45	0.003413
1302.09	0.003353
1311.74	0.004543
1321.38	0.006103
1331.03	0.006533
1340.67	0.006163
1350.32	0.005483
1359.96	0.004163
1369.61	0.002903
1379.25	0.002553
1388.9	0.001923
1398.54	0.001423
1408.18	0.001543
1417.83	0.001773
1427.47	0.001963
1437.12	0.002693
1446.76	0.004093
1456.41	0.003643
1466.05	0.002933
1475.7	0.002173
1485.34	0.002533
1494.99	0.003993
1504.63	0.002133
1514.28	0.001062
1523.92	0.000951
1533.57	0.0009634
1543.21	0.0009095
1552.86	0.0011411
1562.5	0.001683
1572.15	0.003113
1581.79	0.003573
1591.44	0.003423
1601.08	0.006013
1610.73	0.011483
1620.37	0.018113
1630.01	0.013463
1639.66	0.004843
1649.3	0.003053
1658.95	0.003233
1668.59	0.004893
1678.24	0.009993
1687.88	0.018083
1697.53	0.016643
1707.17	0.012923
1716.82	0.009143
1726.46	0.004523
1736.11	0.002503
1745.75	0.001493
1755.4	0.0010871
1765.04	0.0008229
1774.69	0.0008653
1784.33	0.0009486
1793.98	0.001072
1803.62	0.0009271
1813.27	0.0007859
1822.91	0.0007358
1832.55	0.0007065
1842.2	0.0006707
1851.84	0.0005633
1861.49	0.0006897
1871.13	0.0006998
1880.78	0.0008768
1890.42	0.0008068
1900.07	0.0006095
1909.71	0.0005391
1919.36	0.0005722
1929	0.0007561
1938.65	0.0008575
1948.29	0.001009
1957.94	0.0009027
1967.58	0.0006236
1977.23	0.0004805
1986.87	0.0005006
1996.52	0.0004826
2006.16	0.0004184
2015.81	0.0004691
2025.45	0.0004624
2035.1	0.0004445
2044.74	0.0004383
2054.38	0.0004579
2064.03	0.00040829
2073.67	0.0004438
2083.32	0.0004587
2092.96	0.0004186
2102.61	0.0004665
2112.25	0.0004376
2121.9	0.0004443
2131.54	0.0004752
2141.19	0.0004759
2150.83	0.00041188
2160.48	0.00040044
2170.12	0.00039761
2179.77	0.0004591
2189.41	0.0004617
2199.06	0.0004663
2208.7	0.0004171
2218.35	0.0004319
2227.99	0.00035763
2237.64	0.00038928
2247.28	0.00037699
2256.92	0.0003923
2266.57	0.00038647
2276.21	0.0004787
2285.86	0.0004136
2295.5	0.00038309
2305.15	0.0004943
2314.79	0.0005915
2324.44	0.0004295
2334.08	0.0004401
2343.73	0.0005529
2353.37	0.0004215
2363.02	0.0004273
2372.66	0.0004827
2382.31	0.0004994
2391.95	0.00039633
2401.6	0.000479
2411.24	0.0004534
2420.89	0.0004433
2430.53	0.00036084
2440.18	0.0005411
2449.82	0.0004196
2459.47	0.000525
2469.11	0.00040548
2478.75	0.000321421
2488.4	0.00037101
2498.04	0.0004324
2507.69	0.0005337
2517.33	0.0004518
2526.98	0.00040734
2536.62	0.0004479
2546.27	0.00030318
2555.91	0.000398
2565.56	0.0005072
2575.2	0.00037223
2584.85	0.00041015
2594.49	0.0003986
2604.14	0.0004465
2613.78	0.0002843
2623.43	0.0004608
2633.07	0.00041195
2642.72	0.0004752
2652.36	0.000522
2662.01	0.0004307
2671.65	0.0005523
2681.29	0.0004177
2690.94	0.0004536
2700.58	0.000441
2710.23	0.00036945
2719.87	0.00039897
2729.52	0.0004899
2739.16	0.0004235
2748.81	0.0004862
2758.45	0.0004692
2768.1	0.0004807
2777.74	0.00040597
2787.39	0.0006654
2797.03	0.0005919
2806.68	0.0008185
2816.32	0.0009636
2825.97	0.0008672
2835.61	0.0008618
2845.26	0.0008322
2854.9	0.0010972
2864.55	0.0012376
2874.19	0.001583
2883.84	0.002333
2893.48	0.003113
2903.12	0.003333
2912.77	0.003653
2922.41	0.003553
2932.06	0.003133
2941.7	0.004253
2951.35	0.005133
2960.99	0.003953
2970.64	0.004223
2980.28	0.006283
2989.93	0.005853
2999.57	0.003523
3009.22	0.002913
3018.86	0.003103
3028.51	0.004393
3038.15	0.005363
3047.8	0.004223
3057.44	0.003633
3067.09	0.005753
3076.73	0.005253
3086.38	0.003613
3096.02	0.002873
3105.67	0.001923
3115.31	0.0010731
3124.95	0.0008802
3134.6	0.000655
3144.24	0.0005487
3153.89	0.0005458
3163.53	0.0004863
3173.18	0.0004642
3182.82	0.0004631
3192.47	0.00030678
3202.11	0.00034491
3211.76	0.0005746
3221.4	0.0005266
3231.05	0.0004605
3240.69	0.00034529
3250.34	0.00040703
3259.98	0.000177
3269.63	0.00028
3279.27	0.00034605
3288.92	0.0002997
3298.56	0.00036358
3308.21	0.00034685
3317.85	0.00041274
3327.49	0.0005252
3337.14	0.00040543
3346.78	0.0004522
3356.43	0.00039721
3366.07	0.0005621
3375.72	0.0005066
3385.36	0.000585
3395.01	0.0005592
3404.65	0.0004617
3414.3	0.00037125
3423.94	0.0005089
3433.59	0.0002913
3443.23	0.000194
3452.88	0.0002509
3462.52	0.000315057
3472.17	0.00021
3481.81	0.00034021
3491.46	0.000199
3501.1	0.0002622
3510.75	0.00039698
3520.39	0.000118
3530.04	0.0004541
3539.68	0.0004908
3549.32	0.000209
3558.97	0.00030306
3568.61	0.00030665
3578.26	0.000193
3587.9	0.00033918
3597.55	0.0002937
3607.19	0.00011
3616.84	0.00038067
3626.48	0.0002297
3636.13	0.0002698
3645.77	0.0002162
3655.42	0.0003467
3665.06	0.0002878
3674.71	0.0002444
3684.35	0.00033202
3694	0.0002724
3703.64	0.000202
3713.29	0.0002867
3722.93	0.000178
3732.58	0.00032398
3742.22	0.0002796
3751.86	0.0004432
3761.51	0.00032435
3771.15	0.0002289
3780.8	0.00036477
3790.44	0.000321647
3800.09	0.000162
3809.73	0.0002322
3819.38	0.000212
3829.02	0.000499
3838.67	0.0004985
3848.31	0.00034325
3857.96	0.000191
3867.6	0.000178
3877.25	0.00030913
3886.89	0.0002623
3896.54	0.0002989
3906.18	0.0004469
3915.83	0.0002974
3925.47	0.0005343
3935.12	0.00038117
3944.76	0.0005702
3954.41	0.0005191
3964.05	0.0002387
3973.69	0.00038954
3983.34	0.0004249
3992.98	0.00038296
