Infrared Spectrum: 4-Methoxybenzyl phenyl carbonate
Formula: C 15 H 14 O 4
CAS: 31558-46-0
State: gas
Origin: EPA-IR VAPOR PHASE LIBRARY
1/CM	ABSORBANCE
549.8	0.01049
559.446	0.01259
569.092	0.00947
578.738	0.00616
588.384	0.00468
598.03	0.0051
607.676	0.00463
617.322	0.00633
626.968	0.00527
636.614	0.00633
646.26	0.00756
655.906	0.00734
665.552	0.01385
675.198	0.01353
684.844	0.02139
694.49	0.02264
704.136	0.01989
713.782	0.01499
723.428	0.01165
733.073	0.01367
742.719	0.02277
752.365	0.02718
762.011	0.02455
771.657	0.02059
781.303	0.01869
790.949	0.01983
800.595	0.02511
810.241	0.03185
819.887	0.03994
829.533	0.03621
839.179	0.02885
848.825	0.03097
858.471	0.01822
868.117	0.01018
877.763	0.00819
887.409	0.00878
897.055	0.0101
906.701	0.0114
916.347	0.01726
925.993	0.02165
935.639	0.01772
945.285	0.01379
954.931	0.01228
964.577	0.01381
974.223	0.01663
983.869	0.0214
993.515	0.02417
1003.16	0.02631
1012.81	0.03416
1022.45	0.05269
1032.1	0.05717
1041.74	0.07
1051.39	0.06423
1061.04	0.04338
1070.68	0.02473
1080.33	0.01594
1089.97	0.01272
1099.62	0.01217
1109.27	0.01339
1118.91	0.01357
1128.56	0.01321
1138.2	0.01592
1147.85	0.02325
1157.5	0.04286
1167.14	0.11254
1176.79	0.1678
1186.43	0.10717
1196.08	0.14924
1205.73	0.27413
1215.37	0.4216
1225.02	0.51772
1234.66	0.54256
1244.31	0.40894
1253.96	0.25816
1263.6	0.18085
1273.25	0.12357
1282.89	0.07896
1292.54	0.06221
1302.19	0.04986
1311.83	0.03288
1321.48	0.026
1331.12	0.02085
1340.77	0.01679
1350.42	0.01556
1360.06	0.01817
1369.71	0.02856
1379.35	0.02956
1389	0.01436
1398.65	0.01031
1408.29	0.00941
1417.94	0.00999
1427.58	0.01188
1437.23	0.0162
1446.88	0.02474
1456.52	0.03157
1466.17	0.03707
1475.81	0.03397
1485.46	0.04611
1495.11	0.08533
1504.75	0.0779
1514.4	0.1238
1524.04	0.05028
1533.69	0.01701
1543.34	0.01084
1552.98	0.00988
1562.63	0.01118
1572.27	0.01628
1581.92	0.0301
1591.57	0.05014
1601.21	0.0518
1610.86	0.05087
1620.5	0.03519
1630.15	0.01585
1639.79	0.0095
1649.44	0.00717
1659.09	0.00599
1668.73	0.00544
1678.38	0.00516
1688.02	0.00514
1697.67	0.00549
1707.32	0.00641
1716.96	0.00819
1726.61	0.01083
1736.25	0.01364
1745.9	0.01842
1755.55	0.03076
1765.19	0.06883
1774.84	0.12552
1784.48	0.10116
1794.13	0.08418
1803.78	0.05107
1813.42	0.02153
1823.07	0.0125
1832.71	0.00899
1842.36	0.00736
1852.01	0.00656
1861.65	0.00596
1871.3	0.00555
1880.94	0.00481
1890.59	0.00417
1900.24	0.0038
1909.88	0.0038
1919.53	0.00403
1929.17	0.0043
1938.82	0.00398
1948.47	0.00396
1958.11	0.00331
1967.76	0.00302
1977.4	0.00313
1987.05	0.00341
1996.7	0.00373
2006.34	0.0039
2015.99	0.00398
2025.63	0.00425
2035.28	0.00432
2044.93	0.00445
2054.57	0.00459
2064.22	0.00445
2073.86	0.00416
2083.51	0.00353
2093.16	0.0029
2102.8	0.0024253
2112.45	0.0022083
2122.09	0.0022068
2131.74	0.0022565
2141.39	0.0022769
2151.03	0.0024073
2160.68	0.0022898
2170.32	0.0022587
2179.97	0.002194
2189.62	0.002207
2199.26	0.0022282
2208.91	0.0023414
2218.55	0.0025119
2228.2	0.0026239
2237.85	0.00288
2247.49	0.00338
2257.14	0.00427
2266.78	0.0055
2276.43	0.00761
2286.08	0.01159
2295.72	0.01888
2305.37	0.02862
2315.01	0.03724
2324.66	0.04122
2334.31	0.03786
2343.95	0.03775
2353.6	0.04322
2363.24	0.05174
2372.89	0.04152
2382.53	0.01745
2392.18	0.00334
2401.83	0.0023321
2411.47	0.002446
2421.12	0.0025788
2430.76	0.0025684
2440.41	0.0024832
2450.06	0.0023925
2459.7	0.0022611
2469.35	0.0022383
2478.99	0.0021937
2488.64	0.0021481
2498.29	0.002111
2507.93	0.0019778
2517.58	0.0020078
2527.22	0.0019962
2536.87	0.0021281
2546.52	0.0022442
2556.16	0.0019976
2565.81	0.001618
2575.45	0.001509
2585.1	0.001521
2594.75	0.001419
2604.39	0.001385
2614.04	0.001344
2623.68	0.001357
2633.33	0.001204
2642.98	0.001135
2652.62	0.001033
2662.27	0.00094
2671.91	0.000919
2681.56	0.000916
2691.21	0.001015
2700.85	0.001028
2710.5	0.001088
2720.14	0.001242
2729.79	0.001229
2739.44	0.001299
2749.08	0.001284
2758.73	0.001415
2768.37	0.001478
2778.02	0.001604
2787.67	0.00187237
2797.31	0.0022549
2806.96	0.00302
2816.6	0.00417
2826.25	0.00615
2835.9	0.01059
2845.54	0.01764
2855.19	0.01122
2864.83	0.00751
2874.48	0.00711
2884.13	0.00831
2893.77	0.01066
2903.42	0.01306
2913.06	0.01606
2922.71	0.01659
2932.36	0.01787
2942	0.02376
2951.65	0.02616
2961.29	0.02798
2970.94	0.0222
2980.59	0.01521
2990.23	0.01447
2999.88	0.01957
3009.52	0.02626
3019.17	0.01691
3028.82	0.01642
3038.46	0.02062
3048.11	0.02158
3057.75	0.01704
3067.4	0.0179
3077.04	0.02166
3086.69	0.01801
3096.34	0.01187
3105.98	0.00907
3115.63	0.00549
3125.27	0.00325
3134.92	0.002255
3144.57	0.001455
3154.21	0.001009
3163.86	0.000887
3173.5	0.00078
3183.15	0.0006
3192.8	0.00045
3202.44	0.00041
3212.09	0.00055
3221.73	0.0003
3231.38	0.00025
3241.03	0.00019
3250.67	0.00013
3260.32	0.00022
3269.96	0.00015
3279.61	7e-05
3289.26	0.00024
3298.9	0.00013
3308.55	0.00013
3318.19	0.00014
3327.84	0.00012
3337.49	0.00013
3347.13	0.0002
3356.78	0.00018
3366.42	0.00024
3376.07	0.00033
3385.72	0.00026
3395.36	0.00019
3405.01	0.0002
3414.65	0.00015
3424.3	0.00027
3433.95	0.0003
3443.59	0.00026
3453.24	0.00035
3462.88	0.00038
3472.53	0.00027
3482.18	0.00047
3491.82	0.00047
3501.47	0.00054
3511.11	0.00068
3520.76	0.000952
3530.41	0.001289
3540.05	0.001423
3549.7	0.001654
3559.34	0.0019867
3568.99	0.0023502
3578.64	0.00287
3588.28	0.00306
3597.93	0.0027963
3607.57	0.00183867
3617.22	0.001604
3626.87	0.0021983
3636.51	0.00354
3646.16	0.00521
3655.8	0.00502
3665.45	0.00313
3675.1	0.0017591
3684.74	0.001514
3694.39	0.0017752
3704.03	0.0017355
3713.68	0.00131
3723.33	0.001432
3732.97	0.00182145
3742.62	0.00158
3752.26	0.000909
3761.91	0.00069
3771.56	0.00069
3781.2	0.00079
3790.85	0.00072
3800.49	0.00077
3810.14	0.00061
3819.78	0.0008
3829.43	0.00071
3839.08	0.00079
3848.72	0.00078
3858.37	0.0008
3868.01	0.000854
3877.66	0.000968
3887.31	0.001052
3896.95	0.001044
3906.6	0.000936
3916.24	0.000961
3925.89	0.000933
3935.54	0.00081
3945.18	0.000891
3954.83	0.000981
3964.47	0.000928
3974.12	0.000949
3983.77	0.000976
3993.41	0.000984
