Infrared Spectrum: 4-Nitro-.omega.-nitrostyrene
Formula: C 8 H 6 N 2 O 4
CAS: 3156-41-0
State: gas
Origin: EPA-IR VAPOR PHASE LIBRARY
1/CM	ABSORBANCE
549.8	0.0003068
559.445	0.00021792
569.09	0.0003816
578.735	0.0004361
588.38	0.00022207
598.025	0.0002247
607.67	0.0003284
617.315	0.00019005
626.96	0.00018422
636.605	0.00022096
646.251	0.0002809
655.896	0.00018627
665.541	0.0004066
675.186	0.0003613
684.831	0.0003393
694.476	0.0004626
704.121	0.0005534
713.766	0.0006762
723.411	0.0005685
733.056	0.0008005
742.701	0.001587
752.346	0.0008012
761.991	0.000604
771.636	0.0002802
781.281	0.0002908
790.926	0.0003754
800.571	0.0003054
810.216	0.0004014
819.861	0.0006631
829.507	0.0011568
839.152	0.001437
848.797	0.0008239
858.442	0.0008855
868.087	0.00098
877.732	0.0005191
887.377	0.0003565
897.022	0.00025198
906.667	0.00026323
916.312	0.0004053
925.957	0.0004208
935.602	0.0006593
945.247	0.0010476
954.892	0.001197
964.537	0.001177
974.182	0.0006494
983.827	0.0003202
993.472	0.0003176
1003.12	0.0003356
1012.76	0.000461
1022.41	0.0003028
1032.05	0.000172805
1041.7	0.00021499
1051.34	0.00018254
1060.99	0.0001117
1070.63	0.00024469
1080.28	0.00021615
1089.92	0.00025977
1099.57	0.0003746
1109.21	0.0004231
1118.86	0.00026172
1128.5	0.0002716
1138.15	0.00020928
1147.79	0.00021877
1157.44	0.0001471
1167.08	0.0002707
1176.73	0.000277
1186.37	0.00045
1196.02	0.0005974
1205.66	0.0003143
1215.31	0.00016589
1224.95	0.0003062
1234.6	0.0003227
1244.24	0.0004411
1253.89	0.0004731
1263.53	0.0003785
1273.18	0.0004209
1282.82	0.0004751
1292.47	0.0005232
1302.11	0.0006462
1311.76	0.0007642
1321.4	0.001347
1331.05	0.003327
1340.69	0.007207
1350.34	0.006457
1359.98	0.002777
1369.63	0.001617
1379.27	0.001217
1388.92	0.0008687
1398.56	0.0005778
1408.21	0.0005283
1417.85	0.0004409
1427.5	0.0003965
1437.14	0.000353
1446.79	0.0003259
1456.43	0.0004103
1466.08	0.0004563
1475.73	0.0005968
1485.37	0.0006772
1495.02	0.0009999
1504.66	0.0010267
1514.31	0.001447
1523.95	0.002677
1533.6	0.004717
1543.24	0.006017
1552.89	0.004947
1562.53	0.002947
1572.18	0.001737
1581.82	0.001447
1591.47	0.001637
1601.11	0.001737
1610.76	0.001307
1620.4	0.000663
1630.05	0.0004746
1639.69	0.0006615
1649.34	0.000698
1658.98	0.0004112
1668.63	0.0003794
1678.27	0.0003722
1687.92	0.0003359
1697.56	0.0003011
1707.21	0.00024964
1716.85	0.00022437
1726.5	0.00022985
1736.14	0.00024402
1745.79	0.00021218
1755.43	0.00022619
1765.08	0.00021639
1774.72	0.0002532
1784.37	0.0002683
1794.01	0.0002797
1803.66	0.000267
1813.3	0.0001475
1822.95	0.00016077
1832.59	0.000176138
1842.24	0.00022607
1851.88	0.00024062
1861.53	0.000168458
1871.17	0.00020069
1880.82	0.00023397
1890.46	0.00024786
1900.11	0.00018048
1909.75	0.00023987
1919.4	0.00024847
1929.04	0.00023461
1938.69	0.00020159
1948.33	0.00021927
1957.98	0.0001566
1967.62	0.0002266
1977.27	0.00022845
1986.91	0.00020045
1996.56	0.00019586
2006.2	0.00019477
2015.85	0.00020101
2025.49	0.0001488
2035.14	0.00017817
2044.78	0.000176127
2054.43	0.00018012
2064.07	0.00019529
2073.72	0.00017867
2083.36	0.0001459
2093.01	0.00019185
2102.65	0.00022033
2112.3	0.00021772
2121.94	0.00024715
2131.59	0.0001453
2141.23	0.00019862
2150.88	0.00018344
2160.52	0.00019688
2170.17	0.000175124
2179.81	0.0001416
2189.46	0.00021185
2199.1	0.00020579
2208.75	0.000176278
2218.39	0.00019591
2228.04	0.00016516
2237.68	0.00020805
2247.33	0.00012
2256.97	0.00022478
2266.62	0.000175886
2276.26	0.000176276
2285.91	0.00024206
2295.55	0.0002132
2305.2	0.0003016
2314.84	0.00020914
2324.49	0.00023396
2334.13	0.00025196
2343.78	0.000174053
2353.42	0.00016033
2363.07	0.0001458
2372.72	0.0002685
2382.36	0.00023231
2392.01	0.00023755
2401.65	0.00018746
2411.3	0.00022415
2420.94	0.00021373
2430.59	0.0002684
2440.23	0.000175833
2449.88	0.000176022
2459.52	0.00023016
2469.17	0.00026104
2478.81	0.00019473
2488.46	0.00021015
2498.1	0.000161
2507.75	0.00019807
2517.39	0.0003143
2527.04	0.00026675
2536.68	0.00024258
2546.33	0.00022603
2555.97	0.00017931
2565.62	0.0002716
2575.26	0.00024008
2584.91	0.00016095
2594.55	0.00023602
2604.2	0.0002698
2613.84	0.00019824
2623.49	0.0002404
2633.13	0.00023815
2642.78	0.0002187
2652.42	0.00025185
2662.07	0.0003268
2671.71	0.0001298
2681.36	0.000168858
2691	0.00022447
2700.65	0.0003025
2710.29	0.0002715
2719.94	0.0002732
2729.58	0.00020776
2739.23	0.00026241
2748.87	0.00026011
2758.52	0.00023103
2768.16	0.00019726
2777.81	0.0002728
2787.45	0.00024154
2797.1	0.0002749
2806.74	0.0002693
2816.39	0.00024661
2826.03	0.00024864
2835.68	0.000154
2845.32	0.0003128
2854.97	0.0003151
2864.61	0.0003175
2874.26	0.0003245
2883.9	0.000332
2893.55	0.0002759
2903.19	0.0003491
2912.84	0.0003253
2922.48	0.0003361
2932.13	0.0001447
2941.77	0.0002809
2951.42	0.0003952
2961.06	0.0002827
2970.71	0.0002721
2980.35	0.000172461
2990	0.00025517
2999.64	0.0002288
3009.29	0.00024706
3018.93	0.0003269
3028.58	0.00023241
3038.22	0.00025922
3047.87	0.0003319
3057.51	0.000321
3067.16	0.00025714
3076.8	0.0002998
3086.45	0.0004539
3096.09	0.0002886
3105.74	0.0003238
3115.38	0.0003913
3125.03	0.00024202
3134.67	0.00025508
3144.32	0.00024682
3153.96	0.00023889
3163.61	0.00019562
3173.25	0.00021233
3182.9	0.00021625
3192.54	0.00022682
3202.19	0.0004238
3211.83	0.0003244
3221.48	0.00022598
3231.12	0.000352
3240.77	0.0003155
3250.41	0.00019557
3260.06	0.0003298
3269.7	2.5e-05
3279.35	0.00021759
3289	0.00019958
3298.64	0.00026169
3308.29	0.0003243
3317.93	0.0003063
3327.58	0.0003721
3337.22	0.0002757
3346.87	0.0002363
3356.51	0.00017873
3366.16	0.00025077
3375.8	0.000176692
3385.45	8.23e-05
3395.09	0.0001423
3404.74	0.0002732
3414.38	0.0001542
3424.03	0.0001522
3433.67	0.0002416
3443.32	0.00023473
3452.96	0.0002023
3462.61	0.0002056
3472.25	0.00021373
3481.9	0.0002789
3491.54	0.0001448
3501.19	0.00024962
3510.83	0.0003423
3520.48	4.1e-05
3530.12	0.0001239
3539.77	0.0001339
3549.41	0.0002953
3559.06	0.0001945
3568.7	0.0002064
3578.35	0.00023069
3587.99	0.00022457
3597.64	0.000171647
3607.28	0.0001493
3616.93	0.00017871
3626.57	0.00021897
3636.22	0.00025512
3645.86	0.0003206
3655.51	0.000283
3665.15	0.00021982
3674.8	0.00020669
3684.44	0.00018004
3694.09	0.000174063
3703.73	0.0003104
3713.38	0.00021548
3723.02	0.0003104
3732.67	0.00029
3742.31	0.00020196
3751.96	0.0002675
3761.6	0.00021452
3771.25	0.00015913
3780.89	0.0003091
3790.54	0.0002228
3800.18	0.00018744
3809.83	0.00022853
3819.47	0.0001456
3829.12	0.00024299
3838.76	0.00021416
3848.41	0.00015714
3858.05	0.0002823
3867.7	0.00018701
3877.34	9.63e-05
3886.99	0.0002944
3896.63	0.0002471
3906.28	0.0003245
3915.92	0.00023952
3925.57	0.00016519
3935.21	0.0001395
3944.86	0.00026239
3954.5	0.00018751
3964.15	0.0002873
3973.79	0.0003558
3983.44	0.0001212
3993.08	0.00025504
