Infrared Spectrum: 2-Nitro-.omega.-nitrostyrene
Formula: C 8 H 6 N 2 O 4
CAS: 3156-39-6
State: gas
Origin: EPA-IR VAPOR PHASE LIBRARY
1/CM	ABSORBANCE
549.8	0.00365
559.445	0.0032
569.09	0.00292
578.734	0.001551
588.379	0.00553
598.024	0.00666
607.669	0.00405
617.313	0.00262
626.958	0.0022366
636.603	0.0013846
646.248	0.0017543
655.893	0.00365
665.537	0.00534
675.182	0.00652
684.827	0.00465
694.472	0.0048
704.116	0.00544
713.761	0.00667
723.406	0.00769
733.051	0.01123
742.695	0.01424
752.34	0.01535
761.985	0.01179
771.63	0.01059
781.275	0.00898
790.919	0.00499
800.564	0.0032
810.209	0.0027
819.854	0.00261
829.498	0.00568
839.143	0.00881
848.788	0.00794
858.433	0.00727
868.078	0.00837
877.722	0.00683
887.367	0.00325
897.012	0.00248
906.657	0.00315
916.301	0.00406
925.946	0.00483
935.591	0.00696
945.236	0.0109
954.88	0.01441
964.525	0.01279
974.17	0.00764
983.815	0.00363
993.46	0.00286
1003.1	0.00332
1012.75	0.0019665
1022.39	0.00273
1032.04	0.00255
1041.68	0.00268
1051.33	0.00257
1060.97	0.00258
1070.62	0.00256
1080.26	0.0020026
1089.91	0.0017893
1099.55	0.00342
1109.2	0.00266
1118.84	0.00361
1128.49	0.00303
1138.13	0.00289
1147.78	0.001053
1157.42	0.00211
1167.07	0.00287
1176.71	0.00248
1186.36	0.00487
1196	0.00387
1205.64	0.003
1215.29	0.00423
1224.93	0.00289
1234.58	0.0036
1244.22	0.00339
1253.87	0.00354
1263.51	0.00418
1273.16	0.00578
1282.8	0.00647
1292.45	0.0096
1302.09	0.00977
1311.74	0.00963
1321.38	0.013
1331.03	0.02504
1340.67	0.05367
1350.32	0.07773
1359.96	0.0534
1369.61	0.02261
1379.25	0.01064
1388.9	0.00728
1398.54	0.00553
1408.18	0.00466
1417.83	0.00466
1427.47	0.00455
1437.12	0.00538
1446.76	0.0059
1456.41	0.00549
1466.05	0.00623
1475.7	0.00793
1485.34	0.00899
1494.99	0.01032
1504.63	0.01426
1514.28	0.02197
1523.92	0.03631
1533.57	0.06271
1543.21	0.09574
1552.86	0.08381
1562.5	0.057
1572.15	0.04302
1581.79	0.02729
1591.44	0.01571
1601.08	0.01284
1610.73	0.0113
1620.37	0.00727
1630.01	0.0063
1639.66	0.0068
1649.3	0.00678
1658.95	0.00472
1668.59	0.00373
1678.24	0.00274
1687.88	0.00268
1697.53	0.0027
1707.17	0.00262
1716.82	0.00245
1726.46	0.00245
1736.11	0.0022417
1745.75	0.0017887
1755.4	0.0019516
1765.04	0.0021582
1774.69	0.002099
1784.33	0.0020294
1793.98	0.00253
1803.62	0.00242
1813.27	0.0023675
1822.91	0.002236
1832.55	0.0023569
1842.2	0.0022337
1851.84	0.0020747
1861.49	0.0019281
1871.13	0.0019352
1880.78	0.0019202
1890.42	0.0021819
1900.07	0.0020988
1909.71	0.0022157
1919.36	0.0021695
1929	0.00242
1938.65	0.00244
1948.29	0.00243
1957.94	0.0021254
1967.58	0.00247
1977.23	0.0020214
1986.87	0.0018188
1996.52	0.0019353
2006.16	0.0018343
2015.81	0.001776
2025.45	0.0015966
2035.1	0.0018691
2044.74	0.00147209
2054.38	0.0020619
2064.03	0.0017901
2073.67	0.0016336
2083.32	0.0016613
2092.96	0.001671
2102.61	0.0015665
2112.25	0.001824
2121.9	0.0019983
2131.54	0.0015957
2141.19	0.0017165
2150.83	0.0019314
2160.48	0.0017942
2170.12	0.0015165
2179.77	0.0018521
2189.41	0.001828
2199.06	0.001657
2208.7	0.0017209
2218.35	0.00150082
2227.99	0.0015416
2237.64	0.0017964
2247.28	0.0019403
2256.92	0.001242
2266.57	0.001256
2276.21	0.001276
2285.86	0.0015521
2295.5	0.0022023
2305.15	0.0020819
2314.79	0.0015606
2324.44	0.0020356
2334.08	0.0019795
2343.73	0.0017136
2353.37	0.0021915
2363.02	0.0015605
2372.66	0.0018737
2382.31	0.0019044
2391.95	0.0018214
2401.6	0.0014907
2411.24	0.0019438
2420.89	0.0017325
2430.53	0.0018283
2440.18	0.0013976
2449.82	0.0018799
2459.47	0.0017555
2469.11	0.00143816
2478.75	0.0022033
2488.4	0.0019398
2498.04	0.0017242
2507.69	0.0019705
2517.33	0.0021327
2526.98	0.0015434
2536.62	0.0019575
2546.27	0.0019882
2555.91	0.0019185
2565.56	0.0018456
2575.2	0.0017491
2584.85	0.0022795
2594.49	0.0016589
2604.14	0.0017898
2613.78	0.0019018
2623.43	0.0017797
2633.07	0.0020166
2642.72	0.0017643
2652.36	0.0018784
2662.01	0.0020033
2671.65	0.0019098
2681.29	0.0023847
2690.94	0.00268
2700.58	0.0023619
2710.23	0.0021378
2719.87	0.0013235
2729.52	0.0016481
2739.16	0.0019542
2748.81	0.0018572
2758.45	0.0013973
2768.1	0.0017521
2777.74	0.0015149
2787.39	0.0019326
2797.03	0.0018301
2806.68	0.0020328
2816.32	0.0022494
2825.97	0.0020354
2835.61	0.001903
2845.26	0.0021861
2854.9	0.00252
2864.55	0.00317
2874.19	0.00344
2883.84	0.00401
2893.48	0.00418
2903.12	0.00283
2912.77	0.00294
2922.41	0.00271
2932.06	0.0023163
2941.7	0.0019742
2951.35	0.001591
2960.99	0.0018079
2970.64	0.0016668
2980.28	0.0018502
2989.93	0.0018734
2999.57	0.0018747
3009.22	0.00140552
3018.86	0.0022956
3028.51	0.0016478
3038.15	0.0020043
3047.8	0.0019983
3057.44	0.00314
3067.09	0.00447
3076.73	0.00696
3086.38	0.00502
3096.02	0.00388
3105.67	0.00358
3115.31	0.00346
3124.95	0.00257
3134.6	0.0019489
3144.24	0.00279
3153.89	0.0021781
3163.53	0.0021081
3173.18	0.0013931
3182.82	0.0015808
3192.47	0.0016669
3202.11	0.0019318
3211.76	0.0015344
3221.4	0.0013364
3231.05	0.0018907
3240.69	0.0013211
3250.34	0.00150739
3259.98	0.0015145
3269.63	0.0018953
3279.27	0.0016555
3288.92	0.0018996
3298.56	0.0015575
3308.21	0.0019002
3317.85	0.0016511
3327.49	0.0018058
3337.14	0.0021427
3346.78	0.0017687
3356.43	0.0018317
3366.07	0.001227
3375.72	0.0015712
3385.36	0.0019485
3395.01	0.0016307
3404.65	0.0021868
3414.3	0.0021557
3423.94	0.0015928
3433.59	0.0017224
3443.23	0.001383
3452.88	0.00146409
3462.52	0.0016356
3472.17	0.00147386
3481.81	0.001107
3491.46	0.0013865
3501.1	0.0016488
3510.75	0.0020271
3520.39	0.001028
3530.04	0.001118
3539.68	0.0018929
3549.32	0.0019048
3558.97	0.0020254
3568.61	0.0017852
3578.26	0.0017406
3587.9	0.00148856
3597.55	0.0017543
3607.19	0.001872
3616.84	0.00244
3626.48	0.0021333
3636.13	0.0017748
3645.77	0.0017267
3655.42	0.001552
3665.06	0.0017367
3674.71	0.0017069
3684.35	0.0020615
3694	0.001262
3703.64	0.000915
3713.29	0.0017101
3722.93	0.000591
3732.58	0.0015498
3742.22	0.0018359
3751.86	0.00142799
3761.51	0.001169
3771.15	0.0016449
3780.8	0.0017259
3790.44	0.000876
3800.09	0.0015727
3809.73	0.0016047
3819.38	0.0013922
3829.02	0.00121
3838.67	0.000478
3848.31	0.000654
3857.96	0.0016235
3867.6	0.001981
3877.25	0.0013556
3886.89	0.0022843
3896.54	0.00148936
3906.18	0.0013361
3915.83	0.0018173
3925.47	0.0022563
3935.12	0.0021185
3944.76	0.002062
3954.41	0.00140562
3964.05	0.0020336
3973.69	0.001051
3983.34	0.0016889
3992.98	0.0022548
