Infrared Spectrum: Ethylamine, 2-(2-methoxyethoxy)-,
Formula: C5 H13 N O2
CAS: 31576-51-9
State: LIQUID (NEAT)
Boiling point: 170.5-171 C
Class: COBLENTZ III
Instrument: BAIRD (GRATING)
Instrument parameters: NaCl PRISM
Resolution: 2
Origin: WYANDOTTE CHEMICALS CORP.
1/CM	TRANSMITTANCE
627	0.6002
636	0.6179
645	0.6306
654	0.6482
663	0.6491
672	0.6626
681	0.6645
690	0.6659
699	0.663
708	0.6544
717	0.6401
726	0.6212
735	0.601
744	0.5714
753	0.5315
762	0.4756
771	0.4051
780	0.3199
789	0.2444
798	0.1902
807	0.1845
816	0.1806
825	0.1391
834	0.105
843	0.0633
852	0.0566
861	0.0747
870	0.103
879	0.1335
888	0.1858
897	0.2067
906	0.1687
915	0.1287
924	0.1607
933	0.2196
942	0.2837
951	0.294
960	0.2819
969	0.3394
978	0.3348
987	0.2917
996	0.3101
1005	0.333
1014	0.3393
1023	0.281
1032	0.1624
1041	0.1292
1050	0.1474
1059	0.181
1068	0.1452
1077	0.1149
1086	0.0541
1095	0.0296
1104	0.023
1113	0.0234
1122	0.0239
1131	0.0247
1140	0.0275
1149	0.0333
1158	0.0845
1167	0.2051
1176	0.3309
1185	0.325
1194	0.205
1203	0.1013
1212	0.2696
1221	0.4122
1230	0.4933
1239	0.429
1248	0.2766
1257	0.303
1266	0.3754
1275	0.4456
1284	0.4115
1293	0.3668
1302	0.3727
1311	0.401
1320	0.4728
1329	0.5011
1338	0.4705
1347	0.4584
1356	0.2061
1365	0.3036
1374	0.4172
1383	0.4604
1392	0.5282
1401	0.5476
1410	0.5941
1419	0.6086
1428	0.6017
1437	0.5659
1446	0.4568
1455	0.2496
1464	0.163
1473	0.192
1482	0.2293
1491	0.3426
1500	0.4462
1509	0.5685
1518	0.6513
1527	0.6664
1536	0.6734
1545	0.6689
1554	0.6565
1563	0.6347
1572	0.6076
1581	0.5748
1590	0.5306
1599	0.4755
1608	0.4239
1617	0.4235
1626	0.4771
1635	0.5302
1644	0.5821
1653	0.6248
1662	0.6642
1671	0.6915
1680	0.7153
1689	0.7349
1698	0.7499
1707	0.7588
1716	0.7666
1725	0.7744
1734	0.7806
1743	0.7863
1752	0.7919
1761	0.7961
1770	0.799
1779	0.8011
1788	0.8042
1797	0.8008
1806	0.7975
1815	0.8016
1824	0.7998
1833	0.7962
1842	0.7936
1851	0.7924
1860	0.7904
1869	0.7882
1878	0.7852
1887	0.7798
1896	0.7723
1905	0.7694
1914	0.765
1923	0.7581
1932	0.7564
1941	0.7566
1950	0.7584
1959	0.7609
1968	0.7576
1977	0.7711
1986	0.7763
1995	0.7794
2004	0.7813
2013	0.7824
2022	0.7817
2031	0.7799
2040	0.7789
2049	0.7795
2058	0.782
2067	0.7856
2076	0.7887
2085	0.7891
2094	0.787
2103	0.7904
2112	0.7992
2121	0.8057
2130	0.8104
2139	0.8137
2148	0.8158
2157	0.8172
2166	0.817
2175	0.8156
2184	0.8124
2193	0.8132
2202	0.8149
2211	0.8164
2220	0.8176
2229	0.8184
2238	0.819
2247	0.8198
2256	0.8211
2265	0.823
2274	0.8274
2283	0.8432
2292	0.8538
2301	0.8535
2310	0.8519
2319	0.8492
2328	0.8457
2337	0.8414
2346	0.8364
2355	0.8284
2364	0.8191
2373	0.8171
2382	0.8176
2391	0.818
2400	0.8178
2409	0.8176
2418	0.8175
2427	0.8175
2436	0.8176
2445	0.8177
2454	0.8181
2463	0.8185
2472	0.8189
2481	0.8194
2490	0.8198
2499	0.8202
2508	0.8202
2517	0.8196
2526	0.8187
2535	0.8153
2544	0.8121
2553	0.8068
2562	0.7993
2571	0.7917
2580	0.7855
2589	0.7817
2598	0.7796
2607	0.7782
2616	0.7769
2625	0.7755
2634	0.7733
2643	0.7711
2652	0.7662
2661	0.7524
2670	0.7327
2679	0.7107
2688	0.6891
2697	0.6611
2706	0.6081
2715	0.5626
2724	0.5459
2733	0.5327
2742	0.5139
2751	0.4893
2760	0.4437
2769	0.3867
2778	0.3302
2787	0.2656
2796	0.2017
2805	0.1343
2814	0.08
2823	0.0606
2832	0.0459
2841	0.0379
2850	0.0344
2859	0.0324
2868	0.0312
2877	0.032
2886	0.0336
2895	0.0364
2904	0.0382
2913	0.0375
2922	0.0367
2931	0.0357
2940	0.0388
2949	0.0611
2958	0.1162
2967	0.1678
2976	0.1821
2985	0.2219
2994	0.325
3003	0.4291
3012	0.5209
3021	0.5995
3030	0.635
3039	0.6694
3048	0.711
3057	0.7454
3066	0.7524
3075	0.757
3084	0.7626
3093	0.7646
3102	0.7657
3111	0.7659
3120	0.7641
3129	0.7589
3138	0.7534
3147	0.7486
3156	0.7409
3165	0.728
3174	0.7143
3183	0.7029
3192	0.6976
3201	0.6939
3210	0.6913
3219	0.6892
3228	0.6865
3237	0.6669
3246	0.6438
3255	0.6207
3264	0.5978
3273	0.575
3282	0.554
3291	0.5512
3300	0.5708
3309	0.5984
3318	0.6088
3327	0.5851
3336	0.4928
3345	0.4331
3354	0.503
3363	0.6079
3372	0.7194
3381	0.7413
3390	0.7614
3399	0.7788
3408	0.7903
3417	0.7984
3426	0.8045
3435	0.808
3444	0.8102
3453	0.8135
3462	0.8191
3471	0.8241
3480	0.8297
3489	0.8349
3498	0.84
3507	0.8438
3516	0.8459
3525	0.8478
3534	0.8495
3543	0.8513
3552	0.8531
3561	0.8549
3570	0.8568
3579	0.8585
3588	0.8599
3597	0.8614
3606	0.8628
3615	0.8642
3624	0.8655
3633	0.8667
3642	0.8679
3651	0.8688
3660	0.8696
3669	0.8703
3678	0.8705
3687	0.8706
3696	0.8708
3705	0.8708
3714	0.8708
3723	0.8712
3732	0.8717
3741	0.8722
3750	0.8727
3759	0.8733
3768	0.8738
3777	0.8739
3786	0.8739
3795	0.8739
3804	0.8739
3813	0.8739
3822	0.8738
3831	0.8737
3840	0.8737
3849	0.8742
3858	0.8749
3867	0.8762
3876	0.8776
3885	0.879
3894	0.8802
3903	0.8811
3912	0.8814
3921	0.8799
3930	0.8784
3939	0.8767
3948	0.8743
3957	0.8715
3966	0.8683
3975	0.8652
3984	0.8624
3993	0.8595
