Infrared Spectrum: 4-Iodo-o-xylene
Formula: C 8 H 9 I
CAS: 31599-61-8
State: gas
Origin: EPA-IR VAPOR PHASE LIBRARY
1/CM	ABSORBANCE
549.8	0.000284
559.445	0
569.09	0.00031
578.734	0.000141
588.379	0.0009301
598.024	0.0011169
607.669	0.00204
617.313	0.00237
626.958	0.0011119
636.603	0.0003512
646.248	0.0006758
655.893	0.0007749
665.537	0.0005408
675.182	0.0004031
684.827	0.0007391
694.472	0.0010937
704.116	0.0011429
713.761	0.0008994
723.406	0.0006308
733.051	0.0009157
742.695	0.0008037
752.34	0.00052888
761.985	0.0007363
771.63	0.001206
781.275	0.00294
790.919	0.00831
800.564	0.0157
810.209	0.01334
819.854	0.00621
829.498	0.00396
839.143	0.01167
848.788	0.01755
858.433	0.01271
868.078	0.00801
877.722	0.00342
887.367	0.0016
897.012	0.0010166
906.657	0.0007056
916.301	0.0009352
925.946	0.0008582
935.591	0.0009215
945.236	0.0008906
954.88	0.0013494
964.525	0.00179
974.17	0.0026
983.815	0.00557
993.46	0.00697
1003.1	0.00343
1012.75	0.00245
1022.39	0.00214
1032.04	0.00187
1041.68	0.00216
1051.33	0.00163
1060.97	0.001348
1070.62	0.00156
1080.26	0.00276
1089.91	0.00289
1099.55	0.00197
1109.2	0.00213
1118.84	0.00401
1128.49	0.00528
1138.13	0.00764
1147.78	0.00452
1157.42	0.00292
1167.07	0.00311
1176.71	0.00897
1186.36	0.00658
1196	0.0011981
1205.64	0.0006801
1215.29	0.00173
1224.93	0.00158
1234.58	0.0014218
1244.22	0.0010042
1253.87	0.0009456
1263.51	0.0010417
1273.16	0.00165
1282.8	0.00215
1292.45	0.001377
1302.09	0.001005
1311.74	0.0010666
1321.38	0.001146
1331.03	0.0012638
1340.67	0.0012905
1350.32	0.00153
1359.96	0.00197
1369.61	0.00294
1379.25	0.00473
1388.9	0.00663
1398.54	0.00656
1408.18	0.00415
1417.83	0.00354
1427.47	0.00427
1437.12	0.0058
1446.76	0.0088
1456.41	0.01166
1466.05	0.01293
1475.7	0.02031
1485.34	0.03254
1494.99	0.01393
1504.63	0.0044
1514.28	0.00296
1523.92	0.00269
1533.57	0.00267
1543.21	0.00319
1552.86	0.00366
1562.5	0.0038
1572.15	0.00514
1581.79	0.00937
1591.44	0.01013
1601.08	0.00469
1610.73	0.00243
1620.37	0.0014309
1630.01	0.0010434
1639.66	0.0009229
1649.3	0.000849
1658.95	0.0007918
1668.59	0.0008083
1678.24	0.0008821
1687.88	0.0007541
1697.53	0.0007186
1707.17	0.000776
1716.82	0.0010014
1726.46	0.0013387
1736.11	0.00205
1745.75	0.0016
1755.4	0.0008085
1765.04	0.0006745
1774.69	0.0005498
1784.33	0.00048288
1793.98	0.0006258
1803.62	0.0006225
1813.27	0.000759
1822.91	0.0006689
1832.55	0.000669
1842.2	0.0006472
1851.84	0.0007589
1861.49	0.0010951
1871.13	0.00149
1880.78	0.00147
1890.42	0.0011031
1900.07	0.0008672
1909.71	0.0007055
1919.36	0.0005826
1929	0.0005489
1938.65	0.00052014
1948.29	0.00046089
1957.94	0.00049342
1967.58	0.00053327
1977.23	0.00048869
1986.87	0.00052424
1996.52	0.0005699
2006.16	0.0005321
2015.81	0.00043889
2025.45	0.0004139
2035.1	0.0004142
2044.74	0.00045529
2054.38	0.00050102
2064.03	0.0005897
2073.67	0.000448611
2083.32	0.00050023
2092.96	0.00050543
2102.61	0.00051167
2112.25	0.0005671
2121.9	0.0005469
2131.54	0.00049516
2141.19	0.00050042
2150.83	0.00050967
2160.48	0.000448656
2170.12	0.0003982
2179.77	0.00045872
2189.41	0.00050782
2199.06	0.00045221
2208.7	0.00048138
2218.35	0.00050323
2227.99	0.00050855
2237.64	0.000646
2247.28	0.0005702
2256.92	0.0006347
2266.57	0.00051206
2276.21	0.00046827
2285.86	0.00046273
2295.5	0.0003741
2305.15	0.00043081
2314.79	0.00047805
2324.44	0.00056
2334.08	0.00048256
2343.73	0.00048068
2353.37	0.0005669
2363.02	0.0006049
2372.66	0.0006188
2382.31	0.0005839
2391.95	0.0006005
2401.6	0.0006638
2411.24	0.0006542
2420.89	0.0006953
2430.53	0.000786
2440.18	0.0006701
2449.82	0.0007342
2459.47	0.0007
2469.11	0.000627
2478.75	0.00050783
2488.4	0.00049261
2498.04	0.0006028
2507.69	0.0006649
2517.33	0.0006132
2526.98	0.0006284
2536.62	0.0005954
2546.27	0.0006305
2555.91	0.000704
2565.56	0.0007656
2575.2	0.0006601
2584.85	0.00046436
2594.49	0.0005536
2604.14	0.0006332
2613.78	0.0005525
2623.43	0.00047735
2633.07	0.00051773
2642.72	0.0006772
2652.36	0.0006903
2662.01	0.0006935
2671.65	0.0006771
2681.29	0.0007247
2690.94	0.0005448
2700.58	0.0006854
2710.23	0.00074
2719.87	0.0007288
2729.52	0.0010745
2739.16	0.001367
2748.81	0.0012987
2758.45	0.0011464
2768.1	0.0011361
2777.74	0.001087
2787.39	0.0010028
2797.03	0.0009184
2806.68	0.0011801
2816.32	0.0014096
2825.97	0.00177
2835.61	0.00228
2845.26	0.00317
2854.9	0.00434
2864.55	0.00669
2874.19	0.00952
2883.84	0.01066
2893.48	0.00983
2903.12	0.00879
2912.77	0.00907
2922.41	0.01316
2932.06	0.02201
2941.7	0.0209
2951.35	0.01482
2960.99	0.01259
2970.64	0.01163
2980.28	0.01143
2989.93	0.01001
2999.57	0.00731
3009.22	0.00756
3018.86	0.00888
3028.51	0.00794
3038.15	0.00637
3047.8	0.00612
3057.44	0.00576
3067.09	0.00638
3076.73	0.00649
3086.38	0.00513
3096.02	0.00322
3105.67	0.00223
3115.31	0.00166
3124.95	0.001363
3134.6	0.001257
3144.24	0.0008693
3153.89	0.0007475
3163.53	0.0006584
3173.18	0.0006285
3182.82	0.0005988
3192.47	0.000427
3202.11	0.00047989
3211.76	0.00048065
3221.4	0.00047822
3231.05	0.0004024
3240.69	0.00050619
3250.34	0.0005937
3259.98	0.0003689
3269.63	0.00052397
3279.27	0.000269
3288.92	0.0006141
3298.56	0.00043421
3308.21	0.000333
3317.85	0.000286
3327.49	0.0004522
3337.14	0.000317
3346.78	0.00047454
3356.43	0.0005992
3366.07	0.0004043
3375.72	0.0003857
3385.36	0.0006237
3395.01	0.00049826
3404.65	0.00045778
3414.3	0.0003627
3423.94	0.00024
3433.59	0.0004001
3443.23	0.00045425
3452.88	0.000296
3462.52	0.0004514
3472.17	0.0006954
3481.81	0.0005006
3491.46	0.000398
3501.1	0.0006276
3510.75	0.0003609
3520.39	0.000326
3530.04	0.0003812
3539.68	0.0003702
3549.32	0.000414
3558.97	0.000239
3568.61	0.000312
3578.26	0.0003737
3587.9	0.0003816
3597.55	0.0006013
3607.19	0.000272
3616.84	0.0005961
3626.48	0.00046079
3636.13	0.0003557
3645.77	0.0003889
3655.42	0.000282
3665.06	0.000256
3674.71	0.000324
3684.35	0.000323
3694	0.000193
3703.64	0.0004156
3713.29	0.0004019
3722.93	0.0003401
3732.58	0.00046736
3742.22	0.00045294
3751.86	0.000216
3761.51	0.0003677
3771.15	0.000204
3780.8	0.0004055
3790.44	0.000291
3800.09	0.00023
3809.73	0.000264
3819.38	0.0004505
3829.02	0.000445474
3838.67	0.0006755
3848.31	0.00046339
3857.96	0.0004041
3867.6	0.00052868
3877.25	0.0003829
3886.89	0.0006303
3896.54	0.000698
3906.18	0.00047431
3915.83	0.0006519
3925.47	0.0006015
3935.12	0.0003771
3944.76	0.000546
3954.41	0.0005958
3964.05	0.00043427
3973.69	0.0005738
3983.34	0.0006338
3992.98	0.00047945
