Infrared Spectrum: 3-Iodo-o-xylene
Formula: C 8 H 9 I
CAS: 31599-60-7
State: gas
Origin: EPA-IR VAPOR PHASE LIBRARY
1/CM	ABSORBANCE
549.8	0.00039897
559.445	0.0004848
569.09	0.0007464
578.734	0.001682
588.379	0.007442
598.024	0.012242
607.669	0.003792
617.313	0.0010093
626.958	0.0008526
636.603	0.0005271
646.248	0.0005239
655.893	0.0006444
665.537	0.0006646
675.182	0.001482
684.827	0.004422
694.472	0.008182
704.116	0.006432
713.761	0.002822
723.406	0.001472
733.051	0.002312
742.695	0.006962
752.34	0.022972
761.985	0.048812
771.63	0.042072
781.275	0.014462
790.919	0.003912
800.564	0.002022
810.209	0.002682
819.854	0.010072
829.498	0.010652
839.143	0.001942
848.788	0.0010881
858.433	0.0012231
868.078	0.0010509
877.722	0.0011695
887.367	0.001682
897.012	0.001512
906.657	0.0012445
916.301	0.0011
925.946	0.001522
935.591	0.002212
945.236	0.003422
954.88	0.005632
964.525	0.009612
974.17	0.016182
983.815	0.021812
993.46	0.021962
1003.1	0.014062
1012.75	0.009082
1022.39	0.008582
1032.04	0.006882
1041.68	0.005302
1051.33	0.004192
1060.97	0.003772
1070.62	0.004462
1080.26	0.006712
1089.91	0.005402
1099.55	0.003192
1109.2	0.002722
1118.84	0.002872
1128.49	0.007862
1138.13	0.007072
1147.78	0.002772
1157.42	0.001972
1167.07	0.005302
1176.71	0.005522
1186.36	0.001582
1196	0.000833
1205.64	0.0010946
1215.29	0.0009889
1224.93	0.0010521
1234.58	0.0012051
1244.22	0.002272
1253.87	0.002982
1263.51	0.002822
1273.16	0.002242
1282.8	0.001802
1292.45	0.001312
1302.09	0.0012814
1311.74	0.001442
1321.38	0.001582
1331.03	0.001642
1340.67	0.001772
1350.32	0.001942
1359.96	0.002332
1369.61	0.003162
1379.25	0.005282
1388.9	0.007302
1398.54	0.006882
1408.18	0.006012
1417.83	0.010102
1427.47	0.018572
1437.12	0.028522
1446.76	0.033002
1456.41	0.028952
1466.05	0.025232
1475.7	0.016972
1485.34	0.009242
1494.99	0.006592
1504.63	0.005622
1514.28	0.005882
1523.92	0.007082
1533.57	0.008892
1543.21	0.011542
1552.86	0.018152
1562.5	0.022602
1572.15	0.014572
1581.79	0.009322
1591.44	0.006532
1601.08	0.003702
1610.73	0.002462
1620.37	0.001912
1630.01	0.001812
1639.66	0.002242
1649.3	0.003432
1658.95	0.003052
1668.59	0.001552
1678.24	0.0011411
1687.88	0.0009711
1697.53	0.0008344
1707.17	0.0010235
1716.82	0.0011878
1726.46	0.0010709
1736.11	0.000889
1745.75	0.0008337
1755.4	0.0009369
1765.04	0.0013459
1774.69	0.002002
1784.33	0.001952
1793.98	0.0012515
1803.62	0.0008808
1813.27	0.0007446
1822.91	0.0008428
1832.55	0.0011665
1842.2	0.002162
1851.84	0.002242
1861.49	0.0011934
1871.13	0.0008525
1880.78	0.0008503
1890.42	0.0010272
1900.07	0.001562
1909.71	0.002462
1919.36	0.002542
1929	0.001632
1938.65	0.0010046
1948.29	0.0006881
1957.94	0.0006739
1967.58	0.0007044
1977.23	0.000774
1986.87	0.0006504
1996.52	0.0006277
2006.16	0.0006003
2015.81	0.0005665
2025.45	0.0006251
2035.1	0.0006181
2044.74	0.0005776
2054.38	0.0005441
2064.03	0.0005656
2073.67	0.0005467
2083.32	0.0005773
2092.96	0.0005
2102.61	0.0005337
2112.25	0.0005319
2121.9	0.0006491
2131.54	0.0005817
2141.19	0.0006205
2150.83	0.0005691
2160.48	0.000513
2170.12	0.0005858
2179.77	0.000595
2189.41	0.0006472
2199.06	0.0006949
2208.7	0.0006612
2218.35	0.0005484
2227.99	0.0006882
2237.64	0.0006214
2247.28	0.0006232
2256.92	0.000524
2266.57	0.0006267
2276.21	0.0005111
2285.86	0.0007268
2295.5	0.000687
2305.15	0.0008335
2314.79	0.0005185
2324.44	0.0006606
2334.08	0.0007087
2343.73	0.0008547
2353.37	0.0006782
2363.02	0.0006579
2372.66	0.0006402
2382.31	0.0007208
2391.95	0.0008393
2401.6	0.0008473
2411.24	0.000888
2420.89	0.0008415
2430.53	0.0008225
2440.18	0.0007458
2449.82	0.000804
2459.47	0.0007601
2469.11	0.0007958
2478.75	0.0007542
2488.4	0.0008217
2498.04	0.0009344
2507.69	0.0008783
2517.33	0.0009754
2526.98	0.0009344
2536.62	0.0008554
2546.27	0.000884
2555.91	0.000844
2565.56	0.0007883
2575.2	0.0007521
2584.85	0.0006558
2594.49	0.0006117
2604.14	0.0005954
2613.78	0.0005659
2623.43	0.0007437
2633.07	0.0008351
2642.72	0.0006419
2652.36	0.0006861
2662.01	0.0006444
2671.65	0.0006367
2681.29	0.0008084
2690.94	0.0009137
2700.58	0.0008467
2710.23	0.0009414
2719.87	0.0009599
2729.52	0.0012603
2739.16	0.001722
2748.81	0.001662
2758.45	0.0011562
2768.1	0.0012022
2777.74	0.0012074
2787.39	0.0011889
2797.03	0.0012227
2806.68	0.001592
2816.32	0.001882
2825.97	0.002312
2835.61	0.002912
2845.26	0.003972
2854.9	0.005762
2864.55	0.008932
2874.19	0.012212
2883.84	0.011902
2893.48	0.010922
2903.12	0.012382
2912.77	0.016182
2922.41	0.021292
2932.06	0.026872
2941.7	0.027932
2951.35	0.022922
2960.99	0.018862
2970.64	0.016662
2980.28	0.017622
2989.93	0.015312
2999.57	0.011902
3009.22	0.012442
3018.86	0.012072
3028.51	0.011122
3038.15	0.012392
3047.8	0.017142
3057.44	0.025112
3067.09	0.023452
3076.73	0.012732
3086.38	0.007642
3096.02	0.005232
3105.67	0.004062
3115.31	0.003302
3124.95	0.002522
3134.6	0.001802
3144.24	0.001542
3153.89	0.0012749
3163.53	0.0011632
3173.18	0.0010771
3182.82	0.000767
3192.47	0.0007335
3202.11	0.0006094
3211.76	0.0005145
3221.4	0.0006711
3231.05	0.00042341
3240.69	0.0005347
3250.34	0.0005448
3259.98	0.0004991
3269.63	0.000266
3279.27	0.00047311
3288.92	0.0004577
3298.56	0.00045005
3308.21	0.00042769
3317.85	0.00043326
3327.49	0.00039345
3337.14	0.00042935
3346.78	0.00043912
3356.43	0.000281
3366.07	0.00042059
3375.72	0.0002893
3385.36	0.0003437
3395.01	0.000238
3404.65	0.000206
3414.3	0.00040197
3423.94	0.0003679
3433.59	0.000389722
3443.23	0.00028
3452.88	0.0003434
3462.52	0.00042365
3472.17	0.00044177
3481.81	0.0005795
3491.46	0.00045639
3501.1	0.00037273
3510.75	0.00039201
3520.39	0.000249
3530.04	0.00043139
3539.68	0.0002887
3549.32	0.0003264
3558.97	0.0003684
3568.61	0.00043235
3578.26	0.0005171
3587.9	0.0003171
3597.55	0.000195
3607.19	0.000134
3616.84	0.0002932
3626.48	0.000181
3636.13	0.00039297
3645.77	0.00036
3655.42	0.0005956
3665.06	0.0003233
3674.71	0.00040444
3684.35	0.0003389
3694	0.0003364
3703.64	0.000383469
3713.29	0.0003206
3722.93	0.0003509
3732.58	0.000157
3742.22	0.000165
3751.86	0.00047587
3761.51	0.000506
3771.15	0.000265
3780.8	0.00041785
3790.44	0.0005299
3800.09	0.00047134
3809.73	0.0005177
3819.38	0.0006528
3829.02	0.00046816
3838.67	0.00047408
3848.31	0.0005666
3857.96	0.0005994
3867.6	0.0007374
3877.25	0.0008265
3886.89	0.0009039
3896.54	0.0008002
3906.18	0.0006635
3915.83	0.0007416
3925.47	0.0007193
3935.12	0.00046726
3944.76	0.000692
3954.41	0.0005136
3964.05	0.0005246
3973.69	0.0006571
3983.34	0.0005073
3992.98	0.00039663
