Infrared Spectrum: 2-Aminononadecane
Formula: C 19 H 41 N
CAS: 31604-55-4
State: gas
Instrument: HP-GC/MS/IRD
Origin: NIST Mass Spectrometry Data Center
1/CM	ABSORBANCE
550	0.0004824
562	0.0001876
574	0.000134
586	0.0002412
598	6.7e-05
610	2.68e-05
622	0.0001876
634	0.0002278
646	0.0003484
658	0.0004422
670	0.0006968
682	0.0009112
694	0.0014204
706	0.002345
718	0.0032964
730	0.0034974
742	0.0038324
754	0.0045024
766	0.0055342
778	0.0068072
790	0.006834
802	0.0051724
814	0.0036046
826	0.0025326
838	0.0019162
850	0.0015008
862	0.0011122
874	0.0008978
886	0.0006566
898	0.0005628
910	0.0004288
922	0.000402
934	0.000335
946	0.0002814
958	0.0003082
970	0.0002814
982	0.000335
994	0.0004154
1006	0.000469
1018	0.0005896
1030	0.0006298
1042	0.0006834
1054	0.0006834
1066	0.0008174
1078	0.0007772
1090	0.0008978
1102	0.0009514
1114	0.0010854
1126	0.0012864
1138	0.001541
1150	0.001474
1162	0.0012462
1174	0.0010452
1186	0.0008442
1198	0.0008308
1210	0.0007772
1222	0.0007772
1234	0.0008308
1246	0.0008442
1258	0.0009514
1270	0.0010988
1282	0.0013534
1294	0.0017554
1306	0.0022244
1318	0.0022914
1330	0.0027068
1342	0.00402
1354	0.005025
1366	0.0049446
1378	0.0047704
1390	0.003149
1402	0.0018358
1414	0.0015276
1426	0.0018492
1438	0.0035912
1450	0.0069814
1462	0.009246
1474	0.0054806
1486	0.002278
1498	0.0012596
1510	0.000871
1522	0.0006968
1534	0.0005762
1546	0.000536
1558	0.0005762
1570	0.0006298
1582	0.0008174
1594	0.0012194
1606	0.0019028
1618	0.0025862
1630	0.0021172
1642	0.0012328
1654	0.00067
1666	0.0003886
1678	0.0002948
1690	0.0001742
1702	0.0001608
1714	0.0001206
1726	0.000134
1738	0.0001072
1750	0.0001072
1762	9.38e-05
1774	6.7e-05
1786	5.36e-05
1798	6.7e-05
1810	6.7e-05
1822	6.7e-05
1834	6.7e-05
1846	6.7e-05
1858	6.7e-05
1870	6.7e-05
1882	5.36e-05
1894	6.7e-05
1906	2.68e-05
1918	5.36e-05
1930	5.36e-05
1942	6.7e-05
1954	2.68e-05
1966	2.68e-05
1978	5.36e-05
1990	8.04e-05
2002	0.0001072
2014	0.0001206
2026	0.000134
2038	0.000134
2050	0.000134
2062	0.0001072
2074	9.38e-05
2086	5.36e-05
2098	5.36e-05
2110	5.36e-05
2122	0
2134	2.68e-05
2146	8.04e-05
2158	5.36e-05
2170	4.02e-05
2182	2.68e-05
2194	5.36e-05
2206	5.36e-05
2218	4.02e-05
2230	4.02e-05
2242	2.68e-05
2254	0.0001072
2266	0.0001742
2278	0.000134
2290	9.38e-05
2302	9.38e-05
2314	8.04e-05
2326	0.0001206
2338	0.0001072
2350	8.04e-05
2362	0.000134
2374	0.0001072
2386	8.04e-05
2398	9.38e-05
2410	9.38e-05
2422	0.0001072
2434	8.04e-05
2446	9.38e-05
2458	9.38e-05
2470	0.0001206
2482	0.000134
2494	0.0001742
2506	0.000201
2518	0.0002412
2530	0.0003216
2542	0.0003484
2554	0.0003484
2566	0.0004288
2578	0.0005226
2590	0.0005896
2602	0.0006968
2614	0.0007906
2626	0.0008978
2638	0.0010184
2650	0.0010988
2662	0.0012462
2674	0.0014204
2686	0.0014204
2698	0.00134
2710	0.0012998
2722	0.0013668
2734	0.0015544
2746	0.001675
2758	0.001742
2770	0.0019296
2782	0.0023986
2794	0.0031624
2806	0.0041272
2818	0.0058022
2830	0.0084152
2842	0.014472
2854	0.0344916
2866	0.0484544
2878	0.0312488
2890	0.027068
2902	0.0364882
2914	0.0602598
2926	0.114972
2938	0.118778
2950	0.0574458
2962	0.0386992
2974	0.026733
2986	0.0130248
2998	0.0068072
3010	0.0043416
3022	0.0030686
3034	0.0023048
3046	0.001809
3058	0.0014204
3070	0.0011792
3082	0.0010452
3094	0.0009246
3106	0.0008442
3118	0.0007504
3130	0.0006566
3142	0.0006566
3154	0.0005896
3166	0.0005762
3178	0.0005494
3190	0.0004824
3202	0.0004824
3214	0.000335
3226	0.000268
3238	0.0002546
3250	0.0001608
3262	0.0001608
3274	0.000201
3286	0.0001608
3298	0.0001206
3310	0.000201
3322	0.0003216
3334	0.0004288
3346	0.0003752
3358	0.0002546
3370	0.0002144
3382	0.0001876
3394	0.0002278
3406	0.0001876
3418	0.000201
3430	0.0001206
3442	0.000134
3454	0.0001206
3466	5.36e-05
3478	9.38e-05
3490	2.68e-05
3502	6.7e-05
3514	4.02e-05
3526	6.7e-05
3538	4.02e-05
3550	6.7e-05
3562	0.000134
3574	0.0001072
3586	0.0001474
3598	0.0001206
3610	0.000134
3622	0.000201
3634	0.0002412
3646	0.0002144
3658	0.0002412
3670	0.0001742
3682	0.0002144
3694	0.0001608
3706	0.0001474
3718	0.0002144
3730	0.0002144
3742	0.0002546
3754	0.0001608
3766	0.0001876
3778	0.0001742
3790	0.000201
3802	0.0002144
3814	0.000201
3826	0.0002278
3838	0.0002814
