Infrared Spectrum: 4-(p-Hydroxyphenyl)-3-buten-2-one
Formula: C 10 H 10 O 2
CAS: 3160-35-8
State: gas
Origin: EPA-IR VAPOR PHASE LIBRARY
1/CM	ABSORBANCE
549.8	0.001658
559.445	0.0010481
569.09	0.001378
578.734	0.0010407
588.379	0.0009973
598.024	0.001808
607.669	0.002008
617.313	0.0008011
626.958	0.0005335
636.603	0.0006716
646.248	0.0009827
655.893	0.0007325
665.537	0.0006072
675.182	0.0004397
684.827	0.000571
694.472	0.0003931
704.116	0.0003891
713.761	0.0003849
723.406	0.000634
733.051	0.0007592
742.695	0.0006601
752.34	0.0005381
761.985	0.0007538
771.63	0.001338
781.275	0.002768
790.919	0.003148
800.564	0.004058
810.209	0.005028
819.854	0.004318
829.498	0.002718
839.143	0.002858
848.788	0.003228
858.433	0.002328
868.078	0.001598
877.722	0.001188
887.367	0.001298
897.012	0.001898
906.657	0.002388
916.301	0.001728
925.946	0.001408
935.591	0.001688
945.236	0.001928
954.88	0.003608
964.525	0.006248
974.17	0.006668
983.815	0.004598
993.46	0.003178
1003.1	0.003148
1012.75	0.002118
1022.39	0.001518
1032.04	0.001658
1041.68	0.001768
1051.33	0.001728
1060.97	0.001628
1070.62	0.001698
1080.26	0.001848
1089.91	0.003288
1099.55	0.003458
1109.2	0.003568
1118.84	0.003308
1128.49	0.004458
1138.13	0.005318
1147.78	0.007928
1157.42	0.019728
1167.07	0.044298
1176.71	0.028868
1186.36	0.014148
1196	0.011348
1205.64	0.009648
1215.29	0.006608
1224.93	0.006238
1234.58	0.010678
1244.22	0.022588
1253.87	0.020408
1263.51	0.016718
1273.16	0.008708
1282.8	0.005038
1292.45	0.004148
1302.09	0.004738
1311.74	0.005408
1321.38	0.007068
1331.03	0.007288
1340.67	0.005598
1350.32	0.005408
1359.96	0.007608
1369.61	0.005898
1379.25	0.003328
1388.9	0.002328
1398.54	0.001908
1408.18	0.002178
1417.83	0.003568
1427.47	0.005858
1437.12	0.005098
1446.76	0.002028
1456.41	0.001218
1466.05	0.001128
1475.7	0.0010979
1485.34	0.001678
1494.99	0.003888
1504.63	0.014028
1514.28	0.021688
1523.92	0.007498
1533.57	0.002638
1543.21	0.001828
1552.86	0.001978
1562.5	0.002198
1572.15	0.003588
1581.79	0.008538
1591.44	0.014628
1601.08	0.022008
1610.73	0.026138
1620.37	0.016748
1630.01	0.010338
1639.66	0.004558
1649.3	0.002998
1658.95	0.003028
1668.59	0.004308
1678.24	0.009138
1687.88	0.018578
1697.53	0.016128
1707.17	0.012528
1716.82	0.008328
1726.46	0.003978
1736.11	0.002188
1745.75	0.001548
1755.4	0.001118
1765.04	0.0009005
1774.69	0.0008488
1784.33	0.000792
1793.98	0.0008471
1803.62	0.0007162
1813.27	0.0007587
1822.91	0.0006318
1832.55	0.0005256
1842.2	0.0004849
1851.84	0.0005037
1861.49	0.0005583
1871.13	0.0006231
1880.78	0.0006885
1890.42	0.0005907
1900.07	0.0005083
1909.71	0.0004445
1919.36	0.0003848
1929	0.0003932
1938.65	0.0003772
1948.29	0.0004279
1957.94	0.0003388
1967.58	0.0003694
1977.23	0.0002991
1986.87	0.0003134
1996.52	0.0003693
2006.16	0.0003255
2015.81	0.0004214
2025.45	0.0004873
2035.1	0.000394
2044.74	0.0004275
2054.38	0.0003826
2064.03	0.0003417
2073.67	0.0002917
2083.32	0.0003474
2092.96	0.0003494
2102.61	0.0003643
2112.25	0.0003538
2121.9	0.0002926
2131.54	0.0002642
2141.19	0.00015645
2150.83	0.0002766
2160.48	0.00020604
2170.12	0.0002099
2179.77	0.00019379
2189.41	0.00020438
2199.06	0.0001965
2208.7	0.0002525
2218.35	0.00018053
2227.99	0.00021
2237.64	0.00019597
2247.28	0.00016723
2256.92	0.0002255
2266.57	0.0002637
2276.21	0.0002992
2285.86	0.0002094
2295.5	0.0002501
2305.15	0.00013952
2314.79	0.0002659
2324.44	0.0002306
2334.08	0.0002127
2343.73	0.0002815
2353.37	0.0002274
2363.02	0.0002231
2372.66	0.0002372
2382.31	0.0002622
2391.95	0.0002502
2401.6	0.00019122
2411.24	0.0002865
2420.89	0.0004344
2430.53	0.0005847
2440.18	0.0004287
2449.82	0.0003791
2459.47	0.0003619
2469.11	0.00029
2478.75	0.0002841
2488.4	0.0003299
2498.04	0.0002975
2507.69	0.0003738
2517.33	0.0004013
2526.98	0.000399
2536.62	0.0003452
2546.27	0.0002088
2555.91	0.0001606
2565.56	0.0002335
2575.2	0.0002583
2584.85	0.00011978
2594.49	0.00018666
2604.14	0.00020319
2613.78	0.00019062
2623.43	0.0002578
2633.07	0.00016393
2642.72	0.00019592
2652.36	0.00019897
2662.01	0.0002087
2671.65	0.0001596
2681.29	0.00017756
2690.94	0.00013056
2700.58	8.07e-05
2710.23	0.00012093
2719.87	0.00013066
2729.52	3.84e-05
2739.16	0.00015093
2748.81	0.00016269
2758.45	0.00017511
2768.1	0.0002574
2777.74	0.0002371
2787.39	0.00017519
2797.03	9.861e-05
2806.68	0.00017347
2816.32	0.000168
2825.97	0.0002108
2835.61	0.0001524
2845.26	0.0002138
2854.9	0.0002383
2864.55	0.0002805
2874.19	0.0002917
2883.84	0.0002541
2893.48	0.0004485
2903.12	0.0004843
2912.77	0.0005902
2922.41	0.0008099
2932.06	0.0007528
2941.7	0.0006855
2951.35	0.0006517
2960.99	0.0006154
2970.64	0.0007521
2980.28	0.0007122
2989.93	0.0008063
2999.57	0.001358
3009.22	0.002448
3018.86	0.002978
3028.51	0.003238
3038.15	0.004288
3047.8	0.003378
3057.44	0.002258
3067.09	0.001888
3076.73	0.001538
3086.38	0.001128
3096.02	0.0009251
3105.67	0.0007622
3115.31	0.0005102
3124.95	0.0005686
3134.6	0.0003627
3144.24	0.0003086
3153.89	0.00011814
3163.53	0.0002818
3173.18	0.0002115
3182.82	0.0001381
3192.47	0.0003144
3202.11	0.0002363
3211.76	0.0003567
3221.4	0.0002133
3231.05	0.0002806
3240.69	0.0002481
3250.34	0.0002205
3259.98	0.00017814
3269.63	0.00019618
3279.27	0.0002376
3288.92	0.0002495
3298.56	0.0003009
3308.21	0.0003547
3317.85	0.0002572
3327.49	0.0003829
3337.14	0.0004198
3346.78	0.000535
3356.43	0.0006193
3366.07	0.0006226
3375.72	0.0004158
3385.36	0.0005196
3395.01	0.0004311
3404.65	0.0005365
3414.3	0.0003397
3423.94	0.0003157
3433.59	0.000368
3443.23	0.0003129
3452.88	0.0003127
3462.52	0.0003183
3472.17	0.0004056
3481.81	0.0002248
3491.46	0.0003922
3501.1	0.0002783
3510.75	0.0003205
3520.39	0.00018804
3530.04	0.0003529
3539.68	0.0002697
3549.32	0.00020634
3558.97	0.0003704
3568.61	0.0003284
3578.26	0.0003099
3587.9	0.0003799
3597.55	0.0003213
3607.19	0.0003688
3616.84	0.0007294
3626.48	0.001258
3636.13	0.004688
3645.77	0.015058
3655.42	0.010758
3665.06	0.001718
3674.71	0.0006305
3684.35	0.0004373
3694	0.0003265
3703.64	0.00020783
3713.29	0.000254
3722.93	0.0002279
3732.58	0.0002839
3742.22	0.0003892
3751.86	7.83e-05
3761.51	0.00019424
3771.15	0.0002104
3780.8	0.0003012
3790.44	0.0002231
3800.09	0.0002155
3809.73	0.00037
3819.38	0.0004227
3829.02	0.0003356
3838.67	7.44e-05
3848.31	0.00013374
3857.96	0.0004856
3867.6	0.0002487
3877.25	0.0005065
3886.89	0.0004183
3896.54	0.0004046
3906.18	0.0003734
3915.83	0.0003583
3925.47	0.0003115
3935.12	0.0002867
3944.76	0.0003511
3954.41	0.0003036
3964.05	0.0002918
3973.69	0.0003095
3983.34	0.0003209
3992.98	0.0004704
