Infrared Spectrum: 3',4'-Methylenedioxyacetophenone
Formula: C 9 H 8 O 3
CAS: 3162-29-6
State: gas
Origin: EPA-IR VAPOR PHASE LIBRARY
1/CM	ABSORBANCE
549.8	0.0169
559.445	0.03342
569.09	0.02604
578.734	0.01025
588.379	0.00527
598.024	0.0097
607.669	0.01257
617.313	0.01045
626.958	0.01094
636.603	0.01493
646.248	0.01015
655.893	0.00516
665.537	0.00222
675.182	0.0014
684.827	0.00136
694.472	0.0018
704.116	0.00409
713.761	0.00385
723.406	0.00355
733.051	0.00273
742.695	0.0017
752.34	0.00147
761.985	0.00165
771.63	0.00215
781.275	0.00489
790.919	0.01691
800.564	0.04003
810.209	0.04553
819.854	0.03868
829.498	0.02554
839.143	0.01493
848.788	0.01175
858.433	0.015
868.078	0.01437
877.722	0.02288
887.367	0.03288
897.012	0.02701
906.657	0.01488
916.301	0.01383
925.946	0.02376
935.591	0.04244
945.236	0.05669
954.88	0.0526
964.525	0.03344
974.17	0.01886
983.815	0.01115
993.46	0.00966
1003.1	0.01162
1012.75	0.01789
1022.39	0.03283
1032.04	0.06729
1041.68	0.11612
1051.33	0.12431
1060.97	0.08767
1070.62	0.04621
1080.26	0.02488
1089.91	0.02655
1099.55	0.04833
1109.2	0.05931
1118.84	0.04476
1128.49	0.02799
1138.13	0.02043
1147.78	0.0237
1157.42	0.02093
1167.07	0.00992
1176.71	0.00728
1186.36	0.00722
1196	0.01008
1205.64	0.01894
1215.29	0.03743
1224.93	0.05818
1234.58	0.11537
1244.22	0.32454
1253.87	0.45319
1263.51	0.27233
1273.16	0.21106
1282.8	0.12034
1292.45	0.03649
1302.09	0.019
1311.74	0.01559
1321.38	0.02225
1331.03	0.04609
1340.67	0.06931
1350.32	0.07797
1359.96	0.09865
1369.61	0.07491
1379.25	0.02864
1388.9	0.01894
1398.54	0.02194
1408.18	0.03586
1417.83	0.07558
1427.47	0.14033
1437.12	0.16821
1446.76	0.13104
1456.41	0.0717
1466.05	0.04445
1475.7	0.09663
1485.34	0.18315
1494.99	0.12262
1504.63	0.06337
1514.28	0.04305
1523.92	0.01672
1533.57	0.01167
1543.21	0.00948
1552.86	0.00803
1562.5	0.00752
1572.15	0.00893
1581.79	0.01384
1591.44	0.02611
1601.08	0.03808
1610.73	0.04437
1620.37	0.03855
1630.01	0.02306
1639.66	0.01597
1649.3	0.01538
1658.95	0.0168
1668.59	0.01955
1678.24	0.03512
1687.88	0.09657
1697.53	0.19421
1707.17	0.16944
1716.82	0.05089
1726.46	0.01727
1736.11	0.01261
1745.75	0.01386
1755.4	0.01244
1765.04	0.00931
1774.69	0.00726
1784.33	0.00544
1793.98	0.00425
1803.62	0.00379
1813.27	0.0039
1822.91	0.00475
1832.55	0.00579
1842.2	0.00567
1851.84	0.00478
1861.49	0.00466
1871.13	0.00509
1880.78	0.00532
1890.42	0.00437
1900.07	0.00291
1909.71	0.0021
1919.36	0.00216
1929	0.00234
1938.65	0.00217
1948.29	0.00223
1957.94	0.00225
1967.58	0.00229
1977.23	0.00259
1986.87	0.00292
1996.52	0.00311
2006.16	0.00298
2015.81	0.00255
2025.45	0.00281
2035.1	0.00351
2044.74	0.00404
2054.38	0.00351
2064.03	0.00285
2073.67	0.00261
2083.32	0.0024
2092.96	0.00216
2102.61	0.00166
2112.25	0.00129
2121.9	0.00123
2131.54	0.00115
2141.19	0.001082
2150.83	0.0012
2160.48	0.00119
2170.12	0.00111
2179.77	0.000976
2189.41	0.0010929
2199.06	0.00122
2208.7	0.00126
2218.35	0.0013
2227.99	0.00153
2237.64	0.00166
2247.28	0.00182
2256.92	0.00182
2266.57	0.00181
2276.21	0.00186
2285.86	0.00215
2295.5	0.0024
2305.15	0.00213
2314.79	0.00211
2324.44	0.00178
2334.08	0.00138
2343.73	0.00121
2353.37	0.0009844
2363.02	0.0010889
2372.66	0.0011098
2382.31	0.00118
2391.95	0.0009572
2401.6	0.0009862
2411.24	0.0009347
2420.89	0.0010173
2430.53	0.00104
2440.18	0.00123
2449.82	0.0012
2459.47	0.00118
2469.11	0.00131
2478.75	0.0016
2488.4	0.00215
2498.04	0.00224
2507.69	0.00215
2517.33	0.00185
2526.98	0.00164
2536.62	0.00169
2546.27	0.00174
2555.91	0.00193
2565.56	0.00239
2575.2	0.00297
2584.85	0.00357
2594.49	0.00401
2604.14	0.00396
2613.78	0.00354
2623.43	0.00264
2633.07	0.00202
2642.72	0.00198
2652.36	0.00195
2662.01	0.00209
2671.65	0.00244
2681.29	0.00283
2690.94	0.00327
2700.58	0.00369
2710.23	0.00346
2719.87	0.00282
2729.52	0.00267
2739.16	0.00276
2748.81	0.0035
2758.45	0.00482
2768.1	0.00823
2777.74	0.01272
2787.39	0.00923
2797.03	0.00467
2806.68	0.00459
2816.32	0.00542
2825.97	0.00697
2835.61	0.00887
2845.26	0.01133
2854.9	0.01542
2864.55	0.02275
2874.19	0.02985
2883.84	0.03275
2893.48	0.03385
2903.12	0.03587
2912.77	0.0389
2922.41	0.03711
2932.06	0.03429
2941.7	0.03194
2951.35	0.02875
2960.99	0.02446
2970.64	0.02031
2980.28	0.01671
2989.93	0.0146
2999.57	0.01508
3009.22	0.01965
3018.86	0.02289
3028.51	0.01707
3038.15	0.01151
3047.8	0.00882
3057.44	0.00751
3067.09	0.00762
3076.73	0.01106
3086.38	0.01357
3096.02	0.00871
3105.67	0.00553
3115.31	0.00371
3124.95	0.00232
3134.6	0.00151
3144.24	0.0010555
3153.89	0.0010129
3163.53	0.0007841
3173.18	0.0006794
3182.82	0.0004613
3192.47	0.0005891
3202.11	0.0007805
3211.76	0.0007369
3221.4	0.000955
3231.05	0.0006755
3240.69	0.0006794
3250.34	0.0006602
3259.98	0.0004205
3269.63	0.0004071
3279.27	0.00015235
3288.92	0.0002612
3298.56	0.0003598
3308.21	0.0004088
3317.85	0.0004602
3327.49	0.0006015
3337.14	0.0006107
3346.78	0.000717
3356.43	0.00121
3366.07	0.00187
3375.72	0.00289
3385.36	0.0035
3395.01	0.00254
3404.65	0.00136
3414.3	0.0007265
3423.94	0.0005301
3433.59	0.0004835
3443.23	0.0005463
3452.88	0.00019145
3462.52	0.0002284
3472.17	0.0003677
3481.81	0.0003077
3491.46	0.000568
3501.1	0.0003968
3510.75	0.0004457
3520.39	0.00010713
3530.04	0.00017822
3539.68	0.0002259
3549.32	0.0002518
3558.97	0.000308
3568.61	0.00012044
3578.26	0.0002432
3587.9	1.4e-05
3597.55	0.00015963
3607.19	0.0002391
3616.84	0.0002321
3626.48	0.000347
3636.13	0.00019658
3645.77	0.0001846
3655.42	0.000301
3665.06	0.0002654
3674.71	0.00017429
3684.35	5.97e-05
3694	0.0002742
3703.64	0.0003283
3713.29	0.00012044
3722.93	0.0003827
3732.58	0.00016038
3742.22	2.82e-05
3751.86	0.00020352
3761.51	0.0002721
3771.15	0.0002477
3780.8	0.0003159
3790.44	0.0006132
3800.09	0.0002898
3809.73	0.000654
3819.38	0.0005179
3829.02	0.0004421
3838.67	0.0003099
3848.31	9.88e-05
3857.96	0.0003622
3867.6	0.000383
3877.25	0.0002628
3886.89	0.000516
3896.54	0.0004953
3906.18	0.0006179
3915.83	0.0005949
3925.47	0.0007897
3935.12	0.0008757
3944.76	0.0008273
3954.41	0.0010582
3964.05	0.0010888
3973.69	0.0012
3983.34	0.0010635
3992.98	0.0006365
