Infrared Spectrum: 3,4-Dichloroacetanilide
Formula: C 8 H 7 Cl 2 N O
CAS: 31620-87-8
State: gas
Origin: EPA-IR VAPOR PHASE LIBRARY
1/CM	ABSORBANCE
501.5	0.00981
513.074	0.01053
524.648	0.00862
536.222	0.00563
547.796	0.00352
559.37	0.00236
570.944	0.00257
582.518	0.00275
594.092	0.00298
605.666	0.00251
617.24	0.00226
628.814	0.00211
640.388	0.00156
651.962	0.00148
663.536	0.00254
675.11	0.00759
686.684	0.00783
698.258	0.00235
709.832	0.00211
721.406	0.00248
732.98	0.00282
744.554	0.00304
756.128	0.00191
767.702	0.00162
779.276	0.00169
790.85	0.00411
802.423	0.00889
813.997	0.00854
825.571	0.00583
837.145	0.00371
848.719	0.00633
860.293	0.0067
871.867	0.00675
883.441	0.00738
895.015	0.00694
906.589	0.0053
918.163	0.00331
929.737	0.00294
941.311	0.00367
952.885	0.0047
964.459	0.00503
976.033	0.00658
987.607	0.01103
999.181	0.01033
1010.76	0.0074
1022.33	0.01043
1033.9	0.01468
1045.48	0.00768
1057.05	0.00512
1068.63	0.00471
1080.2	0.00395
1091.77	0.00328
1103.35	0.00346
1114.92	0.00819
1126.49	0.02298
1138.07	0.02133
1149.64	0.01141
1161.22	0.00591
1172.79	0.00466
1184.36	0.00717
1195.94	0.01328
1207.51	0.02923
1219.09	0.04435
1230.66	0.02979
1242.23	0.01308
1253.81	0.013
1265.38	0.01638
1276.96	0.03126
1288.53	0.04216
1300.1	0.02062
1311.68	0.01059
1323.25	0.00671
1334.83	0.00701
1346.4	0.00919
1357.97	0.0203
1369.55	0.04982
1381.12	0.04862
1392.7	0.02503
1404.27	0.01082
1415.84	0.00918
1427.42	0.0104
1438.99	0.01362
1450.57	0.02187
1462.14	0.04291
1473.71	0.10434
1485.29	0.10493
1496.86	0.09052
1508.44	0.06084
1520.01	0.02624
1531.58	0.01609
1543.16	0.0129
1554.73	0.01121
1566.31	0.01878
1577.88	0.03224
1589.45	0.03631
1601.03	0.02645
1612.6	0.00925
1624.18	0.00632
1635.75	0.00455
1647.32	0.00367
1658.9	0.00383
1670.47	0.0048
1682.05	0.00635
1693.62	0.01011
1705.19	0.01736
1716.77	0.0339
1728.34	0.07072
1739.92	0.06407
1751.49	0.0243
1763.06	0.01422
1774.64	0.00752
1786.21	0.00381
1797.79	0.00306
1809.36	0.0025
1820.93	0.0021
1832.51	0.00167
1844.08	0.00147
1855.66	0.0016
1867.23	0.00147
1878.8	0.00144
1890.38	0.00151
1901.95	0.00124
1913.53	0.0008326
1925.1	0.0006264
1936.67	0.0006096
1948.25	0.0005987
1959.82	0.0006551
1971.4	0.0006615
1982.97	0.0005562
1994.54	0.0004567
2006.12	0.0003895
2017.69	0.0003424
2029.27	0.0002936
2040.84	0.0003197
2052.41	0.0003018
2063.99	0.0003299
2075.56	0.0004292
2087.14	0.0004956
2098.71	0.0005372
2110.28	0.0005207
2121.86	0.000455
2133.43	0.0004849
2145.01	0.000611
2156.58	0.0007076
2168.15	0.0006814
2179.73	0.0005919
2191.3	0.0004801
2202.88	0.0004354
2214.45	0.0003435
2226.02	0.0002969
2237.6	0.0002659
2249.17	0.0002406
2260.74	0.0002523
2272.32	0.0002852
2283.89	0.0003
2295.47	0.0003432
2307.04	0.0003413
2318.61	0.000396
2330.19	0.0004238
2341.76	0.0004455
2353.34	0.0004976
2364.91	0.0005468
2376.48	0.0005613
2388.06	0.000499
2399.63	0.0004474
2411.21	0.0004098
2422.78	0.0004175
2434.35	0.0004314
2445.93	0.0004047
2457.5	0.0004187
2469.08	0.0003402
2480.65	0.0003549
2492.22	0.0003954
2503.8	0.0004932
2515.37	0.0004066
2526.95	0.0003106
2538.52	0.000295
2550.09	0.0002939
2561.67	0.0003125
2573.24	0.0003067
2584.82	0.0003508
2596.39	0.0003337
2607.96	0.0003268
2619.54	0.0002008
2631.11	0.000194
2642.69	0.0001676
2654.26	0.0002108
2665.83	0.0002539
2677.41	0.000358
2688.98	0.0004229
2700.56	0.0005032
2712.13	0.0005488
2723.7	0.0005426
2735.28	0.0004379
2746.85	0.000319
2758.43	0.000285
2770	0.0002426
2781.57	0.0002928
2793.15	0.0003573
2804.72	0.0003607
2816.3	0.0003588
2827.87	0.0004581
2839.44	0.0005442
2851.02	0.0006175
2862.59	0.0005937
2874.17	0.0005158
2885.74	0.0005394
2897.31	0.0006126
2908.89	0.0008466
2920.46	0.00119
2932.04	0.00197
2943.61	0.0023
2955.18	0.00167
2966.76	0.00136
2978.33	0.00129
2989.91	0.00126
3001.48	0.00125
3013.05	0.00159
3024.63	0.00229
3036.2	0.00269
3047.78	0.0023
3059.35	0.0023
3070.92	0.00212
3082.5	0.00197
3094.07	0.00192
3105.65	0.0015
3117.22	0.00201
3128.79	0.0015
3140.37	0.0006573
3151.94	0.0004402
3163.52	0.0004119
3175.09	0.0003509
3186.66	0.0003312
3198.24	0.0002018
3209.81	0.0001707
3221.39	0.0001969
3232.96	0.0001146
3244.53	0.0001504
3256.11	0.0001162
3267.68	0.0001233
3279.26	0.0001167
3290.83	9.27e-05
3302.4	0.0001423
3313.98	0.0001492
3325.55	0.0001563
3337.13	0.0001835
3348.7	0.0001778
3360.27	0.0001905
3371.85	0.0002031
3383.42	0.000415
3395	0.0007634
3406.57	0.00125
3418.14	0.00188
3429.72	0.00242
3441.29	0.00323
3452.86	0.00488
3464.44	0.00711
3476.01	0.00478
3487.59	0.0016
3499.16	0.000918
3510.73	0.0004916
3522.31	0.0003366
3533.88	0.0001966
3545.46	0.0002534
3557.03	0.0001776
3568.6	0.0001103
3580.18	0.0002357
3591.75	0.0001344
3603.33	0.0001211
3614.9	0.0001146
3626.47	0.0001377
3638.05	8.062e-05
3649.62	0.0001078
3661.2	0.0001104
3672.77	0.0001141
3684.34	0.0001153
3695.92	0.0001052
3707.49	0.000155
3719.07	0.0001195
3730.64	9.387e-05
3742.21	0.0001359
3753.79	0.0001514
3765.36	0.0002266
3776.94	0.000157
3788.51	0.0001511
3800.08	0.0001807
3811.66	0.0001799
3823.23	0.0001584
3834.81	0.0001981
3846.38	0.0002083
3857.95	0.000203
3869.53	0.0001722
3881.1	0.0001379
3892.68	0.0001968
3904.25	0.000213
3915.82	0.0002389
3927.4	0.0001847
3938.97	0.0001786
3950.55	0.0002301
3962.12	0.0002271
3973.69	0.0002274
3985.27	0.0001966
3996.84	0.0001594
