Infrared Spectrum: SUCCINIMIDE, N-[2-(2-OXO-3-OXAZOLIDINYL)ETHYL]-
Formula: C9 H12 N2 O4
CAS: 31673-59-3
State: SOLID (1.0 mg / 650 mg KBr DISC)
Class: COBLENTZ III
Instrument: PERKIN-ELMER 521 (GRATING)
Instrument parameters: FILTERS AT 3150, 2500, 2000, 1150, 700, 410 AND GRATING CHANGES: 2000, 630 CM^-^1
Sampling: TRANSMISSION
Resolution: 4
Origin: SOUTHERN RESEARCH INSTITUTE
1/CM	TRANSMITTANCE
251.235	0.29
261.021	0.355
270.807	0.4187
280.593	0.4498
290.379	0.5132
300.165	0.5777
309.951	0.6045
319.737	0.6249
329.523	0.6478
339.308	0.6534
349.094	0.6446
358.88	0.7162
368.666	0.7077
378.452	0.6239
388.238	0.7277
398.024	0.7549
407.81	0.761
417.596	0.763
427.382	0.771
437.168	0.773
446.954	0.777
456.74	0.7716
466.526	0.7619
476.312	0.7875
486.098	0.79
495.883	0.7931
505.669	0.793
515.455	0.7891
525.241	0.7875
535.027	0.794
544.813	0.796
554.599	0.788
564.385	0.7724
574.171	0.7665
583.957	0.7834
593.743	0.7863
603.529	0.7703
613.315	0.7721
623.101	0.7155
632.887	0.787
642.673	0.768
652.458	0.7365
662.244	0.6932
672.03	0.73
681.816	0.7723
691.602	0.768
701.388	0.7779
711.174	0.8138
720.96	0.824
730.746	0.822
740.532	0.818
750.318	0.7872
760.104	0.7651
769.89	0.788
779.676	0.8113
789.462	0.822
799.248	0.8183
809.033	0.7951
818.819	0.7507
828.605	0.823
838.391	0.836
848.177	0.8287
857.963	0.826
867.749	0.821
877.535	0.8155
887.321	0.7443
897.107	0.6573
906.893	0.7113
916.679	0.8186
926.465	0.819
936.251	0.816
946.037	0.8052
955.823	0.7849
965.608	0.7314
975.394	0.7842
985.18	0.796
994.966	0.7815
1004.75	0.7147
1014.54	0.7027
1024.32	0.582
1034.11	0.7489
1043.9	0.7485
1053.68	0.6565
1063.47	0.7487
1073.25	0.737
1083.04	0.7143
1092.83	0.6523
1102.61	0.5151
1112.4	0.6285
1122.18	0.7041
1131.97	0.7039
1141.76	0.6259
1151.54	0.4273
1161.33	0.6136
1171.11	0.7237
1180.9	0.7715
1190.69	0.7663
1200.47	0.7212
1210.26	0.6313
1220.04	0.5019
1229.83	0.7055
1239.61	0.7102
1249.4	0.661
1259.19	0.606
1268.97	0.5733
1278.76	0.727
1288.54	0.7482
1298.33	0.6905
1308.12	0.7072
1317.9	0.6453
1327.69	0.5179
1337.47	0.7257
1347.26	0.6927
1357.05	0.6612
1366.83	0.6459
1376.62	0.6692
1386.4	0.6454
1396.19	0.5063
1405.98	0.5141
1415.76	0.5533
1425.55	0.4641
1435.33	0.4654
1445.12	0.5635
1454.91	0.751
1464.69	0.7643
1474.48	0.6244
1484.26	0.698
1494.05	0.7525
1503.84	0.801
1513.62	0.7932
1523.41	0.8014
1533.19	0.807
1542.98	0.807
1552.76	0.807
1562.55	0.801
1572.34	0.79
1582.12	0.7801
1591.91	0.7689
1601.69	0.7495
1611.48	0.7222
1621.27	0.6933
1631.05	0.6727
1640.84	0.6375
1650.62	0.5849
1660.41	0.4996
1670.2	0.3979
1679.98	0.2348
1689.77	0.1646
1699.55	0.2926
1709.34	0.431
1719.13	0.3425
1728.91	0.195
1738.7	0.2407
1748.48	0.3746
1758.27	0.4614
1768.06	0.562
1777.84	0.6571
1787.63	0.7031
1797.41	0.7258
1807.2	0.7425
1816.99	0.7546
1826.77	0.7667
1836.56	0.7803
1846.34	0.788
1856.13	0.791
1865.91	0.799
1875.7	0.805
1885.49	0.8113
1895.27	0.815
1905.06	0.817
1914.84	0.817
1924.63	0.819
1934.42	0.823
1944.2	0.823
1953.99	0.823
1963.77	0.826
1973.56	0.826
1983.35	0.826
1993.13	0.824
2002.92	0.824
2012.7	0.826
2022.49	0.826
2032.28	0.826
2042.06	0.8266
2051.85	0.8264
2061.63	0.827
2071.42	0.828
2081.21	0.828
2090.99	0.83
2100.78	0.832
2110.56	0.833
2120.35	0.833
2130.14	0.834
2139.92	0.834
2149.71	0.8346
2159.49	0.834
2169.28	0.835
2179.06	0.835
2188.85	0.835
2198.64	0.8354
2208.42	0.835
2218.21	0.834
2227.99	0.834
2237.78	0.834
2247.57	0.834
2257.35	0.834
2267.14	0.835
2276.92	0.835
2286.71	0.835
2296.5	0.8354
2306.28	0.836
2316.07	0.836
2325.85	0.836
2335.64	0.836
2345.43	0.8372
2355.21	0.835
2365	0.834
2374.78	0.834
2384.57	0.834
2394.36	0.834
2404.14	0.833
2413.93	0.834
2423.71	0.8346
2433.5	0.8344
2443.29	0.836
2453.07	0.838
2462.86	0.8334
2472.64	0.834
2482.43	0.8326
2492.21	0.832
2502	0.832
2511.79	0.832
2521.57	0.832
2531.36	0.83
2541.14	0.832
2550.93	0.83
2560.72	0.832
2570.5	0.832
2580.29	0.834
2590.07	0.834
2599.86	0.8346
2609.65	0.833
2619.43	0.835
2629.22	0.835
2639	0.835
2648.79	0.834
2658.58	0.835
2668.36	0.8344
2678.15	0.834
2687.93	0.8344
2697.72	0.835
2707.51	0.834
2717.29	0.832
2727.08	0.832
2736.86	0.833
2746.65	0.834
2756.44	0.834
2766.22	0.8326
2776.01	0.83
2785.79	0.828
2795.58	0.8276
2805.36	0.824
2815.15	0.822
2824.94	0.819
2834.72	0.8138
2844.51	0.809
2854.29	0.805
2864.08	0.8006
2873.87	0.7996
2883.65	0.7972
2893.44	0.779
2903.22	0.7716
2913.01	0.7649
2922.8	0.7556
2932.58	0.7181
2942.37	0.7359
2952.15	0.785
2961.94	0.7749
2971.73	0.7578
2981.51	0.7638
2991.3	0.779
3001.08	0.7884
3010.87	0.8031
3020.66	0.8184
3030.44	0.821
3040.23	0.819
3050.01	0.8198
3059.8	0.821
3069.59	0.822
3079.37	0.823
3089.16	0.824
3098.94	0.824
3108.73	0.826
3118.51	0.828
3128.3	0.828
3138.09	0.819
3147.87	0.818
3157.66	0.817
3167.44	0.8142
3177.23	0.8096
3187.02	0.809
3196.8	0.807
3206.59	0.806
3216.37	0.801
3226.16	0.798
3235.95	0.7946
3245.73	0.7906
3255.52	0.7886
3265.3	0.7862
3275.09	0.7836
3284.88	0.779
3294.66	0.776
3304.45	0.7716
3314.23	0.7666
3324.02	0.757
3333.81	0.753
3343.59	0.7412
3353.38	0.731
3363.16	0.721
3372.95	0.7056
3382.74	0.6986
3392.52	0.69
3402.31	0.6866
3412.09	0.6766
3421.88	0.672
3431.66	0.6704
3441.45	0.6738
3451.24	0.6804
3461.02	0.6894
3470.81	0.6944
3480.59	0.7018
3490.38	0.705
3500.17	0.7104
3509.95	0.7164
3519.74	0.7264
3529.52	0.7352
3539.31	0.744
3549.1	0.751
3558.88	0.7604
3568.67	0.7688
3578.45	0.7784
3588.24	0.7884
3598.03	0.7954
3607.81	0.8064
3617.6	0.812
3627.38	0.824
3637.17	0.828
3646.96	0.829
3656.74	0.83
3666.53	0.829
3676.31	0.83
3686.1	0.8344
3695.89	0.8394
3705.67	0.841
3715.46	0.8422
3725.24	0.841
3735.03	0.841
3744.81	0.841
3754.6	0.843
3764.39	0.843
3774.17	0.843
3783.96	0.843
3793.74	0.843
3803.53	0.843
