Infrared Spectrum: NICOTINIC ACID, 6-AMINO-
Formula: C6 H6 N2 O2
CAS: 3167-49-5
State: SOLID (1 mg / 650 mg KBr DISC)
Class: COBLENTZ III
Instrument: PERKIN-ELMER 521 (GRATING)
Instrument parameters: FILTER CHANGE AT 3150, 2500, 2000, 1150, 700, 410 CM^-^1, GRATING CHANGES AT 2000, 630 CM^-^1
Sampling: TRANSMISSION
Resolution: 4
Origin: SOUTHERN RESEARCH INSTITUTE
1/CM	TRANSMITTANCE
254.879	0.402
263.891	0.492
272.903	0.544
281.914	0.589
290.926	0.637
299.938	0.661
308.95	0.69
317.962	0.699
326.973	0.712
335.985	0.729
344.997	0.744
354.009	0.756
363.021	0.759
372.032	0.728
381.044	0.694
390.056	0.63
399.068	0.702
408.08	0.767
417.091	0.77
426.103	0.767
435.115	0.758
444.127	0.772
453.139	0.786
462.151	0.794
471.162	0.795
480.174	0.794
489.186	0.793
498.198	0.79
507.21	0.765
516.221	0.742
525.233	0.758
534.245	0.735
543.257	0.696
552.269	0.761
561.28	0.764
570.292	0.758
579.304	0.755
588.316	0.748
597.328	0.733
606.339	0.698
615.351	0.565
624.363	0.392
633.375	0.552
642.387	0.507
651.398	0.582
660.41	0.651
669.422	0.701
678.434	0.737
687.446	0.765
696.457	0.78
705.469	0.791
714.481	0.799
723.493	0.782
732.505	0.761
741.516	0.812
750.528	0.814
759.54	0.812
768.552	0.796
777.564	0.596
786.575	0.534
795.587	0.767
804.599	0.819
813.611	0.756
822.623	0.785
831.634	0.756
840.646	0.811
849.658	0.784
858.67	0.763
867.682	0.803
876.694	0.828
885.705	0.826
894.717	0.824
903.729	0.81
912.741	0.758
921.753	0.784
930.764	0.819
939.776	0.817
948.788	0.812
957.8	0.802
966.812	0.795
975.823	0.779
984.835	0.741
993.847	0.67
1002.86	0.712
1011.87	0.75
1020.88	0.755
1029.89	0.75
1038.91	0.747
1047.92	0.752
1056.93	0.758
1065.94	0.767
1074.95	0.766
1083.97	0.761
1092.98	0.756
1101.99	0.748
1111	0.744
1120.01	0.741
1129.02	0.659
1138.04	0.653
1147.05	0.727
1156.06	0.718
1165.07	0.73
1174.08	0.761
1183.09	0.747
1192.11	0.722
1201.12	0.708
1210.13	0.688
1219.14	0.64
1228.15	0.512
1237.17	0.44
1246.18	0.587
1255.19	0.684
1264.2	0.718
1273.21	0.713
1282.22	0.693
1291.24	0.664
1300.25	0.639
1309.26	0.606
1318.27	0.55
1327.28	0.464
1336.3	0.338
1345.31	0.236
1354.32	0.324
1363.33	0.266
1372.34	0.234
1381.35	0.347
1390.37	0.465
1399.38	0.581
1408.39	0.694
1417.4	0.75
1426.41	0.79
1435.43	0.796
1444.44	0.79
1453.45	0.785
1462.46	0.782
1471.47	0.777
1480.48	0.755
1489.5	0.732
1498.51	0.721
1507.52	0.705
1516.53	0.71
1525.54	0.706
1534.56	0.691
1543.57	0.664
1552.58	0.667
1561.59	0.703
1570.6	0.689
1579.61	0.694
1588.63	0.708
1597.64	0.707
1606.65	0.701
1615.66	0.662
1624.67	0.601
1633.69	0.513
1642.7	0.532
1651.71	0.494
1660.72	0.323
1669.73	0.307
1678.74	0.318
1687.76	0.28
1696.77	0.377
1705.78	0.556
1714.79	0.675
1723.8	0.711
1732.81	0.741
1741.83	0.775
1750.84	0.795
1759.85	0.806
1768.86	0.812
1777.87	0.814
1786.89	0.816
1795.9	0.818
1804.91	0.817
1813.92	0.814
1822.93	0.809
1831.94	0.803
1840.96	0.811
1849.97	0.81
1858.98	0.804
1867.99	0.801
1877	0.798
1886.02	0.789
1895.03	0.783
1904.04	0.775
1913.05	0.77
1922.06	0.76
1931.07	0.758
1940.09	0.759
1949.1	0.765
1958.11	0.766
1967.12	0.76
1976.13	0.751
1985.15	0.732
1994.16	0.717
2003.17	0.72
2012.18	0.726
2021.19	0.738
2030.2	0.747
2039.22	0.752
2048.23	0.757
2057.24	0.766
2066.25	0.774
2075.26	0.78
2084.28	0.784
2093.29	0.786
2102.3	0.793
2111.31	0.794
2120.32	0.796
2129.33	0.798
2138.35	0.799
2147.36	0.799
2156.37	0.797
2165.38	0.794
2174.39	0.793
2183.41	0.79
2192.42	0.788
2201.43	0.786
2210.44	0.785
2219.45	0.783
2228.46	0.778
2237.48	0.774
2246.49	0.769
2255.5	0.766
2264.51	0.761
2273.52	0.758
2282.54	0.754
2291.55	0.75
2300.56	0.745
2309.57	0.741
2318.58	0.729
2327.59	0.725
2336.61	0.723
2345.62	0.713
2354.63	0.708
2363.64	0.706
2372.65	0.705
2381.66	0.703
2390.68	0.694
2399.69	0.692
2408.7	0.689
2417.71	0.684
2426.72	0.679
2435.74	0.678
2444.75	0.674
2453.76	0.67
2462.77	0.668
2471.78	0.664
2480.79	0.661
2489.81	0.658
2498.82	0.655
2507.83	0.653
2516.84	0.652
2525.85	0.654
2534.87	0.657
2543.88	0.658
2552.89	0.659
2561.9	0.66
2570.91	0.661
2579.92	0.662
2588.94	0.664
2597.95	0.666
2606.96	0.668
2615.97	0.669
2624.98	0.67
2634	0.669
2643.01	0.667
2652.02	0.664
2661.03	0.662
2670.04	0.66
2679.05	0.657
2688.07	0.651
2697.08	0.647
2706.09	0.643
2715.1	0.641
2724.11	0.64
2733.13	0.641
2742.14	0.643
2751.15	0.649
2760.16	0.663
2769.17	0.669
2778.18	0.67
2787.2	0.669
2796.21	0.669
2805.22	0.669
2814.23	0.667
2823.24	0.664
2832.26	0.658
2841.27	0.651
2850.28	0.641
2859.29	0.635
2868.3	0.627
2877.31	0.617
2886.33	0.603
2895.34	0.597
2904.35	0.59
2913.36	0.577
2922.37	0.562
2931.38	0.557
2940.4	0.553
2949.41	0.551
2958.42	0.55
2967.43	0.551
2976.44	0.552
2985.46	0.553
2994.47	0.554
3003.48	0.561
3012.49	0.564
3021.5	0.567
3030.51	0.57
3039.53	0.579
3048.54	0.587
3057.55	0.589
3066.56	0.592
3075.57	0.609
3084.59	0.626
3093.6	0.634
3102.61	0.643
3111.62	0.651
3120.63	0.659
3129.64	0.661
3138.66	0.663
3147.67	0.664
3156.68	0.663
3165.69	0.66
3174.7	0.659
3183.72	0.656
3192.73	0.651
3201.74	0.646
3210.75	0.643
3219.76	0.641
3228.77	0.638
3237.79	0.623
3246.8	0.602
3255.81	0.589
3264.82	0.576
3273.83	0.571
3282.85	0.57
3291.86	0.575
3300.87	0.586
3309.88	0.597
3318.89	0.61
3327.9	0.618
3336.92	0.627
3345.93	0.639
3354.94	0.647
3363.95	0.656
3372.96	0.66
3381.98	0.668
3390.99	0.673
3400	0.675
3409.01	0.678
3418.02	0.681
3427.03	0.685
3436.05	0.689
3445.06	0.694
3454.07	0.697
3463.08	0.702
3472.09	0.709
3481.11	0.716
3490.12	0.723
3499.13	0.728
3508.14	0.734
3517.15	0.741
3526.16	0.749
3535.18	0.756
3544.19	0.766
3553.2	0.775
3562.21	0.783
3571.22	0.79
3580.23	0.799
3589.25	0.808
3598.26	0.816
3607.27	0.824
3616.28	0.83
3625.29	0.838
3634.31	0.841
3643.32	0.845
3652.33	0.847
3661.34	0.848
3670.35	0.848
3679.36	0.847
3688.38	0.849
3697.39	0.852
3706.4	0.853
3715.41	0.854
3724.42	0.854
3733.44	0.852
3742.45	0.852
3751.46	0.852
3760.47	0.852
3769.48	0.853
3778.49	0.853
3787.51	0.853
3796.52	0.852
3805.53	0.85
