Infrared Spectrum: 4-Methyl-3-nitrobenzaldehyde
Formula: C 8 H 7 N O 3
CAS: 31680-07-6
State: gas
Origin: EPA-IR VAPOR PHASE LIBRARY
1/CM	ABSORBANCE
549.8	0.002802
559.446	0.003622
569.092	0.003292
578.738	0.003262
588.384	0.003502
598.03	0.004632
607.676	0.007172
617.322	0.007542
626.968	0.006242
636.614	0.004112
646.26	0.002422
655.906	0.002392
665.552	0.007602
675.198	0.013182
684.844	0.010642
694.49	0.008932
704.136	0.009372
713.782	0.009572
723.428	0.008432
733.073	0.010342
742.719	0.014952
752.365	0.019082
762.011	0.019982
771.657	0.016472
781.303	0.012262
790.949	0.008882
800.595	0.010212
810.241	0.027602
819.887	0.046752
829.533	0.034162
839.179	0.011062
848.825	0.003662
858.471	0.002112
868.117	0.002202
877.763	0.003532
887.409	0.006292
897.055	0.009232
906.701	0.013092
916.347	0.014692
925.993	0.009642
935.639	0.011172
945.285	0.011482
954.931	0.005472
964.577	0.003002
974.223	0.002332
983.869	0.002582
993.515	0.003592
1003.16	0.003542
1012.81	0.002592
1022.45	0.002312
1032.1	0.003232
1041.74	0.004032
1051.39	0.005172
1061.04	0.009032
1070.68	0.014732
1080.33	0.013162
1089.97	0.006482
1099.62	0.003742
1109.27	0.002932
1118.91	0.002762
1128.56	0.002872
1138.2	0.005192
1147.85	0.008352
1157.5	0.008392
1167.14	0.008982
1176.79	0.019082
1186.43	0.040702
1196.08	0.057662
1205.73	0.053722
1215.37	0.032922
1225.02	0.011902
1234.66	0.006092
1244.31	0.004932
1253.96	0.004392
1263.6	0.005252
1273.25	0.009112
1282.89	0.015362
1292.54	0.018752
1302.19	0.017002
1311.83	0.015552
1321.48	0.017182
1331.12	0.023472
1340.77	0.042452
1350.42	0.077242
1360.06	0.088282
1369.71	0.053682
1379.35	0.029482
1389	0.021202
1398.65	0.015092
1408.29	0.012582
1417.94	0.011132
1427.58	0.009772
1437.23	0.010592
1446.88	0.012462
1456.52	0.013412
1466.17	0.012352
1475.81	0.012182
1485.46	0.015282
1495.11	0.019682
1504.75	0.024572
1514.4	0.034332
1524.04	0.051912
1533.69	0.082992
1543.34	0.122162
1552.98	0.119882
1562.63	0.082042
1572.27	0.059052
1581.92	0.039602
1591.57	0.027702
1601.21	0.032622
1610.86	0.049422
1620.5	0.052052
1630.15	0.031162
1639.79	0.015252
1649.44	0.009242
1659.09	0.006762
1668.73	0.006512
1678.38	0.008322
1688.02	0.011002
1697.67	0.015802
1707.32	0.042452
1716.96	0.160172
1726.61	0.209922
1736.25	0.083512
1745.9	0.023912
1755.55	0.008712
1765.19	0.005762
1774.84	0.004382
1784.48	0.004022
1794.13	0.004352
1803.78	0.004462
1813.42	0.003582
1823.07	0.002482
1832.71	0.001772
1842.36	0.001563
1852.01	0.001772
1861.65	0.002242
1871.3	0.002612
1880.94	0.002362
1890.59	0.002012
1900.24	0.001832
1909.88	0.001822
1919.53	0.0016305
1929.17	0.0014795
1938.82	0.0015966
1948.47	0.0014881
1958.11	0.00135
1967.76	0.0013822
1977.4	0.0012136
1987.05	0.0010202
1996.7	0.0010418
2006.34	0.0010293
2015.99	0.0011232
2025.63	0.0010801
2035.28	0.0009889
2044.93	0.00075874
2054.57	0.0007101
2064.22	0.0006986
2073.86	0.0006996
2083.51	0.0007365
2093.16	0.00075378
2102.8	0.0009092
2112.45	0.0011009
2122.09	0.0012348
2131.74	0.0012337
2141.39	0.0011576
2151.03	0.0009616
2160.68	0.0008506
2170.32	0.000769729
2179.97	0.000627
2189.62	0.000604
2199.26	0.000651
2208.91	0.0007057
2218.55	0.000662
2228.2	0.000737
2237.85	0.0006799
2247.49	0.000718
2257.14	0.0006967
2266.78	0.0008376
2276.43	0.0008484
2286.08	0.0008743
2295.72	0.0009505
2305.37	0.0009499
2315.01	0.000762013
2324.66	0.00080428
2334.31	0.00083606
2343.95	0.0009922
2353.6	0.0010785
2363.24	0.0010719
2372.89	0.0010748
2382.53	0.001031
2392.18	0.0010859
2401.83	0.0011205
2411.47	0.0011696
2421.12	0.0012587
2430.76	0.001124
2440.41	0.0009072
2450.06	0.0009296
2459.7	0.0009568
2469.35	0.00084103
2478.99	0.0009018
2488.64	0.0009119
2498.29	0.00083238
2507.93	0.000781
2517.58	0.0006902
2527.22	0.00080843
2536.87	0.00082826
2546.52	0.0009536
2556.16	0.0011832
2565.81	0.0013914
2575.45	0.0013472
2585.1	0.0014282
2594.75	0.0014323
2604.39	0.001452
2614.04	0.0012953
2623.68	0.0014435
2633.33	0.0016887
2642.98	0.001972
2652.62	0.002402
2662.27	0.002772
2671.91	0.002992
2681.56	0.003422
2691.21	0.004152
2700.85	0.006292
2710.5	0.013112
2720.14	0.023692
2729.79	0.024142
2739.44	0.014582
2749.08	0.009602
2758.73	0.008642
2768.37	0.008722
2778.02	0.009622
2787.67	0.012022
2797.31	0.016912
2806.96	0.026222
2816.6	0.037102
2826.25	0.032872
2835.9	0.017422
2845.54	0.008002
2855.19	0.005642
2864.83	0.005732
2874.48	0.006302
2884.13	0.006462
2893.77	0.006272
2903.42	0.005672
2913.06	0.004962
2922.71	0.004802
2932.36	0.006212
2942	0.008852
2951.65	0.008642
2961.29	0.006052
2970.94	0.005572
2980.59	0.006802
2990.23	0.008092
2999.88	0.006912
3009.52	0.004692
3019.17	0.003762
3028.82	0.003832
3038.46	0.004592
3048.11	0.005152
3057.75	0.006342
3067.4	0.008112
3077.04	0.007572
3086.69	0.004682
3096.34	0.002522
3105.98	0.001712
3115.63	0.0013946
3125.27	0.0011474
3134.92	0.0009191
3144.57	0.00080403
3154.21	0.000528
3163.86	0.000367
3173.5	0.000458
3183.15	0.000291
3192.8	0.000308
3202.44	0.000229
3212.09	0.000271
3221.73	0.000226
3231.38	0.000283
3241.03	0.0002
3250.67	0.00037
3260.32	0.000175
3269.96	0.000215
3279.61	0.000206
3289.26	0.000235
3298.9	0.000194
3308.55	0.000124
3318.19	0.000304
3327.84	0.000104
3337.49	0.000257
3347.13	0.000341
3356.78	0.000233
3366.42	0.00035
3376.07	0.000128
3385.72	0.000438
3395.36	0.0006935
3405.01	0.0009149
3414.65	0.001982
3424.3	0.003502
3433.95	0.003532
3443.59	0.0016348
3453.24	0.000625
3462.88	0.000443
3472.53	0.000384
3482.18	0.000249
3491.82	3.5e-05
3501.47	0.000113
3511.11	0.000239
3520.76	0.000278
3530.41	0.000368
3540.05	0.000258
3549.7	0.000223
3559.34	0.000335
3568.99	0.000207
3578.64	0.000168
3588.28	0.000318
3597.93	0.000266
3607.57	0.00025
3617.22	0.000224
3626.87	0.000319
3636.51	0.000283
3646.16	0.000288
3655.8	0.000469
3665.45	0.00032
3675.1	0.000563
3684.74	0.000391
3694.39	0.000463
3704.03	0.000437
3713.68	0.000481
3723.33	0.000402
3732.97	0.000432
3742.62	0.000319
3752.26	0.000401
3761.91	0.000401
3771.56	0.000292
3781.2	0.000452
3790.85	0.000256
3800.49	0.000362
3810.14	0.000349
3819.78	0.000496
3829.43	0.000457
3839.08	0.000473
3848.72	0.000522
3858.37	0.000458
3868.01	0.000475
3877.66	0.000451
3887.31	0.00035
3896.95	0.000429
3906.6	0.000443
3916.24	0.00039
3925.89	0.000442
3935.54	0.000403
3945.18	0.000413
3954.83	0.000504
3964.47	0.000453
3974.12	0.000425
3983.77	0.000437
3993.41	0.000478
