Infrared Spectrum: 4,5-Dimethyl-o-phenylenediamine
Formula: C 8 H 12 N 2
CAS: 3171-45-7
State: gas
Origin: EPA-IR VAPOR PHASE LIBRARY
1/CM	ABSORBANCE
501.5	0.0042762
513.074	0.0041762
524.648	0.0039862
536.222	0.0042862
547.796	0.0048962
559.37	0.0050862
570.944	0.0055262
582.518	0.0063662
594.092	0.0082062
605.666	0.0100762
617.24	0.0101762
628.814	0.0097062
640.388	0.0102262
651.962	0.0113162
663.536	0.0124462
675.11	0.0126962
686.684	0.0115862
698.258	0.0097762
709.832	0.0088162
721.406	0.0088962
732.98	0.0087162
744.554	0.0075162
756.128	0.0065162
767.702	0.0057662
779.276	0.0052762
790.85	0.0049262
802.423	0.0045762
813.997	0.0044462
825.571	0.0044162
837.145	0.0051662
848.719	0.0079162
860.293	0.0102062
871.867	0.0064662
883.441	0.0038562
895.015	0.0029762
906.589	0.0026362
918.163	0.0025262
929.737	0.0023962
941.311	0.0022862
952.885	0.0023662
964.459	0.0025062
976.033	0.0027562
987.607	0.0036462
999.181	0.0044062
1010.76	0.0035862
1022.33	0.0026362
1033.9	0.0022562
1045.48	0.0020362
1057.05	0.0020562
1068.63	0.0023462
1080.2	0.0029162
1091.77	0.0030962
1103.35	0.0025362
1114.92	0.0022362
1126.49	0.0019662
1138.07	0.0019662
1149.64	0.0018562
1161.22	0.0017562
1172.79	0.0019362
1184.36	0.0030162
1195.94	0.0040162
1207.51	0.0033862
1219.09	0.0042862
1230.66	0.0063062
1242.23	0.0055962
1253.81	0.0036062
1265.38	0.0043862
1276.96	0.0082862
1288.53	0.0107462
1300.1	0.0085362
1311.68	0.0070562
1323.25	0.0057662
1334.83	0.0033162
1346.4	0.0019262
1357.97	0.0015462
1369.55	0.0015262
1381.12	0.0015462
1392.7	0.0014462
1404.27	0.0015262
1415.84	0.0020562
1427.42	0.0026362
1438.99	0.0034862
1450.57	0.0049762
1462.14	0.0059262
1473.71	0.0053862
1485.29	0.0047662
1496.86	0.0083462
1508.44	0.0217562
1520.01	0.0246062
1531.58	0.0105562
1543.16	0.0056562
1554.73	0.0055062
1566.31	0.0064462
1577.88	0.0085262
1589.45	0.0101862
1601.03	0.0094162
1612.6	0.0096562
1624.18	0.0102762
1635.75	0.0088062
1647.32	0.0061362
1658.9	0.0032262
1670.47	0.0019962
1682.05	0.0017462
1693.62	0.0017362
1705.19	0.0016162
1716.77	0.0013762
1728.34	0.0012262
1739.92	0.0011662
1751.49	0.0011462
1763.06	0.0011062
1774.64	0.0010253
1786.21	0.0009478
1797.79	0.0008362
1809.36	0.000783
1820.93	0.000687
1832.51	0.0006271
1844.08	0.0005901
1855.66	0.0005551
1867.23	0.0005588
1878.8	0.000543
1890.38	0.0005456
1901.95	0.0005536
1913.53	0.0005123
1925.1	0.0004924
1936.67	0.000452
1948.25	0.0004147
1959.82	0.0004116
1971.4	0.000404
1982.97	0.0004031
1994.54	0.0003698
2006.12	0.0003624
2017.69	0.0003837
2029.27	0.0003424
2040.84	0.0003165
2052.41	0.0003252
2063.99	0.0003157
2075.56	0.0002838
2087.14	0.0003002
2098.71	0.000308
2110.28	0.0003263
2121.86	0.0003578
2133.43	0.000289
2145.01	0.0002928
2156.58	0.0002972
2168.15	0.0002508
2179.73	0.0002494
2191.3	0.0002697
2202.88	0.0003121
2214.45	0.000265
2226.02	0.0002998
2237.6	0.0003489
2249.17	0.0003462
2260.74	0.000374
2272.32	0.0003241
2283.89	0.0002939
2295.47	0.0002985
2307.04	0.0003192
2318.61	0.0002831
2330.19	0.0002858
2341.76	0.0002324
2353.34	0.0002161
2364.91	0.0002555
2376.48	0.0002397
2388.06	0.0002259
2399.63	0.0002745
2411.21	0.0002605
2422.78	0.000245
2434.35	0.0002133
2445.93	0.0002119
2457.5	0.0002464
2469.08	0.000258
2480.65	0.0002649
2492.22	0.0002197
2503.8	0.00014264
2515.37	0.00016899
2526.95	0.00013095
2538.52	0.00016899
2550.09	0.00015335
2561.67	0.00014708
2573.24	0.0001832
2584.82	0.000214
2596.39	0.0002796
2607.96	0.0003152
2619.54	0.0002471
2631.11	0.0002918
2642.69	0.000256
2654.26	0.0002321
2665.83	0.0002231
2677.41	0.0002514
2688.98	0.0002839
2700.56	0.0003346
2712.13	0.0003751
2723.7	0.0005359
2735.28	0.000752
2746.85	0.0006367
2758.43	0.0005572
2770	0.0005233
2781.57	0.0005549
2793.15	0.0005878
2804.72	0.0007275
2816.3	0.000879
2827.87	0.0011762
2839.44	0.0016562
2851.02	0.0027062
2862.59	0.0048662
2874.17	0.0072562
2885.74	0.0068762
2897.31	0.0060762
2908.89	0.0068662
2920.46	0.0093462
2932.04	0.0124962
2943.61	0.0110662
2955.18	0.0073962
2966.76	0.0066862
2978.33	0.0059162
2989.91	0.0054662
3001.48	0.0088162
3013.05	0.0101762
3024.63	0.0061862
3036.2	0.0029662
3047.78	0.0023162
3059.35	0.0018762
3070.92	0.0015162
3082.5	0.0011162
3094.07	0.0009009
3105.65	0.0007187
3117.22	0.0006645
3128.79	0.0005484
3140.37	0.000473
3151.94	0.0003898
3163.52	0.0003313
3175.09	0.0003038
3186.66	0.0002909
3198.24	0.0002287
3209.81	0.0002801
3221.39	0.0002277
3232.96	0.0002582
3244.53	0.0002087
3256.11	0.00012525
3267.68	0.00014115
3279.26	0.000183
3290.83	0.000145
3302.4	0.0001791
3313.98	0.00015411
3325.55	0.00015549
3337.13	0.0002494
3348.7	0.0006841
3360.27	0.0014162
3371.85	0.0015062
3383.42	0.0008634
3395	0.0005399
3406.57	0.0004834
3418.14	0.0006124
3429.72	0.0010587
3441.29	0.0021262
3452.86	0.0026062
3464.44	0.0018962
3476.01	0.0011962
3487.59	0.000788
3499.16	0.0005958
3510.73	0.0005045
3522.31	0.0004162
3533.88	0.0003534
3545.46	0.0003189
3557.03	0.0002258
3568.6	0.0002286
3580.18	0.00017118
3591.75	0.000185
3603.33	0.0002001
3614.9	0.000177
3626.47	0.00012005
3638.05	7.339e-05
3649.62	0.00012341
3661.2	0.00011208
3672.77	6.05e-05
3684.34	8.979e-05
3695.92	6.41e-05
3707.49	8.6165e-05
3719.07	5.47e-05
3730.64	0.00011128
3742.21	0.00012645
3753.79	4.28e-05
3765.36	9.928e-05
3776.94	8.736e-05
3788.51	2.1e-06
3800.08	0.00014456
3811.66	3.02e-05
3823.23	8.2609e-05
3834.81	9.708e-05
3846.38	0.00011362
3857.95	7.66631e-05
3869.53	0.00017212
3881.1	8.803e-05
3892.68	0.000143
3904.25	0.00014092
3915.82	5.86e-05
3927.4	0.0001421
3938.97	0.00012719
3950.55	0.0001909
3962.12	0.00015552
3973.69	0.0001945
3985.27	0.00012831
3996.84	0.0002886
