Infrared Spectrum: .alpha.-Cyclopropylbenzyl alcohol
Formula: C 10 H 12 O
CAS: 31729-66-5
State: gas
Instrument: HP-GC/MS/IRD
Origin: NIST Mass Spectrometry Data Center
1/CM	ABSORBANCE
550	0.0018672
562	0.0006192
574	0.000912
586	0.000312
598	6.72e-05
610	0.000696
622	0.0032928
634	0.0038016
646	0.0028608
658	0.0026592
670	0.0052464
682	0.0131328
694	0.0282528
706	0.0273936
718	0.0161616
730	0.014904
742	0.0169632
754	0.014088
766	0.0108288
778	0.0070944
790	0.0030096
802	0.0021024
814	0.0037344
826	0.007488
838	0.0081888
850	0.0052128
862	0.0033744
874	0.0023568
886	0.0023904
898	0.0043008
910	0.0080256
922	0.009816
934	0.0101232
946	0.0129744
958	0.01188
970	0.0112272
982	0.0119952
994	0.017424
1006	0.0283776
1018	0.0435456
1030	0.0469008
1042	0.034488
1054	0.0180816
1066	0.0095088
1078	0.0074448
1090	0.0059136
1102	0.0055824
1114	0.0060192
1126	0.0078432
1138	0.0077952
1150	0.0064512
1162	0.0078864
1174	0.0115152
1186	0.0135168
1198	0.0124224
1210	0.0105312
1222	0.0109056
1234	0.0113232
1246	0.0100656
1258	0.0096864
1270	0.0117552
1282	0.013536
1294	0.0132384
1306	0.0122544
1318	0.0110064
1330	0.0095472
1342	0.0087504
1354	0.008208
1366	0.0083712
1378	0.0100368
1390	0.010392
1402	0.0076704
1414	0.005376
1426	0.0058608
1438	0.0076656
1450	0.0091824
1462	0.007512
1474	0.0046368
1486	0.0067824
1498	0.0068448
1510	0.0020688
1522	0.0009312
1534	0.0007584
1546	0.0006048
1558	0.0004656
1570	0.0006288
1582	0.001152
1594	0.0024048
1606	0.0025728
1618	0.0006816
1630	0.00012
1642	9.12e-05
1654	0.0002352
1666	0.000312
1678	0.000408
1690	0.0005424
1702	0.0003504
1714	5.76e-05
1726	0.000144
1738	0.0004368
1750	0.0005184
1762	0.0004224
1774	0.0004656
1786	0.0010896
1798	0.0019632
1810	0.0013008
1822	0.0006672
1834	0.0004416
1846	0.0005616
1858	0.0009552
1870	0.0014208
1882	0.0016272
1894	0.0011904
1906	0.0007056
1918	0.000888
1930	0.001512
1942	0.0020352
1954	0.0019728
1966	0.0009744
1978	0.0003264
1990	0.0001632
2002	9.12e-05
2014	9.12e-05
2026	0.0001824
2038	0.0003504
2050	0.0005376
2062	0.000768
2074	0.0007296
2086	0.000504
2098	0.000408
2110	0.0002496
2122	0.0001008
2134	5.76e-05
2146	5.28e-05
2158	2.4e-05
2170	0
2182	2.88e-05
2194	8.64e-05
2206	9.6e-05
2218	0.000144
2230	0.0001056
2242	8.64e-05
2254	7.2e-05
2266	7.68e-05
2278	3.36e-05
2290	0
2302	0.0001104
2314	0.0002352
2326	0.0001968
2338	0.0001776
2350	0.000144
2362	7.68e-05
2374	0.0001056
2386	6.72e-05
2398	9.12e-05
2410	8.64e-05
2422	0.0001056
2434	0.0001248
2446	0.0001248
2458	0.0001728
2470	0.000336
2482	0.000408
2494	0.0002352
2506	0.0001536
2518	0.0001392
2530	0.0001632
2542	0.0002016
2554	0.000192
2566	0.000216
2578	0.0002736
2590	0.0003072
2602	0.000336
2614	0.0003024
2626	0.0003216
2638	0.0003024
2650	0.0002688
2662	0.0002496
2674	0.0002688
2686	0.000288
2698	0.0003264
2710	0.000312
2722	0.000288
2734	0.0003504
2746	0.0004128
2758	0.0005568
2770	0.000672
2782	0.0008208
2794	0.0010128
2806	0.0011808
2818	0.0015216
2830	0.0022992
2842	0.0036528
2854	0.006216
2866	0.0103584
2878	0.0134688
2890	0.012096
2902	0.0079728
2914	0.0045936
2926	0.002856
2938	0.002064
2950	0.0018192
2962	0.0019536
2974	0.0025728
2986	0.0043296
2998	0.0101856
3010	0.024816
3022	0.0326928
3034	0.0275472
3046	0.0198672
3058	0.0180864
3070	0.0284016
3082	0.0312192
3094	0.0249216
3106	0.0115296
3118	0.0040944
3130	0.0015312
3142	0.0008112
3154	0.0005904
3166	0.0005328
3178	0.000336
3190	0.0001776
3202	0.0001056
3214	8.64e-05
3226	2.4e-05
3238	5.76e-05
3250	2.4e-05
3262	1.92e-05
3274	9.6e-06
3286	7.68e-05
3298	2.4e-05
3310	4.8e-05
3322	5.76e-05
3334	7.2e-05
3346	0.0001152
3358	0.0002688
3370	0.0002976
3382	0.0003216
3394	0.0003504
3406	0.000288
3418	0.0002976
3430	0.0002688
3442	0.000336
3454	0.0002256
3466	0.0003072
3478	0.0002448
3490	0.000192
3502	0.0002448
3514	0.0002688
3526	0.0002448
3538	0.00024
3550	0.0002544
3562	0.0002928
3574	0.0002784
3586	0.0004416
3598	0.000528
3610	0.0010608
3622	0.0025392
3634	0.0074304
3646	0.0107616
3658	0.0068688
3670	0.0029664
3682	0.0013248
3694	0.0007824
3706	0.0006336
3718	0.000432
3730	0.0003696
3742	0.0002832
3754	0.000288
3766	0.0003264
3778	0.0003648
3790	0.0003888
3802	0.0004416
3814	0.0004608
3826	0.00048
3838	0.0006288
