Infrared Spectrum: Salicylidene o-chloroaniline
Formula: C 13 H 10 Cl N O
CAS: 3172-42-7
State: gas
Origin: EPA-IR VAPOR PHASE LIBRARY
1/CM	ABSORBANCE
551.7	0.0029469
563.274	0.0043169
574.848	0.0028569
586.421	0.0017369
597.995	0.0013769
609.569	0.0014369
621.143	0.0012669
632.717	0.0019869
644.291	0.0031169
655.864	0.0024769
667.438	0.0024169
679.012	0.0035369
690.586	0.0070169
702.16	0.0094569
713.734	0.0095269
725.307	0.0121769
736.881	0.0232169
748.455	0.0486269
760.029	0.0253569
771.603	0.0103769
783.177	0.0091769
794.75	0.0051169
806.324	0.0030069
817.898	0.0024769
829.472	0.0027569
841.046	0.0070669
852.619	0.0064169
864.193	0.0030569
875.767	0.0022569
887.341	0.0023969
898.915	0.0091969
910.489	0.0200169
922.062	0.0041969
933.636	0.0029369
945.21	0.0020469
956.784	0.0013669
968.358	0.0022469
979.932	0.0029969
991.505	0.0018069
1003.08	0.0015269
1014.65	0.0023969
1026.23	0.0058069
1037.8	0.0073969
1049.37	0.0088569
1060.95	0.0136169
1072.52	0.0045669
1084.1	0.0020969
1095.67	0.0024669
1107.24	0.0039469
1118.82	0.0070469
1130.39	0.0066669
1141.97	0.0117169
1153.54	0.0188569
1165.11	0.0096569
1176.69	0.0203469
1188.26	0.0273669
1199.83	0.0189969
1211.41	0.0103369
1222.98	0.0083769
1234.56	0.0063769
1246.13	0.0051669
1257.7	0.0088669
1269.28	0.0167269
1280.85	0.0259269
1292.42	0.0175569
1304	0.0079769
1315.57	0.0045969
1327.15	0.0027169
1338.72	0.0022669
1350.29	0.0034869
1361.87	0.0073869
1373.44	0.0091669
1385.02	0.0072269
1396.59	0.0061869
1408.16	0.0067569
1419.74	0.0072769
1431.31	0.0095769
1442.88	0.0136069
1454.46	0.0138469
1466.03	0.0301269
1477.61	0.0424969
1489.18	0.0199169
1500.75	0.0133069
1512.33	0.0087669
1523.9	0.0071669
1535.48	0.0064669
1547.05	0.0077869
1558.62	0.0147069
1570.2	0.0355569
1581.77	0.0417669
1593.34	0.0202169
1604.92	0.0229369
1616.49	0.0698969
1628.07	0.120427
1639.64	0.0350969
1651.21	0.0112769
1662.79	0.0061069
1674.36	0.0048969
1685.93	0.0056169
1697.51	0.0044769
1709.08	0.0028569
1720.66	0.0019569
1732.23	0.0015669
1743.8	0.0014769
1755.38	0.0015669
1766.95	0.0015169
1778.53	0.0020069
1790.1	0.0019869
1801.67	0.0013969
1813.25	0.0017869
1824.82	0.0017369
1836.39	0.0010402
1847.97	0.0009184
1859.54	0.0012069
1871.12	0.0013669
1882.69	0.0010357
1894.26	0.0017269
1905.84	0.0019869
1917.41	0.0011869
1928.99	0.0019269
1940.56	0.0026669
1952.13	0.0011969
1963.71	0.0006962
1975.28	0.0005762
1986.85	0.0005176
1998.43	0.0005357
2010	0.0004905
2021.58	0.0005051
2033.15	0.0005167
2044.72	0.0005481
2056.3	0.0007917
2067.87	0.0008004
2079.44	0.0007194
2091.02	0.0006884
2102.59	0.0006552
2114.17	0.0005858
2125.74	0.000554
2137.31	0.0004913
2148.89	0.0004915
2160.46	0.0004741
2172.04	0.0005472
2183.61	0.0006447
2195.18	0.0007063
2206.76	0.0006503
2218.33	0.0006827
2229.9	0.000684
2241.48	0.0005913
2253.05	0.0007328
2264.63	0.0008783
2276.2	0.0007806
2287.77	0.0007611
2299.35	0.0008139
2310.92	0.0009726
2322.5	0.0010769
2334.07	0.0010266
2345.64	0.0010969
2357.22	0.0010155
2368.79	0.0010417
2380.36	0.0011569
2391.94	0.0012069
2403.51	0.0012869
2415.09	0.0012769
2426.66	0.0013469
2438.23	0.0013269
2449.81	0.0012969
2461.38	0.0014069
2472.96	0.0014369
2484.53	0.0014669
2496.1	0.0015969
2507.68	0.0017269
2519.25	0.0019569
2530.82	0.0020469
2542.4	0.0020269
2553.97	0.0021169
2565.55	0.0021169
2577.12	0.0022069
2588.69	0.0025169
2600.27	0.0025769
2611.84	0.0026469
2623.41	0.0028569
2634.99	0.0029769
2646.56	0.0028069
2658.14	0.0028769
2669.71	0.0027569
2681.28	0.0027469
2692.86	0.0028369
2704.43	0.0032969
2716.01	0.0036469
2727.58	0.0038169
2739.15	0.0040169
2750.73	0.0042169
2762.3	0.0042969
2773.87	0.0042769
2785.45	0.0040069
2797.02	0.0040669
2808.6	0.0042569
2820.17	0.0045069
2831.74	0.0048869
2843.32	0.0055269
2854.89	0.0059269
2866.47	0.0063069
2878.04	0.0074269
2889.61	0.0089569
2901.19	0.0082769
2912.76	0.0070269
2924.33	0.0064869
2935.91	0.0065969
2947.48	0.0066169
2959.06	0.0063269
2970.63	0.0068169
2982.2	0.0076769
2993.78	0.0087969
3005.35	0.0091269
3016.92	0.0096469
3028.5	0.0103169
3040.07	0.0109369
3051.65	0.0124369
3063.22	0.0168069
3074.79	0.0228069
3086.37	0.0154369
3097.94	0.0109569
3109.52	0.0092969
3121.09	0.0087769
3132.66	0.0081169
3144.24	0.0080569
3155.81	0.0080169
3167.38	0.0081969
3178.96	0.0079669
3190.53	0.0076569
3202.11	0.0073469
3213.68	0.0072969
3225.25	0.0074369
3236.83	0.0074469
3248.4	0.0068969
3259.98	0.0065169
3271.55	0.0059469
3283.12	0.0055769
3294.7	0.0052269
3306.27	0.0049469
3317.84	0.0045169
3329.42	0.0042469
3340.99	0.0038369
3352.57	0.0034469
3364.14	0.0029969
3375.71	0.0027669
3387.29	0.0024469
3398.86	0.0023269
3410.43	0.0019269
3422.01	0.0016869
3433.58	0.0015769
3445.16	0.0013069
3456.73	0.0010969
3468.3	0.0011269
3479.88	0.0009164
3491.45	0.0008918
3503.03	0.0008597
3514.6	0.0007312
3526.17	0.000661
3537.75	0.0004912
3549.32	0.0004919
3560.89	0.0004463
3572.47	0.0004225
3584.04	0.0005051
3595.62	0.0004948
3607.19	0.0004305
3618.76	0.0002472
3630.34	0.0002411
3641.91	0.0003399
3653.49	0.0003284
3665.06	0.0001666
3676.63	0.0002543
3688.21	0.0002954
3699.78	0.00011188
3711.35	0
3722.93	0.0002448
3734.5	0.0001818
3746.08	0.0002344
3757.65	0.0002209
3769.22	0.0003766
3780.8	0.0001569
3792.37	0.0003626
3803.94	0.0002441
3815.52	0.0001768
3827.09	0.0002728
3838.67	0.0002294
3850.24	0.0002814
3861.81	0.000176
3873.39	0.000228
3884.96	0.0002925
3896.54	0.0002067
3908.11	0.0003183
3919.68	0.0002989
3931.26	0.0002947
3942.83	0.0003118
3954.4	9.661e-05
3965.98	0.0002958
3977.55	0.0002304
3989.13	0.0002395
4000.7	0.00014143
