Infrared Spectrum: TRIPHENYL-P-BIPHENYL-SILANE
Formula: C30 H24 Si
CAS: 3172-34-7
State: SOLID (1.0% IN KBr PELLET)
Class: COBLENTZ
Instrument: Not specified, most likely a prism, grating, or hybrid spectrometer.
Sampling: TRANSMISSION
Path length: 0.0355 CM
Resolution: 4
Origin: ANDERSON PHYSICAL LABORATORY
1/CM	TRANSMITTANCE
672.177	0.595
680.599	0.3341
689.021	0.388
697.442	0.0862
705.864	0.116
714.286	0.4419
722.708	0.631
731.129	0.581
739.551	0.403
747.973	0.542
756.395	0.65
764.816	0.3679
773.238	0.9069
781.66	0.926
790.082	0.926
798.503	0.926
806.925	0.926
815.347	0.917
823.769	0.869
832.19	0.626
840.612	0.886
849.034	0.9159
857.456	0.934
865.877	0.968
874.299	0.971
882.721	0.959
891.143	0.953
899.564	0.947
907.986	0.925
916.408	0.88
924.83	0.931
933.251	0.944
941.673	0.932
950.095	0.923
958.517	0.913
966.939	0.901
975.36	0.868
983.782	0.863
992.204	0.782
1000.63	0.638
1009.05	0.721
1017.47	0.877
1025.89	0.823
1034.31	0.865
1042.73	0.872
1051.16	0.859
1059.58	0.827
1068	0.76
1076.42	0.71
1084.84	0.698
1093.26	0.578
1101.69	0.3711
1110.11	0.1301
1118.53	0.1959
1126.95	0.7099
1135.37	0.847
1143.8	0.88
1152.22	0.866
1160.64	0.838
1169.06	0.898
1177.48	0.848
1185.9	0.6761
1194.33	0.7099
1202.75	0.905
1211.17	0.928
1219.59	0.928
1228.01	0.919
1236.43	0.904
1244.86	0.878
1253.28	0.794
1261.7	0.802
1270.12	0.893
1278.54	0.893
1286.97	0.863
1295.39	0.85
1303.81	0.821
1312.23	0.836
1320.65	0.893
1329.07	0.899
1337.5	0.877
1345.92	0.908
1354.34	0.889
1362.76	0.887
1371.18	0.871
1379.6	0.791
1388.03	0.647
1396.45	0.841
1404.87	0.865
1413.29	0.85
1421.71	0.676
1430.14	0.3648
1438.56	0.7807
1446.98	0.836
1455.4	0.904
1463.82	0.883
1472.24	0.841
1480.67	0.583
1489.09	0.478
1497.51	0.895
1505.93	0.905
1514.35	0.904
1522.77	0.889
1531.2	0.88
1539.62	0.877
1548.04	0.881
1556.46	0.862
1564.88	0.821
1573.31	0.854
1581.73	0.823
1590.15	0.71
1598.57	0.6821
1606.99	0.868
1615.41	0.881
1623.84	0.884
1632.26	0.886
1640.68	0.886
1649.1	0.883
1657.52	0.874
1665.94	0.878
1674.37	0.899
1682.79	0.905
1691.21	0.917
1699.63	0.92
1708.05	0.926
1716.47	0.932
1724.9	0.938
1733.32	0.938
1741.74	0.935
1750.16	0.937
1758.58	0.919
1767.01	0.914
1775.43	0.911
1783.85	0.926
1792.27	0.929
1800.69	0.911
1809.11	0.898
1817.54	0.883
1825.96	0.893
1834.38	0.905
1842.8	0.929
1851.22	0.929
1859.64	0.937
1868.07	0.937
1876.49	0.917
1884.91	0.878
1893.33	0.874
1901.75	0.886
1910.18	0.889
1918.6	0.904
1927.02	0.913
1935.44	0.917
1943.86	0.917
1952.28	0.904
1960.71	0.877
1969.13	0.869
1977.55	0.884
1985.97	0.895
1994.39	0.917
2002.81	0.9335
2011.24	0.932
2019.66	0.932
2028.08	0.9315
2036.5	0.931
2044.92	0.926
2053.35	0.923
2061.77	0.923
2070.19	0.9223
2078.61	0.92
2087.03	0.919
2095.45	0.9165
2103.88	0.914
2112.3	0.91
2120.72	0.908
2129.14	0.907
2137.56	0.907
2145.98	0.905
2154.41	0.905
2162.83	0.905
2171.25	0.9026
2179.67	0.901
2188.09	0.8988
2196.52	0.8941
2204.94	0.8906
2213.36	0.89
2221.78	0.889
2230.2	0.8865
2238.62	0.884
2247.05	0.884
2255.47	0.8838
2263.89	0.8805
2272.31	0.878
2280.73	0.8771
2289.15	0.875
2297.58	0.875
2306	0.8743
2314.42	0.874
2322.84	0.874
2331.26	0.874
2339.69	0.874
2348.11	0.8769
2356.53	0.8766
2364.95	0.8746
2373.37	0.8696
2381.79	0.8631
2390.22	0.8592
2398.64	0.8608
2407.06	0.8627
2415.48	0.863
2423.9	0.8645
2432.32	0.8577
2440.75	0.853
2449.17	0.851
2457.59	0.8497
2466.01	0.8468
2474.43	0.8413
2482.85	0.8381
2491.28	0.842
2499.7	0.8487
2508.12	0.8523
2516.54	0.853
2524.96	0.8508
2533.39	0.8395
2541.81	0.833
2550.23	0.8291
2558.65	0.8239
2567.07	0.821
2575.49	0.8249
2583.92	0.8317
2592.34	0.8397
2600.76	0.8494
2609.18	0.8536
2617.6	0.8512
2626.02	0.8436
2634.45	0.8255
2642.87	0.8138
2651.29	0.8053
2659.71	0.8063
2668.13	0.808
2676.56	0.8103
2684.98	0.812
2693.4	0.8123
2701.82	0.8116
2710.24	0.8061
2718.66	0.7947
2727.09	0.7969
2735.51	0.8125
2743.93	0.8206
2752.35	0.8201
2760.77	0.8115
2769.19	0.7979
2777.62	0.7852
2786.04	0.7849
2794.46	0.794
2802.88	0.7919
2811.3	0.7856
2819.73	0.7785
2828.15	0.7603
2836.57	0.754
2844.99	0.7514
2853.41	0.7482
2861.83	0.7448
2870.26	0.7426
2878.68	0.74
2887.1	0.739
2895.52	0.7366
2903.94	0.7266
2912.36	0.7214
2920.79	0.7105
2929.21	0.7007
2937.63	0.6846
2946.05	0.6716
2954.47	0.6575
2962.9	0.6329
2971.32	0.5914
2979.74	0.5555
2988.16	0.5387
2996.58	0.5289
3005	0.526
3013.43	0.526
3021.85	0.526
3030.27	0.527
3038.69	0.5276
3047.11	0.5317
3055.53	0.5434
3063.96	0.5766
3072.38	0.6502
3080.8	0.7102
3089.22	0.7261
3097.64	0.728
3106.06	0.727
3114.49	0.727
3122.91	0.727
3131.33	0.7249
3139.75	0.7234
3148.17	0.721
3156.6	0.7194
3165.02	0.7189
3173.44	0.716
3181.86	0.7104
3190.28	0.707
3198.7	0.7059
3207.13	0.7037
3215.55	0.7019
3223.97	0.701
3232.39	0.698
3240.81	0.698
3249.23	0.6959
3257.66	0.6864
3266.08	0.685
3274.5	0.685
3282.92	0.685
3291.34	0.6822
3299.77	0.674
3308.19	0.6692
3316.61	0.6645
3325.03	0.6567
3333.45	0.6529
3341.87	0.6425
3350.3	0.6375
3358.72	0.6317
3367.14	0.6259
3375.56	0.6185
3383.98	0.615
3392.4	0.6115
3400.83	0.61
3409.25	0.608
3417.67	0.608
3426.09	0.61
3434.51	0.614
3442.94	0.614
3451.36	0.614
3459.78	0.6155
3468.2	0.616
3476.62	0.6175
3485.04	0.6225
3493.47	0.625
3501.89	0.626
3510.31	0.626
3518.73	0.628
3527.15	0.629
3535.57	0.632
3544	0.6357
3552.42	0.6405
3560.84	0.643
3569.26	0.647
3577.68	0.6507
3586.11	0.656
3594.53	0.6654
3602.95	0.6699
3611.37	0.671
3619.79	0.673
3628.21	0.6737
3636.64	0.676
3645.06	0.676
3653.48	0.676
3661.9	0.674
3670.32	0.674
3678.74	0.673
3687.17	0.673
3695.59	0.673
3704.01	0.673
3712.43	0.673
3720.85	0.674
3729.28	0.674
3737.7	0.674
3746.12	0.674
3754.54	0.674
3762.96	0.674
3771.38	0.674
3779.81	0.6738
3788.23	0.673
3796.65	0.673
3805.07	0.673
3813.49	0.673
3821.91	0.6717
3830.34	0.67
3838.76	0.67
3847.18	0.668
3855.6	0.6676
3864.02	0.6656
3872.44	0.6582
3880.87	0.6528
3889.29	0.652
3897.71	0.6506
3906.13	0.6491
3914.55	0.649
3922.98	0.649
3931.4	0.647
3939.82	0.6461
3948.24	0.64
3956.66	0.6404
3965.08	0.6437
3973.51	0.6431
3981.93	0.64
3990.35	0.638
3998.77	0.638
