Infrared Spectrum: Benzyl isocyanate
Formula: C 8 H 7 N O
CAS: 3173-56-6
State: gas
Origin: EPA-IR VAPOR PHASE LIBRARY
1/CM	ABSORBANCE
549.9	0.01878
559.547	0.02756
569.193	0.04161
578.84	0.05373
588.486	0.06306
598.133	0.07333
607.779	0.08901
617.426	0.09258
627.072	0.077
636.719	0.05783
646.365	0.04557
656.012	0.04213
665.658	0.04922
675.305	0.07353
684.951	0.11073
694.598	0.15738
704.245	0.16083
713.891	0.15857
723.538	0.16406
733.184	0.17598
742.831	0.14867
752.477	0.08873
762.124	0.0415
771.77	0.0214
781.417	0.01711
791.063	0.01888
800.71	0.02199
810.356	0.02437
820.003	0.02328
829.649	0.02099
839.296	0.02298
848.943	0.03161
858.589	0.05322
868.236	0.09186
877.882	0.1158
887.529	0.09879
897.175	0.0641
906.822	0.03896
916.468	0.02583
926.115	0.01782
935.761	0.01419
945.408	0.01273
955.054	0.0118
964.701	0.0105
974.347	0.0090863
983.994	0.008279
993.64	0.0097
1003.29	0.01106
1012.93	0.01178
1022.58	0.02072
1032.23	0.01921
1041.87	0.0090326
1051.52	0.00756
1061.17	0.0098
1070.81	0.01156
1080.46	0.01092
1090.11	0.0085928
1099.75	0.00658
1109.4	0.00549
1119.05	0.00457
1128.69	0.00448
1138.34	0.00501
1147.99	0.00622
1157.63	0.007854
1167.28	0.00975
1176.92	0.01218
1186.57	0.01461
1196.22	0.01733
1205.86	0.01861
1215.51	0.01743
1225.16	0.01705
1234.8	0.01767
1244.45	0.01732
1254.1	0.0169
1263.74	0.01794
1273.39	0.02035
1283.04	0.02575
1292.68	0.03821
1302.33	0.04871
1311.98	0.05694
1321.62	0.07428
1331.27	0.1073
1340.92	0.16621
1350.56	0.18907
1360.21	0.13899
1369.86	0.06487
1379.5	0.0353
1389.15	0.02482
1398.79	0.02108
1408.44	0.02325
1418.09	0.03209
1427.73	0.05213
1437.38	0.07483
1447.03	0.08276
1456.67	0.07498
1466.32	0.06284
1475.97	0.03614
1485.61	0.02949
1495.26	0.04277
1504.91	0.03592
1514.55	0.01364
1524.2	0.01068
1533.85	0.01017
1543.49	0.01003
1553.14	0.0104
1562.79	0.01155
1572.43	0.01309
1582.08	0.0147
1591.73	0.01664
1601.37	0.02005
1611.02	0.01842
1620.67	0.01239
1630.31	0.0093163
1639.96	0.008303
1649.6	0.00753
1659.25	0.00686
1668.9	0.00647
1678.54	0.00636
1688.19	0.00644
1697.84	0.00637
1707.48	0.00671
1717.13	0.00711
1726.78	0.00767
1736.42	0.008026
1746.07	0.007968
1755.72	0.00765
1765.36	0.007723
1775.01	0.0090828
1784.66	0.01232
1794.3	0.01614
1803.95	0.01437
1813.6	0.009509
1823.24	0.008311
1832.89	0.007993
1842.54	0.008516
1852.18	0.00979
1861.83	0.01095
1871.47	0.01163
1881.12	0.01126
1890.77	0.00971
1900.41	0.008536
1910.06	0.0086764
1919.71	0.01022
1929.35	0.01278
1939	0.01465
1948.65	0.01636
1958.29	0.0154
1967.94	0.01098
1977.59	0.007738
1987.23	0.00742
1996.88	0.00745
2006.53	0.00766
2016.17	0.008035
2025.82	0.008596
2035.47	0.0092965
2045.11	0.01029
2054.76	0.0117
2064.41	0.01392
2074.05	0.01703
2083.7	0.02154
2093.35	0.02722
2102.99	0.03301
2112.64	0.03726
2122.28	0.04013
2131.93	0.0437
2141.58	0.04894
2151.22	0.05639
2160.87	0.06773
2170.52	0.08461
2180.16	0.10795
2189.81	0.14103
2199.46	0.19091
2209.1	0.26057
2218.75	0.36372
2228.4	0.54497
2238.04	0.8741
2247.69	1.356
2257.34	1.65623
2266.98	1.69528
2276.63	1.64792
2286.28	1.32197
2295.92	0.82703
2305.57	0.57426
2315.22	0.43715
2324.86	0.33567
2334.51	0.25876
2344.16	0.20193
2353.8	0.15316
2363.45	0.11048
2373.09	0.08194
2382.74	0.06747
2392.39	0.06151
2402.03	0.0608
2411.68	0.06199
2421.33	0.0606
2430.97	0.05279
2440.62	0.04062
2450.27	0.02954
2459.91	0.022
2469.56	0.01721
2479.21	0.0138
2488.85	0.01131
2498.5	0.00971
2508.15	0.0086472
2517.79	0.008068
2527.44	0.007809
2537.09	0.00763
2546.73	0.00758
2556.38	0.00755
2566.03	0.00763
2575.67	0.007914
2585.32	0.008189
2594.96	0.0086753
2604.61	0.0090061
2614.26	0.0091119
2623.9	0.0089992
2633.55	0.00869895
2643.2	0.007957
2652.84	0.00717
2662.49	0.0066
2672.14	0.0061
2681.78	0.0058
2691.43	0.00561
2701.08	0.00533
2710.72	0.00513
2720.37	0.00487
2730.02	0.00488
2739.66	0.00485
2749.31	0.00487
2758.96	0.00508
2768.6	0.00542
2778.25	0.00605
2787.9	0.00676
2797.54	0.00742
2807.19	0.00789
2816.84	0.00765
2826.48	0.00748
2836.13	0.008304
2845.77	0.01019
2855.42	0.01434
2865.07	0.02174
2874.71	0.03054
2884.36	0.03771
2894.01	0.04211
2903.65	0.04432
2913.3	0.04631
2922.95	0.05046
2932.59	0.05651
2942.24	0.06054
2951.89	0.06241
2961.53	0.0584
2971.18	0.04397
2980.83	0.02665
2990.47	0.01691
3000.12	0.01677
3009.77	0.02566
3019.41	0.04613
3029.06	0.07881
3038.71	0.09866
3048.35	0.08547
3058	0.06989
3067.64	0.0931
3077.29	0.10314
3086.94	0.07618
3096.58	0.05496
3106.23	0.04308
3115.88	0.03067
3125.52	0.02171
3135.17	0.01726
3144.82	0.01621
3154.46	0.01573
3164.11	0.01555
3173.76	0.01399
3183.4	0.01058
3193.05	0.00708
3202.7	0.00489
3212.34	0.00355
3221.99	0.00258
3231.64	0.00205
3241.28	0.00148
3250.93	0.00084
3260.58	0.00065
3270.22	0.00027
3279.87	0.00022
3289.52	8e-05
3299.16	0.00031
3308.81	0.00017
3318.45	1e-05
3328.1	0.00012
3337.75	0.00019
3347.39	0.00038
3357.04	0.00051
3366.69	0.00074
3376.33	0.00074
3385.98	0.00116
3395.63	0.00118
3405.27	0.00128
3414.92	0.0014
3424.57	0.00175
3434.21	0.00195
3443.86	0.00227
3453.51	0.00264
3463.15	0.00274
3472.8	0.00308
3482.45	0.00341
3492.09	0.00376
3501.74	0.00406
3511.39	0.00433
3521.03	0.00486
3530.68	0.00544
3540.33	0.0059
3549.97	0.00641
3559.62	0.00689
3569.26	0.00746
3578.91	0.008142
3588.56	0.00871674
3598.2	0.0094406
3607.85	0.0101
3617.5	0.01122
3627.14	0.01245
3636.79	0.01418
3646.44	0.01629
3656.08	0.01894
3665.73	0.02178
3675.38	0.02408
3685.02	0.02536
3694.67	0.02508
3704.32	0.02313
3713.96	0.02
3723.61	0.01716
3733.26	0.01482
3742.9	0.01283
3752.55	0.01086
3762.2	0.0095126
3771.84	0.008488
3781.49	0.007892
3791.13	0.00741
3800.78	0.00705
3810.43	0.00691
3820.07	0.00676
3829.72	0.00674
3839.37	0.00648
3849.01	0.00635
3858.66	0.00619
3868.31	0.00582
3877.95	0.00572
3887.6	0.00545
3897.25	0.00523
3906.89	0.00504
3916.54	0.00485
3926.19	0.00478
3935.83	0.00463
3945.48	0.00461
3955.13	0.00457
3964.77	0.00453
3974.42	0.00453
3984.07	0.00482
3993.71	0.00472
