Infrared Spectrum: 4-Propylheptane
Formula: C 10 H 22
CAS: 3178-29-8
State: gas
Instrument: HP-GC/MS/IRD
Origin: NIST Mass Spectrometry Data Center
1/CM	ABSORBANCE
550	7.65e-05
562	9.69e-05
574	0.0001683
586	9.69e-05
598	0.0001683
610	0.0001224
622	0.0001224
634	0.0001173
646	0.0002091
658	9.69e-05
670	0.0001836
682	0.0001836
694	0.0001989
706	0.0002499
718	0.0004233
730	0.000714
742	0.0010506
754	0.0009996
766	0.0007599
778	0.0005559
790	0.0003723
802	0.0002805
814	0.0003009
826	0.0001938
838	0.000255
850	0.0002499
862	0.0003417
874	0.0003978
886	0.0005763
898	0.0007293
910	0.0006171
922	0.0003723
934	0.0002652
946	0.0002703
958	0.0002295
970	0.0002397
982	0.0003264
994	0.0004029
1006	0.0003417
1018	0.0002193
1030	0.0002703
1042	0.0003672
1054	0.000408
1066	0.0004386
1078	0.0003825
1090	0.0002499
1102	0.0002142
1114	0.0002397
1126	0.0003927
1138	0.0006426
1150	0.000663
1162	0.0003978
1174	0.000204
1186	0.0001887
1198	0.0002193
1210	0.0003213
1222	0.0004131
1234	0.0004335
1246	0.0005304
1258	0.0005661
1270	0.000612
1282	0.0006171
1294	0.0006681
1306	0.0007548
1318	0.000816
1330	0.0010251
1342	0.0012138
1354	0.001377
1366	0.0017289
1378	0.002652
1390	0.0024429
1402	0.0013107
1414	0.0011169
1426	0.0012699
1438	0.0022083
1450	0.0045441
1462	0.0066708
1474	0.0050133
1486	0.0020553
1498	0.0010251
1510	0.0007293
1522	0.0006069
1534	0.0004998
1546	0.000408
1558	0.0004029
1570	0.0003162
1582	0.0002805
1594	0.0002601
1606	0.0002244
1618	0.0002397
1630	0.0002091
1642	0.0001938
1654	0.0002244
1666	0.0001734
1678	0.0001683
1690	0.0001326
1702	0.0001479
1714	0.0001224
1726	9.18e-05
1738	9.69e-05
1750	7.14e-05
1762	5.61e-05
1774	6.63e-05
1786	5.61e-05
1798	6.12e-05
1810	4.08e-05
1822	3.57e-05
1834	4.59e-05
1846	3.57e-05
1858	5.1e-05
1870	3.06e-05
1882	3.06e-05
1894	4.08e-05
1906	2.55e-05
1918	1.53e-05
1930	1.53e-05
1942	0
1954	5.1e-06
1966	1.02e-05
1978	0
1990	5.1e-06
2002	2.04e-05
2014	2.04e-05
2026	6.12e-05
2038	7.14e-05
2050	6.63e-05
2062	5.1e-05
2074	3.57e-05
2086	5.1e-05
2098	3.06e-05
2110	2.55e-05
2122	5.1e-05
2134	4.59e-05
2146	6.12e-05
2158	4.08e-05
2170	5.1e-05
2182	7.14e-05
2194	4.59e-05
2206	7.14e-05
2218	7.65e-05
2230	5.61e-05
2242	4.59e-05
2254	7.65e-05
2266	6.63e-05
2278	0.000102
2290	8.67e-05
2302	6.63e-05
2314	9.18e-05
2326	0.0001071
2338	0.0001377
2350	0.0001377
2362	0.0001785
2374	0.0001632
2386	0.000153
2398	0.0001632
2410	0.0001734
2422	0.0001734
2434	0.0001275
2446	0.0001122
2458	0.0001173
2470	0.000102
2482	9.18e-05
2494	0.0001377
2506	0.0001581
2518	0.0001785
2530	0.0002091
2542	0.0002295
2554	0.0002448
2566	0.0003213
2578	0.0003825
2590	0.0004029
2602	0.0004335
2614	0.0004335
2626	0.000459
2638	0.0004947
2650	0.0005457
2662	0.0005865
2674	0.0006171
2686	0.0006273
2698	0.0006477
2710	0.0007497
2722	0.0008823
2734	0.0010863
2746	0.0011832
2758	0.0010659
2770	0.0011832
2782	0.0013566
2794	0.0016983
2806	0.0021522
2818	0.0026979
2830	0.0036822
2842	0.0061659
2854	0.0122145
2866	0.0189669
2878	0.0257958
2890	0.0231693
2902	0.0235314
2914	0.0327726
2926	0.0418353
2938	0.044319
2950	0.0363069
2962	0.0487968
2974	0.0372759
2986	0.012648
2998	0.0064668
3010	0.0045441
3022	0.0036108
3034	0.0028917
3046	0.0021522
3058	0.001683
3070	0.0013821
3082	0.0012291
3094	0.0010863
3106	0.0009588
3118	0.0008364
3130	0.0007854
3142	0.0007089
3154	0.0006732
3166	0.0005763
3178	0.0005763
3190	0.00051
3202	0.0004182
3214	0.0003315
3226	0.0002601
3238	0.0002448
3250	0.0001734
3262	0.0001785
3274	0.0001581
3286	0.0001989
3298	0.0001581
3310	0.0001428
3322	0.0001581
3334	0.0001581
3346	0.0001275
3358	0.000102
3370	8.16e-05
3382	0.0001581
3394	0.0001122
3406	0.0001122
3418	8.16e-05
3430	7.14e-05
3442	0.0001173
3454	9.69e-05
3466	8.67e-05
3478	6.63e-05
3490	9.69e-05
3502	8.67e-05
3514	5.1e-05
3526	8.16e-05
3538	5.1e-05
3550	9.69e-05
3562	8.16e-05
3574	8.16e-05
3586	9.18e-05
3598	0.0001326
3610	0.0001377
3622	0.0001326
3634	0.0001581
3646	0.0001989
3658	0.0001938
3670	0.0001938
3682	0.0001836
3694	0.0001683
3706	0.0002244
3718	0.0002295
3730	0.0002091
3742	0.0001938
3754	0.0002295
3766	0.0002091
3778	0.0002397
3790	0.0002091
3802	0.0002346
3814	0.0002601
3826	0.0001734
3838	0.0001989
