Infrared Spectrum: PHOSPHOROTHIOIC ACID, S-ESTER WITH N-[4-[(3-HYDROXYPROPYL)AMINO]BUTYL]PHTHALIMIDE
Formula: C15 H21 N2 O5 P S
CAS: 31786-68-2
State: SOLID (1.0 mg / 650 mg KBr DISC)
Class: COBLENTZ
Instrument: PERKIN-ELMER 521 (GRATING)
Instrument parameters: FILTERS AT 3150, 2500, 2000, 1150, 700, 410 AND GRATING CHANGES: 2000, 630 CM^-^1
Sampling: TRANSMISSION
Resolution: 4
Origin: SOUTHERN RESEARCH INSTITUTE
1/CM	TRANSMITTANCE
250	0.283
259.764	0.3335
269.527	0.406
279.291	0.4459
289.054	0.4978
298.818	0.5564
308.581	0.5885
318.345	0.614
328.108	0.6393
337.872	0.6354
347.635	0.6068
357.399	0.6971
367.162	0.7419
376.926	0.747
386.69	0.7292
396.453	0.7023
406.217	0.7092
415.98	0.72
425.744	0.7016
435.507	0.6655
445.271	0.6099
455.034	0.5859
464.798	0.6594
474.561	0.7009
484.325	0.6971
494.088	0.693
503.852	0.6977
513.616	0.6974
523.379	0.6477
533.143	0.6623
542.906	0.6997
552.67	0.573
562.433	0.5304
572.197	0.3507
581.96	0.4038
591.724	0.6067
601.487	0.7548
611.251	0.791
621.014	0.7644
630.778	0.8333
640.542	0.8469
650.305	0.8506
660.069	0.8363
669.832	0.839
679.596	0.8268
689.359	0.801
699.123	0.7706
708.886	0.5327
718.65	0.4279
728.413	0.5239
738.177	0.7469
747.94	0.771
757.704	0.7958
767.468	0.7884
777.231	0.7708
786.995	0.7574
796.758	0.7082
806.522	0.754
816.285	0.7295
826.049	0.713
835.812	0.7013
845.576	0.6854
855.339	0.634
865.103	0.597
874.866	0.5804
884.63	0.5369
894.394	0.4726
904.157	0.4528
913.921	0.4588
923.684	0.5197
933.448	0.5854
943.211	0.596
952.975	0.5888
962.738	0.562
972.502	0.5716
982.265	0.567
992.029	0.5342
1001.79	0.4907
1011.56	0.4648
1021.32	0.444
1031.08	0.4142
1040.85	0.404
1050.61	0.3966
1060.37	0.3835
1070.14	0.409
1079.9	0.5241
1089.66	0.5969
1099.43	0.615
1109.19	0.6321
1118.95	0.5874
1128.72	0.5429
1138.48	0.4985
1148.25	0.4473
1158.01	0.4118
1167.77	0.3813
1177.54	0.4173
1187.3	0.4302
1197.06	0.5375
1206.83	0.558
1216.59	0.5843
1226.35	0.6415
1236.12	0.664
1245.88	0.6542
1255.64	0.6867
1265.41	0.733
1275.17	0.74
1284.94	0.6976
1294.7	0.7385
1304.46	0.731
1314.23	0.706
1323.99	0.6695
1333.75	0.5764
1343.52	0.6237
1353.28	0.6502
1363.04	0.5648
1372.81	0.4364
1382.57	0.5916
1392.33	0.4243
1402.1	0.2787
1411.86	0.4154
1421.62	0.63
1431.39	0.3929
1441.15	0.6359
1450.92	0.6043
1460.68	0.4533
1470.44	0.6093
1480.21	0.6793
1489.97	0.6954
1499.73	0.7441
1509.5	0.7848
1519.26	0.792
1529.02	0.795
1538.79	0.792
1548.55	0.7864
1558.31	0.7669
1568.08	0.7409
1577.84	0.7103
1587.6	0.6704
1597.37	0.6182
1607.13	0.5503
1616.9	0.5679
1626.66	0.548
1636.42	0.576
1646.19	0.617
1655.95	0.6016
1665.71	0.5602
1675.48	0.4747
1685.24	0.3856
1695	0.1956
1704.77	0.0444
1714.53	0.0628
1724.29	0.3607
1734.06	0.5812
1743.82	0.6651
1753.58	0.6747
1763.35	0.5549
1773.11	0.5713
1782.88	0.7595
1792.64	0.794
1802.4	0.8197
1812.17	0.8318
1821.93	0.8414
1831.69	0.845
1841.46	0.848
1851.22	0.8496
1860.98	0.8484
1870.75	0.8543
1880.51	0.8536
1890.27	0.8499
1900.04	0.846
1909.8	0.85
1919.56	0.8464
1929.33	0.844
1939.09	0.844
1948.86	0.8439
1958.62	0.8385
1968.38	0.839
1978.15	0.8377
1987.91	0.835
1997.67	0.834
2007.44	0.827
2017.2	0.8259
2026.96	0.822
2036.73	0.82
2046.49	0.8159
2056.25	0.811
2066.02	0.804
2075.78	0.801
2085.55	0.794
2095.31	0.789
2105.07	0.786
2114.84	0.7819
2124.6	0.7798
2134.36	0.7688
2144.13	0.764
2153.89	0.7649
2163.65	0.753
2173.42	0.75
2183.18	0.748
2192.94	0.7389
2202.71	0.732
2212.47	0.7288
2222.23	0.7189
2232	0.708
2241.76	0.702
2251.53	0.6977
2261.29	0.688
2271.05	0.685
2280.82	0.6757
2290.58	0.6668
2300.34	0.6599
2310.11	0.656
2319.87	0.6469
2329.63	0.637
2339.4	0.6328
2349.16	0.6259
2358.92	0.6229
2368.69	0.618
2378.45	0.613
2388.21	0.6089
2397.98	0.6048
2407.74	0.6009
2417.51	0.599
2427.27	0.597
2437.03	0.595
2446.8	0.596
2456.56	0.597
2466.32	0.6032
2476.09	0.606
2485.85	0.6029
2495.61	0.599
2505.38	0.599
2515.14	0.597
2524.9	0.597
2534.67	0.6
2544.43	0.6
2554.19	0.5938
2563.96	0.589
2573.72	0.5862
2583.49	0.5889
2593.25	0.583
2603.01	0.577
2612.78	0.5679
2622.54	0.5579
2632.3	0.546
2642.07	0.543
2651.83	0.54
2661.59	0.5379
2671.36	0.533
2681.12	0.532
2690.88	0.5289
2700.65	0.5279
2710.41	0.5219
2720.18	0.518
2729.94	0.518
2739.7	0.517
2749.47	0.513
2759.23	0.511
2768.99	0.511
2778.76	0.515
2788.52	0.517
2798.28	0.5231
2808.05	0.53
2817.81	0.532
2827.57	0.534
2837.34	0.5401
2847.1	0.5472
2856.86	0.5469
2866.63	0.5542
2876.39	0.5732
2886.16	0.579
2895.92	0.5768
2905.68	0.5628
2915.45	0.5398
2925.21	0.5166
2934.97	0.5072
2944.74	0.5203
2954.5	0.54
2964.26	0.5303
2974.03	0.5582
2983.79	0.566
2993.55	0.567
3003.32	0.567
3013.08	0.5661
3022.84	0.5772
3032.61	0.5901
3042.37	0.595
3052.14	0.6012
3061.9	0.6363
3071.66	0.6482
3081.43	0.6602
3091.19	0.6714
3100.95	0.691
3110.72	0.698
3120.48	0.703
3130.24	0.7131
3140.01	0.712
3149.77	0.7181
3159.53	0.7241
3169.3	0.733
3179.06	0.737
3188.82	0.7442
3198.59	0.7491
3208.35	0.749
3218.12	0.753
3227.88	0.759
3237.64	0.7631
3247.41	0.765
3257.17	0.7641
3266.93	0.764
3276.7	0.7651
3286.46	0.766
3296.22	0.766
3305.99	0.759
3315.75	0.7549
3325.51	0.7467
3335.28	0.7378
3345.04	0.727
3354.81	0.7189
3364.57	0.7049
3374.33	0.6919
3384.1	0.6859
3393.86	0.674
3403.62	0.669
3413.39	0.665
3423.15	0.662
3432.91	0.6599
3442.68	0.653
3452.44	0.6511
3462.2	0.6681
3471.97	0.6871
3481.73	0.6932
3491.49	0.7021
3501.26	0.7091
3511.02	0.7191
3520.79	0.7301
3530.55	0.7383
3540.31	0.7521
3550.08	0.7601
3559.84	0.7751
3569.6	0.791
3579.37	0.7972
3589.13	0.8101
3598.89	0.8251
3608.66	0.8382
3618.42	0.851
3628.18	0.8591
3637.95	0.8661
3647.71	0.873
3657.47	0.874
3667.24	0.8731
3677	0.876
3686.77	0.878
3696.53	0.8802
3706.29	0.88
3716.06	0.882
3725.82	0.883
3735.58	0.882
3745.35	0.883
3755.11	0.884
3764.87	0.8839
3774.64	0.883
3784.4	0.8802
3794.16	0.879
3803.93	0.88
