Infrared Spectrum: 4-Methoxy-.beta.-nitrostyrene
Formula: C9 H9 N O3
CAS: 3179-10-0
State: gas
Origin: EPA-IR VAPOR PHASE LIBRARY
1/CM	ABSORBANCE
549.8	0.019106
559.445	0.016416
569.09	0.009446
578.734	0.005376
588.379	0.002916
598.024	0.002306
607.669	0.001996
617.313	0.0012502
626.958	0.0012066
636.603	0.002226
646.248	0.001606
655.893	0.001396
665.537	0.0011743
675.182	0.001326
684.827	0.001576
694.472	0.002616
704.116	0.003536
713.761	0.007766
723.406	0.008616
733.051	0.003506
742.695	0.002406
752.34	0.002796
761.985	0.003976
771.63	0.007216
781.275	0.014036
790.919	0.011006
800.564	0.012056
810.209	0.021866
819.854	0.034706
829.498	0.033996
839.143	0.019856
848.788	0.008776
858.433	0.005666
868.078	0.005186
877.722	0.005596
887.367	0.004986
897.012	0.004526
906.657	0.005096
916.301	0.007196
925.946	0.010766
935.591	0.015076
945.236	0.022396
954.88	0.036416
964.525	0.043916
974.17	0.028446
983.815	0.011946
993.46	0.008106
1003.1	0.008216
1012.75	0.011386
1022.39	0.021666
1032.04	0.037656
1041.68	0.035926
1051.33	0.018566
1060.97	0.008986
1070.62	0.005886
1080.26	0.004206
1089.91	0.004406
1099.55	0.005696
1109.2	0.007856
1118.84	0.007446
1128.49	0.005136
1138.13	0.004676
1147.78	0.005896
1157.42	0.011556
1167.07	0.066126
1176.71	0.109076
1186.36	0.025286
1196	0.014506
1205.64	0.012976
1215.29	0.014316
1224.93	0.022186
1234.58	0.048276
1244.22	0.130516
1253.87	0.187466
1263.51	0.131176
1273.16	0.061136
1282.8	0.061666
1292.45	0.079836
1302.09	0.072246
1311.74	0.044776
1321.38	0.039456
1331.03	0.059636
1340.67	0.124836
1350.32	0.156166
1359.96	0.060356
1369.61	0.025296
1379.25	0.016526
1388.9	0.010626
1398.54	0.008046
1408.18	0.009906
1417.83	0.018596
1427.47	0.018236
1437.12	0.015036
1446.76	0.019966
1456.41	0.019186
1466.05	0.025396
1475.7	0.023786
1485.34	0.022066
1494.99	0.035646
1504.63	0.093066
1514.28	0.157006
1523.92	0.089746
1533.57	0.103286
1543.21	0.113316
1552.86	0.079636
1562.5	0.046786
1572.15	0.040166
1581.79	0.037476
1591.44	0.050046
1601.08	0.102046
1610.73	0.099006
1620.37	0.039406
1630.01	0.036066
1639.66	0.047076
1649.3	0.027436
1658.95	0.011686
1668.59	0.007626
1678.24	0.006146
1687.88	0.004856
1697.53	0.003456
1707.17	0.002656
1716.82	0.002406
1726.46	0.002426
1736.11	0.002276
1745.75	0.002426
1755.4	0.002626
1765.04	0.002006
1774.69	0.001886
1784.33	0.002046
1793.98	0.002066
1803.62	0.001846
1813.27	0.001716
1822.91	0.001536
1832.55	0.001536
1842.2	0.001666
1851.84	0.002116
1861.49	0.002466
1871.13	0.002786
1880.78	0.002876
1890.42	0.002856
1900.07	0.002416
1909.71	0.002266
1919.36	0.002126
1929	0.002016
1938.65	0.001736
1948.29	0.001806
1957.94	0.001976
1967.58	0.001906
1977.23	0.001966
1986.87	0.001746
1996.52	0.001526
2006.16	0.001636
2015.81	0.002266
2025.45	0.002916
2035.1	0.003346
2044.74	0.003286
2054.38	0.003096
2064.03	0.003116
2073.67	0.002786
2083.32	0.001996
2092.96	0.001296
2102.61	0.0011594
2112.25	0.0010794
2121.9	0.0009411
2131.54	0.0008407
2141.19	0.0007402
2150.83	0.0005754
2160.48	0.000625
2170.12	0.0004903
2179.77	0.0004492
2189.41	0.0005448
2199.06	0.0006205
2208.7	0.0007266
2218.35	0.0008522
2227.99	0.0010288
2237.64	0.000852
2247.28	0.000785
2256.92	0.0009173
2266.57	0.0011219
2276.21	0.001416
2285.86	0.001916
2295.5	0.002146
2305.15	0.001956
2314.79	0.001506
2324.44	0.0011827
2334.08	0.0009369
2343.73	0.0009322
2353.37	0.0008673
2363.02	0.0008041
2372.66	0.0007563
2382.31	0.0010229
2391.95	0.0009323
2401.6	0.0008084
2411.24	0.0008847
2420.89	0.0011014
2430.53	0.0012568
2440.18	0.001306
2449.82	0.001286
2459.47	0.001386
2469.11	0.001706
2478.75	0.001576
2488.4	0.001746
2498.04	0.001896
2507.69	0.001976
2517.33	0.002216
2526.98	0.002276
2536.62	0.002456
2546.27	0.003276
2555.91	0.003266
2565.56	0.002756
2575.2	0.002096
2584.85	0.002046
2594.49	0.002076
2604.14	0.001886
2613.78	0.001596
2623.43	0.0011808
2633.07	0.0011336
2642.72	0.0010616
2652.36	0.0010094
2662.01	0.0007165
2671.65	0.0006546
2681.29	0.0006517
2690.94	0.0007235
2700.58	0.0007871
2710.23	0.0006511
2719.87	0.000685
2729.52	0.0006708
2739.16	0.0007895
2748.81	0.0010335
2758.45	0.0011995
2768.1	0.001506
2777.74	0.001786
2787.39	0.001796
2797.03	0.001836
2806.68	0.002446
2816.32	0.003356
2825.97	0.004626
2835.61	0.007766
2845.26	0.015976
2854.9	0.014366
2864.55	0.008436
2874.19	0.006916
2883.84	0.006826
2893.48	0.007166
2903.12	0.008896
2912.77	0.011726
2922.41	0.012316
2932.06	0.012606
2941.7	0.018256
2951.35	0.020226
2960.99	0.017826
2970.64	0.014636
2980.28	0.010766
2989.93	0.009006
2999.57	0.009966
3009.22	0.016526
3018.86	0.016506
3028.51	0.008336
3038.15	0.010346
3047.8	0.010126
3057.44	0.006856
3067.09	0.005106
3076.73	0.006256
3086.38	0.005856
3096.02	0.005516
3105.67	0.007036
3115.31	0.009476
3124.95	0.004126
3134.6	0.002166
3144.24	0.001926
3153.89	0.0012389
3163.53	0.0010005
3173.18	0.0009714
3182.82	0.0009637
3192.47	0.0010436
3202.11	0.0009471
3211.76	0.0008508
3221.4	0.0008445
3231.05	0.0007948
3240.69	0.00041
3250.34	0.00034219
3259.98	0.00037164
3269.63	0.00034193
3279.27	0.0001944
3288.92	0.0004448
3298.56	0.000257
3308.21	0.0003037
3317.85	3.9e-05
3327.49	0.000178
3337.14	8.2e-05
3346.78	0.0001777
3356.43	0.0002016
3366.07	0.0002526
3375.72	0.000174
3385.36	0.00012
3395.01	0.000162
3404.65	0.0002193
3414.3	4.4e-05
3423.94	0.000278841
3433.59	0.0001823
3443.23	0.000109
3452.88	0.000199
3462.52	0.000134
3472.17	7.1e-05
3481.81	0.0001894
3491.46	0.000165
3501.1	0.0002592
3510.75	0.00031034
3520.39	9.5e-05
3530.04	0.000166
3539.68	0.0004226
3549.32	0.000241
3558.97	0.000175
3568.61	0.0002109
3578.26	9.8e-05
3587.9	0.0002373
3597.55	0.0002489
3607.19	8.2e-05
3616.84	0.000159
3626.48	0.00026687
3636.13	0.0001842
3645.77	0.00032559
3655.42	0.00032636
3665.06	0.000225
3674.71	0.00035167
3684.35	0.0004098
3694	0.00031552
3703.64	0.00035118
3713.29	0.0002409
3722.93	7e-05
3732.58	0.00011
3742.22	0.00030732
3751.86	0.0003294
3761.51	0.000162
3771.15	0.000171
3780.8	0.00034591
3790.44	7.3e-05
3800.09	0.0002072
3809.73	0.0004319
3819.38	0.00034414
3829.02	0.00032997
3838.67	5.3e-05
3848.31	0.0002232
3857.96	4.5e-05
3867.6	0.00029572
3877.25	0.00035269
3886.89	0.000415
3896.54	0.0004226
3906.18	0.0002145
3915.83	0.0001977
3925.47	0.00032802
3935.12	0.000136
3944.76	0.000281043
3954.41	0.00028602
3964.05	0.0003888
3973.69	0.00034815
3983.34	0.0005258
3992.98	0.00034154
