Infrared Spectrum: 3-Methoxy-.beta.-nitrostyrene
Formula: C 9 H 9 N O 2
CAS: 3179-09-7
State: gas
Origin: EPA-IR VAPOR PHASE LIBRARY
1/CM	ABSORBANCE
549.8	0.002027
559.445	0.003247
569.09	0.003927
578.734	0.005477
588.379	0.013067
598.024	0.016427
607.669	0.007467
617.313	0.002637
626.958	0.001917
636.603	0.001827
646.248	0.002467
655.893	0.002917
665.537	0.006457
675.182	0.013177
684.827	0.015067
694.472	0.011587
704.116	0.012327
713.761	0.029237
723.406	0.032257
733.051	0.008917
742.695	0.004457
752.34	0.004657
761.985	0.008537
771.63	0.019777
781.275	0.029587
790.919	0.020737
800.564	0.008747
810.209	0.005137
819.854	0.005867
829.498	0.012047
839.143	0.016597
848.788	0.011797
858.433	0.008187
868.078	0.008027
877.722	0.008267
887.367	0.007327
897.012	0.005417
906.657	0.005217
916.301	0.006677
925.946	0.010327
935.591	0.017067
945.236	0.028497
954.88	0.041877
964.525	0.043327
974.17	0.026017
983.815	0.012157
993.46	0.009247
1003.1	0.007597
1012.75	0.008087
1022.39	0.012767
1032.04	0.024597
1041.68	0.038667
1051.33	0.043467
1060.97	0.026827
1070.62	0.010397
1080.26	0.008797
1089.91	0.007567
1099.55	0.005367
1109.2	0.004137
1118.84	0.004287
1128.49	0.005267
1138.13	0.008077
1147.78	0.020407
1157.42	0.034477
1167.07	0.028247
1176.71	0.017327
1186.36	0.013317
1196	0.012927
1205.64	0.020047
1215.29	0.039937
1224.93	0.052367
1234.58	0.046817
1244.22	0.025947
1253.87	0.031397
1263.51	0.080657
1273.16	0.109027
1282.8	0.080627
1292.45	0.080227
1302.09	0.067417
1311.74	0.054997
1321.38	0.044707
1331.03	0.052597
1340.67	0.098797
1350.32	0.180587
1359.96	0.104877
1369.61	0.026737
1379.25	0.013797
1388.9	0.010897
1398.54	0.010377
1408.18	0.013197
1417.83	0.020547
1427.47	0.037307
1437.12	0.042247
1446.76	0.027877
1456.41	0.029237
1466.05	0.036677
1475.7	0.043597
1485.34	0.057967
1494.99	0.051057
1504.63	0.034877
1514.28	0.040717
1523.92	0.055967
1533.57	0.100637
1543.21	0.130167
1552.86	0.095287
1562.5	0.072757
1572.15	0.086247
1581.79	0.094337
1591.44	0.084697
1601.08	0.071047
1610.73	0.043757
1620.37	0.022027
1630.01	0.020327
1639.66	0.032737
1649.3	0.027427
1658.95	0.011757
1668.59	0.008717
1678.24	0.006787
1687.88	0.005007
1697.53	0.003867
1707.17	0.003337
1716.82	0.003427
1726.46	0.003137
1736.11	0.003067
1745.75	0.003077
1755.4	0.002797
1765.04	0.002427
1774.69	0.002507
1784.33	0.002477
1793.98	0.002367
1803.62	0.002087
1813.27	0.001827
1822.91	0.001947
1832.55	0.002167
1842.2	0.002367
1851.84	0.002537
1861.49	0.002237
1871.13	0.001977
1880.78	0.001977
1890.42	0.002027
1900.07	0.002157
1909.71	0.002707
1919.36	0.003307
1929	0.003417
1938.65	0.002877
1948.29	0.002187
1957.94	0.001707
1967.58	0.001707
1977.23	0.001877
1986.87	0.002057
1996.52	0.001987
2006.16	0.001847
2015.81	0.001707
2025.45	0.001657
2035.1	0.001707
2044.74	0.001617
2054.38	0.001877
2064.03	0.002067
2073.67	0.002277
2083.32	0.002187
2092.96	0.002087
2102.61	0.001787
2112.25	0.001527
2121.9	0.0012722
2131.54	0.0011469
2141.19	0.0010707
2150.83	0.0011619
2160.48	0.0011751
2170.12	0.0012106
2179.77	0.0010723
2189.41	0.0011391
2199.06	0.0012685
2208.7	0.0013485
2218.35	0.0012799
2227.99	0.0011118
2237.64	0.0011236
2247.28	0.0010229
2256.92	0.0010392
2266.57	0.0011562
2276.21	0.001204
2285.86	0.0014345
2295.5	0.001537
2305.15	0.001697
2314.79	0.001787
2324.44	0.001667
2334.08	0.0014273
2343.73	0.0012317
2353.37	0.0010903
2363.02	0.0011841
2372.66	0.0010866
2382.31	0.0010621
2391.95	0.0011151
2401.6	0.0009908
2411.24	0.000934
2420.89	0.0009644
2430.53	0.0011182
2440.18	0.0012285
2449.82	0.0013142
2459.47	0.0013738
2469.11	0.0013156
2478.75	0.0014677
2488.4	0.001547
2498.04	0.001737
2507.69	0.001807
2517.33	0.001807
2526.98	0.001607
2536.62	0.001617
2546.27	0.001687
2555.91	0.001747
2565.56	0.001867
2575.2	0.001987
2584.85	0.002147
2594.49	0.002037
2604.14	0.001937
2613.78	0.001817
2623.43	0.001577
2633.07	0.0013265
2642.72	0.0011805
2652.36	0.0011269
2662.01	0.0010727
2671.65	0.0009617
2681.29	0.0012418
2690.94	0.001409
2700.58	0.0012964
2710.23	0.0011002
2719.87	0.0011713
2729.52	0.0010999
2739.16	0.0011878
2748.81	0.0012712
2758.45	0.0013171
2768.1	0.0014562
2777.74	0.001537
2787.39	0.001777
2797.03	0.002257
2806.68	0.002737
2816.32	0.003427
2825.97	0.005097
2835.61	0.009277
2845.26	0.015407
2854.9	0.012907
2864.55	0.009237
2874.19	0.009007
2883.84	0.009367
2893.48	0.009387
2903.12	0.009977
2912.77	0.011977
2922.41	0.013537
2932.06	0.013947
2941.7	0.019547
2951.35	0.024117
2960.99	0.019917
2970.64	0.014827
2980.28	0.010397
2989.93	0.009327
2999.57	0.012027
3009.22	0.018957
3018.86	0.016177
3028.51	0.008877
3038.15	0.007707
3047.8	0.007917
3057.44	0.009047
3067.09	0.011307
3076.73	0.012477
3086.38	0.009777
3096.02	0.006667
3105.67	0.007347
3115.31	0.008517
3124.95	0.004287
3134.6	0.001937
3144.24	0.001487
3153.89	0.0012033
3163.53	0.0011454
3173.18	0.0011423
3182.82	0.0010463
3192.47	0.0009051
3202.11	0.0006663
3211.76	0.0006905
3221.4	0.0006775
3231.05	0.00055753
3240.69	0.0007548
3250.34	0.0004268
3259.98	0.00056296
3269.63	0.000357
3279.27	0.0005952
3288.92	0.00031
3298.56	0.000381
3308.21	0.0004661
3317.85	0.000381
3327.49	0.000385
3337.14	0.0004105
3346.78	0.000367
3356.43	0.00048511
3366.07	0.0003966
3375.72	0.000486605
3385.36	0.000227
3395.01	0.000315
3404.65	0.000228
3414.3	0.000257
3423.94	0.000312
3433.59	0.00053533
3443.23	0.000177
3452.88	0.000222
3462.52	0.000139
3472.17	0.0004226
3481.81	0.000329
3491.46	0.000271
3501.1	0.000246
3510.75	0.000167
3520.39	0.000281
3530.04	0
3539.68	0.000144
3549.32	6.2e-05
3558.97	0.000307
3568.61	0.0004107
3578.26	0.000283
3587.9	0.000116
3597.55	0.000218
3607.19	0.000206
3616.84	0.000325
3626.48	0.000323
3636.13	0.000369
3645.77	0.0004691
3655.42	0.00048389
3665.06	0.000344
3674.71	0.000209
3684.35	0.00049709
3694	0.000243
3703.64	0.00051234
3713.29	0.000343
3722.93	0.0003984
3732.58	0.00028
3742.22	0.000232
3751.86	0.000277
3761.51	0.000296
3771.15	0.000495966
3780.8	0.0004468
3790.44	0.000386
3800.09	0.000377
3809.73	0.000295
3819.38	0.0004699
3829.02	0.0004231
3838.67	0.000352
3848.31	0.0004599
3857.96	0.0004604
3867.6	0.00036
3877.25	0.0003964
3886.89	0.0004512
3896.54	0.0006872
3906.18	0.00048475
3915.83	0.0004584
3925.47	0.00055614
3935.12	0.000416
3944.76	0.0004241
3954.41	0.000486976
3964.05	0.0004482
3973.69	0.000322
3983.34	0.00055105
3992.98	0.00053514
