Infrared Spectrum: 4-PYRIDINAMINE, 3,5-DINITRO
Formula: C5 H4 N4 O4
CAS: 31793-29-0
State: SOLID (SPLIT MULL, FLUOROLUBE FOR 3800-1340 AND NUJOL FOR 1340-480 CM ^-^1)
Class: COBLENTZ III
Instrument: DOW KBr FOREPRISM-GRATING
Instrument parameters: BLAZED AT 3.5, 12.0, 20.0 MICRON, CHANGED AT 5.0, 7.5, 14.9 MICRON
Sampling: TRANSMISSION
Resolution: 4
Origin: DOW CHEMICAL COMPANY
1/CM	TRANSMITTANCE
468.495	0.878
477.246	0.867
485.998	0.916
494.749	0.952
503.501	0.96
512.252	0.96
521.004	0.961
529.755	0.957
538.507	0.953
547.258	0.942
556.009	0.92
564.761	0.874
573.512	0.599
582.264	0.865
591.015	0.709
599.767	0.645
608.518	0.792
617.27	0.803
626.021	0.707
634.772	0.675
643.524	0.775
652.275	0.934
661.027	0.963
669.778	0.972
678.53	0.972
687.281	0.967
696.033	0.941
704.784	0.907
713.535	0.863
722.287	0.797
731.038	0.679
739.79	0.78
748.541	0.821
757.293	0.931
766.044	0.768
774.796	0.848
783.547	1
792.298	0.994
801.05	0.991
809.801	0.994
818.553	0.983
827.304	0.95
836.056	0.941
844.807	0.967
853.559	0.963
862.31	0.914
871.061	0.513
879.813	0.851
888.564	0.891
897.316	0.606
906.067	0.876
914.819	0.991
923.57	0.994
932.322	0.991
941.073	0.967
949.825	0.944
958.576	0.98
967.327	0.978
976.079	0.976
984.83	0.978
993.582	0.942
1002.33	0.976
1011.08	0.968
1019.84	0.953
1028.59	0.916
1037.34	0.896
1046.09	0.824
1054.84	0.798
1063.59	0.915
1072.34	0.941
1081.1	0.963
1089.85	0.959
1098.6	0.944
1107.35	0.91
1116.1	0.707
1124.85	0.433
1133.6	0.889
1142.36	0.94
1151.11	0.901
1159.86	0.833
1168.61	0.801
1177.36	0.681
1186.11	0.403
1194.86	0.831
1203.62	0.81
1212.37	0.762
1221.12	0.647
1229.87	0.414
1238.62	0.354
1247.37	0.339
1256.13	0.411
1264.88	0.427
1273.63	0.426
1282.38	0.182
1291.13	0.316
1299.88	0.37
1308.63	0.333
1317.39	0.6
1326.14	0.673
1334.89	0.761
1343.64	0.741
1352.39	0.629
1361.14	0.38
1369.89	0.591
1378.65	0.799
1387.4	0.841
1396.15	0.832
1404.9	0.82
1413.65	0.715
1422.4	0.85
1431.15	0.84
1439.91	0.798
1448.66	0.724
1457.41	0.712
1466.16	0.739
1474.91	0.757
1483.66	0.775
1492.41	0.757
1501.17	0.705
1509.92	0.538
1518.67	0.211
1527.42	0.123
1536.17	0.144
1544.92	0.644
1553.67	0.85
1562.43	0.835
1571.18	0.802
1579.93	0.741
1588.68	0.651
1597.43	0.618
1606.18	0.426
1614.93	0.13
1623.69	0.036
1632.44	0.081
1641.19	0.138
1649.94	0.539
1658.69	0.803
1667.44	0.882
1676.19	0.93
1684.95	0.957
1693.7	0.967
1702.45	0.971
1711.2	0.967
1719.95	0.976
1728.7	0.983
1737.45	0.985
1746.21	0.986
1754.96	0.986
1763.71	0.986
1772.46	0.982
1781.21	0.979
1789.96	0.976
1798.71	0.98
1807.47	0.989
1816.22	0.989
1824.97	0.989
1833.72	0.989
1842.47	0.985
1851.22	0.983
1859.97	0.983
1868.73	0.983
1877.48	0.978
1886.23	0.98
1894.98	0.985
1903.73	0.983
1912.48	0.985
1921.23	0.982
1929.99	0.975
1938.74	0.971
1947.49	0.976
1956.24	0.982
1964.99	0.983
1973.74	0.979
1982.5	0.975
1991.25	0.971
2000	0.95
2008.75	0.945
2017.5	0.938
2026.25	0.935
2035	0.933
2043.76	0.93
2052.51	0.929
2061.26	0.925
2070.01	0.9231
2078.76	0.916
2087.51	0.918
2096.26	0.9151
2105.02	0.912
2113.77	0.91
2122.52	0.9051
2131.27	0.905
2140.02	0.904
2148.77	0.904
2157.52	0.9031
2166.28	0.9001
2175.03	0.8972
2183.78	0.8921
2192.53	0.892
2201.28	0.8911
2210.03	0.891
2218.78	0.888
2227.54	0.885
2236.29	0.8801
2245.04	0.877
2253.79	0.877
2262.54	0.8743
2271.29	0.8713
2280.04	0.87
2288.8	0.869
2297.55	0.867
2306.3	0.8652
2315.05	0.8633
2323.8	0.862
2332.55	0.862
2341.3	0.862
2350.06	0.862
2358.81	0.862
2367.56	0.862
2376.31	0.862
2385.06	0.8628
2393.81	0.863
2402.56	0.862
2411.32	0.8564
2420.07	0.855
2428.82	0.856
2437.57	0.859
2446.32	0.861
2455.07	0.861
2463.82	0.855
2472.58	0.855
2481.33	0.8525
2490.08	0.8573
2498.83	0.8605
2507.58	0.861
2516.33	0.861
2525.08	0.859
2533.84	0.859
2542.59	0.858
2551.34	0.858
2560.09	0.858
2568.84	0.8553
2577.59	0.851
2586.34	0.8473
2595.1	0.844
2603.85	0.846
2612.6	0.848
2621.35	0.8494
2630.1	0.8473
2638.85	0.8446
2647.6	0.844
2656.36	0.844
2665.11	0.841
2673.86	0.84
2682.61	0.839
2691.36	0.836
2700.11	0.8324
2708.87	0.831
2717.62	0.829
2726.37	0.8316
2735.12	0.832
2743.87	0.831
2752.62	0.8254
2761.37	0.8228
2770.13	0.822
2778.88	0.8232
2787.63	0.8256
2796.38	0.825
2805.13	0.821
2813.88	0.8188
2822.63	0.8134
2831.39	0.813
2840.14	0.8104
2848.89	0.8064
2857.64	0.7993
2866.39	0.792
2875.14	0.7809
2883.89	0.7826
2892.65	0.7911
2901.4	0.795
2910.15	0.7929
2918.9	0.7854
2927.65	0.776
2936.4	0.776
2945.15	0.776
2953.91	0.78
2962.66	0.78
2971.41	0.779
2980.16	0.7775
2988.91	0.777
2997.66	0.776
3006.41	0.773
3015.17	0.7685
3023.92	0.7565
3032.67	0.7436
3041.42	0.7385
3050.17	0.734
3058.92	0.7286
3067.67	0.7152
3076.43	0.6962
3085.18	0.6475
3093.93	0.6788
3102.68	0.7018
3111.43	0.7027
3120.18	0.6957
3128.93	0.6833
3137.69	0.6657
3146.44	0.6436
3155.19	0.6071
3163.94	0.5709
3172.69	0.5562
3181.44	0.5614
3190.19	0.5678
3198.95	0.5534
3207.7	0.5209
3216.45	0.4988
3225.2	0.486
3233.95	0.4769
3242.7	0.4534
3251.45	0.4249
3260.21	0.415
3268.96	0.4127
3277.71	0.4184
3286.46	0.4337
3295.21	0.4654
3303.96	0.5105
3312.71	0.597
3321.47	0.6307
3330.22	0.676
3338.97	0.694
3347.72	0.709
3356.47	0.716
3365.22	0.716
3373.97	0.7108
3382.73	0.6948
3391.48	0.645
3400.23	0.5473
3408.98	0.4299
3417.73	0.5855
3426.48	0.57
3435.24	0.448
3443.99	0.6017
3452.74	0.7851
3461.49	0.8001
3470.24	0.8075
3478.99	0.8115
3487.74	0.813
3496.5	0.813
3505.25	0.813
3514	0.811
3522.75	0.811
3531.5	0.8108
3540.25	0.806
3549	0.805
3557.76	0.805
3566.51	0.806
3575.26	0.802
3584.01	0.802
3592.76	0.802
3601.51	0.799
3610.26	0.798
3619.02	0.795
3627.77	0.7935
3636.52	0.79
3645.27	0.79
3654.02	0.7868
3662.77	0.787
3671.52	0.786
3680.28	0.783
3689.03	0.7795
3697.78	0.7761
3706.53	0.777
3715.28	0.775
3724.03	0.775
3732.78	0.775
3741.54	0.776
3750.29	0.7708
3759.04	0.7668
3767.79	0.764
3776.54	0.762
3785.29	0.761
3794.04	0.7598
