Infrared Spectrum: 1,3-Bis(methylthio)-2-propanol
Formula: C 5 H 12 O S 2
CAS: 31805-83-1
State: gas
Origin: EPA-IR VAPOR PHASE LIBRARY
1/CM	ABSORBANCE
549.8	0.00518
559.445	0.00388
569.09	0.0042
578.734	0.00355
588.379	0.0025
598.024	0.00213
607.669	0.00249
617.313	0.0014
626.958	0.00187
636.603	0.00181
646.248	0.00208
655.893	0.00248
665.537	0.00332
675.182	0.00462
684.827	0.0049
694.472	0.00501
704.116	0.0051
713.761	0.00482
723.406	0.00399
733.051	0.00424
742.695	0.0046
752.34	0.00604
761.985	0.00892
771.63	0.01006
781.275	0.00742
790.919	0.0052
800.564	0.00545
810.209	0.00727
819.854	0.00836
829.498	0.00821
839.143	0.00748
848.788	0.00569
858.433	0.00412
868.078	0.00356
877.722	0.00291
887.367	0.00291
897.012	0.00347
906.657	0.00466
916.301	0.00518
925.946	0.00589
935.591	0.00693
945.236	0.00838
954.88	0.01087
964.525	0.0127
974.17	0.01215
983.815	0.01243
993.46	0.0137
1003.1	0.01939
1012.75	0.03017
1022.39	0.04566
1032.04	0.05547
1041.68	0.0559
1051.33	0.0514
1060.97	0.04548
1070.62	0.03758
1080.26	0.02704
1089.91	0.01712
1099.55	0.01195
1109.2	0.00836
1118.84	0.00979
1128.49	0.01245
1138.13	0.0134
1147.78	0.01282
1157.42	0.01273
1167.07	0.01271
1176.71	0.01291
1186.36	0.01399
1196	0.01507
1205.64	0.01666
1215.29	0.02175
1224.93	0.02335
1234.58	0.02569
1244.22	0.02722
1253.87	0.02749
1263.51	0.0294
1273.16	0.03181
1282.8	0.02891
1292.45	0.02269
1302.09	0.01746
1311.74	0.01636
1321.38	0.01868
1331.03	0.01801
1340.67	0.01668
1350.32	0.01908
1359.96	0.02135
1369.61	0.02446
1379.25	0.02609
1388.9	0.02326
1398.54	0.02169
1408.18	0.02725
1417.83	0.03425
1427.47	0.03703
1437.12	0.03603
1446.76	0.02815
1456.41	0.0162
1466.05	0.0087
1475.7	0.00603
1485.34	0.00478
1494.99	0.0041
1504.63	0.00355
1514.28	0.00315
1523.92	0.00295
1533.57	0.00295
1543.21	0.00281
1552.86	0.00278
1562.5	0.00267
1572.15	0.00252
1581.79	0.0023
1591.44	0.0021
1601.08	0.00188
1610.73	0.00152
1620.37	0.00126
1630.01	0.00123
1639.66	0.0011
1649.3	0.0009987
1658.95	0.0008491
1668.59	0.0007831
1678.24	0.0005996
1687.88	0.00048
1697.53	0.0004856
1707.17	0.0003939
1716.82	0.0005174
1726.46	0.0003763
1736.11	0.0003499
1745.75	0.0003465
1755.4	0.0002369
1765.04	0.000199
1774.69	0.0002019
1784.33	0.0004866
1793.98	8.051e-05
1803.62	8.594e-05
1813.27	0.0002377
1822.91	0.0001293
1832.55	7.275e-05
1842.2	0.0001816
1851.84	0.0001858
1861.49	0.0003123
1871.13	0.0003241
1880.78	0.0003286
1890.42	0.0003219
1900.07	0.000278
1909.71	0.0002526
1919.36	0.0003923
1929	0.0004022
1938.65	0.0003207
1948.29	0.0004198
1957.94	0.0003062
1967.58	0.0004801
1977.23	0.0003622
1986.87	0.0004895
1996.52	0.000412
2006.16	0.0005742
2015.81	0.0006889
2025.45	0.0006408
2035.1	0.0008122
2044.74	0.0008146
2054.38	0.0005629
2064.03	0.0007007
2073.67	0.0006137
2083.32	0.0005518
2092.96	0.0005687
2102.61	0.000427
2112.25	0.0003686
2121.9	0.0004551
2131.54	0.0003812
2141.19	0.0004966
2150.83	0.0006817
2160.48	0.0004487
2170.12	0.0005858
2179.77	0.0006274
2189.41	0.0005358
2199.06	0.0007233
2208.7	0.0006842
2218.35	0.0008277
2227.99	0.0008001
2237.64	0.0007416
2247.28	0.0007386
2256.92	0.000829
2266.57	0.000835
2276.21	0.00105
2285.86	0.0008473
2295.5	0.000664
2305.15	0.000664
2314.79	0.0006537
2324.44	0.0006796
2334.08	0.0007275
2343.73	0.0006989
2353.37	0.0007071
2363.02	0.000717
2372.66	0.0008251
2382.31	0.0009765
2391.95	0.001
2401.6	0.0009347
2411.24	0.00103
2420.89	0.0008791
2430.53	0.0007897
2440.18	0.0008175
2449.82	0.0006787
2459.47	0.0006178
2469.11	0.0005252
2478.75	0.0007194
2488.4	0.0006066
2498.04	0.0006231
2507.69	0.0005006
2517.33	0.0005018
2526.98	0.0006498
2536.62	0.0005409
2546.27	0.0005632
2555.91	0.0007833
2565.56	0.0005629
2575.2	0.0006122
2584.85	0.0007505
2594.49	0.0008508
2604.14	0.0009749
2613.78	0.0008895
2623.43	0.00111
2633.07	0.00142
2642.72	0.00178
2652.36	0.00161
2662.01	0.00191
2671.65	0.00181
2681.29	0.00165
2690.94	0.00157
2700.58	0.00139
2710.23	0.00145
2719.87	0.0014
2729.52	0.00159
2739.16	0.00159
2748.81	0.00195
2758.45	0.00217
2768.1	0.0022
2777.74	0.00255
2787.39	0.00301
2797.03	0.00397
2806.68	0.00501
2816.32	0.00672
2825.97	0.00933
2835.61	0.01352
2845.26	0.01973
2854.9	0.02274
2864.55	0.02213
2874.19	0.02339
2883.84	0.02533
2893.48	0.02639
2903.12	0.0352
2912.77	0.05891
2922.41	0.09573
2932.06	0.09786
2941.7	0.06079
2951.35	0.04232
2960.99	0.03882
2970.64	0.03154
2980.28	0.0271
2989.93	0.02797
2999.57	0.02334
3009.22	0.01409
3018.86	0.00822
3028.51	0.00573
3038.15	0.00427
3047.8	0.00365
3057.44	0.00342
3067.09	0.003
3076.73	0.0031
3086.38	0.0033
3096.02	0.00339
3105.67	0.0033
3115.31	0.00297
3124.95	0.00285
3134.6	0.00263
3144.24	0.00233
3153.89	0.00214
3163.53	0.00179
3173.18	0.00149
3182.82	0.0009698
3192.47	0.00131
3202.11	0.00107
3211.76	0.0008429
3221.4	0.00116
3231.05	0.0009268
3240.69	0.00111
3250.34	0.00124
3259.98	0.00125
3269.63	0.00105
3279.27	0.0007764
3288.92	0.00105
3298.56	0.0009221
3308.21	0.0008309
3317.85	0.00106
3327.49	0.0009804
3337.14	0.00133
3346.78	0.00136
3356.43	0.00118
3366.07	0.0009975
3375.72	0.0007877
3385.36	0.00107
3395.01	0.00115
3404.65	0.00131
3414.3	0.00158
3423.94	0.00147
3433.59	0.00166
3443.23	0.00206
3452.88	0.00252
3462.52	0.0028
3472.17	0.00373
3481.81	0.00475
3491.46	0.0063
3501.1	0.00761
3510.75	0.00731
3520.39	0.0077
3530.04	0.0097
3539.68	0.01398
3549.32	0.01625
3558.97	0.01556
3568.61	0.01356
3578.26	0.01266
3587.9	0.0109
3597.55	0.00945
3607.19	0.00758
3616.84	0.00692
3626.48	0.00648
3636.13	0.00641
3645.77	0.00565
3655.42	0.00455
3665.06	0.00344
3674.71	0.00218
3684.35	0.00153
3694	0.00135
3703.64	0.0008984
3713.29	0.0009346
3722.93	0.00122
3732.58	0.0007743
3742.22	0.0008497
3751.86	0.0009232
3761.51	0.0007598
3771.15	0.0009183
3780.8	0.0007097
3790.44	0.0007256
3800.09	0.0008143
3809.73	0.0008439
3819.38	0.0006781
3829.02	0.0007866
3838.67	0.0007086
3848.31	0.0006275
3857.96	0.0007743
3867.6	0.0009398
3877.25	0.00109
3886.89	0.0008732
3896.54	0.00108
3906.18	0.0009139
3915.83	0.0009202
3925.47	0.00128
3935.12	0.0006213
3944.76	0.00109
3954.41	0.00108
3964.05	0.0008782
3973.69	0.0008752
3983.34	0.00118
3992.98	0.0005302
