Infrared Spectrum: 1,3-Bis(methylthio)-2-methoxypropane
Formula: C 6 H 14 O S 2
CAS: 31805-84-2
State: gas
Origin: EPA-IR VAPOR PHASE LIBRARY
1/CM	ABSORBANCE
549.8	0.0007364
559.445	0.0001998
569.09	0.001444
578.734	0.001344
588.379	0.0009136
598.024	0.0008686
607.669	0.0003721
617.313	0
626.958	0.0004945
636.603	0.000915
646.248	0.0008321
655.893	0.0009641
665.537	0.001304
675.182	0.001464
684.827	0.002554
694.472	0.003064
704.116	0.003094
713.761	0.002634
723.406	0.002474
733.051	0.002064
742.695	0.002294
752.34	0.003764
761.985	0.006394
771.63	0.007234
781.275	0.005534
790.919	0.004874
800.564	0.004294
810.209	0.003314
819.854	0.003544
829.498	0.004344
839.143	0.003954
848.788	0.003334
858.433	0.002434
868.078	0.002164
877.722	0.001914
887.367	0.002224
897.012	0.002224
906.657	0.003064
916.301	0.004224
925.946	0.005864
935.591	0.007614
945.236	0.010334
954.88	0.012584
964.525	0.013114
974.17	0.011774
983.815	0.012134
993.46	0.013674
1003.1	0.015314
1012.75	0.014494
1022.39	0.012464
1032.04	0.011804
1041.68	0.012894
1051.33	0.015234
1060.97	0.022134
1070.62	0.032034
1080.26	0.051894
1089.91	0.086964
1099.55	0.126214
1109.2	0.117714
1118.84	0.069184
1128.49	0.040264
1138.13	0.029714
1147.78	0.022994
1157.42	0.020214
1167.07	0.019194
1176.71	0.022944
1186.36	0.024014
1196	0.023834
1205.64	0.022284
1215.29	0.020004
1224.93	0.017274
1234.58	0.015634
1244.22	0.013244
1253.87	0.013734
1263.51	0.012134
1273.16	0.009284
1282.8	0.007344
1292.45	0.006554
1302.09	0.007564
1311.74	0.011454
1321.38	0.016234
1331.03	0.017854
1340.67	0.020644
1350.32	0.019994
1359.96	0.014324
1369.61	0.008794
1379.25	0.006424
1388.9	0.007084
1398.54	0.010684
1408.18	0.017364
1417.83	0.024094
1427.47	0.029384
1437.12	0.031074
1446.76	0.027624
1456.41	0.019034
1466.05	0.012964
1475.7	0.009384
1485.34	0.006714
1494.99	0.005184
1504.63	0.004164
1514.28	0.003694
1523.92	0.003514
1533.57	0.003314
1543.21	0.003294
1552.86	0.003054
1562.5	0.003004
1572.15	0.002944
1581.79	0.002744
1591.44	0.002474
1601.08	0.002274
1610.73	0.001924
1620.37	0.001644
1630.01	0.001444
1639.66	0.001284
1649.3	0.001294
1658.95	0.0009181
1668.59	0.0009304
1678.24	0.0008104
1687.88	0.0007525
1697.53	0.000651
1707.17	0.0006647
1716.82	0.0007924
1726.46	0.0006365
1736.11	0.0006024
1745.75	0.0006401
1755.4	0.0004888
1765.04	0.000579
1774.69	0.0005355
1784.33	0.000516
1793.98	0.0004461
1803.62	0.0006282
1813.27	0.0004764
1822.91	0.0005351
1832.55	0.0006614
1842.2	0.0007309
1851.84	0.0006309
1861.49	0.0008772
1871.13	0.0010282
1880.78	0.001264
1890.42	0.001284
1900.07	0.001334
1909.71	0.001214
1919.36	0.0011405
1929	0.0010738
1938.65	0.0010436
1948.29	0.0010756
1957.94	0.000901
1967.58	0.0008316
1977.23	0.0010433
1986.87	0.0010056
1996.52	0.0011164
2006.16	0.001274
2015.81	0.001404
2025.45	0.001484
2035.1	0.001704
2044.74	0.001574
2054.38	0.001394
2064.03	0.001294
2073.67	0.001404
2083.32	0.001434
2092.96	0.001454
2102.61	0.001414
2112.25	0.001354
2121.9	0.001244
2131.54	0.001414
2141.19	0.0012112
2150.83	0.0011649
2160.48	0.001214
2170.12	0.0011807
2179.77	0.00118
2189.41	0.0011409
2199.06	0.0011965
2208.7	0.0010877
2218.35	0.0010475
2227.99	0.0008114
2237.64	0.0007598
2247.28	0.0009631
2256.92	0.0009898
2266.57	0.0011313
2276.21	0.0009305
2285.86	0.000833
2295.5	0.0006807
2305.15	0.0006649
2314.79	0.0007147
2324.44	0.000754
2334.08	0.0008725
2343.73	0.0007404
2353.37	0.0008891
2363.02	0.0009062
2372.66	0.0008234
2382.31	0.0011163
2391.95	0.0008939
2401.6	0.0009247
2411.24	0.0009552
2420.89	0.0007062
2430.53	0.0008151
2440.18	0.0007716
2449.82	0.0006984
2459.47	0.00065
2469.11	0.0008083
2478.75	0.0007539
2488.4	0.0007164
2498.04	0.0004887
2507.69	0.000755
2517.33	0.0006572
2526.98	0.0006993
2536.62	0.0006588
2546.27	0.0007499
2555.91	0.0010034
2565.56	0.0008688
2575.2	0.0009875
2584.85	0.0009929
2594.49	0.001254
2604.14	0.001264
2613.78	0.001514
2623.43	0.001824
2633.07	0.001894
2642.72	0.001974
2652.36	0.002284
2662.01	0.002104
2671.65	0.002364
2681.29	0.001894
2690.94	0.002084
2700.58	0.001974
2710.23	0.001954
2719.87	0.001764
2729.52	0.001794
2739.16	0.002184
2748.81	0.002534
2758.45	0.003024
2768.1	0.003824
2777.74	0.004644
2787.39	0.006314
2797.03	0.008954
2806.68	0.012954
2816.32	0.022394
2825.97	0.038274
2835.61	0.042304
2845.26	0.036934
2854.9	0.034514
2864.55	0.031344
2874.19	0.029724
2883.84	0.032224
2893.48	0.035554
2903.12	0.045214
2912.77	0.071524
2922.41	0.115914
2932.06	0.118644
2941.7	0.077154
2951.35	0.056264
2960.99	0.049184
2970.64	0.042774
2980.28	0.045224
2989.93	0.049534
2999.57	0.037934
3009.22	0.021114
3018.86	0.013304
3028.51	0.010134
3038.15	0.008204
3047.8	0.007254
3057.44	0.006274
3067.09	0.005624
3076.73	0.005304
3086.38	0.004964
3096.02	0.004264
3105.67	0.003894
3115.31	0.003744
3124.95	0.003154
3134.6	0.002794
3144.24	0.002264
3153.89	0.001934
3163.53	0.001574
3173.18	0.001444
3182.82	0.001394
3192.47	0.0009512
3202.11	0.0007328
3211.76	0.0011563
3221.4	0.000936
3231.05	0.0010094
3240.69	0.0006995
3250.34	0.0008426
3259.98	0.0009265
3269.63	0.000938
3279.27	0.0007753
3288.92	0.0005463
3298.56	0.0004581
3308.21	0.0004429
3317.85	0.0005947
3327.49	0.0004104
3337.14	0.00025872
3346.78	0.0004153
3356.43	0.0006014
3366.07	0.0004607
3375.72	0.0004228
3385.36	0.0001768
3395.01	0.0004353
3404.65	0.00028991
3414.3	0.00023608
3423.94	0.0001678
3433.59	0.0004922
3443.23	0.0005157
3452.88	0.0003939
3462.52	0.0005741
3472.17	0.0003196
3481.81	0.0006479
3491.46	0.0003839
3501.1	0.0001789
3510.75	0.000672
3520.39	0.00027712
3530.04	0.00026985
3539.68	0.0001916
3549.32	0.00028156
3558.97	0.0003351
3568.61	0.0003431
3578.26	6.4e-05
3587.9	0.0001343
3597.55	0.0005676
3607.19	0.0003712
3616.84	0.0003193
3626.48	0.0003415
3636.13	0.0006444
3645.77	0.0005749
3655.42	0.00033
3665.06	0.0003812
3674.71	0.0004505
3684.35	0.0006978
3694	0.0006646
3703.64	0.00026964
3713.29	0.0004725
3722.93	0.0007691
3732.58	0.000573
3742.22	0.0003482
3751.86	0.0004368
3761.51	0.0005766
3771.15	0.00031018
3780.8	0.0006483
3790.44	0.0004291
3800.09	0.0002033
3809.73	0.00030425
3819.38	0.0004268
3829.02	0.0004223
3838.67	0.0006345
3848.31	0.00026621
3857.96	0.0006621
3867.6	0.0004662
3877.25	0.0008638
3886.89	0.0009054
3896.54	0.0006374
3906.18	0.0005749
3915.83	0.0011695
3925.47	0.0011147
3935.12	0.001244
3944.76	0.001148
3954.41	0.0010914
3964.05	0.0011022
3973.69	0.0009128
3983.34	0.0006597
3992.98	0.0009661
