Infrared Spectrum: Methyl-p-tolyl sulfone
Formula: C 8 H 10 O 2 S
CAS: 3185-99-7
State: gas
Origin: EPA-IR VAPOR PHASE LIBRARY
1/CM	ABSORBANCE
549.8	0.014451
559.445	0.004821
569.09	0.002401
578.734	0.001771
588.379	0.001691
598.024	0.002501
607.669	0.007251
617.313	0.020291
626.958	0.034531
636.603	0.019601
646.248	0.004531
655.893	0.003051
665.537	0.002171
675.182	0.001761
684.827	0.001871
694.472	0.003791
704.116	0.004611
713.761	0.004611
723.406	0.011371
733.051	0.042511
742.695	0.101191
752.34	0.096781
761.985	0.034581
771.63	0.011211
781.275	0.010601
790.919	0.014371
800.564	0.018541
810.209	0.030291
819.854	0.029031
829.498	0.011281
839.143	0.003811
848.788	0.002761
858.433	0.002751
868.078	0.002881
877.722	0.003061
887.367	0.003721
897.012	0.004051
906.657	0.003211
916.301	0.002931
925.946	0.004011
935.591	0.010171
945.236	0.037991
954.88	0.066831
964.525	0.033281
974.17	0.007901
983.815	0.004201
993.46	0.003141
1003.1	0.003061
1012.75	0.005921
1022.39	0.007011
1032.04	0.004521
1041.68	0.004541
1051.33	0.005201
1060.97	0.006781
1070.62	0.009521
1080.26	0.018051
1089.91	0.031271
1099.55	0.027971
1109.2	0.014941
1118.84	0.010461
1128.49	0.012521
1138.13	0.030811
1147.78	0.094761
1157.42	0.235881
1167.07	0.227971
1176.71	0.064371
1186.36	0.019301
1196	0.009391
1205.64	0.006951
1215.29	0.005271
1224.93	0.003491
1234.58	0.003731
1244.22	0.004421
1253.87	0.004781
1263.51	0.006521
1273.16	0.008901
1282.8	0.010701
1292.45	0.014601
1302.09	0.024901
1311.74	0.038741
1321.38	0.055111
1331.03	0.091451
1340.67	0.167171
1350.32	0.174411
1359.96	0.088701
1369.61	0.026111
1379.25	0.014791
1388.9	0.014631
1398.54	0.014221
1408.18	0.014751
1417.83	0.013641
1427.47	0.010311
1437.12	0.007471
1446.76	0.006121
1456.41	0.005861
1466.05	0.005961
1475.7	0.006381
1485.34	0.008571
1494.99	0.013091
1504.63	0.010591
1514.28	0.005081
1523.92	0.004101
1533.57	0.003641
1543.21	0.003291
1552.86	0.003351
1562.5	0.004131
1572.15	0.005251
1581.79	0.007221
1591.44	0.013681
1601.08	0.019361
1610.73	0.012261
1620.37	0.005531
1630.01	0.003711
1639.66	0.003371
1649.3	0.003271
1658.95	0.002551
1668.59	0.001491
1678.24	0.0010419
1687.88	0.000896
1697.53	0.0007995
1707.17	0.0007769
1716.82	0.0009459
1726.46	0.0009858
1736.11	0.0008371
1745.75	0.0008519
1755.4	0.001091
1765.04	0.001281
1774.69	0.001211
1784.33	0.001581
1793.98	0.002511
1803.62	0.002491
1813.27	0.001301
1822.91	0.000807
1832.55	0.00082
1842.2	0.0008279
1851.84	0.0008678
1861.49	0.0009283
1871.13	0.001101
1880.78	0.001331
1890.42	0.001741
1900.07	0.002711
1909.71	0.003681
1919.36	0.003371
1929	0.002031
1938.65	0.001141
1948.29	0.000794
1957.94	0.0007277
1967.58	0.0007012
1977.23	0.0006571
1986.87	0.0006235
1996.52	0.0005353
2006.16	0.0006243
2015.81	0.0007143
2025.45	0.0006051
2035.1	0.0006368
2044.74	0.0006456
2054.38	0.0010493
2064.03	0.0009867
2073.67	0.0008342
2083.32	0.0006787
2092.96	0.0005517
2102.61	0.0007111
2112.25	0.0007524
2121.9	0.0006376
2131.54	0.0005462
2141.19	0.0004989
2150.83	0.0003582
2160.48	0.0004788
2170.12	0.0005466
2179.77	0.0007397
2189.41	0.0006858
2199.06	0.0006143
2208.7	0.0005234
2218.35	0.000525
2227.99	0.0008109
2237.64	0.0010556
2247.28	0.001551
2256.92	0.001591
2266.57	0.001331
2276.21	0.001161
2285.86	0.0010368
2295.5	0.001241
2305.15	0.001271
2314.79	0.001181
2324.44	0.0009114
2334.08	0.0007382
2343.73	0.0006451
2353.37	0.0006082
2363.02	0.0007355
2372.66	0.0007587
2382.31	0.0008141
2391.95	0.0008571
2401.6	0.0008206
2411.24	0.0009029
2420.89	0.0010053
2430.53	0.0009347
2440.18	0.0009727
2449.82	0.0007256
2459.47	0.0007406
2469.11	0.0007938
2478.75	0.0009835
2488.4	0.001231
2498.04	0.001461
2507.69	0.001301
2517.33	0.0009407
2526.98	0.0006635
2536.62	0.0007513
2546.27	0.0007295
2555.91	0.0008528
2565.56	0.0009075
2575.2	0.0009707
2584.85	0.001211
2594.49	0.001191
2604.14	0.0009744
2613.78	0.0009335
2623.43	0.0008684
2633.07	0.000665
2642.72	0.0005549
2652.36	0.0005144
2662.01	0.0005049
2671.65	0.0006157
2681.29	0.0007856
2690.94	0.0009148
2700.58	0.0007125
2710.23	0.0004931
2719.87	0.0004978
2729.52	0.0007307
2739.16	0.001161
2748.81	0.001311
2758.45	0.0008306
2768.1	0.0007698
2777.74	0.0008096
2787.39	0.0007901
2797.03	0.001071
2806.68	0.001141
2816.32	0.001291
2825.97	0.001171
2835.61	0.001541
2845.26	0.001941
2854.9	0.003051
2864.55	0.005191
2874.19	0.007371
2883.84	0.008191
2893.48	0.007181
2903.12	0.006541
2912.77	0.007481
2922.41	0.011031
2932.06	0.017151
2941.7	0.017051
2951.35	0.010291
2960.99	0.006691
2970.64	0.005571
2980.28	0.005561
2989.93	0.006561
2999.57	0.007741
3009.22	0.008901
3018.86	0.010851
3028.51	0.014791
3038.15	0.017041
3047.8	0.014941
3057.44	0.013611
3067.09	0.012741
3076.73	0.008751
3086.38	0.005921
3096.02	0.004821
3105.67	0.003071
3115.31	0.002061
3124.95	0.001591
3134.6	0.001241
3144.24	0.0010142
3153.89	0.0008902
3163.53	0.000624
3173.18	0.000634
3182.82	0.0005136
3192.47	0.0005877
3202.11	0.0006282
3211.76	0.0004579
3221.4	0.0004137
3231.05	0.0006186
3240.69	0.0002435
3250.34	0.0002187
3259.98	0.0004655
3269.63	0.0003483
3279.27	0.0002348
3288.92	0.0002173
3298.56	0.0003588
3308.21	0.0003447
3317.85	0.0001928
3327.49	0.0003851
3337.14	0.000595
3346.78	0.0005537
3356.43	0.0006563
3366.07	0.0003008
3375.72	0.0004614
3385.36	0.0002291
3395.01	0.0003478
3404.65	0.0002244
3414.3	0.0003038
3423.94	0.0003619
3433.59	0.0002507
3443.23	0.000224
3452.88	0.0002978
3462.52	0.0003069
3472.17	0.0002385
3481.81	0.0003226
3491.46	0.00013017
3501.1	0.0002657
3510.75	0.0001812
3520.39	0.00015788
3530.04	0.0002348
3539.68	0.0001885
3549.32	0.0003499
3558.97	0.0001681
3568.61	0.0003519
3578.26	0.0002429
3587.9	0.0005533
3597.55	0.0005205
3607.19	0.0005031
3616.84	0.0001665
3626.48	0.0003862
3636.13	0.0001616
3645.77	0.0002829
3655.42	0.0004684
3665.06	0.0004111
3674.71	0.0007204
3684.35	0.0004545
3694	0.0003889
3703.64	0.0004859
3713.29	0.0003273
3722.93	0.0003042
3732.58	0.0003477
3742.22	0.0003057
3751.86	0.00045
3761.51	0.000414
3771.15	0.0003932
3780.8	0.0002886
3790.44	0.0004158
3800.09	0.0001712
3809.73	0.000306
3819.38	0.0002021
3829.02	0.0002487
3838.67	0.0003923
3848.31	0.0003644
3857.96	0.0004646
3867.6	0.000592
3877.25	0.0005407
3886.89	0.0007139
3896.54	0.0007006
3906.18	0.0005185
3915.83	0.0004962
3925.47	0.0002382
3935.12	0.0004488
3944.76	0.0004613
3954.41	0.000366
3964.05	0.0007906
3973.69	0.0005377
3983.34	0.0005399
3992.98	0.000494
