Infrared Spectrum: 5-Tetradecanone
Formula: C 14 H 28 O
CAS: 31857-89-3
State: gas
Instrument: HP-GC/MS/IRD
Origin: NIST Mass Spectrometry Data Center
1/CM	ABSORBANCE
550	0.0003008
562	0.0001457
574	7.99e-05
586	6.11e-05
598	8.46e-05
610	9.4e-05
622	0.0001833
634	0.0001927
646	7.05e-05
658	0.0001175
670	6.11e-05
682	0.0001128
694	0.0001974
706	0.0004888
718	0.0008601
730	0.000893
742	0.0008977
754	0.0007144
766	0.0006768
778	0.0005452
790	0.0004324
802	0.0002726
814	0.0002444
826	0.0002585
838	0.000282
850	0.0002585
862	0.0003196
874	0.0003619
886	0.0004371
898	0.0004418
910	0.0004606
922	0.0004606
934	0.0004794
946	0.000564
958	0.0006533
970	0.0007144
982	0.0007896
994	0.0008601
1006	0.0010951
1018	0.0017202
1030	0.0022889
1042	0.0022137
1054	0.002068
1066	0.0021432
1078	0.0019505
1090	0.0015745
1102	0.0015181
1114	0.0020257
1126	0.0027542
1138	0.0027824
1150	0.0023923
1162	0.0019975
1174	0.0018283
1186	0.0017296
1198	0.001645
1210	0.0016403
1222	0.0016967
1234	0.0018142
1246	0.0018471
1258	0.0018894
1270	0.0018706
1282	0.0019082
1294	0.0020633
1306	0.0022795
1318	0.0024205
1330	0.0028905
1342	0.0039057
1354	0.0047376
1366	0.0042488
1378	0.0030221
1390	0.0023923
1402	0.0020351
1414	0.0025004
1426	0.0026508
1438	0.0030832
1450	0.0043475
1462	0.0051136
1474	0.0034639
1486	0.0016309
1498	0.0009024
1510	0.0005687
1522	0.0003807
1534	0.0003243
1546	0.0002679
1558	0.0002021
1570	0.0001927
1582	0.0002021
1594	0.0002115
1606	0.0002209
1618	0.0002115
1630	0.0002726
1642	0.0002961
1654	0.0003901
1666	0.0006392
1678	0.0010857
1690	0.0019458
1702	0.0042488
1714	0.0101285
1726	0.0147486
1738	0.0074448
1750	0.0025521
1762	0.0011092
1774	0.0005734
1786	0.0003713
1798	0.0002538
1810	0.0001786
1822	0.000141
1834	0.0001175
1846	7.05e-05
1858	7.05e-05
1870	4.23e-05
1882	4.7e-05
1894	3.29e-05
1906	2.82e-05
1918	1.88e-05
1930	1.88e-05
1942	2.82e-05
1954	9.4e-06
1966	9.4e-06
1978	3.29e-05
1990	9.4e-06
2002	1.88e-05
2014	5.17e-05
2026	5.64e-05
2038	7.52e-05
2050	6.58e-05
2062	6.11e-05
2074	4.23e-05
2086	2.82e-05
2098	3.76e-05
2110	3.29e-05
2122	4.23e-05
2134	3.76e-05
2146	3.76e-05
2158	5.64e-05
2170	4.23e-05
2182	4.23e-05
2194	6.58e-05
2206	5.64e-05
2218	4.23e-05
2230	3.29e-05
2242	3.29e-05
2254	3.76e-05
2266	1.41e-05
2278	2.35e-05
2290	2.35e-05
2302	3.76e-05
2314	3.76e-05
2326	2.35e-05
2338	9.4e-06
2350	4.7e-05
2362	0
2374	4.7e-05
2386	5.64e-05
2398	5.64e-05
2410	7.99e-05
2422	7.99e-05
2434	6.58e-05
2446	5.64e-05
2458	7.52e-05
2470	5.64e-05
2482	4.7e-05
2494	8.46e-05
2506	7.52e-05
2518	0.0001128
2530	0.0001128
2542	0.0001363
2554	0.000141
2566	0.0001833
2578	0.0001786
2590	0.0002068
2602	0.0002303
2614	0.0002679
2626	0.0003008
2638	0.000329
2650	0.0004042
2662	0.0004888
2674	0.0005123
2686	0.0005358
2698	0.0005123
2710	0.000517
2722	0.0005452
2734	0.0006486
2746	0.0007614
2758	0.000799
2770	0.0008695
2782	0.0010622
2794	0.0014006
2806	0.0018565
2818	0.0024487
2830	0.0034028
2842	0.0055601
2854	0.0117453
2866	0.0183253
2878	0.0169247
2890	0.015933
2902	0.017625
2914	0.0250698
2926	0.0403824
2938	0.045825
2950	0.0336943
2962	0.0287123
2974	0.0220477
2986	0.009776
2998	0.0050525
3010	0.0031114
3022	0.0021949
3034	0.0016544
3046	0.0012784
3058	0.0010716
3070	0.0008742
3082	0.000752
3094	0.0006674
3106	0.0005969
3118	0.0004982
3130	0.0004371
3142	0.0003948
3154	0.0003619
3166	0.0003431
3178	0.0003337
3190	0.0002632
3202	0.0002726
3214	0.0002115
3226	0.000141
3238	0.0001598
3250	0.0001222
3262	0.0001175
3274	7.05e-05
3286	9.4e-05
3298	8.93e-05
3310	6.11e-05
3322	7.05e-05
3334	5.64e-05
3346	7.99e-05
3358	9.87e-05
3370	0.0001175
3382	0.0001504
3394	0.0001504
3406	0.0001645
3418	0.0002397
3430	0.0003102
3442	0.0002679
3454	0.0001457
3466	9.4e-05
3478	4.23e-05
3490	6.58e-05
3502	3.76e-05
3514	4.7e-05
3526	3.76e-05
3538	5.64e-05
3550	1.88e-05
3562	1.41e-05
3574	1.41e-05
3586	3.29e-05
3598	3.76e-05
3610	5.17e-05
3622	6.58e-05
3634	0.0001128
3646	0.0001034
3658	7.52e-05
3670	4.23e-05
3682	0.0001128
3694	9.4e-05
3706	7.52e-05
3718	7.05e-05
3730	8.93e-05
3742	0.0001081
3754	9.87e-05
3766	5.17e-05
3778	0.0001034
3790	7.05e-05
3802	6.11e-05
3814	8.93e-05
3826	7.52e-05
3838	0.0001128
