Infrared Spectrum: 2-Hydroxy-4,6-dimethoxybenzoic acid
Formula: C 9 H 10 O 5
CAS: 3187-19-7
State: gas
Origin: EPA-IR VAPOR PHASE LIBRARY
1/CM	ABSORBANCE
549.8	0.003752
559.445	0.003612
569.09	0.002522
578.734	0.001962
588.379	0.002082
598.024	0.002922
607.669	0.003802
617.313	0.003582
626.958	0.003552
636.603	0.003122
646.248	0.002562
655.893	0.004372
665.537	0.008762
675.182	0.013982
684.827	0.009362
694.472	0.004362
704.116	0.002182
713.761	0.001222
723.406	0.0007087
733.051	0.0006042
742.695	0.0009323
752.34	0.000628
761.985	0.0009079
771.63	0.002102
781.275	0.002972
790.919	0.003842
800.564	0.007382
810.209	0.013482
819.854	0.019522
829.498	0.020722
839.143	0.019252
848.788	0.010742
858.433	0.005322
868.078	0.003522
877.722	0.003072
887.367	0.002932
897.012	0.003162
906.657	0.003892
916.301	0.006412
925.946	0.009432
935.591	0.009202
945.236	0.005992
954.88	0.006202
964.525	0.009832
974.17	0.013882
983.815	0.015942
993.46	0.013312
1003.1	0.009282
1012.75	0.005782
1022.39	0.006852
1032.04	0.010362
1041.68	0.022422
1051.33	0.039902
1060.97	0.047692
1070.62	0.033292
1080.26	0.016502
1089.91	0.011522
1099.55	0.012182
1109.2	0.016512
1118.84	0.030212
1128.49	0.063252
1138.13	0.142042
1147.78	0.215072
1157.42	0.186852
1167.07	0.093572
1176.71	0.049062
1186.36	0.057552
1196	0.075222
1205.64	0.086372
1215.29	0.061032
1224.93	0.023822
1234.58	0.012252
1244.22	0.010652
1253.87	0.018922
1263.51	0.032092
1273.16	0.029132
1282.8	0.011512
1292.45	0.006022
1302.09	0.006522
1311.74	0.007382
1321.38	0.008172
1331.03	0.010522
1340.67	0.012532
1350.32	0.010732
1359.96	0.007402
1369.61	0.005622
1379.25	0.006142
1388.9	0.007832
1398.54	0.010652
1408.18	0.014852
1417.83	0.020622
1427.47	0.030352
1437.12	0.037452
1446.76	0.035522
1456.41	0.039432
1466.05	0.050732
1475.7	0.050062
1485.34	0.054942
1494.99	0.061052
1504.63	0.038832
1514.28	0.015502
1523.92	0.010752
1533.57	0.010502
1543.21	0.012222
1552.86	0.014672
1562.5	0.019242
1572.15	0.029322
1581.79	0.056262
1591.44	0.105912
1601.08	0.156032
1610.73	0.158922
1620.37	0.123412
1630.01	0.081602
1639.66	0.040862
1649.3	0.020452
1658.95	0.013142
1668.59	0.009952
1678.24	0.008072
1687.88	0.006902
1697.53	0.006212
1707.17	0.004952
1716.82	0.004152
1726.46	0.003492
1736.11	0.003092
1745.75	0.003012
1755.4	0.002712
1765.04	0.002402
1774.69	0.002192
1784.33	0.001992
1793.98	0.001862
1803.62	0.001632
1813.27	0.001422
1822.91	0.001202
1832.55	0.001192
1842.2	0.0010477
1851.84	0.0009832
1861.49	0.0008704
1871.13	0.0008211
1880.78	0.0007453
1890.42	0.0008344
1900.07	0.0008181
1909.71	0.0008692
1919.36	0.0008181
1929	0.0009348
1938.65	0.0007612
1948.29	0.0007553
1957.94	0.0011121
1967.58	0.001292
1977.23	0.001172
1986.87	0.0010531
1996.52	0.00107
2006.16	0.0010404
2015.81	0.001192
2025.45	0.001142
2035.1	0.001182
2044.74	0.001462
2054.38	0.001432
2064.03	0.001902
2073.67	0.002032
2083.32	0.001972
2092.96	0.001922
2102.61	0.002042
2112.25	0.002272
2121.9	0.002162
2131.54	0.001872
2141.19	0.001622
2150.83	0.001372
2160.48	0.001362
2170.12	0.001202
2179.77	0.001402
2189.41	0.001402
2199.06	0.001312
2208.7	0.001352
2218.35	0.001392
2227.99	0.001132
2237.64	0.001412
2247.28	0.001542
2256.92	0.001632
2266.57	0.001542
2276.21	0.001402
2285.86	0.001572
2295.5	0.001622
2305.15	0.001462
2314.79	0.001172
2324.44	0.001332
2334.08	0.001532
2343.73	0.001152
2353.37	0.001372
2363.02	0.001142
2372.66	0.001152
2382.31	0.001132
2391.95	0.001302
2401.6	0.001292
2411.24	0.001452
2420.89	0.001212
2430.53	0.001452
2440.18	0.001252
2449.82	0.001392
2459.47	0.001442
2469.11	0.001762
2478.75	0.001522
2488.4	0.001792
2498.04	0.001632
2507.69	0.001462
2517.33	0.0011102
2526.98	0.001282
2536.62	0.0010817
2546.27	0.001262
2555.91	0.0009638
2565.56	0.0010822
2575.2	0.0009767
2584.85	0.0009502
2594.49	0.001312
2604.14	0.001162
2613.78	0.001392
2623.43	0.001162
2633.07	0.001212
2642.72	0.0010225
2652.36	0.0010389
2662.01	0.0011224
2671.65	0.0009142
2681.29	0.0006776
2690.94	0.000721
2700.58	0.0009246
2710.23	0.0008415
2719.87	0.001262
2729.52	0.0009259
2739.16	0.001292
2748.81	0.001462
2758.45	0.001682
2768.1	0.002032
2777.74	0.002432
2787.39	0.002502
2797.03	0.002952
2806.68	0.003402
2816.32	0.004012
2825.97	0.006092
2835.61	0.011632
2845.26	0.019812
2854.9	0.018362
2864.55	0.010112
2874.19	0.008012
2883.84	0.008502
2893.48	0.010702
2903.12	0.013322
2912.77	0.016312
2922.41	0.017882
2932.06	0.019812
2941.7	0.027472
2951.35	0.032662
2960.99	0.029842
2970.64	0.018832
2980.28	0.012952
2989.93	0.012972
2999.57	0.022142
3009.22	0.024512
3018.86	0.014212
3028.51	0.006542
3038.15	0.004542
3047.8	0.004392
3057.44	0.003962
3067.09	0.003652
3076.73	0.003262
3086.38	0.003352
3096.02	0.003252
3105.67	0.002792
3115.31	0.002202
3124.95	0.001892
3134.6	0.001702
3144.24	0.001572
3153.89	0.0009161
3163.53	0.0009983
3173.18	0.0005911
3182.82	0.0006973
3192.47	0.0005534
3202.11	0.0004364
3211.76	0.0005832
3221.4	0.0004143
3231.05	0.00082
3240.69	0.0005749
3250.34	0.0006289
3259.98	0.0003953
3269.63	0.0007159
3279.27	0.00021316
3288.92	0.000136384
3298.56	8.74e-05
3308.21	0.0004825
3317.85	0.00033
3327.49	0.0009671
3337.14	0.0009072
3346.78	0.000891
3356.43	0.0005809
3366.07	0.0007289
3375.72	0.0005513
3385.36	0.0005668
3395.01	0.0005692
3404.65	0.0007808
3414.3	0.0003261
3423.94	0.0006708
3433.59	0.0008123
3443.23	0.0005605
3452.88	0.0006037
3462.52	0.0004675
3472.17	0.0004481
3481.81	0.0004917
3491.46	0.0004633
3501.1	0.0004604
3510.75	0.0006312
3520.39	0.0006711
3530.04	0.0006143
3539.68	0.0004397
3549.32	0.0007829
3558.97	0.0005395
3568.61	0.0002761
3578.26	0.000533
3587.9	0.0005546
3597.55	0.0004203
3607.19	0.0010506
3616.84	0.001352
3626.48	0.002612
3636.13	0.008992
3645.77	0.028762
3655.42	0.030622
3665.06	0.011152
3674.71	0.002002
3684.35	0.0010961
3694	0.0006674
3703.64	0.0006125
3713.29	0.0004484
3722.93	0.0004177
3732.58	0.0004732
3742.22	0.000141008
3751.86	0.0004842
3761.51	0.0006568
3771.15	0.000138311
3780.8	0.0004711
3790.44	0.0008183
3800.09	0.0004826
3809.73	0.0002533
3819.38	0.0003864
3829.02	0.0007563
3838.67	0.00041
3848.31	0.0007958
3857.96	0.0006712
3867.6	0.0006432
3877.25	0.0005568
3886.89	0.0010963
3896.54	0.0008566
3906.18	0.000715
3915.83	0.0007005
3925.47	0.0004529
3935.12	0.0008376
3944.76	0.0006968
3954.41	0.000995
3964.05	0.0009517
3973.69	0.0007195
3983.34	0.0003606
3992.98	0.0004717
