Infrared Spectrum: Indole, 6-methoxy-
Formula: C9 H9 N O
CAS: 3189-13-7
State: SOLID (KBr DISC)
Class: COBLENTZ III
Instrument: PERKIN-ELMER 521 (GRATING)
Instrument parameters: FILTERS AT 3130, 2475, 2000, 1150, 700, 410. GRATING CHANGES: 1999, 690 CM^-^1
Sampling: TRANSMISSION
Resolution: 2
Origin: SMITH KLINE & FRENCH LABS.
1/CM	TRANSMITTANCE
204	0.4329
214	0.4856
224	0.5205
234	0.5899
244	0.6454
254	0.6764
264	0.7118
274	0.7824
284	0.801
294	0.8345
304	0.846
314	0.8479
324	0.8483
334	0.8313
344	0.7587
354	0.7259
364	0.8406
374	0.9689
384	0.9941
394	0.9696
404	0.9689
414	0.9392
424	0.8445
434	0.7506
444	0.865
454	0.7703
464	0.9615
474	0.9005
484	0.8397
494	0.7437
504	0.5813
514	0.268
524	0.4106
534	0.6356
544	0.9552
554	0.9927
564	0.9929
574	0.9783
584	0.8602
594	0.8475
604	0.5964
614	0.5161
624	0.84
634	0.7725
644	0.8061
654	0.8117
664	0.7879
674	0.7869
684	0.7579
694	0.7014
704	0.3876
714	0.6586
724	0.5523
734	0.8516
744	0.783
754	0.7336
764	0.8699
774	0.8301
784	0.6367
794	0.5088
804	0.2096
814	0.5238
824	0.5571
834	0.9375
844	0.9289
854	0.8707
864	0.9306
874	0.9114
884	0.8566
894	0.6833
904	0.9109
914	0.8783
924	0.8388
934	0.5506
944	0.8869
954	0.8991
964	0.8659
974	0.8352
984	0.8008
994	0.7641
1004	0.6683
1014	0.5081
1024	0.2898
1034	0.6791
1044	0.6155
1054	0.5783
1064	0.7073
1074	0.6964
1084	0.6788
1094	0.7387
1104	0.5956
1114	0.6425
1124	0.6988
1134	0.6622
1144	0.52
1154	0.2911
1164	0.4894
1174	0.7705
1184	0.6707
1194	0.3876
1204	0.5126
1214	0.8096
1224	0.6943
1234	0.4878
1244	0.4079
1254	0.498
1264	0.8062
1274	0.8181
1284	0.5395
1294	0.259
1304	0.7567
1314	0.7184
1324	0.8561
1334	0.8283
1344	0.6465
1354	0.8717
1364	0.8302
1374	0.8078
1384	0.7212
1394	0.5951
1404	0.6631
1414	0.7797
1424	0.6971
1434	0.55
1444	0.4131
1454	0.4576
1464	0.5371
1474	0.7317
1484	0.6221
1494	0.34
1504	0.3666
1514	0.8201
1524	0.8432
1534	0.8137
1544	0.7821
1554	0.7266
1564	0.5838
1574	0.5302
1584	0.7382
1594	0.7003
1604	0.5599
1614	0.3561
1624	0.2878
1634	0.6681
1644	0.7997
1654	0.812
1664	0.829
1674	0.8262
1684	0.8224
1694	0.8002
1704	0.8087
1714	0.8274
1724	0.8372
1734	0.8224
1744	0.8089
1754	0.8156
1764	0.8152
1774	0.8145
1784	0.8167
1794	0.8073
1804	0.8118
1814	0.807
1824	0.79
1834	0.7804
1844	0.7779
1854	0.7693
1864	0.7548
1874	0.7168
1884	0.735
1894	0.7561
1904	0.748
1914	0.7594
1924	0.7574
1934	0.7512
1944	0.7464
1954	0.745
1964	0.7467
1974	0.7421
1984	0.7365
1994	0.739
2004	0.7631
2014	0.7546
2024	0.7446
2034	0.7365
2044	0.735
2054	0.7513
2064	0.7571
2074	0.7537
2084	0.7492
2094	0.7435
2104	0.7399
2114	0.7387
2124	0.7397
2134	0.7414
2144	0.7376
2154	0.7341
2164	0.7309
2174	0.7285
2184	0.7272
2194	0.7261
2204	0.725
2214	0.7227
2224	0.7189
2234	0.7124
2244	0.7079
2254	0.7102
2264	0.7087
2274	0.7052
2284	0.7012
2294	0.6972
2304	0.6913
2314	0.685
2324	0.6784
2334	0.6752
2344	0.6756
2354	0.6761
2364	0.6769
2374	0.6773
2384	0.6769
2394	0.6751
2404	0.6723
2414	0.6694
2424	0.6655
2434	0.6613
2444	0.6583
2454	0.656
2464	0.6543
2474	0.652
2484	0.6491
2494	0.646
2504	0.6416
2514	0.6378
2524	0.6353
2534	0.6342
2544	0.6327
2554	0.6306
2564	0.6282
2574	0.6245
2584	0.6206
2594	0.6209
2604	0.6236
2614	0.6285
2624	0.6269
2634	0.6217
2644	0.619
2654	0.6205
2664	0.62
2674	0.6176
2684	0.6137
2694	0.6097
2704	0.6077
2714	0.6098
2724	0.6135
2734	0.6054
2744	0.6018
2754	0.6033
2764	0.5917
2774	0.5833
2784	0.5829
2794	0.5804
2804	0.5725
2814	0.5519
2824	0.4816
2834	0.5066
2844	0.5658
2854	0.5689
2864	0.5535
2874	0.5297
2884	0.4878
2894	0.4804
2904	0.4833
2914	0.4916
2924	0.5009
2934	0.475
2944	0.4446
2954	0.4406
2964	0.5232
2974	0.5514
2984	0.5642
2994	0.536
3004	0.5133
3014	0.5698
3024	0.5628
3034	0.5548
3044	0.549
3054	0.5533
3064	0.5474
3074	0.5483
3084	0.5461
3094	0.5256
3104	0.5445
3114	0.5402
3124	0.5359
3134	0.5365
3144	0.5421
3154	0.5406
3164	0.5355
3174	0.5327
3184	0.529
3194	0.5202
3204	0.5127
3214	0.5102
3224	0.5082
3234	0.5058
3244	0.5021
3254	0.4944
3264	0.4829
3274	0.4716
3284	0.4611
3294	0.4548
3304	0.4503
3314	0.442
3324	0.4294
3334	0.4118
3344	0.3811
3354	0.3352
3364	0.2811
3374	0.1909
3384	0.1058
3394	0.0757
3404	0.171
3414	0.4197
3424	0.4446
3434	0.5007
3444	0.5126
3454	0.5218
3464	0.5257
3474	0.5271
3484	0.5277
3494	0.5275
3504	0.5267
3514	0.5255
3524	0.5247
3534	0.5241
3544	0.5234
3554	0.5233
3564	0.5239
3574	0.5248
3584	0.5262
3594	0.5277
3604	0.5286
3614	0.5293
3624	0.53
3634	0.5296
3644	0.5291
3654	0.5303
3664	0.5316
3674	0.5305
3684	0.5289
3694	0.5237
3704	0.5195
3714	0.5183
3724	0.5171
3734	0.5152
3744	0.5133
3754	0.5105
3764	0.5115
3774	0.5158
3784	0.5077
3794	0.5036
3804	0.5044
3814	0.5083
3824	0.5131
3834	0.5082
3844	0.5031
3854	0.4989
3864	0.4956
3874	0.4946
3884	0.4944
3894	0.4886
3904	0.4866
3914	0.4897
3924	0.4925
3934	0.4949
3944	0.4947
3954	0.4916
3964	0.4865
3974	0.4815
3984	0.4835
3994	0.4863
