Infrared Spectrum: .delta.-BHC
Formula: C 6 H 6 Cl 6
CAS: 319-86-8
State: gas
Instrument: HP-GC/MS/IRD
Origin: NIST Mass Spectrometry Data Center
1/CM	ABSORBANCE
550	0.0014432
562	0.0166784
574	0.022432
586	0.0018976
598	0.000512
610	0.0002912
622	0.00032
634	0.0002816
646	2.24e-05
658	1.28e-05
670	0.0003008
682	0.0017472
694	0.0045824
706	0.0014272
718	0.0013088
730	0.001536
742	0.00456
754	0.0143296
766	0.020096
778	0.0244896
790	0.0032608
802	0.0015232
814	0.0010368
826	0.0008288
838	0.0006528
850	0.0019136
862	0.007088
874	0.0027616
886	0.0007552
898	0.0006624
910	0.001264
922	0.0060608
934	0.0072736
946	0.0055424
958	0.0048288
970	0.0020608
982	0.0029184
994	0.001296
1006	0.0009312
1018	0.002384
1030	0.0024608
1042	0.0010848
1054	0.000656
1066	0.0008608
1078	0.001248
1090	0.001856
1102	0.0025184
1114	0.0008032
1126	0.0006112
1138	0.0006368
1150	0.0004
1162	0.0003872
1174	0.0003552
1186	0.0007456
1198	0.0017696
1210	0.0055776
1222	0.0055552
1234	0.0112608
1246	0.006016
1258	0.0025152
1270	0.0023776
1282	0.0029184
1294	0.0041408
1306	0.0082368
1318	0.0060832
1330	0.0102624
1342	0.0068576
1354	0.002288
1366	0.000976
1378	0.0006016
1390	0.000352
1402	0.000208
1414	0.0001632
1426	0.0002016
1438	0.000208
1450	0.0001664
1462	0.0001856
1474	0.0001312
1486	9.92e-05
1498	0.000112
1510	8.32e-05
1522	7.04e-05
1534	9.28e-05
1546	7.68e-05
1558	0
1570	5.76e-05
1582	8.32e-05
1594	8.64e-05
1606	6.4e-05
1618	5.12e-05
1630	8.96e-05
1642	9.6e-05
1654	4.48e-05
1666	4.16e-05
1678	4.8e-05
1690	4.48e-05
1702	3.52e-05
1714	4.8e-05
1726	5.76e-05
1738	3.84e-05
1750	9.6e-06
1762	7.36e-05
1774	6.08e-05
1786	7.04e-05
1798	7.36e-05
1810	6.72e-05
1822	7.68e-05
1834	8e-05
1846	3.84e-05
1858	4.48e-05
1870	9.6e-06
1882	6.4e-05
1894	8.64e-05
1906	6.4e-05
1918	2.56e-05
1930	3.52e-05
1942	6.08e-05
1954	3.84e-05
1966	3.84e-05
1978	4.8e-05
1990	5.76e-05
2002	7.04e-05
2014	8e-05
2026	0.0001248
2038	0.000128
2050	8.32e-05
2062	8.32e-05
2074	6.72e-05
2086	7.68e-05
2098	8e-05
2110	9.28e-05
2122	8.96e-05
2134	6.72e-05
2146	7.68e-05
2158	0.0001248
2170	0.0001184
2182	0.0001024
2194	0.0001216
2206	0.000128
2218	0.000112
2230	9.28e-05
2242	8e-05
2254	6.72e-05
2266	8.96e-05
2278	0.0001376
2290	0.0001184
2302	9.6e-05
2314	0.000128
2326	8e-05
2338	0.0001088
2350	0.0001184
2362	0.0001344
2374	0.0001632
2386	0.0001472
2398	0.000144
2410	0.0001824
2422	0.0002592
2434	0.0002432
2446	0.0002528
2458	0.0002688
2470	0.0003872
2482	0.0004288
2494	0.0004192
2506	0.0004032
2518	0.0003552
2530	0.0003808
2542	0.0003648
2554	0.000272
2566	0.0002432
2578	0.0002624
2590	0.0002144
2602	0.0002656
2614	0.000224
2626	0.0002272
2638	0.0001664
2650	0.0001824
2662	0.0001568
2674	9.92e-05
2686	7.68e-05
2698	9.92e-05
2710	5.76e-05
2722	6.4e-05
2734	5.76e-05
2746	8.64e-05
2758	8e-05
2770	0
2782	9.28e-05
2794	5.44e-05
2806	5.44e-05
2818	6.4e-05
2830	2.88e-05
2842	7.36e-05
2854	8e-05
2866	0.000112
2878	0.0001792
2890	0.0002688
2902	0.0002336
2914	0.0004288
2926	0.0037824
2938	0.0060224
2950	0.0031936
2962	0.0008672
2974	0.0007904
2986	0.0031872
2998	0.000752
3010	0.000128
3022	5.76e-05
3034	9.28e-05
3046	0.0001376
3058	7.04e-05
3070	7.68e-05
3082	6.4e-05
3094	0.0001056
3106	8.96e-05
3118	9.28e-05
3130	5.76e-05
3142	8e-05
3154	4.48e-05
3166	4.8e-05
3178	9.28e-05
3190	5.44e-05
3202	0.0001024
3214	2.88e-05
3226	8e-05
3238	8.96e-05
3250	8.96e-05
3262	5.44e-05
3274	9.6e-06
3286	4.16e-05
3298	5.76e-05
3310	5.76e-05
3322	7.04e-05
3334	3.84e-05
3346	6.72e-05
3358	0.00016
3370	0.0001216
3382	4.16e-05
3394	9.28e-05
3406	8e-05
3418	0.0001152
3430	0.000128
3442	0.0001248
3454	5.44e-05
3466	7.36e-05
3478	0.000112
3490	0.0001056
3502	0.0001664
3514	0.0001376
3526	0.000112
3538	0.0001184
3550	9.92e-05
3562	9.6e-05
3574	8.64e-05
3586	0.0001088
3598	3.52e-05
3610	0.0001376
3622	5.76e-05
3634	8.32e-05
3646	5.12e-05
3658	5.76e-05
3670	0.0002048
3682	0.000192
3694	0.0001696
3706	0.0001792
3718	0.000144
3730	0.0001152
3742	0.000176
3754	0.0001376
3766	0.0002272
3778	0.0001504
3790	0.0001504
3802	0.0001184
3814	0.0001344
3826	0.0001152
3838	6.4e-05
