Infrared Spectrum: TETRAHYDROXY QUINONE
Formula: C6 H4 O6
CAS: 319-89-1
State: SOLID (MINERAL OIL MULL)
Class: COBLENTZ
Instrument: Not specified, most likely a prism, grating, or hybrid spectrometer.
Sampling: TRANSMISSION
Resolution: 4
Origin: DOW CHEMICAL COMPANY
MICROMETERS	TRANSMITTANCE
2.021	0.592
2.06211	0.597
2.10323	0.602
2.14434	0.604
2.18546	0.606
2.22657	0.613
2.26769	0.623
2.3088	0.63
2.34992	0.636
2.39103	0.65
2.43215	0.671
2.47326	0.688
2.51438	0.698
2.55549	0.712
2.59661	0.722
2.63772	0.734
2.67884	0.753
2.71995	0.755
2.76107	0.76
2.80218	0.758
2.8433	0.703
2.88441	0.633
2.92553	0.589
2.96664	0.357
3.00776	0.154
3.04887	0.359
3.08998	0.364
3.1311	0.385
3.17221	0.393
3.21333	0.342
3.25444	0.311
3.29556	0.279
3.33667	0.265
3.37779	0.224
3.4189	0.114
3.46002	0.077
3.50113	0.157
3.54225	0.21
3.58336	0.373
3.62448	0.467
3.66559	0.515
3.70671	0.541
3.74782	0.561
3.78894	0.578
3.83005	0.597
3.87117	0.623
3.91228	0.654
3.9534	0.681
3.99451	0.693
4.03563	0.7
4.07674	0.717
4.11786	0.734
4.15897	0.751
4.20008	0.763
4.2412	0.761
4.28231	0.761
4.32343	0.799
4.36454	0.809
4.40566	0.815
4.44677	0.821
4.48789	0.828
4.529	0.828
4.57012	0.828
4.61123	0.825
4.65235	0.84
4.69346	0.849
4.73458	0.856
4.77569	0.859
4.81681	0.864
4.85792	0.873
4.89904	0.881
4.94015	0.886
4.98127	0.885
5.02238	0.886
5.0635	0.89
5.10461	0.89
5.14573	0.89
5.18684	0.893
5.22795	0.9
5.26907	0.9
5.31018	0.9
5.3513	0.907
5.39241	0.91
5.43353	0.917
5.47464	0.917
5.51576	0.916
5.55687	0.907
5.59799	0.907
5.6391	0.907
5.68022	0.897
5.72133	0.895
5.76245	0.883
5.80356	0.881
5.84468	0.866
5.88579	0.849
5.92691	0.792
5.96802	0.688
6.00914	0.541
6.05025	0.231
6.09137	0.22
6.13248	0.229
6.1736	0.07
6.21471	0.202
6.25583	0.477
6.29694	0.59
6.33805	0.671
6.37917	0.717
6.42028	0.75
6.4614	0.775
6.50251	0.773
6.54363	0.777
6.58474	0.779
6.62586	0.792
6.66697	0.803
6.70809	0.809
6.7492	0.799
6.79032	0.734
6.83143	0.546
6.87255	0.489
6.91366	0.529
6.95478	0.59
6.99589	0.667
7.03701	0.702
7.07812	0.719
7.11924	0.727
7.16035	0.705
7.20147	0.686
7.24258	0.599
7.2837	0.493
7.32481	0.469
7.36592	0.41
7.40704	0.255
7.44815	0.142
7.48927	0.089
7.53038	0.058
7.5715	0.078
7.61261	0.095
7.65373	0.104
7.69484	0.106
7.73596	0.118
7.77707	0.123
7.81819	0.212
7.8593	0.315
7.90042	0.359
7.94153	0.368
7.98265	0.344
8.02376	0.301
8.06488	0.246
8.10599	0.195
8.14711	0.162
8.18822	0.157
8.22934	0.171
8.27045	0.181
8.31157	0.186
8.35268	0.191
8.3938	0.191
8.43491	0.172
8.47602	0.148
8.51714	0.135
8.55825	0.135
8.59937	0.159
8.64048	0.198
8.6816	0.253
8.72271	0.309
8.76383	0.378
8.80494	0.434
8.84606	0.477
8.88717	0.513
8.92829	0.537
8.9694	0.553
9.01052	0.568
9.05163	0.592
9.09275	0.619
9.13386	0.65
9.17498	0.678
9.21609	0.698
9.25721	0.714
9.29832	0.724
9.33944	0.729
9.38055	0.732
9.42167	0.736
9.46278	0.739
9.50389	0.741
9.54501	0.743
9.58612	0.744
9.62724	0.746
9.66835	0.739
9.70947	0.712
9.75058	0.619
9.7917	0.445
9.83281	0.268
9.87393	0.277
9.91504	0.335
9.95616	0.33
9.99727	0.248
10.0384	0.22
10.0795	0.339
10.1206	0.501
10.1617	0.618
10.2028	0.664
10.244	0.7
10.2851	0.722
10.3262	0.734
10.3673	0.751
10.4084	0.76
10.4495	0.765
10.4907	0.772
10.5318	0.779
10.5729	0.785
10.614	0.794
10.6551	0.803
10.6962	0.808
10.7373	0.809
10.7785	0.808
10.8196	0.816
10.8607	0.818
10.9018	0.821
10.9429	0.827
10.984	0.83
11.0251	0.837
11.0663	0.839
11.1074	0.844
11.1485	0.844
11.1896	0.847
11.2307	0.849
11.2718	0.852
11.3129	0.854
11.3541	0.859
11.3952	0.864
11.4363	0.864
11.4774	0.866
11.5185	0.866
11.5596	0.868
11.6008	0.868
11.6419	0.868
11.683	0.868
11.7241	0.868
11.7652	0.868
11.8063	0.863
11.8474	0.859
11.8886	0.857
11.9297	0.856
11.9708	0.854
12.0119	0.852
12.053	0.845
12.0941	0.845
12.1352	0.842
12.1764	0.84
12.2175	0.837
12.2586	0.832
12.2997	0.825
12.3408	0.816
12.3819	0.813
12.423	0.809
12.4642	0.808
12.5053	0.808
12.5464	0.806
12.5875	0.808
12.6286	0.804
12.6697	0.799
12.7108	0.794
12.752	0.784
12.7931	0.777
12.8342	0.761
12.8753	0.755
12.9164	0.739
12.9575	0.717
12.9987	0.686
13.0398	0.64
13.0809	0.585
13.122	0.525
13.1631	0.467
13.2042	0.429
13.2453	0.409
13.2865	0.404
13.3276	0.407
13.3687	0.424
13.4098	0.455
13.4509	0.482
13.492	0.506
13.5331	0.527
13.5743	0.547
13.6154	0.589
13.6565	0.636
13.6976	0.671
13.7387	0.684
13.7798	0.688
13.8209	0.69
13.8621	0.684
13.9032	0.678
13.9443	0.667
13.9854	0.654
14.0265	0.64
14.0676	0.626
14.1088	0.616
14.1499	0.611
14.191	0.606
14.2321	0.604
14.2732	0.604
14.3143	0.606
14.3554	0.607
14.3966	0.607
14.4377	0.604
14.4788	0.602
14.5199	0.597
14.561	0.59
14.6021	0.585
14.6432	0.578
14.6844	0.57
14.7255	0.561
14.7666	0.551
14.8077	0.546
14.8488	0.534
14.8899	0.522
14.931	0.508
14.9722	0.494
15.0133	0.482
15.0544	0.47
15.0955	0.45
15.1366	0.431
15.1777	0.417
15.2189	0.407
15.26	0.392
15.3011	0.381
15.3422	0.373
15.3833	0.363
15.4244	0.347
15.4655	0.328
15.5067	0.311
15.5478	0.292
15.5889	0.275
15.63	0.258
15.6711	0.248
15.7122	0.239
15.7533	0.226
15.7945	0.214
15.8356	0.205
15.8767	0.2
