Infrared Spectrum: BHC-.alpha. isomer
Formula: C 6 H 6 Cl 6
CAS: 319-84-6
State: gas
Instrument: HP-GC/MS/IRD
Origin: NIST Mass Spectrometry Data Center
1/CM	ABSORBANCE
550	0.000169
562	2.6e-05
574	0.000165
586	0.000197
598	0.000183
610	0.000542
622	0.004013
634	0.003687
646	0.000596
658	0.000565
670	0.000651
682	0.001784
694	0.007448
706	0.006101
718	0.00183
730	0.000911
742	0.000656
754	0.001389
766	0.003787
778	0.004356
790	0.008937
802	0.00682
814	0.001015
826	0.000447
838	0.000703
850	0.002734
862	0.004445
874	0.000909
886	0.000538
898	0.000675
910	0.00112
922	0.004366
934	0.00384
946	0.004798
958	0.00341
970	0.000741
982	0.000462
994	0.000469
1006	0.000379
1018	0.000173
1030	0.000296
1042	0.000451
1054	0.000509
1066	0.000288
1078	0.00032
1090	0.001416
1102	0.002797
1114	0.000857
1126	0.000307
1138	0.000239
1150	0.000238
1162	0.000327
1174	0.000252
1186	0.000376
1198	0.000802
1210	0.001525
1222	0.004256
1234	0.001958
1246	0.000903
1258	0.002238
1270	0.002787
1282	0.000852
1294	0.0006
1306	0.00172
1318	0.002475
1330	0.001604
1342	0.003605
1354	0.002938
1366	0.000555
1378	0.000313
1390	0.000184
1402	0.000104
1414	0.000135
1426	8.8e-05
1438	7e-05
1450	8.2e-05
1462	5e-05
1474	5.7e-05
1486	8.4e-05
1498	6.2e-05
1510	3e-05
1522	4.4e-05
1534	3.6e-05
1546	1.8e-05
1558	7e-06
1570	2.7e-05
1582	9e-06
1594	4.3e-05
1606	4.3e-05
1618	4.9e-05
1630	2.7e-05
1642	2.4e-05
1654	4.1e-05
1666	7.2e-05
1678	6.8e-05
1690	4.6e-05
1702	2.8e-05
1714	3.3e-05
1726	3.2e-05
1738	7.2e-05
1750	5.4e-05
1762	2.9e-05
1774	3.3e-05
1786	5.3e-05
1798	6.2e-05
1810	6.1e-05
1822	4.8e-05
1834	3.6e-05
1846	6.6e-05
1858	2.3e-05
1870	6.2e-05
1882	6e-05
1894	8.3e-05
1906	7.1e-05
1918	5.7e-05
1930	4.3e-05
1942	5.3e-05
1954	4.8e-05
1966	4.5e-05
1978	6.7e-05
1990	5.6e-05
2002	6.6e-05
2014	6.4e-05
2026	0.0001
2038	0.000106
2050	8.9e-05
2062	7.1e-05
2074	5.6e-05
2086	7.6e-05
2098	6.8e-05
2110	9.1e-05
2122	3.8e-05
2134	7.7e-05
2146	9.4e-05
2158	6.4e-05
2170	8e-05
2182	8.4e-05
2194	9.5e-05
2206	9.2e-05
2218	9.2e-05
2230	7.1e-05
2242	9.2e-05
2254	8.8e-05
2266	9e-05
2278	6.2e-05
2290	0.000102
2302	0.000106
2314	0.00011
2326	9.4e-05
2338	8.2e-05
2350	8.3e-05
2362	7.5e-05
2374	0.00013
2386	9.4e-05
2398	8.9e-05
2410	0.000128
2422	0.000152
2434	0.000158
2446	0.000177
2458	0.000149
2470	0.000161
2482	0.000156
2494	0.000182
2506	0.000184
2518	0.000203
2530	0.00023
2542	0.000199
2554	0.00017
2566	0.000197
2578	0.000179
2590	0.000151
2602	0.000162
2614	0.00011
2626	0.000119
2638	0.000138
2650	0.000128
2662	0.00015
2674	9.6e-05
2686	6.7e-05
2698	7.9e-05
2710	6.1e-05
2722	5.8e-05
2734	4.4e-05
2746	4.9e-05
2758	6.2e-05
2770	2.2e-05
2782	7e-05
2794	4.8e-05
2806	7.6e-05
2818	0.0001
2830	8.1e-05
2842	0.000105
2854	0.000114
2866	9.7e-05
2878	7.9e-05
2890	0.000107
2902	8.5e-05
2914	0.000132
2926	0.000139
2938	0.000148
2950	0.000343
2962	0.001984
2974	0.001107
2986	0.000722
2998	0.000408
3010	0.00012
3022	0.000103
3034	0.000106
3046	0.000124
3058	5e-05
3070	9.4e-05
3082	9.5e-05
3094	0.000116
3106	0.000126
3118	9e-05
3130	0.000116
3142	9.3e-05
3154	8.4e-05
3166	0.000102
3178	9.7e-05
3190	7.7e-05
3202	8.5e-05
3214	0.000102
3226	8.7e-05
3238	0.000128
3250	0.000136
3262	0.000125
3274	4.5e-05
3286	5.5e-05
3298	8.5e-05
3310	0.000102
3322	5.9e-05
3334	8.1e-05
3346	0.000147
3358	9.4e-05
3370	0.00013
3382	0.000137
3394	9.6e-05
3406	8.8e-05
3418	6.4e-05
3430	0.000127
3442	0.000139
3454	0.000103
3466	9.4e-05
3478	9.2e-05
3490	0.000111
3502	0.00011
3514	0.000129
3526	8.7e-05
3538	0.000123
3550	8.1e-05
3562	0.000141
3574	0.000113
3586	0.000101
3598	0.000117
3610	8.4e-05
3622	0.000105
3634	0.000118
3646	0.000145
3658	0.000108
3670	0.000135
3682	0.000164
3694	0.000206
3706	0.000206
3718	0.000159
3730	0.000192
3742	0.00015
3754	0.000177
3766	0.000173
3778	0.000154
3790	0.000148
3802	0.000166
3814	0.000198
3826	0.000113
3838	0.000165
