Infrared Spectrum: BHC-.beta. isomer
Formula: C 6 H 6 Cl 6
CAS: 319-85-7
State: gas
Instrument: HP-GC/MS/IRD
Origin: NIST Mass Spectrometry Data Center
1/CM	ABSORBANCE
550	0.0003736
562	0.0002048
574	6.8e-05
586	0.00014
598	0.0001264
610	2.88e-05
622	8.16e-05
634	0.0001048
646	0.0001792
658	0.000188
670	0.0002216
682	0.0001488
694	0.0003632
706	0.000872
718	0.0007928
730	0.0008752
742	0.0031096
754	0.008
766	0.0012224
778	0.0010848
790	0.0008008
802	0.0004088
814	0.0002976
826	0.0001432
838	0.0001176
850	0.0001216
862	0.0001088
874	0.0001272
886	0.0001336
898	0.0001936
910	0.0005656
922	0.0006296
934	0.0001824
946	0.0001904
958	0.0001112
970	7.6e-05
982	8.24e-05
994	0.0001016
1006	0.000132
1018	0.000196
1030	0.000596
1042	0.0007336
1054	0.0005384
1066	0.0003112
1078	0.0001424
1090	0.0001328
1102	0.0001136
1114	0.0001128
1126	0.0001232
1138	0.0001128
1150	0.0001296
1162	0.0001528
1174	0.000224
1186	0.0004504
1198	0.0002272
1210	0.0005032
1222	0.0019816
1234	0.0013248
1246	0.0003168
1258	0.0003808
1270	0.0003064
1282	0.0002824
1294	0.0006392
1306	0.0030552
1318	0.0022768
1330	0.0005648
1342	0.0004568
1354	0.0002392
1366	0.000188
1378	0.0001688
1390	0.0001248
1402	9.04e-05
1414	8.4e-05
1426	6.08e-05
1438	4.48e-05
1450	8.08e-05
1462	6.4e-05
1474	2.56e-05
1486	7.84e-05
1498	7.68e-05
1510	4.4e-05
1522	3.44e-05
1534	5.2e-05
1546	3.36e-05
1558	2.4e-06
1570	5.12e-05
1582	7.76e-05
1594	3.68e-05
1606	4.48e-05
1618	2.72e-05
1630	5.52e-05
1642	4.96e-05
1654	2.16e-05
1666	4.24e-05
1678	3.28e-05
1690	5.28e-05
1702	2.08e-05
1714	3.6e-05
1726	3.84e-05
1738	4.08e-05
1750	4.16e-05
1762	3.52e-05
1774	4.4e-05
1786	3.04e-05
1798	5.12e-05
1810	5.6e-05
1822	4.4e-05
1834	5.68e-05
1846	5.6e-05
1858	5.52e-05
1870	4.48e-05
1882	2.96e-05
1894	5.92e-05
1906	3.76e-05
1918	4.08e-05
1930	3.84e-05
1942	4.16e-05
1954	4.88e-05
1966	3.76e-05
1978	4.24e-05
1990	3.92e-05
2002	4.48e-05
2014	3.36e-05
2026	3.92e-05
2038	5.12e-05
2050	4.4e-05
2062	5.6e-05
2074	4.56e-05
2086	4.96e-05
2098	3.6e-05
2110	3.6e-05
2122	4.16e-05
2134	3.2e-05
2146	5.92e-05
2158	5.44e-05
2170	2.56e-05
2182	3.6e-05
2194	4.96e-05
2206	4.08e-05
2218	4.4e-05
2230	2.96e-05
2242	3.28e-05
2254	3.12e-05
2266	3.2e-05
2278	8.48e-05
2290	4.64e-05
2302	3.6e-05
2314	3.52e-05
2326	3.76e-05
2338	2.72e-05
2350	3.52e-05
2362	5.52e-05
2374	4.56e-05
2386	6.56e-05
2398	4.56e-05
2410	5.36e-05
2422	4.88e-05
2434	5.6e-05
2446	7.28e-05
2458	6.88e-05
2470	8.8e-05
2482	0.000104
2494	9.68e-05
2506	0.0001272
2518	9.68e-05
2530	4.56e-05
2542	6.08e-05
2554	5.68e-05
2566	4.48e-05
2578	5.28e-05
2590	5.2e-05
2602	6.8e-05
2614	6.4e-05
2626	0.0001056
2638	7.68e-05
2650	6.72e-05
2662	2.8e-05
2674	3.92e-05
2686	3.84e-05
2698	4e-06
2710	3.52e-05
2722	4.08e-05
2734	2.8e-05
2746	2.72e-05
2758	2.08e-05
2770	2.88e-05
2782	4e-05
2794	1.76e-05
2806	4.4e-05
2818	5.6e-05
2830	2.48e-05
2842	4e-05
2854	1.52e-05
2866	4.08e-05
2878	2.64e-05
2890	6.32e-05
2902	6.88e-05
2914	9.44e-05
2926	0.0001256
2938	0.00044
2950	0.0016176
2962	0.0003304
2974	0.0003232
2986	0.0001104
2998	9.44e-05
3010	6.64e-05
3022	3.2e-05
3034	5.12e-05
3046	6.32e-05
3058	2.72e-05
3070	6.8e-05
3082	8.24e-05
3094	5.84e-05
3106	5.36e-05
3118	3.44e-05
3130	5.36e-05
3142	5.2e-05
3154	8.08e-05
3166	5.36e-05
3178	5.68e-05
3190	1.76e-05
3202	4.16e-05
3214	2.88e-05
3226	3.76e-05
3238	9.52e-05
3250	4.48e-05
3262	0.0001064
3274	7.2e-05
3286	6.4e-05
3298	5.36e-05
3310	0.0001344
3322	7.04e-05
3334	0.000104
3346	6.88e-05
3358	6.08e-05
3370	7.28e-05
3382	5.36e-05
3394	6.08e-05
3406	9.6e-05
3418	8.8e-05
3430	8.16e-05
3442	0.0001008
3454	9.92e-05
3466	8.32e-05
3478	9.68e-05
3490	7.36e-05
3502	9.92e-05
3514	9.12e-05
3526	9.04e-05
3538	7.76e-05
3550	8e-05
3562	8.32e-05
3574	0.0001232
3586	0.0001088
3598	6.88e-05
3610	7.6e-05
3622	8.4e-05
3634	5.52e-05
3646	0.0001008
3658	0.0001128
3670	9.2e-05
3682	0.0001008
3694	0.0001016
3706	0.0001208
3718	9.68e-05
3730	0.0001176
3742	0.0001016
3754	0.0001232
3766	6.48e-05
3778	0.000132
3790	9.52e-05
3802	9.12e-05
3814	0.0001272
3826	7.28e-05
3838	0.0001088
