Infrared Spectrum: 2-Furoylacetonitrile
Formula: C 7 H 5 N O 2
CAS: 31909-58-7
State: gas
Origin: EPA-IR VAPOR PHASE LIBRARY
1/CM	ABSORBANCE
549.8	0.00092489
559.445	0.002368
569.09	0.003668
578.734	0.004608
588.379	0.005788
598.024	0.005528
607.669	0.004618
617.313	0.004658
626.958	0.005228
636.603	0.004908
646.248	0.002878
655.893	0.002178
665.537	0.002568
675.182	0.002948
684.827	0.002648
694.472	0.002788
704.116	0.002848
713.761	0.003768
723.406	0.004568
733.051	0.006768
742.695	0.014188
752.34	0.024728
761.985	0.023278
771.63	0.014218
781.275	0.006478
790.919	0.002278
800.564	0.0018856
810.209	0.002438
819.854	0.003798
829.498	0.004398
839.143	0.003328
848.788	0.002728
858.433	0.003088
868.078	0.005578
877.722	0.013038
887.367	0.014908
897.012	0.008388
906.657	0.006248
916.301	0.004088
925.946	0.003038
935.591	0.003038
945.236	0.003188
954.88	0.002518
964.525	0.002208
974.17	0.0015197
983.815	0.002778
993.46	0.004468
1003.1	0.008168
1012.75	0.012198
1022.39	0.015508
1032.04	0.017358
1041.68	0.015978
1051.33	0.014228
1060.97	0.006668
1070.62	0.003488
1080.26	0.006558
1089.91	0.008048
1099.55	0.004848
1109.2	0.002858
1118.84	0.001978
1128.49	0.0010111
1138.13	0.003708
1147.78	0.007328
1157.42	0.010698
1167.07	0.007348
1176.71	0.003158
1186.36	0.0017407
1196	0.000723
1205.64	0.002828
1215.29	0.003498
1224.93	0.006318
1234.58	0.009848
1244.22	0.008458
1253.87	0.006578
1263.51	0.009458
1273.16	0.015408
1282.8	0.019828
1292.45	0.017718
1302.09	0.011068
1311.74	0.008808
1321.38	0.009318
1331.03	0.007798
1340.67	0.004798
1350.32	0.003358
1359.96	0.002758
1369.61	0.003718
1379.25	0.006538
1388.9	0.009748
1398.54	0.008518
1408.18	0.006348
1417.83	0.005588
1427.47	0.004188
1437.12	0.003938
1446.76	0.006038
1456.41	0.014668
1466.05	0.028978
1475.7	0.029408
1485.34	0.013828
1494.99	0.004888
1504.63	0.004068
1514.28	0.003808
1523.92	0.002958
1533.57	0.002728
1543.21	0.003668
1552.86	0.007898
1562.5	0.017998
1572.15	0.022978
1581.79	0.015768
1591.44	0.006248
1601.08	0.004008
1610.73	0.002568
1620.37	0.002538
1630.01	0.002858
1639.66	0.003498
1649.3	0.004068
1658.95	0.004928
1668.59	0.006008
1678.24	0.008258
1687.88	0.015278
1697.53	0.035848
1707.17	0.059228
1716.82	0.060628
1726.46	0.031598
1736.11	0.011578
1745.75	0.005658
1755.4	0.004098
1765.04	0.003608
1774.69	0.002948
1784.33	0.002338
1793.98	0.0017227
1803.62	0.0017687
1813.27	0.0015736
1822.91	0.0016083
1832.55	0.0017637
1842.2	0.0014958
1851.84	0.0012517
1861.49	0.00129
1871.13	0.0011414
1880.78	0.0012618
1890.42	0.0015059
1900.07	0.0014174
1909.71	0.0014228
1919.36	0.0011914
1929	0.0012128
1938.65	0.0010789
1948.29	0.00093166
1957.94	0.0011262
1967.58	0.0010447
1977.23	0.0010388
1986.87	0.0010484
1996.52	0.00099035
2006.16	0.000853
2015.81	0.0010805
2025.45	0.0012224
2035.1	0.00093387
2044.74	0.0010056
2054.38	0.0010345
2064.03	0.00098266
2073.67	0.0010766
2083.32	0.0011365
2092.96	0.0012697
2102.61	0.0014593
2112.25	0.0011868
2121.9	0.0011165
2131.54	0.0011395
2141.19	0.0012162
2150.83	0.0017054
2160.48	0.0014555
2170.12	0.0013635
2179.77	0.0011878
2189.41	0.0014576
2199.06	0.0012374
2208.7	0.0013577
2218.35	0.0013133
2227.99	0.00099407
2237.64	0.0015063
2247.28	0.0015389
2256.92	0.0018422
2266.57	0.0014749
2276.21	0.0013581
2285.86	0.0012528
2295.5	0.0009745
2305.15	0.0010502
2314.79	0.0013117
2324.44	0.00086
2334.08	0.0012772
2343.73	0.0012088
2353.37	0.0012061
2363.02	0.0014186
2372.66	0.0015929
2382.31	0.0010596
2391.95	0.001276
2401.6	0.0011509
2411.24	0.0008457
2420.89	0.001065
2430.53	0.0008576
2440.18	0.0010399
2449.82	0.0010835
2459.47	0.0008488
2469.11	0.0010818
2478.75	0.0016456
2488.4	0.0012472
2498.04	0.0012052
2507.69	0.0013369
2517.33	0.0010946
2526.98	0.0013991
2536.62	0.00090936
2546.27	0.0008546
2555.91	0.0010441
2565.56	0.0010487
2575.2	0.0012937
2584.85	0.0010168
2594.49	0.000782
2604.14	0.00099773
2613.78	0.00091629
2623.43	0.0011462
2633.07	0.0010291
2642.72	0.00096139
2652.36	0.0014493
2662.01	0.0013096
2671.65	0.0011576
2681.29	0.001016
2690.94	0.0013591
2700.58	0.00094517
2710.23	0.0008652
2719.87	0.000857
2729.52	0.001084
2739.16	0.001037
2748.81	0.0012241
2758.45	0.0011093
2768.1	0.0010835
2777.74	0.0013148
2787.39	0.00094799
2797.03	0.0012847
2806.68	0.00092745
2816.32	0.0012104
2825.97	0.0010519
2835.61	0.0011276
2845.26	0.00074
2854.9	0.0011836
2864.55	0.000787
2874.19	0.000797
2883.84	0.0013882
2893.48	0.0011571
2903.12	0.000900753
2912.77	0.0012472
2922.41	0.0014537
2932.06	0.001429
2941.7	0.0010319
2951.35	0.000907043
2960.99	0.000745
2970.64	0.0013857
2980.28	0.000795
2989.93	0.001077
2999.57	0.000717
3009.22	0.001112
3018.86	0.0010792
3028.51	0.0010435
3038.15	0.0008079
3047.8	0.000747
3057.44	0.00093572
3067.09	0.0008203
3076.73	0.0009499
3086.38	0.00097054
3096.02	0.001094
3105.67	0.0012848
3115.31	0.0013722
3124.95	0.0015515
3134.6	0.0013789
3144.24	0.0011269
3153.89	0.0011206
3163.53	0.0012209
3173.18	0.0010613
3182.82	0.0010628
3192.47	0.00092122
3202.11	0.0011229
3211.76	0.000699
3221.4	0.0016221
3231.05	0.00021
3240.69	0.0011678
3250.34	0.00066
3259.98	0.0010568
3269.63	0.00064
3279.27	0.0011459
3288.92	0.000762
3298.56	0.00094799
3308.21	0.0011474
3317.85	0.000646
3327.49	0.00096938
3337.14	0.0016642
3346.78	0.00091666
3356.43	0.0017916
3366.07	0.001095
3375.72	0.0011601
3385.36	0.001095
3395.01	0.002518
3404.65	0.002058
3414.3	0.0010888
3423.94	0.0010357
3433.59	0.0011235
3443.23	0.000587
3452.88	0.0011117
3462.52	0.0010349
3472.17	0.0008701
3481.81	0.0010588
3491.46	0.0010221
3501.1	0.000546
3510.75	0.000628
3520.39	0.0011044
3530.04	0.000724
3539.68	0.0010736
3549.32	0.000699
3558.97	0.0015116
3568.61	0.000474
3578.26	0.0011875
3587.9	0.001179
3597.55	0.0010395
3607.19	0.000595
3616.84	0.000749
3626.48	0.000904946
3636.13	0.0013085
3645.77	0.0012865
3655.42	0.000786
3665.06	0.000747
3674.71	0.0008531
3684.35	0.001076
3694	0.0010916
3703.64	0.0010626
3713.29	0.00095705
3722.93	0.000403
3732.58	0.0012976
3742.22	0.0013803
3751.86	0.000544
3761.51	0.001023
3771.15	0.0009901
3780.8	0.0011781
3790.44	0.000447
3800.09	0.0010339
3809.73	0.0011605
3819.38	0.000687
3829.02	0.0011909
3838.67	0.000762
3848.31	0.0010075
3857.96	0.00097373
3867.6	0.00099736
3877.25	0.000503
3886.89	0.0010719
3896.54	0.0013047
3906.18	0.0010959
3915.83	0.000863
3925.47	0
3935.12	0.0012371
3944.76	0.0011811
3954.41	0.0012868
3964.05	0.000469
3973.69	0.0010071
3983.34	0.000418
3992.98	0.001157
