Infrared Spectrum: P-PHENYLENEDIAMINE, N,N'-DIETHYL-N,N'-DIPHENYL-
Formula: C22 H24 N2
CAS: 31910-10-8
State: SOLID (KBr PELLET)
Class: COBLENTZ
Instrument: Not specified, most likely a prism, grating, or hybrid spectrometer.
Sampling: TRANSMISSION
Resolution: 4
Origin: TENNESSEE EASTMAN COMPANY, RESEARCH LABORATORIES
MICROMETERS	TRANSMITTANCE
2.014	0.785
2.05501	0.789
2.09602	0.794
2.13703	0.797
2.17804	0.801
2.21904	0.808
2.26005	0.815
2.30106	0.82
2.34207	0.825
2.38308	0.828
2.42409	0.832
2.4651	0.832
2.50611	0.837
2.54712	0.845
2.58812	0.844
2.62913	0.847
2.67014	0.856
2.71115	0.856
2.75216	0.856
2.79317	0.849
2.83418	0.84
2.87519	0.839
2.9162	0.839
2.9572	0.847
2.99821	0.857
3.03922	0.868
3.08023	0.873
3.12124	0.881
3.16225	0.886
3.20326	0.885
3.24427	0.847
3.28528	0.818
3.32628	0.811
3.36729	0.797
3.4083	0.806
3.44931	0.727
3.49032	0.881
3.53133	0.904
3.57234	0.912
3.61335	0.919
3.65436	0.921
3.69536	0.928
3.73637	0.922
3.77738	0.926
3.81839	0.926
3.8594	0.926
3.90041	0.926
3.94142	0.928
3.98243	0.931
4.02344	0.938
4.06444	0.938
4.10545	0.941
4.14646	0.945
4.18747	0.945
4.22848	0.952
4.26949	0.95
4.3105	0.941
4.35151	0.943
4.39252	0.953
4.43352	0.95
4.47453	0.953
4.51554	0.958
4.55655	0.957
4.59756	0.96
4.63857	0.962
4.67958	0.958
4.72059	0.96
4.7616	0.96
4.8026	0.964
4.84361	0.96
4.88462	0.96
4.92563	0.96
4.96664	0.962
5.00765	0.97
5.04866	0.964
5.08967	0.955
5.13068	0.919
5.17168	0.9
5.21269	0.945
5.2537	0.953
5.29471	0.955
5.33572	0.957
5.37673	0.958
5.41774	0.945
5.45875	0.934
5.49976	0.953
5.54076	0.952
5.58177	0.941
5.62278	0.941
5.66379	0.95
5.7048	0.952
5.74581	0.94
5.78682	0.94
5.82783	0.928
5.86884	0.933
5.90984	0.902
5.95085	0.873
5.99186	0.904
6.03287	0.902
6.07388	0.897
6.11489	0.868
6.1559	0.799
6.19691	0.678
6.23792	0.087
6.27892	0.41
6.31993	0.609
6.36094	0.809
6.40195	0.861
6.44296	0.898
6.48397	0.864
6.52498	0.806
6.56599	0.525
6.607	0.02
6.648	0.078
6.68901	0.327
6.73002	0.724
6.77103	0.722
6.81204	0.758
6.85305	0.78
6.89406	0.797
6.93507	0.892
6.97608	0.916
7.01708	0.922
7.05809	0.909
7.0991	0.82
7.14011	0.842
7.18112	0.797
7.22213	0.527
7.26314	0.272
7.30415	0.496
7.34516	0.768
7.38616	0.691
7.42717	0.405
7.46818	0.635
7.50919	0.743
7.5502	0.842
7.59121	0.866
7.63222	0.827
7.67323	0.626
7.71424	0.703
7.75524	0.784
7.79625	0.654
7.83726	0.318
7.87827	0.335
7.91928	0.583
7.96029	0.669
8.0013	0.756
8.04231	0.64
8.08332	0.332
8.12432	0.712
8.16533	0.839
8.20634	0.881
8.24735	0.909
8.28836	0.941
8.32937	0.893
8.37038	0.75
8.41139	0.833
8.4524	0.878
8.4934	0.892
8.53441	0.876
8.57542	0.827
8.61643	0.761
8.65744	0.869
8.69845	0.883
8.73946	0.803
8.78047	0.613
8.82148	0.669
8.86248	0.785
8.90349	0.809
8.9445	0.823
8.98551	0.69
9.02652	0.422
9.06753	0.686
9.10854	0.669
9.14955	0.813
9.19056	0.827
9.23156	0.791
9.27257	0.852
9.31358	0.845
9.35459	0.775
9.3956	0.748
9.43661	0.857
9.47762	0.895
9.51863	0.897
9.55964	0.898
9.60064	0.898
9.64165	0.851
9.68266	0.77
9.72367	0.857
9.76468	0.871
9.80569	0.738
9.8467	0.815
9.88771	0.881
9.92872	0.9
9.96972	0.905
10.0107	0.895
10.0517	0.75
10.0928	0.815
10.1338	0.888
10.1748	0.898
10.2158	0.898
10.2568	0.905
10.2978	0.909
10.3388	0.91
10.3798	0.907
10.4208	0.907
10.4618	0.91
10.5028	0.921
10.5438	0.931
10.5849	0.934
10.6259	0.934
10.6669	0.928
10.7079	0.921
10.7489	0.907
10.7899	0.916
10.8309	0.936
10.8719	0.941
10.9129	0.94
10.9539	0.938
10.9949	0.934
11.036	0.936
11.077	0.938
11.118	0.94
11.159	0.94
11.2	0.929
11.241	0.912
11.282	0.921
11.323	0.933
11.364	0.934
11.405	0.934
11.446	0.914
11.4871	0.849
11.5281	0.833
11.5691	0.88
11.6101	0.926
11.6511	0.931
11.6921	0.933
11.7331	0.921
11.7741	0.859
11.8151	0.808
11.8561	0.875
11.8971	0.917
11.9382	0.928
11.9792	0.928
12.0202	0.926
12.0612	0.909
12.1022	0.905
12.1432	0.917
12.1842	0.926
12.2252	0.94
12.2662	0.941
12.3072	0.945
12.3482	0.948
12.3892	0.948
12.4303	0.943
12.4713	0.94
12.5123	0.934
12.5533	0.928
12.5943	0.895
12.6353	0.806
12.6763	0.636
12.7173	0.599
12.7583	0.756
12.7993	0.845
12.8403	0.898
12.8814	0.919
12.9224	0.929
12.9634	0.931
13.0044	0.929
13.0454	0.919
13.0864	0.9
13.1274	0.845
13.1684	0.703
13.2094	0.479
13.2504	0.155
13.2914	0.109
13.3325	0.373
13.3735	0.698
13.4145	0.811
13.4555	0.869
13.4965	0.905
13.5375	0.926
13.5785	0.94
13.6195	0.955
13.6605	0.964
13.7015	0.974
13.7425	0.981
13.7836	0.989
13.8246	0.991
13.8656	0.993
13.9066	0.993
13.9476	0.993
13.9886	0.993
14.0296	0.993
14.0706	0.993
14.1116	0.993
14.1526	0.988
14.1936	0.958
14.2346	0.905
14.2757	0.792
14.3167	0.647
14.3577	0.542
14.3987	0.522
14.4397	0.669
14.4807	0.792
14.5217	0.897
14.5627	0.95
14.6037	0.972
14.6447	0.984
14.6857	0.991
14.7268	0.993
14.7678	0.996
14.8088	0.998
14.8498	0.998
14.8908	0.998
14.9318	0.994
14.9728	0.981
15.0138	0.97
15.0548	0.977
15.0958	0.989
15.1368	0.993
15.1779	0.993
15.2189	0.993
15.2599	0.988
15.3009	0.979
15.3419	0.97
15.3829	0.96
15.4239	0.946
15.4649	0.936
15.5059	0.929
15.5469	0.919
15.5879	0.914
15.629	0.909
15.67	0.9
15.711	0.886
15.752	0.875
15.793	0.863
15.834	0.847
15.875	0.833
15.916	0.818
15.957	0.803
15.998	0.797
