Infrared Spectrum: 4-Hexamethyleneiminobutyronitrile
Formula: C 10 H 18 N 2
CAS: 3194-43-2
State: gas
Origin: EPA-IR VAPOR PHASE LIBRARY
1/CM	ABSORBANCE
549.8	0.0005649
559.445	0.000673
569.09	0.0007243
578.735	0.00032163
588.38	0.0006386
598.025	0.0004981
607.67	0.0004133
617.315	0.0003786
626.96	0.000181
636.605	5.4e-05
646.251	0.000161
655.896	0.00014
665.541	0.000109
675.186	0.0002417
684.831	0.0004393
694.476	0.0006221
704.121	0.0011646
713.766	0.001502
723.411	0.001562
733.056	0.001302
742.701	0.001302
752.346	0.0012565
761.991	0.0011814
771.636	0.0009517
781.281	0.0007839
790.926	0.0010401
800.571	0.0011818
810.216	0.0012678
819.861	0.0012407
829.507	0.0010781
839.152	0.0010893
848.797	0.0010449
858.442	0.0012679
868.087	0.001482
877.732	0.002072
887.377	0.002882
897.022	0.003142
906.667	0.003312
916.312	0.003362
925.957	0.002992
935.602	0.002842
945.247	0.002902
954.892	0.003442
964.537	0.003832
974.182	0.003432
983.827	0.002992
993.472	0.003252
1003.12	0.004282
1012.76	0.005042
1022.41	0.004182
1032.05	0.002892
1041.7	0.002132
1051.34	0.002062
1060.99	0.002872
1070.63	0.004812
1080.28	0.008042
1089.92	0.010222
1099.57	0.007902
1109.21	0.006102
1118.86	0.008802
1128.5	0.015242
1138.15	0.018202
1147.79	0.013412
1157.44	0.008612
1167.08	0.005252
1176.73	0.004202
1186.37	0.004472
1196.02	0.004822
1205.66	0.004332
1215.31	0.004342
1224.95	0.005362
1234.6	0.005842
1244.24	0.004812
1253.89	0.003542
1263.53	0.003322
1273.18	0.003812
1282.82	0.004192
1292.47	0.004972
1302.11	0.005742
1311.76	0.006012
1321.4	0.006172
1331.05	0.006612
1340.69	0.009272
1350.34	0.013592
1359.98	0.014622
1369.63	0.012062
1379.27	0.008552
1388.92	0.005522
1398.56	0.003852
1408.21	0.003232
1417.85	0.003842
1427.5	0.006692
1437.14	0.010152
1446.79	0.013502
1456.43	0.015372
1466.08	0.011952
1475.73	0.007872
1485.37	0.004282
1495.02	0.002172
1504.66	0.001462
1514.31	0.0008985
1523.95	0.0007495
1533.6	0.00058
1543.24	0.0004166
1552.89	0.00034772
1562.53	0.00037933
1572.18	0.00034846
1581.82	0.00029316
1591.47	0.00033276
1601.11	0.00035259
1610.76	0.00031065
1620.4	0.00030322
1630.05	0.000433
1639.69	0.0004514
1649.34	0.0005408
1658.98	0.000427
1668.63	0.0003762
1678.27	0.0002656
1687.92	0.00027439
1697.56	0.00030651
1707.21	0.0002371
1716.85	0.0002097
1726.5	0.0002383
1736.14	0.000214
1745.79	0.000142
1755.43	0.0002197
1765.08	0.0002128
1774.72	0.000142
1784.37	0.000178
1794.01	0.0002295
1803.66	0.0002256
1813.3	0.0002526
1822.95	0.0002446
1832.59	0.000291491
1842.24	0.0002718
1851.88	0.00029518
1861.53	0.00030271
1871.17	0.0002615
1880.82	0.0002144
1890.46	0.00029957
1900.11	0.0002501
1909.75	0.0001855
1919.4	0.000259
1929.04	0.00029385
1938.69	0.0002146
1948.33	0.00030884
1957.98	0.0002474
1967.62	0.0002532
1977.27	0.0002161
1986.91	0.00027907
1996.56	0.0002321
2006.2	0.0002551
2015.85	0.000286744
2025.49	0.00030877
2035.14	0.0002607
2044.78	0.00030282
2054.43	0.00029326
2064.07	0.00032035
2073.72	0.00029518
2083.36	0.00027797
2093.01	0.00030217
2102.65	0.00031608
2112.3	0.00034108
2121.94	0.00029578
2131.59	0.00030555
2141.23	0.00029819
2150.88	0.00032159
2160.52	0.00032632
2170.17	0.00037222
2179.81	0.0004296
2189.46	0.0003931
2199.1	0.0004241
2208.75	0.0004651
2218.39	0.0005239
2228.04	0.000655
2237.68	0.0010853
2247.33	0.001782
2256.97	0.001592
2266.62	0.0008152
2276.26	0.0005375
2285.91	0.0004669
2295.55	0.0004304
2305.2	0.0005198
2314.84	0.0004948
2324.49	0.0004769
2334.13	0.0004888
2343.78	0.000469
2353.42	0.0004804
2363.07	0.000484
2372.72	0.0004886
2382.36	0.000457
2392.01	0.0003942
2401.65	0.0003602
2411.3	0.00037654
2420.94	0.0004195
2430.59	0.0004705
2440.23	0.0004401
2449.88	0.0004271
2459.52	0.0005008
2469.17	0.0006263
2478.81	0.0005874
2488.46	0.0004921
2498.1	0.0005737
2507.75	0.0005738
2517.39	0.0006167
2527.04	0.000638
2536.68	0.0007561
2546.33	0.0008766
2555.97	0.0008786
2565.62	0.0009354
2575.26	0.0010709
2584.91	0.0012111
2594.55	0.0012134
2604.2	0.001392
2613.84	0.001492
2623.49	0.001632
2633.13	0.001922
2642.78	0.002202
2652.42	0.002632
2662.07	0.003282
2671.71	0.004082
2681.36	0.004702
2691	0.005402
2700.65	0.005752
2710.29	0.006132
2719.94	0.006382
2729.58	0.006792
2739.23	0.007662
2748.87	0.009082
2758.52	0.010782
2768.16	0.013422
2777.81	0.016182
2787.45	0.018312
2797.1	0.021442
2806.74	0.025972
2816.39	0.029122
2826.03	0.028352
2835.68	0.024032
2845.32	0.021902
2854.97	0.026152
2864.61	0.031552
2874.26	0.028142
2883.9	0.024062
2893.55	0.024992
2903.19	0.031822
2912.84	0.048462
2922.48	0.078932
2932.13	0.113892
2941.77	0.100232
2951.42	0.061132
2961.06	0.040352
2970.71	0.024342
2980.35	0.011422
2990	0.005802
2999.64	0.003612
3009.29	0.002472
3018.93	0.001922
3028.58	0.001602
3038.22	0.001352
3047.87	0.0011825
3057.51	0.0008703
3067.16	0.000656
3076.8	0.0008146
3086.45	0.0005151
3096.09	0.0007376
3105.74	0.0006051
3115.38	0.0005985
3125.03	0.0005478
3134.67	0.0005332
3144.32	0.0005213
3153.96	0.0005507
3163.61	0.0004748
3173.25	0.0005659
3182.9	0.000563
3192.54	0.000532
3202.19	0.0005122
3211.83	0.0004752
3221.48	0.000435
3231.12	0.0004195
3240.77	0.0004497
3250.41	0.00035226
3260.06	0.00035016
3269.7	0.00031415
3279.35	0.00036525
3289	0.0003996
3298.64	0.00031401
3308.29	0.0004061
3317.93	0.000283826
3327.58	0.0002936
3337.22	0.00035234
3346.87	0.00027961
3356.51	0.000286599
3366.16	0.00035542
3375.8	0.00032495
3385.45	0.00032127
3395.09	0.0001901
3404.74	0.0002515
3414.38	0.00036268
3424.03	0.00033945
3433.67	0.000282943
3443.32	0.0002868
3452.96	0.00030651
3462.61	0.00038102
3472.25	0.0001919
3481.9	0.00029491
3491.54	0.000152
3501.19	0.000197
3510.83	0.000162
3520.48	0.00036191
3530.12	0.0002299
3539.77	0.0002709
3549.41	0.000164
3559.06	0.000174
3568.7	9.7e-05
3578.35	0.000127
3587.99	0.0002395
3597.64	0.0003896
3607.28	2.9e-05
3616.93	0.00035652
3626.57	0.00027275
3636.22	0.0001971
3645.86	7e-06
3655.51	0.00035579
3665.15	0.0002171
3674.8	0.0002622
3684.44	0.0003303
3694.09	0.0004605
3703.73	0.00035284
3713.38	0.0001941
3723.02	0.0004074
3732.67	0.0004572
3742.31	0.0002581
3751.96	0.0002617
3761.6	0.0002201
3771.25	0.00033795
3780.89	0.0004851
3790.54	0.00032637
3800.18	0.00038188
3809.83	0.00036626
3819.47	0.0004015
3829.12	0.0005639
3838.76	0.0005743
3848.41	0.0004373
3858.05	0.0004942
3867.7	0.0003624
3877.34	0.00035801
3886.99	0.0003873
3896.63	0.0004475
3906.28	0.0004537
3915.92	0.0003965
3925.57	0.0004347
3935.21	0.00030443
3944.86	0.0004632
3954.5	0.0004473
3964.15	0.0004522
3973.79	0.0004004
3983.44	0.0004075
3993.08	0.00037363
