Infrared Spectrum: .alpha.-Bromo-o-methoxyacetophenone
Formula: C 9 H 9 Br O 2
CAS: 31949-21-0
State: gas
Instrument: HP-GC/MS/IRD
Origin: NIST Mass Spectrometry Data Center
1/CM	ABSORBANCE
550	0.0029165
562	0.0019665
574	0.001957
586	0.0038285
598	0.008987
610	0.027322
622	0.0243105
634	0.00665
646	0.0020615
658	0.001026
670	0.0009785
682	0.001938
694	0.0035055
706	0.0031635
718	0.003667
730	0.0066975
742	0.021679
754	0.04826
766	0.024795
778	0.007467
790	0.004161
802	0.007581
814	0.0050825
826	0.000684
838	2.85e-05
850	5.7e-05
862	0.000152
874	0.000399
886	0.000817
898	0.0006175
910	0.000133
922	0.00038
934	0.0011875
946	0.0021565
958	0.0029925
970	0.005985
982	0.0140315
994	0.024244
1006	0.035682
1018	0.041553
1030	0.034789
1042	0.0224105
1054	0.01767
1066	0.009994
1078	0.0065265
1090	0.008854
1102	0.012407
1114	0.012103
1126	0.0133475
1138	0.015447
1150	0.0149055
1162	0.0230755
1174	0.0224485
1186	0.023408
1198	0.019893
1210	0.023503
1222	0.036157
1234	0.0718295
1246	0.095
1258	0.074005
1270	0.0456
1282	0.0602395
1294	0.0917035
1306	0.043073
1318	0.0132715
1330	0.0061655
1342	0.0037145
1354	0.002755
1366	0.0027835
1378	0.0036575
1390	0.0059565
1402	0.012008
1414	0.019038
1426	0.021318
1438	0.039292
1450	0.0334685
1462	0.0377625
1474	0.052573
1486	0.060078
1498	0.028823
1510	0.009709
1522	0.00475
1534	0.0036765
1546	0.00437
1558	0.007106
1570	0.0143355
1582	0.027132
1594	0.046037
1606	0.035587
1618	0.0104975
1630	0.0051015
1642	0.00437
1654	0.006707
1666	0.0124165
1678	0.02679
1690	0.062187
1702	0.07334
1714	0.053276
1726	0.029887
1738	0.014573
1750	0.0076095
1762	0.00418
1774	0.002926
1786	0.002622
1798	0.0021945
1810	0.001653
1822	0.001463
1834	0.001121
1846	0.000779
1858	0.0005985
1870	0.00057
1882	0.0006935
1894	0.0009785
1906	0.0016435
1918	0.00171
1930	0.001349
1942	0.0016245
1954	0.000969
1966	0.0005415
1978	0.000494
1990	0.000608
2002	0.000665
2014	0.000893
2026	0.0012635
2038	0.0017385
2050	0.001995
2062	0.001501
2074	0.0008075
2086	0.000437
2098	0.0003515
2110	0.000171
2122	1.9e-05
2134	2.85e-05
2146	0
2158	1.9e-05
2170	2.85e-05
2182	7.6e-05
2194	8.55e-05
2206	3.8e-05
2218	1.9e-05
2230	8.55e-05
2242	0.0001805
2254	0.0003135
2266	0.000399
2278	0.0005605
2290	0.000589
2302	0.00038
2314	0.0002185
2326	0.0002565
2338	0.0001045
2350	2.85e-05
2362	2.85e-05
2374	8.55e-05
2386	0.0002755
2398	0.000399
2410	0.00038
2422	0.0002565
2434	0.0001235
2446	0.00019
2458	0.0002565
2470	0.0003515
2482	0.0004845
2494	0.000551
2506	0.000513
2518	0.000418
2530	0.0003895
2542	0.0004655
2554	0.00038
2566	0.000247
2578	0.0002375
2590	0.000266
2602	0.000266
2614	0.000266
2626	0.000228
2638	0.0001995
2650	0.000133
2662	0
2674	3.8e-05
2686	0.000152
2698	0.000323
2710	0.0004085
2722	0.00038
2734	0.000399
2746	0.0003135
2758	0.0003895
2770	0.000532
2782	0.0006745
2794	0.0008455
2806	0.0013015
2818	0.002261
2830	0.004522
2842	0.010526
2854	0.011058
2866	0.0058235
2878	0.005035
2890	0.0057095
2902	0.006821
2914	0.0085025
2926	0.010602
2938	0.0150765
2950	0.0227715
2962	0.0193135
2974	0.014953
2986	0.011134
2998	0.0118275
3010	0.014535
3022	0.0099275
3034	0.0074575
3046	0.006707
3058	0.0077805
3070	0.0115235
3082	0.016131
3094	0.0083695
3106	0.0042845
3118	0.0023655
3130	0.0013585
3142	0.001159
3154	0.0011115
3166	0.000855
3178	0.0005225
3190	0.0003895
3202	0.0002755
3214	0.000133
3226	9.5e-05
3238	7.6e-05
3250	2.85e-05
3262	7.6e-05
3274	0.000114
3286	8.55e-05
3298	9.5e-05
3310	0.0001235
3322	0.000266
3334	0.000399
3346	0.0005415
3358	0.000817
3370	0.0009595
3382	0.0008455
3394	0.000988
3406	0.0009405
3418	0.0006745
3430	0.000551
3442	0.000323
3454	0.000304
3466	0.0001805
3478	0.0001425
3490	0.000171
3502	0.0001235
3514	6.65e-05
3526	0.00019
3538	0.000152
3550	0.0001045
3562	0.000114
3574	0.000152
3586	0.00019
3598	0.0002185
3610	0.0001615
3622	0.000171
3634	0.0001425
3646	0.000171
3658	0.000228
3670	0.0001995
3682	0.000228
3694	0.0001995
3706	0.0002565
3718	0.000209
3730	0.0002565
3742	0.000247
3754	0.0001805
3766	0.000209
3778	0.0002185
3790	0.000266
3802	0.000285
3814	0.000342
3826	0.000399
3838	0.000456
