Infrared Spectrum: 2-Acetyl-3-aminothiophene
Formula: C 6 H 7 N O S
CAS: 31968-33-9
State: gas
Origin: EPA-IR VAPOR PHASE LIBRARY
1/CM	ABSORBANCE
551.7	0.02049
563.274	0.01823
574.848	0.01821
586.421	0.01828
597.995	0.01641
609.569	0.01555
621.143	0.01743
632.717	0.02278
644.291	0.02145
655.864	0.01525
667.438	0.01464
679.012	0.01296
690.586	0.01036
702.16	0.00819
713.734	0.00817
725.307	0.01409
736.881	0.02518
748.455	0.02386
760.029	0.0134
771.603	0.00713
783.177	0.00623
794.75	0.00621
806.324	0.0064
817.898	0.00726
829.472	0.0118
841.046	0.01419
852.619	0.01111
864.193	0.00844
875.767	0.00731
887.341	0.0067
898.915	0.00644
910.489	0.00677
922.062	0.01026
933.636	0.01745
945.21	0.01663
956.784	0.008
968.358	0.00567
979.932	0.00566
991.505	0.00627
1003.08	0.00691
1014.65	0.0072
1026.23	0.0068
1037.8	0.00585
1049.37	0.00482
1060.95	0.00495
1072.52	0.0085
1084.1	0.01027
1095.67	0.00776
1107.24	0.00553
1118.82	0.00775
1130.39	0.00898
1141.97	0.00688
1153.54	0.00449
1165.11	0.00374
1176.69	0.00382
1188.26	0.00429
1199.83	0.00488
1211.41	0.00589
1222.98	0.00771
1234.56	0.01196
1246.13	0.02313
1257.7	0.04543
1269.28	0.05255
1280.85	0.03649
1292.42	0.04321
1304	0.05243
1315.57	0.0291
1327.15	0.01068
1338.72	0.01001
1350.29	0.01728
1361.87	0.0254
1373.44	0.02173
1385.02	0.01422
1396.59	0.0233
1408.16	0.04328
1419.74	0.04287
1431.31	0.03404
1442.88	0.04756
1454.46	0.04496
1466.03	0.02255
1477.61	0.01519
1489.18	0.01439
1500.75	0.02081
1512.33	0.0486
1523.9	0.0574
1535.48	0.03301
1547.05	0.01689
1558.62	0.01581
1570.2	0.02185
1581.77	0.04597
1593.34	0.09102
1604.92	0.09821
1616.49	0.05635
1628.07	0.03277
1639.64	0.0631
1651.21	0.09914
1662.79	0.07107
1674.36	0.0196
1685.93	0.009
1697.51	0.00571
1709.08	0.00533
1720.66	0.00638
1732.23	0.00627
1743.8	0.00415
1755.38	0.00281
1766.95	0.00242
1778.53	0.00219
1790.1	0.00202
1801.67	0.00194
1813.25	0.00192
1824.82	0.00186
1836.39	0.00189
1847.97	0.00196
1859.54	0.00192
1871.12	0.00179
1882.69	0.00179
1894.26	0.00176
1905.84	0.00177
1917.41	0.0017
1928.99	0.00159
1940.56	0.00164
1952.13	0.00164
1963.71	0.00158
1975.28	0.00155
1986.85	0.00153
1998.43	0.00145
2010	0.0014
2021.58	0.00138
2033.15	0.0014
2044.72	0.00148
2056.3	0.0015
2067.87	0.00144
2079.44	0.00142
2091.02	0.00142
2102.59	0.00127
2114.17	0.00115
2125.74	0.00117
2137.31	0.00121
2148.89	0.00123
2160.46	0.00119
2172.04	0.00109
2183.61	0.0009648
2195.18	0.0009689
2206.76	0.00101
2218.33	0.0009608
2229.9	0.0009885
2241.48	0.00102
2253.05	0.0009468
2264.63	0.0009343
2276.2	0.00102
2287.77	0.00105
2299.35	0.00101
2310.92	0.000915
2322.5	0.0008393
2334.07	0.0008554
2345.64	0.0009078
2357.22	0.000929
2368.79	0.0009396
2380.36	0.0009641
2391.94	0.000919
2403.51	0.0008644
2415.09	0.0007993
2426.66	0.000879
2438.23	0.0009112
2449.81	0.0009277
2461.38	0.0008824
2472.96	0.0008409
2484.53	0.000824
2496.1	0.0008148
2507.68	0.0008213
2519.25	0.0008077
2530.82	0.0008647
2542.4	0.0009089
2553.97	0.0009483
2565.55	0.0009667
2577.12	0.00102
2588.69	0.00103
2600.27	0.0009504
2611.84	0.0008336
2623.41	0.0006679
2634.99	0.0006998
2646.56	0.0006728
2658.14	0.0007616
2669.71	0.00088
2681.28	0.000954
2692.86	0.0009469
2704.43	0.00105
2716.01	0.00115
2727.58	0.00115
2739.15	0.00111
2750.73	0.00104
2762.3	0.0009089
2773.87	0.0008807
2785.45	0.0009199
2797.02	0.0008808
2808.6	0.0009103
2820.17	0.00102
2831.74	0.00117
2843.32	0.0012
2854.89	0.00123
2866.47	0.00125
2878.04	0.00136
2889.61	0.00154
2901.19	0.00171
2912.76	0.0021
2924.33	0.00276
2935.91	0.00287
2947.48	0.00249
2959.06	0.00252
2970.63	0.00266
2982.2	0.00244
2993.78	0.0026
3005.35	0.00315
3016.92	0.00354
3028.5	0.00354
3040.07	0.0033
3051.65	0.00319
3063.22	0.00362
3074.79	0.00475
3086.37	0.00406
3097.94	0.00223
3109.52	0.00176
3121.09	0.00151
3132.66	0.0013
3144.24	0.00141
3155.81	0.00149
3167.38	0.00141
3178.96	0.00127
3190.53	0.00118
3202.11	0.00107
3213.68	0.00107
3225.25	0.00106
3236.83	0.00124
3248.4	0.00144
3259.98	0.00143
3271.55	0.00162
3283.12	0.00202
3294.7	0.00231
3306.27	0.00251
3317.84	0.00314
3329.42	0.00572
3340.99	0.01288
3352.57	0.0183
3364.14	0.01393
3375.71	0.00639
3387.29	0.0031
3398.86	0.00192
3410.43	0.00154
3422.01	0.00149
3433.58	0.00148
3445.16	0.00175
3456.73	0.00224
3468.3	0.00355
3479.88	0.00631
3491.45	0.01126
3503.03	0.01568
3514.6	0.01378
3526.17	0.00822
3537.75	0.00442
3549.32	0.00254
3560.89	0.00169
3572.47	0.00131
3584.04	0.00115
3595.62	0.00118
3607.19	0.00106
3618.76	0.00102
3630.34	0.0009802
3641.91	0.0009158
3653.49	0.0009661
3665.06	0.0008888
3676.63	0.0009254
3688.21	0.0008224
3699.78	0.0008673
3711.35	0.0008209
3722.93	0.0007739
3734.5	0.0008758
3746.08	0.0008932
3757.65	0.000947
3769.22	0.00105
3780.8	0.000954
3792.37	0.000894
3803.94	0.0009201
3815.52	0.000844
3827.09	0.0007542
3838.67	0.0007743
3850.24	0.0007613
3861.81	0.0007936
3873.39	0.0007595
3884.96	0.0008032
3896.54	0.0008653
3908.11	0.0008044
3919.68	0.0009051
3931.26	0.00101
3942.83	0.0009662
3954.4	0.0009152
3965.98	0.0009384
3977.55	0.0008123
3989.13	0.0009186
4000.7	0.0008368
