Infrared Spectrum: 5-Amino-2-chlorobenzotrifluoride
Formula: C 7 H 5 Cl F 3 N
CAS: 320-51-4
State: gas
Origin: EPA-IR VAPOR PHASE LIBRARY
1/CM	ABSORBANCE
549.8	0.005608
559.445	0.005748
569.09	0.006358
578.734	0.006158
588.379	0.005498
598.024	0.004858
607.669	0.005378
617.313	0.006678
626.958	0.009078
636.603	0.013648
646.248	0.022528
655.893	0.028448
665.537	0.035848
675.182	0.024448
684.827	0.013828
694.472	0.012628
704.116	0.010418
713.761	0.009088
723.406	0.007678
733.051	0.006828
742.695	0.009678
752.34	0.009278
761.985	0.004758
771.63	0.004118
781.275	0.004598
790.919	0.005578
800.564	0.009258
810.209	0.016558
819.854	0.018398
829.498	0.009408
839.143	0.004998
848.788	0.004628
858.433	0.007988
868.078	0.015508
877.722	0.012528
887.367	0.008758
897.012	0.011598
906.657	0.010358
916.301	0.006418
925.946	0.004198
935.591	0.003178
945.236	0.003038
954.88	0.002858
964.525	0.002488
974.17	0.002518
983.815	0.002338
993.46	0.002468
1003.1	0.002768
1012.75	0.004748
1022.39	0.015418
1032.04	0.024688
1041.68	0.014668
1051.33	0.006028
1060.97	0.007148
1070.62	0.009368
1080.26	0.009728
1089.91	0.011548
1099.55	0.016168
1109.2	0.025278
1118.84	0.037088
1128.49	0.036988
1138.13	0.053888
1147.78	0.080778
1157.42	0.129528
1167.07	0.162518
1176.71	0.142888
1186.36	0.082198
1196	0.038448
1205.64	0.023128
1215.29	0.016518
1224.93	0.016918
1234.58	0.031918
1244.22	0.074928
1253.87	0.083238
1263.51	0.036608
1273.16	0.014818
1282.8	0.010698
1292.45	0.011738
1302.09	0.015038
1311.74	0.028228
1321.38	0.085078
1331.03	0.136548
1340.67	0.073878
1350.32	0.015148
1359.96	0.006358
1369.61	0.004118
1379.25	0.003758
1388.9	0.004838
1398.54	0.005438
1408.18	0.005988
1417.83	0.009718
1427.47	0.024968
1437.12	0.050548
1446.76	0.040158
1456.41	0.012358
1466.05	0.015908
1475.7	0.042078
1485.34	0.055858
1494.99	0.027848
1504.63	0.010378
1514.28	0.007398
1523.92	0.006288
1533.57	0.004978
1543.21	0.003738
1552.86	0.003508
1562.5	0.004328
1572.15	0.006338
1581.79	0.009098
1591.44	0.009298
1601.08	0.008838
1610.73	0.015458
1620.37	0.036158
1630.01	0.045118
1639.66	0.024588
1649.3	0.009608
1658.95	0.005748
1668.59	0.004158
1678.24	0.003438
1687.88	0.002758
1697.53	0.002258
1707.17	0.001878
1716.82	0.001798
1726.46	0.002568
1736.11	0.002898
1745.75	0.002488
1755.4	0.001938
1765.04	0.001538
1774.69	0.001378
1784.33	0.001348
1793.98	0.001228
1803.62	0.0011119
1813.27	0.0010245
1822.91	0.0009281
1832.55	0.000983
1842.2	0.0009502
1851.84	0.0009772
1861.49	0.001328
1871.13	0.001858
1880.78	0.002038
1890.42	0.001508
1900.07	0.001448
1909.71	0.001418
1919.36	0.001248
1929	0.0010874
1938.65	0.0008544
1948.29	0.0007219
1957.94	0.0007403
1967.58	0.0007064
1977.23	0.0006967
1986.87	0.0008465
1996.52	0.0008222
2006.16	0.000879
2015.81	0.0007611
2025.45	0.0007603
2035.1	0.0007579
2044.74	0.0008634
2054.38	0.000819
2064.03	0.0009621
2073.67	0.0009499
2083.32	0.0008374
2092.96	0.000639
2102.61	0.0004437
2112.25	0.0005054
2121.9	0.0005113
2131.54	0.0006191
2141.19	0.0008612
2150.83	0.0009978
2160.48	0.0008622
2170.12	0.0007125
2179.77	0.0005638
2189.41	0.0006722
2199.06	0.0006744
2208.7	0.0005949
2218.35	0.0005876
2227.99	0.0005956
2237.64	0.0005618
2247.28	0.0005207
2256.92	0.000588
2266.57	0.0005754
2276.21	0.0008215
2285.86	0.0009669
2295.5	0.0008938
2305.15	0.0008119
2314.79	0.0008716
2324.44	0.0007913
2334.08	0.0006215
2343.73	0.00074
2353.37	0.0007318
2363.02	0.0005759
2372.66	0.000532
2382.31	0.0006004
2391.95	0.0003658
2401.6	0.000428
2411.24	0.0004263
2420.89	0.0004937
2430.53	0.0003536
2440.18	0.00041
2449.82	0.0003448
2459.47	0.0002827
2469.11	0.00022925
2478.75	0.00023351
2488.4	0.0004602
2498.04	0.0004582
2507.69	0.0005096
2517.33	0.0003891
2526.98	0.0004212
2536.62	0.0005921
2546.27	0.0004668
2555.91	0.0004315
2565.56	0.0005184
2575.2	0.0005018
2584.85	0.0006403
2594.49	0.0005585
2604.14	0.0004197
2613.78	0.0002844
2623.43	0.00019217
2633.07	0.00026408
2642.72	0.0003624
2652.36	0.0003989
2662.01	0.000385
2671.65	0.0004033
2681.29	0.0002565
2690.94	0.0002501
2700.58	0.0004312
2710.23	0.0003183
2719.87	0.00023719
2729.52	0.0002881
2739.16	0.000215
2748.81	0.00022228
2758.45	0.00024503
2768.1	0.0003147
2777.74	0.00021994
2787.39	0.0001366
2797.03	0.0001329
2806.68	0.00018943
2816.32	0.00022758
2825.97	0.000133
2835.61	0.0002921
2845.26	0.0003441
2854.9	0.000334
2864.55	0.0004847
2874.19	0.0005664
2883.84	0.0006257
2893.48	0.0004683
2903.12	0.0005798
2912.77	0.0003259
2922.41	0.000288
2932.06	0.00025107
2941.7	0.0003883
2951.35	0.0002834
2960.99	0.00019999
2970.64	0.0001336
2980.28	0.00024444
2989.93	0.0004924
2999.57	0.000881
3009.22	0.001288
3018.86	0.001598
3028.51	0.001548
3038.15	0.002648
3047.8	0.004648
3057.44	0.004258
3067.09	0.002818
3076.73	0.002588
3086.38	0.001358
3096.02	0.0007407
3105.67	0.0009435
3115.31	0.0006484
3124.95	0.0003514
3134.6	0.0003065
3144.24	0.0003708
3153.89	0.0003065
3163.53	0.00025785
3173.18	0.0005466
3182.82	0.0003088
3192.47	0.0003821
3202.11	0.0006989
3211.76	0.0008481
3221.4	0.0011117
3231.05	0.001258
3240.69	0.0011219
3250.34	0.0006271
3259.98	0.0005
3269.63	0.0004099
3279.27	0.000206
3288.92	0.0002251
3298.56	0.0004272
3308.21	0.0001095
3317.85	0.00019781
3327.49	0.0001334
3337.14	0.00024488
3346.78	0.0003762
3356.43	0.0004957
3366.07	0.0005303
3375.72	0.000733
3385.36	0.001428
3395.01	0.003048
3404.65	0.005948
3414.3	0.008508
3423.94	0.008438
3433.59	0.006818
3443.23	0.002478
3452.88	0.0009546
3462.52	0.0009879
3472.17	0.001598
3481.81	0.002658
3491.46	0.004388
3501.1	0.004778
3510.75	0.004208
3520.39	0.004158
3530.04	0.002328
3539.68	0.0006549
3549.32	0.0004102
3558.97	0.0002745
3568.61	0.0004974
3578.26	0.0002826
3587.9	0.0002686
3597.55	0.0003252
3607.19	0.0003494
3616.84	0.00023347
3626.48	0.00018765
3636.13	0.0002619
3645.77	9.38e-05
3655.42	0.0001475
3665.06	0.00018301
3674.71	8.64e-05
3684.35	0.00024687
3694	0.0004184
3703.64	0.0002992
3713.29	0.0004992
3722.93	0.00026751
3732.58	0.0003402
3742.22	0.0003509
3751.86	0.0003032
3761.51	0.0004493
3771.15	0.00019018
3780.8	0.0003067
3790.44	0.0002928
3800.09	0.0003704
3809.73	0.00019039
3819.38	0.0003073
3829.02	0.0004
3838.67	0.0002847
3848.31	0.0008159
3857.96	0.0010833
3867.6	0.0006779
3877.25	0.0004853
3886.89	0.0004627
3896.54	0.0002907
3906.18	0.00024271
3915.83	0.0002723
3925.47	0.0003348
3935.12	0.0004353
3944.76	0.0005618
3954.41	0.0006189
3964.05	0.00025919
3973.69	0.00016443
3983.34	0.0005483
3992.98	0.0002712
