Infrared Spectrum: N-ACETYL-DI-P-TOLYLAMINE
Formula: C16 H17 N O
CAS: 32047-89-5
State: SOLID (NUJOL MULL)
Class: COBLENTZ
Instrument: Not specified, most likely a prism, grating, or hybrid spectrometer.
Sampling: TRANSMISSION
Resolution: 4
Origin: TENNESSEE EASTMAN COMPANY, RESEARCH LABORATORIES
MICROMETERS	TRANSMITTANCE
2.06	0.621
2.1	0.622
2.14	0.622
2.18	0.629
2.22	0.636
2.26	0.641
2.29999	0.641
2.33999	0.646
2.37999	0.646
2.41999	0.651
2.45999	0.659
2.49999	0.666
2.53999	0.681
2.57999	0.687
2.61999	0.701
2.65999	0.701
2.69998	0.716
2.73998	0.719
2.77998	0.719
2.81998	0.716
2.85998	0.711
2.89998	0.692
2.93998	0.691
2.97998	0.691
3.01998	0.689
3.05998	0.689
3.09998	0.694
3.13997	0.699
3.17997	0.701
3.21997	0.701
3.25997	0.702
3.29997	0.599
3.33997	0.55
3.37997	0.207
3.41997	0.078
3.45997	0.207
3.49997	0.2
3.53996	0.569
3.57996	0.769
3.61996	0.803
3.65996	0.821
3.69996	0.814
3.73996	0.818
3.77996	0.821
3.81996	0.826
3.85996	0.829
3.89996	0.831
3.93996	0.838
3.97995	0.846
4.01995	0.859
4.05995	0.864
4.09995	0.864
4.13995	0.869
4.17995	0.871
4.21995	0.874
4.25995	0.901
4.29995	0.908
4.33995	0.908
4.37994	0.903
4.41994	0.901
4.45994	0.901
4.49994	0.904
4.53994	0.908
4.57994	0.909
4.61994	0.913
4.65994	0.919
4.69994	0.923
4.73994	0.926
4.77994	0.929
4.81993	0.931
4.85993	0.934
4.89993	0.934
4.93993	0.934
4.97993	0.938
5.01993	0.943
5.05993	0.944
5.09993	0.943
5.13993	0.941
5.17993	0.938
5.21992	0.931
5.25992	0.936
5.29992	0.928
5.33992	0.944
5.37992	0.951
5.41992	0.961
5.45992	0.963
5.49992	0.964
5.53992	0.963
5.57992	0.961
5.61991	0.954
5.65991	0.958
5.69991	0.959
5.73991	0.959
5.77991	0.953
5.81991	0.936
5.85991	0.894
5.89991	0.836
5.93991	0.647
5.97991	0.315
6.01991	0.158
6.0599	0.362
6.0999	0.622
6.1399	0.701
6.1799	0.762
6.2199	0.677
6.2599	0.682
6.2999	0.764
6.3399	0.746
6.3799	0.776
6.4199	0.806
6.45989	0.833
6.49989	0.834
6.53989	0.826
6.57989	0.56
6.61989	0.257
6.65989	0.515
6.69989	0.674
6.73989	0.691
6.77989	0.59
6.81989	0.442
6.85989	0.44
6.89988	0.467
6.93988	0.519
6.97988	0.569
7.01988	0.661
7.05988	0.661
7.09988	0.674
7.13988	0.682
7.17988	0.666
7.21988	0.527
7.25988	0.424
7.29987	0.38
7.33987	0.248
7.37987	0.517
7.41987	0.677
7.45987	0.612
7.49987	0.409
7.53987	0.148
7.57987	0.215
7.61987	0.409
7.65987	0.53
7.69987	0.24
7.73986	0.338
7.77986	0.424
7.81986	0.515
7.85986	0.585
7.89986	0.602
7.93986	0.696
7.97986	0.757
8.01986	0.789
8.05986	0.797
8.09986	0.814
8.13985	0.834
8.17985	0.843
8.21985	0.844
8.25985	0.824
8.29985	0.849
8.33985	0.868
8.37985	0.874
8.41985	0.883
8.45985	0.881
8.49985	0.868
8.53985	0.821
8.57984	0.861
8.61984	0.883
8.65984	0.886
8.69984	0.896
8.73984	0.906
8.77984	0.913
8.81984	0.914
8.85984	0.913
8.89984	0.903
8.93984	0.873
8.97983	0.809
9.01983	0.766
9.05983	0.848
9.09983	0.899
9.13983	0.918
9.17983	0.921
9.21983	0.929
9.25983	0.933
9.29983	0.933
9.33983	0.933
9.37983	0.933
9.41982	0.931
9.45982	0.924
9.49982	0.906
9.53982	0.869
9.57982	0.839
9.61982	0.801
9.65982	0.764
9.69982	0.784
9.73982	0.772
9.77982	0.694
9.81981	0.702
9.85981	0.777
9.89981	0.844
9.93981	0.883
9.97981	0.893
10.0198	0.898
10.0598	0.886
10.0998	0.868
10.1398	0.876
10.1798	0.891
10.2198	0.903
10.2598	0.903
10.2998	0.909
10.3398	0.919
10.3798	0.924
10.4198	0.923
10.4598	0.924
10.4998	0.919
10.5398	0.901
10.5798	0.919
10.6198	0.938
10.6598	0.944
10.6998	0.946
10.7398	0.948
10.7798	0.949
10.8198	0.954
10.8598	0.961
10.8998	0.963
10.9398	0.964
10.9798	0.973
11.0198	0.973
11.0598	0.973
11.0998	0.973
11.1398	0.966
11.1798	0.966
11.2198	0.968
11.2598	0.971
11.2998	0.973
11.3398	0.974
11.3798	0.974
11.4198	0.974
11.4598	0.976
11.4998	0.976
11.5398	0.976
11.5798	0.976
11.6198	0.976
11.6598	0.976
11.6998	0.976
11.7398	0.976
11.7798	0.973
11.8198	0.961
11.8598	0.896
11.8998	0.717
11.9398	0.617
11.9798	0.631
12.0198	0.796
12.0598	0.848
12.0998	0.843
12.1398	0.746
12.1798	0.656
12.2198	0.555
12.2598	0.485
12.2998	0.44
12.3398	0.525
12.3798	0.766
12.4198	0.849
12.4598	0.848
12.4998	0.843
12.5397	0.908
12.5797	0.939
12.6197	0.954
12.6597	0.954
12.6997	0.924
12.7397	0.891
12.7797	0.918
12.8197	0.944
12.8597	0.954
12.8997	0.956
12.9397	0.956
12.9797	0.956
13.0197	0.956
13.0597	0.956
13.0997	0.954
13.1397	0.956
13.1797	0.956
13.2197	0.956
13.2597	0.956
13.2997	0.953
13.3397	0.948
13.3797	0.948
13.4197	0.943
13.4597	0.931
13.4997	0.918
13.5397	0.914
13.5797	0.909
13.6197	0.906
13.6597	0.901
13.6997	0.888
13.7397	0.859
13.7797	0.791
13.8197	0.679
13.8597	0.592
13.8997	0.686
13.9397	0.777
13.9797	0.824
14.0197	0.839
14.0597	0.826
14.0997	0.796
14.1397	0.797
14.1797	0.829
14.2197	0.841
14.2597	0.843
14.2997	0.843
14.3397	0.843
14.3797	0.843
14.4197	0.843
14.4597	0.843
14.4997	0.843
14.5397	0.843
14.5797	0.843
14.6197	0.841
14.6597	0.839
14.6997	0.839
14.7397	0.836
14.7797	0.833
14.8197	0.829
14.8597	0.826
14.8997	0.824
14.9397	0.819
14.9797	0.819
15.0197	0.818
15.0597	0.808
15.0997	0.791
15.1397	0.779
15.1797	0.774
15.2197	0.772
15.2597	0.767
15.2997	0.761
15.3397	0.756
15.3797	0.744
15.4197	0.736
15.4597	0.717
15.4997	0.707
15.5397	0.696
15.5797	0.681
15.6197	0.679
15.6597	0.681
15.6997	0.682
15.7397	0.691
15.7797	0.689
15.8197	0.694
15.8597	0.699
15.8997	0.701
15.9397	0.702
15.9797	0.702
