Infrared Spectrum: ALLYL-2-(N,N-DIMETHYLAMINO)ETHYL ETHER
Formula: C7 H15 N O
CAS: 3205-11-6
Class: COBLENTZ
Instrument: Not specified, most likely a prism, grating, or hybrid spectrometer.
Sampling: TRANSMISSION
Path length: FILM
Resolution: 4
Origin: DOW CHEMICAL COMPANY
MICROMETERS	TRANSMITTANCE
2	0.777
2.04111	0.779
2.08223	0.78
2.12334	0.78
2.16446	0.785
2.20557	0.785
2.24669	0.773
2.2878	0.761
2.32892	0.767
2.37003	0.768
2.41115	0.773
2.45226	0.779
2.49338	0.773
2.53449	0.777
2.57561	0.789
2.61672	0.796
2.65784	0.801
2.69895	0.804
2.74007	0.797
2.78118	0.789
2.8223	0.768
2.86341	0.763
2.90453	0.753
2.94564	0.75
2.98676	0.741
3.02787	0.743
3.06898	0.748
3.1101	0.739
3.15121	0.738
3.19233	0.743
3.23344	0.712
3.27456	0.631
3.31567	0.669
3.35679	0.513
3.3979	0.217
3.43902	0.202
3.48013	0.195
3.52125	0.157
3.56236	0.164
3.60348	0.191
3.64459	0.174
3.68571	0.462
3.72682	0.628
3.76794	0.751
3.80905	0.784
3.85017	0.801
3.89128	0.82
3.9324	0.823
3.97351	0.827
4.01462	0.827
4.05574	0.839
4.09685	0.842
4.13797	0.849
4.17908	0.852
4.2202	0.852
4.26131	0.849
4.30243	0.854
4.34354	0.864
4.38466	0.861
4.42577	0.863
4.46689	0.861
4.508	0.863
4.54912	0.866
4.59023	0.864
4.63135	0.868
4.67246	0.863
4.71358	0.856
4.75469	0.851
4.79581	0.845
4.83692	0.849
4.87804	0.852
4.91915	0.852
4.96027	0.861
5.00138	0.863
5.04249	0.852
5.08361	0.859
5.12472	0.866
5.16584	0.869
5.20695	0.871
5.24807	0.871
5.28918	0.869
5.3303	0.863
5.37141	0.852
5.41253	0.839
5.45364	0.845
5.49476	0.875
5.53587	0.881
5.57699	0.883
5.6181	0.885
5.65922	0.881
5.70033	0.881
5.74145	0.875
5.78256	0.875
5.82368	0.875
5.86479	0.875
5.90591	0.871
5.94702	0.864
5.98813	0.864
6.02925	0.833
6.07036	0.753
6.11148	0.784
6.15259	0.844
6.19371	0.847
6.23482	0.863
6.27594	0.868
6.31705	0.871
6.35817	0.866
6.39928	0.864
6.4404	0.863
6.48151	0.854
6.52263	0.851
6.56374	0.84
6.60486	0.821
6.64597	0.801
6.68709	0.751
6.7282	0.618
6.76932	0.469
6.81043	0.306
6.85155	0.241
6.89266	0.304
6.93378	0.421
6.97489	0.503
7.016	0.498
7.05712	0.566
7.09823	0.599
7.13935	0.671
7.18046	0.743
7.22158	0.732
7.26269	0.678
7.30381	0.613
7.34492	0.558
7.38604	0.494
7.42715	0.503
7.46827	0.577
7.50938	0.589
7.5505	0.643
7.59161	0.645
7.63273	0.585
7.67384	0.553
7.71496	0.532
7.75607	0.511
7.79719	0.488
7.8383	0.436
7.87942	0.404
7.92053	0.476
7.96164	0.522
8.00276	0.551
8.04387	0.636
8.08499	0.724
8.1261	0.763
8.16722	0.77
8.20833	0.765
8.24945	0.741
8.29056	0.702
8.33168	0.642
8.37279	0.594
8.41391	0.654
8.45502	0.683
8.49614	0.664
8.53725	0.604
8.57837	0.513
8.61948	0.4
8.6606	0.316
8.70171	0.263
8.74283	0.243
8.78394	0.246
8.82506	0.251
8.86617	0.236
8.90729	0.195
8.9484	0.138
8.98951	0.109
9.03063	0.101
9.07174	0.121
9.11286	0.142
9.15397	0.169
9.19509	0.186
9.2362	0.195
9.27732	0.198
9.31843	0.207
9.35955	0.222
9.40066	0.238
9.44178	0.239
9.48289	0.243
9.52401	0.256
9.56512	0.208
9.60624	0.184
9.64735	0.236
9.68847	0.304
9.72958	0.388
9.7707	0.426
9.81181	0.446
9.85293	0.462
9.89404	0.467
9.93516	0.445
9.97627	0.388
10.0174	0.33
10.0585	0.309
10.0996	0.344
10.1407	0.4
10.1818	0.462
10.223	0.518
10.2641	0.544
10.3052	0.556
10.3463	0.563
10.3874	0.558
10.4285	0.532
10.4696	0.511
10.5108	0.493
10.5519	0.488
10.593	0.484
10.6341	0.462
10.6752	0.428
10.7163	0.368
10.7575	0.303
10.7986	0.255
10.8397	0.229
10.8808	0.243
10.9219	0.284
10.963	0.385
11.0041	0.498
11.0453	0.601
11.0864	0.681
11.1275	0.72
11.1686	0.743
11.2097	0.753
11.2508	0.753
11.2919	0.748
11.3331	0.748
11.3742	0.75
11.4153	0.751
11.4564	0.741
11.4975	0.731
11.5386	0.708
11.5797	0.69
11.6209	0.648
11.662	0.606
11.7031	0.553
11.7442	0.515
11.7853	0.515
11.8264	0.558
11.8676	0.623
11.9087	0.683
11.9498	0.724
11.9909	0.751
12.032	0.768
12.0731	0.785
12.1142	0.797
12.1554	0.806
12.1965	0.813
12.2376	0.813
12.2787	0.813
12.3198	0.813
12.3609	0.813
12.402	0.808
12.4432	0.801
12.4843	0.785
12.5254	0.763
12.5665	0.731
12.6076	0.693
12.6487	0.643
12.6898	0.601
12.731	0.571
12.7721	0.571
12.8132	0.597
12.8543	0.631
12.8954	0.662
12.9365	0.691
12.9776	0.724
13.0188	0.756
13.0599	0.779
13.101	0.797
13.1421	0.809
13.1832	0.813
13.2243	0.815
13.2655	0.815
13.3066	0.813
13.3477	0.806
13.3888	0.803
13.4299	0.797
13.471	0.797
13.5121	0.804
13.5533	0.808
13.5944	0.808
13.6355	0.806
13.6766	0.803
13.7177	0.801
13.7588	0.796
13.7999	0.792
13.8411	0.787
13.8822	0.782
13.9233	0.78
13.9644	0.773
14.0055	0.77
14.0466	0.763
14.0877	0.756
14.1289	0.75
14.17	0.741
14.2111	0.729
14.2522	0.72
14.2933	0.714
14.3344	0.707
14.3756	0.7
14.4167	0.693
14.4578	0.69
14.4989	0.688
14.54	0.683
14.5811	0.679
14.6222	0.672
14.6634	0.664
14.7045	0.659
14.7456	0.65
14.7867	0.64
14.8278	0.63
14.8689	0.621
14.91	0.609
14.9512	0.597
14.9923	0.583
15.0334	0.57
15.0745	0.559
15.1156	0.551
15.1567	0.541
15.1978	0.535
15.239	0.525
15.2801	0.518
15.3212	0.51
15.3623	0.501
15.4034	0.489
15.4445	0.481
15.4857	0.47
15.5268	0.462
15.5679	0.453
15.609	0.45
15.6501	0.446
15.6912	0.445
15.7323	0.441
15.7735	0.44
15.8146	0.44
15.8557	0.433
15.8968	0.436
