Infrared Spectrum: DL-6,8-Thioctamide
Formula: C 8 H 15 N O S 2
CAS: 3206-73-3
State: gas
Origin: EPA-IR VAPOR PHASE LIBRARY
1/CM	ABSORBANCE
549.8	0.001681
559.445	0.002301
569.09	0.001571
578.734	0.002431
588.379	0.002441
598.024	0.001801
607.669	0.002971
617.313	0.002971
626.958	0.002171
636.603	0.002561
646.248	0.001691
655.893	0.001941
665.537	0.001491
675.182	0.001361
684.827	0.001571
694.472	0.001441
704.116	0.002111
713.761	0.002271
723.406	0.002721
733.051	0.003061
742.695	0.003591
752.34	0.003581
761.985	0.003851
771.63	0.003161
781.275	0.002911
790.919	0.002361
800.564	0.002931
810.209	0.002831
819.854	0.002451
829.498	0.002491
839.143	0.002411
848.788	0.002491
858.433	0.002631
868.078	0.002381
877.722	0.002031
887.367	0.001881
897.012	0.002461
906.657	0.002161
916.301	0.001751
925.946	0.002051
935.591	0.001971
945.236	0.001621
954.88	0.001891
964.525	0.001821
974.17	0.0009669
983.815	0.001511
993.46	0.001421
1003.1	0.0011682
1012.75	0.001371
1022.39	0.0011457
1032.04	0.001921
1041.68	0.001881
1051.33	0.001461
1060.97	0.002381
1070.62	0.001931
1080.26	0.002651
1089.91	0.002271
1099.55	0.002471
1109.2	0.001371
1118.84	0.0013295
1128.49	0.0011332
1138.13	0.0009609
1147.78	0.002951
1157.42	0.002091
1167.07	0.001881
1176.71	0.003031
1186.36	0.001721
1196	0.003171
1205.64	0.002831
1215.29	0.004131
1224.93	0.004951
1234.58	0.004361
1244.22	0.005891
1253.87	0.007011
1263.51	0.007291
1273.16	0.007751
1282.8	0.006771
1292.45	0.006811
1302.09	0.006431
1311.74	0.005911
1321.38	0.005621
1331.03	0.006171
1340.67	0.006821
1350.32	0.007311
1359.96	0.007741
1369.61	0.008481
1379.25	0.008011
1388.9	0.005641
1398.54	0.003581
1408.18	0.002701
1417.83	0.002751
1427.47	0.003281
1437.12	0.003541
1446.76	0.003821
1456.41	0.003791
1466.05	0.002671
1475.7	0.001591
1485.34	0.0010755
1494.99	0.000969
1504.63	0.000995
1514.28	0.0007797
1523.92	0.0007561
1533.57	0.001341
1543.21	0.0012269
1552.86	0.001781
1562.5	0.003181
1572.15	0.005551
1581.79	0.010281
1591.44	0.011611
1601.08	0.007681
1610.73	0.004641
1620.37	0.003171
1630.01	0.002301
1639.66	0.001831
1649.3	0.001691
1658.95	0.002111
1668.59	0.002591
1678.24	0.003871
1687.88	0.005861
1697.53	0.009301
1707.17	0.014241
1716.82	0.021131
1726.46	0.030351
1736.11	0.030461
1745.75	0.021181
1755.4	0.013501
1765.04	0.007681
1774.69	0.004221
1784.33	0.002351
1793.98	0.001541
1803.62	0.0012515
1813.27	0.0009274
1822.91	0.0008503
1832.55	0.0008897
1842.2	0.0009543
1851.84	0.000753
1861.49	0.0005869
1871.13	0.0006097
1880.78	0.0006842
1890.42	0.0005114
1900.07	0.000645
1909.71	0.0005948
1919.36	0.0004497
1929	0.0006194
1938.65	0.0005652
1948.29	0.0005587
1957.94	0.0005065
1967.58	0.0006231
1977.23	0.0005828
1986.87	0.0005365
1996.52	0.0005531
2006.16	0.0006211
2015.81	0.0005246
2025.45	0.00035935
2035.1	0.000689
2044.74	0.0006334
2054.38	0.00042459
2064.03	0.00035639
2073.67	0.000551
2083.32	0.00042227
2092.96	0.0005549
2102.61	0.0005046
2112.25	0.0004735
2121.9	0.0005837
2131.54	0.0005025
2141.19	0.0004489
2150.83	0.0004505
2160.48	0.000468
2170.12	0.0005472
2179.77	0.0005726
2189.41	0.0006408
2199.06	0.0004947
2208.7	0.0005455
2218.35	0.0005858
2227.99	0.0004942
2237.64	0.00041712
2247.28	0.0005494
2256.92	0.0006062
2266.57	0.0005458
2276.21	0.000466
2285.86	0.0005489
2295.5	0.0004867
2305.15	0.0002637
2314.79	0.0006415
2324.44	0.0005625
2334.08	0.00042191
2343.73	0.0005682
2353.37	0.00043019
2363.02	0.0006685
2372.66	0.0005972
2382.31	0.0004619
2391.95	0.0004405
2401.6	0.00040963
2411.24	0.0005046
2420.89	0.0004665
2430.53	0.0004323
2440.18	0.0005132
2449.82	0.0005829
2459.47	0.0004837
2469.11	0.0004935
2478.75	0.00041848
2488.4	0.0006181
2498.04	0.0005042
2507.69	0.0007108
2517.33	0.00040906
2526.98	0.000339917
2536.62	0.0004576
2546.27	0.0005172
2555.91	0.0005775
2565.56	0.00039317
2575.2	0.0004843
2584.85	0.00028
2594.49	0.0003881
2604.14	0.0005204
2613.78	0.0004316
2623.43	0.0005752
2633.07	0.00032397
2642.72	0.0007451
2652.36	0.0005752
2662.01	0.0008029
2671.65	0.0006577
2681.29	0.0004581
2690.94	0.0005898
2700.58	0.0006346
2710.23	0.0006601
2719.87	0.0007752
2729.52	0.0004957
2739.16	0.0006314
2748.81	0.0005106
2758.45	0.00035824
2768.1	0.0006037
2777.74	0.0007861
2787.39	0.0010158
2797.03	0.0010128
2806.68	0.0010612
2816.32	0.001501
2825.97	0.001481
2835.61	0.002231
2845.26	0.003181
2854.9	0.004761
2864.55	0.005581
2874.19	0.005311
2883.84	0.004451
2893.48	0.005081
2903.12	0.007131
2912.77	0.010181
2922.41	0.015191
2932.06	0.019441
2941.7	0.019951
2951.35	0.016031
2960.99	0.010671
2970.64	0.007461
2980.28	0.005061
2989.93	0.002461
2999.57	0.001621
3009.22	0.0012408
3018.86	0.0009929
3028.51	0.0009418
3038.15	0.0009307
3047.8	0.0009339
3057.44	0.0003098
3067.09	0.0002736
3076.73	0.0004416
3086.38	0.0009115
3096.02	0.0007389
3105.67	0.0005369
3115.31	0.0005222
3124.95	0.0008648
3134.6	0.0006919
3144.24	0.0004724
3153.89	0.0007186
3163.53	0.0006604
3173.18	0.0005816
3182.82	0.0006891
3192.47	0.000498
3202.11	0.0007947
3211.76	0.0005161
3221.4	0.0004019
3231.05	0.0006142
3240.69	0.0005449
3250.34	0.0004327
3259.98	0.0002358
3269.63	0.0005675
3279.27	0.0004391
3288.92	0.0006656
3298.56	0.0005427
3308.21	0.0007929
3317.85	0.000872
3327.49	0.0007608
3337.14	0.0006866
3346.78	0.0009013
3356.43	0.0006417
3366.07	0.000732
3375.72	0.0004983
3385.36	0.0008324
3395.01	0.0011726
3404.65	0.001791
3414.3	0.002711
3423.94	0.002531
3433.59	0.003211
3443.23	0.003851
3452.88	0.002241
3462.52	0.001451
3472.17	0.0011709
3481.81	0.0010655
3491.46	0.001104
3501.1	0.0012683
3510.75	0.0012746
3520.39	0.001951
3530.04	0.002271
3539.68	0.001941
3549.32	0.002851
3558.97	0.003411
3568.61	0.002121
3578.26	0.001491
3587.9	0.0008023
3597.55	0.00032134
3607.19	0.00036738
3616.84	0.00037621
3626.48	0.0005252
3636.13	0.0006167
3645.77	0.00039028
3655.42	0.0006719
3665.06	0.00042089
3674.71	0.00034424
3684.35	0.00036106
3694	0.0003637
3703.64	0.0003062
3713.29	0.000519
3722.93	0.0005196
3732.58	0.0002577
3742.22	0.00039098
3751.86	0.0005152
3761.51	0.0006614
3771.15	0.0002825
3780.8	0.0007501
3790.44	0.00042707
3800.09	0.0007614
3809.73	0.0007947
3819.38	0.0002669
3829.02	0.0004353
3838.67	0.0002326
3848.31	0.0006736
3857.96	0.000489
3867.6	0.000335793
3877.25	0.0004388
3886.89	0.000192
3896.54	0.0003918
3906.18	0.00040098
3915.83	0.0005183
3925.47	0
3935.12	0.0005356
3944.76	0.0006119
3954.41	0.0005894
3964.05	0.0007428
3973.69	0.0005656
3983.34	0.0002557
3992.98	0.0006594
