Infrared Spectrum: Hexadecenyl succinic anhydride
Formula: C 20 H 34 O 3
CAS: 32072-96-1
State: gas
Origin: EPA-IR VAPOR PHASE LIBRARY
1/CM	ABSORBANCE
501.5	0
513.074	0.0004218
524.648	0.0007077
536.222	0.0008935
547.796	0.0009409
559.37	0.0011881
570.944	0.00178
582.518	0.0016
594.092	0.00154
605.666	0.00146
617.24	0.00141
628.814	0.00153
640.388	0.00153
651.962	0.00147
663.536	0.00135
675.11	0.00133
686.684	0.00143
698.258	0.00175
709.832	0.00248
721.406	0.00305
732.98	0.00259
744.554	0.00176
756.128	0.00137
767.702	0.001178
779.276	0.0012166
790.85	0.0011047
802.423	0.0008574
813.997	0.0008989
825.571	0.0009235
837.145	0.0010147
848.719	0.0012417
860.293	0.0017
871.867	0.00312
883.441	0.00635
895.015	0.00994
906.589	0.0131
918.163	0.01525
929.737	0.01273
941.311	0.00872
952.885	0.00683
964.459	0.00721
976.033	0.00768
987.607	0.006
999.181	0.00506
1010.76	0.00521
1022.33	0.00581
1033.9	0.00704
1045.48	0.00921
1057.05	0.01237
1068.63	0.01285
1080.2	0.00777
1091.77	0.00446
1103.35	0.0027
1114.92	0.00199
1126.49	0.0017
1138.07	0.00188
1149.64	0.00209
1161.22	0.00277
1172.79	0.00366
1184.36	0.00438
1195.94	0.00574
1207.51	0.00765
1219.09	0.00893
1230.66	0.00848
1242.23	0.00601
1253.81	0.00451
1265.38	0.00343
1276.96	0.00284
1288.53	0.00264
1300.1	0.00294
1311.68	0.00296
1323.25	0.00271
1334.83	0.00266
1346.4	0.00288
1357.97	0.00256
1369.55	0.00193
1381.12	0.00159
1392.7	0.00132
1404.27	0.00141
1415.84	0.00189
1427.42	0.00306
1438.99	0.00365
1450.57	0.00456
1462.14	0.0047
1473.71	0.00297
1485.29	0.00159
1496.86	0.001099
1508.44	0.0008629
1520.01	0.000737
1531.58	0.0006935
1543.16	0.0005895
1554.73	0.0005984
1566.31	0.0006154
1577.88	0.0005591
1589.45	0.0005531
1601.03	0.000563
1612.6	0.0005662
1624.18	0.0005546
1635.75	0.0006548
1647.32	0.0007236
1658.9	0.0008656
1670.47	0.0008554
1682.05	0.000745
1693.62	0.0007993
1705.19	0.0008553
1716.77	0.0009624
1728.34	0.001241
1739.92	0.00169
1751.49	0.00247
1763.06	0.00444
1774.64	0.0088
1786.21	0.01868
1797.79	0.0413
1809.36	0.05303
1820.93	0.02754
1832.51	0.01322
1844.08	0.00799
1855.66	0.0069
1867.23	0.00949
1878.8	0.01294
1890.38	0.00537
1901.95	0.00237
1913.53	0.00152
1925.1	0.0011914
1936.67	0.0010301
1948.25	0.0008318
1959.82	0.0007509
1971.4	0.0006795
1982.97	0.0006693
1994.54	0.0006602
2006.12	0.0007064
2017.69	0.0006988
2029.27	0.0006291
2040.84	0.0005907
2052.41	0.0005559
2063.99	0.0005548
2075.56	0.0005719
2087.14	0.000597
2098.71	0.0006086
2110.28	0.0006092
2121.86	0.0006656
2133.43	0.0006985
2145.01	0.0007106
2156.58	0.0006909
2168.15	0.0006047
2179.73	0.0005745
2191.3	0.0005289
2202.88	0.0005556
2214.45	0.0005298
2226.02	0.0005513
2237.6	0.0005282
2249.17	0.0004941
2260.74	0.0005238
2272.32	0.0004911
2283.89	0.0005232
2295.47	0.0004946
2307.04	0.0004684
2318.61	0.0004506
2330.19	0.0004034
2341.76	0.0003915
2353.34	0.0003912
2364.91	0.0003447
2376.48	0.0004299
2388.06	0.0004449
2399.63	0.0004561
2411.21	0.0004244
2422.78	0.000445
2434.35	0.0004351
2445.93	0.000426
2457.5	0.000399
2469.08	0.0003789
2480.65	0.0003832
2492.22	0.0004016
2503.8	0.000416
2515.37	0.0004413
2526.95	0.0004468
2538.52	0.0004761
2550.09	0.0004985
2561.67	0.0004845
2573.24	0.0005293
2584.82	0.0005675
2596.39	0.0005137
2607.96	0.0005912
2619.54	0.0005831
2631.11	0.0006514
2642.69	0.000694
2654.26	0.0007286
2665.83	0.0007859
2677.41	0.0008337
2688.98	0.0008356
2700.56	0.0007847
2712.13	0.0007832
2723.7	0.0008072
2735.28	0.0008049
2746.85	0.0008457
2758.43	0.0009274
2770	0.0010829
2781.57	0.0012402
2793.15	0.0015
2804.72	0.00183
2816.3	0.00232
2827.87	0.00322
2839.44	0.00509
2851.02	0.01107
2862.59	0.02116
2874.17	0.01499
2885.74	0.01135
2897.31	0.01245
2908.89	0.01942
2920.46	0.03437
2932.04	0.05815
2943.61	0.03958
2955.18	0.01959
2966.76	0.01489
2978.33	0.00912
2989.91	0.00547
3001.48	0.0039
3013.05	0.00322
3024.63	0.00276
3036.2	0.00212
3047.78	0.00148
3059.35	0.0011666
3070.92	0.0008699
3082.5	0.0007523
3094.07	0.0007113
3105.65	0.0006709
3117.22	0.0006143
3128.79	0.0005954
3140.37	0.0005109
3151.94	0.0005203
3163.52	0.0004389
3175.09	0.0004117
3186.66	0.0003903
3198.24	0.0004173
3209.81	0.0003732
3221.39	0.0003657
3232.96	0.00027566
3244.53	0.00029108
3256.11	0.00027537
3267.68	0.00033077
3279.26	0.0003312
3290.83	0.000269203
3302.4	0.0003033
3313.98	0.00027156
3325.55	0.0002355
3337.13	0.00027849
3348.7	0.0002269
3360.27	0.0002042
3371.85	0.000228
3383.42	0.0002236
3395	0.0002194
3406.57	0.0001734
3418.14	0.0002354
3429.72	0.0002423
3441.29	0.0002519
3452.86	0.00025044
3464.44	0.000144
3476.01	0.0002346
3487.59	0.0002512
3499.16	0.0001711
3510.73	0.0002471
3522.31	0.000245
3533.88	0.0002491
3545.46	0.00027877
3557.03	0.00030021
3568.6	0.00029712
3580.18	0.000371
3591.75	0.0003897
3603.33	0.0005661
3614.9	0.0005368
3626.47	0.0005156
3638.05	0.0006891
3649.62	0.0007469
3661.2	0.0008878
3672.77	0.0006823
3684.34	0.0004989
3695.92	0.0003645
3707.49	0.0004077
3719.07	0.00039
3730.64	0.00028069
3742.21	0.00033715
3753.79	0.0002847
3765.36	0.00032219
3776.94	0.0002322
3788.51	0.00032877
3800.08	0.0003097
3811.66	0.0002301
3823.23	0.00027693
3834.81	0.0002448
3846.38	0.0002206
3857.95	0.00025833
3869.53	0.0001946
3881.1	0.0001684
3892.68	0.0001961
3904.25	0.00032103
3915.82	0.0001947
3927.4	0.000358
3938.97	0.00028775
3950.55	0.00031688
3962.12	0.00029178
3973.69	0.000263162
3985.27	0.00028498
3996.84	0.000259577
