Infrared Spectrum: 2-Ethylfuran
Formula: C 6 H 8 O
CAS: 3208-16-0
State: gas
Instrument: HP-GC/MS/IRD
Origin: NIST Mass Spectrometry Data Center
1/CM	ABSORBANCE
550	0.0004983
562	9.9e-05
574	0.0009141
586	0.0020328
598	0.0039633
610	0.0024453
622	0.0015675
634	0.0005907
646	0.0003333
658	0.0003135
670	0.0006105
682	0.0017853
694	0.0053526
706	0.0131802
718	0.0220341
730	0.0285219
742	0.0175857
754	0.0087516
766	0.0047025
778	0.0056133
790	0.0073425
802	0.0070719
814	0.0043395
826	0.0021384
838	0.0010065
850	0.0006369
862	0.0007557
874	0.0018513
886	0.0034617
898	0.0057321
910	0.0065934
922	0.0065538
934	0.0046101
946	0.0031284
958	0.0035277
970	0.0045969
982	0.00693
994	0.0113817
1006	0.011385
1018	0.0095238
1030	0.0040623
1042	0.0021219
1054	0.0022143
1066	0.0025278
1078	0.0033264
1090	0.0030855
1102	0.0023991
1114	0.0011781
1126	0.0026433
1138	0.0086394
1150	0.0103917
1162	0.0078243
1174	0.0044979
1186	0.0054417
1198	0.0056463
1210	0.0048312
1222	0.0039501
1234	0.0027489
1246	0.001716
1258	0.0011781
1270	0.0013134
1282	0.001353
1294	0.0015147
1306	0.0023826
1318	0.0045342
1330	0.0049797
1342	0.0035805
1354	0.0015642
1366	0.0014487
1378	0.0019899
1390	0.0024519
1402	0.0022638
1414	0.0020889
1426	0.002871
1438	0.0050886
1450	0.0063657
1462	0.0061314
1474	0.0046002
1486	0.0056925
1498	0.0097185
1510	0.0106722
1522	0.0081972
1534	0.0043791
1546	0.0029667
1558	0.0029964
1570	0.0042075
1582	0.0060489
1594	0.0061743
1606	0.0045936
1618	0.0020361
1630	0.0013134
1642	0.0011517
1654	0.0009207
1666	0.000693
1678	0.0007524
1690	0.0013662
1702	0.0013596
1714	0.0009636
1726	0.0003267
1738	0.0001716
1750	0.0001485
1762	0.0001419
1774	7.26e-05
1786	6.93e-05
1798	7.26e-05
1810	9.57e-05
1822	8.58e-05
1834	5.61e-05
1846	4.29e-05
1858	7.59e-05
1870	5.94e-05
1882	4.95e-05
1894	6.6e-05
1906	8.25e-05
1918	0.0001089
1930	0.0001089
1942	6.6e-05
1954	5.61e-05
1966	5.61e-05
1978	7.59e-05
1990	0.0001881
2002	0.0002475
2014	0.0002772
2026	0.0001815
2038	0.000165
2050	0.0001848
2062	0.000264
2074	0.0002937
2086	0.0002475
2098	0.0002673
2110	0.0002079
2122	0.0001353
2134	0.0001056
2146	0.0001353
2158	7.92e-05
2170	8.91e-05
2182	0.0001254
2194	0.0001848
2206	0.0002376
2218	0.00033
2230	0.00033
2242	0.0002706
2254	0.0002178
2266	0.0002145
2278	0.0001881
2290	0.000198
2302	0.0001683
2314	0.0001056
2326	0.0001122
2338	0.0001386
2350	0.0002277
2362	0.0001881
2374	0.0002376
2386	0.0001452
2398	0.0001617
2410	0.000198
2422	0.0002343
2434	0.0001947
2446	0.0001353
2458	0.0001254
2470	0.0001089
2482	7.26e-05
2494	8.91e-05
2506	7.26e-05
2518	6.6e-05
2530	8.91e-05
2542	7.59e-05
2554	6.6e-05
2566	0.0001221
2578	0.000132
2590	0.0002145
2602	0.0002046
2614	0.0001848
2626	0.0002277
2638	0.0003564
2650	0.0004785
2662	0.0003993
2674	0.0002838
2686	0.0002607
2698	0.0001815
2710	0.0002343
2722	0.0002937
2734	0.0003993
2746	0.0004653
2758	0.0005016
2770	0.000561
2782	0.0006369
2794	0.0007062
2806	0.0008514
2818	0.0011616
2830	0.0016236
2842	0.0023925
2854	0.0036003
2866	0.0049896
2878	0.0070488
2890	0.0089595
2902	0.0101805
2914	0.0105567
2926	0.0125466
2938	0.0159786
2950	0.0168267
2962	0.0177639
2974	0.0223146
2986	0.0217635
2998	0.0136818
3010	0.0060522
3022	0.0032736
3034	0.0020163
3046	0.0013959
3058	0.0010263
3070	0.000924
3082	0.000924
3094	0.0012342
3106	0.0022209
3118	0.0030063
3130	0.002871
3142	0.0020922
3154	0.0017259
3166	0.0015246
3178	0.0007887
3190	0.0005379
3202	0.0002937
3214	0.000231
3226	0.0002013
3238	0.0001947
3250	0.0001617
3262	0.000132
3274	0.0001122
3286	0.0001056
3298	0.0001188
3310	0.0001122
3322	0.0001023
3334	0.0001056
3346	9.24e-05
3358	0.0001023
3370	5.61e-05
3382	0.0001254
3394	0.0001254
3406	9.24e-05
3418	0.0001122
3430	5.94e-05
3442	4.62e-05
3454	5.28e-05
3466	6.93e-05
3478	7.59e-05
3490	0.0001815
3502	0.0001353
3514	0.0001287
3526	8.25e-05
3538	0.0001254
3550	6.93e-05
3562	0.0001188
3574	8.25e-05
3586	8.58e-05
3598	0.0001089
3610	0.0001089
3622	0.0001221
3634	5.94e-05
3646	7.26e-05
3658	8.91e-05
3670	8.58e-05
3682	0.000132
3694	0.0001122
3706	0.0001155
3718	0.0001782
3730	0.0001188
3742	0.0001881
3754	0.0002013
3766	0.0001848
3778	0.0001254
3790	0.0001485
3802	9.24e-05
3814	8.58e-05
3826	0.0001023
3838	0.0001089
