Infrared Spectrum: 9-Phenyl-n-nonanol
Formula: C 15 H 24 O
CAS: 3208-26-2
State: gas
Origin: EPA-IR VAPOR PHASE LIBRARY
1/CM	ABSORBANCE
549.8	0.0018277
559.445	0.0017416
569.09	0.00271
578.734	0.0018086
588.379	0.00212
598.024	0.000734
607.669	0.0016885
617.313	0.0014528
626.958	0.001459
636.603	0.001786
646.248	0.001979
655.893	0.00269
665.537	0.00309
675.182	0.00465
684.827	0.0095
694.472	0.02071
704.116	0.01737
713.761	0.01279
723.406	0.01251
733.051	0.01551
742.695	0.01542
752.34	0.00889
761.985	0.00555
771.63	0.004
781.275	0.00309
790.919	0.00304
800.564	0.0029
810.209	0.00242
819.854	0.00203
829.498	0.00316
839.143	0.00325
848.788	0.00318
858.433	0.00246
868.078	0.00347
877.722	0.00346
887.367	0.00368
897.012	0.00464
906.657	0.00533
916.301	0.00463
925.946	0.0049
935.591	0.00484
945.236	0.00492
954.88	0.0058
964.525	0.00639
974.17	0.00633
983.815	0.00797
993.46	0.0086
1003.1	0.01039
1012.75	0.01371
1022.39	0.018
1032.04	0.02277
1041.68	0.0225
1051.33	0.02266
1060.97	0.01974
1070.62	0.01696
1080.26	0.01276
1089.91	0.00862
1099.55	0.00533
1109.2	0.00461
1118.84	0.000842
1128.49	0.00277
1138.13	0.000808
1147.78	0.00293
1157.42	0.0009382
1167.07	0.0016922
1176.71	0.003
1186.36	0.0017732
1196	0.001951
1205.64	0.00222
1215.29	0.0018831
1224.93	0.0016653
1234.58	0.00248
1244.22	0.00434
1253.87	0.00368
1263.51	0.0046
1273.16	0.00403
1282.8	0.00395
1292.45	0.00522
1302.09	0.00526
1311.74	0.00555
1321.38	0.00568
1331.03	0.00597
1340.67	0.00697
1350.32	0.00817
1359.96	0.00802
1369.61	0.00775
1379.25	0.00767
1388.9	0.00738
1398.54	0.00617
1408.18	0.0048
1417.83	0.00426
1427.47	0.00481
1437.12	0.00686
1446.76	0.01123
1456.41	0.01351
1466.05	0.011
1475.7	0.00772
1485.34	0.00724
1494.99	0.0115
1504.63	0.00622
1514.28	0.00294
1523.92	0.00232
1533.57	0.00246
1543.21	0.00228
1552.86	0.0018536
1562.5	0.00205
1572.15	0.00247
1581.79	0.00318
1591.44	0.00429
1601.08	0.00671
1610.73	0.00441
1620.37	0.00227
1630.01	0.0018722
1639.66	0.0017564
1649.3	0.0015745
1658.95	0.0015588
1668.59	0.0014341
1678.24	0.0013434
1687.88	0.0014328
1697.53	0.0014289
1707.17	0.0017737
1716.82	0.0015317
1726.46	0.0016795
1736.11	0.0014021
1745.75	0.0015197
1755.4	0.0012915
1765.04	0.001434
1774.69	0.0014516
1784.33	0.00211
1793.98	0.00241
1803.62	0.0018384
1813.27	0.001602
1822.91	0.0015823
1832.55	0.0014135
1842.2	0.0019798
1851.84	0.0017867
1861.49	0.00219
1871.13	0.00235
1880.78	0.0018444
1890.42	0.001863
1900.07	0.0015965
1909.71	0.0018661
1919.36	0.0016762
1929	0.00249
1938.65	0.00245
1948.29	0.00279
1957.94	0.00221
1967.58	0.0016421
1977.23	0.0018336
1986.87	0.0017729
1996.52	0.0018136
2006.16	0.0016808
2015.81	0.0018914
2025.45	0.00205
2035.1	0.0018268
2044.74	0.0018664
2054.38	0.0019265
2064.03	0.0016694
2073.67	0.001866
2083.32	0.0019645
2092.96	0.0015427
2102.61	0.0016383
2112.25	0.0016605
2121.9	0.0018512
2131.54	0.0018741
2141.19	0.0018906
2150.83	0.0015669
2160.48	0.0017788
2170.12	0.0019078
2179.77	0.0017774
2189.41	0.0018633
2199.06	0.0017678
2208.7	0.00202
2218.35	0.0018239
2227.99	0.001716
2237.64	0.00203
2247.28	0.0019324
2256.92	0.0019818
2266.57	0.0019372
2276.21	0.00203
2285.86	0.0018256
2295.5	0.0016685
2305.15	0.0019904
2314.79	0.00204
2324.44	0.00224
2334.08	0.0017123
2343.73	0.0019272
2353.37	0.0019506
2363.02	0.0016714
2372.66	0.00207
2382.31	0.0017926
2391.95	0.0016029
2401.6	0.001871
2411.24	0.00211
2420.89	0.0019949
2430.53	0.00212
2440.18	0.0017368
2449.82	0.001684
2459.47	0.00221
2469.11	0.00206
2478.75	0.00208
2488.4	0.00219
2498.04	0.00213
2507.69	0.0018223
2517.33	0.00212
2526.98	0.00207
2536.62	0.00219
2546.27	0.00226
2555.91	0.0018291
2565.56	0.0019771
2575.2	0.00249
2584.85	0.0024
2594.49	0.00246
2604.14	0.00253
2613.78	0.00233
2623.43	0.00269
2633.07	0.00284
2642.72	0.00278
2652.36	0.00296
2662.01	0.00341
2671.65	0.00343
2681.29	0.00331
2690.94	0.00301
2700.58	0.00344
2710.23	0.00316
2719.87	0.00375
2729.52	0.00404
2739.16	0.00397
2748.81	0.00339
2758.45	0.00398
2768.1	0.00445
2777.74	0.00464
2787.39	0.00544
2797.03	0.00564
2806.68	0.00619
2816.32	0.00748
2825.97	0.00925
2835.61	0.0124
2845.26	0.0201
2854.9	0.0395
2864.55	0.05726
2874.19	0.04588
2883.84	0.03544
2893.48	0.0344
2903.12	0.0433
2912.77	0.0617
2922.41	0.09735
2932.06	0.14324
2941.7	0.12581
2951.35	0.06721
2960.99	0.03415
2970.64	0.02046
2980.28	0.01283
2989.93	0.00942
2999.57	0.00803
3009.22	0.00974
3018.86	0.01248
3028.51	0.01922
3038.15	0.01728
3047.8	0.01126
3057.44	0.01128
3067.09	0.01686
3076.73	0.01441
3086.38	0.01094
3096.02	0.00784
3105.67	0.00602
3115.31	0.00344
3124.95	0.00233
3134.6	0.0019667
3144.24	0.00237
3153.89	0.00213
3163.53	0.0018174
3173.18	0.00213
3182.82	0.00206
3192.47	0.00232
3202.11	0.0018174
3211.76	0.0018239
3221.4	0.0015178
3231.05	0.00201
3240.69	0.0019511
3250.34	0.0017005
3259.98	0.0018062
3269.63	0.0019647
3279.27	0.0018947
3288.92	0.0016884
3298.56	0.0013928
3308.21	0.00201
3317.85	0.0011608
3327.49	0.0015272
3337.14	0.0014517
3346.78	0.00217
3356.43	0.001268
3366.07	0.00218
3375.72	0.00201
3385.36	0.001625
3395.01	0.002
3404.65	0.001377
3414.3	0.0016004
3423.94	0.0014179
3433.59	0.00208
3443.23	0.00211
3452.88	0.0018035
3462.52	0.0016482
3472.17	0.0016632
3481.81	0.0019996
3491.46	0.0015667
3501.1	0.00109543
3510.75	0.00104153
3520.39	0.0012694
3530.04	0.0019394
3539.68	0.001434
3549.32	0.0019483
3558.97	0.0011517
3568.61	0.0012884
3578.26	0.0016668
3587.9	0.0012908
3597.55	0.0013288
3607.19	0.0016974
3616.84	0.001733
3626.48	0.00204
3636.13	0.00298
3645.77	0.00397
3655.42	0.00587
3665.06	0.00738
3674.71	0.00641
3684.35	0.00425
3694	0.00271
3703.64	0.00259
3713.29	0.0016008
3722.93	0.0013565
3732.58	0.0018989
3742.22	0.0019015
3751.86	0.00281
3761.51	0.00215
3771.15	0.001726
3780.8	0.0018151
3790.44	0.00176
3800.09	0.00256
3809.73	0.00218
3819.38	0.0014295
3829.02	0.0017767
3838.67	0.00251
3848.31	0.00209
3857.96	0.00203
3867.6	0.0017588
3877.25	0.00258
3886.89	0.00219
3896.54	0.001768
3906.18	0.0012993
3915.83	0.0017652
3925.47	0.00238
3935.12	0.0019765
3944.76	0.0019325
3954.41	0.00243
3964.05	0.001733
3973.69	0.00219
3983.34	0.0017412
3992.98	0.00215
