Infrared Spectrum: 7-Phenyl-n-heptanol
Formula: C 13 H 20 O
CAS: 3208-25-1
State: gas
Origin: EPA-IR VAPOR PHASE LIBRARY
1/CM	ABSORBANCE
549.8	0.002742
559.445	0.002282
569.09	0.003812
578.734	0.003302
588.379	0.002462
598.024	0.002262
607.669	0.002092
617.313	0.002512
626.958	0.002332
636.603	0.002922
646.248	0.002802
655.893	0.002152
665.537	0.002692
675.182	0.003332
684.827	0.006242
694.472	0.010992
704.116	0.009032
713.761	0.007762
723.406	0.007642
733.051	0.008712
742.695	0.008552
752.34	0.005032
761.985	0.003242
771.63	0.002722
781.275	0.002082
790.919	0.001715
800.564	0.002382
810.209	0.001862
819.854	0.005582
829.498	0.0014528
839.143	0.002082
848.788	0.0016727
858.433	0.002012
868.078	0.001852
877.722	0.002152
887.367	0.002812
897.012	0.002572
906.657	0.003362
916.301	0.003072
925.946	0.002282
935.591	0.002582
945.236	0.002472
954.88	0.003532
964.525	0.003102
974.17	0.003142
983.815	0.004492
993.46	0.004452
1003.1	0.006142
1012.75	0.007072
1022.39	0.008862
1032.04	0.010772
1041.68	0.011462
1051.33	0.012232
1060.97	0.011402
1070.62	0.008592
1080.26	0.008182
1089.91	0.006142
1099.55	0.005682
1109.2	0.006772
1118.84	0.005772
1128.49	0.006312
1138.13	0.004182
1147.78	0.006322
1157.42	0.006112
1167.07	0.004532
1176.71	0.006852
1186.36	0.005752
1196	0.007802
1205.64	0.006802
1215.29	0.007122
1224.93	0.010032
1234.58	0.008712
1244.22	0.006202
1253.87	0.004982
1263.51	0.005512
1273.16	0.004642
1282.8	0.004422
1292.45	0.004342
1302.09	0.004042
1311.74	0.003772
1321.38	0.004012
1331.03	0.003962
1340.67	0.004452
1350.32	0.004862
1359.96	0.004872
1369.61	0.004702
1379.25	0.004862
1388.9	0.004782
1398.54	0.004272
1408.18	0.003592
1417.83	0.003462
1427.47	0.003422
1437.12	0.004592
1446.76	0.006292
1456.41	0.007032
1466.05	0.006222
1475.7	0.004712
1485.34	0.004632
1494.99	0.006962
1504.63	0.003962
1514.28	0.002022
1523.92	0.0018032
1533.57	0.001962
1543.21	0.001922
1552.86	0.0015527
1562.5	0.001822
1572.15	0.001952
1581.79	0.002162
1591.44	0.003072
1601.08	0.004022
1610.73	0.002892
1620.37	0.001952
1630.01	0.001882
1639.66	0.0016065
1649.3	0.0014988
1658.95	0.001672
1668.59	0.0012654
1678.24	0.0015194
1687.88	0.0016824
1697.53	0.0016908
1707.17	0.001962
1716.82	0.0016079
1726.46	0.0017191
1736.11	0.0017168
1745.75	0.001932
1755.4	0.001932
1765.04	0.0017563
1774.69	0.001852
1784.33	0.002142
1793.98	0.002522
1803.62	0.001992
1813.27	0.001922
1822.91	0.001832
1832.55	0.001992
1842.2	0.0017577
1851.84	0.001912
1861.49	0.001902
1871.13	0.001932
1880.78	0.0016736
1890.42	0.0017278
1900.07	0.0014606
1909.71	0.0015504
1919.36	0.0015617
1929	0.001862
1938.65	0.001872
1948.29	0.002002
1957.94	0.0015805
1967.58	0.0014074
1977.23	0.0014328
1986.87	0.0011928
1996.52	0.0013724
2006.16	0.0013393
2015.81	0.0013026
2025.45	0.0012972
2035.1	0.0013783
2044.74	0.0011698
2054.38	0.0012039
2064.03	0.0010972
2073.67	0.0011734
2083.32	0.0011294
2092.96	0.0012034
2102.61	0.0011199
2112.25	0.0011319
2121.9	0.0010926
2131.54	0.0010307
2141.19	0.00091936
2150.83	0.0009804
2160.48	0.0009849
2170.12	0.0011371
2179.77	0.0009397
2189.41	0.0012107
2199.06	0.00089424
2208.7	0.0009236
2218.35	0.0010571
2227.99	0.00089769
2237.64	0.0011627
2247.28	0.00087261
2256.92	0.0009947
2266.57	0.000954
2276.21	0.000807
2285.86	0.0011609
2295.5	0.00119
2305.15	0.0013656
2314.79	0.0010647
2324.44	0.0012234
2334.08	0.0007587
2343.73	0.0009963
2353.37	0.0010941
2363.02	0.00084727
2372.66	0.0009525
2382.31	0.00089062
2391.95	0.0011941
2401.6	0.00085828
2411.24	0.0009064
2420.89	0.0010055
2430.53	0.0011251
2440.18	0.00088742
2449.82	0.0012679
2459.47	0.000464
2469.11	0.000627
2478.75	0.000933
2488.4	0.0009277
2498.04	0.0009228
2507.69	0.0007331
2517.33	0.0007636
2526.98	0.0009981
2536.62	0.0011408
2546.27	0.0011248
2555.91	0.0009353
2565.56	0.0009542
2575.2	0.0010239
2584.85	0.00058
2594.49	0.0010775
2604.14	0.0011601
2613.78	0.0011806
2623.43	0.0010647
2633.07	0.0012251
2642.72	0.00084802
2652.36	0.0011607
2662.01	0.00091839
2671.65	0.0012095
2681.29	0.0014509
2690.94	0.0014276
2700.58	0.0017285
2710.23	0.0013545
2719.87	0.0014969
2729.52	0.0012627
2739.16	0.0015942
2748.81	0.0009902
2758.45	0.0014958
2768.1	0.0014543
2777.74	0.0015347
2787.39	0.002012
2797.03	0.002332
2806.68	0.002452
2816.32	0.002902
2825.97	0.003812
2835.61	0.004672
2845.26	0.008172
2854.9	0.014642
2864.55	0.020322
2874.19	0.018912
2883.84	0.015212
2893.48	0.014312
2903.12	0.017242
2912.77	0.023712
2922.41	0.035242
2932.06	0.050652
2941.7	0.048572
2951.35	0.028532
2960.99	0.014882
2970.64	0.008672
2980.28	0.004982
2989.93	0.004222
2999.57	0.003122
3009.22	0.003632
3018.86	0.005742
3028.51	0.009462
3038.15	0.008442
3047.8	0.005552
3057.44	0.005292
3067.09	0.008762
3076.73	0.008072
3086.38	0.004892
3096.02	0.003862
3105.67	0.002212
3115.31	0.001912
3124.95	0.0014345
3134.6	0.0012512
3144.24	0.0011949
3153.89	0.001457
3163.53	0.0012529
3173.18	0.00088585
3182.82	0.00133
3192.47	0.000364
3202.11	0.0011642
3211.76	0.0009985
3221.4	0.000778
3231.05	0.0012953
3240.69	0.000828534
3250.34	0.000384
3259.98	0.000615
3269.63	0.0007291
3279.27	0.0012391
3288.92	0.000698
3298.56	0.000555
3308.21	0.0010391
3317.85	0.0010296
3327.49	0.0013571
3337.14	0.000577
3346.78	0.00082835
3356.43	0.0014064
3366.07	0.00090195
3375.72	0.000515
3385.36	0.0011046
3395.01	0.0014435
3404.65	0.0014999
3414.3	0.0016226
3423.94	0.000497
3433.59	0.0011552
3443.23	0.0009554
3452.88	0.0013847
3462.52	0.0014122
3472.17	0.0011724
3481.81	0.000631
3491.46	0.0016175
3501.1	0.0014295
3510.75	0.0017297
3520.39	0.0012598
3530.04	0.0011596
3539.68	0.000978
3549.32	0.0013815
3558.97	0.000572
3568.61	0.0010302
3578.26	0.000394
3587.9	0.0008104
3597.55	0.0011866
3607.19	0.0011042
3616.84	0.0014301
3626.48	0.0017708
3636.13	0.002422
3645.77	0.002412
3655.42	0.003392
3665.06	0.003332
3674.71	0.003512
3684.35	0.002332
3694	0.002082
3703.64	0.001902
3713.29	0.0012288
3722.93	0.0013482
3732.58	0.0014881
3742.22	0.00083334
3751.86	0.0012349
3761.51	0.0009969
3771.15	0.0010703
3780.8	0.000632
3790.44	0.0006
3800.09	0.000632
3809.73	0.0017885
3819.38	0.0010895
3829.02	0.000592
3838.67	0.0007524
3848.31	0.001165
3857.96	0.0009901
3867.6	0.0014098
3877.25	0.0014813
3886.89	0.0007524
3896.54	0.0014282
3906.18	0.0016763
3915.83	0.0011013
3925.47	0.0011434
3935.12	0.000976
3944.76	0.0007647
3954.41	0.0011847
3964.05	0.000651
3973.69	0.0007291
3983.34	0.000292
3992.98	0.0007913
