Infrared Spectrum: 2-Pyrimidinethiol, 4-hydrazino-
Formula: C4 H6 N4 S
CAS: 32084-28-9
State: SOLID (0.8 mg / 650 mg KBr DISC)
Class: COBLENTZ III
Instrument: PERKIN-ELMER 21 (GRATING)
Instrument parameters: FILTER CHANGE ABOUT 1070 CM^-^1
Resolution: 2
Origin: SOUTHERN RESEARCH INSTITUTE
1/CM	TRANSMITTANCE
619.908	0.9546
627.911	0.9361
635.913	0.9166
643.916	0.9086
651.919	0.9132
659.922	0.9159
667.924	0.9129
675.927	0.9066
683.93	0.89
691.933	0.7956
699.935	0.9006
707.938	0.9134
715.941	0.902
723.944	0.8904
731.946	0.8782
739.949	0.8642
747.952	0.8507
755.955	0.8388
763.957	0.8268
771.96	0.8124
779.963	0.7971
787.966	0.7793
795.968	0.7705
803.971	0.7707
811.974	0.7729
819.977	0.7619
827.979	0.7397
835.982	0.7255
843.985	0.7593
851.988	0.7987
859.99	0.8206
867.993	0.8289
875.996	0.8279
883.999	0.8209
892.001	0.811
900.004	0.7956
908.007	0.7661
916.01	0.7394
924.012	0.6986
932.015	0.6422
940.018	0.54
948.021	0.4518
956.023	0.4861
964.026	0.5041
972.029	0.4695
980.032	0.4745
988.034	0.6384
996.037	0.7911
1004.04	0.8184
1012.04	0.8163
1020.05	0.8063
1028.05	0.787
1036.05	0.7823
1044.05	0.7986
1052.06	0.7959
1060.06	0.7819
1068.06	0.7456
1076.06	0.6926
1084.07	0.5198
1092.07	0.6111
1100.07	0.8062
1108.08	0.8147
1116.08	0.8157
1124.08	0.812
1132.08	0.7931
1140.09	0.7253
1148.09	0.6318
1156.09	0.5364
1164.09	0.6752
1172.1	0.8295
1180.1	0.8596
1188.1	0.8657
1196.11	0.8665
1204.11	0.865
1212.11	0.8638
1220.11	0.8624
1228.12	0.86
1236.12	0.8572
1244.12	0.8452
1252.12	0.8296
1260.13	0.8133
1268.13	0.7979
1276.13	0.778
1284.14	0.7665
1292.14	0.7617
1300.14	0.7411
1308.14	0.7144
1316.15	0.6629
1324.15	0.6051
1332.15	0.627
1340.16	0.6932
1348.16	0.7267
1356.16	0.7551
1364.16	0.7746
1372.17	0.7764
1380.17	0.7701
1388.17	0.7536
1396.17	0.7352
1404.18	0.6828
1412.18	0.6171
1420.18	0.7215
1428.19	0.754
1436.19	0.7447
1444.19	0.7242
1452.19	0.6773
1460.2	0.6458
1468.2	0.5878
1476.2	0.512
1484.2	0.327
1492.21	0.1941
1500.21	0.1346
1508.21	0.2795
1516.22	0.6115
1524.22	0.7444
1532.22	0.7467
1540.22	0.7432
1548.23	0.7096
1556.23	0.6841
1564.23	0.6173
1572.23	0.5128
1580.24	0.3899
1588.24	0.1835
1596.24	0.1946
1604.25	0.4147
1612.25	0.4132
1620.25	0.3528
1628.25	0.2654
1636.26	0.1306
1644.26	0.2251
1652.26	0.4157
1660.26	0.6371
1668.27	0.7051
1676.27	0.7825
1684.27	0.8265
1692.28	0.8591
1700.28	0.8763
1708.28	0.8872
1716.28	0.8927
1724.29	0.8986
1732.29	0.9036
1740.29	0.9072
1748.29	0.9105
1756.3	0.9113
1764.3	0.9136
1772.3	0.9173
1780.31	0.921
1788.31	0.9266
1796.31	0.9325
1804.31	0.9325
1812.32	0.9321
1820.32	0.9312
1828.32	0.9299
1836.33	0.9283
1844.33	0.9256
1852.33	0.9255
1860.33	0.9257
1868.34	0.9252
1876.34	0.9243
1884.34	0.9235
1892.34	0.9227
1900.35	0.9225
1908.35	0.9219
1916.35	0.9206
1924.36	0.9193
1932.36	0.9172
1940.36	0.915
1948.36	0.9129
1956.37	0.9113
1964.37	0.9101
1972.37	0.9088
1980.37	0.9078
1988.38	0.9067
1996.38	0.9057
2004.38	0.9045
2012.39	0.9038
2020.39	0.9034
2028.39	0.9037
2036.39	0.9035
2044.4	0.9027
2052.4	0.9019
2060.4	0.9012
2068.4	0.9004
2076.41	0.8996
2084.41	0.8986
2092.41	0.8974
2100.42	0.8962
2108.42	0.8952
2116.42	0.8941
2124.42	0.8935
2132.43	0.8931
2140.43	0.8926
2148.43	0.8905
2156.43	0.8884
2164.44	0.8862
2172.44	0.8839
2180.44	0.882
2188.45	0.8807
2196.45	0.8793
2204.45	0.8778
2212.45	0.8763
2220.46	0.8748
2228.46	0.8733
2236.46	0.8719
2244.47	0.8706
2252.47	0.8694
2260.47	0.8676
2268.47	0.8659
2276.48	0.8639
2284.48	0.8619
2292.48	0.8599
2300.48	0.8584
2308.49	0.8576
2316.49	0.857
2324.49	0.8535
2332.5	0.8473
2340.5	0.8432
2348.5	0.8404
2356.5	0.838
2364.51	0.8356
2372.51	0.8324
2380.51	0.8285
2388.51	0.8243
2396.52	0.8199
2404.52	0.8155
2412.52	0.8106
2420.53	0.8052
2428.53	0.7998
2436.53	0.7934
2444.53	0.7901
2452.54	0.7874
2460.54	0.7838
2468.54	0.7801
2476.54	0.7764
2484.55	0.7721
2492.55	0.7665
2500.55	0.7606
2508.56	0.7547
2516.56	0.7481
2524.56	0.7414
2532.56	0.7346
2540.57	0.7278
2548.57	0.7191
2556.57	0.7104
2564.57	0.7017
2572.58	0.6935
2580.58	0.6856
2588.58	0.6778
2596.59	0.6702
2604.59	0.6626
2612.59	0.6555
2620.59	0.6493
2628.6	0.6431
2636.6	0.6371
2644.6	0.633
2652.61	0.6301
2660.61	0.6275
2668.61	0.6184
2676.61	0.608
2684.62	0.5974
2692.62	0.5861
2700.62	0.5751
2708.62	0.5647
2716.63	0.5561
2724.63	0.5491
2732.63	0.5442
2740.64	0.5405
2748.64	0.5373
2756.64	0.5348
2764.64	0.534
2772.65	0.5344
2780.65	0.5354
2788.65	0.5361
2796.65	0.5363
2804.66	0.534
2812.66	0.53
2820.66	0.5237
2828.67	0.5166
2836.67	0.5082
2844.67	0.4991
2852.67	0.4898
2860.68	0.4797
2868.68	0.4697
2876.68	0.4602
2884.68	0.4498
2892.69	0.4387
2900.69	0.43
2908.69	0.4301
2916.7	0.4392
2924.7	0.4555
2932.7	0.4712
2940.7	0.4864
2948.71	0.5
2956.71	0.5009
2964.71	0.4951
2972.71	0.4833
2980.72	0.4705
2988.72	0.4577
2996.72	0.4499
3004.73	0.4519
3012.73	0.4559
3020.73	0.4579
3028.73	0.4553
3036.74	0.4459
3044.74	0.4328
3052.74	0.4172
3060.75	0.3956
3068.75	0.3813
3076.75	0.3753
3084.75	0.3695
3092.76	0.3635
3100.76	0.3521
3108.76	0.33
3116.76	0.3082
3124.77	0.2844
3132.77	0.2544
3140.77	0.2295
3148.78	0.2076
3156.78	0.1776
3164.78	0.1596
3172.78	0.1519
3180.79	0.1498
3188.79	0.1531
3196.79	0.1599
3204.79	0.174
3212.8	0.191
3220.8	0.2025
3228.8	0.2051
3236.81	0.2096
3244.81	0.2253
3252.81	0.2499
3260.81	0.3208
3268.82	0.3497
3276.82	0.3825
3284.82	0.4305
3292.82	0.4755
3300.83	0.5125
3308.83	0.5544
3316.83	0.5875
3324.84	0.6096
3332.84	0.6194
3340.84	0.6283
3348.84	0.6328
3356.85	0.6324
3364.85	0.6295
3372.85	0.6245
3380.85	0.6155
3388.86	0.6129
3396.86	0.6145
3404.86	0.6168
3412.87	0.6196
3420.87	0.6225
3428.87	0.6266
3436.87	0.6315
3444.88	0.6371
3452.88	0.6431
3460.88	0.6488
3468.89	0.6539
3476.89	0.6596
3484.89	0.6656
3492.89	0.6763
3500.9	0.6897
3508.9	0.6999
3516.9	0.7042
3524.9	0.7082
3532.91	0.7163
3540.91	0.7277
3548.91	0.7413
3556.92	0.7526
3564.92	0.763
3572.92	0.7731
3580.92	0.783
3588.93	0.7922
3596.93	0.8011
3604.93	0.8071
3612.93	0.8097
3620.94	0.8114
3628.94	0.8129
3636.94	0.8141
3644.95	0.8156
3652.95	0.817
3660.95	0.8176
3668.95	0.8175
3676.96	0.8173
3684.96	0.8171
3692.96	0.8168
3700.96	0.817
3708.97	0.8168
3716.97	0.8164
3724.97	0.8156
3732.98	0.8147
3740.98	0.8127
3748.98	0.8106
3756.98	0.8083
3764.99	0.806
3772.99	0.8045
3780.99	0.803
3788.99	0.8008
3797	0.7979
