Infrared Spectrum: 1-Fluoronaphthalene
Formula: C 10 H 7 F
CAS: 321-38-0
State: gas
Instrument: HP-GC/MS/IRD
Origin: NIST Mass Spectrometry Data Center
1/CM	ABSORBANCE
550	0.0009019
562	0.0051185
574	0.0028971
586	0.0004234
598	0.0001914
610	0.0001856
622	0.0003016
634	0.0001218
646	0
658	7.54e-05
670	0.0001276
682	0.0002639
694	0.001044
706	0.0030914
718	0.00261
730	0.001334
742	0.0032219
754	0.0132994
766	0.029
778	0.0172985
790	0.0217007
802	0.0108025
814	0.002668
826	0.0007511
838	0.000493
850	0.000957
862	0.0022562
874	0.0033118
886	0.0019952
898	0.0006699
910	0.000464
922	0.0003248
934	0.0004466
946	0.0006177
958	0.0009686
970	0.0005858
982	0.0005684
994	0.0014587
1006	0.0038831
1018	0.0037874
1030	0.0032799
1042	0.0033176
1054	0.0020822
1066	0.0056115
1078	0.0078213
1090	0.003161
1102	0.0005423
1114	0.0004524
1126	0.0003973
1138	0.0005481
1150	0.0013978
1162	0.0017023
1174	0.0007946
1186	0.0005075
1198	0.0006612
1210	0.0015428
1222	0.0068266
1234	0.0104342
1246	0.0072877
1258	0.0088566
1270	0.0082389
1282	0.0026361
1294	0.0007859
1306	0.0005017
1318	0.0004727
1330	0.0004524
1342	0.0008062
1354	0.0012528
1366	0.0017806
1378	0.0051939
1390	0.0154077
1402	0.015457
1414	0.0053621
1426	0.0029812
1438	0.0035438
1450	0.0049242
1462	0.0052432
1474	0.003799
1486	0.0023374
1498	0.0043413
1510	0.0063829
1522	0.0042601
1534	0.0012876
1546	0.0008584
1558	0.0020532
1570	0.0047763
1582	0.006699
1594	0.0084013
1606	0.0073718
1618	0.0031088
1630	0.002291
1642	0.0027115
1654	0.0015689
1666	0.000725
1678	0.0009106
1690	0.0008033
1702	0.0006438
1714	0.0007801
1726	0.0007888
1738	0.0010121
1750	0.001015
1762	0.0009686
1774	0.0005655
1786	0.0003422
1798	0.0006003
1810	0.0007076
1822	0.0009193
1834	0.0011745
1846	0.0006264
1858	0.0002436
1870	0.000145
1882	0.000174
1894	0.0006409
1906	0.0013514
1918	0.0012731
1930	0.0009135
1942	0.0008874
1954	0.0006003
1966	0.0002407
1978	0.0001189
1990	2.61e-05
2002	4.64e-05
2014	3.77e-05
2026	6.67e-05
2038	6.09e-05
2050	7.25e-05
2062	6.67e-05
2074	4.64e-05
2086	9.28e-05
2098	0.0001305
2110	0.0001247
2122	3.48e-05
2134	4.06e-05
2146	5.22e-05
2158	3.77e-05
2170	5.22e-05
2182	5.8e-05
2194	2.32e-05
2206	0.0001015
2218	6.67e-05
2230	7.25e-05
2242	8.99e-05
2254	0.000116
2266	0.0001305
2278	0.0001711
2290	0.0001769
2302	0.0002291
2314	0.0003074
2326	0.0002146
2338	0.0001566
2350	8.99e-05
2362	0.0001015
2374	0.0001015
2386	8.12e-05
2398	9.28e-05
2410	0.000116
2422	0.0002407
2434	0.0002088
2446	0.0001392
2458	0.0001218
2470	0.0001015
2482	9.28e-05
2494	0.0001363
2506	9.28e-05
2518	8.99e-05
2530	6.67e-05
2542	7.54e-05
2554	7.54e-05
2566	4.35e-05
2578	6.38e-05
2590	2.9e-05
2602	2.9e-05
2614	7.83e-05
2626	7.54e-05
2638	5.51e-05
2650	6.38e-05
2662	9.57e-05
2674	6.09e-05
2686	7.54e-05
2698	8.41e-05
2710	0.0001073
2722	0.0001798
2734	0.0001189
2746	7.83e-05
2758	8.7e-05
2770	8.12e-05
2782	6.96e-05
2794	0.0001102
2806	8.99e-05
2818	6.38e-05
2830	6.67e-05
2842	0.0001102
2854	9.28e-05
2866	0.000116
2878	0.0001305
2890	0.0001885
2902	0.0001595
2914	0.0002059
2926	0.0002291
2938	0.000348
2950	0.0004379
2962	0.0004756
2974	0.0004118
2986	0.0004408
2998	0.0006061
3010	0.0011397
3022	0.0015312
3034	0.0020967
3046	0.0047792
3058	0.0107445
3070	0.0122989
3082	0.0081577
3094	0.0051446
3106	0.0026245
3118	0.0007569
3130	0.0002784
3142	0.0001885
3154	0.0002001
3166	0.0002262
3178	0.0001711
3190	0.0001421
3202	0.000145
3214	8.7e-05
3226	0.0001305
3238	0.0001247
3250	0.0001015
3262	6.96e-05
3274	9.28e-05
3286	6.96e-05
3298	0.0001015
3310	0.0001102
3322	0.0001392
3334	0.0001421
3346	0.0001276
3358	0.0001102
3370	6.96e-05
3382	5.8e-05
3394	0
3406	5.51e-05
3418	0.0001044
3430	8.41e-05
3442	9.57e-05
3454	7.25e-05
3466	2.32e-05
3478	0.0001218
3490	0.0001015
3502	6.38e-05
3514	0.0001102
3526	3.48e-05
3538	0.0001276
3550	0.0001247
3562	0.0001392
3574	0.0001131
3586	0.0001508
3598	0.0001392
3610	0.0001218
3622	0.0001798
3634	0.0001305
3646	0.0001479
3658	0.000174
3670	0.0001305
3682	0.0001624
3694	0.0001566
3706	9.28e-05
3718	0.000174
3730	0.0001914
3742	0.0001392
3754	0.0001711
3766	0.0001566
3778	0.0002117
3790	0.0001595
3802	0.0002465
3814	0.0002755
3826	0.0001711
3838	0.0002349
