Infrared Spectrum: BIPHENYL, 2-FLUORO-
Formula: C12 H9 F
CAS: 321-60-8
State: SOLUTION (2% CCl4 FOR 3800-1330, 2% CS2 FOR 1330-440 CM^-^1)
Class: COBLENTZ III
Instrument: DOW KBr FOREPRISM-GRATING
Instrument parameters: BLAZED AT 3.5, 12.0, 20.0 MICRON AND CHANGED AT 5.0, 7.5, 14.9 MICRON
Sampling: TRANSMISSION
Path length: 0.011 CM, 0.011 CM
Resolution: 2
Origin: DOW CHEMICAL COMPANY
1/CM	TRANSMITTANCE
430	0.8913
439	0.891
448	0.8868
457	0.8805
466	0.8725
475	0.8615
484	0.8434
493	0.8866
502	0.8837
511	0.865
520	0.9
529	0.9028
538	0.9021
547	0.8648
556	0.8624
565	0.8605
574	0.903
583	0.9041
592	0.8983
601	0.8954
610	0.7899
619	0.8864
628	0.8799
637	0.8645
646	0.8447
655	0.8465
664	0.8621
673	0.8405
682	0.8292
691	0.6721
700	0.464
709	0.81
718	0.5562
727	0.8011
736	0.8204
745	0.7397
754	0.118
763	0.7384
772	0.7044
781	0.8502
790	0.8551
799	0.8563
808	0.8504
817	0.8236
826	0.5845
835	0.8215
844	0.7619
853	0.6968
862	0.7101
871	0.7514
880	0.7925
889	0.8336
898	0.8574
907	0.8577
916	0.8566
925	0.8678
934	0.8516
943	0.8668
952	0.8731
961	0.8711
970	0.8678
979	0.8691
988	0.8664
997	0.867
1006	0.8571
1015	0.8565
1024	0.8731
1033	0.8668
1042	0.8026
1051	0.8703
1060	0.8709
1069	0.8321
1078	0.8602
1087	0.8743
1096	0.8648
1105	0.7621
1114	0.8715
1123	0.8888
1132	0.8859
1141	0.8783
1150	0.8658
1159	0.8714
1168	0.8733
1177	0.8549
1186	0.8627
1195	0.8545
1204	0.7503
1213	0.7058
1222	0.7674
1231	0.8528
1240	0.8212
1249	0.6751
1258	0.8224
1267	0.8545
1276	0.8499
1285	0.8605
1294	0.8593
1303	0.8668
1312	0.8696
1321	0.8674
1330	0.8595
1339	0.8615
1348	0.8625
1357	0.8703
1366	0.8783
1375	0.8791
1384	0.8818
1393	0.8807
1402	0.8758
1411	0.863
1420	0.8531
1429	0.838
1438	0.7511
1447	0.8496
1456	0.825
1465	0.8145
1474	0.7184
1483	0.361
1492	0.7304
1501	0.7078
1510	0.6451
1519	0.6269
1528	0.5997
1537	0.5455
1546	0.4534
1555	0.457
1564	0.5237
1573	0.5881
1582	0.5735
1591	0.6445
1600	0.7158
1609	0.7906
1618	0.8249
1627	0.8542
1636	0.8758
1645	0.8831
1654	0.8786
1663	0.8718
1672	0.8775
1681	0.8714
1690	0.8667
1699	0.8809
1708	0.8757
1717	0.8777
1726	0.8696
1735	0.8681
1744	0.8683
1753	0.8658
1762	0.871
1771	0.8752
1780	0.8724
1789	0.8688
1798	0.8555
1807	0.8584
1816	0.8628
1825	0.8587
1834	0.8606
1843	0.8642
1852	0.8653
1861	0.8632
1870	0.8612
1879	0.8493
1888	0.858
1897	0.861
1906	0.8554
1915	0.8512
1924	0.8675
1933	0.8671
1942	0.8537
1951	0.8523
1960	0.8845
1969	0.8627
1978	0.8675
1987	0.8889
1996	0.9144
2005	0.9125
2014	0.9111
2023	0.9101
2032	0.9118
2041	0.9143
2050	0.9114
2059	0.9056
2068	0.9083
2077	0.9046
2086	0.9056
2095	0.9023
2104	0.9007
2113	0.9047
2122	0.9056
2131	0.9044
2140	0.9027
2149	0.9012
2158	0.9001
2167	0.8992
2176	0.8995
2185	0.8989
2194	0.8977
2203	0.8965
2212	0.8951
2221	0.8936
2230	0.8921
2239	0.8892
2248	0.8845
2257	0.8795
2266	0.8762
2275	0.8757
2284	0.8721
2293	0.8707
2302	0.873
2311	0.8775
2320	0.8821
2329	0.8871
2338	0.8902
2347	0.8921
2356	0.8982
2365	0.9016
2374	0.8939
2383	0.8901
2392	0.8901
2401	0.8899
2410	0.8891
2419	0.8884
2428	0.8881
2437	0.8877
2446	0.8873
2455	0.887
2464	0.8868
2473	0.8867
2482	0.8866
2491	0.8865
2500	0.8864
2509	0.886
2518	0.8856
2527	0.8852
2536	0.8848
2545	0.8844
2554	0.8846
2563	0.8847
2572	0.8849
2581	0.885
2590	0.8852
2599	0.8854
2608	0.8856
2617	0.8858
2626	0.886
2635	0.8861
2644	0.8859
2653	0.8857
2662	0.8858
2671	0.8867
2680	0.8874
2689	0.8873
2698	0.8871
2707	0.8871
2716	0.887
2725	0.8868
2734	0.8868
2743	0.8867
2752	0.8866
2761	0.8865
2770	0.8865
2779	0.8864
2788	0.8858
2797	0.8856
2806	0.8865
2815	0.8857
2824	0.8836
2833	0.8792
2842	0.8635
2851	0.8588
2860	0.8695
2869	0.875
2878	0.8738
2887	0.8703
2896	0.8645
2905	0.8523
2914	0.8415
2923	0.8454
2932	0.8593
2941	0.8739
2950	0.8751
2959	0.873
2968	0.8809
2977	0.8847
2986	0.8852
2995	0.881
3004	0.8766
3013	0.8613
3022	0.8348
3031	0.8096
3040	0.8236
3049	0.8291
3058	0.8065
3067	0.7958
3076	0.8298
3085	0.8286
3094	0.8565
3103	0.8786
3112	0.8841
3121	0.8898
3130	0.8914
3139	0.8917
3148	0.8917
3157	0.8911
3166	0.894
3175	0.8956
3184	0.8959
3193	0.8962
3202	0.8962
3211	0.8963
3220	0.8974
3229	0.8974
3238	0.8971
3247	0.8975
3256	0.8982
3265	0.898
3274	0.8978
3283	0.8975
3292	0.8973
3301	0.8974
3310	0.8975
3319	0.8975
3328	0.8977
3337	0.8978
3346	0.8975
3355	0.8968
3364	0.8961
3373	0.8953
3382	0.8947
3391	0.8942
3400	0.8938
3409	0.8932
3418	0.8928
3427	0.8923
3436	0.8918
3445	0.8914
3454	0.891
3463	0.8905
3472	0.89
3481	0.8894
3490	0.8889
3499	0.8884
3508	0.8881
3517	0.8877
3526	0.8873
3535	0.8868
3544	0.8866
3553	0.8859
3562	0.8851
3571	0.8823
3580	0.8718
3589	0.8887
3598	0.8889
3607	0.8887
3616	0.8885
3625	0.8885
3634	0.8892
3643	0.89
3652	0.8901
3661	0.8913
3670	0.8925
3679	0.8915
3688	0.8902
3697	0.8888
3706	0.8894
3715	0.8916
3724	0.8951
3733	0.8999
3742	0.9001
3751	0.8902
3760	0.8853
3769	0.8854
