Infrared Spectrum: 2-Fluoroanisole
Formula: C 7 H 7 F O
CAS: 321-28-8
State: gas
Instrument: HP-GC/MS/IRD
Origin: NIST Mass Spectrometry Data Center
1/CM	ABSORBANCE
550	0.0005684
562	0.0010927
574	0.0012152
586	0.001127
598	0.0007791
610	0.000294
622	0.0001274
634	0.0001862
646	9.31e-05
658	9.31e-05
670	0.0001029
682	0.0002156
694	0.0005096
706	0.0010682
718	0.0033418
730	0.0112553
742	0.0259455
754	0.0235102
766	0.0100891
778	0.0027685
790	0.0012054
802	0.000882
814	0.0014259
826	0.0034496
838	0.0042434
850	0.0029057
862	0.0011123
874	0.0005831
886	0.0005635
898	0.000637
910	0.0010192
922	0.0012936
934	0.0010339
946	0.0007056
958	0.000833
970	0.0011319
982	0.0017934
994	0.0032977
1006	0.0064974
1018	0.0104419
1030	0.0146706
1042	0.0132496
1054	0.0062034
1066	0.0023079
1078	0.001911
1090	0.0039788
1102	0.0082418
1114	0.0083692
1126	0.0037926
1138	0.001764
1150	0.0023765
1162	0.0033026
1174	0.0046697
1186	0.0060907
1198	0.0086926
1210	0.0149352
1222	0.0161259
1234	0.0118433
1246	0.0178605
1258	0.0358974
1270	0.0469812
1282	0.0344127
1294	0.0171108
1306	0.0109809
1318	0.0078302
1330	0.0037436
1342	0.0018522
1354	0.0013524
1366	0.0012299
1378	0.0013132
1390	0.0016807
1402	0.002009
1414	0.0022246
1426	0.0035917
1438	0.0061691
1450	0.0086044
1462	0.0102998
1474	0.009996
1486	0.0174783
1498	0.0423948
1510	0.0471919
1522	0.0230104
1534	0.0080164
1546	0.0036505
1558	0.0033222
1570	0.0044296
1582	0.0061201
1594	0.0073108
1606	0.0084966
1618	0.0071687
1630	0.0029057
1642	0.0011368
1654	0.0010094
1666	0.0009408
1678	0.0008771
1690	0.0007301
1702	0.0006566
1714	0.0005341
1726	0.0004949
1738	0.0006664
1750	0.0007889
1762	0.000882
1774	0.0008526
1786	0.0006762
1798	0.000588
1810	0.0005243
1822	0.0004802
1834	0.0004851
1846	0.0005782
1858	0.0006762
1870	0.000833
1882	0.0008869
1894	0.0007154
1906	0.000637
1918	0.0006615
1930	0.0005439
1942	0.0003528
1954	0.0002793
1966	0.0002499
1978	0.0003136
1990	0.0004655
2002	0.000735
2014	0.0010094
2026	0.0010682
2038	0.0009604
2050	0.0008232
2062	0.0006713
2074	0.0004753
2086	0.000343
2098	0.000343
2110	0.0003577
2122	0.0002842
2134	0.0002058
2146	0.0001568
2158	0.0001029
2170	8.33e-05
2182	6.86e-05
2194	9.31e-05
2206	0.0001127
2218	0.0001666
2230	0.0002352
2242	0.0003381
2254	0.0003724
2266	0.0003479
2278	0.0002303
2290	0.0002205
2302	0.0002695
2314	0.0002793
2326	0.0002009
2338	0.0002107
2350	0.0001666
2362	0.000147
2374	0.0001127
2386	8.33e-05
2398	7.35e-05
2410	0.0001372
2422	0.0002401
2434	0.0003381
2446	0.0002793
2458	0.0002401
2470	0.0001911
2482	0.0002254
2494	0.0002058
2506	0.0002156
2518	0.0002401
2530	0.000343
2542	0.000441
2554	0.0005194
2566	0.0005733
2578	0.0005292
2590	0.0003626
2602	0.0002597
2614	0.0001715
2626	0.0001323
2638	6.86e-05
2650	2.94e-05
2662	8.33e-05
2674	4.9e-05
2686	3.43e-05
2698	2.45e-05
2710	6.86e-05
2722	3.92e-05
2734	0.0001127
2746	0.000196
2758	0.0002205
2770	0.0002646
2782	0.000294
2794	0.0004557
2806	0.0006958
2818	0.0011515
2830	0.002254
2842	0.0043267
2854	0.0042777
2866	0.0024843
2878	0.0021609
2890	0.0025823
2902	0.0032291
2914	0.0038612
2926	0.0046697
2938	0.0066493
2950	0.0080703
2962	0.0072863
2974	0.0053459
2986	0.004557
2998	0.0049833
3010	0.0056987
3022	0.0045423
3034	0.0032144
3046	0.0036358
3058	0.0044835
3070	0.0053165
3082	0.0049833
3094	0.0032977
3106	0.0017003
3118	0.0008918
3130	0.0005243
3142	0.0003724
3154	0.0003136
3166	0.0002058
3178	0.0001176
3190	0.0001617
3202	0.0001176
3214	0.000147
3226	7.84e-05
3238	0.0001176
3250	5.39e-05
3262	0.0001421
3274	7.35e-05
3286	7.35e-05
3298	9.8e-05
3310	0
3322	7.84e-05
3334	0.0001225
3346	0.0001127
3358	0.0001127
3370	6.86e-05
3382	9.8e-05
3394	7.35e-05
3406	0.0001274
3418	8.82e-05
3430	0.0001176
3442	1.96e-05
3454	4.9e-05
3466	0.0001323
3478	0.0001029
3490	0.0001029
3502	0.0001225
3514	0.0001323
3526	0.0001225
3538	0.0001421
3550	3.92e-05
3562	2.94e-05
3574	7.84e-05
3586	0.0001225
3598	0.0001519
3610	0.0001372
3622	8.82e-05
3634	9.31e-05
3646	0.0001323
3658	0.0001323
3670	0.0001764
3682	0.0001519
3694	0.0001715
3706	0.0001764
3718	0.0002107
3730	0.0001127
3742	0.0001862
3754	0.0001372
3766	0.0001176
3778	0.0001127
3790	0.0002058
3802	0.0001715
3814	0.000147
3826	0.0001813
3838	0.0002401
