Infrared Spectrum: 1,2-Cyclobutanedicarbonitrile, trans
Formula: C6 H6 N2
CAS: 3211-20-9
Class: COBLENTZ III
Instrument: DOW KBr FOREPRISM-GRATING
Instrument parameters: BLAZED AT 3.5, 12.0, 20.0 MICRON AND CHANGED AT 5.0, 7.5, 14.9 MICRON
Sampling: TRANSMISSION
Path length: CAPILLARY
Resolution: LIQUID (NEAT)
Origin: DOW CHEMICAL COMPANY
1/CM	TRANSMITTANCE
3802	0.9904
3793	0.9895
3784	0.9875
3775	0.9857
3766	0.9848
3757	0.9843
3748	0.9877
3739	0.9971
3730	1.0002
3721	0.9955
3712	0.9857
3703	0.9835
3694	0.9792
3685	0.9784
3676	0.9795
3667	0.9754
3658	0.964
3649	0.959
3640	0.9575
3631	0.9545
3622	0.9549
3613	0.9552
3604	0.9545
3595	0.9525
3586	0.9512
3577	0.9518
3568	0.9518
3559	0.9505
3550	0.9466
3541	0.9421
3532	0.9418
3523	0.9474
3514	0.9521
3505	0.9541
3496	0.9556
3487	0.9574
3478	0.9594
3469	0.9611
3460	0.9624
3451	0.9637
3442	0.9648
3433	0.9653
3424	0.9659
3415	0.9662
3406	0.966
3397	0.9658
3388	0.9655
3379	0.9652
3370	0.965
3361	0.9648
3352	0.9645
3343	0.9592
3334	0.952
3325	0.9434
3316	0.9385
3307	0.9408
3298	0.9441
3289	0.9483
3280	0.9525
3271	0.9527
3262	0.9464
3253	0.9391
3244	0.9378
3235	0.9364
3226	0.9381
3217	0.9439
3208	0.9456
3199	0.9458
3190	0.9439
3181	0.942
3172	0.9403
3163	0.9388
3154	0.9375
3145	0.936
3136	0.9346
3127	0.9327
3118	0.9302
3109	0.9263
3100	0.9213
3091	0.9144
3082	0.9068
3073	0.8987
3064	0.8893
3055	0.8778
3046	0.8625
3037	0.8266
3028	0.733
3019	0.592
3010	0.5758
3001	0.6022
2992	0.6252
2983	0.4649
2974	0.3003
2965	0.34
2956	0.4653
2947	0.6903
2938	0.7568
2929	0.7907
2920	0.819
2911	0.8347
2902	0.845
2893	0.8489
2884	0.8137
2875	0.7915
2866	0.8278
2857	0.8732
2848	0.9055
2839	0.922
2830	0.9318
2821	0.9398
2812	0.947
2803	0.9509
2794	0.949
2785	0.9447
2776	0.9438
2767	0.9471
2758	0.949
2749	0.9493
2740	0.9483
2731	0.947
2722	0.9454
2713	0.9437
2704	0.942
2695	0.9402
2686	0.9409
2677	0.9425
2668	0.942
2659	0.9412
2650	0.9405
2641	0.9414
2632	0.9425
2623	0.9435
2614	0.9437
2605	0.9416
2596	0.9423
2587	0.944
2578	0.9434
2569	0.9416
2560	0.9391
2551	0.9374
2542	0.937
2533	0.9363
2524	0.9356
2515	0.9351
2506	0.9362
2497	0.9386
2488	0.941
2479	0.9396
2470	0.9361
2461	0.9331
2452	0.9303
2443	0.9252
2434	0.9197
2425	0.9123
2416	0.9102
2407	0.9117
2398	0.9134
2389	0.9131
2380	0.9093
2371	0.8996
2362	0.9033
2353	0.9092
2344	0.9183
2335	0.9218
2326	0.9182
2317	0.9147
2308	0.9088
2299	0.8997
2290	0.89
2281	0.8794
2272	0.8568
2263	0.7901
2254	0.2082
2245	0.3716
2236	0.8056
2227	0.8848
2218	0.9074
2209	0.918
2200	0.9156
2191	0.9096
2182	0.9247
2173	0.9281
2164	0.9308
2155	0.9334
2146	0.935
2137	0.934
2128	0.9336
2119	0.9348
2110	0.9363
2101	0.9381
2092	0.9402
2083	0.9415
2074	0.9428
2065	0.9424
2056	0.9418
2047	0.9411
2038	0.9405
2029	0.9399
2020	0.9398
2011	0.9391
2002	0.9386
1993	0.9388
1984	0.9384
1975	0.9389
1966	0.9401
1957	0.9391
1948	0.9402
1939	0.941
1930	0.9421
1921	0.9434
1912	0.945
1903	0.9459
1894	0.9462
1885	0.9462
1876	0.9454
1867	0.9448
1858	0.9445
1849	0.9437
1840	0.9428
1831	0.9425
1822	0.9423
1813	0.9427
1804	0.9425
1795	0.9417
1786	0.9405
1777	0.9382
1768	0.9404
1759	0.9411
1750	0.9364
1741	0.9341
1732	0.9321
1723	0.9255
1714	0.8975
1705	0.9018
1696	0.9116
1687	0.9145
1678	0.9253
1669	0.9324
1660	0.9354
1651	0.9391
1642	0.9297
1633	0.9207
1624	0.9173
1615	0.9191
1606	0.9235
1597	0.9278
1588	0.9288
1579	0.9251
1570	0.9252
1561	0.9285
1552	0.9282
1543	0.9249
1534	0.9212
1525	0.9178
1516	0.9142
1507	0.9114
1498	0.9082
1489	0.9024
1480	0.8897
1471	0.8474
1462	0.743
1453	0.7411
1444	0.5885
1435	0.814
1426	0.8581
1417	0.8817
1408	0.8938
1399	0.8983
1390	0.8853
1381	0.8849
1372	0.8871
1363	0.8631
1354	0.8566
1345	0.8856
1336	0.887
1327	0.8798
1318	0.8689
1309	0.8271
1300	0.8024
1291	0.8435
1282	0.8678
1273	0.8744
1264	0.8594
1255	0.8248
1246	0.6289
1237	0.7806
1228	0.8425
1219	0.7825
1210	0.6625
1201	0.7415
1192	0.8282
1183	0.8577
1174	0.8771
1165	0.8939
1156	0.9078
1147	0.9095
1138	0.9115
1129	0.9146
1120	0.9127
1111	0.9082
1102	0.9
1093	0.884
1084	0.856
1075	0.7998
1066	0.7586
1057	0.7653
1048	0.8548
1039	0.8793
1030	0.8834
1021	0.8628
1012	0.8648
1003	0.8448
994	0.8255
985	0.8601
976	0.8828
967	0.8768
958	0.8846
949	0.8464
940	0.8327
931	0.8065
922	0.6971
913	0.7858
904	0.8542
895	0.8721
886	0.8688
877	0.892
868	0.9053
859	0.9108
850	0.9125
841	0.9102
832	0.9077
823	0.9045
814	0.8808
805	0.8068
796	0.805
787	0.835
778	0.8583
769	0.8854
760	0.8698
751	0.8596
742	0.897
733	0.9049
724	0.9095
715	0.9113
706	0.9114
697	0.9118
688	0.9145
679	0.9208
670	0.9183
661	0.8982
652	0.8995
643	0.9017
634	0.9034
625	0.9031
616	0.9004
607	0.8939
598	0.8675
589	0.8502
580	0.8798
571	0.8804
562	0.8799
553	0.8742
544	0.8117
535	0.8072
526	0.8512
517	0.8558
508	0.825
499	0.7647
490	0.81
481	0.8076
472	0.7999
463	0.8043
