Infrared Spectrum: 4-Bromo-3-chlorophenyl isothiocyanate
Formula: C 7 H 3 Br Cl N S
CAS: 32118-33-5
State: gas
Origin: EPA-IR VAPOR PHASE LIBRARY
1/CM	ABSORBANCE
549.8	0.003208
559.445	0.004778
569.09	0.007468
578.734	0.006228
588.379	0.004818
598.024	0.005338
607.669	0.004518
617.313	0.003018
626.958	0.002448
636.603	0.002328
646.248	0.002268
655.893	0.002318
665.537	0.003228
675.182	0.006838
684.827	0.006868
694.472	0.002738
704.116	0.002098
713.761	0.002798
723.406	0.002878
733.051	0.002808
742.695	0.003198
752.34	0.005238
761.985	0.008648
771.63	0.018628
781.275	0.026888
790.919	0.024538
800.564	0.019958
810.209	0.026998
819.854	0.014678
829.498	0.004418
839.143	0.002908
848.788	0.003168
858.433	0.009468
868.078	0.021508
877.722	0.014248
887.367	0.004528
897.012	0.002848
906.657	0.003208
916.301	0.002988
925.946	0.002798
935.591	0.003118
945.236	0.004678
954.88	0.008758
964.525	0.023008
974.17	0.028028
983.815	0.011958
993.46	0.006178
1003.1	0.006648
1012.75	0.014328
1022.39	0.039588
1032.04	0.013038
1041.68	0.003008
1051.33	0.002158
1060.97	0.00145
1070.62	0.001658
1080.26	0.001878
1089.91	0.003238
1099.55	0.011258
1109.2	0.039078
1118.84	0.022838
1128.49	0.009188
1138.13	0.003658
1147.78	0.001588
1157.42	0.0014958
1167.07	0.0015028
1176.71	0.0014926
1186.36	0.001798
1196	0.0009474
1205.64	0.0011805
1215.29	0.001948
1224.93	0.002578
1234.58	0.003088
1244.22	0.004468
1253.87	0.005518
1263.51	0.007868
1273.16	0.014038
1282.8	0.009508
1292.45	0.002528
1302.09	0.0014228
1311.74	0.0012239
1321.38	0.0009497
1331.03	0.0010417
1340.67	0.0012662
1350.32	0.001958
1359.96	0.004028
1369.61	0.008188
1379.25	0.008838
1388.9	0.006708
1398.54	0.003928
1408.18	0.002848
1417.83	0.004298
1427.47	0.013208
1437.12	0.026568
1446.76	0.018168
1456.41	0.053908
1466.05	0.116348
1475.7	0.019638
1485.34	0.006268
1494.99	0.004898
1504.63	0.005568
1514.28	0.005828
1523.92	0.005358
1533.57	0.007558
1543.21	0.014768
1552.86	0.024358
1562.5	0.021908
1572.15	0.034008
1581.79	0.071108
1591.44	0.025468
1601.08	0.006318
1610.73	0.004798
1620.37	0.004678
1630.01	0.003628
1639.66	0.002358
1649.3	0.001718
1658.95	0.0014162
1668.59	0.0014477
1678.24	0.0015033
1687.88	0.001658
1697.53	0.001698
1707.17	0.001758
1716.82	0.001898
1726.46	0.002548
1736.11	0.003058
1745.75	0.003188
1755.4	0.002698
1765.04	0.002368
1774.69	0.002418
1784.33	0.002698
1793.98	0.002718
1803.62	0.002898
1813.27	0.003128
1822.91	0.003408
1832.55	0.003858
1842.2	0.004448
1851.84	0.004788
1861.49	0.005108
1871.13	0.006398
1880.78	0.008188
1890.42	0.009698
1900.07	0.011788
1909.71	0.016238
1919.36	0.023828
1929	0.035718
1938.65	0.049218
1948.29	0.060698
1957.94	0.073788
1967.58	0.093858
1977.23	0.121508
1986.87	0.164788
1996.52	0.216808
2006.16	0.258578
2015.81	0.295648
2025.45	0.389898
2035.1	0.439468
2044.74	0.263278
2054.38	0.163118
2064.03	0.166218
2073.67	0.228488
2083.32	0.290838
2092.96	0.228198
2102.61	0.132858
2112.25	0.088328
2121.9	0.080888
2131.54	0.084528
2141.19	0.070548
2150.83	0.043988
2160.48	0.027188
2170.12	0.020168
2179.77	0.017478
2189.41	0.017818
2199.06	0.018238
2208.7	0.013558
2218.35	0.009578
2227.99	0.008768
2237.64	0.009528
2247.28	0.010398
2256.92	0.007868
2266.57	0.004928
2276.21	0.004258
2285.86	0.003988
2295.5	0.003338
2305.15	0.002788
2314.79	0.002598
2324.44	0.002848
2334.08	0.003218
2343.73	0.002968
2353.37	0.002758
2363.02	0.002808
2372.66	0.002768
2382.31	0.002728
2391.95	0.002388
2401.6	0.002028
2411.24	0.001938
2420.89	0.002098
2430.53	0.002248
2440.18	0.002318
2449.82	0.002278
2459.47	0.002158
2469.11	0.002088
2478.75	0.002608
2488.4	0.003048
2498.04	0.003568
2507.69	0.003548
2517.33	0.002588
2526.98	0.002628
2536.62	0.002938
2546.27	0.003508
2555.91	0.003758
2565.56	0.003848
2575.2	0.004708
2584.85	0.005838
2594.49	0.007698
2604.14	0.009318
2613.78	0.007098
2623.43	0.003758
2633.07	0.002558
2642.72	0.002228
2652.36	0.002188
2662.01	0.001878
2671.65	0.0014998
2681.29	0.0012842
2690.94	0.0012973
2700.58	0.0014159
2710.23	0.0014698
2719.87	0.0014158
2729.52	0.0013876
2739.16	0.0014815
2748.81	0.001758
2758.45	0.001918
2768.1	0.002098
2777.74	0.002398
2787.39	0.002848
2797.03	0.003118
2806.68	0.003368
2816.32	0.003248
2825.97	0.002958
2835.61	0.002538
2845.26	0.0015437
2854.9	0.0014693
2864.55	0.0014354
2874.19	0.0014125
2883.84	0.0012867
2893.48	0.0010766
2903.12	0.0009405
2912.77	0.0011416
2922.41	0.001079
2932.06	0.0012625
2941.7	0.0011282
2951.35	0.0011189
2960.99	0.001143
2970.64	0.0013757
2980.28	0.0014754
2989.93	0.0015364
2999.57	0.001838
3009.22	0.0015041
3018.86	0.0013396
3028.51	0.0010892
3038.15	0.0010831
3047.8	0.0011706
3057.44	0.0010855
3067.09	0.001688
3076.73	0.001688
3086.38	0.0013039
3096.02	0.0008477
3105.67	0.0005696
3115.31	0.0005352
3124.95	0.000315
3134.6	0.000318
3144.24	0.000199
3153.89	0.000263
3163.53	0.000199
3173.18	0.000295
3182.82	0.000134
3192.47	0.000227
3202.11	0.00019
3211.76	0.000127
3221.4	0
3231.05	0.000221
3240.69	0.000218
3250.34	0.000243
3259.98	0.000284
3269.63	0.000245
3279.27	0.000403
3288.92	0.000143
3298.56	0.000258
3308.21	0.000113
3317.85	0.000201
3327.49	0.000208
3337.14	0.000287
3346.78	0.000113
3356.43	0.000253
3366.07	0.000225
3375.72	0.000249
3385.36	0.000287
3395.01	0.000397
3404.65	0.000195
3414.3	0.000333
3423.94	0.00039
3433.59	0.0005055
3443.23	0.000242
3452.88	0.000252
3462.52	0.000358
3472.17	0.000307
3481.81	0.000418
3491.46	0.000232
3501.1	0.000222
3510.75	0.000363
3520.39	0.000357
3530.04	0.000261
3539.68	0.00027
3549.32	0.000335
3558.97	0.000297
3568.61	0.00059949
3578.26	0.000249
3587.9	0.000268
3597.55	0.000213
3607.19	0.000305
3616.84	0.000331
3626.48	0.000246
3636.13	0.000279
3645.77	0.000359
3655.42	0.000318
3665.06	0.000337
3674.71	0.0004753
3684.35	0.0004598
3694	0.0005019
3703.64	0.000555469
3713.29	0.00056291
3722.93	0.000343
3732.58	0.0004998
3742.22	0.00048
3751.86	0.00056038
3761.51	0.00060343
3771.15	0.000424
3780.8	0.0004735
3790.44	0.000474
3800.09	0.00058021
3809.73	0.0004846
3819.38	0.0006953
3829.02	0.0004907
3838.67	0.0006616
3848.31	0.0008001
3857.96	0.0005976
3867.6	0.0009096
3877.25	0.0008336
3886.89	0.0006895
3896.54	0.0008062
3906.18	0.0008209
3915.83	0.0010411
3925.47	0.0010473
3935.12	0.0010448
3944.76	0.001127
3954.41	0.0014385
3964.05	0.001568
3973.69	0.001728
3983.34	0.001608
3992.98	0.001748
