Infrared Spectrum: 2,3-Dimethoxyphenethylamine
Formula: C 10 H 15 N O 2
CAS: 3213-29-4
State: gas
Origin: EPA-IR VAPOR PHASE LIBRARY
1/CM	ABSORBANCE
549.8	0.004301
559.445	0.004781
569.09	0.004421
578.734	0.004501
588.379	0.004581
598.024	0.004321
607.669	0.004591
617.313	0.004941
626.958	0.005161
636.603	0.005521
646.248	0.005731
655.893	0.006511
665.537	0.007931
675.182	0.009741
684.827	0.010961
694.472	0.011141
704.116	0.011781
713.761	0.012191
723.406	0.015181
733.051	0.027081
742.695	0.049831
752.34	0.048951
761.985	0.039611
771.63	0.041161
781.275	0.039971
790.919	0.033671
800.564	0.029841
810.209	0.024441
819.854	0.015681
829.498	0.010371
839.143	0.008981
848.788	0.008661
858.433	0.008511
868.078	0.007901
877.722	0.007261
887.367	0.006651
897.012	0.005621
906.657	0.005121
916.301	0.005171
925.946	0.005281
935.591	0.005391
945.236	0.005501
954.88	0.006071
964.525	0.006541
974.17	0.007801
983.815	0.010261
993.46	0.016181
1003.1	0.030951
1012.75	0.054251
1022.39	0.053211
1032.04	0.035721
1041.68	0.037271
1051.33	0.043651
1060.97	0.050141
1070.62	0.060811
1080.26	0.072111
1089.91	0.065331
1099.55	0.038571
1109.2	0.020421
1118.84	0.014261
1128.49	0.012041
1138.13	0.010061
1147.78	0.010121
1157.42	0.013651
1167.07	0.019541
1176.71	0.022171
1186.36	0.020731
1196	0.022151
1205.64	0.030391
1215.29	0.046351
1224.93	0.052661
1234.58	0.043221
1244.22	0.042041
1253.87	0.055861
1263.51	0.086241
1273.16	0.110201
1282.8	0.086001
1292.45	0.053201
1302.09	0.034681
1311.74	0.022611
1321.38	0.015751
1331.03	0.013321
1340.67	0.012511
1350.32	0.012321
1359.96	0.011721
1369.61	0.010921
1379.25	0.010931
1388.9	0.009881
1398.54	0.008851
1408.18	0.010551
1417.83	0.019691
1427.47	0.038271
1437.12	0.041001
1446.76	0.032101
1456.41	0.042541
1466.05	0.088611
1475.7	0.118671
1485.34	0.075541
1494.99	0.028921
1504.63	0.014321
1514.28	0.010011
1523.92	0.008241
1533.57	0.007461
1543.21	0.007281
1552.86	0.008181
1562.5	0.011221
1572.15	0.019471
1581.79	0.029891
1591.44	0.027781
1601.08	0.019351
1610.73	0.014391
1620.37	0.012941
1630.01	0.010641
1639.66	0.007161
1649.3	0.004911
1658.95	0.003681
1668.59	0.003051
1678.24	0.002691
1687.88	0.002601
1697.53	0.002511
1707.17	0.002441
1716.82	0.002231
1726.46	0.002211
1736.11	0.002091
1745.75	0.001961
1755.4	0.001871
1765.04	0.001841
1774.69	0.001801
1784.33	0.001721
1793.98	0.001891
1803.62	0.002261
1813.27	0.002461
1822.91	0.002651
1832.55	0.002491
1842.2	0.002121
1851.84	0.001791
1861.49	0.001501
1871.13	0.001481
1880.78	0.001731
1890.42	0.002531
1900.07	0.002831
1909.71	0.002301
1919.36	0.001681
1929	0.001531
1938.65	0.001521
1948.29	0.001611
1957.94	0.001711
1967.58	0.001721
1977.23	0.001861
1986.87	0.002021
1996.52	0.002211
2006.16	0.002661
2015.81	0.003181
2025.45	0.003391
2035.1	0.002741
2044.74	0.001931
2054.38	0.001581
2064.03	0.001461
2073.67	0.001421
2083.32	0.001501
2092.96	0.001401
2102.61	0.001341
2112.25	0.001291
2121.9	0.001201
2131.54	0.001301
2141.19	0.001351
2150.83	0.001381
2160.48	0.001391
2170.12	0.001291
2179.77	0.001171
2189.41	0.0011418
2199.06	0.0010302
2208.7	0.0008545
2218.35	0.0008976
2227.99	0.0008282
2237.64	0.0008155
2247.28	0.0007243
2256.92	0.0007763
2266.57	0.0009061
2276.21	0.0009206
2285.86	0.0008884
2295.5	0.0006708
2305.15	0.0005071
2314.79	0.0005819
2324.44	0.0006576
2334.08	0.0005825
2343.73	0.000506
2353.37	0.0005863
2363.02	0.0006366
2372.66	0.000614
2382.31	0.0007332
2391.95	0.0007446
2401.6	0.0008002
2411.24	0.0007579
2420.89	0.0007854
2430.53	0.0008559
2440.18	0.0009122
2449.82	0.0009221
2459.47	0.0008071
2469.11	0.0008667
2478.75	0.0008813
2488.4	0.0010416
2498.04	0.0010295
2507.69	0.0010714
2517.33	0.001211
2526.98	0.001351
2536.62	0.001461
2546.27	0.001511
2555.91	0.001501
2565.56	0.001541
2575.2	0.001381
2584.85	0.001271
2594.49	0.001331
2604.14	0.001221
2613.78	0.001311
2623.43	0.001331
2633.07	0.001271
2642.72	0.001361
2652.36	0.001381
2662.01	0.001331
2671.65	0.001431
2681.29	0.001511
2690.94	0.001771
2700.58	0.001731
2710.23	0.001811
2719.87	0.001961
2729.52	0.002211
2739.16	0.002541
2748.81	0.002611
2758.45	0.002741
2768.1	0.002811
2777.74	0.003221
2787.39	0.003731
2797.03	0.004801
2806.68	0.006901
2816.32	0.010581
2825.97	0.018381
2835.61	0.032321
2845.26	0.036081
2854.9	0.029571
2864.55	0.029011
2874.19	0.030801
2883.84	0.031401
2893.48	0.030611
2903.12	0.033561
2912.77	0.042021
2922.41	0.051241
2932.06	0.063481
2941.7	0.076411
2951.35	0.071351
2960.99	0.056171
2970.64	0.041611
2980.28	0.031331
2989.93	0.029461
2999.57	0.032231
3009.22	0.027721
3018.86	0.019841
3028.51	0.016391
3038.15	0.015081
3047.8	0.015121
3057.44	0.016001
3067.09	0.018191
3076.73	0.017611
3086.38	0.012881
3096.02	0.006861
3105.67	0.003701
3115.31	0.002631
3124.95	0.002181
3134.6	0.001731
3144.24	0.001431
3153.89	0.001371
3163.53	0.0011264
3173.18	0.0010622
3182.82	0.001
3192.47	0.0006546
3202.11	0.000632
3211.76	0.0006798
3221.4	0.0006935
3231.05	0.0003294
3240.69	0.0004447
3250.34	0.0004006
3259.98	0.0004871
3269.63	0.0004007
3279.27	0.0002617
3288.92	0.0002625
3298.56	0.0003454
3308.21	0.0002905
3317.85	0.0003449
3327.49	0.0004711
3337.14	0.0009028
3346.78	0.0010075
3356.43	0.00067
3366.07	0.000451
3375.72	0.0003836
3385.36	0.0003929
3395.01	0.0005355
3404.65	0.0005958
3414.3	0.0007171
3423.94	0.0005349
3433.59	0.0003626
3443.23	0.0002862
3452.88	0.0002722
3462.52	0.0004288
3472.17	0.00022376
3481.81	0.0002569
3491.46	0.000454
3501.1	0
3510.75	0.00017293
3520.39	0.00017469
3530.04	0.0002879
3539.68	0.0002637
3549.32	0.00015198
3558.97	0.0003589
3568.61	0.00023248
3578.26	4.7e-05
3587.9	0.0002811
3597.55	0.0002893
3607.19	0.0003896
3616.84	9.22e-05
3626.48	0.00014743
3636.13	0.00016612
3645.77	0.00016454
3655.42	0.0002654
3665.06	0.000157598
3674.71	0.00021141
3684.35	0.0002685
3694	0.00018741
3703.64	0.00018418
3713.29	0.0003904
3722.93	0.00014521
3732.58	0.0002875
3742.22	6.45e-05
3751.86	0.00019893
3761.51	0.0001265
3771.15	0.00022918
3780.8	0.00017448
3790.44	1.1e-05
3800.09	0.0002378
3809.73	0.000154782
3819.38	0.00021884
3829.02	0.0004571
3838.67	0.0005436
3848.31	0.0004316
3857.96	0.0003932
3867.6	0.0004748
3877.25	0.00023775
3886.89	0.0006386
3896.54	0.0005389
3906.18	0.0003906
3915.83	0.0006347
3925.47	0.0005297
3935.12	0.0004169
3944.76	0.0003602
3954.41	0.0003993
3964.05	0.0006149
3973.69	0.0004939
3983.34	0.000412
3992.98	0.0004426
