Infrared Spectrum: 2-(Trimethylsilyl)benzothiazole
Formula: C 10 H 13 N S Si
CAS: 32137-73-8
State: gas
Origin: EPA-IR VAPOR PHASE LIBRARY
1/CM	ABSORBANCE
549.8	0.002986
559.445	0.013006
569.09	0.008456
578.734	0.001846
588.379	0.002516
598.024	0.004986
607.669	0.006476
617.313	0.031186
626.958	0.043076
636.603	0.013216
646.248	0.009846
655.893	0.006676
665.537	0.004676
675.182	0.005526
684.827	0.009426
694.472	0.018736
704.116	0.032266
713.761	0.042146
723.406	0.052246
733.051	0.047316
742.695	0.044776
752.34	0.074826
761.985	0.087706
771.63	0.056456
781.275	0.029356
790.919	0.022296
800.564	0.026226
810.209	0.044906
819.854	0.082096
829.498	0.132606
839.143	0.171466
848.788	0.246856
858.433	0.227846
868.078	0.157836
877.722	0.078376
887.367	0.050846
897.012	0.036716
906.657	0.027346
916.301	0.018446
925.946	0.012906
935.591	0.011076
945.236	0.011086
954.88	0.018796
964.525	0.042186
974.17	0.061956
983.815	0.033066
993.46	0.016656
1003.1	0.015976
1012.75	0.030836
1022.39	0.010816
1032.04	0.003496
1041.68	0.002526
1051.33	0.004786
1060.97	0.012296
1070.62	0.018636
1080.26	0.016516
1089.91	0.009466
1099.55	0.002406
1109.2	0.003066
1118.84	0.006546
1128.49	0.004386
1138.13	0.002146
1147.78	0.002336
1157.42	0.005836
1167.07	0.004116
1176.71	0.0009553
1186.36	0.0006227
1196	9.35e-05
1205.64	0.0010977
1215.29	0.002386
1224.93	0.018976
1234.58	0.039146
1244.22	0.046316
1253.87	0.079176
1263.51	0.084176
1273.16	0.059066
1282.8	0.019276
1292.45	0.012646
1302.09	0.022276
1311.74	0.021306
1321.38	0.011356
1331.03	0.007406
1340.67	0.004916
1350.32	0.003716
1359.96	0.004256
1369.61	0.004816
1379.25	0.004616
1388.9	0.006266
1398.54	0.009766
1408.18	0.015176
1417.83	0.019726
1427.47	0.018166
1437.12	0.016616
1446.76	0.035216
1456.41	0.055746
1466.05	0.024636
1475.7	0.008036
1485.34	0.004486
1494.99	0.002746
1504.63	0.002486
1514.28	0.002606
1523.92	0.002376
1533.57	0.002406
1543.21	0.002726
1552.86	0.003786
1562.5	0.003676
1572.15	0.003676
1581.79	0.002886
1591.44	0.002306
1601.08	0.002606
1610.73	0.002446
1620.37	0.001616
1630.01	0.0009909
1639.66	0.001146
1649.3	0.0010719
1658.95	0.001916
1668.59	0.001606
1678.24	0.0009231
1687.88	0.003156
1697.53	0.003206
1707.17	0.0010296
1716.82	0.0007788
1726.46	0.0007103
1736.11	0.0004146
1745.75	0.0003482
1755.4	0.0005792
1765.04	0.001536
1774.69	0.002956
1784.33	0.003066
1793.98	0.001996
1803.62	0.002106
1813.27	0.003256
1822.91	0.002096
1832.55	0.0008079
1842.2	0.0005046
1851.84	0.0010415
1861.49	0.002376
1871.13	0.003486
1880.78	0.002676
1890.42	0.003176
1900.07	0.003566
1909.71	0.002796
1919.36	0.002126
1929	0.003786
1938.65	0.004506
1948.29	0.002566
1957.94	0.002196
1967.58	0.001546
1977.23	0.001516
1986.87	0.001146
1996.52	0.0010288
2006.16	0.0010411
2015.81	0.001256
2025.45	0.001206
2035.1	0.0010724
2044.74	0.0008497
2054.38	0.0006646
2064.03	0.0008815
2073.67	0.0010469
2083.32	0.001077
2092.96	0.001286
2102.61	0.001596
2112.25	0.001716
2121.9	0.001376
2131.54	0.001326
2141.19	0.001116
2150.83	0.0009016
2160.48	0.0010327
2170.12	0.0010159
2179.77	0.0009018
2189.41	0.000809
2199.06	0.0008637
2208.7	0.0008937
2218.35	0.0006873
2227.99	0.001052
2237.64	0.001346
2247.28	0.001296
2256.92	0.001386
2266.57	0.001456
2276.21	0.001436
2285.86	0.001456
2295.5	0.001073
2305.15	0.0010185
2314.79	0.0010595
2324.44	0.001256
2334.08	0.0004315
2343.73	0.0006665
2353.37	0.0005062
2363.02	0.00055
2372.66	0.0008612
2382.31	0.001346
2391.95	0.001386
2401.6	0.001506
2411.24	0.001346
2420.89	0.001776
2430.53	0.001866
2440.18	0.001516
2449.82	0.0010394
2459.47	0.001011
2469.11	0.0010646
2478.75	0.0008662
2488.4	0.000915
2498.04	0.0009784
2507.69	0.0008824
2517.33	0.0010738
2526.98	0.0003301
2536.62	0.001166
2546.27	0.0009659
2555.91	0.0007488
2565.56	0.0007604
2575.2	0.0010354
2584.85	0.001166
2594.49	0.0008554
2604.14	0.0008771
2613.78	0.001226
2623.43	0.001386
2633.07	0.0008195
2642.72	0.001136
2652.36	0.0009222
2662.01	0.0009333
2671.65	0.0010374
2681.29	0.0004969
2690.94	0.000738
2700.58	0.0005074
2710.23	0.0009656
2719.87	0.001376
2729.52	0.0010267
2739.16	0.0009739
2748.81	0.001376
2758.45	0.001786
2768.1	0.001836
2777.74	0.002346
2787.39	0.002696
2797.03	0.003406
2806.68	0.003956
2816.32	0.004046
2825.97	0.004016
2835.61	0.004726
2845.26	0.004756
2854.9	0.005646
2864.55	0.006196
2874.19	0.006576
2883.84	0.008506
2893.48	0.013396
2903.12	0.020286
2912.77	0.018356
2922.41	0.010966
2932.06	0.007766
2941.7	0.010866
2951.35	0.024536
2960.99	0.055556
2970.64	0.050536
2980.28	0.023736
2989.93	0.012256
2999.57	0.007706
3009.22	0.006176
3018.86	0.006806
3028.51	0.009556
3038.15	0.009756
3047.8	0.010166
3057.44	0.019576
3067.09	0.041526
3076.73	0.036516
3086.38	0.019776
3096.02	0.012356
3105.67	0.009716
3115.31	0.007486
3124.95	0.004666
3134.6	0.003546
3144.24	0.002736
3153.89	0.002326
3163.53	0.001746
3173.18	0.001466
3182.82	0.001846
3192.47	0.001546
3202.11	0.0009792
3211.76	0.0008733
3221.4	0.0007005
3231.05	0.0009882
3240.69	0.000925
3250.34	0.001336
3259.98	0.0009395
3269.63	0.001126
3279.27	0.0006813
3288.92	0.0004337
3298.56	0.0008176
3308.21	0.001166
3317.85	0.0003209
3327.49	0.0005532
3337.14	0.001176
3346.78	0.00019881
3356.43	0.0003172
3366.07	0.0007879
3375.72	0.0005816
3385.36	0.0007301
3395.01	0.0006825
3404.65	0.0004605
3414.3	3e-06
3423.94	0.0010293
3433.59	0.0005638
3443.23	0.0003781
3452.88	0.0003751
3462.52	0.0007668
3472.17	0.0007048
3481.81	0.0005018
3491.46	0.0006809
3501.1	0.0008167
3510.75	0.00020807
3520.39	0.0004877
3530.04	0.00011001
3539.68	0.0006974
3549.32	0.0008167
3558.97	0.0010759
3568.61	0.0009002
3578.26	0.0010499
3587.9	0.0009165
3597.55	0.001196
3607.19	0.0009215
3616.84	0.0010581
3626.48	0.001696
3636.13	0.001696
3645.77	0.001786
3655.42	0.001786
3665.06	0.002146
3674.71	0.001216
3684.35	0.001596
3694	0.001616
3703.64	0.001806
3713.29	0.001296
3722.93	0.001506
3732.58	0.001576
3742.22	0.002116
3751.86	0.001676
3761.51	0.002006
3771.15	0.001466
3780.8	0.0009819
3790.44	0.001426
3800.09	0.001456
3809.73	0.001626
3819.38	0.001326
3829.02	0.0009586
3838.67	0.0009547
3848.31	0.0005606
3857.96	0.0007118
3867.6	0.0002877
3877.25	0.0007998
3886.89	0.001356
3896.54	0.001246
3906.18	0.0010019
3915.83	0.0006754
3925.47	0.0011096
3935.12	0.0008521
3944.76	0.000595
3954.41	0.0006091
3964.05	0.001216
3973.69	0.001156
3983.34	0.0010362
3992.98	0.000654
