Infrared Spectrum: 3,5-Dimethoxyphenethylamine
Formula: C 10 H 15 N O 2
CAS: 3213-28-3
State: gas
Origin: EPA-IR VAPOR PHASE LIBRARY
1/CM	ABSORBANCE
549.8	0.005203
559.445	0.004933
569.09	0.005773
578.734	0.006463
588.379	0.006843
598.024	0.006863
607.669	0.006313
617.313	0.006593
626.958	0.006803
636.603	0.007703
646.248	0.008703
655.893	0.009773
665.537	0.010013
675.182	0.012463
684.827	0.022013
694.472	0.029003
704.116	0.018913
713.761	0.013583
723.406	0.014073
733.051	0.016583
742.695	0.020243
752.34	0.025543
761.985	0.033083
771.63	0.039273
781.275	0.036783
790.919	0.029953
800.564	0.023173
810.209	0.020393
819.854	0.021743
829.498	0.028563
839.143	0.030713
848.788	0.029703
858.433	0.023243
868.078	0.015273
877.722	0.010443
887.367	0.008353
897.012	0.007893
906.657	0.009053
916.301	0.013203
925.946	0.016703
935.591	0.014673
945.236	0.010483
954.88	0.008023
964.525	0.008123
974.17	0.008643
983.815	0.010043
993.46	0.012133
1003.1	0.013153
1012.75	0.013283
1022.39	0.014263
1032.04	0.018583
1041.68	0.030453
1051.33	0.058623
1060.97	0.091033
1070.62	0.087243
1080.26	0.050983
1089.91	0.026153
1099.55	0.018493
1109.2	0.017733
1118.84	0.021543
1128.49	0.038023
1138.13	0.088853
1147.78	0.180553
1157.42	0.202203
1167.07	0.111283
1176.71	0.053373
1186.36	0.060463
1196	0.101573
1205.64	0.115643
1215.29	0.064553
1224.93	0.024403
1234.58	0.016013
1244.22	0.014923
1253.87	0.015823
1263.51	0.015273
1273.16	0.017513
1282.8	0.030073
1292.45	0.044793
1302.09	0.046893
1311.74	0.047183
1321.38	0.049153
1331.03	0.053353
1340.67	0.052693
1350.32	0.043423
1359.96	0.029973
1369.61	0.020253
1379.25	0.017833
1388.9	0.016613
1398.54	0.016863
1408.18	0.021663
1417.83	0.037293
1427.47	0.069243
1437.12	0.075083
1446.76	0.057423
1456.41	0.078963
1466.05	0.104663
1475.7	0.073263
1485.34	0.035553
1494.99	0.020163
1504.63	0.015423
1514.28	0.013963
1523.92	0.014113
1533.57	0.015133
1543.21	0.016963
1552.86	0.020133
1562.5	0.028093
1572.15	0.052323
1581.79	0.117753
1591.44	0.216393
1601.08	0.242393
1610.73	0.155023
1620.37	0.079323
1630.01	0.041933
1639.66	0.025003
1649.3	0.016683
1658.95	0.012093
1668.59	0.009503
1678.24	0.008223
1687.88	0.007433
1697.53	0.006713
1707.17	0.005783
1716.82	0.005033
1726.46	0.004373
1736.11	0.004043
1745.75	0.003653
1755.4	0.003283
1765.04	0.003023
1774.69	0.002793
1784.33	0.002743
1793.98	0.002723
1803.62	0.002663
1813.27	0.002533
1822.91	0.002403
1832.55	0.002193
1842.2	0.002223
1851.84	0.001993
1861.49	0.001823
1871.13	0.001703
1880.78	0.001643
1890.42	0.001573
1900.07	0.001443
1909.71	0.001553
1919.36	0.001523
1929	0.001543
1938.65	0.001533
1948.29	0.001633
1957.94	0.001893
1967.58	0.001943
1977.23	0.001993
1986.87	0.002003
1996.52	0.001843
2006.16	0.001803
2015.81	0.001793
2025.45	0.001823
2035.1	0.001943
2044.74	0.002033
2054.38	0.002473
2064.03	0.002943
2073.67	0.003373
2083.32	0.003343
2092.96	0.003153
2102.61	0.003073
2112.25	0.003203
2121.9	0.003123
2131.54	0.002783
2141.19	0.002343
2150.83	0.001843
2160.48	0.001693
2170.12	0.001613
2179.77	0.001593
2189.41	0.001743
2199.06	0.002183
2208.7	0.002493
2218.35	0.002523
2227.99	0.002283
2237.64	0.002043
2247.28	0.001903
2256.92	0.001823
2266.57	0.001713
2276.21	0.001453
2285.86	0.001273
2295.5	0.00109
2305.15	0.0010326
2314.79	0.0010506
2324.44	0.0010636
2334.08	0.0010185
2343.73	0.001143
2353.37	0.001193
2363.02	0.001173
2372.66	0.001313
2382.31	0.001483
2391.95	0.001563
2401.6	0.001453
2411.24	0.001433
2420.89	0.001403
2430.53	0.001563
2440.18	0.001563
2449.82	0.001753
2459.47	0.001623
2469.11	0.001673
2478.75	0.001663
2488.4	0.001733
2498.04	0.001723
2507.69	0.001563
2517.33	0.001453
2526.98	0.001333
2536.62	0.001413
2546.27	0.001463
2555.91	0.001393
2565.56	0.001403
2575.2	0.001353
2584.85	0.001543
2594.49	0.001753
2604.14	0.002083
2613.78	0.002263
2623.43	0.002253
2633.07	0.002203
2642.72	0.002183
2652.36	0.002283
2662.01	0.002153
2671.65	0.002183
2681.29	0.002133
2690.94	0.002043
2700.58	0.002203
2710.23	0.002473
2719.87	0.002743
2729.52	0.003203
2739.16	0.003543
2748.81	0.004043
2758.45	0.004223
2768.1	0.004523
2777.74	0.005013
2787.39	0.005703
2797.03	0.006803
2806.68	0.008383
2816.32	0.010793
2825.97	0.016483
2835.61	0.032013
2845.26	0.050673
2854.9	0.046673
2864.55	0.037193
2874.19	0.033663
2883.84	0.032993
2893.48	0.033973
2903.12	0.040603
2912.77	0.053803
2922.41	0.063103
2932.06	0.071853
2941.7	0.094383
2951.35	0.091903
2960.99	0.062093
2970.64	0.035923
2980.28	0.025143
2989.93	0.027283
2999.57	0.044663
3009.22	0.045383
3018.86	0.020613
3028.51	0.011193
3038.15	0.008823
3047.8	0.008463
3057.44	0.009583
3067.09	0.010813
3076.73	0.010343
3086.38	0.008483
3096.02	0.006083
3105.67	0.003963
3115.31	0.003043
3124.95	0.002403
3134.6	0.002173
3144.24	0.001853
3153.89	0.001663
3163.53	0.001493
3173.18	0.001263
3182.82	0.0010759
3192.47	0.001333
3202.11	0.001243
3211.76	0.0008714
3221.4	0.0008655
3231.05	0.000829
3240.69	0.0006494
3250.34	0.0006042
3259.98	0.0005353
3269.63	0.0005906
3279.27	0.0004864
3288.92	0.0004492
3298.56	0.0004271
3308.21	0.0002461
3317.85	0.0005284
3327.49	0.0004119
3337.14	0.0009493
3346.78	0.001203
3356.43	0.0008538
3366.07	0.0006738
3375.72	0.0004782
3385.36	0.000468
3395.01	0.0006859
3404.65	0.0010069
3414.3	0.0010202
3423.94	0.0007925
3433.59	0.0006578
3443.23	0.0003463
3452.88	0.0004104
3462.52	0.0003417
3472.17	0.0004453
3481.81	0.0002841
3491.46	0.0003083
3501.1	0.0001025
3510.75	0.00018962
3520.39	0.0001202
3530.04	0.000285
3539.68	0.000385
3549.32	0.0002714
3558.97	0.00015806
3568.61	0.0003196
3578.26	0.0003315
3587.9	0.000265
3597.55	0.0004498
3607.19	0.0002551
3616.84	0.0003064
3626.48	0.00015091
3636.13	0.0003276
3645.77	0.0003473
3655.42	0.0002776
3665.06	0.0003059
3674.71	0.0002418
3684.35	0.000311
3694	0.00015886
3703.64	0.0002344
3713.29	0.0002335
3722.93	0.00018547
3732.58	0.00012915
3742.22	0.00019845
3751.86	0.0004526
3761.51	0.0002704
3771.15	0.0003595
3780.8	0.0002908
3790.44	0.00018212
3800.09	0.000454
3809.73	0.0006167
3819.38	0.00015398
3829.02	0.0004258
3838.67	0.0002984
3848.31	0.0004774
3857.96	0.0003561
3867.6	0.0006327
3877.25	0.0004685
3886.89	0.0004844
3896.54	0.0006085
3906.18	0.000488
3915.83	0.000546
3925.47	0.0007278
3935.12	0.0006223
3944.76	0.0007195
3954.41	0.0005318
3964.05	0.0006063
3973.69	0.0007647
3983.34	0.0008191
3992.98	0.0007599
