Infrared Spectrum: 2,5-Octanedione
Formula: C 8 H 14 O 2
CAS: 3214-41-3
State: gas
Origin: EPA-IR VAPOR PHASE LIBRARY
1/CM	ABSORBANCE
549.8	0.001538
559.445	0.001188
569.09	0.001368
578.734	0.001618
588.379	0.001438
598.024	0.001278
607.669	0.0007695
617.313	0.0005587
626.958	0.0007707
636.603	0.0008776
646.248	0.000489
655.893	0.000645
665.537	0.0003718
675.182	0.0004421
684.827	0.0002613
694.472	0.0004495
704.116	0.0003005
713.761	0.0005024
723.406	0.001148
733.051	0.001228
742.695	0.001628
752.34	0.001478
761.985	0.001498
771.63	0.001288
781.275	0.001178
790.919	0.001098
800.564	0.001408
810.209	0.001278
819.854	0.001208
829.498	0.0008855
839.143	0.001128
848.788	0.0008888
858.433	0.001128
868.078	0.001188
877.722	0.001508
887.367	0.001668
897.012	0.001608
906.657	0.001488
916.301	0.001508
925.946	0.001738
935.591	0.001628
945.236	0.001758
954.88	0.002118
964.525	0.002608
974.17	0.002938
983.815	0.003328
993.46	0.004488
1003.1	0.006058
1012.75	0.006618
1022.39	0.005878
1032.04	0.005098
1041.68	0.004088
1051.33	0.004358
1060.97	0.005288
1070.62	0.006588
1080.26	0.007268
1089.91	0.006248
1099.55	0.005668
1109.2	0.007008
1118.84	0.011278
1128.49	0.013418
1138.13	0.013058
1147.78	0.015658
1157.42	0.017768
1167.07	0.014648
1176.71	0.011288
1186.36	0.011148
1196	0.009808
1205.64	0.008448
1215.29	0.007738
1224.93	0.006958
1234.58	0.006638
1244.22	0.006538
1253.87	0.006918
1263.51	0.007568
1273.16	0.008498
1282.8	0.008018
1292.45	0.008068
1302.09	0.007838
1311.74	0.007768
1321.38	0.008418
1331.03	0.010398
1340.67	0.013918
1350.32	0.020728
1359.96	0.027708
1369.61	0.023878
1379.25	0.015068
1388.9	0.011328
1398.54	0.011608
1408.18	0.013538
1417.83	0.014098
1427.47	0.012258
1437.12	0.009738
1446.76	0.007918
1456.41	0.007088
1466.05	0.006158
1475.7	0.004658
1485.34	0.003358
1494.99	0.002568
1504.63	0.002268
1514.28	0.001978
1523.92	0.001888
1533.57	0.001768
1543.21	0.001678
1552.86	0.001618
1562.5	0.001548
1572.15	0.001288
1581.79	0.001318
1591.44	0.001228
1601.08	0.001088
1610.73	0.001148
1620.37	0.001228
1630.01	0.001458
1639.66	0.001658
1649.3	0.001988
1658.95	0.002628
1668.59	0.003688
1678.24	0.005558
1687.88	0.008888
1697.53	0.015228
1707.17	0.029118
1716.82	0.053548
1726.46	0.073598
1736.11	0.062778
1745.75	0.033588
1755.4	0.015628
1765.04	0.008828
1774.69	0.005308
1784.33	0.003338
1793.98	0.002138
1803.62	0.001548
1813.27	0.001208
1822.91	0.0009891
1832.55	0.0008648
1842.2	0.0007475
1851.84	0.0006721
1861.49	0.0006155
1871.13	0.0006605
1880.78	0.0006206
1890.42	0.0005937
1900.07	0.0005368
1909.71	0.0005081
1919.36	0.0005212
1929	0.0004829
1938.65	0.0004569
1948.29	0.0003124
1957.94	0.0004171
1967.58	0.0003989
1977.23	0.0003489
1986.87	0.0003113
1996.52	0.0004326
2006.16	0.000251
2015.81	0.0003655
2025.45	0.0004272
2035.1	0.0003957
2044.74	0.0003281
2054.38	0.0004013
2064.03	0.0003839
2073.67	0.000473
2083.32	0.0004424
2092.96	0.0005125
2102.61	0.0004885
2112.25	0.0004698
2121.9	0.0004562
2131.54	0.0004908
2141.19	0.0004828
2150.83	0.0004969
2160.48	0.0004606
2170.12	0.0003856
2179.77	0.0004482
2189.41	0.0004193
2199.06	0.0003322
2208.7	0.0003075
2218.35	0.0003701
2227.99	0.0003992
2237.64	0.0003839
2247.28	0.0003381
2256.92	0.0003338
2266.57	0.0003765
2276.21	0.0004472
2285.86	0.0003978
2295.5	0.0003544
2305.15	0.0003639
2314.79	0.000419
2324.44	0.0003352
2334.08	0.0004248
2343.73	0.0003815
2353.37	0.0002893
2363.02	0.0003862
2372.66	0.0003521
2382.31	0.0003049
2391.95	0.0004156
2401.6	0.0003819
2411.24	0.0004567
2420.89	0.0003933
2430.53	0.0003553
2440.18	0.000387
2449.82	0.0003143
2459.47	0.0003646
2469.11	0.0003345
2478.75	0.0003694
2488.4	0.0003492
2498.04	0.0004173
2507.69	0.0004151
2517.33	0.0003019
2526.98	0.0003653
2536.62	0.0003655
2546.27	0.0003576
2555.91	0.0003877
2565.56	0.0002145
2575.2	0.000285
2584.85	0.0002903
2594.49	0.0003502
2604.14	0.0003002
2613.78	0.0002865
2623.43	0.0003916
2633.07	0.000282
2642.72	0.0004298
2652.36	0.0003735
2662.01	0.0005044
2671.65	0.000467
2681.29	0.0004665
2690.94	0.0005384
2700.58	0.0006643
2710.23	0.0004844
2719.87	0.0006008
2729.52	0.0006956
2739.16	0.0007753
2748.81	0.0009397
2758.45	0.0009018
2768.1	0.0010322
2777.74	0.001068
2787.39	0.001268
2797.03	0.001528
2806.68	0.001848
2816.32	0.002148
2825.97	0.002358
2835.61	0.002678
2845.26	0.003328
2854.9	0.004168
2864.55	0.005628
2874.19	0.008918
2883.84	0.012858
2893.48	0.014538
2903.12	0.017638
2912.77	0.021438
2922.41	0.022228
2932.06	0.022478
2941.7	0.023618
2951.35	0.023318
2960.99	0.024878
2970.64	0.027988
2980.28	0.023648
2989.93	0.014468
2999.57	0.008898
3009.22	0.006708
3018.86	0.005168
3028.51	0.003578
3038.15	0.002748
3047.8	0.002358
3057.44	0.002068
3067.09	0.001888
3076.73	0.001698
3086.38	0.001398
3096.02	0.001438
3105.67	0.001118
3115.31	0.001017
3124.95	0.0010139
3134.6	0.0009546
3144.24	0.0007798
3153.89	0.0007383
3163.53	0.0007519
3173.18	0.0005016
3182.82	0.0004843
3192.47	0.0003874
3202.11	0.0004134
3211.76	0.000424
3221.4	0.000329
3231.05	0.0002186
3240.69	0.0002905
3250.34	0.0002582
3259.98	0.0004161
3269.63	0.0002616
3279.27	0.0002701
3288.92	0.0003486
3298.56	0.0002636
3308.21	0.00015136
3317.85	0.000173
3327.49	0.0003638
3337.14	0.0002265
3346.78	0.0002756
3356.43	0.0003556
3366.07	0.0003942
3375.72	0.0003317
3385.36	0.0004265
3395.01	0.0005611
3404.65	0.0007776
3414.3	0.0008103
3423.94	0.001208
3433.59	0.001528
3443.23	0.001568
3452.88	0.001228
3462.52	0.0008346
3472.17	0.0006201
3481.81	0.0003738
3491.46	0.0004548
3501.1	0.0002769
3510.75	0.0002181
3520.39	0.00011354
3530.04	0.00013191
3539.68	0.0002684
3549.32	0.0003033
3558.97	0.00013085
3568.61	0.0002161
3578.26	0.00016694
3587.9	0.0002426
3597.55	0.00012086
3607.19	0.0002726
3616.84	0.0001984
3626.48	0.0002684
3636.13	1.84e-05
3645.77	0.0002319
3655.42	0.0002118
3665.06	0.0002747
3674.71	8.585e-05
3684.35	0.0003322
3694	0.0001966
3703.64	0.0002223
3713.29	0.0002569
3722.93	0.0002825
3732.58	0.0001813
3742.22	4.12e-05
3751.86	0.0002366
3761.51	0.0001414
3771.15	0.0003455
3780.8	0.0002044
3790.44	0.00014557
3800.09	0.00010826
3809.73	0.0002159
3819.38	0.0002304
3829.02	0.0002659
3838.67	0.0001701
3848.31	0.0003022
3857.96	0.0003821
3867.6	0.0002724
3877.25	5.27e-05
3886.89	0.0001494
3896.54	0.0003114
3906.18	0.0003452
3915.83	0.0002812
3925.47	0.0003286
3935.12	0.000319
3944.76	0.0003227
3954.41	0.0002808
3964.05	0.0003643
3973.69	0.0005093
3983.34	0.0003673
3992.98	0.0004184
