Infrared Spectrum: 2,3,6-Trichlorophenylacetonitrile
Formula: C 8 H 4 Cl 3 N
CAS: 3215-65-4
State: gas
Origin: EPA-IR VAPOR PHASE LIBRARY
1/CM	ABSORBANCE
549.8	0.0040606
559.445	0.0077906
569.09	0.0038806
578.735	0.0053306
588.38	0.0165206
598.025	0.0171606
607.67	0.0062906
617.315	0.0040806
626.96	0.0023806
636.605	0.0023806
646.251	0.0035506
655.896	0.0018306
665.541	0.0010702
675.186	0.0011406
684.831	0.0012406
694.476	0.0010478
704.121	0.0009072
713.766	0.0011306
723.411	0.0016106
733.056	0.0042306
742.701	0.0036606
752.346	0.0020306
761.991	0.0025906
771.636	0.0044306
781.281	0.0143106
790.926	0.0242106
800.571	0.0274306
810.216	0.0509006
819.861	0.0186706
829.507	0.0040906
839.152	0.0021106
848.797	0.0021006
858.442	0.0036506
868.087	0.0045506
877.732	0.0066706
887.377	0.0054306
897.022	0.0037306
906.667	0.0080606
916.312	0.0201306
925.957	0.0221306
935.602	0.0115006
945.247	0.0076906
954.892	0.0035606
964.537	0.0016906
974.182	0.0013706
983.827	0.0011306
993.472	0.0010122
1003.12	0.0011406
1012.76	0.0009624
1022.41	0.0010253
1032.05	0.0015106
1041.7	0.0016006
1051.34	0.0013706
1060.99	0.0015206
1070.63	0.0031006
1080.28	0.0123106
1089.92	0.0413806
1099.57	0.0354506
1109.21	0.0135906
1118.86	0.0082806
1128.5	0.0046506
1138.15	0.0042506
1147.79	0.0064406
1157.44	0.0173206
1167.08	0.0557906
1176.73	0.0490606
1186.37	0.0109706
1196.02	0.0081206
1205.66	0.0079006
1215.31	0.0047506
1224.95	0.0016806
1234.6	0.0019306
1244.24	0.0026006
1253.89	0.0035506
1263.53	0.0038906
1273.18	0.0034306
1282.82	0.0035106
1292.47	0.0038506
1302.11	0.0032006
1311.76	0.0034606
1321.4	0.0028506
1331.05	0.0027906
1340.69	0.0037606
1350.34	0.0040306
1359.98	0.0049606
1369.63	0.0080906
1379.27	0.0213406
1388.92	0.0308406
1398.56	0.0135906
1408.21	0.0095106
1417.85	0.0207606
1427.5	0.0509606
1437.14	0.0956706
1446.79	0.0640306
1456.43	0.0112606
1466.08	0.0067606
1475.73	0.0046806
1485.37	0.0028106
1495.02	0.0027006
1504.66	0.0026806
1514.31	0.0015406
1523.95	0.0011906
1533.6	0.0013506
1543.24	0.0027506
1552.89	0.0063506
1562.53	0.0071006
1572.18	0.0022906
1581.82	0.0010365
1591.47	0.0008357
1601.11	0.0009743
1610.76	0.0019606
1620.4	0.0029606
1630.05	0.0014406
1639.69	0.0006795
1649.34	0.0008252
1658.98	0.0007331
1668.63	0.0006356
1678.27	0.0007241
1687.92	0.0006118
1697.56	0.0005798
1707.21	0.0005324
1716.85	0.0006103
1726.5	0.0007057
1736.14	0.0009877
1745.79	0.0016006
1755.43	0.0009863
1765.08	4.18e-05
1774.72	0.0002584
1784.37	0.0004019
1794.01	0.0005267
1803.66	0.0005326
1813.3	0.0005139
1822.95	0.000462
1832.59	0.0004865
1842.24	0.0004894
1851.88	0.0005481
1861.53	0.0007058
1871.17	0.0015806
1880.82	0.0033006
1890.46	0.0026006
1900.11	0.0007312
1909.75	0.00044
1919.4	0.0003963
1929.04	0.0003341
1938.69	0.0003574
1948.33	0.0003322
1957.98	0.0003575
1967.62	0.0003413
1977.27	0.0002772
1986.91	0.0003636
1996.56	0.0003693
2006.2	0.0003083
2015.85	0.0003288
2025.49	0.0003089
2035.14	0.0002885
2044.78	0.0003753
2054.43	0.0003956
2064.07	0.0003944
2073.72	0.0003512
2083.36	0.0003259
2093.01	0.0003304
2102.65	0.0002658
2112.3	0.0003415
2121.94	0.0003685
2131.59	0.000447
2141.23	0.0003665
2150.88	0.0003121
2160.52	0.0003775
2170.17	0.0003483
2179.81	0.0004296
2189.46	0.0003902
2199.1	0.0003148
2208.75	0.0002576
2218.39	0.0002828
2228.04	0.0003437
2237.68	0.0004955
2247.33	0.0007087
2256.97	0.0009704
2266.62	0.0011206
2276.26	0.0006686
2285.91	0.0004046
2295.55	0.0004318
2305.2	0.0004305
2314.84	0.000572
2324.49	0.0005623
2334.13	0.0006985
2343.78	0.0006236
2353.42	0.0004547
2363.07	0.0004566
2372.72	0.0005425
2382.36	0.000432
2392.01	0.0003492
2401.65	0.0003039
2411.3	0.0003471
2420.94	0.0003254
2430.59	0.0003058
2440.23	0.0002979
2449.88	0.0003829
2459.52	0.0003617
2469.17	0.0003557
2478.81	0.000298
2488.46	0.0003011
2498.1	0.0003815
2507.75	0.0004322
2517.39	0.0003992
2527.04	0.0004428
2536.68	0.0004235
2546.33	0.0003488
2555.97	0.0003633
2565.62	0.0003872
2575.26	0.0004839
2584.91	0.0004446
2594.55	0.0004627
2604.2	0.0004457
2613.84	0.0004836
2623.49	0.0004494
2633.13	0.0004921
2642.78	0.0005424
2652.42	0.0006712
2662.07	0.000504
2671.71	0.0002888
2681.36	0.000246
2691	0.0003215
2700.65	0.0003291
2710.29	0.000308
2719.94	0.0004717
2729.58	0.0005268
2739.23	0.0006737
2748.87	0.0005522
2758.52	0.0004943
2768.16	0.0003862
2777.81	0.0002516
2787.45	0.0002634
2797.1	0.0003001
2806.74	0.0003593
2816.39	0.000459
2826.03	0.0004605
2835.68	0.0003315
2845.32	0.0002791
2854.97	0.0002741
2864.61	0.0002647
2874.26	0.00013689
2883.9	0.00013488
2893.55	9.944e-05
2903.19	0.00013089
2912.84	0.00012128
2922.48	0.00014811
2932.13	0.0004038
2941.77	0.0004882
2951.42	0.0008654
2961.06	0.0012506
2970.71	0.0012806
2980.35	0.0007638
2990	0.0008261
2999.64	0.0012306
3009.29	0.0007014
3018.93	0.0001853
3028.58	0.0003245
3038.22	0.0002902
3047.87	9.511e-05
3057.51	0.00014401
3067.16	0.0002383
3076.8	0.0003692
3086.45	0.0003247
3096.09	0.0002236
3105.74	0.00012853
3115.38	0.00019
3125.03	0.000188
3134.67	0.00017632
3144.32	0.00010532
3153.96	0.0001999
3163.61	0.00017317
3173.25	0.0003419
3182.9	0.0004221
3192.54	0.0003959
3202.19	0.0003631
3211.83	0.0002811
3221.48	0.00011225
3231.12	0.0002567
3240.77	0.0001849
3250.41	0.00010661
3260.06	8.625e-05
3269.7	4.75e-05
3279.35	5.67e-05
3289	0.00014985
3298.64	7.473e-05
3308.29	0.0002403
3317.93	0.0001922
3327.58	0.0002137
3337.22	0.0002344
3346.87	0.0001975
3356.51	0.0002784
3366.16	0.00017569
3375.8	0.0001844
3385.45	0.00017156
3395.09	0.00013076
3404.74	0.00017477
3414.38	0.0002363
3424.03	0.00015907
3433.67	0.00010561
3443.32	7.479e-05
3452.96	9.441e-05
3462.61	0.00016018
3472.25	7.138e-05
3481.9	0.0002314
3491.54	0.0001201
3501.19	0.00011343
3510.83	0.00016475
3520.48	4.35e-05
3530.12	0.0002272
3539.77	0.0002436
3549.41	0.0002631
3559.06	0.00013504
3568.7	9.209e-05
3578.35	0.0002518
3587.99	0.000291
3597.64	0.00010678
3607.28	0.00015178
3616.93	0.00011081
3626.57	0.0001918
3636.22	9.0516e-05
3645.86	0.0003547
3655.51	0.00016436
3665.15	0.00017577
3674.8	0.00019
3684.44	0.0003524
3694.09	6.77e-05
3703.73	0.0001452
3713.38	0.0002894
3723.02	0.0003476
3732.67	0.0002214
3742.31	0.0003079
3751.96	0.000221
3761.6	0.00017653
3771.25	0.0003061
3780.89	0.00014375
3790.54	0.00013068
3800.18	0.00017026
3809.83	0.0002373
3819.47	0.0002622
3829.12	0.0002752
3838.76	0.0003893
3848.41	0.0001952
3858.05	0.0002769
3867.7	0.0002852
3877.34	0.0002012
3886.99	0.0003187
3896.63	0.0003109
3906.28	0.0004321
3915.92	0.0002705
3925.57	0.00017503
3935.21	0.00014505
3944.86	0.0001523
3954.5	0.0003383
3964.15	0.00017938
3973.79	0.0002248
3983.44	0.0002062
3993.08	0.00013667
