Infrared Spectrum: Thianaphthene-3-acetonitrile
Formula: C 10 H 7 N S
CAS: 3216-48-6
State: gas
Origin: EPA-IR VAPOR PHASE LIBRARY
1/CM	ABSORBANCE
549.8	0.001529
559.445	0.001559
569.09	0.002399
578.734	0.001839
588.379	0.001659
598.024	0.0007772
607.669	0.0006515
617.313	0.001489
626.958	0.002069
636.603	0.002859
646.248	0.002859
655.893	0.003629
665.537	0.004359
675.182	0.003449
684.827	0.003479
694.472	0.004089
704.116	0.006319
713.761	0.015899
723.406	0.035619
733.051	0.036839
742.695	0.031869
752.34	0.038969
761.985	0.029769
771.63	0.024319
781.275	0.026189
790.919	0.012339
800.564	0.004399
810.209	0.002309
819.854	0.003629
829.498	0.006629
839.143	0.009599
848.788	0.009949
858.433	0.008839
868.078	0.006199
877.722	0.002569
887.367	0.002019
897.012	0.002379
906.657	0.002939
916.301	0.004549
925.946	0.004949
935.591	0.004199
945.236	0.002249
954.88	0.001699
964.525	0.001689
974.17	0.001248
983.815	0.0013637
993.46	0.0013587
1003.1	0.001559
1012.75	0.005209
1022.39	0.006469
1032.04	0.002809
1041.68	0.002059
1051.33	0.002439
1060.97	0.004519
1070.62	0.008969
1080.26	0.011119
1089.91	0.007959
1099.55	0.003169
1109.2	0.001669
1118.84	0.0013659
1128.49	0.0011541
1138.13	0.002359
1147.78	0.003299
1157.42	0.004819
1167.07	0.003999
1176.71	0.002459
1186.36	0.001959
1196	0.0013551
1205.64	0.003869
1215.29	0.003829
1224.93	0.002019
1234.58	0.002189
1244.22	0.005569
1253.87	0.009139
1263.51	0.008969
1273.16	0.004939
1282.8	0.003559
1292.45	0.003579
1302.09	0.002909
1311.74	0.002249
1321.38	0.002069
1331.03	0.001759
1340.67	0.001939
1350.32	0.003789
1359.96	0.007479
1369.61	0.006709
1379.25	0.003179
1388.9	0.002319
1398.54	0.003229
1408.18	0.006649
1417.83	0.014679
1427.47	0.024659
1437.12	0.019449
1446.76	0.008169
1456.41	0.008099
1466.05	0.007449
1475.7	0.002989
1485.34	0.002179
1494.99	0.002189
1504.63	0.002499
1514.28	0.003009
1523.92	0.003669
1533.57	0.004279
1543.21	0.004829
1552.86	0.006309
1562.5	0.006309
1572.15	0.004429
1581.79	0.002909
1591.44	0.002799
1601.08	0.002579
1610.73	0.0013358
1620.37	0.0013891
1630.01	0.001119
1639.66	0.0012139
1649.3	0.001312
1658.95	0.001999
1668.59	0.001889
1678.24	0.002129
1687.88	0.002349
1697.53	0.001739
1707.17	0.0011178
1716.82	0.0012267
1726.46	0.0011649
1736.11	0.000983
1745.75	0.0011
1755.4	0.0012468
1765.04	0.002099
1774.69	0.002889
1784.33	0.002279
1793.98	0.001489
1803.62	0.001869
1813.27	0.002369
1822.91	0.001569
1832.55	0.00105
1842.2	0.0010187
1851.84	0.0012876
1861.49	0.001719
1871.13	0.001759
1880.78	0.0013738
1890.42	0.002219
1900.07	0.002859
1909.71	0.002109
1919.36	0.001709
1929	0.002559
1938.65	0.002709
1948.29	0.0011613
1957.94	0.0009153
1967.58	0.0008046
1977.23	0.0008353
1986.87	0.0008086
1996.52	0.0007761
2006.16	0.0008593
2015.81	0.0006926
2025.45	0.0006688
2035.1	0.0008217
2044.74	0.0009061
2054.38	0.0007632
2064.03	0.0008167
2073.67	0.0007305
2083.32	0.0008658
2092.96	0.0008154
2102.61	0.00079
2112.25	0.0008956
2121.9	0.0009335
2131.54	0.0007933
2141.19	0.0009333
2150.83	0.00078
2160.48	0.0006548
2170.12	0.0007709
2179.77	0.0007342
2189.41	0.0006858
2199.06	0.0007787
2208.7	0.00050858
2218.35	0.0009806
2227.99	0.0010446
2237.64	0.0011155
2247.28	0.001899
2256.92	0.002419
2266.57	0.001729
2276.21	0.0010976
2285.86	0.0011402
2295.5	0.0011344
2305.15	0.0011192
2314.79	0.0011349
2324.44	0.0014169
2334.08	0.001499
2343.73	0.0013253
2353.37	0.0013011
2363.02	0.0008861
2372.66	0.0008727
2382.31	0.0009414
2391.95	0.000791
2401.6	0.0006439
2411.24	0.000692
2420.89	0.0008626
2430.53	0.0008158
2440.18	0.0006375
2449.82	0.000957
2459.47	0.0011608
2469.11	0.0008619
2478.75	0.0008679
2488.4	0.0007212
2498.04	0.0006379
2507.69	0.0007059
2517.33	0.0007567
2526.98	0.0009375
2536.62	0.0008911
2546.27	0.0009021
2555.91	0.0009192
2565.56	0.0012907
2575.2	0.0010551
2584.85	0.0011338
2594.49	0.0010587
2604.14	0.001089
2613.78	0.0013227
2623.43	0.0013887
2633.07	0.0011419
2642.72	0.0010173
2652.36	0.001006
2662.01	0.000944
2671.65	0.0005684
2681.29	0.0008305
2690.94	0.0007781
2700.58	0.0005771
2710.23	0.0009065
2719.87	0.0010607
2729.52	0.0008253
2739.16	0.0006134
2748.81	0.000687
2758.45	0.0006794
2768.1	0.0006742
2777.74	0.00050776
2787.39	0.0005734
2797.03	0.0008262
2806.68	0.000832
2816.32	0.0009909
2825.97	0.0013368
2835.61	0.001589
2845.26	0.001499
2854.9	0.0012349
2864.55	0.0008346
2874.19	0.0010688
2883.84	0.001204
2893.48	0.001749
2903.12	0.001779
2912.77	0.003339
2922.41	0.005949
2932.06	0.005119
2941.7	0.002969
2951.35	0.002199
2960.99	0.002339
2970.64	0.001989
2980.28	0.001489
2989.93	0.001869
2999.57	0.002749
3009.22	0.003069
3018.86	0.003789
3028.51	0.005309
3038.15	0.006409
3047.8	0.006009
3057.44	0.009699
3067.09	0.019919
3076.73	0.026039
3086.38	0.017719
3096.02	0.007739
3105.67	0.003599
3115.31	0.002349
3124.95	0.002039
3134.6	0.001899
3144.24	0.0011132
3153.89	0.0012243
3163.53	0.0011935
3173.18	0.0010291
3182.82	0.00118
3192.47	0.0010534
3202.11	0.0009812
3211.76	0.0010383
3221.4	0.0008265
3231.05	0.00077
3240.69	0.000397
3250.34	0.0005959
3259.98	0.000357
3269.63	0.000444709
3279.27	0.0007538
3288.92	0.000716
3298.56	0.0006475
3308.21	0.0006732
3317.85	0.000601
3327.49	0.000573
3337.14	0.000694
3346.78	0.0007243
3356.43	0.00050629
3366.07	0.0006415
3375.72	0.0005853
3385.36	0.0005237
3395.01	0.00049031
3404.65	0.000425
3414.3	0.0006902
3423.94	0.00052911
3433.59	0.0006121
3443.23	0.0006773
3452.88	0.0005741
3462.52	0.0005984
3472.17	0.0003901
3481.81	0.0008115
3491.46	0.0004027
3501.1	0.000753
3510.75	0.000162
3520.39	0.0005514
3530.04	0.00050198
3539.68	0.0006531
3549.32	0.00052096
3558.97	0.0007265
3568.61	0.00045388
3578.26	0.0008055
3587.9	0.000184
3597.55	0.00052521
3607.19	0.0007238
3616.84	0.00047704
3626.48	0.0008587
3636.13	0.0004709
3645.77	0.00052544
3655.42	0.000448707
3665.06	0.00051214
3674.71	0.00021
3684.35	0.0006356
3694	0.00043011
3703.64	0.00045921
3713.29	0.00051663
3722.93	0.0007106
3732.58	0.0009561
3742.22	0.0007893
3751.86	0.0009438
3761.51	0.0009182
3771.15	0.0006315
3780.8	0.0005431
3790.44	0.0009223
3800.09	0.0007513
3809.73	0.0008274
3819.38	0.00043203
3829.02	0.0009425
3838.67	0.0008311
3848.31	0.000785
3857.96	0.0008946
3867.6	0.0007407
3877.25	0.0008885
3886.89	0.0006283
3896.54	0.0008807
3906.18	0.0005849
3915.83	0.0008283
3925.47	0.0005624
3935.12	0.0008499
3944.76	0.0005907
3954.41	0.0004153
3964.05	0.0006448
3973.69	0.0008802
3983.34	0.000161
3992.98	0.00046427
