Infrared Spectrum: N-Acetyl-4-piperidone
Formula: C 7 H 11 N O 2
CAS: 32161-06-1
State: gas
Instrument: HP-GC/MS/IRD
Origin: NIST Mass Spectrometry Data Center
1/CM	ABSORBANCE
550	0.00028
562	0.000496
574	0.00102
586	0.001892
598	0.001492
610	0.000484
622	0.00022
634	0.000124
646	7.2e-05
658	2e-05
670	0.000116
682	0.000144
694	0.000196
706	0.000292
718	0.000288
730	0.000196
742	0.000688
754	0.00136
766	0.00092
778	0.00044
790	0.00014
802	4.4e-05
814	0.000116
826	0.000104
838	8.8e-05
850	7.2e-05
862	4e-05
874	4e-06
886	3.6e-05
898	0.00014
910	0.000428
922	0.000508
934	0.000444
946	0.000848
958	0.001396
970	0.00238
982	0.003132
994	0.002076
1006	0.001288
1018	0.001836
1030	0.003384
1042	0.00282
1054	0.001452
1066	0.000864
1078	0.000664
1090	0.000556
1102	0.000552
1114	0.000716
1126	0.001224
1138	0.001448
1150	0.001248
1162	0.001236
1174	0.001516
1186	0.00216
1198	0.00408
1210	0.00824
1222	0.014496
1234	0.013432
1246	0.006492
1258	0.006604
1270	0.006972
1282	0.00426
1294	0.003784
1306	0.007356
1318	0.00644
1330	0.00358
1342	0.004464
1354	0.006084
1366	0.006684
1378	0.006692
1390	0.010348
1402	0.01736
1414	0.021308
1426	0.015376
1438	0.007388
1450	0.004548
1462	0.003404
1474	0.002748
1486	0.00194
1498	0.001376
1510	0.001072
1522	0.000828
1534	0.000724
1546	0.000688
1558	0.000664
1570	0.000692
1582	0.000708
1594	0.000828
1606	0.001
1618	0.001164
1630	0.001528
1642	0.002284
1654	0.00364
1666	0.007736
1678	0.023904
1690	0.04
1702	0.025228
1714	0.01024
1726	0.011464
1738	0.020244
1750	0.015744
1762	0.004684
1774	0.002336
1786	0.001408
1798	0.000796
1810	0.000524
1822	0.00044
1834	0.000356
1846	0.00028
1858	0.000248
1870	0.000228
1882	0.000224
1894	0.000296
1906	0.000264
1918	0.000228
1930	0.00018
1942	0.000172
1954	0.000116
1966	9.6e-05
1978	0.000108
1990	0.000108
2002	0.000104
2014	0.000124
2026	0.000116
2038	8.8e-05
2050	0.000112
2062	0.000128
2074	0.000124
2086	0.00014
2098	0.000156
2110	0.000156
2122	0.000156
2134	0.00012
2146	8.8e-05
2158	6.8e-05
2170	4.4e-05
2182	4.8e-05
2194	3.2e-05
2206	5.2e-05
2218	2.8e-05
2230	2.8e-05
2242	2.8e-05
2254	3.6e-05
2266	4e-05
2278	6.8e-05
2290	2.8e-05
2302	4.8e-05
2314	1.6e-05
2326	3.6e-05
2338	4e-05
2350	2.4e-05
2362	6e-05
2374	5.2e-05
2386	7.2e-05
2398	8.4e-05
2410	7.6e-05
2422	4e-05
2434	3.6e-05
2446	2.4e-05
2458	4.8e-05
2470	4.4e-05
2482	6e-05
2494	2.8e-05
2506	8e-06
2518	2.4e-05
2530	2.4e-05
2542	1.2e-05
2554	0
2566	2e-05
2578	0
2590	2.4e-05
2602	2.4e-05
2614	1.2e-05
2626	2e-05
2638	7.2e-05
2650	6.8e-05
2662	0.000128
2674	8.8e-05
2686	0.00014
2698	0.000132
2710	0.000132
2722	0.000136
2734	0.000116
2746	0.000112
2758	8.8e-05
2770	0.000148
2782	0.000184
2794	0.000208
2806	0.0003
2818	0.000492
2830	0.000772
2842	0.001056
2854	0.001756
2866	0.003448
2878	0.004484
2890	0.00358
2902	0.002784
2914	0.003128
2926	0.003448
2938	0.002952
2950	0.002544
2962	0.002756
2974	0.00396
2986	0.003288
2998	0.002144
3010	0.0024
3022	0.001836
3034	0.000864
3046	0.000536
3058	0.000436
3070	0.000292
3082	0.00028
3094	0.000252
3106	0.000192
3118	0.000144
3130	0.0001
3142	0.00012
3154	8e-05
3166	5.6e-05
3178	2.8e-05
3190	7.6e-05
3202	2e-05
3214	4.4e-05
3226	2e-05
3238	4.8e-05
3250	3.2e-05
3262	0
3274	2.4e-05
3286	5.2e-05
3298	5.2e-05
3310	5.6e-05
3322	0.000108
3334	0.000148
3346	0.0003
3358	0.000456
3370	0.000476
3382	0.000312
3394	0.000168
3406	0.000192
3418	0.000184
3430	0.000252
3442	0.000332
3454	0.000404
3466	0.000452
3478	0.000316
3490	0.000252
3502	0.000212
3514	0.000156
3526	0.000148
3538	0.000156
3550	0.000116
3562	0.000152
3574	0.000152
3586	0.000132
3598	0.000124
3610	0.000112
3622	9.2e-05
3634	8.8e-05
3646	0.000144
3658	8e-05
3670	0.000176
3682	0.000108
3694	0.000108
3706	7.2e-05
3718	8.8e-05
3730	2.4e-05
3742	0.00012
3754	0.000136
3766	8e-05
3778	0.000112
3790	0.000112
3802	0.000136
3814	0.000156
3826	0.0001
3838	0.000104
