Infrared Spectrum: Aminomethylcyclohexane
Formula: C 7 H 15 N
CAS: 3218-02-8
State: gas
Origin: EPA-IR VAPOR PHASE LIBRARY
1/CM	ABSORBANCE
549.9	0.00445
559.547	0.00427
569.193	0.00371
578.84	0.00419
588.486	0.00475
598.133	0.00551
607.779	0.00555
617.426	0.00515
627.072	0.00501
636.719	0.00517
646.365	0.00545
656.012	0.00603
665.658	0.00651
675.305	0.00709
684.951	0.00777
694.598	0.00881
704.245	0.01027
713.891	0.01295
723.538	0.01715
733.184	0.02344
742.831	0.03035
752.477	0.03288
762.124	0.03055
771.77	0.02768
781.417	0.02665
791.063	0.02403
800.71	0.01832
810.356	0.01267
820.003	0.00963
829.649	0.00884
839.296	0.00825
848.943	0.00757
858.589	0.00728
868.236	0.00717
877.882	0.00734
887.529	0.00743
897.175	0.00688
906.822	0.00555
916.468	0.00475
926.115	0.00426
935.761	0.00433
945.408	0.00524
955.054	0.00554
964.701	0.00497
974.347	0.00406
983.994	0.00416
993.64	0.00427
1003.29	0.00459
1012.93	0.00547
1022.58	0.00717
1032.23	0.00863
1041.87	0.00879
1051.52	0.00833
1061.17	0.00851
1070.81	0.00794
1080.46	0.00649
1090.11	0.00597
1099.75	0.00645
1109.4	0.00587
1119.05	0.00422
1128.69	0.00279
1138.34	0.00194
1147.99	0.0017931
1157.63	0.0017026
1167.28	0.001512
1176.92	0.0018108
1186.57	0.0017477
1196.22	0.0013204
1205.86	0.0011432
1215.51	0.0010869
1225.16	0.0008046
1234.8	0.0014807
1244.45	0.00233
1254.1	0.0032
1263.74	0.00398
1273.39	0.00415
1283.04	0.00345
1292.68	0.0028
1302.33	0.00248
1311.98	0.00246
1321.62	0.00282
1331.27	0.00336
1340.92	0.00464
1350.56	0.00538
1360.21	0.00563
1369.86	0.00622
1379.5	0.00693
1389.15	0.0065
1398.79	0.00468
1408.44	0.00325
1418.09	0.003
1427.73	0.00463
1437.38	0.01004
1447.03	0.01646
1456.67	0.02053
1466.32	0.01498
1475.97	0.00862
1485.61	0.00408
1495.26	0.00264
1504.91	0.00218
1514.55	0.00198
1524.2	0.00199
1533.85	0.00199
1543.49	0.00196
1553.14	0.0021
1562.79	0.00226
1572.43	0.00264
1582.08	0.00331
1591.73	0.00444
1601.37	0.0065
1611.02	0.00967
1620.67	0.0117
1630.31	0.01037
1639.96	0.00681
1649.6	0.00402
1659.25	0.0026
1668.9	0.00202
1678.54	0.0016356
1688.19	0.0014314
1697.84	0.0013053
1707.48	0.0013033
1717.13	0.0011814
1726.78	0.0012036
1736.42	0.0011066
1746.07	0.0010897
1755.72	0.0010647
1765.36	0.0011167
1775.01	0.0011563
1784.66	0.0011121
1794.3	0.0011108
1803.95	0.0010876
1813.6	0.0010422
1823.24	0.0009951
1832.89	0.0009646
1842.54	0.00082873
1852.18	0.0008445
1861.83	0.0007573
1871.47	0.000662
1881.12	0.000623
1890.77	0.000619
1900.41	0.000588
1910.06	0.000566
1919.71	0.000423
1929.35	0.00041
1939	0.000439
1948.65	0.000405
1958.29	0.000385
1967.94	0.000437
1977.59	0.000392
1987.23	0.000417
1996.88	0.000485
2006.53	0.000507
2016.17	0.000537
2025.82	0.000525
2035.47	0.000523
2045.11	0.000538
2054.76	0.000518
2064.41	0.000574
2074.05	0.000557
2083.7	0.00058
2093.35	0.000557
2102.99	0.00054
2112.64	0.000587
2122.28	0.00055
2131.93	0.000588
2141.58	0.000607
2151.22	0.000625
2160.87	0.000654
2170.52	0.000691
2180.16	0.000703
2189.81	0.0007575
2199.46	0.000682
2209.1	0.000687
2218.75	0.000727
2228.4	0.000839359
2238.04	0.000839198
2247.69	0.00086409
2257.34	0.00091405
2266.98	0.0009625
2276.63	0.0009715
2286.28	0.00089461
2295.92	0.00086939
2305.57	0.00082007
2315.22	0.0007488
2324.86	0.0007679
2334.51	0.0007985
2344.16	0.000753
2353.8	0.0009514
2363.45	0.00092465
2373.09	0.0009951
2382.74	0.00090953
2392.39	0.00091075
2402.03	0.0008741
2411.68	0.0007771
2421.33	0.0007997
2430.97	0.0007723
2440.62	0.0008147
2450.27	0.0007629
2459.91	0.000729
2469.56	0.0008506
2479.21	0.000942
2488.85	0.0009333
2498.5	0.00091047
2508.15	0.00087092
2517.79	0.0009769
2527.44	0.0010332
2537.09	0.0010544
2546.73	0.0011314
2556.38	0.0012818
2566.03	0.0013176
2575.67	0.0015129
2585.32	0.0017653
2594.96	0.00203
2604.61	0.0022
2614.26	0.00239
2623.9	0.0025
2633.55	0.00289
2643.2	0.00328
2652.84	0.00403
2662.49	0.00473
2672.14	0.00464
2681.78	0.00412
2691.43	0.00388
2701.08	0.00384
2710.72	0.00397
2720.37	0.00402
2730.02	0.00431
2739.66	0.0045
2749.31	0.00477
2758.96	0.00484
2768.6	0.0051
2778.25	0.0057
2787.9	0.0067
2797.54	0.00787
2807.19	0.00935
2816.84	0.01215
2826.48	0.01819
2836.13	0.03189
2845.77	0.06162
2855.42	0.09937
2865.07	0.10539
2874.71	0.0796
2884.36	0.05686
2894.01	0.0604
2903.65	0.09363
2913.3	0.1519
2922.95	0.2313
2932.59	0.28867
2942.24	0.21321
2951.89	0.10438
2961.53	0.03253
2971.18	0.01182
2980.83	0.00599
2990.47	0.00418
3000.12	0.00317
3009.77	0.00273
3019.41	0.00254
3029.06	0.00233
3038.71	0.00196
3048.35	0.0016608
3058	0.0016592
3067.64	0.0015377
3077.29	0.0012689
3086.94	0.0012616
3096.58	0.0011103
3106.23	0.00089251
3115.88	0.0007848
3125.52	0.00097
3135.17	0.0010174
3144.82	0.0013289
3154.46	0.0012917
3164.11	0.0012027
3173.76	0.00088173
3183.4	0.00092379
3193.05	0.0008443
3202.7	0.00091802
3212.34	0.0009131
3221.99	0.00090335
3231.64	0.0010582
3241.28	0.000835901
3250.93	0.00082529
3260.58	0.000661
3270.22	0.0007431
3279.87	0.000724
3289.52	0.000627
3299.16	0.000573
3308.81	0.000666
3318.45	0.0006
3328.1	0.0007917
3337.75	0.0012006
3347.39	0.0014284
3357.04	0.0015895
3366.69	0.0010559
3376.33	0.00090498
3385.98	0.000606
3395.63	0.000633
3405.27	0.000833471
3414.92	0.0007622
3424.57	0.00091497
3434.21	0.000621
3443.86	0.000572
3453.51	0.000685
3463.15	0.000448
3472.8	0.0007464
3482.45	0.000559
3492.09	0.00013
3501.74	0.000243
3511.39	0.000278
3521.03	0.000292
3530.68	0.000199
3540.33	0.000143
3549.97	0.000146
3559.62	0.00018
3569.26	0.000262
3578.91	0.00032
3588.56	0.000199
3598.2	0.000215
3607.85	0.000281
3617.5	0.000251
3627.14	0.000192
3636.79	0.000236
3646.44	0.000294
3656.08	0.000461
3665.73	0.000512
3675.38	0.000389
3685.02	0.000414
3694.67	0.000296
3704.32	0.000369
3713.96	0.000527
3723.61	0.000334
3733.26	0.000411
3742.9	0.000468
3752.55	0.000397
3762.2	0.000599
3771.84	0.000703
3781.49	0.000617
3791.13	0.000569
3800.78	0.000428
3810.43	0.000581
3820.07	0.000531
3829.72	0.000574
3839.37	0.000596
3849.01	0.000524
3858.66	0.0007302
3868.31	0.000498
3877.95	0.000511
3887.6	0.000505
3897.25	0.000489
3906.89	0.000522
3916.54	0.000615
3926.19	0.000629
3935.83	0.000702
3945.48	0.0007544
3955.13	0.000961
3964.77	0.00086957
3974.42	0.000759
3984.07	0.0008231
3993.71	0.000658
