Infrared Spectrum: 2-n-HEPTYL-6-METHYL PYRAZINE
Formula: C12 H20 N2
CAS: 32184-56-8
State: LIQUID
Class: COBLENTZ
Instrument: Not specified, most likely a prism, grating, or hybrid spectrometer.
Sampling: TRANSMISSION
Path length: 0.003 CM
Resolution: 4
Origin: WYANDOTTE CHEMICALS CORP., WYANDOTTE, MICHIGAN, USA
MICROMETERS	TRANSMITTANCE
2.106	0.988
2.14576	0.985
2.18551	0.946
2.22527	0.918
2.26502	0.915
2.30478	0.92
2.34453	0.926
2.38429	0.921
2.42404	0.926
2.4638	0.945
2.50355	0.95
2.54331	0.958
2.58306	0.955
2.62282	0.956
2.66257	0.96
2.70233	0.96
2.74208	0.948
2.78184	0.93
2.82159	0.905
2.86135	0.892
2.9011	0.877
2.94086	0.868
2.98061	0.86
3.02037	0.868
3.06012	0.87
3.09988	0.873
3.13963	0.863
3.17939	0.862
3.21914	0.832
3.2589	0.696
3.29865	0.428
3.33841	0.24
3.37816	0.054
3.41792	0.061
3.45768	0.111
3.49743	0.076
3.53719	0.451
3.57694	0.724
3.6167	0.8
3.65645	0.805
3.69621	0.83
3.73596	0.842
3.77572	0.85
3.81547	0.873
3.85523	0.887
3.89498	0.906
3.93474	0.911
3.97449	0.916
4.01425	0.923
4.054	0.921
4.09376	0.916
4.13351	0.925
4.17327	0.918
4.21302	0.92
4.25278	0.921
4.29253	0.933
4.33229	0.928
4.37204	0.928
4.4118	0.928
4.45155	0.94
4.49131	0.941
4.53106	0.943
4.57082	0.945
4.61057	0.95
4.65033	0.948
4.69008	0.946
4.72984	0.948
4.7696	0.946
4.80935	0.953
4.84911	0.948
4.88886	0.951
4.92862	0.958
4.96837	0.948
5.00813	0.951
5.04788	0.953
5.08764	0.948
5.12739	0.95
5.16715	0.955
5.2069	0.956
5.24666	0.956
5.28641	0.951
5.32617	0.946
5.36592	0.936
5.40568	0.94
5.44543	0.95
5.48519	0.95
5.52494	0.94
5.5647	0.916
5.60445	0.916
5.64421	0.938
5.68396	0.938
5.72372	0.933
5.76347	0.903
5.80323	0.9
5.84298	0.901
5.88274	0.908
5.92249	0.908
5.96225	0.893
6.002	0.877
6.04176	0.873
6.08152	0.853
6.12127	0.855
6.16103	0.863
6.20078	0.853
6.24054	0.805
6.28029	0.676
6.32005	0.707
6.3598	0.747
6.39956	0.724
6.43931	0.631
6.47907	0.169
6.51882	0.242
6.55858	0.528
6.59833	0.626
6.63809	0.634
6.67784	0.611
6.7176	0.533
6.75735	0.403
6.79711	0.116
6.83686	0.154
6.87662	0.191
6.91637	0.179
6.95613	0.159
6.99588	0.124
7.03564	0.106
7.07539	0.126
7.11515	0.362
7.1549	0.49
7.19466	0.481
7.23441	0.255
7.27417	0.401
7.31393	0.574
7.35368	0.641
7.39344	0.651
7.43319	0.657
7.47295	0.669
7.5127	0.714
7.55246	0.714
7.59221	0.689
7.63197	0.691
7.67172	0.686
7.71148	0.672
7.75123	0.674
7.79099	0.596
7.83074	0.496
7.8705	0.375
7.91025	0.285
7.95001	0.244
7.98976	0.297
8.02952	0.37
8.06927	0.403
8.10903	0.401
8.14878	0.453
8.18854	0.534
8.22829	0.584
8.26805	0.606
8.3078	0.614
8.34756	0.581
8.38731	0.544
8.42707	0.504
8.46682	0.435
8.50658	0.385
8.54633	0.285
8.58609	0.159
8.62585	0.151
8.6656	0.202
8.70536	0.259
8.74511	0.348
8.78487	0.44
8.82462	0.503
8.86438	0.549
8.90413	0.531
8.94389	0.503
8.98364	0.495
9.0234	0.486
9.06315	0.481
9.10291	0.486
9.14266	0.503
9.18242	0.523
9.22217	0.561
9.26193	0.599
9.30168	0.614
9.34144	0.627
9.38119	0.629
9.42095	0.627
9.4607	0.624
9.50046	0.622
9.54021	0.609
9.57997	0.564
9.61972	0.513
9.65948	0.481
9.69923	0.468
9.73899	0.37
9.77874	0.204
9.8185	0.166
9.85825	0.333
9.89801	0.471
9.93777	0.536
9.97752	0.576
10.0173	0.596
10.057	0.622
10.0968	0.661
10.1365	0.696
10.1763	0.72
10.2161	0.737
10.2558	0.74
10.2956	0.749
10.3353	0.75
10.3751	0.75
10.4148	0.745
10.4546	0.739
10.4943	0.722
10.5341	0.696
10.5738	0.652
10.6136	0.627
10.6534	0.651
10.6931	0.681
10.7329	0.691
10.7726	0.719
10.8124	0.744
10.8521	0.75
10.8919	0.762
10.9316	0.77
10.9714	0.767
11.0112	0.764
11.0509	0.774
11.0907	0.784
11.1304	0.772
11.1702	0.765
11.2099	0.76
11.2497	0.742
11.2894	0.717
11.3292	0.679
11.369	0.637
11.4087	0.578
11.4485	0.506
11.4882	0.45
11.528	0.436
11.5677	0.496
11.6075	0.607
11.6472	0.696
11.687	0.767
11.7267	0.803
11.7665	0.83
11.8063	0.852
11.846	0.858
11.8858	0.86
11.9255	0.858
11.9653	0.863
12.005	0.862
12.0448	0.865
12.0845	0.862
12.1243	0.858
12.1641	0.865
12.2038	0.87
12.2436	0.873
12.2833	0.878
12.3231	0.882
12.3628	0.88
12.4026	0.87
12.4423	0.867
12.4821	0.863
12.5219	0.86
12.5616	0.852
12.6014	0.843
12.6411	0.843
12.6809	0.837
12.7206	0.832
12.7604	0.823
12.8001	0.815
12.8399	0.802
12.8796	0.792
12.9194	0.764
12.9592	0.737
12.9989	0.702
13.0387	0.656
13.0784	0.631
13.1182	0.612
13.1579	0.617
13.1977	0.636
13.2374	0.646
13.2772	0.656
13.317	0.661
13.3567	0.652
13.3965	0.654
13.4362	0.644
13.476	0.641
13.5157	0.634
13.5555	0.639
13.5952	0.632
13.635	0.622
13.6747	0.611
13.7145	0.589
13.7543	0.553
13.794	0.498
13.8338	0.461
13.8735	0.46
13.9133	0.483
13.953	0.553
13.9928	0.596
14.0325	0.649
14.0723	0.682
14.1121	0.714
14.1518	0.734
14.1916	0.754
14.2313	0.762
14.2711	0.772
14.3108	0.764
14.3506	0.757
14.3903	0.739
14.4301	0.729
14.4699	0.739
14.5096	0.75
14.5494	0.754
14.5891	0.752
14.6289	0.749
14.6686	0.749
14.7084	0.749
14.7481	0.749
14.7879	0.74
14.8276	0.732
14.8674	0.729
14.9072	0.722
14.9469	0.712
14.9867	0.719
15.0264	0.705
15.0662	0.659
15.1059	0.602
15.1457	0.598
15.1854	0.626
15.2252	0.647
15.265	0.662
15.3047	0.666
15.3445	0.666
15.3842	0.664
15.424	0.649
15.4637	0.641
15.5035	0.641
15.5432	0.619
15.583	0.624
15.6228	0.614
15.6625	0.606
15.7023	0.593
15.742	0.581
15.7818	0.574
15.8215	0.571
15.8613	0.556
15.901	0.551
15.9408	0.546
15.9805	0.534
