Infrared Spectrum: 4-t-Butylcyclohexyl acetate
Formula: C 12 H 22 O 2
CAS: 32210-23-4
State: gas
Instrument: HP-GC/MS/IRD
Origin: NIST Mass Spectrometry Data Center
1/CM	ABSORBANCE
550	0.0001125
562	0.0010125
574	0.0010875
586	0.0003375
598	0.002025
610	0.0039
622	0.0019875
634	0.00135
646	0.0039375
658	0.0055875
670	0.001275
682	0.0003
694	0.0001125
706	0.000225
718	7.5e-05
730	0.0001125
742	0.0005625
754	0.0015375
766	0.000375
778	0.0002625
790	0.000675
802	0.000825
814	0.0006
826	0.0006
838	0.000825
850	0.0012375
862	0.002775
874	0.0051
886	0.0094125
898	0.011775
910	0.0087375
922	0.0056625
934	0.003975
946	0.0055875
958	0.0105
970	0.0145125
982	0.0111
994	0.0151125
1006	0.0281625
1018	0.0618
1030	0.0982125
1042	0.106762
1054	0.087
1066	0.035025
1078	0.0273375
1090	0.021525
1102	0.01515
1114	0.0132
1126	0.008475
1138	0.006225
1150	0.0061125
1162	0.00765
1174	0.011925
1186	0.0220125
1198	0.035625
1210	0.0688875
1222	0.147675
1234	0.330075
1246	0.3099
1258	0.107062
1270	0.0432
1282	0.0249
1294	0.0155625
1306	0.0132
1318	0.013425
1330	0.0113625
1342	0.012225
1354	0.03225
1366	0.0871875
1378	0.0677625
1390	0.0311625
1402	0.02115
1414	0.0101625
1426	0.0090375
1438	0.01185
1450	0.020175
1462	0.0237
1474	0.022575
1486	0.0174
1498	0.00735
1510	0.0049875
1522	0.0046125
1534	0.0042375
1546	0.003825
1558	0.002925
1570	0.002475
1582	0.002325
1594	0.0024375
1606	0.003
1618	0.0033375
1630	0.0027375
1642	0.0024
1654	0.0026625
1666	0.0033
1678	0.0043125
1690	0.0060375
1702	0.0108375
1714	0.0174
1726	0.026925
1738	0.069375
1750	0.15435
1762	0.1305
1774	0.0522375
1786	0.0239625
1798	0.0153375
1810	0.0100875
1822	0.0061875
1834	0.0040125
1846	0.00255
1858	0.0016875
1870	0.0013125
1882	0.00135
1894	0.001575
1906	0.0015375
1918	0.0016125
1930	0.0016125
1942	0.00135
1954	0.0008625
1966	0.000675
1978	0.0005625
1990	0.000525
2002	0.0004125
2014	0.0004125
2026	0.000375
2038	0.0002625
2050	0.0001875
2062	0.00015
2074	0.0002625
2086	0.0004875
2098	0.0009
2110	0.0015375
2122	0.0020625
2134	0.0017625
2146	0.000975
2158	0.0005625
2170	0.0004125
2182	0.0003375
2194	0.0001875
2206	0.00015
2218	0.0002625
2230	0.0003
2242	0.0004875
2254	0.0006
2266	0.00045
2278	0.0003
2290	0.00015
2302	7.5e-05
2314	3.75e-05
2326	0.000225
2338	0.0002625
2350	0.0001875
2362	0.00015
2374	0.0001875
2386	0.000225
2398	0.000375
2410	0.00045
2422	0.000375
2434	0.0003375
2446	0.0004125
2458	0.0006375
2470	0.000825
2482	0.0007125
2494	0.0004125
2506	0.0002625
2518	0.000225
2530	0.0001875
2542	0.000225
2554	0.000225
2566	0.000375
2578	0.0005625
2590	0.0007875
2602	0.0009375
2614	0.00105
2626	0.0012375
2638	0.0012375
2650	0.0012
2662	0.0013125
2674	0.0014625
2686	0.0016125
2698	0.0017625
2710	0.0021375
2722	0.0025125
2734	0.0025125
2746	0.00225
2758	0.0022875
2770	0.0023625
2782	0.0024375
2794	0.0030375
2806	0.003975
2818	0.005475
2830	0.0075
2842	0.0138375
2854	0.03015
2866	0.0621375
2878	0.07185
2890	0.0480375
2902	0.04545
2914	0.0606
2926	0.0739125
2938	0.110512
2950	0.190987
2962	0.227887
2974	0.1368
2986	0.0500625
2998	0.0166875
3010	0.009975
3022	0.0075
3034	0.0059625
3046	0.0047625
3058	0.0039375
3070	0.0035625
3082	0.003225
3094	0.0028875
3106	0.002475
3118	0.0021375
3130	0.0019125
3142	0.0018375
3154	0.0018
3166	0.0016125
3178	0.00165
3190	0.0015375
3202	0.001425
3214	0.001275
3226	0.0010875
3238	0.0007875
3250	0.000675
3262	0.0005625
3274	0.00045
3286	0.0004125
3298	0.0003
3310	0.000225
3322	0.000225
3334	0.0003375
3346	0.0002625
3358	0.000225
3370	0.000225
3382	0.0002625
3394	0.0003
3406	0.0004875
3418	0.000525
3430	0.0004875
3442	0.0004125
3454	0.000525
3466	0.00075
3478	0.0013875
3490	0.0019125
3502	0.00135
3514	0.0007875
3526	0.0005625
3538	0.000375
3550	0.0001875
3562	0.0001875
3574	7.5e-05
3586	0.0001125
3598	0.0001125
3610	3.75e-05
3622	3.75e-05
3634	0.0001125
3646	0.00015
3658	0.00015
3670	0.0001125
3682	0.00015
3694	0.00015
3706	0.0001125
3718	0.00015
3730	0.00015
3742	0.0001875
3754	0.0002625
3766	0.000225
3778	0.0002625
3790	0.0002625
3802	0.0003
3814	0.0003375
3826	0.0003
3838	0.00045
