Infrared Spectrum: 6-Methylnicotinic acid
Formula: C 7 H 7 N O 2
CAS: 3222-47-7
State: gas
Origin: EPA-IR VAPOR PHASE LIBRARY
1/CM	ABSORBANCE
549.8	0.003879
559.445	0.005359
569.09	0.007209
578.734	0.006009
588.379	0.005339
598.024	0.005789
607.669	0.004369
617.313	0.002039
626.958	0.0015772
636.603	0.0018937
646.248	0.0017659
655.893	0.0013677
665.537	0.0015387
675.182	0.002259
684.827	0.0009275
694.472	0.0013554
704.116	0.003389
713.761	0.005129
723.406	0.005189
733.051	0.004649
742.695	0.004729
752.34	0.006069
761.985	0.006969
771.63	0.005099
781.275	0.002459
790.919	0.0018022
800.564	0.002039
810.209	0.0013961
819.854	0.000693
829.498	0.0015793
839.143	0.0017988
848.788	0.002019
858.433	0.00048
868.078	0.0009009
877.722	0.0014128
887.367	0.000632
897.012	0.0012189
906.657	0.0008838
916.301	0.00103889
925.946	0.0011616
935.591	0.0014732
945.236	0.0013674
954.88	0.0012521
964.525	0.0012578
974.17	0.002109
983.815	0.002359
993.46	0.002089
1003.1	0.002329
1012.75	0.004829
1022.39	0.005659
1032.04	0.004349
1041.68	0.0018283
1051.33	0.001874
1060.97	0.002789
1070.62	0.007859
1080.26	0.017659
1089.91	0.025369
1099.55	0.018559
1109.2	0.006079
1118.84	0.004499
1128.49	0.006159
1138.13	0.006059
1147.78	0.005989
1157.42	0.003869
1167.07	0.007739
1176.71	0.015159
1186.36	0.018749
1196	0.013929
1205.64	0.003739
1215.29	0.003609
1224.93	0.003059
1234.58	0.003619
1244.22	0.004079
1253.87	0.003219
1263.51	0.003619
1273.16	0.004999
1282.8	0.007519
1292.45	0.007499
1302.09	0.006109
1311.74	0.005659
1321.38	0.006839
1331.03	0.005379
1340.67	0.003629
1350.32	0.004949
1359.96	0.008449
1369.61	0.010669
1379.25	0.010379
1388.9	0.007299
1398.54	0.004239
1408.18	0.002799
1417.83	0.002139
1427.47	0.002159
1437.12	0.002009
1446.76	0.002179
1456.41	0.002179
1466.05	0.002549
1475.7	0.003739
1485.34	0.004699
1494.99	0.003779
1504.63	0.002179
1514.28	0.0018309
1523.92	0.002189
1533.57	0.002039
1543.21	0.0018842
1552.86	0.002829
1562.5	0.003709
1572.15	0.004499
1581.79	0.006109
1591.44	0.011179
1601.08	0.013069
1610.73	0.009299
1620.37	0.004629
1630.01	0.001969
1639.66	0.0013438
1649.3	0.0014193
1658.95	0.001477
1668.59	0.0016817
1678.24	0.0016266
1687.88	0.0016345
1697.53	0.002409
1707.17	0.002379
1716.82	0.003089
1726.46	0.003659
1736.11	0.006409
1745.75	0.015929
1755.4	0.038729
1765.04	0.041749
1774.69	0.022429
1784.33	0.007869
1793.98	0.003849
1803.62	0.002499
1813.27	0.002499
1822.91	0.002329
1832.55	0.0018219
1842.2	0.00145
1851.84	0.0014217
1861.49	0.0013038
1871.13	0.0012461
1880.78	0.0012148
1890.42	0.0012752
1900.07	0.0015017
1909.71	0.001334
1919.36	0.0014916
1929	0.0012871
1938.65	0.0014283
1948.29	0.0014801
1957.94	0.0013691
1967.58	0.0009689
1977.23	0.00098269
1986.87	0.0011305
1996.52	0.0010161
2006.16	0.00065
2015.81	0.000826
2025.45	0.0009128
2035.1	0.0010474
2044.74	0.00094221
2054.38	0.00081
2064.03	0.000784
2073.67	0.0008919
2083.32	0.0011963
2092.96	0.0011381
2102.61	0.00096758
2112.25	0.0012148
2121.9	0.00103461
2131.54	0.000786
2141.19	0.000663
2150.83	0.000777
2160.48	0.0011072
2170.12	0.00098283
2179.77	0.0010551
2189.41	0.00101909
2199.06	0.0011588
2208.7	0.0011457
2218.35	0.000837
2227.99	0.00104602
2237.64	0.00104532
2247.28	0.0011212
2256.92	0.00100013
2266.57	0.0009047
2276.21	0.0008855
2285.86	0.000703
2295.5	0.0008675
2305.15	0.000676
2314.79	0.0011211
2324.44	0.000937
2334.08	0.00082
2343.73	0.0009217
2353.37	0.0011708
2363.02	0.00094258
2372.66	0.001107
2382.31	0.00101093
2391.95	0.0010818
2401.6	0.0010517
2411.24	0.000665
2420.89	0.0010614
2430.53	0.000833
2440.18	0.000468
2449.82	0.000938
2459.47	0.000718
2469.11	0.0011508
2478.75	0.0012429
2488.4	0.00102061
2498.04	0.000801
2507.69	0.00082
2517.33	0.0008541
2526.98	0.000662
2536.62	0.0011586
2546.27	0.0010692
2555.91	0.000842
2565.56	0.000677
2575.2	0.000423
2584.85	0.0008546
2594.49	0.0009675
2604.14	0.00066
2613.78	0.000658
2623.43	0.001134
2633.07	0.000642
2642.72	0.001272
2652.36	0.0008623
2662.01	0.00094435
2671.65	0.0008634
2681.29	0.000826
2690.94	0.000914
2700.58	0.000519
2710.23	0.000809
2719.87	0.000532
2729.52	0.000835
2739.16	0.000686
2748.81	0.0011073
2758.45	0.0010596
2768.1	0.0010784
2777.74	0.000524
2787.39	0.000545
2797.03	0.0009374
2806.68	0.00094711
2816.32	0.000693
2825.97	0.000676
2835.61	0.000729
2845.26	0.001214
2854.9	0.00148
2864.55	0.0011022
2874.19	0.0011128
2883.84	0.00101449
2893.48	0.000599
2903.12	0.000809
2912.77	0.0015242
2922.41	0.002199
2932.06	0.002709
2941.7	0.0018161
2951.35	0.0015761
2960.99	0.002159
2970.64	0.0014221
2980.28	0.0015615
2989.93	0.0011567
2999.57	0.0015111
3009.22	0.001205
3018.86	0.0017677
3028.51	0.0017647
3038.15	0.001969
3047.8	0.0016719
3057.44	0.0019229
3067.09	0.0016732
3076.73	0.0017858
3086.38	0.0014642
3096.02	0.0017183
3105.67	0.0019315
3115.31	0.0011184
3124.95	0.001959
3134.6	0.000951746
3144.24	0.000663
3153.89	0.000777
3163.53	0.000766
3173.18	0.000651
3182.82	0.000643
3192.47	0.000266
3202.11	0.000651
3211.76	0.000817
3221.4	0.0009157
3231.05	0.0014965
3240.69	0.0008742
3250.34	0.0014169
3259.98	0.000396
3269.63	0.0011125
3279.27	0.000665
3288.92	0.0011627
3298.56	0.000302
3308.21	0.00103018
3317.85	0.0012324
3327.49	0.000391
3337.14	0.00102124
3346.78	0.00104697
3356.43	0.000831
3366.07	0.00098283
3375.72	0.00096874
3385.36	0.0009384
3395.01	0.000786
3404.65	0.00102322
3414.3	0.000849
3423.94	0.001182
3433.59	0.0011426
3443.23	0.000797
3452.88	0.0012953
3462.52	0.00102491
3472.17	0.000469
3481.81	0.000654
3491.46	0.000692
3501.1	0.0010863
3510.75	0.001054
3520.39	0.00104815
3530.04	0.0011466
3539.68	0.000843
3549.32	0.000838
3558.97	0.002159
3568.61	0.005449
3578.26	0.014189
3587.9	0.013439
3597.55	0.002989
3607.19	0.001424
3616.84	0.001155
3626.48	0.0011837
3636.13	0.0014101
3645.77	0.0009003
3655.42	0.0016057
3665.06	0.001394
3674.71	0.0015748
3684.35	0.0010691
3694	0.00098308
3703.64	0.00059
3713.29	0.0017384
3722.93	0.000326
3732.58	0.000616
3742.22	0.000559
3751.86	0.00097132
3761.51	0.001265
3771.15	0.0012597
3780.8	0.00096378
3790.44	0.00098044
3800.09	0.0008726
3809.73	0.000393
3819.38	0.0012008
3829.02	0.0008812
3838.67	0.000781
3848.31	0.0010544
3857.96	0.0012994
3867.6	0.0009662
3877.25	0.000465
3886.89	2e-05
3896.54	0.0014156
3906.18	0.000646
3915.83	0.0012562
3925.47	0.0012635
3935.12	0.001118
3944.76	0.001144
3954.41	0.0012438
3964.05	0
3973.69	0.0012095
3983.34	0.0012463
3992.98	0.000602
