Infrared Spectrum: 5-Cyano-2-picoline
Formula: C 7 H 6 N 2
CAS: 3222-48-8
State: gas
Origin: EPA-IR VAPOR PHASE LIBRARY
1/CM	ABSORBANCE
549.8	0.007154
559.445	0.004474
569.09	0.003204
578.734	0.001974
588.379	0.0009929
598.024	0.0010797
607.669	0.0007954
617.313	0.001774
626.958	0.0015515
636.603	0.003114
646.248	0.003644
655.893	0.003454
665.537	0.0010988
675.182	0.0010859
684.827	0.0009663
694.472	0.001914
704.116	0.003374
713.761	0.004864
723.406	0.008414
733.051	0.005454
742.695	0.003604
752.34	0.002344
761.985	0.001764
771.63	0.002024
781.275	0.002624
790.919	0.004084
800.564	0.004694
810.209	0.010104
819.854	0.014854
829.498	0.020974
839.143	0.012854
848.788	0.007134
858.433	0.003874
868.078	0.002154
877.722	0.001864
887.367	0.0013377
897.012	0.0012702
906.657	0.001714
916.301	0.001944
925.946	0.003404
935.591	0.002904
945.236	0.003034
954.88	0.003044
964.525	0.003704
974.17	0.002494
983.815	0.003354
993.46	0.002274
1003.1	0.003044
1012.75	0.007124
1022.39	0.009584
1032.04	0.011664
1041.68	0.006544
1051.33	0.004304
1060.97	0.005194
1070.62	0.002764
1080.26	0.001774
1089.91	0.0012615
1099.55	0.00071753
1109.2	0.002754
1118.84	0.0010071
1128.49	0.005014
1138.13	0.004374
1147.78	0.003224
1157.42	0.0014004
1167.07	0.002394
1176.71	0.0014239
1186.36	0.0011069
1196	0.003284
1205.64	0.002714
1215.29	0.004374
1224.93	0.005504
1234.58	0.006704
1244.22	0.007954
1253.87	0.005494
1263.51	0.002834
1273.16	0.002674
1282.8	0.005464
1292.45	0.011194
1302.09	0.010484
1311.74	0.003964
1321.38	0.002614
1331.03	0.003104
1340.67	0.003354
1350.32	0.005764
1359.96	0.010584
1369.61	0.020144
1379.25	0.025194
1388.9	0.019254
1398.54	0.009034
1408.18	0.006354
1417.83	0.005544
1427.47	0.005794
1437.12	0.006584
1446.76	0.008254
1456.41	0.011614
1466.05	0.023064
1475.7	0.040984
1485.34	0.048934
1494.99	0.033084
1504.63	0.011194
1514.28	0.008004
1523.92	0.008334
1533.57	0.009704
1543.21	0.012394
1552.86	0.012814
1562.5	0.012334
1572.15	0.014214
1581.79	0.025144
1591.44	0.053364
1601.08	0.056264
1610.73	0.028774
1620.37	0.005864
1630.01	0.003374
1639.66	0.002904
1649.3	0.003414
1658.95	0.003244
1668.59	0.002434
1678.24	0.002084
1687.88	0.001784
1697.53	0.001764
1707.17	0.0014275
1716.82	0.0012986
1726.46	0.0015774
1736.11	0.0012946
1745.75	0.0013552
1755.4	0.0012668
1765.04	0.001639
1774.69	0.0016221
1784.33	0.001954
1793.98	0.001774
1803.62	0.0016736
1813.27	0.00154
1822.91	0.0012794
1832.55	0.0014562
1842.2	0.001824
1851.84	0.002254
1861.49	0.002794
1871.13	0.002544
1880.78	0.002004
1890.42	0.001784
1900.07	0.0016075
1909.71	0.001784
1919.36	0.002274
1929	0.002414
1938.65	0.002354
1948.29	0.002124
1957.94	0.0016281
1967.58	0.0013019
1977.23	0.0012354
1986.87	0.001065
1996.52	0.0011877
2006.16	0.0010693
2015.81	0.0013367
2025.45	0.0014427
2035.1	0.0011942
2044.74	0.0012375
2054.38	0.0012826
2064.03	0.0012965
2073.67	0.0014685
2083.32	0.0014676
2092.96	0.0011953
2102.61	0.0013085
2112.25	0.0012054
2121.9	0.0012036
2131.54	0.0012918
2141.19	0.000928
2150.83	0.0011742
2160.48	0.0008787
2170.12	0.0013918
2179.77	0.0013282
2189.41	0.001724
2199.06	0.001774
2208.7	0.002654
2218.35	0.004924
2227.99	0.009364
2237.64	0.011344
2247.28	0.007624
2256.92	0.002254
2266.57	0.0016523
2276.21	0.0013817
2285.86	0.0012672
2295.5	0.0013385
2305.15	0.0013507
2314.79	0.0012289
2324.44	0.0012324
2334.08	0.0015579
2343.73	0.0016704
2353.37	0.0014142
2363.02	0.0012978
2372.66	0.0013837
2382.31	0.0015334
2391.95	0.001884
2401.6	0.001844
2411.24	0.002044
2420.89	0.002134
2430.53	0.002344
2440.18	0.002004
2449.82	0.002084
2459.47	0.0016917
2469.11	0.0016118
2478.75	0.0016534
2488.4	0.0015533
2498.04	0.001794
2507.69	0.002044
2517.33	0.0014385
2526.98	0.0011415
2536.62	0.0010117
2546.27	0.0013606
2555.91	0.0012156
2565.56	0.0011926
2575.2	0.0015184
2584.85	0.00142
2594.49	0.0015966
2604.14	0.0016254
2613.78	0.001974
2623.43	0.0015072
2633.07	0.001934
2642.72	0.0013472
2652.36	0.0014777
2662.01	0.0014174
2671.65	0.0015982
2681.29	0.0011768
2690.94	0.0014597
2700.58	0.0010333
2710.23	0.0014836
2719.87	0.0013684
2729.52	0.0013044
2739.16	0.0016995
2748.81	0.0013932
2758.45	0.001844
2768.1	0.0016112
2777.74	0.0015285
2787.39	0.001924
2797.03	0.001744
2806.68	0.0014447
2816.32	0.0015399
2825.97	0.002234
2835.61	0.002544
2845.26	0.002904
2854.9	0.003094
2864.55	0.004084
2874.19	0.003594
2883.84	0.004304
2893.48	0.003614
2903.12	0.004404
2912.77	0.004834
2922.41	0.006884
2932.06	0.010044
2941.7	0.010874
2951.35	0.009024
2960.99	0.005634
2970.64	0.005154
2980.28	0.005274
2989.93	0.005044
2999.57	0.006014
3009.22	0.006884
3018.86	0.008304
3028.51	0.009604
3038.15	0.009064
3047.8	0.008064
3057.44	0.006344
3067.09	0.006454
3076.73	0.007194
3086.38	0.007824
3096.02	0.006814
3105.67	0.005564
3115.31	0.003694
3124.95	0.002524
3134.6	0.0015051
3144.24	0.0016538
3153.89	0.0015906
3163.53	0.001864
3173.18	0.0015729
3182.82	0.001994
3192.47	0.001672
3202.11	0.0014249
3211.76	0.0009537
3221.4	0.0016237
3231.05	0.0014532
3240.69	0.0013973
3250.34	0.0011326
3259.98	0.001764
3269.63	0.0014906
3279.27	0.001864
3288.92	0.0015219
3298.56	0.002114
3308.21	0.0016586
3317.85	0.0011232
3327.49	0.0011931
3337.14	0.0013412
3346.78	0.0012836
3356.43	0.001874
3366.07	0.0016061
3375.72	0.001864
3385.36	0.0016749
3395.01	0.001389
3404.65	0.001924
3414.3	0.001834
3423.94	0.002144
3433.59	0.002614
3443.23	0.0017004
3452.88	0.0015374
3462.52	0.0012264
3472.17	0.001774
3481.81	0.001714
3491.46	0.0011559
3501.1	0.0016166
3510.75	0.0014486
3520.39	0.0012393
3530.04	0.000906
3539.68	0.0013926
3549.32	0.001153
3558.97	0.0009853
3568.61	0.001784
3578.26	0.0013329
3587.9	0.0013027
3597.55	0.0014337
3607.19	0.00079605
3616.84	0.0016536
3626.48	0.0011557
3636.13	0.0010674
3645.77	0.0015664
3655.42	0.0010345
3665.06	0.0011141
3674.71	0.0010337
3684.35	0.001405
3694	0.0015844
3703.64	0.0009973
3713.29	0.0016689
3722.93	0.001794
3732.58	0.0013457
3742.22	0.00080108
3751.86	0.0010359
3761.51	0.0013046
3771.15	0.0010634
3780.8	0.0010515
3790.44	0.0009728
3800.09	0.0015113
3809.73	0.001874
3819.38	0.0014735
3829.02	0.0010896
3838.67	0.002214
3848.31	0.0013416
3857.96	0.001844
3867.6	0.0015469
3877.25	0.0016869
3886.89	0.002214
3896.54	0.0015036
3906.18	0.002104
3915.83	0.0016354
3925.47	0.0014743
3935.12	0.001994
3944.76	0.0009087
3954.41	0.0012404
3964.05	0.0016565
3973.69	0.001804
3983.34	0.001724
3992.98	0.0009418
