Infrared Spectrum: Tetradecyl isothiocyanate
Formula: C 15 H 29 N S
CAS: 3224-48-4
State: gas
Origin: EPA-IR VAPOR PHASE LIBRARY
1/CM	ABSORBANCE
549.8	0.0070851
559.445	0.0066051
569.09	0.0056951
578.734	0.0047951
588.379	0.0037351
598.024	0.0032651
607.669	0.0024851
617.313	0.0020051
626.958	0.0018251
636.603	0.0018451
646.248	0.0022351
655.893	0.0025951
665.537	0.0026951
675.182	0.0025051
684.827	0.0027851
694.472	0.0042451
704.116	0.0060651
713.761	0.0072751
723.406	0.0071551
733.051	0.0060451
742.695	0.0048751
752.34	0.0042251
761.985	0.0039751
771.63	0.0029851
781.275	0.0025051
790.919	0.0022551
800.564	0.0019251
810.209	0.0020451
819.854	0.0020651
829.498	0.0018551
839.143	0.0016051
848.788	0.0017051
858.433	0.0017751
868.078	0.0015651
877.722	0.0016651
887.367	0.0019051
897.012	0.0020551
906.657	0.0021451
916.301	0.0023751
925.946	0.0026551
935.591	0.0024451
945.236	0.0023051
954.88	0.0024051
964.525	0.0021951
974.17	0.0023051
983.815	0.0021551
993.46	0.0021651
1003.1	0.0019251
1012.75	0.0022951
1022.39	0.0026351
1032.04	0.0027751
1041.68	0.0024451
1051.33	0.0027851
1060.97	0.0027051
1070.62	0.0031551
1080.26	0.0029751
1089.91	0.0028551
1099.55	0.0030851
1109.2	0.0027951
1118.84	0.0026151
1128.49	0.0027751
1138.13	0.0028651
1147.78	0.0024151
1157.42	0.0024851
1167.07	0.0023451
1176.71	0.0025351
1186.36	0.0026751
1196	0.0029351
1205.64	0.0026951
1215.29	0.0029751
1224.93	0.0029051
1234.58	0.0038451
1244.22	0.0042651
1253.87	0.0046151
1263.51	0.0049051
1273.16	0.0058751
1282.8	0.0072151
1292.45	0.0091451
1302.09	0.0115651
1311.74	0.0137251
1321.38	0.0154351
1331.03	0.0214951
1340.67	0.0354251
1350.32	0.0440851
1359.96	0.0328651
1369.61	0.0222551
1379.25	0.0131551
1388.9	0.0080351
1398.54	0.0053751
1408.18	0.0046451
1417.83	0.0048951
1427.47	0.0063951
1437.12	0.0112051
1446.76	0.0215151
1456.41	0.0355851
1466.05	0.0353351
1475.7	0.0165151
1485.34	0.0071751
1494.99	0.0041251
1504.63	0.0028751
1514.28	0.0022051
1523.92	0.0018651
1533.57	0.0014651
1543.21	0.0012951
1552.86	0.0011751
1562.5	0.0009878
1572.15	0.0009584
1581.79	0.0008886
1591.44	0.0008534
1601.08	0.0007294
1610.73	0.000735
1620.37	0.0007028
1630.01	0.0007202
1639.66	0.0007138
1649.3	0.0006622
1658.95	0.0006224
1668.59	0.0006367
1678.24	0.0005734
1687.88	0.0006563
1697.53	0.0005078
1707.17	0.0005556
1716.82	0.0005305
1726.46	0.0005183
1736.11	0.0005026
1745.75	0.0005348
1755.4	0.0005141
1765.04	0.0005978
1774.69	0.0006572
1784.33	0.0006165
1793.98	0.0005992
1803.62	0.0007374
1813.27	0.0007707
1822.91	0.0008636
1832.55	0.0009064
1842.2	0.0011851
1851.84	0.0014351
1861.49	0.0017451
1871.13	0.0020151
1880.78	0.0025351
1890.42	0.0032351
1900.07	0.0040251
1909.71	0.0051451
1919.36	0.0063451
1929	0.0080551
1938.65	0.0101851
1948.29	0.0128451
1957.94	0.0164051
1967.58	0.0212951
1977.23	0.0279851
1986.87	0.0374051
1996.52	0.0504051
2006.16	0.0684751
2015.81	0.0929251
2025.45	0.125645
2035.1	0.167245
2044.74	0.212825
2054.38	0.247235
2064.03	0.252635
2073.67	0.224535
2083.32	0.177595
2092.96	0.133705
2102.61	0.102215
2112.25	0.0813051
2121.9	0.0669851
2131.54	0.0568951
2141.19	0.0496451
2150.83	0.0448151
2160.48	0.0413951
2170.12	0.0389451
2179.77	0.0372351
2189.41	0.0354751
2199.06	0.0326951
2208.7	0.0277451
2218.35	0.0220351
2227.99	0.0168651
2237.64	0.0127751
2247.28	0.0096451
2256.92	0.0075851
2266.57	0.0060951
2276.21	0.0049051
2285.86	0.0041251
2295.5	0.0034551
2305.15	0.0030051
2314.79	0.0025151
2324.44	0.0020951
2334.08	0.0019551
2343.73	0.0017151
2353.37	0.0014551
2363.02	0.0013351
2372.66	0.0012251
2382.31	0.0011851
2391.95	0.0011251
2401.6	0.0011251
2411.24	0.0010551
2420.89	0.0010651
2430.53	0.0011051
2440.18	0.0010512
2449.82	0.0009957
2459.47	0.0010126
2469.11	0.0009755
2478.75	0.0009903
2488.4	0.0011251
2498.04	0.0012151
2507.69	0.0012751
2517.33	0.0014451
2526.98	0.0015251
2536.62	0.0016351
2546.27	0.0016851
2555.91	0.0016951
2565.56	0.0019251
2575.2	0.0019951
2584.85	0.0022551
2594.49	0.0022351
2604.14	0.0021551
2613.78	0.0022351
2623.43	0.0023451
2633.07	0.0024551
2642.72	0.0026851
2652.36	0.0029651
2662.01	0.0032551
2671.65	0.0038651
2681.29	0.0044051
2690.94	0.0046251
2700.58	0.0046951
2710.23	0.0051051
2719.87	0.0055551
2729.52	0.0061551
2739.16	0.0064751
2748.81	0.0062951
2758.45	0.0060351
2768.1	0.0060151
2777.74	0.0062251
2787.39	0.0068551
2797.03	0.0080051
2806.68	0.0092751
2816.32	0.0112651
2825.97	0.0144551
2835.61	0.0197751
2845.26	0.0337051
2854.9	0.0757151
2864.55	0.115815
2874.19	0.0856351
2883.84	0.0689251
2893.48	0.0637251
2903.12	0.0775651
2912.77	0.117335
2922.41	0.201585
2932.06	0.307675
2941.7	0.251625
2951.35	0.161015
2960.99	0.110445
2970.64	0.0776651
2980.28	0.0401251
2989.93	0.0228251
2999.57	0.0151951
3009.22	0.0112051
3018.86	0.0085751
3028.51	0.0068151
3038.15	0.0053951
3047.8	0.0046951
3057.44	0.0038151
3067.09	0.0030651
3076.73	0.0027651
3086.38	0.0025451
3096.02	0.0021151
3105.67	0.0020451
3115.31	0.0018751
3124.95	0.0016951
3134.6	0.0015851
3144.24	0.0016051
3153.89	0.0013051
3163.53	0.0011751
3173.18	0.0010497
3182.82	0.000995
3192.47	0.0009511
3202.11	0.0006812
3211.76	0.0006399
3221.4	0.0004589
3231.05	0.0005767
3240.69	0.0004103
3250.34	0.0003957
3259.98	0.0002744
3269.63	0.0002968
3279.27	0.0003431
3288.92	0.0001188
3298.56	0.0002906
3308.21	0.0002234
3317.85	0.0001713
3327.49	0.000383
3337.14	0.0002271
3346.78	0.0004068
3356.43	0.0004747
3366.07	0.0004477
3375.72	0.0002913
3385.36	0.0003233
3395.01	0.00038
3404.65	0.0002454
3414.3	0.0004251
3423.94	0.0004216
3433.59	0.0003726
3443.23	0.0004255
3452.88	0.0003693
3462.52	0.0002196
3472.17	0.0001824
3481.81	0.0001914
3491.46	0.0003048
3501.1	0.0003233
3510.75	0.0002781
3520.39	0.00014717
3530.04	0.00013694
3539.68	0.0002281
3549.32	0.0002189
3558.97	0.0002032
3568.61	0.0003932
3578.26	0.000552
3587.9	0.0004372
3597.55	0.0005843
3607.19	0.0005004
3616.84	0.0008294
3626.48	0.0004548
3636.13	0.0006161
3645.77	0.0008682
3655.42	0.000583
3665.06	0.0006189
3674.71	0.0006474
3684.35	0.0004989
3694	0.0005707
3703.64	0.000597
3713.29	0.0006763
3722.93	0.0005691
3732.58	0.0006152
3742.22	0.0005911
3751.86	0.0004906
3761.51	0.000721
3771.15	0.0007177
3780.8	0.0007188
3790.44	0.0007541
3800.09	0.0006505
3809.73	0.0007499
3819.38	0.0006516
3829.02	0.000649
3838.67	0.0005508
3848.31	0.0009615
3857.96	0.0007269
3867.6	0.0007303
3877.25	0.0006386
3886.89	0.0007932
3896.54	0.0008689
3906.18	0.0009594
3915.83	0.0008937
3925.47	0.0009107
3935.12	0.0009463
3944.76	0.0011051
3954.41	0.0011251
3964.05	0.0014451
3973.69	0.0013251
3983.34	0.0013051
3992.98	0.0015951
