Infrared Spectrum: 5-Cyano-2,3,3-pentanetricarboxylic acid, triethyl ester
Formula: C15 H23 N O6
CAS: 3228-31-7
State: SOLUTION (10% CCl4 FOR 3800-1330, 10% CS2 FOR 1330-460 CM^-^1)
Class: COBLENTZ III
Instrument: DOW KBr FOREPRISM-GRATING
Instrument parameters: BLAZED AT 3.5, 12.0, 20.0 MICRON AND CHANGED AT 5.0, 7.5, 14.9 MICRON
Sampling: TRANSMISSION
Path length: 0.011 CM, 0.011 CM
Resolution: 2
Origin: DOW CHEMICAL COMPANY
1/CM	TRANSMITTANCE
3790.65	0.9202
3781.7	0.9209
3772.75	0.923
3763.81	0.9227
3754.86	0.923
3745.91	0.9229
3736.96	0.923
3728.01	0.9224
3719.07	0.9222
3710.12	0.9197
3701.17	0.9146
3692.22	0.9035
3683.27	0.8979
3674.33	0.9035
3665.38	0.9069
3656.43	0.9067
3647.48	0.9061
3638.53	0.9055
3629.59	0.9048
3620.64	0.9027
3611.69	0.8991
3602.74	0.8888
3593.79	0.8895
3584.85	0.8877
3575.9	0.8765
3566.95	0.8757
3558	0.8754
3549.05	0.874
3540.11	0.8745
3531.16	0.8739
3522.21	0.8726
3513.26	0.8704
3504.31	0.868
3495.37	0.8646
3486.42	0.8568
3477.47	0.8456
3468.52	0.8308
3459.57	0.8204
3450.63	0.8173
3441.68	0.8247
3432.73	0.8352
3423.78	0.8448
3414.83	0.8538
3405.89	0.8607
3396.94	0.8616
3387.99	0.8626
3379.04	0.8634
3370.09	0.8643
3361.15	0.8649
3352.2	0.8653
3343.25	0.866
3334.3	0.8663
3325.35	0.8679
3316.41	0.868
3307.46	0.8682
3298.51	0.8694
3289.56	0.8682
3280.61	0.8676
3271.67	0.867
3262.72	0.8668
3253.77	0.8652
3244.82	0.8614
3235.87	0.8579
3226.93	0.8558
3217.98	0.8563
3209.03	0.8563
3200.08	0.8548
3191.13	0.8492
3182.19	0.8473
3173.24	0.848
3164.29	0.8507
3155.34	0.8528
3146.39	0.8545
3137.45	0.8555
3128.5	0.8541
3119.55	0.8512
3110.6	0.8485
3101.65	0.8461
3092.71	0.8441
3083.76	0.8451
3074.81	0.837
3065.86	0.8324
3056.91	0.8259
3047.97	0.8143
3039.02	0.7931
3030.07	0.7581
3021.12	0.6552
3012.17	0.4844
3003.23	0.2967
2994.28	0.156
2985.33	0.1486
2976.38	0.3559
2967.43	0.4069
2958.49	0.4532
2949.54	0.4336
2940.59	0.4408
2931.64	0.5428
2922.69	0.6082
2913.75	0.5308
2904.8	0.5724
2895.85	0.6662
2886.9	0.6994
2877.95	0.677
2869.01	0.7726
2860.06	0.7945
2851.11	0.8051
2842.16	0.8136
2833.21	0.8236
2824.27	0.8316
2815.32	0.841
2806.37	0.8491
2797.42	0.8546
2788.47	0.8556
2779.53	0.8552
2770.58	0.8567
2761.63	0.8574
2752.68	0.8586
2743.73	0.8598
2734.79	0.8618
2725.84	0.8647
2716.89	0.8676
2707.94	0.8699
2698.99	0.8723
2690.05	0.8739
2681.1	0.8751
2672.15	0.8762
2663.2	0.8771
2654.25	0.877
2645.31	0.8737
2636.36	0.871
2627.41	0.8702
2618.46	0.8707
2609.51	0.8705
2600.57	0.8707
2591.62	0.8708
2582.67	0.8708
2573.72	0.8714
2564.77	0.872
2555.83	0.8726
2546.88	0.8732
2537.93	0.8737
2528.98	0.8744
2520.03	0.8746
2511.09	0.8747
2502.14	0.8747
2493.19	0.8747
2484.24	0.8746
2475.29	0.8757
2466.35	0.8752
2457.4	0.8738
2448.45	0.8732
2439.5	0.8711
2430.55	0.868
2421.61	0.8646
2412.66	0.8628
2403.71	0.8625
2394.76	0.8618
2385.81	0.8641
2376.87	0.87
2367.92	0.8713
2358.97	0.87
2350.02	0.8702
2341.07	0.8692
2332.13	0.867
2323.18	0.8685
2314.23	0.8667
2305.28	0.8652
2296.33	0.8656
2287.39	0.8636
2278.44	0.8591
2269.49	0.8259
2260.54	0.7011
2251.59	0.803
2242.65	0.8507
2233.7	0.863
2224.75	0.8677
2215.8	0.8695
2206.85	0.8714
2197.91	0.873
2188.96	0.8726
2180.01	0.8725
2171.06	0.8735
2162.11	0.8715
2153.17	0.8707
2144.22	0.8693
2135.27	0.867
2126.32	0.8648
2117.37	0.8625
2108.43	0.8603
2099.48	0.8587
2090.53	0.8572
2081.58	0.8551
2072.63	0.8527
2063.69	0.8505
2054.74	0.8526
2045.79	0.8528
2036.84	0.8545
2027.89	0.8559
2018.95	0.8557
2010	0.8528
2001.05	0.8456
1992.1	0.8576
1983.15	0.8606
1974.21	0.8602
1965.26	0.8591
1956.31	0.8569
1947.36	0.8577
1938.41	0.8583
1929.47	0.8583
1920.52	0.8555
1911.57	0.8515
1902.62	0.8483
1893.67	0.8424
1884.73	0.8391
1875.78	0.8376
1866.83	0.8358
1857.88	0.8346
1848.93	0.8333
1839.99	0.8305
1831.04	0.8232
1822.09	0.8112
1813.14	0.7971
1804.19	0.7772
1795.25	0.7538
1786.3	0.7192
1777.35	0.6538
1768.4	0.4682
1759.45	0.2217
1750.51	0.0091
1741.56	0.0001
1732.61	0.0001
1723.66	0.026
1714.71	0.2342
1705.77	0.4717
1696.82	0.5543
1687.87	0.6268
1678.92	0.7036
1669.97	0.7534
1661.03	0.7731
1652.08	0.7862
1643.13	0.7934
1634.18	0.7956
1625.23	0.7893
1616.29	0.7841
1607.34	0.786
1598.39	0.7763
1589.44	0.7545
1580.49	0.7491
1571.55	0.7395
1562.6	0.6946
1553.65	0.7009
1544.7	0.7131
1535.75	0.7136
1526.81	0.7224
1517.86	0.7466
1508.91	0.7585
1499.96	0.7534
1491.01	0.7384
1482.07	0.569
1473.12	0.4197
1464.17	0.3205
1455.22	0.3961
1446.27	0.2315
1437.33	0.4503
1428.38	0.5896
1419.43	0.6542
1410.48	0.6943
1401.53	0.6373
1392.59	0.3938
1383.64	0.3754
1374.69	0.3067
1365.74	0.5061
1356.79	0.642
1347.85	0.5265
1338.9	0.4633
1329.95	0.4407
1321	0.3875
1312.05	0.3812
1303.11	0.2672
1294.16	0.2122
1285.21	0.2205
1276.26	0.1937
1267.31	0.1476
1258.37	0.0503
1249.42	0.0358
1240.47	0.0522
1231.52	0.0619
1222.57	0.0931
1213.63	0.101
1204.68	0.0513
1195.73	0.0241
1186.78	0.0257
1177.83	0.0738
1168.89	0.1728
1159.94	0.2215
1150.99	0.2414
1142.04	0.2147
1133.09	0.2771
1124.15	0.3295
1115.2	0.3047
1106.25	0.2841
1097.3	0.2179
1088.35	0.3041
1079.41	0.4121
1070.46	0.376
1061.51	0.2376
1052.56	0.1718
1043.61	0.2758
1034.67	0.3544
1025.72	0.2015
1016.77	0.2761
1007.82	0.4598
998.874	0.6591
989.926	0.7468
980.978	0.7965
972.03	0.8123
963.082	0.815
954.134	0.8362
945.186	0.839
936.238	0.8019
927.29	0.7888
918.342	0.8315
909.394	0.8326
900.446	0.8035
891.498	0.8103
882.55	0.8097
873.602	0.7265
864.654	0.4358
855.706	0.5606
846.758	0.7303
837.81	0.7631
828.862	0.8067
819.914	0.788
810.966	0.7718
802.018	0.7654
793.07	0.7376
784.122	0.7117
775.174	0.7116
766.226	0.7283
757.278	0.7544
748.33	0.7654
739.382	0.7843
730.434	0.7976
721.486	0.8345
712.538	0.842
703.59	0.8433
694.642	0.8462
685.694	0.8483
676.746	0.8554
667.798	0.8557
658.85	0.7902
649.902	0.7839
640.954	0.8041
632.006	0.8111
623.058	0.8041
614.11	0.7779
605.162	0.7734
596.214	0.7569
587.266	0.7687
578.318	0.7808
569.37	0.7829
560.422	0.7794
551.474	0.7924
542.526	0.797
533.578	0.7936
524.63	0.7874
515.682	0.7831
506.734	0.7809
497.786	0.7765
488.838	0.7688
479.89	0.7588
470.942	0.7453
461.994	0.7301
