Infrared Spectrum: Pentaerythrityltetrabromide
Formula: C 5 H 8 Br 4
CAS: 3229-00-3
State: gas
Instrument: HP-GC/MS/IRD
Origin: NIST Mass Spectrometry Data Center
1/CM	ABSORBANCE
550	0.0002538
562	0.000162
574	0.0002484
586	0.0003042
598	0.0012528
610	0.0038205
622	0.0012114
634	0.0006624
646	0.0006345
658	0.0010278
670	0.0033615
682	0.003105
694	0.0024678
706	0.002232
718	0.0010404
730	0.0003168
742	0.0002898
754	0.0002124
766	0.0002484
778	0.0001917
790	0.0002745
802	0.0004815
814	0.0010746
826	0.0050553
838	0.0077481
850	0.002547
862	0.000684
874	0.0004545
886	0.0003096
898	0.0001683
910	0.0001314
922	8.28e-05
934	9.18e-05
946	7.83e-05
958	0.0001062
970	0.0001026
982	0.0001008
994	9.27e-05
1006	0.0001044
1018	0.000144
1030	8.91e-05
1042	1.8e-06
1054	8.28e-05
1066	0.000135
1078	7.02e-05
1090	4.68e-05
1102	8.28e-05
1114	0.0001197
1126	0.000153
1138	0.0001854
1150	0.0002817
1162	0.000369
1174	0.0005733
1186	0.0010242
1198	0.0022806
1210	0.0028836
1222	0.003357
1234	0.0026397
1246	0.0017244
1258	0.002016
1270	0.0061668
1282	0.0058221
1294	0.0020988
1306	0.0004851
1318	0.0003537
1330	0.0002763
1342	0.0002853
1354	0.0002547
1366	0.0001854
1378	0.0001962
1390	0.0002664
1402	0.0004743
1414	0.002088
1426	0.0072369
1438	0.0062145
1450	0.0010782
1462	0.0003699
1474	0.0002277
1486	0.0001854
1498	0.0001323
1510	0.0001323
1522	0.0001215
1534	0.0001017
1546	0.000126
1558	9.45e-05
1570	7.38e-05
1582	8.82e-05
1594	0.0001179
1606	0.0001008
1618	9.81e-05
1630	8.73e-05
1642	9.45e-05
1654	6.75e-05
1666	9.54e-05
1678	8.28e-05
1690	6.57e-05
1702	9.27e-05
1714	8.64e-05
1726	8.91e-05
1738	9.27e-05
1750	6.75e-05
1762	6.57e-05
1774	8.1e-05
1786	0.0001008
1798	7.83e-05
1810	7.2e-05
1822	7.47e-05
1834	5.13e-05
1846	7.74e-05
1858	7.02e-05
1870	5.58e-05
1882	6.84e-05
1894	5.76e-05
1906	5.49e-05
1918	3.33e-05
1930	5.94e-05
1942	6.66e-05
1954	8.1e-05
1966	5.31e-05
1978	8.37e-05
1990	7.38e-05
2002	9.54e-05
2014	0.0001008
2026	9.27e-05
2038	0.0001089
2050	0.0001107
2062	7.02e-05
2074	7.83e-05
2086	8.01e-05
2098	6.03e-05
2110	8.1e-05
2122	7.56e-05
2134	5.31e-05
2146	7.74e-05
2158	7.47e-05
2170	6.66e-05
2182	5.58e-05
2194	7.38e-05
2206	7.29e-05
2218	6.21e-05
2230	7.02e-05
2242	5.76e-05
2254	0.0001107
2266	0.0001008
2278	7.38e-05
2290	8.37e-05
2302	0.0001044
2314	8.19e-05
2326	5.94e-05
2338	5.67e-05
2350	5.13e-05
2362	8.37e-05
2374	9.72e-05
2386	3.6e-05
2398	4.14e-05
2410	5.67e-05
2422	5.04e-05
2434	5.04e-05
2446	7.29e-05
2458	7.2e-05
2470	7.56e-05
2482	7.29e-05
2494	9e-05
2506	5.13e-05
2518	4.32e-05
2530	3.78e-05
2542	5.04e-05
2554	4.5e-05
2566	3.96e-05
2578	2.61e-05
2590	2.7e-05
2602	4.41e-05
2614	2.79e-05
2626	7.83e-05
2638	7.29e-05
2650	3.78e-05
2662	5.4e-05
2674	6.57e-05
2686	0.0001224
2698	0.0001233
2710	9.81e-05
2722	8.55e-05
2734	5.04e-05
2746	3.42e-05
2758	4.32e-05
2770	0
2782	1.89e-05
2794	6.12e-05
2806	5.76e-05
2818	7.47e-05
2830	0.0001557
2842	0.0002385
2854	0.0001368
2866	8.64e-05
2878	8.64e-05
2890	5.4e-05
2902	9.81e-05
2914	0.0001053
2926	0.000117
2938	0.0001539
2950	0.0001953
2962	0.0005274
2974	0.0020637
2986	0.0011313
2998	0.0001683
3010	0.0001206
3022	0.000135
3034	7.29e-05
3046	6.57e-05
3058	7.92e-05
3070	6.3e-05
3082	4.23e-05
3094	9.45e-05
3106	4.77e-05
3118	5.04e-05
3130	6.3e-05
3142	3.51e-05
3154	9e-05
3166	6.12e-05
3178	0.0001125
3190	3.33e-05
3202	6.57e-05
3214	4.32e-05
3226	6.66e-05
3238	4.86e-05
3250	4.77e-05
3262	9.99e-05
3274	6.39e-05
3286	7.56e-05
3298	8.19e-05
3310	2.88e-05
3322	7.83e-05
3334	5.04e-05
3346	6.39e-05
3358	7.92e-05
3370	5.85e-05
3382	5.67e-05
3394	6.12e-05
3406	4.41e-05
3418	9e-07
3430	8.19e-05
3442	6.75e-05
3454	0.000135
3466	8.73e-05
3478	8.28e-05
3490	6.84e-05
3502	6.3e-05
3514	6.93e-05
3526	6.12e-05
3538	6.21e-05
3550	5.58e-05
3562	0.0001017
3574	0.0001152
3586	0.0001395
3598	9.45e-05
3610	5.58e-05
3622	4.14e-05
3634	8.73e-05
3646	8.82e-05
3658	0.0001287
3670	8.91e-05
3682	8.1e-05
3694	9.27e-05
3706	5.49e-05
3718	9.63e-05
3730	0.0001188
3742	0.0001206
3754	5.85e-05
3766	5.22e-05
3778	5.67e-05
3790	1.08e-05
3802	6.3e-05
3814	6.75e-05
3826	0.0001044
3838	0.000135
