Infrared Spectrum: 1-Ethyl-2-methylcyclohexanol
Formula: C 9 H 18 O
CAS: 32296-45-0
State: gas
Instrument: HP-GC/MS/IRD
Origin: NIST Mass Spectrometry Data Center
1/CM	ABSORBANCE
550	0.0003127
562	0.0003392
574	0.000371
586	0.0002226
598	0.0003657
610	0.0002173
622	0.0001643
634	0.0001272
646	0.0001855
658	0.0001908
670	0.0002597
682	0.0003021
694	0.0002968
706	0.0002226
718	5.83e-05
730	0.0001378
742	0.000159
754	0.0001908
766	0.000212
778	0.0003074
790	0.0003922
802	0.0007261
814	0.0006519
826	0.0005618
838	0.0004399
850	0.0006519
862	0.0012296
874	0.001378
886	0.0017649
898	0.0017331
910	0.0017225
922	0.0017596
934	0.0030369
946	0.006572
958	0.00901
970	0.0078016
982	0.004717
994	0.0028514
1006	0.0016377
1018	0.0011395
1030	0.0010282
1042	0.0012349
1054	0.0012455
1066	0.0015635
1078	0.0021783
1090	0.0026182
1102	0.0026553
1114	0.0027136
1126	0.0027242
1138	0.0031164
1150	0.0038372
1162	0.0039167
1174	0.0033231
1186	0.0027507
1198	0.00265
1210	0.0025016
1222	0.0025334
1234	0.0027242
1246	0.0030263
1258	0.0030793
1270	0.0029521
1282	0.0027984
1294	0.0024062
1306	0.0019663
1318	0.0016377
1330	0.0017225
1342	0.0021518
1354	0.0025917
1366	0.002968
1378	0.0036146
1390	0.0033019
1402	0.0017384
1414	0.0011766
1426	0.0015688
1438	0.0033973
1450	0.0057346
1462	0.0061533
1474	0.0042665
1486	0.001802
1498	0.0007367
1510	0.0004823
1522	0.0003339
1534	0.0002915
1546	0.0002809
1558	0.0002597
1570	0.0002756
1582	0.0002279
1594	0.0002014
1606	0.0001855
1618	0.0002014
1630	0.0001961
1642	0.0001643
1654	0.000159
1666	0.000106
1678	0.0001166
1690	7.95e-05
1702	5.83e-05
1714	4.77e-05
1726	5.3e-05
1738	4.77e-05
1750	6.89e-05
1762	6.36e-05
1774	4.24e-05
1786	4.24e-05
1798	4.24e-05
1810	1.06e-05
1822	2.65e-05
1834	4.77e-05
1846	5.83e-05
1858	2.65e-05
1870	2.65e-05
1882	0
1894	2.12e-05
1906	2.12e-05
1918	2.65e-05
1930	3.18e-05
1942	1.59e-05
1954	1.59e-05
1966	1.59e-05
1978	2.12e-05
1990	1.59e-05
2002	2.12e-05
2014	2.65e-05
2026	2.65e-05
2038	3.18e-05
2050	3.71e-05
2062	4.24e-05
2074	3.71e-05
2086	0
2098	2.65e-05
2110	5.83e-05
2122	4.77e-05
2134	6.36e-05
2146	5.3e-05
2158	5.3e-05
2170	4.24e-05
2182	5.3e-05
2194	5.83e-05
2206	9.54e-05
2218	7.95e-05
2230	8.48e-05
2242	9.54e-05
2254	0.000106
2266	7.95e-05
2278	7.42e-05
2290	5.83e-05
2302	7.95e-05
2314	0.0001113
2326	0.0001007
2338	0.000106
2350	0.000106
2362	9.54e-05
2374	0.0001166
2386	0.0001113
2398	0.0001272
2410	0.0001378
2422	0.0001378
2434	0.0001325
2446	0.000106
2458	0.0001113
2470	8.48e-05
2482	7.95e-05
2494	0.0001113
2506	0.000106
2518	0.0001378
2530	0.0001378
2542	0.0001484
2554	0.0001378
2566	0.0001484
2578	0.0002279
2590	0.0002544
2602	0.0002862
2614	0.0003339
2626	0.0003445
2638	0.0004293
2650	0.0004982
2662	0.0006095
2674	0.0006731
2686	0.000583
2698	0.0004664
2710	0.0004717
2722	0.0005035
2734	0.0005883
2746	0.0006572
2758	0.0006837
2770	0.0007632
2782	0.0009169
2794	0.0010918
2806	0.0012773
2818	0.0015953
2830	0.0022472
2842	0.0044467
2854	0.0107166
2866	0.0158682
2878	0.0156138
2890	0.014893
2902	0.0154336
2914	0.0226416
2926	0.0407888
2938	0.053
2950	0.0381653
2962	0.0230126
2974	0.0216346
2986	0.013727
2998	0.0051304
3010	0.0023055
3022	0.0014734
3034	0.0012349
3046	0.0010971
3058	0.0010017
3070	0.0009593
3082	0.0008374
3094	0.0007155
3106	0.0006148
3118	0.0005565
3130	0.0004558
3142	0.0004399
3154	0.0004399
3166	0.0003498
3178	0.0002968
3190	0.0002438
3202	0.0002067
3214	0.0001696
3226	0.0001219
3238	0.0001855
3250	0.0001378
3262	0.0001113
3274	7.42e-05
3286	0.0001007
3298	6.89e-05
3310	6.89e-05
3322	0.0001166
3334	9.54e-05
3346	9.01e-05
3358	7.95e-05
3370	8.48e-05
3382	8.48e-05
3394	0.0001484
3406	0.0001166
3418	0.0001484
3430	0.0001219
3442	0.0001272
3454	0.0001219
3466	0.000106
3478	0.0001378
3490	0.0001484
3502	6.89e-05
3514	0.000106
3526	0.0001325
3538	0.000106
3550	4.77e-05
3562	7.95e-05
3574	8.48e-05
3586	0.0001007
3598	0.000106
3610	0.000212
3622	0.0005353
3634	0.0013939
3646	0.001908
3658	0.0009063
3670	0.0002703
3682	0.0001696
3694	0.0001325
3706	9.01e-05
3718	9.01e-05
3730	0.0001272
3742	5.3e-05
3754	0.0001431
3766	0.000106
3778	0.0001378
3790	0.0001431
3802	0.0001272
3814	0.0001378
3826	0.0001325
3838	0.0001908
