Infrared Spectrum: N,N-Bis(2-hydroxyethyl)-m-fluoroaniline
Formula: C 10 H 14 F N O 2
CAS: 323-60-4
State: gas
Origin: EPA-IR VAPOR PHASE LIBRARY
1/CM	ABSORBANCE
549.8	0.00358
559.445	0.00348
569.09	0.00317
578.734	0.00336
588.379	0.00326
598.024	0.00308
607.669	0.00298
617.313	0.00319
626.958	0.00272
636.603	0.00228
646.248	0.00236
655.893	0.00253
665.537	0.00411
675.182	0.0084
684.827	0.01447
694.472	0.01041
704.116	0.00741
713.761	0.00587
723.406	0.0041
733.051	0.00398
742.695	0.00775
752.34	0.01784
761.985	0.01824
771.63	0.00985
781.275	0.00681
790.919	0.00526
800.564	0.00489
810.209	0.00628
819.854	0.00986
829.498	0.01548
839.143	0.01621
848.788	0.01408
858.433	0.01203
868.078	0.01017
877.722	0.00865
887.367	0.00705
897.012	0.00629
906.657	0.0068
916.301	0.00714
925.946	0.00835
935.591	0.01203
945.236	0.01702
954.88	0.01775
964.525	0.01507
974.17	0.01602
983.815	0.01877
993.46	0.02416
1003.1	0.04454
1012.75	0.05693
1022.39	0.04733
1032.04	0.05006
1041.68	0.05603
1051.33	0.04926
1060.97	0.04996
1070.62	0.04874
1080.26	0.03318
1089.91	0.02255
1099.55	0.01974
1109.2	0.01768
1118.84	0.01716
1128.49	0.01943
1138.13	0.02605
1147.78	0.04142
1157.42	0.05776
1167.07	0.05024
1176.71	0.04169
1186.36	0.03304
1196	0.02644
1205.64	0.02447
1215.29	0.02414
1224.93	0.02507
1234.58	0.02581
1244.22	0.02682
1253.87	0.02904
1263.51	0.02973
1273.16	0.02558
1282.8	0.02107
1292.45	0.01852
1302.09	0.0174
1311.74	0.01779
1321.38	0.01961
1331.03	0.02299
1340.67	0.02883
1350.32	0.03593
1359.96	0.03821
1369.61	0.03245
1379.25	0.02646
1388.9	0.02221
1398.54	0.01782
1408.18	0.01361
1417.83	0.01109
1427.47	0.01134
1437.12	0.01489
1446.76	0.01966
1456.41	0.02191
1466.05	0.02377
1475.7	0.02991
1485.34	0.05621
1494.99	0.09091
1504.63	0.05312
1514.28	0.02008
1523.92	0.01299
1533.57	0.01112
1543.21	0.01228
1552.86	0.01691
1562.5	0.0265
1572.15	0.04442
1581.79	0.06327
1591.44	0.06129
1601.08	0.06766
1610.73	0.09613
1620.37	0.0859
1630.01	0.03629
1639.66	0.01484
1649.3	0.00836
1658.95	0.0058
1668.59	0.00457
1678.24	0.00384
1687.88	0.0035
1697.53	0.00324
1707.17	0.00296
1716.82	0.00245
1726.46	0.00195
1736.11	0.00165
1745.75	0.00155
1755.4	0.00135
1765.04	0.00125
1774.69	0.00131
1784.33	0.0014
1793.98	0.00151
1803.62	0.00147
1813.27	0.00128
1822.91	0.0012
1832.55	0.00114
1842.2	0.00125
1851.84	0.00119
1861.49	0.00115
1871.13	0.00118
1880.78	0.00123
1890.42	0.00158
1900.07	0.00205
1909.71	0.00197
1919.36	0.00146
1929	0.00123
1938.65	0.00113
1948.29	0.0009813
1957.94	0.0009328
1967.58	0.0008701
1977.23	0.0007964
1986.87	0.0006677
1996.52	0.0007523
2006.16	0.0007986
2015.81	0.0008703
2025.45	0.0007709
2035.1	0.0008609
2044.74	0.00093
2054.38	0.00106
2064.03	0.00113
2073.67	0.00114
2083.32	0.00107
2092.96	0.00103
2102.61	0.000936
2112.25	0.0008541
2121.9	0.0008401
2131.54	0.0007518
2141.19	0.000758
2150.83	0.0007141
2160.48	0.0006641
2170.12	0.0006516
2179.77	0.0007045
2189.41	0.0007312
2199.06	0.0008192
2208.7	0.0006927
2218.35	0.0006929
2227.99	0.000607
2237.64	0.0005766
2247.28	0.0006642
2256.92	0.0006696
2266.57	0.0006752
2276.21	0.000723
2285.86	0.0008067
2295.5	0.0007957
2305.15	0.0009104
2314.79	0.00105
2324.44	0.0009856
2334.08	0.0009907
2343.73	0.0008463
2353.37	0.00101
2363.02	0.0009958
2372.66	0.00104
2382.31	0.00113
2391.95	0.00127
2401.6	0.00125
2411.24	0.0014
2420.89	0.0014
2430.53	0.0014
2440.18	0.00133
2449.82	0.00133
2459.47	0.00121
2469.11	0.00113
2478.75	0.00102
2488.4	0.0009236
2498.04	0.0009982
2507.69	0.00101
2517.33	0.00105
2526.98	0.00112
2536.62	0.00116
2546.27	0.0012
2555.91	0.00125
2565.56	0.00102
2575.2	0.00108
2584.85	0.00105
2594.49	0.00115
2604.14	0.00123
2613.78	0.00122
2623.43	0.00106
2633.07	0.00126
2642.72	0.00123
2652.36	0.00148
2662.01	0.00155
2671.65	0.0017
2681.29	0.00201
2690.94	0.00221
2700.58	0.0024
2710.23	0.00256
2719.87	0.00279
2729.52	0.00293
2739.16	0.00306
2748.81	0.00314
2758.45	0.00326
2768.1	0.00362
2777.74	0.00394
2787.39	0.00445
2797.03	0.00519
2806.68	0.00645
2816.32	0.0083
2825.97	0.01088
2835.61	0.01386
2845.26	0.01637
2854.9	0.0188
2864.55	0.02211
2874.19	0.02804
2883.84	0.03444
2893.48	0.03396
2903.12	0.02887
2912.77	0.02751
2922.41	0.03079
2932.06	0.03478
2941.7	0.03637
2951.35	0.03543
2960.99	0.03304
2970.64	0.02751
2980.28	0.01965
2989.93	0.01214
2999.57	0.00722
3009.22	0.00478
3018.86	0.00383
3028.51	0.00397
3038.15	0.00515
3047.8	0.0059
3057.44	0.00494
3067.09	0.00421
3076.73	0.00462
3086.38	0.00579
3096.02	0.00543
3105.67	0.00395
3115.31	0.00234
3124.95	0.00146
3134.6	0.0008406
3144.24	0.0004923
3153.89	0.0006056
3163.53	0.0004496
3173.18	0.0004785
3182.82	0.0003346
3192.47	0.0003924
3202.11	0.000436
3211.76	0.0005119
3221.4	0.0003638
3231.05	0.0004986
3240.69	0.0004415
3250.34	0.0003999
3259.98	0.0002759
3269.63	0.0003063
3279.27	0.0004135
3288.92	0.0004878
3298.56	0.0003864
3308.21	0.00036
3317.85	0.000336
3327.49	0.0003628
3337.14	0.0007185
3346.78	0.0005563
3356.43	0.000582
3366.07	0.0007557
3375.72	0.000653
3385.36	0.0009926
3395.01	0.0009431
3404.65	0.00101
3414.3	0.0009054
3423.94	0.0009952
3433.59	0.00115
3443.23	0.0012
3452.88	0.00118
3462.52	0.00126
3472.17	0.0014
3481.81	0.00172
3491.46	0.00171
3501.1	0.00183
3510.75	0.00212
3520.39	0.00259
3530.04	0.00353
3539.68	0.00457
3549.32	0.0054
3558.97	0.006
3568.61	0.0058
3578.26	0.00591
3587.9	0.00592
3597.55	0.00535
3607.19	0.00529
3616.84	0.00527
3626.48	0.00535
3636.13	0.00562
3645.77	0.00641
3655.42	0.00963
3665.06	0.014
3674.71	0.01261
3684.35	0.00754
3694	0.00404
3703.64	0.00273
3713.29	0.00201
3722.93	0.00169
3732.58	0.00152
3742.22	0.00116
3751.86	0.00132
3761.51	0.0009459
3771.15	0.00113
3780.8	0.0008733
3790.44	0.0009982
3800.09	0.0007634
3809.73	0.0008601
3819.38	0.0007566
3829.02	0.0008331
3838.67	0.0007827
3848.31	0.0008793
3857.96	0.000902
3867.6	0.0009384
3877.25	0.0008043
3886.89	0.0008104
3896.54	0.0009995
3906.18	0.0008389
3915.83	0.0006703
3925.47	0.0008502
3935.12	0.0006006
3944.76	0.0007237
3954.41	0.0005922
3964.05	0.0004284
3973.69	0.0007288
3983.34	0.0006577
3992.98	0.0004695
