Infrared Spectrum: p-Methoxybenzylidene p-aminophenol
Formula: C 14 H 13 N O 2
CAS: 3230-39-5
State: gas
Origin: EPA-IR VAPOR PHASE LIBRARY
1/CM	ABSORBANCE
549.8	0.004199
559.445	0.002379
569.09	0.001339
578.734	0.001399
588.379	0.001529
598.024	0.001439
607.669	0.0009809
617.313	0.0005997
626.958	0.0007711
636.603	0.0007292
646.248	0.0009194
655.893	0.0008911
665.537	0.0005449
675.182	0.0005703
684.827	0.0004853
694.472	0.0004823
704.116	0.0007393
713.761	0.0008222
723.406	0.0005837
733.051	0.001249
742.695	0.003009
752.34	0.006029
761.985	0.002279
771.63	0.001819
781.275	0.002739
790.919	0.005749
800.564	0.004139
810.209	0.005569
819.854	0.009259
829.498	0.013679
839.143	0.013459
848.788	0.009289
858.433	0.003929
868.078	0.002829
877.722	0.004179
887.367	0.005079
897.012	0.002649
906.657	0.001669
916.301	0.0010662
925.946	0.001289
935.591	0.001229
945.236	0.0012002
954.88	0.001299
964.525	0.001829
974.17	0.001889
983.815	0.001569
993.46	0.001779
1003.1	0.002469
1012.75	0.003739
1022.39	0.005529
1032.04	0.009279
1041.68	0.010199
1051.33	0.005499
1060.97	0.003269
1070.62	0.002439
1080.26	0.002439
1089.91	0.004679
1099.55	0.004489
1109.2	0.004519
1118.84	0.004219
1128.49	0.003899
1138.13	0.004229
1147.78	0.006029
1157.42	0.023659
1167.07	0.070469
1176.71	0.038299
1186.36	0.029439
1196	0.014599
1205.64	0.008599
1215.29	0.009739
1224.93	0.012989
1234.58	0.022189
1244.22	0.049949
1253.87	0.071299
1263.51	0.025499
1273.16	0.011389
1282.8	0.011269
1292.45	0.013429
1302.09	0.015769
1311.74	0.011299
1321.38	0.008579
1331.03	0.006059
1340.67	0.004509
1350.32	0.003059
1359.96	0.002609
1369.61	0.002479
1379.25	0.002049
1388.9	0.001699
1398.54	0.001769
1408.18	0.002699
1417.83	0.006279
1427.47	0.007239
1437.12	0.006279
1446.76	0.005699
1456.41	0.005309
1466.05	0.007159
1475.7	0.006159
1485.34	0.006789
1494.99	0.017129
1504.63	0.053289
1514.28	0.057309
1523.92	0.013329
1533.57	0.005509
1543.21	0.004219
1552.86	0.003879
1562.5	0.004779
1572.15	0.009969
1581.79	0.012479
1591.44	0.014469
1601.08	0.028459
1610.73	0.028049
1620.37	0.016599
1630.01	0.026649
1639.66	0.014559
1649.3	0.005469
1658.95	0.003349
1668.59	0.002749
1678.24	0.002409
1687.88	0.001729
1697.53	0.001279
1707.17	0.0011369
1716.82	0.000932
1726.46	0.0009537
1736.11	0.0010657
1745.75	0.0010333
1755.4	0.0009918
1765.04	0.0009918
1774.69	0.0008922
1784.33	0.0007441
1793.98	0.0007508
1803.62	0.0008303
1813.27	0.0006999
1822.91	0.0007513
1832.55	0.0008045
1842.2	0.0008513
1851.84	0.000926
1861.49	0.0010721
1871.13	0.0010857
1880.78	0.0009813
1890.42	0.0010419
1900.07	0.0009399
1909.71	0.0008533
1919.36	0.0008791
1929	0.0008635
1938.65	0.0008178
1948.29	0.0007204
1957.94	0.0007386
1967.58	0.0006421
1977.23	0.0007742
1986.87	0.0008647
1996.52	0.000997
2006.16	0.0011156
2015.81	0.0010181
2025.45	0.0008212
2035.1	0.0011284
2044.74	0.001309
2054.38	0.0011826
2064.03	0.0010648
2073.67	0.0010195
2083.32	0.0008449
2092.96	0.0007367
2102.61	0.0005879
2112.25	0.0004586
2121.9	0.0003674
2131.54	0.0003911
2141.19	0.0003837
2150.83	0.00026953
2160.48	0.0003728
2170.12	0.0003117
2179.77	0.0003724
2189.41	0.0003448
2199.06	0.000311
2208.7	0.0003114
2218.35	0.0003411
2227.99	0.0003621
2237.64	0.0003382
2247.28	0.000393
2256.92	0.0005712
2266.57	0.0006972
2276.21	0.0006256
2285.86	0.0005716
2295.5	0.0005423
2305.15	0.0004068
2314.79	0.0003882
2324.44	0.0004926
2334.08	0.0006247
2343.73	0.0006255
2353.37	0.0005927
2363.02	0.0003911
2372.66	0.0005322
2382.31	0.0005174
2391.95	0.0006401
2401.6	0.0006928
2411.24	0.0008301
2420.89	0.0009566
2430.53	0.0008027
2440.18	0.0006286
2449.82	0.0005418
2459.47	0.0005935
2469.11	0.0006683
2478.75	0.0007523
2488.4	0.0008431
2498.04	0.0007576
2507.69	0.0008297
2517.33	0.0008648
2526.98	0.0007279
2536.62	0.0007605
2546.27	0.0009446
2555.91	0.000963
2565.56	0.0006859
2575.2	0.0006693
2584.85	0.0005606
2594.49	0.000607
2604.14	0.000742
2613.78	0.000472
2623.43	0.0004054
2633.07	0.0005063
2642.72	0.0004875
2652.36	0.0004166
2662.01	0.0003519
2671.65	0.0004015
2681.29	0.0004679
2690.94	0.0004869
2700.58	0.0005522
2710.23	0.000386
2719.87	0.000424
2729.52	0.0004147
2739.16	0.000563
2748.81	0.0006415
2758.45	0.0007024
2768.1	0.0008067
2777.74	0.0007976
2787.39	0.0007544
2797.03	0.0007942
2806.68	0.0011457
2816.32	0.001449
2825.97	0.001889
2835.61	0.003249
2845.26	0.006829
2854.9	0.006069
2864.55	0.004949
2874.19	0.004409
2883.84	0.003619
2893.48	0.002839
2903.12	0.003009
2912.77	0.003659
2922.41	0.003809
2932.06	0.003849
2941.7	0.005669
2951.35	0.005769
2960.99	0.004959
2970.64	0.003859
2980.28	0.003019
2989.93	0.003389
2999.57	0.004939
3009.22	0.008179
3018.86	0.005709
3028.51	0.005619
3038.15	0.006419
3047.8	0.003259
3057.44	0.002999
3067.09	0.003639
3076.73	0.004639
3086.38	0.002999
3096.02	0.002459
3105.67	0.001919
3115.31	0.001699
3124.95	0.0010139
3134.6	0.0006676
3144.24	0.0007948
3153.89	0.0005929
3163.53	0.0004082
3173.18	0.0004737
3182.82	0.000597
3192.47	0.0003506
3202.11	0.0007459
3211.76	0.0005866
3221.4	0.0004812
3231.05	0.0007044
3240.69	0.0006708
3250.34	0.0006169
3259.98	0.0004971
3269.63	0.00029683
3279.27	0.00029252
3288.92	0.0003644
3298.56	0.0001506
3308.21	0.0003918
3317.85	0.0001905
3327.49	0.000146
3337.14	0.00030292
3346.78	0.00025348
3356.43	0.0003884
3366.07	0.0003954
3375.72	0.00027502
3385.36	0.0004939
3395.01	0.000392
3404.65	0.0003491
3414.3	0.00030747
3423.94	0.0004122
3433.59	0.00027225
3443.23	0.00025602
3452.88	0.0003392
3462.52	0.0001996
3472.17	0.00023637
3481.81	0.0001384
3491.46	0.0003315
3501.1	0.0003336
3510.75	0.00020689
3520.39	0.0001858
3530.04	0.0001594
3539.68	0.00022018
3549.32	0.00028089
3558.97	0.0001941
3568.61	0.0003253
3578.26	0.00025425
3587.9	0.0003608
3597.55	0.0003498
3607.19	0.0004811
3616.84	0.0006622
3626.48	0.0010837
3636.13	0.002989
3645.77	0.009899
3655.42	0.017309
3665.06	0.002819
3674.71	0.0010709
3684.35	0.0005643
3694	0.0004607
3703.64	0.00026316
3713.29	0.00043
3722.93	0.0003108
3732.58	0.00025936
3742.22	0.0004218
3751.86	0.00020023
3761.51	0.0001733
3771.15	0.0001645
3780.8	0.0003176
3790.44	0.00027419
3800.09	0.0001739
3809.73	0.0003336
3819.38	0.0005039
3829.02	0.0004753
3838.67	0.0003622
3848.31	0.0005356
3857.96	0.00025951
3867.6	0.00029984
3877.25	0.0003895
3886.89	0.00025948
3896.54	0.00029841
3906.18	0
3915.83	0.0003793
3925.47	0.000429
3935.12	5.3e-05
3944.76	0.0004017
3954.41	0.0004262
3964.05	0.0003569
3973.69	0.0001823
3983.34	0.0003172
3992.98	0.0004913
