Infrared Spectrum: UREA, 1-(2-FLUOROETHYL)-1-NITROSO-3-(TETRAHYDRO-2H-THIOPYRAN-4-YL)-, S,S-DIOXIDE
Formula: C8 H14 F N3 O4 S
CAS: 32319-89-4
State: SOLID (1 mg / 650 mg KBr DISC)
Class: COBLENTZ III
Instrument: PERKIN-ELMER 521 (GRATING)
Instrument parameters: GRATING FOR 2000, 620, FILTERS AT 3130, 2475, 2000, 1150, 700, 410 CM^-^1
Sampling: TRANSMISSION
Resolution: 4
Origin: SOUTHERN RESEARCH INSTITUTE
1/CM	TRANSMITTANCE
252.305	0.243
261.464	0.2777
270.623	0.3587
279.782	0.4228
288.94	0.4687
298.099	0.487
307.258	0.4692
316.417	0.5004
325.576	0.5964
334.735	0.6272
343.894	0.5976
353.053	0.6549
362.211	0.6657
371.37	0.6691
380.529	0.7134
389.688	0.709
398.847	0.7151
408.006	0.7298
417.165	0.7121
426.323	0.6639
435.482	0.42
444.641	0.6994
453.8	0.721
462.959	0.7329
472.118	0.7362
481.277	0.7621
490.436	0.7556
499.594	0.7239
508.753	0.7276
517.912	0.7343
527.071	0.6771
536.23	0.7023
545.389	0.7284
554.548	0.7234
563.706	0.7529
572.865	0.754
582.024	0.754
591.183	0.752
600.342	0.747
609.501	0.7341
618.66	0.7056
627.819	0.5764
636.977	0.7002
646.136	0.6809
655.295	0.6133
664.454	0.5214
673.613	0.5407
682.772	0.6608
691.931	0.7338
701.089	0.762
710.248	0.7086
719.407	0.7445
728.566	0.8056
737.725	0.8069
746.884	0.7894
756.043	0.7156
765.202	0.6978
774.36	0.455
783.519	0.7878
792.678	0.8087
801.837	0.7775
810.996	0.632
820.155	0.779
829.314	0.7156
838.472	0.4242
847.631	0.6163
856.79	0.5612
865.949	0.7789
875.108	0.7218
884.267	0.8094
893.426	0.8056
902.585	0.7735
911.743	0.7714
920.902	0.7227
930.061	0.7743
939.22	0.787
948.379	0.7735
957.538	0.713
966.697	0.442
975.855	0.5655
985.014	0.5997
994.173	0.6106
1003.33	0.5108
1012.49	0.2257
1021.65	0.2845
1030.81	0.6187
1039.97	0.6772
1049.13	0.4281
1058.29	0.6491
1067.44	0.6829
1076.6	0.6565
1085.76	0.656
1094.92	0.7354
1104.08	0.7031
1113.24	0.5707
1122.4	0.0806
1131.56	0.2593
1140.72	0.36
1149.87	0.3151
1159.03	0.5274
1168.19	0.6173
1177.35	0.5286
1186.51	0.7033
1195.67	0.716
1204.83	0.7696
1213.99	0.789
1223.14	0.7849
1232.3	0.7653
1241.46	0.6105
1250.62	0.688
1259.78	0.6476
1268.94	0.4432
1278.1	0.1352
1287.26	0.2994
1296.42	0.5353
1305.57	0.5121
1314.73	0.3911
1323.89	0.4374
1333.05	0.4246
1342.21	0.5255
1351.37	0.6475
1360.53	0.7257
1369.69	0.7416
1378.85	0.5802
1388	0.6152
1397.16	0.7025
1406.32	0.5994
1415.48	0.6175
1424.64	0.7148
1433.8	0.7166
1442.96	0.6354
1452.12	0.663
1461.28	0.5424
1470.43	0.2954
1479.59	0.2538
1488.75	0.3538
1497.91	0.4385
1507.07	0.5638
1516.23	0.4907
1525.39	0.1726
1534.55	0.2016
1543.71	0.459
1552.86	0.6414
1562.02	0.7072
1571.18	0.736
1580.34	0.7607
1589.5	0.7646
1598.66	0.762
1607.82	0.7598
1616.98	0.74
1626.13	0.727
1635.29	0.738
1644.45	0.741
1653.61	0.76
1662.77	0.7769
1671.93	0.7761
1681.09	0.7591
1690.25	0.7435
1699.41	0.6423
1708.56	0.4796
1717.72	0.2851
1726.88	0.095
1736.04	0.2208
1745.2	0.53
1754.36	0.6808
1763.52	0.7388
1772.68	0.7646
1781.84	0.7851
1790.99	0.7986
1800.15	0.8108
1809.31	0.8222
1818.47	0.827
1827.63	0.8312
1836.79	0.835
1845.95	0.839
1855.11	0.844
1864.27	0.848
1873.42	0.848
1882.58	0.85
1891.74	0.851
1900.9	0.851
1910.06	0.8534
1919.22	0.854
1928.38	0.855
1937.54	0.855
1946.7	0.8545
1955.85	0.854
1965.01	0.855
1974.17	0.856
1983.33	0.858
1992.49	0.8597
2001.65	0.851
2010.81	0.851
2019.97	0.851
2029.13	0.851
2038.28	0.852
2047.44	0.852
2056.6	0.851
2065.76	0.8513
2074.92	0.854
2084.08	0.855
2093.24	0.8557
2102.4	0.858
2111.55	0.855
2120.71	0.8583
2129.87	0.862
2139.03	0.8615
2148.19	0.862
2157.35	0.862
2166.51	0.862
2175.67	0.862
2184.83	0.862
2193.98	0.863
2203.14	0.863
2212.3	0.863
2221.46	0.858
2230.62	0.86
2239.78	0.8557
2248.94	0.8543
2258.1	0.8553
2267.26	0.859
2276.41	0.863
2285.57	0.86
2294.73	0.858
2303.89	0.856
2313.05	0.8557
2322.21	0.854
2331.37	0.851
2340.53	0.8503
2349.69	0.855
2358.84	0.848
2368	0.8513
2377.16	0.862
2386.32	0.86
2395.48	0.859
2404.64	0.86
2413.8	0.862
2422.96	0.8615
2432.12	0.86
2441.27	0.863
2450.43	0.862
2459.59	0.8683
2468.75	0.858
2477.91	0.8615
2487.07	0.858
2496.23	0.859
2505.39	0.86
2514.55	0.86
2523.7	0.8583
2532.86	0.8587
2542.02	0.86
2551.18	0.86
2560.34	0.86
2569.5	0.856
2578.66	0.856
2587.82	0.856
2596.97	0.856
2606.13	0.855
2615.29	0.858
2624.45	0.8575
2633.61	0.8583
2642.77	0.8587
2651.93	0.856
2661.09	0.856
2670.25	0.8553
2679.4	0.854
2688.56	0.852
2697.72	0.8507
2706.88	0.8543
2716.04	0.858
2725.2	0.859
2734.36	0.8587
2743.52	0.854
2752.68	0.856
2761.83	0.854
2770.99	0.854
2780.15	0.8525
2789.31	0.8515
2798.47	0.8437
2807.63	0.844
2816.79	0.844
2825.95	0.8437
2835.11	0.842
2844.26	0.8387
2853.42	0.8245
2862.58	0.819
2871.74	0.819
2880.9	0.819
2890.06	0.8115
2899.22	0.786
2908.38	0.7677
2917.54	0.7076
2926.69	0.6935
2935.85	0.7431
2945.01	0.7467
2954.17	0.7415
2963.33	0.7217
2972.49	0.714
2981.65	0.7351
2990.81	0.769
2999.96	0.7713
3009.12	0.7963
3018.28	0.8053
3027.44	0.801
3036.6	0.818
3045.76	0.816
3054.92	0.8213
3064.08	0.8275
3073.24	0.837
3082.39	0.838
3091.55	0.838
3100.71	0.838
3109.87	0.839
3119.03	0.838
3128.19	0.8377
3137.35	0.8445
3146.51	0.831
3155.67	0.827
3164.82	0.823
3173.98	0.8217
3183.14	0.817
3192.3	0.8057
3201.46	0.804
3210.62	0.8002
3219.78	0.789
3228.94	0.785
3238.1	0.771
3247.25	0.7587
3256.41	0.7467
3265.57	0.7325
3274.73	0.7122
3283.89	0.6945
3293.05	0.671
3302.21	0.6295
3311.37	0.5817
3320.53	0.4977
3329.68	0.3563
3338.84	0.2523
3348	0.3589
3357.16	0.4948
3366.32	0.5473
3375.48	0.5678
3384.64	0.5735
3393.8	0.572
3402.96	0.571
3412.11	0.572
3421.27	0.5725
3430.43	0.5758
3439.59	0.5873
3448.75	0.5935
3457.91	0.603
3467.07	0.609
3476.23	0.614
3485.38	0.6205
3494.54	0.6305
3503.7	0.6388
3512.86	0.651
3522.02	0.6633
3531.18	0.673
3540.34	0.6895
3549.5	0.702
3558.66	0.716
3567.81	0.7253
3576.97	0.737
3586.13	0.7495
3595.29	0.763
3604.45	0.776
3613.61	0.79
3622.77	0.8025
3631.93	0.81
3641.09	0.822
3650.24	0.823
3659.4	0.833
3668.56	0.8325
3677.72	0.8263
3686.88	0.831
3696.04	0.8463
3705.2	0.8477
3714.36	0.8485
3723.52	0.848
3732.67	0.8477
3741.83	0.8495
3750.99	0.848
3760.15	0.852
3769.31	0.852
3778.47	0.854
3787.63	0.852
3796.79	0.851
