Infrared Spectrum: 1,1-Diethylproparagyl amine
Formula: C 7 H 13 N
CAS: 3234-64-8
State: gas
Instrument: HP-GC/MS/IRD
Origin: NIST Mass Spectrometry Data Center
1/CM	ABSORBANCE
550	0.001484
562	0.0008862
574	0.000721
586	0.0005824
598	0.0007364
610	0.0016296
622	0.0051968
634	0.014
646	0.0075544
658	0.0025606
670	0.0009814
682	0.0006048
694	0.0006314
706	0.0006468
718	0.000847
730	0.001036
742	0.0012978
754	0.0018816
766	0.0024962
778	0.002814
790	0.0027664
802	0.0029316
814	0.0032452
826	0.0039648
838	0.0042378
850	0.0029596
862	0.0014784
874	0.000665
886	0.0004872
898	0.0007882
910	0.0015078
922	0.0022218
934	0.0024598
946	0.0020244
958	0.0014168
970	0.001169
982	0.0011788
994	0.0009856
1006	0.000539
1018	0.0003486
1030	0.000455
1042	0.0004676
1054	0.0004676
1066	0.000357
1078	0.0002968
1090	0.0001596
1102	0.0001372
1114	0.0002632
1126	0.0003948
1138	0.0007042
1150	0.0011942
1162	0.0015764
1174	0.00147
1186	0.0009058
1198	0.0005432
1210	0.0003192
1222	0.000434
1234	0.0011788
1246	0.0031052
1258	0.0033166
1270	0.001813
1282	0.0008512
1294	0.0007504
1306	0.0006916
1318	0.000679
1330	0.0006762
1342	0.0007
1354	0.000623
1366	0.0005894
1378	0.0009282
1390	0.000938
1402	0.0004298
1414	0.0001778
1426	0.0003766
1438	0.0009226
1450	0.0017192
1462	0.0020174
1474	0.0014448
1486	0.0007952
1498	0.00042
1510	0.000336
1522	0.000329
1534	0.0004256
1546	0.0006048
1558	0.0007308
1570	0.0008064
1582	0.0009296
1594	0.0010948
1606	0.0013272
1618	0.0014266
1630	0.0012894
1642	0.0009464
1654	0.0006384
1666	0.000392
1678	0.0002156
1690	0.0001134
1702	5.88e-05
1714	1.12e-05
1726	2.52e-05
1738	3.08e-05
1750	2.66e-05
1762	3.08e-05
1774	2.66e-05
1786	1.82e-05
1798	3.08e-05
1810	3.22e-05
1822	3.5e-05
1834	4.62e-05
1846	5.32e-05
1858	4.76e-05
1870	5.74e-05
1882	5.74e-05
1894	6.16e-05
1906	7.98e-05
1918	6.86e-05
1930	7.7e-05
1942	6.44e-05
1954	8.12e-05
1966	9.38e-05
1978	0.000105
1990	0.0001316
2002	0.0001008
2014	8.96e-05
2026	8.96e-05
2038	0.0001204
2050	0.0001246
2062	0.0001358
2074	0.0001806
2086	0.0002478
2098	0.0003094
2110	0.0003122
2122	0.0002534
2134	0.0001862
2146	0.0001638
2158	0.000168
2170	0.0001456
2182	0.0001778
2194	0.0001526
2206	0.0001876
2218	0.0001778
2230	0.000182
2242	0.0001834
2254	0.0001792
2266	0.000182
2278	0.0001848
2290	0.0001946
2302	0.0001904
2314	0.0001932
2326	0.0001722
2338	0.0001848
2350	0.0001834
2362	0.0001764
2374	0.0002058
2386	0.0001946
2398	0.0001736
2410	0.000175
2422	0.0001946
2434	0.0002058
2446	0.000189
2458	0.000161
2470	0.0001526
2482	0.0001918
2494	0.0001764
2506	0.0001498
2518	0.0001652
2530	0.000175
2542	0.0001918
2554	0.0001568
2566	0.0001862
2578	0.0001904
2590	0.0001652
2602	0.0001722
2614	0.000217
2626	0.000203
2638	0.000245
2650	0.0002478
2662	0.0002506
2674	0.0002898
2686	0.0002772
2698	0.0002758
2710	0.0002506
2722	0.0002632
2734	0.0003038
2746	0.0003794
2758	0.000434
2770	0.0004438
2782	0.0004228
2794	0.0004466
2806	0.0005096
2818	0.000609
2830	0.0007378
2842	0.0011046
2854	0.0018144
2866	0.0026208
2878	0.0038164
2890	0.0047572
2902	0.0044506
2914	0.0047558
2926	0.0072002
2938	0.0097132
2950	0.0096964
2962	0.0096936
2974	0.0120456
2986	0.0094738
2998	0.0041048
3010	0.0016968
3022	0.0010052
3034	0.0007756
3046	0.0006902
3058	0.000721
3070	0.0007378
3082	0.0007042
3094	0.000574
3106	0.0004578
3118	0.0004606
3130	0.0004564
3142	0.0004326
3154	0.0003668
3166	0.0003682
3178	0.000392
3190	0.000399
3202	0.000343
3214	0.0002912
3226	0.0002758
3238	0.0002884
3250	0.0004256
3262	0.0005026
3274	0.0007182
3286	0.0012824
3298	0.0022498
3310	0.004067
3322	0.0055762
3334	0.0041244
3346	0.0014042
3358	0.0005712
3370	0.0003192
3382	0.0003094
3394	0.0003556
3406	0.0003276
3418	0.0003374
3430	0.0003094
3442	0.0002688
3454	0.0002072
3466	0.0002226
3478	0.0001792
3490	0.000189
3502	0.0002352
3514	0.0002352
3526	0.0001764
3538	0.0002044
3550	0.0002618
3562	0.000266
3574	0.0002198
3586	0.0001834
3598	0.0002506
3610	0.000231
3622	0.000231
3634	0.0001806
3646	0.0002226
3658	0.0001554
3670	0.000175
3682	0.0001792
3694	0.000175
3706	0.0002072
3718	0.0002688
3730	0.0002842
3742	0.0002842
3754	0.0001834
3766	0.0002002
3778	0.0001974
3790	0.0002296
3802	0.0001484
3814	0.0002226
3826	0.000203
3838	0.000175
