Infrared Spectrum: TRANS-1,4-CYCLOHEXANEDIMETHANOL
Formula: C8 H16 O2
CAS: 3236-48-4
State: SOLID (KBr PELLET);
Class: COBLENTZ
Instrument: Not specified, most likely a prism, grating, or hybrid spectrometer.
Sampling: TRANSMISSION
Resolution: 4
Origin: TENNESSEE EASTMAN COMPANY, RESEARCH LABORATORIES
MICROMETERS	TRANSMITTANCE
2.034	0.828
2.07514	0.83
2.11629	0.833
2.15743	0.837
2.19857	0.842
2.23971	0.842
2.28086	0.843
2.322	0.842
2.36314	0.842
2.40429	0.842
2.44543	0.843
2.48657	0.843
2.52771	0.845
2.56886	0.845
2.61	0.845
2.65114	0.845
2.69229	0.847
2.73343	0.823
2.77457	0.746
2.81571	0.677
2.85686	0.591
2.898	0.416
2.93914	0.231
2.98028	0.084
3.02143	0.044
3.06257	0.042
3.10371	0.054
3.14486	0.183
3.186	0.389
3.22714	0.559
3.26828	0.646
3.30943	0.698
3.35057	0.638
3.39171	0.137
3.43286	0.109
3.474	0.102
3.51514	0.315
3.55628	0.595
3.59743	0.65
3.63857	0.662
3.67971	0.698
3.72086	0.737
3.762	0.754
3.80314	0.78
3.84428	0.813
3.88543	0.823
3.92657	0.83
3.96771	0.849
4.00886	0.869
4.05	0.881
4.09114	0.886
4.13228	0.888
4.17343	0.893
4.21457	0.905
4.25571	0.909
4.29685	0.91
4.338	0.914
4.37914	0.921
4.42028	0.926
4.46143	0.929
4.50257	0.933
4.54371	0.934
4.58485	0.936
4.626	0.936
4.66714	0.936
4.70828	0.936
4.74943	0.931
4.79057	0.931
4.83171	0.931
4.87285	0.929
4.914	0.927
4.95514	0.929
4.99628	0.933
5.03743	0.934
5.07857	0.936
5.11971	0.939
5.16085	0.939
5.202	0.939
5.24314	0.941
5.28428	0.941
5.32543	0.943
5.36657	0.943
5.40771	0.943
5.44885	0.943
5.49	0.945
5.53114	0.945
5.57228	0.943
5.61342	0.941
5.65457	0.936
5.69571	0.931
5.73685	0.926
5.778	0.915
5.81914	0.917
5.86028	0.915
5.90142	0.914
5.94257	0.909
5.98371	0.9
6.02485	0.886
6.066	0.861
6.10714	0.852
6.14828	0.85
6.18942	0.857
6.23057	0.874
6.27171	0.885
6.31285	0.888
6.354	0.881
6.39514	0.873
6.43628	0.867
6.47742	0.847
6.51857	0.84
6.55971	0.816
6.60085	0.794
6.642	0.751
6.68314	0.668
6.72428	0.499
6.76542	0.234
6.80657	0.274
6.84771	0.289
6.88885	0.217
6.92999	0.433
6.97114	0.481
7.01228	0.581
7.05342	0.663
7.09457	0.699
7.13571	0.72
7.17685	0.727
7.21799	0.71
7.25914	0.701
7.30028	0.711
7.34142	0.667
7.38257	0.588
7.42371	0.663
7.46485	0.579
7.50599	0.437
7.54714	0.552
7.58828	0.686
7.62942	0.687
7.67057	0.751
7.71171	0.723
7.75285	0.593
7.79399	0.663
7.83514	0.718
7.87628	0.722
7.91742	0.691
7.95857	0.77
7.99971	0.79
8.04085	0.799
8.08199	0.802
8.12314	0.806
8.16428	0.806
8.20542	0.777
8.24657	0.777
8.28771	0.749
8.32885	0.643
8.36999	0.538
8.41114	0.768
8.45228	0.811
8.49342	0.823
8.53456	0.833
8.57571	0.838
8.61685	0.842
8.65799	0.843
8.69914	0.843
8.74028	0.843
8.78142	0.838
8.82256	0.819
8.86371	0.783
8.90485	0.663
8.94599	0.451
8.98714	0.492
9.02828	0.641
9.06942	0.737
9.11056	0.782
9.15171	0.821
9.19285	0.826
9.23399	0.801
9.27514	0.778
9.31628	0.766
9.35742	0.746
9.39856	0.699
9.43971	0.6
9.48085	0.298
9.52199	0.056
9.56314	0.046
9.60428	0.048
9.64542	0.048
9.68656	0.111
9.72771	0.396
9.76885	0.586
9.80999	0.677
9.85113	0.672
9.89228	0.396
9.93342	0.118
9.97456	0.176
10.0157	0.466
10.0568	0.655
10.098	0.72
10.1391	0.749
10.1803	0.778
10.2214	0.811
10.2626	0.835
10.3037	0.843
10.3448	0.835
10.386	0.715
10.4271	0.62
10.4683	0.742
10.5094	0.802
10.5506	0.862
10.5917	0.876
10.6328	0.879
10.674	0.879
10.7151	0.873
10.7563	0.862
10.7974	0.869
10.8386	0.873
10.8797	0.871
10.9208	0.869
10.962	0.814
11.0031	0.588
11.0443	0.656
11.0854	0.819
11.1266	0.869
11.1677	0.888
11.2088	0.893
11.25	0.898
11.2911	0.9
11.3323	0.898
11.3734	0.902
11.4146	0.903
11.4557	0.903
11.4968	0.903
11.538	0.902
11.5791	0.902
11.6203	0.902
11.6614	0.902
11.7026	0.895
11.7437	0.886
11.7848	0.881
11.826	0.876
11.8671	0.871
11.9083	0.857
11.9494	0.831
11.9906	0.783
12.0317	0.77
12.0728	0.811
12.114	0.821
12.1551	0.837
12.1963	0.842
12.2374	0.843
12.2786	0.843
12.3197	0.842
12.3608	0.837
12.402	0.821
12.4431	0.814
12.4843	0.809
12.5254	0.804
12.5666	0.801
12.6077	0.794
12.6488	0.783
12.69	0.775
12.7311	0.768
12.7723	0.763
12.8134	0.756
12.8546	0.753
12.8957	0.737
12.9368	0.732
12.978	0.727
13.0191	0.727
13.0603	0.722
13.1014	0.713
13.1426	0.706
13.1837	0.698
13.2248	0.691
13.266	0.684
13.3071	0.68
13.3483	0.672
13.3894	0.665
13.4306	0.653
13.4717	0.638
13.5128	0.627
13.554	0.619
13.5951	0.612
13.6363	0.602
13.6774	0.596
13.7186	0.579
13.7597	0.571
13.8008	0.562
13.842	0.557
13.8831	0.552
13.9243	0.547
13.9654	0.545
14.0066	0.543
14.0477	0.542
14.0888	0.542
14.13	0.542
14.1711	0.545
14.2123	0.548
14.2534	0.552
14.2946	0.555
14.3357	0.559
14.3768	0.56
14.418	0.562
14.4591	0.564
14.5003	0.566
14.5414	0.567
14.5826	0.569
14.6237	0.569
14.6648	0.569
14.706	0.569
14.7471	0.569
14.7883	0.567
14.8294	0.567
14.8706	0.567
14.9117	0.557
14.9528	0.545
14.994	0.531
15.0351	0.528
15.0763	0.533
15.1174	0.533
15.1586	0.53
15.1997	0.519
15.2408	0.511
15.282	0.502
15.3231	0.493
15.3643	0.487
15.4054	0.478
15.4466	0.475
15.4877	0.466
15.5288	0.463
15.57	0.457
15.6111	0.452
15.6523	0.447
15.6934	0.445
15.7346	0.439
15.7757	0.437
15.8168	0.432
15.858	0.428
15.8991	0.427
15.9403	0.421
15.9814	0.42
