Infrared Spectrum: 2-ETHYL-1,2,3,4-TETRAHYDRONAPHTHALENE
Formula: C12 H16
CAS: 32367-54-7
State: LIQUID
Class: COBLENTZ
Instrument: Not specified, most likely a prism, grating, or hybrid spectrometer.
Sampling: TRANSMISSION
Path length: 0.005 CM (CsI CELL)
Resolution: 4
Origin: AIR MAT. LAB., WRIGHT-PAT. AFB
1/CM	TRANSMITTANCE
217.594	0.688
227.068	0.69
236.541	0.692
246.015	0.7
255.489	0.705
264.963	0.726
274.436	0.772
283.91	0.778
293.384	0.787
302.858	0.792
312.331	0.797
321.805	0.804
331.279	0.802
340.752	0.801
350.226	0.799
359.7	0.806
369.174	0.792
378.647	0.812
388.121	0.806
397.595	0.794
407.069	0.797
416.542	0.785
426.016	0.721
435.49	0.554
444.963	0.6708
454.437	0.753
463.911	0.775
473.385	0.773
482.858	0.784
492.332	0.789
501.806	0.792
511.279	0.787
520.753	0.787
530.227	0.792
539.701	0.794
549.174	0.792
558.648	0.792
568.122	0.79
577.596	0.794
587.069	0.784
596.543	0.789
606.017	0.784
615.49	0.753
624.964	0.758
634.438	0.804
643.912	0.801
653.385	0.797
662.859	0.777
672.333	0.789
681.807	0.79
691.28	0.785
700.754	0.765
710.228	0.751
719.701	0.688
729.175	0.4912
738.649	0.062
748.123	0.171
757.596	0.5509
767.07	0.603
776.544	0.693
786.018	0.741
795.491	0.736
804.965	0.717
814.439	0.6511
823.912	0.734
833.386	0.7
842.86	0.767
852.334	0.751
861.807	0.746
871.281	0.775
880.755	0.739
890.229	0.7139
899.702	0.758
909.176	0.693
918.65	0.736
928.123	0.646
937.597	0.705
947.071	0.5468
956.545	0.738
966.018	0.751
975.492	0.739
984.966	0.704
994.439	0.71
1003.91	0.697
1013.39	0.712
1022.86	0.702
1032.33	0.653
1041.81	0.707
1051.28	0.639
1060.76	0.722
1070.23	0.7
1079.7	0.753
1089.18	0.741
1098.65	0.675
1108.12	0.717
1117.6	0.67
1127.07	0.695
1136.55	0.731
1146.02	0.734
1155.49	0.721
1164.97	0.756
1174.44	0.751
1183.91	0.722
1193.39	0.719
1202.86	0.722
1212.34	0.664
1221.81	0.714
1231.28	0.681
1240.76	0.668
1250.23	0.605
1259.7	0.71
1269.18	0.702
1278.65	0.675
1288.12	0.583
1297.6	0.59
1307.07	0.683
1316.55	0.683
1326.02	0.687
1335.49	0.619
1344.97	0.653
1354.44	0.675
1363.91	0.658
1373.39	0.561
1382.86	0.5451
1392.34	0.693
1401.81	0.702
1411.28	0.69
1420.76	0.653
1430.23	0.4311
1439.7	0.401
1449.18	0.2259
1458.65	0.255
1468.13	0.403
1477.6	0.561
1487.07	0.484
1496.55	0.147
1506.02	0.731
1515.49	0.755
1524.97	0.763
1534.44	0.767
1543.92	0.758
1553.39	0.755
1562.86	0.75
1572.34	0.724
1581.81	0.551
1591.28	0.71
1600.76	0.649
1610.23	0.727
1619.71	0.758
1629.18	0.765
1638.65	0.767
1648.13	0.765
1657.6	0.765
1667.07	0.743
1676.55	0.719
1686.02	0.671
1695.5	0.751
1704.97	0.765
1714.44	0.765
1723.92	0.767
1733.39	0.775
1742.86	0.777
1752.34	0.777
1761.81	0.775
1771.28	0.768
1780.76	0.768
1790.23	0.763
1799.71	0.734
1809.18	0.731
1818.65	0.756
1828.13	0.741
1837.6	0.758
1847.07	0.767
1856.55	0.768
1866.02	0.77
1875.5	0.765
1884.97	0.755
1894.44	0.755
1903.92	0.748
1913.39	0.719
1922.86	0.739
1932.34	0.739
1941.81	0.732
1951.29	0.753
1960.76	0.77
1970.23	0.775
1979.71	0.778
1989.18	0.778
1998.65	0.782
2008.13	0.784
2017.6	0.784
2027.08	0.784
2036.55	0.785
2046.02	0.785
2055.5	0.782
2064.97	0.782
2074.44	0.782
2083.92	0.782
2093.39	0.782
2102.87	0.778
2112.34	0.778
2121.81	0.778
2131.29	0.778
2140.76	0.777
2150.23	0.777
2159.71	0.775
2169.18	0.778
2178.66	0.778
2188.13	0.7775
2197.6	0.777
2207.08	0.774
2216.55	0.772
2226.02	0.77
2235.5	0.77
2244.97	0.77
2254.44	0.77
2263.92	0.77
2273.39	0.768
2282.87	0.768
2292.34	0.767
2301.81	0.764
2311.29	0.761
2320.76	0.761
2330.23	0.76
2339.71	0.761
2349.18	0.761
2358.66	0.761
2368.13	0.761
2377.6	0.761
2387.08	0.761
2396.55	0.761
2406.02	0.761
2415.5	0.7605
2424.97	0.76
2434.45	0.76
2443.92	0.76
2453.39	0.76
2462.87	0.7581
2472.34	0.7605
2481.81	0.76
2491.29	0.76
2500.76	0.758
2510.24	0.758
2519.71	0.756
2529.18	0.7544
2538.66	0.75
2548.13	0.7449
2557.6	0.7429
2567.08	0.7399
2576.55	0.736
2586.03	0.736
2595.5	0.736
2604.97	0.734
2614.45	0.7339
2623.92	0.731
2633.39	0.731
2642.87	0.731
2652.34	0.7239
2661.82	0.7163
2671.29	0.712
2680.76	0.714
2690.24	0.717
2699.71	0.719
2709.18	0.717
2718.66	0.7134
2728.13	0.7039
2737.61	0.7061
2747.08	0.7101
2756.55	0.7109
2766.03	0.7
2775.5	0.6914
2784.97	0.6706
2794.45	0.6425
2803.92	0.6128
2813.39	0.5876
2822.87	0.4808
2832.34	0.3516
2841.82	0.2199
2851.29	0.176
2860.76	0.1265
2870.24	0.1703
2879.71	0.0966
2889.18	0.147
2898.66	0.1075
2908.13	0.0647
2917.61	0.0521
2927.08	0.0627
2936.55	0.0715
2946.03	0.1422
2955.5	0.1321
2964.97	0.0798
2974.45	0.1943
2983.92	0.4471
2993.4	0.5174
3002.87	0.4653
3012.34	0.4178
3021.82	0.3182
3031.29	0.3927
3040.76	0.4743
3050.24	0.4888
3059.71	0.4105
3069.19	0.4661
3078.66	0.5056
3088.13	0.6308
3097.61	0.6599
3107.08	0.6598
3116.55	0.7073
3126.03	0.715
3135.5	0.7144
3144.98	0.712
3154.45	0.71
3163.92	0.7122
3173.4	0.7201
3182.87	0.722
3192.34	0.722
3201.82	0.722
3211.29	0.722
3220.77	0.7219
3230.24	0.721
3239.71	0.721
3249.19	0.7179
3258.66	0.7169
3268.13	0.714
3277.61	0.712
3287.08	0.71
3296.55	0.707
3306.03	0.705
3315.5	0.704
3324.98	0.704
3334.45	0.704
3343.92	0.702
3353.4	0.702
3362.87	0.702
3372.34	0.704
3381.82	0.7046
3391.29	0.705
3400.77	0.707
3410.24	0.707
3419.71	0.707
3429.19	0.704
3438.66	0.704
3448.13	0.704
3457.61	0.702
3467.08	0.698
3476.56	0.6958
3486.03	0.693
3495.5	0.6976
3504.98	0.7
3514.45	0.7032
3523.92	0.705
3533.4	0.7044
3542.87	0.702
3552.35	0.7
3561.82	0.702
3571.29	0.7032
3580.77	0.705
3590.24	0.707
3599.71	0.7154
3609.19	0.7252
3618.66	0.727
3628.14	0.729
3637.61	0.7288
3647.08	0.727
3656.56	0.729
3666.03	0.729
3675.5	0.729
3684.98	0.731
3694.45	0.731
3703.93	0.7278
3713.4	0.726
3722.87	0.726
3732.35	0.726
3741.82	0.726
3751.29	0.726
3760.77	0.726
3770.24	0.726
3779.71	0.7228
3789.19	0.7219
3798.66	0.7198
3808.14	0.717
3817.61	0.717
3827.08	0.717
3836.56	0.717
3846.03	0.717
3855.5	0.717
3864.98	0.715
3874.45	0.717
3883.93	0.717
3893.4	0.717
3902.87	0.7172
3912.35	0.7178
3921.82	0.717
3931.29	0.717
3940.77	0.715
3950.24	0.715
3959.72	0.715
3969.19	0.715
3978.66	0.714
