Infrared Spectrum: 2-PROPENOIC ACID, 2-METHYL-, OCTADECYL ESTER
Formula: C22 H42 O2
CAS: 32360-05-7
State: SOLUTION (5% IN CCl4 FOR 3800-1300, 5% IN CS2 FOR 1300-650, AND 5% IN CCl4 FOR 650-240 CM^-^1) VERSUS SOLVENT
Class: COBLENTZ II
Instrument: PERKIN-ELMER 521 (GRATING)
Instrument parameters: GRATING CHANGES AT 2000, 630 CM^-^1
Sampling: TRANSMISSION
Path length: 0.010, 0.010, AND 0.019 CM (CsBr CELL)
Resolution: 4
Origin: DOW CORNING CORP.
1/CM	TRANSMITTANCE
232.454	0.868
241.407	0.876
250.36	0.875
259.313	0.869
268.265	0.864
277.218	0.861
286.171	0.855
295.124	0.859
304.077	0.859
313.03	0.862
321.983	0.866
330.935	0.862
339.888	0.854
348.841	0.848
357.794	0.85
366.747	0.857
375.7	0.857
384.653	0.855
393.605	0.862
402.558	0.866
411.511	0.866
420.464	0.862
429.417	0.855
438.37	0.845
447.323	0.836
456.275	0.836
465.228	0.833
474.181	0.836
483.134	0.835
492.087	0.843
501.04	0.842
509.993	0.843
518.945	0.835
527.898	0.838
536.851	0.84
545.804	0.843
554.757	0.854
563.71	0.859
572.663	0.862
581.615	0.864
590.568	0.845
599.521	0.843
608.474	0.862
617.427	0.871
626.38	0.875
635.333	0.855
644.285	0.836
653.238	0.84
662.191	0.842
671.144	0.868
680.097	0.88
689.05	0.873
698.003	0.864
706.955	0.848
715.908	0.7761
724.861	0.805
733.814	0.85
742.767	0.869
751.72	0.878
760.673	0.875
769.625	0.875
778.578	0.871
787.531	0.868
796.484	0.859
805.437	0.8031
814.39	0.7109
823.343	0.855
832.295	0.869
841.248	0.873
850.201	0.876
859.154	0.873
868.107	0.876
877.06	0.873
886.013	0.871
894.965	0.873
903.918	0.862
912.871	0.848
921.824	0.8191
930.777	0.6264
939.73	0.5199
948.683	0.817
957.635	0.842
966.588	0.826
975.541	0.812
984.494	0.824
993.447	0.822
1002.4	0.776
1011.35	0.7269
1020.31	0.788
1029.26	0.802
1038.21	0.805
1047.16	0.814
1056.12	0.814
1065.07	0.815
1074.02	0.831
1082.98	0.84
1091.93	0.848
1100.88	0.852
1109.83	0.84
1118.79	0.817
1127.74	0.762
1136.69	0.6941
1145.65	0.5261
1154.6	0.215
1163.55	0.149
1172.5	0.267
1181.46	0.473
1190.41	0.5879
1199.36	0.6919
1208.32	0.765
1217.27	0.809
1226.22	0.824
1235.17	0.836
1244.13	0.84
1253.08	0.84
1262.03	0.84
1270.99	0.829
1279.94	0.7891
1288.89	0.5814
1297.84	0.369
1306.8	0.657
1315.75	0.4941
1324.7	0.5449
1333.66	0.718
1342.61	0.822
1351.56	0.838
1360.51	0.826
1369.47	0.814
1378.42	0.76
1387.37	0.815
1396.33	0.798
1405.28	0.769
1414.23	0.828
1423.18	0.824
1432.14	0.739
1441.09	0.692
1450.04	0.552
1459	0.529
1467.95	0.468
1476.9	0.777
1485.85	0.869
1494.81	0.888
1503.76	0.899
1512.71	0.907
1521.67	0.913
1530.62	0.913
1539.57	0.914
1548.52	0.914
1557.48	0.913
1566.43	0.911
1575.38	0.909
1584.34	0.906
1593.29	0.901
1602.24	0.887
1611.19	0.873
1620.15	0.835
1629.1	0.76
1638.05	0.659
1647.01	0.859
1655.96	0.878
1664.91	0.876
1673.86	0.85
1682.82	0.842
1691.77	0.814
1700.72	0.7391
1709.68	0.4802
1718.63	0.1
1727.58	0.2038
1736.53	0.7078
1745.49	0.828
1754.44	0.861
1763.39	0.876
1772.35	0.885
1781.3	0.892
1790.25	0.895
1799.2	0.902
1808.16	0.906
1817.11	0.907
1826.06	0.907
1835.02	0.909
1843.97	0.909
1852.92	0.911
1861.87	0.904
1870.83	0.895
1879.78	0.895
1888.73	0.899
1897.69	0.906
1906.64	0.909
1915.59	0.907
1924.54	0.909
1933.5	0.907
1942.45	0.909
1951.4	0.907
1960.36	0.911
1969.31	0.907
1978.26	0.909
1987.21	0.911
1996.17	0.914
2005.12	0.916
2014.07	0.914
2023.03	0.9141
2031.98	0.914
2040.93	0.913
2049.88	0.9134
2058.84	0.9111
2067.79	0.911
2076.74	0.9091
2085.7	0.9081
2094.65	0.911
2103.6	0.9082
2112.55	0.907
2121.51	0.911
2130.46	0.909
2139.41	0.911
2148.37	0.9073
2157.32	0.907
2166.27	0.907
2175.22	0.906
2184.18	0.907
2193.13	0.907
2202.08	0.9106
2211.04	0.9084
2219.99	0.906
2228.94	0.904
2237.89	0.904
2246.85	0.904
2255.8	0.906
2264.75	0.906
2273.71	0.906
2282.66	0.906
2291.61	0.9046
2300.56	0.902
2309.52	0.9034
2318.47	0.9024
2327.42	0.902
2336.38	0.9012
2345.33	0.9053
2354.28	0.904
2363.23	0.902
2372.19	0.902
2381.14	0.9014
2390.09	0.9019
2399.05	0.901
2408	0.901
2416.95	0.9014
2425.9	0.901
2434.86	0.8998
2443.81	0.899
2452.76	0.899
2461.72	0.897
2470.67	0.897
2479.62	0.895
2488.57	0.895
2497.53	0.895
2506.48	0.892
2515.43	0.892
2524.39	0.89
2533.34	0.888
2542.29	0.89
2551.24	0.888
2560.2	0.888
2569.15	0.888
2578.1	0.885
2587.06	0.883
2596.01	0.881
2604.96	0.8801
2613.91	0.88
2622.87	0.8782
2631.82	0.8768
2640.77	0.876
2649.73	0.8756
2658.68	0.8695
2667.63	0.868
2676.58	0.868
2685.54	0.868
2694.49	0.871
2703.44	0.8743
2712.4	0.8694
2721.35	0.868
2730.3	0.868
2739.25	0.869
2748.21	0.869
2757.16	0.8687
2766.11	0.866
2775.07	0.8605
2784.02	0.8485
2792.97	0.842
2801.92	0.8213
2810.88	0.812
2819.83	0.7673
2828.78	0.724
2837.74	0.5142
2846.69	0.2043
2855.64	0.067
2864.59	0.3884
2873.55	0.4463
2882.5	0.5021
2891.45	0.3806
2900.41	0.2518
2909.36	0.1525
2918.31	0.0531
2927.26	0.0043
2936.22	0.0537
2945.17	0.2257
2954.12	0.2483
2963.08	0.3477
2972.03	0.5388
2980.98	0.6459
2989.93	0.7226
2998.89	0.7687
3007.84	0.8123
3016.79	0.8231
3025.75	0.8451
3034.7	0.848
3043.65	0.852
3052.6	0.8606
3061.56	0.869
3070.51	0.877
3079.46	0.88
3088.42	0.878
3097.37	0.8731
3106.32	0.876
3115.27	0.88
3124.23	0.8874
3133.18	0.888
3142.13	0.8862
3151.09	0.885
3160.04	0.8874
3168.99	0.888
3177.94	0.892
3186.9	0.894
3195.85	0.8977
3204.8	0.901
3213.76	0.902
3222.71	0.9037
3231.66	0.9053
3240.61	0.9057
3249.57	0.906
3258.52	0.907
3267.47	0.907
3276.43	0.907
3285.38	0.909
3294.33	0.909
3303.28	0.909
3312.24	0.909
3321.19	0.909
3330.14	0.909
3339.1	0.9068
3348.05	0.906
3357	0.907
3365.95	0.9084
3374.91	0.909
3383.86	0.9098
3392.81	0.907
3401.77	0.9063
3410.72	0.901
3419.67	0.901
3428.62	0.902
3437.58	0.909
3446.53	0.911
3455.48	0.911
3464.44	0.9139
3473.39	0.9122
3482.34	0.914
3491.29	0.9164
3500.25	0.9158
3509.2	0.9134
3518.15	0.9131
3527.11	0.9149
3536.06	0.913
3545.01	0.9149
3553.96	0.916
3562.92	0.918
3571.87	0.92
3580.82	0.922
3589.78	0.918
3598.73	0.916
3607.68	0.918
3616.63	0.917
3625.59	0.9209
3634.54	0.9151
3643.49	0.9245
3652.45	0.9191
3661.4	0.914
3670.35	0.9261
3679.3	0.9201
3688.26	0.921
3697.21	0.9268
3706.16	0.9276
3715.12	0.9248
3724.07	0.9308
3733.02	0.9288
3741.97	0.939
3750.93	0.9257
3759.88	0.923
3768.83	0.923
3777.79	0.923
3786.74	0.923
3795.69	0.927
