Infrared Spectrum: CIS-1,4-CYCLOHEXANEDIMETHANOL
Formula: C8 H16 O2
CAS: 3236-47-3
State: SOLID (KBr PELLET)
Melting point: 42-43 C
Class: COBLENTZ
Instrument: Not specified, most likely a prism, grating, or hybrid spectrometer.
Sampling: TRANSMISSION
Resolution: 4
Origin: TENNESSEE EASTMAN COMPANY, RESEARCH LABORATORIES
MICROMETERS	TRANSMITTANCE
2.123	0.593
2.16417	0.605
2.20534	0.608
2.2465	0.613
2.28767	0.613
2.32884	0.617
2.37001	0.622
2.41118	0.63
2.45235	0.636
2.49351	0.641
2.53468	0.646
2.57585	0.649
2.61702	0.653
2.65819	0.661
2.69936	0.664
2.74052	0.612
2.78169	0.515
2.82286	0.389
2.86403	0.232
2.9052	0.12
2.94636	0.062
2.98753	0.051
3.0287	0.056
3.06987	0.083
3.11104	0.139
3.15221	0.258
3.19337	0.357
3.23454	0.479
3.27571	0.554
3.31688	0.586
3.35805	0.343
3.39922	0.051
3.44038	0.088
3.48155	0.147
3.52272	0.479
3.56389	0.578
3.60506	0.632
3.64623	0.649
3.68739	0.675
3.72856	0.688
3.76973	0.697
3.8109	0.721
3.85207	0.732
3.89323	0.76
3.9344	0.767
3.97557	0.789
4.01674	0.801
4.05791	0.806
4.09908	0.821
4.14024	0.826
4.18141	0.833
4.22258	0.836
4.26375	0.836
4.30492	0.838
4.34609	0.85
4.38725	0.86
4.42842	0.862
4.46959	0.865
4.51076	0.869
4.55193	0.875
4.59309	0.877
4.63426	0.879
4.67543	0.884
4.7166	0.884
4.75777	0.882
4.79894	0.884
4.8401	0.884
4.88127	0.884
4.92244	0.887
4.96361	0.889
5.00478	0.901
5.04595	0.903
5.08711	0.906
5.12828	0.909
5.16945	0.911
5.21062	0.913
5.25179	0.916
5.29296	0.916
5.33412	0.916
5.37529	0.92
5.41646	0.92
5.45763	0.92
5.4988	0.923
5.53996	0.921
5.58113	0.921
5.6223	0.92
5.66347	0.918
5.70464	0.913
5.74581	0.906
5.78697	0.904
5.82814	0.901
5.86931	0.892
5.91048	0.886
5.95165	0.874
5.99282	0.86
6.03398	0.841
6.07515	0.824
6.11632	0.821
6.15749	0.824
6.19866	0.843
6.23982	0.863
6.28099	0.874
6.32216	0.88
6.36333	0.877
6.4045	0.872
6.44567	0.869
6.48683	0.858
6.528	0.85
6.56917	0.836
6.61034	0.819
6.65151	0.785
6.69268	0.681
6.73384	0.532
6.77501	0.513
6.81618	0.479
6.85735	0.278
6.89852	0.435
6.93969	0.527
6.98085	0.551
7.02202	0.557
7.06319	0.574
7.10436	0.595
7.14553	0.612
7.18669	0.596
7.22786	0.557
7.26903	0.561
7.3102	0.576
7.35137	0.591
7.39254	0.578
7.4337	0.581
7.47487	0.622
7.51604	0.644
7.55721	0.678
7.59838	0.709
7.63955	0.727
7.68071	0.746
7.72188	0.741
7.76305	0.717
7.80422	0.714
7.84539	0.721
7.88655	0.715
7.92772	0.717
7.96889	0.743
8.01006	0.756
8.05123	0.751
8.0924	0.726
8.13356	0.722
8.17473	0.751
8.2159	0.777
8.25707	0.78
8.29824	0.748
8.33941	0.721
8.38057	0.714
8.42174	0.714
8.46291	0.755
8.50408	0.787
8.54525	0.811
8.58642	0.823
8.62758	0.823
8.66875	0.801
8.70992	0.777
8.75109	0.738
8.79226	0.719
8.83342	0.734
8.87459	0.768
8.91576	0.778
8.95693	0.763
8.9981	0.637
9.03927	0.493
9.08043	0.448
9.1216	0.482
9.16277	0.477
9.20394	0.515
9.24511	0.615
9.28628	0.658
9.32744	0.661
9.36861	0.568
9.40978	0.399
9.45095	0.21
9.49212	0.161
9.53328	0.17
9.57445	0.156
9.61562	0.085
9.65679	0.051
9.69796	0.049
9.73913	0.076
9.78029	0.163
9.82146	0.312
9.86263	0.488
9.9038	0.615
9.94497	0.687
9.98614	0.71
10.0273	0.68
10.0685	0.647
10.1096	0.656
10.1508	0.636
10.192	0.627
10.2331	0.663
10.2743	0.702
10.3155	0.707
10.3566	0.673
10.3978	0.642
10.439	0.576
10.4802	0.53
10.5213	0.586
10.5625	0.653
10.6037	0.719
10.6448	0.797
10.686	0.812
10.7272	0.814
10.7683	0.804
10.8095	0.765
10.8507	0.693
10.8918	0.697
10.933	0.789
10.9742	0.858
11.0153	0.889
11.0565	0.899
11.0977	0.901
11.1388	0.899
11.18	0.869
11.2212	0.818
11.2624	0.802
11.3035	0.799
11.3447	0.804
11.3859	0.848
11.427	0.87
11.4682	0.882
11.5094	0.884
11.5505	0.896
11.5917	0.901
11.6329	0.903
11.674	0.903
11.7152	0.903
11.7564	0.901
11.7975	0.899
11.8387	0.897
11.8799	0.889
11.921	0.886
11.9622	0.88
12.0034	0.874
12.0445	0.867
12.0857	0.857
12.1269	0.846
12.1681	0.835
12.2092	0.819
12.2504	0.812
12.2916	0.801
12.3327	0.795
12.3739	0.792
12.4151	0.792
12.4562	0.797
12.4974	0.802
12.5386	0.802
12.5797	0.799
12.6209	0.79
12.6621	0.785
12.7032	0.78
12.7444	0.773
12.7856	0.773
12.8267	0.773
12.8679	0.777
12.9091	0.778
12.9502	0.778
12.9914	0.777
13.0326	0.77
13.0738	0.77
13.1149	0.765
13.1561	0.758
13.1973	0.753
13.2384	0.748
13.2796	0.746
13.3208	0.743
13.3619	0.739
13.4031	0.734
13.4443	0.729
13.4854	0.726
13.5266	0.719
13.5678	0.717
13.6089	0.714
13.6501	0.709
13.6913	0.707
13.7324	0.702
13.7736	0.698
13.8148	0.697
13.856	0.695
13.8971	0.688
13.9383	0.683
13.9795	0.683
14.0206	0.68
14.0618	0.676
14.103	0.671
14.1441	0.666
14.1853	0.661
14.2265	0.654
14.2676	0.653
14.3088	0.646
14.35	0.641
14.3911	0.632
14.4323	0.63
14.4735	0.624
14.5146	0.615
14.5558	0.61
14.597	0.607
14.6381	0.6
14.6793	0.591
14.7205	0.586
14.7617	0.581
14.8028	0.578
14.844	0.573
14.8852	0.561
14.9263	0.54
14.9675	0.518
15.0087	0.51
15.0498	0.513
15.091	0.52
15.1322	0.517
15.1733	0.508
15.2145	0.498
15.2557	0.486
15.2968	0.479
15.338	0.469
15.3792	0.46
15.4203	0.454
15.4615	0.447
15.5027	0.442
15.5438	0.438
15.585	0.433
15.6262	0.425
15.6674	0.421
15.7085	0.409
15.7497	0.406
15.7909	0.399
15.832	0.396
15.8732	0.389
15.9144	0.386
15.9555	0.384
15.9967	0.382
