Infrared Spectrum: 2-n-Propylpiperidine
Formula: C8 H17 N
CAS: 3238-60-6
State: SOLUTION (10% CCl4 FOR 3800-450 CM^-^1)
Class: COBLENTZ III
Instrument: DOW KBr FOREPRISM-GRATING
Instrument parameters: BLAZED AT 3.5, 12.0, 20.0 MICRON AND CHANGED AT 5.0, 7.5, 14.9 MICRON
Sampling: TRANSMISSION
Path length: 0.010 CM
Resolution: 2
Origin: DOW CHEMICAL COMPANY
1/CM	TRANSMITTANCE
455	0.645
464	0.6345
473	0.5978
482	0.6108
491	0.6075
500	0.6191
509	0.694
518	0.7633
527	0.759
536	0.6936
545	0.7754
554	0.7542
563	0.7118
572	0.7162
581	0.6171
590	0.7962
599	0.8146
608	0.8119
617	0.7975
626	0.7674
635	0.7765
644	0.8223
653	0.8128
662	0.7954
671	0.7651
680	0.7287
689	0.6826
698	0.6151
707	0.4184
716	0.2013
725	0.1116
734	0.0086
743	0.0061
752	0.0059
761	0.0058
770	0.0056
779	0.0055
788	0.0052
797	0.0052
806	0.0051
815	0.1233
824	0.2607
833	0.4512
842	0.5693
851	0.6619
860	0.629
869	0.5188
878	0.5862
887	0.6833
896	0.7456
905	0.7782
914	0.7694
923	0.7065
932	0.7272
941	0.7894
950	0.7617
959	0.7115
968	0.648
977	0.5857
986	0.6521
995	0.6595
1004	0.6209
1013	0.6546
1022	0.7307
1031	0.7098
1040	0.7687
1049	0.5244
1058	0.6574
1067	0.7322
1076	0.7376
1085	0.5616
1094	0.5631
1103	0.6743
1112	0.397
1121	0.2896
1130	0.6282
1139	0.7061
1148	0.7199
1157	0.7135
1166	0.7708
1175	0.8018
1184	0.7968
1193	0.7711
1202	0.6447
1211	0.6054
1220	0.6624
1229	0.612
1238	0.6786
1247	0.6357
1256	0.566
1265	0.5991
1274	0.6858
1283	0.7707
1292	0.7665
1301	0.7126
1310	0.4839
1319	0.6075
1328	0.2445
1337	0.4912
1346	0.6838
1355	0.6822
1364	0.6918
1373	0.6574
1382	0.4934
1391	0.7306
1400	0.7624
1409	0.7562
1418	0.7262
1427	0.5359
1436	0.3714
1445	0.2606
1454	0.2457
1463	0.3222
1472	0.5699
1481	0.7091
1490	0.7243
1499	0.7117
1508	0.6845
1517	0.6483
1526	0.5979
1535	0.528
1544	0.4715
1553	0.4531
1562	0.5233
1571	0.565
1580	0.5951
1589	0.6358
1598	0.6955
1607	0.751
1616	0.7788
1625	0.789
1634	0.7985
1643	0.81
1652	0.8147
1661	0.818
1670	0.8238
1679	0.8275
1688	0.8305
1697	0.8325
1706	0.8336
1715	0.8295
1724	0.8165
1733	0.7937
1742	0.806
1751	0.8297
1760	0.8384
1769	0.8398
1778	0.8403
1787	0.8409
1796	0.8412
1805	0.8404
1814	0.8394
1823	0.8381
1832	0.8361
1841	0.8339
1850	0.8337
1859	0.8358
1868	0.8384
1877	0.8399
1886	0.8368
1895	0.839
1904	0.8401
1913	0.8405
1922	0.8406
1931	0.841
1940	0.8404
1949	0.8409
1958	0.8311
1967	0.8433
1976	0.8455
1985	0.8458
1994	0.8428
2003	0.858
2012	0.8506
2021	0.8491
2030	0.8487
2039	0.8508
2048	0.8538
2057	0.857
2066	0.8584
2075	0.8594
2084	0.8601
2093	0.8607
2102	0.8615
2111	0.8618
2120	0.862
2129	0.862
2138	0.8618
2147	0.8616
2156	0.8605
2165	0.8591
2174	0.8567
2183	0.8566
2192	0.8589
2201	0.8589
2210	0.8602
2219	0.8591
2228	0.8568
2237	0.8544
2246	0.8515
2255	0.8485
2264	0.8459
2273	0.8437
2282	0.842
2291	0.8418
2300	0.8425
2309	0.8442
2318	0.8463
2327	0.8484
2336	0.8511
2345	0.8538
2354	0.8578
2363	0.8625
2372	0.8533
2381	0.8496
2390	0.8507
2399	0.8518
2408	0.8536
2417	0.856
2426	0.8582
2435	0.8595
2444	0.8566
2453	0.8524
2462	0.8471
2471	0.8411
2480	0.8401
2489	0.8436
2498	0.8477
2507	0.8477
2516	0.8483
2525	0.8493
2534	0.8415
2543	0.8312
2552	0.8181
2561	0.8028
2570	0.7882
2579	0.7712
2588	0.7601
2597	0.7514
2606	0.7398
2615	0.7378
2624	0.7521
2633	0.7254
2642	0.7162
2651	0.6984
2660	0.6808
2669	0.6958
2678	0.7028
2687	0.6685
2696	0.6108
2705	0.5917
2714	0.5639
2723	0.5308
2732	0.4484
2741	0.4783
2750	0.561
2759	0.5671
2768	0.5335
2777	0.3832
2786	0.2566
2795	0.19
2804	0.2228
2813	0.2912
2822	0.3506
2831	0.3018
2840	0.1954
2849	0.0889
2858	0.0892
2867	0.1366
2876	0.1066
2885	0.2145
2894	0.1352
2903	0.0703
2912	0.0149
2921	0.004
2930	0.0032
2939	0.0117
2948	0.0291
2957	0.0244
2966	0.085
2975	0.3018
2984	0.576
2993	0.648
3002	0.6958
3011	0.7347
3020	0.756
3029	0.7707
3038	0.7825
3047	0.7942
3056	0.8017
3065	0.8058
3074	0.8089
3083	0.8095
3092	0.8086
3101	0.8065
3110	0.8038
3119	0.8005
3128	0.7969
3137	0.7934
3146	0.79
3155	0.7868
3164	0.785
3173	0.7861
3182	0.7887
3191	0.793
3200	0.7984
3209	0.8042
3218	0.8106
3227	0.8085
3236	0.8028
3245	0.7958
3254	0.7896
3263	0.7856
3272	0.7833
3281	0.7826
3290	0.784
3299	0.7865
3308	0.7874
3317	0.7861
3326	0.7844
3335	0.7801
3344	0.7807
3353	0.7843
3362	0.7871
3371	0.7878
3380	0.79
3389	0.7937
3398	0.7976
3407	0.8011
3416	0.8048
3425	0.8084
3434	0.8119
3443	0.8155
3452	0.8191
3461	0.8227
3470	0.8263
3479	0.83
3488	0.8336
3497	0.8373
3506	0.8413
3515	0.8453
3524	0.8494
3533	0.8534
3542	0.8573
3551	0.8611
3560	0.8649
3569	0.8668
3578	0.8691
3587	0.8711
3596	0.8733
3605	0.8747
3614	0.8761
3623	0.8771
3632	0.8775
3641	0.8751
3650	0.8571
3659	0.8157
3668	0.8327
3677	0.8632
3686	0.8743
3695	0.8791
3704	0.8833
3713	0.8868
3722	0.8895
3731	0.89
3740	0.8892
3749	0.8881
3758	0.8878
3767	0.8887
3776	0.8893
3785	0.889
3794	0.8888
