Infrared Spectrum: 4-Heptyn-3-ol
Formula: C 7 H 12 O
CAS: 32398-69-9
State: gas
Instrument: HP-GC/MS/IRD
Origin: NIST Mass Spectrometry Data Center
1/CM	ABSORBANCE
550	0.0005355
562	0.000279
574	0.0002985
586	0.0002535
598	0.0002835
610	0.000165
622	0.0001935
634	0.0001485
646	5.25e-05
658	8.4e-05
670	8.4e-05
682	0.0001485
694	0.000189
706	6.75e-05
718	9.6e-05
730	0.000156
742	0.000276
754	0.0003705
766	0.000249
778	0.0003225
790	0.0005115
802	0.0004875
814	0.000612
826	0.0006285
838	0.0005145
850	0.000642
862	0.000798
874	0.001023
886	0.000831
898	0.0005505
910	0.0004905
922	0.000867
934	0.0018315
946	0.0034485
958	0.0052725
970	0.0059055
982	0.005013
994	0.0051405
1006	0.0056925
1018	0.0050655
1030	0.00432
1042	0.004203
1054	0.0036315
1066	0.003135
1078	0.0029415
1090	0.003141
1102	0.002766
1114	0.001854
1126	0.001605
1138	0.002199
1150	0.0023625
1162	0.001695
1174	0.0012945
1186	0.001236
1198	0.0013785
1210	0.001605
1222	0.001866
1234	0.001959
1246	0.001902
1258	0.0019665
1270	0.001986
1282	0.002148
1294	0.002517
1306	0.003684
1318	0.006024
1330	0.005547
1342	0.004917
1354	0.0061695
1366	0.0063615
1378	0.005286
1390	0.0041055
1402	0.0027525
1414	0.001935
1426	0.001788
1438	0.002058
1450	0.002445
1462	0.0025605
1474	0.0019935
1486	0.001116
1498	0.0006465
1510	0.0004065
1522	0.000285
1534	0.000264
1546	0.000237
1558	0.00024
1570	0.000234
1582	0.000177
1594	0.000144
1606	0.000123
1618	8.25e-05
1630	8.55e-05
1642	0.000102
1654	0.000102
1666	6.9e-05
1678	4.2e-05
1690	8.25e-05
1702	2.7e-05
1714	1.05e-05
1726	1.65e-05
1738	0
1750	1.35e-05
1762	7.5e-06
1774	1.35e-05
1786	1.65e-05
1798	1.8e-05
1810	2.25e-05
1822	1.2e-05
1834	3e-05
1846	3.15e-05
1858	4.2e-05
1870	4.05e-05
1882	6e-05
1894	4.65e-05
1906	5.1e-05
1918	7.95e-05
1930	5.55e-05
1942	4.95e-05
1954	2.85e-05
1966	3.6e-05
1978	5.55e-05
1990	5.4e-05
2002	7.05e-05
2014	7.35e-05
2026	7.2e-05
2038	8.1e-05
2050	0.0001035
2062	8.4e-05
2074	5.1e-05
2086	4.05e-05
2098	3.45e-05
2110	7.35e-05
2122	6.75e-05
2134	7.65e-05
2146	9.15e-05
2158	9.6e-05
2170	0.000156
2182	0.000216
2194	0.0003015
2206	0.000429
2218	0.000669
2230	0.0008565
2242	0.000768
2254	0.0005205
2266	0.000345
2278	0.000249
2290	0.0002325
2302	0.000201
2314	0.000135
2326	9.3e-05
2338	9.75e-05
2350	6.15e-05
2362	3.9e-05
2374	6.9e-05
2386	7.5e-05
2398	7.05e-05
2410	9.3e-05
2422	9.75e-05
2434	9.45e-05
2446	9.3e-05
2458	9e-05
2470	5.25e-05
2482	4.8e-05
2494	6e-05
2506	5.4e-05
2518	5.55e-05
2530	9.45e-05
2542	5.1e-05
2554	5.25e-05
2566	9.6e-05
2578	8.55e-05
2590	0.0001185
2602	0.0001455
2614	0.000156
2626	0.00018
2638	0.000147
2650	9.6e-05
2662	7.95e-05
2674	9.3e-05
2686	8.55e-05
2698	0.0001095
2710	0.0001545
2722	0.0002175
2734	0.000285
2746	0.0003765
2758	0.000402
2770	0.000399
2782	0.000432
2794	0.000438
2806	0.0005265
2818	0.000663
2830	0.000939
2842	0.0014745
2854	0.00249
2866	0.0041865
2878	0.0062925
2890	0.007839
2902	0.0072705
2914	0.0067065
2926	0.008358
2938	0.01188
2950	0.012933
2962	0.0111675
2974	0.0141945
2986	0.0135585
2998	0.0064305
3010	0.003162
3022	0.0018075
3034	0.0010815
3046	0.0008145
3058	0.000702
3070	0.000657
3082	0.0005865
3094	0.0005115
3106	0.0004725
3118	0.000354
3130	0.000333
3142	0.0002685
3154	0.0003
3166	0.0002595
3178	0.000258
3190	0.0002385
3202	0.0001455
3214	0.000138
3226	7.35e-05
3238	7.35e-05
3250	7.05e-05
3262	3.75e-05
3274	4.05e-05
3286	6.3e-05
3298	6.3e-05
3310	6.9e-05
3322	6.9e-05
3334	8.25e-05
3346	0.0001125
3358	6.45e-05
3370	0.000132
3382	0.00015
3394	9.3e-05
3406	0.0001035
3418	0.000117
3430	6.45e-05
3442	0.000147
3454	0.000111
3466	0.0001515
3478	0.000174
3490	0.0001425
3502	0.000186
3514	0.0002115
3526	0.000195
3538	0.000138
3550	0.000144
3562	0.0001425
3574	0.000147
3586	0.0001125
3598	0.000153
3610	0.000252
3622	0.000513
3634	0.0013545
3646	0.0024855
3658	0.002403
3670	0.0011685
3682	0.0004155
3694	0.000195
3706	0.000192
3718	0.0001755
3730	0.000177
3742	0.000135
3754	0.000174
3766	0.000255
3778	0.000222
3790	0.000252
3802	0.000171
3814	0.000189
3826	0.000153
3838	0.000153
