Infrared Spectrum: DL-.alpha.-Methylbenzyl isothiocyanate
Formula: C 9 H 9 N S
CAS: 32393-32-1
State: gas
Origin: EPA-IR VAPOR PHASE LIBRARY
1/CM	ABSORBANCE
549.8	0.027708
559.445	0.025828
569.09	0.025228
578.734	0.022388
588.379	0.020098
598.024	0.017148
607.669	0.013158
617.313	0.011288
626.958	0.009948
636.603	0.008888
646.248	0.008368
655.893	0.009958
665.537	0.014788
675.182	0.025688
684.827	0.045798
694.472	0.069348
704.116	0.057398
713.761	0.033198
723.406	0.020118
733.051	0.016268
742.695	0.017598
752.34	0.023108
761.985	0.022268
771.63	0.017428
781.275	0.012858
790.919	0.006408
800.564	0.003568
810.209	0.002078
819.854	0.002018
829.498	0.001468
839.143	0.001438
848.788	0.0010547
858.433	0.0012039
868.078	0.001448
877.722	0.001768
887.367	0.003038
897.012	0.003738
906.657	0.004418
916.301	0.004188
925.946	0.004488
935.591	0.006888
945.236	0.012198
954.88	0.014968
964.525	0.011208
974.17	0.006908
983.815	0.005218
993.46	0.005268
1003.1	0.007648
1012.75	0.018878
1022.39	0.036358
1032.04	0.024838
1041.68	0.012758
1051.33	0.010278
1060.97	0.011048
1070.62	0.011028
1080.26	0.010428
1089.91	0.009908
1099.55	0.011508
1109.2	0.013438
1118.84	0.012968
1128.49	0.009868
1138.13	0.005938
1147.78	0.004268
1157.42	0.003648
1167.07	0.003738
1176.71	0.006258
1186.36	0.008308
1196	0.009788
1205.64	0.010018
1215.29	0.005688
1224.93	0.003968
1234.58	0.004888
1244.22	0.005558
1253.87	0.007488
1263.51	0.013008
1273.16	0.023538
1282.8	0.029578
1292.45	0.038868
1302.09	0.057638
1311.74	0.071668
1321.38	0.070668
1331.03	0.050878
1340.67	0.044668
1350.32	0.037758
1359.96	0.016088
1369.61	0.013958
1379.25	0.017728
1388.9	0.013368
1398.54	0.006678
1408.18	0.004668
1417.83	0.005118
1427.47	0.007338
1437.12	0.012498
1446.76	0.022778
1456.41	0.026398
1466.05	0.014838
1475.7	0.008418
1485.34	0.011918
1494.99	0.017288
1504.63	0.009758
1514.28	0.004108
1523.92	0.003268
1533.57	0.003038
1543.21	0.002518
1552.86	0.002408
1562.5	0.002598
1572.15	0.003228
1581.79	0.004968
1591.44	0.007708
1601.08	0.008798
1610.73	0.006368
1620.37	0.003408
1630.01	0.002418
1639.66	0.002148
1649.3	0.002318
1658.95	0.002488
1668.59	0.002628
1678.24	0.002498
1687.88	0.002198
1697.53	0.002008
1707.17	0.002148
1716.82	0.002378
1726.46	0.002878
1736.11	0.003408
1745.75	0.003278
1755.4	0.002758
1765.04	0.002448
1774.69	0.002738
1784.33	0.004008
1793.98	0.005498
1803.62	0.004428
1813.27	0.003168
1822.91	0.002848
1832.55	0.002748
1842.2	0.003118
1851.84	0.004048
1861.49	0.005548
1871.13	0.007248
1880.78	0.009248
1890.42	0.011278
1900.07	0.013088
1909.71	0.016508
1919.36	0.021598
1929	0.028808
1938.65	0.039108
1948.29	0.052718
1957.94	0.070788
1967.58	0.092388
1977.23	0.117038
1986.87	0.147988
1996.52	0.191108
2006.16	0.250058
2015.81	0.321488
2025.45	0.392828
2035.1	0.447128
2044.74	0.466948
2054.38	0.447428
2064.03	0.408548
2073.67	0.362528
2083.32	0.295788
2092.96	0.214178
2102.61	0.158468
2112.25	0.133368
2121.9	0.127468
2131.54	0.126128
2141.19	0.120048
2150.83	0.108198
2160.48	0.090088
2170.12	0.067608
2179.77	0.048198
2189.41	0.036378
2199.06	0.030388
2208.7	0.027048
2218.35	0.023778
2227.99	0.021208
2237.64	0.018578
2247.28	0.015528
2256.92	0.012218
2266.57	0.009098
2276.21	0.006838
2285.86	0.005238
2295.5	0.004418
2305.15	0.003928
2314.79	0.004048
2324.44	0.003978
2334.08	0.003468
2343.73	0.003088
2353.37	0.002738
2363.02	0.002448
2372.66	0.002388
2382.31	0.002268
2391.95	0.002178
2401.6	0.002108
2411.24	0.001988
2420.89	0.001928
2430.53	0.002038
2440.18	0.001998
2449.82	0.002108
2459.47	0.002278
2469.11	0.002268
2478.75	0.002288
2488.4	0.002418
2498.04	0.002238
2507.69	0.002418
2517.33	0.002478
2526.98	0.002808
2536.62	0.002958
2546.27	0.003358
2555.91	0.003698
2565.56	0.003918
2575.2	0.004038
2584.85	0.003778
2594.49	0.003428
2604.14	0.002948
2613.78	0.002608
2623.43	0.002448
2633.07	0.002638
2642.72	0.002628
2652.36	0.002378
2662.01	0.002418
2671.65	0.002468
2681.29	0.002538
2690.94	0.002688
2700.58	0.002898
2710.23	0.003388
2719.87	0.003718
2729.52	0.004298
2739.16	0.004798
2748.81	0.004878
2758.45	0.005008
2768.1	0.004728
2777.74	0.004228
2787.39	0.003948
2797.03	0.003488
2806.68	0.003368
2816.32	0.003128
2825.97	0.003008
2835.61	0.002888
2845.26	0.002748
2854.9	0.003098
2864.55	0.004018
2874.19	0.005928
2883.84	0.007618
2893.48	0.008608
2903.12	0.011678
2912.77	0.016288
2922.41	0.018088
2932.06	0.018088
2941.7	0.018868
2951.35	0.014308
2960.99	0.008468
2970.64	0.009068
2980.28	0.024278
2989.93	0.057118
2999.57	0.038258
3009.22	0.012768
3018.86	0.013008
3028.51	0.021118
3038.15	0.027298
3047.8	0.022908
3057.44	0.019218
3067.09	0.027918
3076.73	0.032708
3086.38	0.022428
3096.02	0.015888
3105.67	0.011268
3115.31	0.007488
3124.95	0.003708
3134.6	0.001998
3144.24	0.001438
3153.89	0.0011516
3163.53	0.001048
3173.18	0.0010261
3182.82	0.0007416
3192.47	0.0009239
3202.11	0.0007319
3211.76	0.0005543
3221.4	0.0006586
3231.05	0.00049626
3240.69	0.0006062
3250.34	0.00049197
3259.98	0.000274
3269.63	0.00026
3279.27	0.0003194
3288.92	0.0003518
3298.56	0.000288
3308.21	0.000201
3317.85	0.000274
3327.49	5.4e-05
3337.14	0.000224
3346.78	0
3356.43	0.000223
3366.07	0.00018
3375.72	0.000264
3385.36	0.000285
3395.01	0.000125
3404.65	0.000289
3414.3	0.0003521
3423.94	0.000191
3433.59	0.00040851
3443.23	0.000291
3452.88	0.000426215
3462.52	0.000271
3472.17	0.000237
3481.81	0.0005785
3491.46	0.00044457
3501.1	0.0003419
3510.75	0.0005664
3520.39	0.0005276
3530.04	0.0005797
3539.68	0.000264
3549.32	0.0006209
3558.97	0.0003909
3568.61	0.000401
3578.26	0.000219
3587.9	0.00040862
3597.55	0.0005455
3607.19	0.0003322
3616.84	0.00049255
3626.48	0.00049345
3636.13	0.0007393
3645.77	0.000717
3655.42	0.0006074
3665.06	0.0006217
3674.71	0.0005511
3684.35	0.0006236
3694	0.0007065
3703.64	0.0006569
3713.29	0.0005184
3722.93	0.0003731
3732.58	0.0003352
3742.22	0.00048671
3751.86	0.0005274
3761.51	0.0006459
3771.15	0.0005587
3780.8	0.0005493
3790.44	0.00044185
3800.09	0.0006819
3809.73	0.0007634
3819.38	0.0007622
3829.02	0.0007279
3838.67	0.0008891
3848.31	0.0008473
3857.96	0.0008854
3867.6	0.0009121
3877.25	0.0008392
3886.89	0.0011036
3896.54	0.0010972
3906.18	0.0011893
3915.83	0.0012416
3925.47	0.001668
3935.12	0.001538
3944.76	0.001728
3954.41	0.002008
3964.05	0.002188
3973.69	0.001948
3983.34	0.002058
3992.98	0.002278
