Infrared Spectrum: Iodosobenzene diacetate
Formula: C10 H11 I O4
CAS: 3240-34-4
State: gas
Origin: EPA-IR VAPOR PHASE LIBRARY
1/CM	ABSORBANCE
501.5	0.0001553
513.074	0.00023611
524.648	0.0003153
536.222	0.0003162
547.796	0.00027281
559.37	0.0004905
570.944	0.0004449
582.518	0.0004272
594.092	0.0003616
605.666	0.0004351
617.24	0.000605
628.814	0.0007746
640.388	0.002703
651.962	0.012383
663.536	0.011563
675.11	0.007123
686.684	0.009453
698.258	0.008593
709.832	0.013443
721.406	0.022353
732.98	0.025813
744.554	0.015183
756.128	0.004753
767.702	0.0011304
779.276	0.0005349
790.85	0.0004096
802.423	0.0004323
813.997	0.0004329
825.571	0.0004952
837.145	0.0005377
848.719	0.0004487
860.293	0.0005124
871.867	0.0010966
883.441	0.001413
895.015	0.0010981
906.589	0.0009241
918.163	0.000776
929.737	0.0004885
941.311	0.000427
952.885	0.0004678
964.459	0.0005522
976.033	0.0006604
987.607	0.004383
999.181	0.010493
1010.76	0.017623
1022.33	0.014773
1033.9	0.002103
1045.48	0.003433
1057.05	0.010223
1068.63	0.005953
1080.2	0.001223
1091.77	0.0007362
1103.35	0.00055
1114.92	0.0004075
1126.49	0.0004092
1138.07	0.0003603
1149.64	0.000369
1161.22	0.0004195
1172.79	0.000499
1184.36	0.0004227
1195.94	0.0005744
1207.51	0.0006337
1219.09	0.0011301
1230.66	0.0011275
1242.23	0.0008733
1253.81	0.00088
1265.38	0.0007476
1276.96	0.0006574
1288.53	0.0007572
1300.1	0.0009985
1311.68	0.001423
1323.25	0.001323
1334.83	0.001193
1346.4	0.001002
1357.97	0.0008336
1369.55	0.0008099
1381.12	0.0007787
1392.7	0.000666
1404.27	0.0010409
1415.84	0.002483
1427.42	0.004363
1438.99	0.004673
1450.57	0.004813
1462.14	0.010143
1473.71	0.019943
1485.29	0.008153
1496.86	0.0011665
1508.44	0.000899
1520.01	0.0008192
1531.58	0.0009572
1543.16	0.001733
1554.73	0.004193
1566.31	0.013563
1577.88	0.016403
1589.45	0.003473
1601.03	0.0010961
1612.6	0.000879
1624.18	0.0010877
1635.75	0.000962
1647.32	0.0005992
1658.9	0.0005704
1670.47	0.0005776
1682.05	0.0005643
1693.62	0.0005988
1705.19	0.0007304
1716.77	0.0008996
1728.34	0.000947
1739.92	0.0008323
1751.49	0.0005981
1763.06	0.0007525
1774.64	0.0010605
1786.21	0.001493
1797.79	0.001383
1809.36	0.0008221
1820.93	0.0006501
1832.51	0.0006868
1844.08	0.0009199
1855.66	0.001273
1867.23	0.001573
1878.8	0.001443
1890.38	0.0007644
1901.95	0.0005547
1913.53	0.0007135
1925.1	0.001083
1936.67	0.001323
1948.25	0.001593
1959.82	0.001223
1971.4	0.0005966
1982.97	0.00047
1994.54	0.0004658
2006.12	0.0004906
2017.69	0.0004676
2029.27	0.0004093
2040.84	0.0003807
2052.41	0.0004096
2063.99	0.0004359
2075.56	0.0004236
2087.14	0.0003769
2098.71	0.0004065
2110.28	0.0004404
2121.86	0.0004368
2133.43	0.0003812
2145.01	0.0003979
2156.58	0.0003836
2168.15	0.0003762
2179.73	0.0003732
2191.3	0.0003533
2202.88	0.0003569
2214.45	0.0003998
2226.02	0.0004426
2237.6	0.0004929
2249.17	0.0004817
2260.74	0.0004537
2272.32	0.0004872
2283.89	0.0004239
2295.47	0.000407
2307.04	0.0005484
2318.61	0.0006236
2330.19	0.0004984
2341.76	0.0005231
2353.34	0.0004763
2364.91	0.0004804
2376.48	0.000509
2388.06	0.0004954
2399.63	0.0004657
2411.21	0.0004772
2422.78	0.0004343
2434.35	0.0003911
2445.93	0.0004072
2457.5	0.0004347
2469.08	0.0004383
2480.65	0.0004191
2492.22	0.0004692
2503.8	0.0004724
2515.37	0.0004912
2526.95	0.0005818
2538.52	0.0005073
2550.09	0.0004572
2561.67	0.000523
2573.24	0.0006221
2584.82	0.0006187
2596.39	0.0004977
2607.96	0.000436
2619.54	0.0004936
2631.11	0.000522
2642.69	0.0004854
2654.26	0.000413
2665.83	0.0003679
2677.41	0.0003772
2688.98	0.0003192
2700.56	0.0003621
2712.13	0.0003409
2723.7	0.0003674
2735.28	0.0003805
2746.85	0.000393
2758.43	0.0003616
2770	0.0003681
2781.57	0.0003756
2793.15	0.0003847
2804.72	0.0004172
2816.3	0.0004454
2827.87	0.000414
2839.44	0.0004271
2851.02	0.0004385
2862.59	0.0004727
2874.17	0.0005101
2885.74	0.0004991
2897.31	0.0004712
2908.89	0.0005279
2920.46	0.0004904
2932.04	0.0005031
2943.61	0.000505
2955.18	0.0004926
2966.76	0.0005522
2978.33	0.0008023
2989.91	0.0011066
3001.48	0.001433
3013.05	0.001913
3024.63	0.002303
3036.2	0.002233
3047.78	0.003553
3059.35	0.008283
3070.92	0.015823
3082.5	0.012353
3094.07	0.006143
3105.65	0.002403
3117.22	0.0011346
3128.79	0.0007946
3140.37	0.0008368
3151.94	0.000782
3163.52	0.0006373
3175.09	0.0005107
3186.66	0.0004964
3198.24	0.0003799
3209.81	0.0004049
3221.39	0.0003935
3232.96	0.0004187
3244.53	0.0004342
3256.11	0.0004416
3267.68	0.000425
3279.26	0.0004049
3290.83	0.0003798
3302.4	0.0004663
3313.98	0.0004407
3325.55	0.000478
3337.13	0.0004291
3348.7	0.0004383
3360.27	0.0004272
3371.85	0.0004305
3383.42	0.0004452
3395	0.0004402
3406.57	0.0003918
3418.14	0.0004452
3429.72	0.0005031
3441.29	0.0003971
3452.86	0.0003916
3464.44	0.0005021
3476.01	0.0004564
3487.59	0.0004684
3499.16	0.0004104
3510.73	0.0004859
3522.31	0.0004199
3533.88	0.0004349
3545.46	0.0004176
3557.03	0.0004738
3568.6	0.0004833
3580.18	0.0004914
3591.75	0.0004646
3603.33	0.0004567
3614.9	0.0004592
3626.47	0.0004458
3638.05	0.0004815
3649.62	0.0004705
3661.2	0.000482
3672.77	0.0004286
3684.34	0.0005541
3695.92	0.0006075
3707.49	0.0005936
3719.07	0.0006263
3730.64	0.0005603
3742.21	0.0005119
3753.79	0.0004533
3765.36	0.000392
3776.94	0.0003823
3788.51	0.0004501
3800.08	0.0004454
3811.66	0.0004707
3823.23	0.0004099
3834.81	0.0004845
3846.38	0.0004243
3857.95	0.0004477
3869.53	0.0005335
3881.1	0.0005533
3892.68	0.0004401
3904.25	0.000416
3915.82	0.000413
3927.4	0.0004777
3938.97	0.0003674
3950.55	0.0004059
3962.12	0.0003966
3973.69	0.0005047
3985.27	0.0005213
3996.84	0.0006698
