Infrared Spectrum: 10-Aminononadecane
Formula: C 19 H 41 N
CAS: 3241-23-4
State: gas
Instrument: HP-GC/MS/IRD
Origin: NIST Mass Spectrometry Data Center
1/CM	ABSORBANCE
550	0.001092
562	0.000234
574	0.000126
586	0.000252
598	0.000192
610	7.2e-05
622	0.000204
634	0.000102
646	0.00024
658	0.000366
670	0.000276
682	0.000468
694	0.000702
706	0.001062
718	0.001572
730	0.0018
742	0.002028
754	0.002376
766	0.00291
778	0.003294
790	0.003126
802	0.002292
814	0.001584
826	0.001104
838	0.00078
850	0.000618
862	0.000528
874	0.00042
886	0.00042
898	0.000378
910	0.000306
922	0.000258
934	0.000132
946	0.00015
958	0.000162
970	9.6e-05
982	0.000168
994	0.000276
1006	0.000306
1018	0.00036
1030	0.000402
1042	0.000342
1054	0.000336
1066	0.000378
1078	0.000438
1090	0.000444
1102	0.000372
1114	0.00042
1126	0.000558
1138	0.000546
1150	0.000456
1162	0.00045
1174	0.000492
1186	0.00051
1198	0.00051
1210	0.000504
1222	0.00048
1234	0.000546
1246	0.000552
1258	0.000594
1270	0.000654
1282	0.000756
1294	0.000918
1306	0.001086
1318	0.001074
1330	0.001218
1342	0.001728
1354	0.002148
1366	0.002088
1378	0.001902
1390	0.001368
1402	0.000822
1414	0.000744
1426	0.000936
1438	0.001794
1450	0.003336
1462	0.004302
1474	0.00267
1486	0.00114
1498	0.000642
1510	0.000432
1522	0.000318
1534	0.000288
1546	0.000288
1558	0.000282
1570	0.000342
1582	0.000432
1594	0.000612
1606	0.001008
1618	0.001416
1630	0.00108
1642	0.000564
1654	0.000264
1666	0.000192
1678	0.000156
1690	0.000108
1702	0.000108
1714	7.8e-05
1726	0.000102
1738	7.8e-05
1750	7.2e-05
1762	6e-05
1774	7.8e-05
1786	3.6e-05
1798	4.8e-05
1810	5.4e-05
1822	4.8e-05
1834	3e-05
1846	5.4e-05
1858	6.6e-05
1870	5.4e-05
1882	3e-05
1894	4.8e-05
1906	3.6e-05
1918	2.4e-05
1930	2.4e-05
1942	6e-06
1954	2.4e-05
1966	0
1978	1.8e-05
1990	6e-06
2002	2.4e-05
2014	6e-05
2026	4.8e-05
2038	7.8e-05
2050	8.4e-05
2062	7.8e-05
2074	5.4e-05
2086	4.2e-05
2098	4.8e-05
2110	4.2e-05
2122	5.4e-05
2134	6e-05
2146	4.8e-05
2158	6.6e-05
2170	7.8e-05
2182	7.2e-05
2194	9e-05
2206	6.6e-05
2218	4.8e-05
2230	4.2e-05
2242	7.2e-05
2254	9e-05
2266	0.000114
2278	0.000102
2290	0.000108
2302	9e-05
2314	8.4e-05
2326	7.8e-05
2338	7.2e-05
2350	8.4e-05
2362	5.4e-05
2374	9e-05
2386	9e-05
2398	6.6e-05
2410	7.2e-05
2422	7.2e-05
2434	4.8e-05
2446	7.2e-05
2458	5.4e-05
2470	6.6e-05
2482	9e-05
2494	7.2e-05
2506	0.000102
2518	0.000132
2530	0.000162
2542	0.000192
2554	0.000174
2566	0.000216
2578	0.000264
2590	0.000282
2602	0.000378
2614	0.000336
2626	0.000396
2638	0.000468
2650	0.000528
2662	0.0006
2674	0.00063
2686	0.000672
2698	0.000624
2710	0.000618
2722	0.000648
2734	0.00069
2746	0.000822
2758	0.000852
2770	0.000906
2782	0.00111
2794	0.001458
2806	0.001914
2818	0.002724
2830	0.004098
2842	0.007092
2854	0.015726
2866	0.021876
2878	0.015756
2890	0.013968
2902	0.017994
2914	0.029034
2926	0.0522
2938	0.054276
2950	0.028284
2962	0.01944
2974	0.014202
2986	0.006342
2998	0.0036
3010	0.002376
3022	0.001686
3034	0.00129
3046	0.001008
3058	0.000816
3070	0.000702
3082	0.000636
3094	0.000492
3106	0.000408
3118	0.000426
3130	0.000372
3142	0.000288
3154	0.000294
3166	0.000216
3178	0.000228
3190	0.00021
3202	0.000162
3214	0.000144
3226	0.000132
3238	0.000102
3250	8.4e-05
3262	9.6e-05
3274	8.4e-05
3286	4.8e-05
3298	0.000114
3310	0.000132
3322	0.000138
3334	0.000216
3346	8.4e-05
3358	9.6e-05
3370	0.00012
3382	8.4e-05
3394	0.000108
3406	9e-05
3418	5.4e-05
3430	6.6e-05
3442	6e-05
3454	0.000114
3466	1.8e-05
3478	3.6e-05
3490	6.6e-05
3502	6e-06
3514	3.6e-05
3526	3.6e-05
3538	3.6e-05
3550	1.8e-05
3562	3e-05
3574	7.2e-05
3586	8.4e-05
3598	7.8e-05
3610	3.6e-05
3622	9.6e-05
3634	9e-05
3646	0.000126
3658	9e-05
3670	0.000162
3682	9.6e-05
3694	6.6e-05
3706	9.6e-05
3718	9e-05
3730	0.000108
3742	8.4e-05
3754	7.2e-05
3766	9.6e-05
3778	4.2e-05
3790	0.000162
3802	9e-05
3814	5.4e-05
3826	0.000108
3838	0.000102
