Infrared Spectrum: HYDANTOIN, 5,5-BIS[(BENZYLTHIO)METHYL]-
Formula: C19 H20 N2 O2 S2
CAS: 32418-95-4
State: SOLID (0.8 mg / 650 KBr DISC)
Class: COBLENTZ III
Instrument: PERKIN-ELMER 21 (GRATING)
Instrument parameters: FILTER CHANGE AT ABOUT 1030 CM^-^1.
Sampling: TRANSMISSION
Resolution: 2
Origin: SOUTHERN RESEARCH INSTITUTE
1/CM	TRANSMITTANCE
608.791	0.57
617.956	0.566
627.122	0.5591
636.287	0.5473
645.452	0.5336
654.618	0.5375
663.783	0.571
672.948	0.5398
682.113	0.522
691.279	0.4257
700.444	0.2715
709.609	0.3022
718.775	0.4956
727.94	0.5777
737.105	0.5682
746.271	0.546
755.436	0.5235
764.601	0.4071
773.767	0.5033
782.932	0.6738
792.097	0.733
801.262	0.741
810.428	0.7445
819.593	0.7697
828.758	0.7818
837.924	0.785
847.089	0.7749
856.254	0.768
865.42	0.766
874.585	0.771
883.75	0.7555
892.916	0.747
902.081	0.759
911.246	0.7776
920.412	0.76
929.577	0.796
938.742	0.7948
947.907	0.7937
957.073	0.788
966.238	0.7829
975.403	0.775
984.569	0.7641
993.734	0.7456
1002.9	0.6432
1012.06	0.6416
1021.23	0.7041
1030.4	0.7106
1039.56	0.764
1048.73	0.7582
1057.89	0.7202
1067.06	0.6769
1076.22	0.6791
1085.39	0.733
1094.55	0.7161
1103.72	0.6618
1112.88	0.6283
1122.05	0.5641
1131.21	0.5828
1140.38	0.694
1149.54	0.6564
1158.71	0.701
1167.87	0.7049
1177.04	0.707
1186.21	0.7011
1195.37	0.6739
1204.54	0.611
1213.7	0.5471
1222.87	0.663
1232.03	0.6638
1241.2	0.5464
1250.36	0.6398
1259.53	0.7015
1268.69	0.6886
1277.86	0.6655
1287.02	0.6364
1296.19	0.5749
1305.35	0.465
1314.52	0.4759
1323.69	0.5788
1332.85	0.6596
1342.02	0.667
1351.18	0.6531
1360.35	0.6106
1369.51	0.562
1378.68	0.591
1387.84	0.5351
1397.01	0.4461
1406.17	0.3657
1415.34	0.4672
1424.5	0.516
1433.67	0.5253
1442.83	0.6403
1452	0.6544
1461.16	0.5342
1470.33	0.769
1479.5	0.7672
1488.66	0.7436
1497.83	0.568
1506.99	0.72
1516.16	0.7529
1525.32	0.748
1534.49	0.745
1543.65	0.741
1552.82	0.7332
1561.98	0.7195
1571.15	0.7026
1580.31	0.6821
1589.48	0.6676
1598.64	0.6427
1607.81	0.6218
1616.97	0.6034
1626.14	0.577
1635.31	0.5533
1644.47	0.5345
1653.64	0.4893
1662.8	0.4409
1671.97	0.3697
1681.13	0.2579
1690.3	0.1286
1699.46	0.052
1708.63	0.038
1717.79	0.044
1726.96	0.1845
1736.12	0.3473
1745.29	0.453
1754.45	0.4274
1763.62	0.4379
1772.79	0.5378
1781.95	0.6686
1791.12	0.7565
1800.28	0.8078
1809.45	0.829
1818.61	0.8483
1827.78	0.8688
1836.94	0.8767
1846.11	0.8814
1855.27	0.8735
1864.44	0.871
1873.6	0.8709
1882.77	0.8661
1891.93	0.87
1901.1	0.875
1910.26	0.876
1919.43	0.876
1928.6	0.874
1937.76	0.871
1946.93	0.8595
1956.09	0.838
1965.26	0.8483
1974.42	0.857
1983.59	0.858
1992.75	0.858
2001.92	0.858
2011.08	0.857
2020.25	0.857
2029.41	0.857
2038.58	0.857
2047.74	0.857
2056.91	0.857
2066.08	0.857
2075.24	0.8561
2084.41	0.855
2093.57	0.854
2102.74	0.853
2111.9	0.851
2121.07	0.85
2130.23	0.849
2139.4	0.849
2148.56	0.849
2157.73	0.847
2166.89	0.847
2176.06	0.846
2185.22	0.846
2194.39	0.844
2203.55	0.842
2212.72	0.841
2221.89	0.84
2231.05	0.838
2240.22	0.837
2249.38	0.836
2258.55	0.833
2267.71	0.83
2276.88	0.828
2286.04	0.823
2295.21	0.8205
2304.37	0.821
2313.54	0.823
2322.7	0.8255
2331.87	0.826
2341.03	0.825
2350.2	0.824
2359.37	0.823
2368.53	0.8176
2377.7	0.8065
2386.86	0.803
2396.03	0.8
2405.19	0.8
2414.36	0.7985
2423.52	0.796
2432.69	0.795
2441.85	0.795
2451.02	0.795
2460.18	0.794
2469.35	0.7915
2478.51	0.7891
2487.68	0.787
2496.84	0.785
2506.01	0.7806
2515.18	0.7761
2524.34	0.775
2533.51	0.775
2542.67	0.774
2551.84	0.7685
2561	0.7645
2570.17	0.7631
2579.33	0.76
2588.5	0.7605
2597.66	0.76
2606.83	0.76
2615.99	0.757
2625.16	0.756
2634.32	0.7535
2643.49	0.75
2652.65	0.7475
2661.82	0.743
2670.99	0.7365
2680.15	0.7275
2689.32	0.7185
2698.48	0.712
2707.65	0.714
2716.81	0.715
2725.98	0.716
2735.14	0.718
2744.31	0.719
2753.47	0.719
2762.64	0.716
2771.8	0.714
2780.97	0.709
2790.13	0.7025
2799.3	0.6916
2808.47	0.684
2817.63	0.682
2826.8	0.682
2835.96	0.682
2845.13	0.68
2854.29	0.676
2863.46	0.6725
2872.62	0.6635
2881.79	0.6475
2890.95	0.6355
2900.12	0.626
2909.28	0.6295
2918.45	0.6388
2927.61	0.6475
2936.78	0.6425
2945.94	0.642
2955.11	0.643
2964.28	0.638
2973.44	0.6321
2982.61	0.6175
2991.77	0.6045
3000.94	0.5866
3010.1	0.5595
3019.27	0.551
3028.43	0.549
3037.6	0.5406
3046.76	0.5266
3055.93	0.5125
3065.09	0.5115
3074.26	0.517
3083.42	0.522
3092.59	0.52
3101.76	0.5056
3110.92	0.4852
3120.09	0.4621
3129.25	0.4401
3138.42	0.4216
3147.58	0.4091
3156.75	0.3916
3165.91	0.3641
3175.08	0.3406
3184.24	0.3175
3193.41	0.3055
3202.57	0.305
3211.74	0.2996
3220.9	0.289
3230.07	0.29
3239.23	0.296
3248.4	0.3084
3257.57	0.3359
3266.73	0.3649
3275.9	0.3958
3285.06	0.4218
3294.23	0.4538
3303.39	0.4735
3312.56	0.478
3321.72	0.478
3330.89	0.4721
3340.05	0.4605
3349.22	0.456
3358.38	0.4605
3367.55	0.4768
3376.71	0.5202
3385.88	0.5629
3395.04	0.5879
3404.21	0.6074
3413.38	0.6215
3422.54	0.6305
3431.71	0.635
3440.87	0.638
3450.04	0.6409
3459.2	0.6449
3468.37	0.648
3477.53	0.6515
3486.7	0.6565
3495.86	0.66
3505.03	0.6645
3514.19	0.668
3523.36	0.6725
3532.52	0.676
3541.69	0.6829
3550.86	0.6895
3560.02	0.6959
3569.19	0.7039
3578.35	0.7105
3587.52	0.716
3596.68	0.7209
3605.85	0.726
3615.01	0.7289
3624.18	0.732
3633.34	0.735
3642.51	0.739
3651.67	0.7405
3660.84	0.741
3670	0.741
3679.17	0.741
3688.33	0.7419
3697.5	0.743
3706.67	0.743
3715.83	0.744
3725	0.745
3734.16	0.745
3743.33	0.747
3752.49	0.748
3761.66	0.748
3770.82	0.7461
3779.99	0.743
3789.15	0.7381
3798.32	0.7325
3807.48	0.7305
3816.65	0.7275
3825.81	0.723
3834.98	0.723
3844.15	0.723
3853.31	0.723
3862.48	0.723
3871.64	0.724
3880.81	0.723
3889.97	0.723
3899.14	0.723
3908.3	0.7195
3917.47	0.7185
3926.63	0.714
3935.8	0.714
3944.96	0.714
3954.13	0.712
3963.29	0.712
3972.46	0.712
3981.62	0.712
3990.79	0.7095
3999.96	0.706
4009.12	0.7001
