Infrared Spectrum: P-ETHOXY PHENYL ISOCYANATE
Formula: C9 H9 N O2
CAS: 32459-62-4
State: LIQUID
Class: COBLENTZ
Instrument: Not specified, most likely a prism, grating, or hybrid spectrometer.
Sampling: TRANSMISSION
Resolution: 4
Origin: WYANDOTTE CHEMICALS CORP., WYANDOTTE, MICHIGAN, USA
MICROMETERS	TRANSMITTANCE
2.02	0.93
2.05981	0.928
2.09962	0.937
2.13943	0.958
2.17925	0.95
2.21906	0.923
2.25887	0.94
2.29868	0.953
2.33849	0.953
2.3783	0.932
2.41811	0.943
2.45793	0.963
2.49774	0.965
2.53755	0.951
2.57736	0.938
2.61717	0.885
2.65698	0.816
2.6968	0.832
2.73661	0.903
2.77642	0.915
2.81623	0.923
2.85604	0.932
2.89585	0.923
2.93566	0.859
2.97548	0.715
3.01529	0.865
3.0551	0.917
3.09491	0.91
3.13472	0.903
3.17453	0.897
3.21434	0.836
3.25416	0.655
3.29397	0.673
3.33378	0.354
3.37359	0.341
3.4134	0.293
3.45321	0.311
3.49303	0.43
3.53284	0.718
3.57265	0.816
3.61246	0.854
3.65227	0.864
3.69208	0.903
3.73189	0.935
3.77171	0.943
3.81152	0.953
3.85133	0.932
3.89114	0.897
3.93095	0.91
3.97076	0.862
4.01057	0.913
4.05039	0.877
4.0902	0.836
4.13001	0.809
4.16982	0.73
4.20963	0.586
4.24944	0.389
4.28926	0.271
4.32907	0.225
4.36888	0.17
4.40869	0.054
4.4485	0.031
4.48831	0.031
4.52812	0.029
4.56794	0.036
4.60775	0.099
4.64756	0.193
4.68737	0.276
4.72718	0.377
4.76699	0.72
4.8068	0.817
4.84662	0.794
4.88643	0.764
4.92624	0.796
4.96605	0.905
5.00586	0.955
5.04567	0.968
5.08549	0.95
5.1253	0.905
5.16511	0.907
5.20492	0.942
5.24473	0.973
5.28454	0.975
5.32435	0.918
5.36417	0.829
5.40398	0.857
5.44379	0.903
5.4836	0.938
5.52341	0.978
5.56322	0.986
5.60303	0.978
5.64285	0.882
5.68266	0.908
5.72247	0.92
5.76228	0.908
5.80209	0.867
5.8419	0.913
5.88172	0.951
5.92153	0.96
5.96134	0.925
6.00115	0.875
6.04096	0.819
6.08077	0.725
6.12058	0.716
6.1604	0.5
6.20021	0.516
6.24002	0.541
6.27983	0.195
6.31964	0.589
6.35945	0.528
6.39926	0.342
6.43908	0.21
6.47889	0.051
6.5187	0.036
6.55851	0.044
6.59832	0.1
6.63813	0.218
6.67795	0.311
6.71776	0.185
6.75757	0.135
6.79738	0.149
6.83719	0.092
6.877	0.11
6.91681	0.152
6.95663	0.336
6.99644	0.503
7.03625	0.549
7.07606	0.544
7.11587	0.377
7.15568	0.087
7.19549	0.253
7.23531	0.617
7.27512	0.721
7.31493	0.725
7.35474	0.817
7.39455	0.831
7.43436	0.824
7.47418	0.822
7.51399	0.781
7.5538	0.685
7.59361	0.543
7.63342	0.347
7.67323	0.153
7.71304	0.127
7.75286	0.049
7.79267	0.084
7.83248	0.238
7.87229	0.321
7.9121	0.25
7.95191	0.056
7.99172	0.036
8.03154	0.033
8.07135	0.034
8.11116	0.043
8.15097	0.081
8.19078	0.175
8.23059	0.332
8.2704	0.508
8.31022	0.6
8.35003	0.635
8.38984	0.629
8.42965	0.554
8.46946	0.382
8.50927	0.081
8.54909	0.099
8.5889	0.279
8.62871	0.4
8.66852	0.379
8.70833	0.384
8.74814	0.312
8.78795	0.288
8.82777	0.324
8.86758	0.322
8.90739	0.213
8.9472	0.054
8.98701	0.079
9.02682	0.104
9.06663	0.198
9.10645	0.336
9.14626	0.35
9.18607	0.37
9.22588	0.549
9.26569	0.609
9.3055	0.625
9.34532	0.587
9.38513	0.528
9.42494	0.349
9.46475	0.167
9.50456	0.061
9.54437	0.046
9.58418	0.056
9.624	0.11
9.66381	0.226
9.70362	0.37
9.74343	0.508
9.78324	0.619
9.82305	0.698
9.86286	0.67
9.90268	0.428
9.94249	0.708
9.9823	0.822
10.0221	0.875
10.0619	0.887
10.1017	0.905
10.1415	0.91
10.1814	0.915
10.2212	0.925
10.261	0.925
10.3008	0.918
10.3406	0.927
10.3804	0.913
10.4202	0.907
10.46	0.894
10.4998	0.872
10.5397	0.85
10.5795	0.821
10.6193	0.809
10.6591	0.812
10.6989	0.786
10.7387	0.723
10.7785	0.562
10.8183	0.319
10.8582	0.14
10.898	0.183
10.9378	0.427
10.9776	0.62
11.0174	0.706
11.0572	0.731
11.097	0.701
11.1368	0.68
11.1766	0.75
11.2165	0.802
11.2563	0.827
11.2961	0.837
11.3359	0.834
11.3757	0.842
11.4155	0.857
11.4553	0.867
11.4951	0.864
11.5349	0.859
11.5748	0.859
11.6146	0.844
11.6544	0.819
11.6942	0.786
11.734	0.738
11.7738	0.667
11.8136	0.569
11.8534	0.433
11.8933	0.266
11.9331	0.132
11.9729	0.077
12.0127	0.056
12.0525	0.059
12.0923	0.057
12.1321	0.052
12.1719	0.052
12.2117	0.059
12.2516	0.11
12.2914	0.193
12.3312	0.301
12.371	0.4
12.4108	0.427
12.4506	0.387
12.4904	0.342
12.5302	0.319
12.57	0.349
12.6099	0.475
12.6497	0.64
12.6895	0.745
12.7293	0.806
12.7691	0.854
12.8089	0.865
12.8487	0.875
12.8885	0.889
12.9284	0.887
12.9682	0.885
13.008	0.88
13.0478	0.865
13.0876	0.869
13.1274	0.857
13.1672	0.847
13.207	0.822
13.2468	0.807
13.2867	0.798
13.3265	0.796
13.3663	0.791
13.4061	0.789
13.4459	0.779
13.4857	0.769
13.5255	0.748
13.5653	0.733
13.6051	0.7
13.645	0.675
13.6848	0.632
13.7246	0.594
13.7644	0.551
13.8042	0.495
13.844	0.448
13.8838	0.413
13.9236	0.387
13.9634	0.364
14.0033	0.342
14.0431	0.346
14.0829	0.354
14.1227	0.375
14.1625	0.39
14.2023	0.402
14.2421	0.43
14.2819	0.471
14.3218	0.509
14.3616	0.544
14.4014	0.571
14.4412	0.591
14.481	0.614
14.5208	0.622
14.5606	0.637
14.6004	0.639
14.6402	0.652
14.6801	0.668
14.7199	0.68
14.7597	0.685
14.7995	0.688
14.8393	0.693
14.8791	0.695
14.9189	0.7
14.9587	0.698
14.9985	0.688
15.0384	0.673
15.0782	0.642
15.118	0.597
15.1578	0.591
15.1976	0.612
15.2374	0.644
15.2772	0.637
15.317	0.634
15.3569	0.637
15.3967	0.637
15.4365	0.612
15.4763	0.599
15.5161	0.577
15.5559	0.549
15.5957	0.526
15.6355	0.504
15.6753	0.493
15.7152	0.496
15.755	0.513
15.7948	0.534
15.8346	0.544
15.8744	0.549
15.9142	0.559
15.954	0.564
