Infrared Spectrum: N-Heptafluorobutyrylimidazole
Formula: C 7 H 3 F 7 N 2 O
CAS: 32477-35-3
State: gas
Origin: EPA-IR VAPOR PHASE LIBRARY
1/CM	ABSORBANCE
549.8	0.000114
559.445	0.000382
569.09	0.00065496
578.735	0.0010684
588.38	0.0015762
598.025	0.002097
607.67	0.002527
617.315	0.002267
626.96	0.003037
636.605	0.005477
646.251	0.003567
655.896	0.001987
665.541	0.0014642
675.186	0.0013422
684.831	0.0015661
694.476	0.001647
704.121	0.001817
713.766	0.004737
723.411	0.010857
733.056	0.008727
742.701	0.008817
752.346	0.009257
761.991	0.003587
771.636	0.0015085
781.281	0.0015495
790.926	0.002457
800.571	0.003737
810.216	0.004357
819.861	0.008087
829.507	0.009087
839.152	0.009547
848.797	0.012677
858.442	0.008177
868.087	0.006597
877.732	0.002667
887.377	0.002767
897.022	0.0011799
906.667	0.0007177
916.312	0.0007331
925.957	0.0009895
935.602	0.0012698
945.247	0.002447
954.892	0.004047
964.537	0.006047
974.182	0.006897
983.827	0.003857
993.472	0.002877
1003.12	0.006187
1012.76	0.016787
1022.41	0.012597
1032.05	0.003777
1041.7	0.002057
1051.34	0.002477
1060.99	0.004817
1070.63	0.005677
1080.28	0.004047
1089.92	0.007777
1099.57	0.010117
1109.21	0.008637
1118.86	0.013747
1128.5	0.019337
1138.15	0.013957
1147.79	0.009277
1157.44	0.008967
1167.08	0.010937
1176.73	0.014967
1186.37	0.018747
1196.02	0.019067
1205.66	0.022787
1215.31	0.037787
1224.95	0.059697
1234.6	0.068667
1244.24	0.053597
1253.89	0.030447
1263.53	0.021757
1273.18	0.015457
1282.82	0.014547
1292.47	0.020387
1302.11	0.029327
1311.76	0.022277
1321.4	0.010387
1331.05	0.006997
1340.69	0.008417
1350.34	0.007087
1359.98	0.004177
1369.63	0.005717
1379.27	0.013107
1388.92	0.020257
1398.56	0.012587
1408.21	0.004767
1417.85	0.002617
1427.5	0.002257
1437.14	0.002507
1446.79	0.003277
1456.43	0.004077
1466.08	0.006487
1475.73	0.009847
1485.37	0.011037
1495.02	0.007367
1504.66	0.003827
1514.31	0.002147
1523.95	0.001917
1533.6	0.002417
1543.24	0.002907
1552.89	0.001737
1562.53	0.001787
1572.18	0.0014609
1581.82	0.0013726
1591.47	0.001647
1601.11	0.001677
1610.76	0.0014992
1620.4	0.001697
1630.05	0.001857
1639.69	0.0015405
1649.34	0.001188
1658.98	0.0013075
1668.63	0.0013959
1678.27	0.0012607
1687.92	0.0014694
1697.56	0.001817
1707.21	0.001777
1716.85	0.002207
1726.5	0.002787
1736.14	0.004117
1745.79	0.009227
1755.43	0.026067
1765.08	0.035587
1774.72	0.012487
1784.37	0.003947
1794.01	0.002267
1803.66	0.001737
1813.3	0.0014072
1822.95	0.0011498
1832.59	0.0010782
1842.24	0.0010573
1851.88	0.0009465
1861.53	0.0008671
1871.17	0.0008389
1880.82	0.0008337
1890.46	0.0008748
1900.11	0.0007816
1909.75	0.000817
1919.4	0.0008128
1929.04	0.0008453
1938.69	0.000755
1948.33	0.000749
1957.98	0.0007278
1967.62	0.0007851
1977.27	0.0008328
1986.91	0.0007767
1996.56	0.0007236
2006.2	0.000628
2015.85	0.00065338
2025.49	0.00063881
2035.14	0.00065079
2044.78	0.000603253
2054.43	0.000507
2064.07	0.0005726
2073.72	0.00064955
2083.36	0.00061168
2093.01	0.00062104
2102.65	0.00062391
2112.3	0.0005853
2121.94	0.00065757
2131.59	0.0006706
2141.23	0.00067741
2150.88	0.00063413
2160.52	0.00068776
2170.17	0.000600632
2179.81	0.0005395
2189.46	0.0005781
2199.1	0.000600699
2208.75	0.000603533
2218.39	0.00058992
2228.04	0.000601595
2237.68	0.0006115
2247.33	0.0005624
2256.97	0.00065791
2266.62	0.00059526
2276.26	0.0005584
2285.91	0.00062291
2295.55	0.0005846
2305.2	0.00068937
2314.84	0.00065424
2324.49	0.00062305
2334.13	0.0007119
2343.78	0.0007283
2353.42	0.00069239
2363.07	0.0007363
2372.72	0.0007765
2382.36	0.0007419
2392.01	0.00068746
2401.65	0.0007128
2411.3	0.0007199
2420.94	0.0007018
2430.59	0.00062236
2440.23	0.00062311
2449.88	0.00066241
2459.52	0.00064038
2469.17	0.00065061
2478.81	0.00064453
2488.46	0.00066853
2498.1	0.0006304
2507.75	0.00065321
2517.39	0.00059233
2527.04	0.0005606
2536.68	0.0006105
2546.33	0.0005414
2555.97	0.0005427
2565.62	0.0005817
2575.26	0.0005083
2584.91	0.000404
2594.55	0.000483
2604.2	0.000394
2613.84	0.000352
2623.49	0.000341
2633.13	0.000389
2642.78	0.000318
2652.42	0.000345
2662.07	0.000311
2671.71	0.000382
2681.36	0.000313
2691	0.00033
2700.65	0.000355
2710.29	0.000304
2719.94	0.000402
2729.58	0.00029
2739.23	0.000322
2748.87	0.000327
2758.52	0.000267
2768.16	0.000278
2777.81	0.000217
2787.45	0.000294
2797.1	0.000286
2806.74	0.000324
2816.39	0.000195
2826.03	0.000206
2835.68	0.000355
2845.32	0.000201
2854.97	0.000303
2864.61	0.000136
2874.26	0.000168
2883.9	0.00012
2893.55	0.000219
2903.19	0.000115
2912.84	0.000211
2922.48	0.000326
2932.13	0.000169
2941.77	0.000281
2951.42	0.000314
2961.06	0.00024
2970.71	0.000105
2980.35	0.000164
2990	0.0002
2999.64	7.7e-05
3009.29	0.000136
3018.93	0.000124
3028.58	0.00022
3038.22	0.00023
3047.87	0.000196
3057.51	0.000251
3067.16	0.000205
3076.8	0.000235
3086.45	0.0002
3096.09	0.000117
3105.74	8.2e-05
3115.38	0.000169
3125.03	0.000454
3134.67	0.0007585
3144.32	0.000954
3153.96	0.00063051
3163.61	0.0007317
3173.25	0.0010998
3182.9	0.0007054
3192.54	0.0007125
3202.19	0.0005654
3211.83	0.000309
3221.48	0.000269
3231.12	0.000278
3240.77	0.000264
3250.41	0.000166
3260.06	0.000234
3269.7	0.000208
3279.35	0.000201
3289	0.000462
3298.64	0.000318
3308.29	0.000263
3317.93	0.000208
3327.58	0.000329
3337.22	0.000345
3346.87	0.000267
3356.51	0.000217
3366.16	0.00021
3375.8	0.000491
3385.45	0.000479
3395.09	0.000388
3404.74	0.000329
3414.38	0.000447
3424.03	0.000319
3433.67	0.000457
3443.32	0.000273
3452.96	0.000392
3462.61	0.000289
3472.25	0.000394
3481.9	0.0005726
3491.54	0.00061598
3501.19	0.0007649
3510.83	0.00066145
3520.48	0.000601071
3530.12	0.000458
3539.77	0.000358
3549.41	0.000391
3559.06	0.0005036
3568.7	0.000286
3578.35	0.000276
3587.99	0.000359
3597.64	0.000386
3607.28	0.000456
3616.93	0.000345
3626.57	0.0005087
3636.22	0.000405
3645.86	0.00043
3655.51	0.00059737
3665.15	0.000395
3674.8	0.00058867
3684.44	0.000279
3694.09	0.000414
3703.73	0.0004972
3713.38	0.000385
3723.02	0.0005447
3732.67	0.000487
3742.31	0.0005166
3751.96	0.000342
3761.6	0.000372
3771.25	0.000386
3780.89	0.000319
3790.54	0.000307
3800.18	0.00046
3809.83	0.000416
3819.47	0.000455
3829.12	0.000374
3838.76	0.000354
3848.41	0.000246
3858.05	0.000364
3867.7	0.0004971
3877.34	0.000478
3886.99	0.0005677
3896.63	0.00042
3906.28	0.000203
3915.92	0.000213
3925.57	0.000321
3935.21	0.000421
3944.86	0.0005065
3954.5	0.000368
3964.15	0.000466
3973.79	0.000294
3983.44	0.000304
3993.08	0.000306
