Infrared Spectrum: 4,7-Dimethyl-1,10-phenanthroline
Formula: C 14 H 12 N 2
CAS: 3248-05-3
State: gas
Instrument: HP-GC/MS/IRD
Origin: NIST Mass Spectrometry Data Center
1/CM	ABSORBANCE
550	0.000714
562	0.000387
574	0.0004815
586	0.000348
598	0.000522
610	0.000471
622	0.0004995
634	0.0005655
646	0.000522
658	0.000693
670	0.0007935
682	0.000822
694	0.000828
706	0.001032
718	0.0033075
730	0.0043635
742	0.0012465
754	0.0009135
766	0.000915
778	0.000915
790	0.001008
802	0.0012645
814	0.002205
826	0.00813
838	0.014298
850	0.004743
862	0.0021195
874	0.002679
886	0.0043155
898	0.0022455
910	0.001545
922	0.0015195
934	0.001374
946	0.0012345
958	0.0012525
970	0.001257
982	0.001332
994	0.001374
1006	0.0014805
1018	0.001422
1030	0.0014325
1042	0.001404
1054	0.001176
1066	0.0011595
1078	0.0010965
1090	0.00168
1102	0.001086
1114	0.0006705
1126	0.000522
1138	0.0004155
1150	0.000333
1162	0.00063
1174	0.0006435
1186	0.0001545
1198	6e-06
1210	0.000147
1222	0.0007935
1234	0.0008025
1246	0.000246
1258	0.0002685
1270	0.000261
1282	0.000402
1294	0.0005145
1306	0.000534
1318	0.0006225
1330	0.0007035
1342	0.000795
1354	0.000918
1366	0.0010785
1378	0.001755
1390	0.002964
1402	0.0035025
1414	0.0079875
1426	0.0065445
1438	0.003375
1450	0.003798
1462	0.0035985
1474	0.0028875
1486	0.003183
1498	0.007197
1510	0.009459
1522	0.004698
1534	0.0033885
1546	0.005073
1558	0.00999
1570	0.0088395
1582	0.0063765
1594	0.003672
1606	0.0033915
1618	0.0034155
1630	0.0017985
1642	0.0014805
1654	0.0014595
1666	0.0014175
1678	0.0015255
1690	0.000699
1702	0.000522
1714	0.000453
1726	0.0004185
1738	0.000528
1750	0.0009465
1762	0.0007785
1774	0.0005685
1786	0.000696
1798	0.000501
1810	0.000387
1822	0.000357
1834	0.0003795
1846	0.000348
1858	0.0003405
1870	0.000423
1882	0.000444
1894	0.0007215
1906	0.0013995
1918	0.001299
1930	0.00045
1942	0.000273
1954	0.0002355
1966	0.000231
1978	0.00021
1990	0.0001905
2002	0.000162
2014	0.0001695
2026	0.0001665
2038	0.0001425
2050	0.000144
2062	0.000141
2074	0.000153
2086	0.000111
2098	8.55e-05
2110	7.5e-05
2122	9.3e-05
2134	0.0001005
2146	0.000105
2158	0.000114
2170	0.000105
2182	9.6e-05
2194	8.7e-05
2206	9e-05
2218	7.35e-05
2230	7.2e-05
2242	7.95e-05
2254	4.05e-05
2266	1.65e-05
2278	4.8e-05
2290	4.2e-05
2302	4.65e-05
2314	5.25e-05
2326	6.45e-05
2338	7.05e-05
2350	8.1e-05
2362	0.000105
2374	4.8e-05
2386	2.7e-05
2398	2.85e-05
2410	7.8e-05
2422	6.75e-05
2434	0.0001035
2446	8.4e-05
2458	9.6e-05
2470	0.000108
2482	0.0001395
2494	0.00012
2506	0.0001005
2518	0.000117
2530	0.0001425
2542	0.0001305
2554	0.000126
2566	0.0001035
2578	0.000138
2590	9.45e-05
2602	6.6e-05
2614	0.0001125
2626	0.000105
2638	0.0001095
2650	0.0001185
2662	0.000135
2674	0.0001815
2686	0.0001545
2698	0.00015
2710	0.000156
2722	0.0002025
2734	0.0003195
2746	0.0003915
2758	0.0002775
2770	0.0002205
2782	0.0002625
2794	0.000366
2806	0.0003735
2818	0.0004125
2830	0.000549
2842	0.000693
2854	0.0009795
2866	0.0017175
2878	0.002265
2890	0.0018675
2902	0.001929
2914	0.0023925
2926	0.0039045
2938	0.0054765
2950	0.0041085
2962	0.004044
2974	0.004044
2986	0.0051585
2998	0.00402
3010	0.003921
3022	0.006315
3034	0.008913
3046	0.009699
3058	0.0060735
3070	0.0045885
3082	0.004038
3094	0.0022995
3106	0.0013905
3118	0.001128
3130	0.000885
3142	0.000555
3154	0.000435
3166	0.0003495
3178	0.00036
3190	0.0002775
3202	0.000258
3214	0.00021
3226	0.00024
3238	0.00015
3250	0.0001575
3262	0.00018
3274	0.0001695
3286	0.000147
3298	0.000132
3310	0.0001695
3322	0.000108
3334	0.0001275
3346	0.000144
3358	0.0001155
3370	0.000132
3382	0.00012
3394	0.0001305
3406	0.000132
3418	0.00012
3430	0.0001335
3442	8.25e-05
3454	0.0001155
3466	0.000117
3478	0.0001365
3490	0.0001725
3502	5.85e-05
3514	7.95e-05
3526	7.65e-05
3538	6e-06
3550	5.55e-05
3562	0.00012
3574	6.9e-05
3586	7.35e-05
3598	9.45e-05
3610	0.0001005
3622	0.0001125
3634	0.0001275
3646	0.0001425
3658	0.0001065
3670	0.0001515
3682	0.000183
3694	0.000144
3706	0.0001725
3718	0.000168
3730	0.0002475
3742	0.0002445
3754	0.000246
3766	0.000288
3778	0.0002385
3790	0.0002325
3802	0.0002685
3814	0.000237
3826	0.000234
3838	0.0002565
