Infrared Spectrum: 2-Methoxy-4-nitrophenol
Formula: C 7 H 7 N O 4
CAS: 3251-56-7
State: gas
Origin: EPA-IR VAPOR PHASE LIBRARY
1/CM	ABSORBANCE
551.7	0.0029597
563.274	0.0052897
574.848	0.0063597
586.421	0.0025197
597.995	0.0015597
609.569	0.0017597
621.143	0.0025097
632.717	0.0078297
644.291	0.0096797
655.864	0.0021197
667.438	0.0010322
679.012	0.0011097
690.586	0.0014797
702.16	0.0023297
713.734	0.0041197
725.307	0.0069597
736.881	0.0137897
748.455	0.0150197
760.029	0.0103497
771.603	0.0174297
783.177	0.0364097
794.75	0.0276797
806.324	0.0132397
817.898	0.0126497
829.472	0.0118397
841.046	0.0059597
852.619	0.0059597
864.193	0.0127097
875.767	0.0162397
887.341	0.0096597
898.915	0.0055197
910.489	0.0046397
922.062	0.0048397
933.636	0.0037597
945.21	0.0030197
956.784	0.0027397
968.358	0.0031697
979.932	0.0041997
991.505	0.0054097
1003.08	0.0081997
1014.65	0.0166097
1026.23	0.0284797
1037.8	0.0267297
1049.37	0.0120197
1060.95	0.0067997
1072.52	0.0110197
1084.1	0.0256197
1095.67	0.0285697
1107.24	0.0193597
1118.82	0.0179197
1130.39	0.0100697
1141.97	0.0082297
1153.54	0.0136697
1165.11	0.0229497
1176.69	0.0276997
1188.26	0.0294897
1199.83	0.0454197
1211.41	0.0518797
1222.98	0.0552597
1234.56	0.0757097
1246.13	0.0631997
1257.7	0.0896497
1269.28	0.0908697
1280.85	0.0640797
1292.42	0.0628497
1304	0.0280897
1315.57	0.0201097
1327.15	0.0319997
1338.72	0.10061
1350.29	0.1638
1361.87	0.0747297
1373.44	0.0501197
1385.02	0.0349797
1396.59	0.0158897
1408.16	0.0093897
1419.74	0.0128797
1431.31	0.0269897
1442.88	0.0306997
1454.46	0.0228897
1466.03	0.0267597
1477.61	0.0289897
1489.18	0.0523397
1500.75	0.12252
1512.33	0.10498
1523.9	0.0605997
1535.48	0.11804
1547.05	0.13645
1558.62	0.0534497
1570.2	0.0269597
1581.77	0.0355097
1593.34	0.0456697
1604.92	0.0275097
1616.49	0.0116997
1628.07	0.0072797
1639.64	0.0049397
1651.21	0.0039497
1662.79	0.0033597
1674.36	0.0028497
1685.93	0.0028597
1697.51	0.0029497
1709.08	0.0024697
1720.66	0.0019697
1732.23	0.0019997
1743.8	0.0019997
1755.38	0.0018897
1766.95	0.0019697
1778.53	0.0014997
1790.1	0.0010697
1801.67	0.0010597
1813.25	0.0009217
1824.82	0.0007615
1836.39	0.000786
1847.97	0.0008852
1859.54	0.0011297
1871.12	0.0018997
1882.69	0.0022797
1894.26	0.0017297
1905.84	0.0010797
1917.41	0.0009029
1928.99	0.0008695
1940.56	0.0008194
1952.13	0.000795
1963.71	0.0006812
1975.28	0.0006866
1986.85	0.0008832
1998.43	0.0011597
2010	0.0014197
2021.58	0.0014797
2033.15	0.0014497
2044.72	0.0016497
2056.3	0.0016697
2067.87	0.0015897
2079.44	0.0013997
2091.02	0.000935
2102.59	0.0007544
2114.17	0.0006621
2125.74	0.0006493
2137.31	0.0007658
2148.89	0.0008974
2160.46	0.000882
2172.04	0.0006901
2183.61	0.0005867
2195.18	0.0005313
2206.76	0.0004995
2218.33	0.0004445
2229.9	0.0005634
2241.48	0.0005746
2253.05	0.0006787
2264.63	0.0008882
2276.2	0.0009508
2287.77	0.0010497
2299.35	0.0009018
2310.92	0.000773
2322.5	0.0007347
2334.07	0.000693
2345.64	0.0007228
2357.22	0.0007207
2368.79	0.0007439
2380.36	0.0008632
2391.94	0.0009449
2403.51	0.0011197
2415.09	0.0011197
2426.66	0.0011297
2438.23	0.0013497
2449.81	0.0011797
2461.38	0.0011597
2472.96	0.0012297
2484.53	0.0012397
2496.1	0.0014897
2507.68	0.0017097
2519.25	0.0019597
2530.82	0.0017797
2542.4	0.0015297
2553.97	0.0012897
2565.55	0.0010397
2577.12	0.0009521
2588.69	0.000956
2600.27	0.000917
2611.84	0.0010497
2623.41	0.0009623
2634.99	0.0010024
2646.56	0.0011697
2658.14	0.0014297
2669.71	0.0014797
2681.28	0.0013197
2692.86	0.0010797
2704.43	0.0008918
2716.01	0.0009322
2727.58	0.0009942
2739.15	0.0010597
2750.73	0.0010131
2762.3	0.0010997
2773.87	0.0012397
2785.45	0.0013597
2797.02	0.0016897
2808.6	0.0020397
2820.17	0.0025997
2831.74	0.0033597
2843.32	0.0053397
2854.89	0.0077397
2866.47	0.0069997
2878.04	0.0056597
2889.61	0.0052197
2901.19	0.0047497
2912.76	0.0054197
2924.33	0.0066397
2935.91	0.0080697
2947.48	0.0121097
2959.06	0.0134697
2970.63	0.0119297
2982.2	0.0087997
2993.78	0.0058997
3005.35	0.0068997
3016.92	0.0102497
3028.5	0.0063597
3040.07	0.0028897
3051.65	0.0021197
3063.22	0.0019197
3074.79	0.0024297
3086.37	0.0036697
3097.94	0.0037997
3109.52	0.0025297
3121.09	0.0015997
3132.66	0.0009529
3144.24	0.0007415
3155.81	0.0006803
3167.38	0.0006222
3178.96	0.0005356
3190.53	0.0004831
3202.11	0.0005348
3213.68	0.0006492
3225.25	0.0005516
3236.83	0.0005998
3248.4	0.00066
3259.98	0.0004303
3271.55	0.0004146
3283.12	0.0002881
3294.7	0.0003867
3306.27	0.0003276
3317.84	0.0003778
3329.42	0.0003532
3340.99	0.000294
3352.57	0.0003094
3364.14	0.0002437
3375.71	0.0001406
3387.29	0.0002377
3398.86	0.0002722
3410.43	0.0001632
3422.01	0.0001731
3433.58	0.0001902
3445.16	0.00032
3456.73	0.000256
3468.3	0.0004274
3479.88	0.0003673
3491.45	0.0005061
3503.03	0.0005412
3514.6	0.0007842
3526.17	0.0012697
3537.75	0.0023297
3549.32	0.0063397
3560.89	0.0247497
3572.47	0.0639597
3584.04	0.0511197
3595.62	0.0124397
3607.19	0.0034297
3618.76	0.0015697
3630.34	0.0014097
3641.91	0.0024097
3653.49	0.0016297
3665.06	0.000401
3676.63	0.000444
3688.21	0.0002969
3699.78	0.0002711
3711.35	0.0003512
3722.93	0.0002519
3734.5	0.00011618
3746.08	0.0001637
3757.65	0.0002694
3769.22	8.788e-05
3780.8	8.437e-05
3792.37	0.00012028
3803.94	0.0002132
3815.52	0.0002619
3827.09	0.0002627
3838.67	0.0003644
3850.24	0.0003833
3861.81	0.0003967
3873.39	0.0002906
3884.96	0.000297
3896.54	0.0003679
3908.11	0.000427
3919.68	0.0003237
3931.26	0.0002436
3942.83	0.0002412
3954.4	0.0002137
3965.98	0.0002368
3977.55	0.0003858
3989.13	0.0003428
4000.7	0.0003089
