Infrared Spectrum: BUTANOL,1,1-DIPHENYL-4-(1-PIPERIDYL)-, HYDROCHLORIDE
Formula: C21 H28 Cl N O
CAS: 3254-89-5
State: SOLID (OIL MULL)
Class: COBLENTZ III
Instrument: PERKIN-ELMER 21 (GRATING)
Instrument parameters: NaCl PRISM
Sampling: TRANSMISSION
Resolution: 2
Origin: SMITH KLINE & FRENCH LABS.
1/CM	TRANSMITTANCE
658	0.629
667	0.6624
676	0.709
685	0.6812
694	0.253
703	0.1911
712	0.6486
721	0.6843
730	0.7185
739	0.6492
748	0.3602
757	0.4908
766	0.6901
775	0.5789
784	0.806
793	0.8537
802	0.8496
811	0.8605
820	0.8582
829	0.8478
838	0.7299
847	0.8144
856	0.7245
865	0.8123
874	0.7156
883	0.7637
892	0.5428
901	0.7124
910	0.7104
919	0.7451
928	0.7284
937	0.7435
946	0.6757
955	0.5396
964	0.623
973	0.4918
982	0.7006
991	0.7344
1000	0.6791
1009	0.7202
1018	0.491
1027	0.4
1036	0.6643
1045	0.6537
1054	0.3568
1063	0.4591
1072	0.6705
1081	0.6353
1090	0.7114
1099	0.7179
1108	0.6396
1117	0.5445
1126	0.5966
1135	0.6686
1144	0.5288
1153	0.5243
1162	0.3592
1171	0.4645
1180	0.5336
1189	0.5989
1198	0.5257
1207	0.7091
1216	0.6962
1225	0.6824
1234	0.7171
1243	0.7084
1252	0.679
1261	0.5798
1270	0.5844
1279	0.6422
1288	0.6196
1297	0.6185
1306	0.5838
1315	0.5199
1324	0.4073
1333	0.3574
1342	0.4541
1351	0.3749
1360	0.2676
1369	0.1491
1378	0.2527
1387	0.4761
1396	0.5949
1405	0.5769
1414	0.5385
1423	0.4125
1432	0.1183
1441	0.0412
1450	0.0538
1459	0.0459
1468	0.2904
1477	0.5056
1486	0.4631
1495	0.7074
1504	0.7733
1513	0.7883
1522	0.7979
1531	0.8024
1540	0.8036
1549	0.8156
1558	0.8217
1567	0.8205
1576	0.8065
1585	0.7725
1594	0.7251
1603	0.8013
1612	0.8223
1621	0.8235
1630	0.8242
1639	0.8263
1648	0.8242
1657	0.8196
1666	0.8232
1675	0.8237
1684	0.824
1693	0.8263
1702	0.8291
1711	0.8322
1720	0.838
1729	0.8309
1738	0.8212
1747	0.8168
1756	0.8171
1765	0.8207
1774	0.8252
1783	0.8237
1792	0.8142
1801	0.804
1810	0.8034
1819	0.8083
1828	0.8215
1837	0.829
1846	0.8236
1855	0.8107
1864	0.7987
1873	0.7946
1882	0.7977
1891	0.8029
1900	0.8087
1909	0.8127
1918	0.8056
1927	0.7937
1936	0.7727
1945	0.777
1954	0.7918
1963	0.8062
1972	0.816
1981	0.8178
1990	0.8164
1999	0.8144
2008	0.8122
2017	0.81
2026	0.8079
2035	0.8059
2044	0.804
2053	0.8026
2062	0.8017
2071	0.8015
2080	0.8039
2089	0.8075
2098	0.8045
2107	0.7932
2116	0.7868
2125	0.7835
2134	0.7819
2143	0.7804
2152	0.7782
2161	0.7748
2170	0.7713
2179	0.768
2188	0.7643
2197	0.7604
2206	0.7565
2215	0.7549
2224	0.7546
2233	0.7512
2242	0.7446
2251	0.7368
2260	0.7338
2269	0.7333
2278	0.7328
2287	0.7321
2296	0.7292
2305	0.7247
2314	0.7159
2323	0.7037
2332	0.6927
2341	0.6885
2350	0.6872
2359	0.6679
2368	0.6491
2377	0.6403
2386	0.6432
2395	0.6476
2404	0.6405
2413	0.6196
2422	0.5991
2431	0.5738
2440	0.5461
2449	0.5171
2458	0.4773
2467	0.4403
2476	0.4083
2485	0.372
2494	0.3393
2503	0.2838
2512	0.2437
2521	0.2429
2530	0.2758
2539	0.3172
2548	0.3583
2557	0.3895
2566	0.3562
2575	0.2905
2584	0.2254
2593	0.2008
2602	0.1969
2611	0.22
2620	0.2508
2629	0.2814
2638	0.3118
2647	0.342
2656	0.372
2665	0.4048
2674	0.4277
2683	0.4493
2692	0.4673
2701	0.4844
2710	0.5089
2719	0.5228
2728	0.5242
2737	0.5212
2746	0.5056
2755	0.4851
2764	0.4556
2773	0.3608
2782	0.2506
2791	0.1412
2800	0.0318
2809	0.0234
2818	0.0234
2827	0.0229
2836	0.0213
2845	0.0176
2854	0.017
2863	0.0174
2872	0.0185
2881	0.0208
2890	0.024
2899	0.0277
2908	0.0341
2917	0.1106
2926	0.1667
2935	0.2202
2944	0.2733
2953	0.3569
2962	0.4134
2971	0.4594
2980	0.4732
2989	0.4873
2998	0.5067
3007	0.5284
3016	0.5478
3025	0.5704
3034	0.5995
3043	0.6259
3052	0.6436
3061	0.6519
3070	0.6524
3079	0.6489
3088	0.6418
3097	0.6346
3106	0.6273
3115	0.6202
3124	0.6127
3133	0.604
3142	0.593
3151	0.5823
3160	0.5715
3169	0.5597
3178	0.5472
3187	0.5309
3196	0.5156
3205	0.497
3214	0.4855
3223	0.4122
3232	0.3028
3241	0.2849
3250	0.2722
3259	0.2635
3268	0.2601
3277	0.2625
3286	0.3044
3295	0.3277
3304	0.3471
3313	0.3815
3322	0.4157
3331	0.4498
3340	0.5461
3349	0.5706
3358	0.5952
3367	0.6194
3376	0.6512
3385	0.669
3394	0.6792
3403	0.6914
3412	0.7028
3421	0.7092
3430	0.7145
3439	0.7188
3448	0.7214
3457	0.7236
3466	0.7248
3475	0.7256
3484	0.7256
3493	0.7255
3502	0.7251
3511	0.7247
3520	0.7241
3529	0.7236
3538	0.7231
3547	0.7227
3556	0.7222
3565	0.7213
3574	0.7204
3583	0.7196
3592	0.7188
3601	0.7181
3610	0.7174
3619	0.7164
3628	0.7152
3637	0.714
3646	0.7128
3655	0.7117
3664	0.7109
3673	0.7102
3682	0.7094
3691	0.7088
3700	0.7081
3709	0.7069
3718	0.7054
3727	0.704
3736	0.7024
3745	0.7005
3754	0.6985
3763	0.6968
3772	0.6955
3781	0.6941
3790	0.6928
3799	0.6914
3808	0.6896
3817	0.6877
3826	0.6859
3835	0.6841
3844	0.6825
3853	0.6812
3862	0.6809
3871	0.6806
3880	0.6805
3889	0.6787
3898	0.6749
3907	0.6707
3916	0.6663
3925	0.6622
3934	0.6581
3943	0.6541
3952	0.6505
3961	0.647
3970	0.6436
3979	0.6402
3988	0.6372
3997	0.6347
