Infrared Spectrum: METHANE, 2,2',4,4'-TETRAMETHYLDIPHENYL-
Formula: C17 H20
CAS: 32588-46-8
State: LIQUID
Boiling point: 189 C AT 20 mmHg
Class: COBLENTZ
Instrument: Not specified, most likely a prism, grating, or hybrid spectrometer.
Sampling: TRANSMISSION
Path length: 0.003 CM
Resolution: 4
Origin: TENNESSEE EASTMAN COMPANY, RESEARCH LABORATORIES
MICROMETERS	TRANSMITTANCE
2.048	0.953
2.08906	0.953
2.13011	0.933
2.17117	0.924
2.21222	0.923
2.25328	0.844
2.29433	0.807
2.33539	0.841
2.37644	0.88
2.4175	0.892
2.45855	0.899
2.49961	0.909
2.54067	0.889
2.58172	0.889
2.62278	0.902
2.66383	0.912
2.70489	0.933
2.74594	0.935
2.787	0.933
2.82805	0.935
2.86911	0.936
2.91017	0.935
2.95122	0.928
2.99228	0.93
3.03333	0.926
3.07439	0.919
3.11544	0.911
3.1565	0.889
3.19755	0.812
3.23861	0.587
3.27966	0.204
3.32072	0.054
3.36178	0.042
3.40283	0.032
3.44389	0.063
3.48494	0.177
3.526	0.609
3.56705	0.776
3.60811	0.824
3.64916	0.667
3.69022	0.86
3.73128	0.904
3.77233	0.924
3.81339	0.931
3.85444	0.938
3.8955	0.938
3.93655	0.94
3.97761	0.941
4.01866	0.941
4.05972	0.93
4.10077	0.923
4.14183	0.928
4.18289	0.918
4.22394	0.941
4.265	0.948
4.30605	0.943
4.34711	0.941
4.38816	0.957
4.42922	0.96
4.47027	0.97
4.51133	0.972
4.55239	0.977
4.59344	0.977
4.6345	0.979
4.67555	0.979
4.71661	0.97
4.75766	0.967
4.79872	0.974
4.83977	0.974
4.88083	0.979
4.92188	0.981
4.96294	0.981
5.004	0.981
5.04505	0.977
5.08611	0.972
5.12716	0.953
5.16822	0.909
5.20927	0.813
5.25033	0.781
5.29138	0.805
5.33244	0.873
5.3735	0.911
5.41455	0.897
5.45561	0.88
5.49666	0.89
5.53772	0.914
5.57877	0.907
5.61983	0.851
5.66088	0.807
5.70194	0.761
5.74299	0.767
5.78405	0.846
5.82511	0.848
5.86616	0.848
5.90722	0.841
5.94827	0.822
5.98933	0.822
6.03038	0.812
6.07144	0.796
6.11249	0.808
6.15355	0.518
6.19461	0.32
6.23566	0.619
6.27672	0.629
6.31777	0.53
6.35883	0.559
6.39988	0.569
6.44094	0.517
6.48199	0.476
6.52305	0.409
6.5641	0.204
6.60516	0.04
6.64622	0.029
6.68727	0.136
6.72833	0.172
6.76938	0.093
6.81044	0.051
6.85149	0.035
6.89255	0.03
6.9336	0.047
6.97466	0.146
7.01571	0.269
7.05677	0.404
7.09783	0.465
7.13888	0.525
7.17994	0.515
7.22099	0.264
7.26205	0.204
7.3031	0.552
7.34416	0.682
7.38521	0.72
7.42627	0.744
7.46733	0.759
7.50838	0.759
7.54944	0.701
7.59049	0.752
7.63155	0.774
7.6726	0.784
7.71366	0.807
7.75471	0.686
7.79577	0.725
7.83682	0.764
7.87788	0.738
7.91894	0.8
7.95999	0.793
8.00105	0.761
8.0421	0.749
8.08316	0.747
8.12421	0.796
8.16527	0.8
8.20632	0.74
8.24738	0.544
8.28844	0.554
8.32949	0.576
8.37055	0.672
8.4116	0.703
8.45266	0.728
8.49371	0.749
8.53477	0.703
8.57582	0.474
8.61688	0.334
8.65793	0.629
8.69899	0.761
8.74005	0.774
8.7811	0.779
8.82216	0.779
8.86321	0.752
8.90427	0.621
8.94532	0.561
8.98638	0.558
9.02743	0.52
9.06849	0.665
9.10955	0.691
9.1506	0.757
9.19166	0.786
9.23271	0.798
9.27377	0.8
9.31482	0.793
9.35588	0.773
9.39693	0.747
9.43799	0.704
9.47904	0.641
9.5201	0.52
9.56116	0.39
9.60221	0.262
9.64327	0.204
9.68432	0.264
9.72538	0.443
9.76643	0.498
9.80749	0.47
9.84854	0.486
9.8896	0.575
9.93066	0.667
9.97171	0.692
10.0128	0.704
10.0538	0.701
10.0949	0.687
10.1359	0.694
10.177	0.735
10.218	0.766
10.2591	0.776
10.3002	0.761
10.3412	0.691
10.3823	0.6
10.4233	0.598
10.4644	0.662
10.5054	0.689
10.5465	0.667
10.5875	0.581
10.6286	0.465
10.6697	0.554
10.7107	0.597
10.7518	0.607
10.7928	0.689
10.8339	0.779
10.8749	0.798
10.916	0.795
10.957	0.738
10.9981	0.663
11.0392	0.67
11.0802	0.726
11.1213	0.761
11.1623	0.766
11.2034	0.742
11.2444	0.684
11.2855	0.563
11.3265	0.448
11.3676	0.324
11.4087	0.247
11.4497	0.255
11.4908	0.394
11.5318	0.662
11.5729	0.761
11.6139	0.79
11.655	0.798
11.696	0.793
11.7371	0.773
11.7782	0.723
11.8192	0.592
11.8603	0.496
11.9013	0.286
11.9424	0.139
11.9834	0.066
12.0245	0.064
12.0655	0.153
12.1066	0.276
12.1477	0.353
12.1887	0.354
12.2298	0.175
12.2708	0.073
12.3119	0.037
12.3529	0.03
12.394	0.039
12.435	0.124
12.4761	0.286
12.5172	0.406
12.5582	0.414
12.5993	0.375
12.6403	0.383
12.6814	0.424
12.7224	0.445
12.7635	0.377
12.8045	0.261
12.8456	0.109
12.8867	0.093
12.9277	0.097
12.9688	0.138
13.0098	0.266
13.0509	0.409
13.0919	0.65
13.133	0.752
13.174	0.803
13.2151	0.834
13.2562	0.846
13.2972	0.861
13.3383	0.866
13.3793	0.875
13.4204	0.882
13.4614	0.885
13.5025	0.885
13.5435	0.882
13.5846	0.856
13.6256	0.79
13.6667	0.776
13.7078	0.798
13.7488	0.79
13.7899	0.788
13.8309	0.771
13.872	0.749
13.913	0.767
13.9541	0.793
13.9951	0.8
14.0362	0.791
14.0773	0.725
14.1183	0.67
14.1594	0.59
14.2004	0.522
14.2415	0.486
14.2825	0.457
14.3236	0.493
14.3646	0.578
14.4057	0.65
14.4468	0.697
14.4878	0.73
14.5289	0.745
14.5699	0.747
14.611	0.747
14.652	0.747
14.6931	0.747
14.7341	0.752
14.7752	0.762
14.8163	0.776
14.8573	0.783
14.8984	0.783
14.9394	0.773
14.9805	0.767
15.0215	0.783
15.0626	0.795
15.1036	0.795
15.1447	0.786
15.1858	0.784
15.2268	0.783
15.2679	0.778
15.3089	0.773
15.35	0.767
15.391	0.764
15.4321	0.762
15.4731	0.757
15.5142	0.754
15.5553	0.752
15.5963	0.749
15.6374	0.738
15.6784	0.738
15.7195	0.735
15.7605	0.732
15.8016	0.725
15.8426	0.72
15.8837	0.716
15.9248	0.715
