Infrared Spectrum: 4,4,4-Trifluoro-1-(2-furyl)-1,3-butanedione
Formula: C 8 H 5 F 3 O 3
CAS: 326-90-9
State: gas
Origin: EPA-IR VAPOR PHASE LIBRARY
1/CM	ABSORBANCE
549.9	0.0012821
559.547	0.001605
569.193	0.002365
578.84	0.005195
588.486	0.004415
598.133	0.002675
607.779	0.001545
617.426	0.0012524
627.072	0.001445
636.719	0.002055
646.365	0.002595
656.012	0.004795
665.658	0.006915
675.305	0.011635
684.951	0.006995
694.598	0.002975
704.245	0.002275
713.891	0.001715
723.538	0.001725
733.184	0.002585
742.831	0.007255
752.477	0.014525
762.124	0.008675
771.77	0.003415
781.417	0.003065
791.063	0.004145
800.71	0.007535
810.356	0.008815
820.003	0.005665
829.649	0.003425
839.296	0.002935
848.943	0.002905
858.589	0.002835
868.236	0.002805
877.882	0.003975
887.529	0.006935
897.175	0.003335
906.822	0.002825
916.468	0.002415
926.115	0.003455
935.761	0.002935
945.408	0.001615
955.054	0.0012948
964.701	0.001415
974.347	0.001505
983.994	0.001775
993.64	0.002485
1003.29	0.006525
1012.93	0.018375
1022.58	0.009825
1032.23	0.006085
1041.87	0.006545
1051.52	0.007825
1061.17	0.008545
1070.81	0.008775
1080.46	0.010935
1090.11	0.015715
1099.75	0.024645
1109.4	0.020235
1119.05	0.008245
1128.69	0.007455
1138.34	0.010155
1147.99	0.017225
1157.63	0.029295
1167.28	0.042795
1176.92	0.041705
1186.57	0.030965
1196.22	0.032825
1205.86	0.045065
1215.51	0.040135
1225.16	0.024865
1234.8	0.016735
1244.45	0.014965
1254.1	0.021555
1263.74	0.026805
1273.39	0.031225
1283.04	0.040655
1292.68	0.040275
1302.33	0.029345
1311.98	0.020835
1321.62	0.015225
1331.27	0.011195
1340.92	0.008915
1350.56	0.007265
1360.21	0.006505
1369.86	0.006205
1379.5	0.006905
1389.15	0.007135
1398.79	0.006775
1408.44	0.007055
1418.09	0.007675
1427.73	0.008375
1437.38	0.008795
1447.03	0.009115
1456.67	0.009955
1466.32	0.011945
1475.97	0.012615
1485.61	0.009425
1495.26	0.007695
1504.91	0.008075
1514.55	0.007925
1524.2	0.008545
1533.85	0.009825
1543.49	0.011485
1553.14	0.012005
1562.79	0.012025
1572.43	0.014985
1582.08	0.018765
1591.73	0.022155
1601.37	0.026475
1611.02	0.030945
1620.67	0.034305
1630.31	0.034195
1639.96	0.030775
1649.6	0.026335
1659.25	0.020665
1668.9	0.014325
1678.54	0.010615
1688.19	0.009535
1697.84	0.010245
1707.48	0.009425
1717.13	0.005855
1726.78	0.003465
1736.42	0.002655
1746.07	0.002455
1755.72	0.002745
1765.36	0.003715
1775.01	0.004575
1784.66	0.002995
1794.3	0.001475
1803.95	0.0010681
1813.6	0.000918
1823.24	0.0008525
1832.89	0.0008379
1842.54	0.000898
1852.18	0.0009078
1861.83	0.0009291
1871.47	0.0009141
1881.12	0.0007838
1890.77	0.0006645
1900.41	0.0006608
1910.06	0.0005294
1919.71	0.0005668
1929.35	0.000608
1939	0.0005878
1948.65	0.0005435
1958.29	0.0005264
1967.94	0.0004986
1977.59	0.00043207
1987.23	0.00046916
1996.88	0.00043137
2006.53	0.000414093
2016.17	0.00044676
2025.82	0.00045887
2035.47	0.0004334
2045.11	0.0003724
2054.76	0.00041035
2064.41	0.0003867
2074.05	0.00041524
2083.7	0.00047527
2093.35	0.0005205
2102.99	0.0005201
2112.64	0.0004576
2122.28	0.000417742
2131.93	0.00040965
2141.58	0.000398
2151.22	0.000414577
2160.87	0.000420768
2170.52	0.000415962
2180.16	0.0003997
2189.81	0.00043789
2199.46	0.000415861
2209.1	0.00042529
2218.75	0.000419489
2228.4	0.00043245
2238.04	0.00047963
2247.69	0.00046334
2257.34	0.00046831
2266.98	0.00048759
2276.63	0.00046078
2286.28	0.00042875
2295.92	0.00049203
2305.57	0.00046719
2315.22	0.000545
2324.86	0.00051197
2334.51	0.0005249
2344.16	0.0005769
2353.8	0.0005615
2363.45	0.0006023
2373.09	0.0006272
2382.74	0.0006665
2392.39	0.0006675
2402.03	0.0006393
2411.68	0.0006156
2421.33	0.0005554
2430.97	0.0005551
2440.62	0.0005531
2450.27	0.000606
2459.91	0.0006057
2469.56	0.0006059
2479.21	0.0005885
2488.85	0.0006135
2498.5	0.0006289
2508.15	0.0006459
2517.79	0.000642
2527.44	0.0006952
2537.09	0.0007019
2546.73	0.0007522
2556.38	0.0007097
2566.03	0.0006876
2575.67	0.0006344
2585.32	0.0005763
2594.96	0.0005418
2604.61	0.000562
2614.26	0.0005526
2623.9	0.0006061
2633.55	0.0005808
2643.2	0.000631
2652.84	0.0006823
2662.49	0.0006057
2672.14	0.0006938
2681.78	0.0006304
2691.43	0.0007237
2701.08	0.0007442
2710.72	0.0007991
2720.37	0.0007588
2730.02	0.0007331
2739.66	0.0008123
2749.31	0.0007144
2758.96	0.0007681
2768.6	0.0007216
2778.25	0.0007546
2787.9	0.0007225
2797.54	0.0007812
2807.19	0.0007883
2816.84	0.0007649
2826.48	0.0007165
2836.13	0.0007978
2845.77	0.0008463
2855.42	0.000922
2865.07	0.0008101
2874.71	0.000785
2884.36	0.000597
2894.01	0.0006995
2903.65	0.0006024
2913.3	0.000643
2922.95	0.0005826
2932.59	0.0005525
2942.24	0.0006264
2951.89	0.0005157
2961.53	0.0005646
2971.18	0.0006004
2980.83	0.00050977
2990.47	0.0005314
3000.12	0.0004026
3009.77	0.00043523
3019.41	0.00047241
3029.06	0.000642
3038.71	0.0006075
3048.35	0.0005768
3058	0.0005577
3067.64	0.00049365
3077.29	0.000612
3086.94	0.0005967
3096.58	0.000658
3106.23	0.0006554
3115.88	0.0008151
3125.52	0.0009631
3135.17	0.000904
3144.82	0.0006816
3154.46	0.0006284
3164.11	0.0005689
3173.76	0.00049694
3183.4	0.0006878
3193.05	0.000554
3202.7	0.000420745
3212.34	0.00043046
3221.99	0.00047725
3231.64	0.00046743
3241.28	0.0003435
3250.93	0.00048343
3260.58	0.0003254
3270.22	0.00040795
3279.87	0.00047681
3289.52	0.0003715
3299.16	0.0003389
3308.81	0.0003579
3318.45	0.000314
3328.1	0.000314
3337.75	0.00040881
3347.39	0.000211
3357.04	0.000254
3366.69	0.0003524
3376.33	0.000181
3385.98	0.000305
3395.63	0.000134
3405.27	0.000224
3414.92	0.000151
3424.57	0.000179
3434.21	9e-05
3443.86	0.000206
3453.51	0.00014
3463.15	7.5e-05
3472.8	0.000118
3482.45	8.9e-05
3492.09	0.00013
3501.74	0.000138
3511.39	0.000197
3521.03	0.000199
3530.68	0.000278
3540.33	0.000169
3549.97	0.000126
3559.62	0.000151
3569.26	0.000128
3578.91	0.000147
3588.56	5.3e-05
3598.2	0.000138
3607.85	0.000138
3617.5	0.000155
3627.14	0.000184
3636.79	9.4e-05
3646.44	0.000176
3656.08	0.000121
3665.73	0.000181
3675.38	0.000138
3685.02	0.000115
3694.67	8.5e-05
3704.32	0.000104
3713.96	9.5e-05
3723.61	0.000152
3733.26	3.3e-05
3742.9	9.2e-05
3752.55	9.5e-05
3762.2	8.4e-05
3771.84	0.000131
3781.49	0.000104
3791.13	9.5e-05
3800.78	0.000173
3810.43	0.000157
3820.07	0.00015
3829.72	0.00013
3839.37	0.0001
3849.01	7.2e-05
3858.66	0.000181
3868.31	9e-05
3877.95	0.000105
3887.6	0.000142
3897.25	0.000191
3906.89	0.000201
3916.54	0.000149
3926.19	0.000125
3935.83	0.000198
3945.48	0.000131
3955.13	0.000112
3964.77	0.000139
3974.42	0.00018
3984.07	0.000151
3993.71	0.000219
