Infrared Spectrum: Thiodiglycolic anhydride
Formula: C 4 H 4 O 3 S
CAS: 3261-87-8
State: gas
Origin: EPA-IR VAPOR PHASE LIBRARY
1/CM	ABSORBANCE
549.9	0.001896
559.547	0.001706
569.193	0.001656
578.84	0.001496
588.486	0.001716
598.133	0.001776
607.779	0.001716
617.426	0.0014538
627.072	0.001121
636.719	0.0009052
646.365	0.0006931
656.012	0.00051631
665.658	0.0006477
675.305	0.00050841
684.951	0.000498271
694.598	0.00049287
704.245	0.00048648
713.891	0.0004826
723.538	0.00041
733.184	0.0004113
742.831	0.00049448
752.477	0.0005968
762.124	0.0007765
771.77	0.0011109
781.417	0.001296
791.063	0.0012361
800.71	0.0009215
810.356	0.0008053
820.003	0.0007022
829.649	0.0005972
839.296	0.00055076
848.943	0.00055837
858.589	0.000458
868.236	0.000496754
877.882	0.00053678
887.529	0.0006218
897.175	0.0008494
906.822	0.0012045
916.468	0.002326
926.115	0.004656
935.761	0.006726
945.408	0.006026
955.054	0.003366
964.701	0.0011718
974.347	0.0008887
983.994	0.0008049
993.64	0.0008221
1003.29	0.0010107
1012.93	0.001526
1022.58	0.002876
1032.23	0.006346
1041.87	0.013376
1051.52	0.021856
1061.17	0.024776
1070.81	0.018576
1080.46	0.008606
1090.11	0.003496
1099.75	0.003026
1109.4	0.003076
1119.05	0.003386
1128.69	0.003946
1138.34	0.004986
1147.99	0.006106
1157.63	0.006336
1167.28	0.005396
1176.92	0.004056
1186.57	0.002626
1196.22	0.002506
1205.86	0.003566
1215.51	0.005096
1225.16	0.006176
1234.8	0.006526
1244.45	0.006726
1254.1	0.005586
1263.74	0.003786
1273.39	0.001756
1283.04	0.0009952
1292.68	0.0007155
1302.33	0.0006318
1311.98	0.0006002
1321.62	0.0006448
1331.27	0.0007385
1340.92	0.0008184
1350.56	0.0008521
1360.21	0.0007634
1369.86	0.0006369
1379.5	0.0006658
1389.15	0.0008087
1398.79	0.0011358
1408.44	0.001606
1418.09	0.001506
1427.73	0.0011965
1437.38	0.0008592
1447.03	0.0007318
1456.67	0.0006475
1466.32	0.0006204
1475.97	0.0004564
1485.61	0.0004456
1495.26	0.000337
1504.91	0.000359
1514.55	0.000356
1524.2	0.000325
1533.85	0.00031
1543.49	0.000296
1553.14	0.000391
1562.79	0.0004099
1572.43	0.0004068
1582.08	0.000417
1591.73	0.0004453
1601.37	0.0003972
1611.02	0.000427
1620.67	0.000368
1630.31	0.0003963
1639.96	0.000376
1649.6	0.0004179
1659.25	0.0004564
1668.9	0.0004839
1678.54	0.000499755
1688.19	0.00052217
1697.84	0.0006392
1707.48	0.000779
1717.13	0.0010326
1726.78	0.0014102
1736.42	0.002116
1746.07	0.003226
1755.72	0.005266
1765.36	0.010116
1775.01	0.022046
1784.66	0.033086
1794.3	0.033116
1803.95	0.021576
1813.6	0.015546
1823.24	0.014786
1832.89	0.011586
1842.54	0.005536
1852.18	0.002566
1861.83	0.001736
1871.47	0.0013238
1881.12	0.0010115
1890.77	0.000766
1900.41	0.0006764
1910.06	0.0006047
1919.71	0.00057153
1929.35	0.00048694
1939	0.00048612
1948.65	0.0004187
1958.29	0.000385
1967.94	0.000388
1977.59	0.000331
1987.23	0.000363
1996.88	0.000387
2006.53	0.00032
2016.17	0.00033
2025.82	0.000315
2035.47	0.000323
2045.11	0.000354
2054.76	0.000353
2064.41	0.000368
2074.05	0.000344
2083.7	0.000338
2093.35	0.000316
2102.99	0.000317
2112.64	0.000364
2122.28	0.000385
2131.93	0.000381
2141.58	0.000368
2151.22	0.000373
2160.87	0.000376
2170.52	0.000353
2180.16	0.000367
2189.81	0.000366
2199.46	0.00034
2209.1	0.000331
2218.75	0.000369
2228.4	0.000374
2238.04	0.0004033
2247.69	0.0004084
2257.34	0.0004246
2266.98	0.0004793
2276.63	0.00059234
2286.28	0.0006707
2295.92	0.0008191
2305.57	0.0009822
2315.22	0.0011685
2324.86	0.0012594
2334.51	0.0012242
2344.16	0.0010589
2353.8	0.0011845
2363.45	0.001606
2373.09	0.0012837
2382.74	0.0006306
2392.39	0.000329
2402.03	0.000353
2411.68	0.000271
2421.33	0.000308
2430.97	0.000269
2440.62	0.000256
2450.27	0.000231
2459.91	0.000241
2469.56	0.00031
2479.21	0.000284
2488.85	0.000289
2498.5	0.00022
2508.15	0.000249
2517.79	0.000201
2527.44	0.000194
2537.09	0.000241
2546.73	0.000181
2556.38	0.000205
2566.03	0.000238
2575.67	0.000234
2585.32	0.000267
2594.96	0.000246
2604.61	0.000274
2614.26	0.000265
2623.9	0.000247
2633.55	0.000268
2643.2	0.000231
2652.84	0.000277
2662.49	0.000225
2672.14	0.000275
2681.78	0.000214
2691.43	0.000209
2701.08	0.000221
2710.72	0.0002
2720.37	0.000265
2730.02	0.000222
2739.66	0.000275
2749.31	0.000302
2758.96	0.000284
2768.6	0.000228
2778.25	0.000241
2787.9	0.000269
2797.54	0.000281
2807.19	0.000279
2816.84	0.000209
2826.48	0.000219
2836.13	0.000324
2845.77	0.000267
2855.42	0.000288
2865.07	0.000311
2874.71	0.00015
2884.36	0.000209
2894.01	0.0004302
2903.65	0.000675
2913.3	0.0007964
2922.95	0.0008668
2932.59	0.000792
2942.24	0.0006102
2951.89	0.0004525
2961.53	0.000395
2971.18	0.000312
2980.83	0.000271
2990.47	0.000361
3000.12	0.000246
3009.77	0.000321
3019.41	0.000223
3029.06	0.000329
3038.71	0.000208
3048.35	0.000253
3058	0.000191
3067.64	0.000297
3077.29	0.000351
3086.94	0.000164
3096.58	0.000113
3106.23	0.000204
3115.88	0.000248
3125.52	0.000201
3135.17	0.000138
3144.82	0.000228
3154.46	0.000266
3164.11	0.000218
3173.76	0.000111
3183.4	7.7e-05
3193.05	0.000228
3202.7	0.000213
3212.34	0.000284
3221.99	0.000127
3231.64	0.0002
3241.28	0.000335
3250.93	0.000322
3260.58	0.000214
3270.22	0.000235
3279.87	0.000134
3289.52	6.2e-05
3299.16	0.000246
3308.81	0.000119
3318.45	0.000197
3328.1	0.000288
3337.75	0.000339
3347.39	0.000373
3357.04	0.000218
3366.69	0.000318
3376.33	0.000331
3385.98	0.000329
3395.63	0.000165
3405.27	0.000306
3414.92	0.000193
3424.57	0.000191
3434.21	0.000239
3443.86	0.000288
3453.51	0.000301
3463.15	0.000311
3472.8	0.000383
3482.45	0.000224
3492.09	0.000307
3501.74	0.000238
3511.39	0.000321
3521.03	0.000361
3530.68	0.0004182
3540.33	0.0003987
3549.97	0.00049329
3559.62	0.00050755
3569.26	0.0005979
3578.91	0.0007584
3588.56	0.0008384
3598.2	0.0007805
3607.85	0.0008219
3617.5	0.000501799
3627.14	0.00058483
3636.79	0.0004548
3646.44	0.0004495
3656.08	0.00055783
3665.73	0.0004641
3675.38	0.0004462
3685.02	0.0004488
3694.67	0.0004052
3704.32	0.0004472
3713.96	0.0004531
3723.61	0.000364
3733.26	0.0004244
3742.9	0.0004781
3752.55	0.0004476
3762.2	0.000423
3771.84	0.0004244
3781.49	0.0004451
3791.13	0.000384
3800.78	0.00053823
3810.43	0.00031
3820.07	0.0003999
3829.72	0.000373
3839.37	0.000357
3849.01	0.0004811
3858.66	0.000391
3868.31	0.000381
3877.95	0.000381
3887.6	0.000468
3897.25	0.00054999
3906.89	0.000274
3916.54	0.0004639
3926.19	0.0004167
3935.83	0.0004375
3945.48	0.0004748
3955.13	0.000357
3964.77	0.00037
3974.42	0.000317
3984.07	0.000363
3993.71	0.000502068
