Infrared Spectrum: N,N,N',N'-TETRACYCLOHEXYL ETHYLENE DIAMINE
Formula: C26 H48 N2
CAS: 3261-33-4
State: SOLID (MINERAL OIL MULL)
Class: COBLENTZ
Instrument: Not specified, most likely a prism, grating, or hybrid spectrometer.
Sampling: TRANSMISSION
Resolution: 4
Origin: DOW CHEMICAL COMPANY
MICROMETERS	TRANSMITTANCE
2.028	0.529
2.06714	0.537
2.10627	0.545
2.14541	0.551
2.18454	0.558
2.22368	0.563
2.26282	0.559
2.30195	0.545
2.34109	0.548
2.38022	0.556
2.41936	0.567
2.4585	0.576
2.49763	0.588
2.53677	0.592
2.5759	0.593
2.61504	0.601
2.65418	0.606
2.69331	0.61
2.73245	0.603
2.77158	0.598
2.81072	0.59
2.84986	0.587
2.88899	0.58
2.92813	0.58
2.96726	0.588
3.0064	0.603
3.04554	0.621
3.08467	0.631
3.12381	0.644
3.16294	0.652
3.20208	0.669
3.24122	0.674
3.28035	0.666
3.31949	0.629
3.35863	0.333
3.39776	0.024
3.4369	0.032
3.47603	0.05
3.51517	0.132
3.55431	0.42
3.59344	0.576
3.63258	0.647
3.67171	0.66
3.71085	0.668
3.74999	0.665
3.78912	0.689
3.82826	0.699
3.86739	0.718
3.90653	0.747
3.94567	0.758
3.9848	0.765
4.02394	0.77
4.06307	0.776
4.10221	0.784
4.14135	0.786
4.18048	0.784
4.21962	0.776
4.25875	0.779
4.29789	0.796
4.33703	0.799
4.37616	0.802
4.4153	0.804
4.45443	0.804
4.49357	0.807
4.53271	0.813
4.57184	0.817
4.61098	0.818
4.65011	0.822
4.68925	0.822
4.72839	0.825
4.76752	0.826
4.80666	0.828
4.84579	0.83
4.88493	0.833
4.92407	0.836
4.9632	0.838
5.00234	0.841
5.04147	0.841
5.08061	0.843
5.11975	0.846
5.15888	0.852
5.19802	0.855
5.23715	0.859
5.27629	0.859
5.31543	0.859
5.35456	0.859
5.3937	0.862
5.43283	0.862
5.47197	0.862
5.51111	0.862
5.55024	0.862
5.58938	0.86
5.62851	0.86
5.66765	0.859
5.70679	0.851
5.74592	0.843
5.78506	0.838
5.82419	0.822
5.86333	0.818
5.90247	0.817
5.9416	0.812
5.98074	0.807
6.01988	0.802
6.05901	0.809
6.09815	0.82
6.13728	0.818
6.17642	0.828
6.21556	0.839
6.25469	0.849
6.29383	0.854
6.33296	0.851
6.3721	0.849
6.41124	0.849
6.45037	0.847
6.48951	0.843
6.52864	0.839
6.56778	0.833
6.60692	0.826
6.64605	0.818
6.68519	0.796
6.72432	0.733
6.76346	0.597
6.8026	0.297
6.84173	0.2
6.88087	0.226
6.92	0.411
6.95914	0.634
6.99828	0.754
7.03741	0.775
7.07655	0.784
7.11568	0.762
7.15482	0.665
7.19396	0.527
7.23309	0.415
7.27223	0.478
7.31136	0.614
7.3505	0.702
7.38964	0.686
7.42877	0.66
7.46791	0.621
7.50704	0.644
7.54618	0.731
7.58532	0.75
7.62445	0.771
7.66359	0.776
7.70272	0.768
7.74186	0.77
7.781	0.76
7.82013	0.655
7.85927	0.577
7.8984	0.671
7.93754	0.605
7.97668	0.695
8.01581	0.778
8.05495	0.741
8.09408	0.783
8.13322	0.813
8.17236	0.818
8.21149	0.82
8.25063	0.823
8.28976	0.825
8.3289	0.825
8.36804	0.802
8.40717	0.724
8.44631	0.639
8.48544	0.611
8.52458	0.537
8.56372	0.699
8.60285	0.773
8.64199	0.779
8.68113	0.752
8.72026	0.674
8.7594	0.695
8.79853	0.747
8.83767	0.711
8.87681	0.637
8.91594	0.472
8.95508	0.351
8.99421	0.423
9.03335	0.495
9.07249	0.415
9.11162	0.328
9.15076	0.451
9.18989	0.58
9.22903	0.637
9.26817	0.71
9.3073	0.721
9.34644	0.666
9.38557	0.645
9.42471	0.75
9.46385	0.766
9.50298	0.742
9.54212	0.734
9.58125	0.773
9.62039	0.781
9.65953	0.762
9.69866	0.733
9.7378	0.726
9.77693	0.758
9.81607	0.775
9.85521	0.763
9.89434	0.734
9.93348	0.726
9.97261	0.773
10.0118	0.815
10.0509	0.828
10.09	0.828
10.1292	0.75
10.1683	0.665
10.2074	0.742
10.2466	0.82
10.2857	0.841
10.3248	0.859
10.364	0.864
10.4031	0.868
10.4422	0.868
10.4814	0.868
10.5205	0.868
10.5597	0.868
10.5988	0.867
10.6379	0.865
10.6771	0.865
10.7162	0.865
10.7553	0.864
10.7945	0.86
10.8336	0.841
10.8727	0.8
10.9119	0.8
10.951	0.841
10.9902	0.852
11.0293	0.852
11.0684	0.834
11.1076	0.794
11.1467	0.721
11.1858	0.676
11.225	0.566
11.2641	0.446
11.3032	0.637
11.3424	0.789
11.3815	0.818
11.4206	0.82
11.4598	0.799
11.4989	0.763
11.5381	0.789
11.5772	0.818
11.6163	0.826
11.6555	0.825
11.6946	0.82
11.7337	0.813
11.7729	0.783
11.812	0.729
11.8511	0.758
11.8903	0.799
11.9294	0.8
11.9686	0.791
12.0077	0.796
12.0468	0.809
12.086	0.81
12.1251	0.81
12.1642	0.807
12.2034	0.802
12.2425	0.804
12.2816	0.807
12.3208	0.809
12.3599	0.809
12.399	0.805
12.4382	0.802
12.4773	0.797
12.5165	0.776
12.5556	0.778
12.5947	0.791
12.6339	0.792
12.673	0.778
12.7121	0.752
12.7513	0.739
12.7904	0.741
12.8295	0.758
12.8687	0.773
12.9078	0.781
12.947	0.783
12.9861	0.781
13.0252	0.778
13.0644	0.768
13.1035	0.754
13.1426	0.75
13.1818	0.754
13.2209	0.757
13.26	0.758
13.2992	0.754
13.3383	0.75
13.3774	0.749
13.4166	0.742
13.4557	0.736
13.4949	0.729
13.534	0.724
13.5731	0.718
13.6123	0.711
13.6514	0.707
13.6905	0.7
13.7297	0.69
13.7688	0.681
13.8079	0.674
13.8471	0.671
13.8862	0.679
13.9254	0.689
13.9645	0.699
14.0036	0.702
14.0428	0.707
14.0819	0.708
14.121	0.707
14.1602	0.707
14.1993	0.702
14.2384	0.699
14.2776	0.695
14.3167	0.69
14.3558	0.687
14.395	0.682
14.4341	0.677
14.4733	0.671
14.5124	0.668
14.5515	0.663
14.5907	0.655
14.6298	0.648
14.6689	0.642
14.7081	0.637
14.7472	0.631
14.7863	0.624
14.8255	0.614
14.8646	0.608
14.9038	0.598
14.9429	0.59
14.982	0.59
15.0212	0.582
15.0603	0.572
15.0994	0.563
15.1386	0.553
15.1777	0.546
15.2168	0.54
15.256	0.532
15.2951	0.527
15.3343	0.521
15.3734	0.514
15.4125	0.506
15.4517	0.498
15.4908	0.488
15.5299	0.477
15.5691	0.467
15.6082	0.459
15.6473	0.451
15.6865	0.443
15.7256	0.436
15.7647	0.428
15.8039	0.422
15.843	0.414
15.8822	0.414
