Infrared Spectrum: NICKEL BIS-ACETYL ACETONATE
Formula: C10 H14 O4 Ni
CAS: 3264-82-2
State: SOLID (0.5% IN KBr PELLET)
Class: COBLENTZ
Instrument: Not specified, most likely a grating spectrometer.
Sampling: TRANSMISSION
Resolution: 4
Origin: STANDARD OIL OF OHIO
MICROMETERS	TRANSMITTANCE
2.02	0.636
2.05363	0.644
2.08725	0.651
2.12088	0.659
2.15451	0.668
2.18813	0.668
2.22176	0.671
2.25538	0.68
2.28901	0.68
2.32264	0.685
2.35626	0.693
2.38989	0.696
2.42352	0.703
2.45714	0.707
2.49077	0.708
2.52439	0.705
2.55802	0.708
2.59165	0.712
2.62527	0.72
2.6589	0.727
2.69253	0.727
2.72615	0.712
2.75978	0.646
2.7934	0.52
2.82703	0.348
2.86066	0.276
2.89428	0.232
2.92791	0.217
2.96154	0.244
2.99516	0.319
3.02879	0.405
3.06241	0.452
3.09604	0.489
3.12967	0.545
3.16329	0.592
3.19692	0.626
3.23055	0.639
3.26417	0.648
3.2978	0.661
3.33142	0.619
3.36505	0.607
3.39868	0.646
3.4323	0.666
3.46593	0.73
3.49956	0.75
3.53318	0.762
3.56681	0.774
3.60043	0.784
3.63406	0.794
3.66769	0.804
3.70131	0.814
3.73494	0.818
3.76857	0.819
3.80219	0.821
3.83582	0.819
3.86944	0.818
3.90307	0.823
3.9367	0.826
3.97032	0.826
4.00395	0.824
4.03758	0.821
4.0712	0.811
4.10483	0.801
4.13845	0.809
4.17208	0.811
4.20571	0.808
4.23933	0.804
4.27296	0.806
4.30659	0.809
4.34021	0.804
4.37384	0.799
4.40746	0.799
4.44109	0.809
4.47472	0.816
4.50834	0.816
4.54197	0.813
4.5756	0.811
4.60922	0.811
4.64285	0.813
4.67647	0.806
4.7101	0.803
4.74373	0.809
4.77735	0.813
4.81098	0.814
4.84461	0.814
4.87823	0.813
4.91186	0.806
4.94548	0.809
4.97911	0.813
5.01274	0.816
5.04636	0.814
5.07999	0.803
5.11362	0.787
5.14724	0.796
5.18087	0.809
5.21449	0.821
5.24812	0.829
5.28175	0.831
5.31537	0.829
5.349	0.828
5.38263	0.829
5.41625	0.829
5.44988	0.833
5.4835	0.833
5.51713	0.833
5.55076	0.831
5.58438	0.829
5.61801	0.824
5.65164	0.826
5.68526	0.828
5.71889	0.826
5.75251	0.821
5.78614	0.808
5.81977	0.796
5.85339	0.787
5.88702	0.781
5.92065	0.769
5.95427	0.755
5.9879	0.71
6.02152	0.609
6.05515	0.538
6.08878	0.43
6.1224	0.265
6.15603	0.094
6.18966	0.02
6.22328	0.003
6.25691	0
6.29053	0.001
6.32416	0.013
6.35779	0.053
6.39141	0.107
6.42504	0.158
6.45867	0.153
6.49229	0.094
6.52592	0.021
6.55954	0.006
6.59317	0.003
6.6268	0.021
6.66042	0.111
6.69405	0.193
6.72768	0.24
6.7613	0.198
6.79493	0.112
6.82855	0.053
6.86218	0.048
6.89581	0.028
6.92943	0.023
6.96306	0.023
6.99669	0.02
7.03031	0.008
7.06394	0.005
7.09756	0.001
7.13119	0.001
7.16482	0.001
7.19844	0.006
7.23207	0.016
7.2657	0.062
7.29932	0.082
7.33295	0.107
7.36657	0.21
7.4002	0.356
7.43383	0.474
7.46745	0.562
7.50108	0.614
7.53471	0.639
7.56833	0.656
7.60196	0.671
7.63559	0.685
7.66921	0.696
7.70284	0.705
7.73646	0.712
7.77009	0.7
7.80372	0.643
7.83734	0.447
7.87097	0.195
7.9046	0.116
7.93822	0.112
7.97185	0.259
8.00547	0.466
8.0391	0.668
8.07273	0.725
8.10635	0.749
8.13998	0.759
8.17361	0.767
8.20723	0.767
8.24086	0.747
8.27448	0.698
8.30811	0.585
8.34174	0.565
8.37536	0.617
8.40899	0.718
8.44262	0.749
8.47624	0.769
8.50987	0.777
8.54349	0.784
8.57712	0.787
8.61075	0.791
8.64437	0.791
8.678	0.789
8.71163	0.786
8.74525	0.781
8.77888	0.772
8.8125	0.764
8.84613	0.759
8.87976	0.754
8.91338	0.754
8.94701	0.749
8.98064	0.75
9.01426	0.754
9.04789	0.759
9.08151	0.762
9.11514	0.76
9.14877	0.759
9.18239	0.755
9.21602	0.75
9.24965	0.749
9.28327	0.752
9.3169	0.75
9.35052	0.749
9.38415	0.74
9.41778	0.732
9.4514	0.718
9.48503	0.703
9.51866	0.663
9.55228	0.644
9.58591	0.624
9.61953	0.57
9.65316	0.508
9.68679	0.417
9.72041	0.318
9.75404	0.239
9.78767	0.2
9.82129	0.222
9.85492	0.318
9.88854	0.429
9.92217	0.54
9.9558	0.644
9.98942	0.661
10.023	0.678
10.0567	0.707
10.0903	0.73
10.1239	0.749
10.1576	0.759
10.1912	0.769
10.2248	0.779
10.2584	0.786
10.2921	0.792
10.3257	0.799
10.3593	0.803
10.3929	0.801
10.4266	0.794
10.4602	0.781
10.4938	0.747
10.5274	0.722
10.5611	0.643
10.5947	0.56
10.6283	0.456
10.6619	0.358
10.6956	0.297
10.7292	0.245
10.7628	0.212
10.7965	0.207
10.8301	0.265
10.8637	0.398
10.8973	0.518
10.931	0.604
10.9646	0.648
10.9982	0.69
11.0318	0.723
11.0655	0.742
11.0991	0.755
11.1327	0.769
11.1663	0.776
11.2	0.782
11.2336	0.784
11.2672	0.786
11.3008	0.786
11.3345	0.787
11.3681	0.786
11.4017	0.786
11.4354	0.796
11.469	0.801
11.5026	0.804
11.5362	0.808
11.5699	0.811
11.6035	0.813
11.6371	0.814
11.6707	0.813
11.7044	0.813
11.738	0.814
11.7716	0.814
11.8052	0.814
11.8389	0.813
11.8725	0.811
11.9061	0.813
11.9397	0.813
11.9734	0.813
12.007	0.813
12.0406	0.808
12.0743	0.801
12.1079	0.794
12.1415	0.791
12.1751	0.789
12.2088	0.787
12.2424	0.782
12.276	0.779
12.3096	0.772
12.3433	0.764
12.3769	0.759
12.4105	0.752
12.4441	0.742
12.4778	0.734
12.5114	0.723
12.545	0.705
12.5786	0.691
12.6123	0.675
12.6459	0.656
12.6795	0.638
12.7131	0.616
12.7468	0.592
12.7804	0.569
12.814	0.55
12.8477	0.535
12.8813	0.518
12.9149	0.503
12.9485	0.479
12.9822	0.444
13.0158	0.422
13.0494	0.425
13.083	0.469
13.1167	0.511
13.1503	0.547
13.1839	0.587
13.2175	0.629
13.2512	0.664
13.2848	0.702
13.3184	0.722
13.352	0.742
13.3857	0.749
13.4193	0.752
13.4529	0.764
13.4866	0.767
13.5202	0.771
13.5538	0.772
13.5874	0.774
13.6211	0.774
13.6547	0.776
13.6883	0.776
13.7219	0.776
13.7556	0.774
13.7892	0.776
13.8228	0.774
13.8564	0.772
13.8901	0.771
13.9237	0.771
13.9573	0.771
13.9909	0.767
14.0246	0.764
14.0582	0.76
14.0918	0.759
14.1255	0.76
14.1591	0.759
14.1927	0.757
14.2263	0.754
14.26	0.75
14.2936	0.745
14.3272	0.742
14.3608	0.74
14.3945	0.737
14.4281	0.732
14.4617	0.727
14.4953	0.723
14.529	0.712
14.5626	0.707
14.5962	0.702
14.6298	0.691
14.6635	0.68
14.6971	0.664
14.7307	0.653
14.7644	0.636
14.798	0.617
14.8316	0.604
14.8652	0.595
14.8989	0.589
14.9325	0.587
14.9661	0.589
14.9997	0.594
15.0334	0.601
15.067	0.606
15.1006	0.607
15.1342	0.601
15.1679	0.589
15.2015	0.572
15.2351	0.558
15.2687	0.552
15.3024	0.558
15.336	0.585
15.3696	0.611
