Infrared Spectrum: BENZIMIDAZOLE, 5-NITRO-2-(TRIFLUOROMETHYL)-
Formula: C8 H4 F3 N3 O2
CAS: 327-19-5
State: SOLID (KBr DISC)
Class: COBLENTZ III
Instrument: UNICAM SP-200
Sampling: TRANSMISSION
Resolution: 2
Origin: FISONS LTD., VIA S.D.C. (DR. G. T. NEWBOLD)
1/CM	TRANSMITTANCE
660.822	0.888
672.397	0.894
683.973	0.881
695.548	0.8051
707.123	0.792
718.699	0.862
730.274	0.86
741.849	0.707
753.425	0.406
765	0.8728
776.575	0.832
788.151	0.883
799.726	0.886
811.301	0.868
822.877	0.833
834.452	0.6302
846.027	0.4368
857.603	0.653
869.178	0.808
880.754	0.819
892.329	0.818
903.904	0.677
915.48	0.6299
927.055	0.849
938.63	0.876
950.206	0.884
961.781	0.765
973.356	0.791
984.932	0.711
996.507	0.4081
1008.08	0.859
1019.66	0.879
1031.23	0.883
1042.81	0.871
1054.38	0.853
1065.96	0.784
1077.53	0.522
1089.11	0.758
1100.69	0.749
1112.26	0.679
1123.84	0.565
1135.41	0.3011
1146.99	0.0931
1158.56	0.079
1170.14	0.077
1181.71	0.088
1193.29	0.175
1204.86	0.082
1216.44	0.1549
1228.01	0.3999
1239.59	0.255
1251.16	0.5241
1262.74	0.6029
1274.32	0.569
1285.89	0.572
1297.47	0.729
1309.04	0.6701
1320.62	0.384
1332.19	0.0671
1343.77	0.2229
1355.34	0.19
1366.92	0.12
1378.49	0.5169
1390.07	0.701
1401.64	0.551
1413.22	0.504
1424.79	0.6439
1436.37	0.705
1447.95	0.725
1459.52	0.569
1471.1	0.581
1482.67	0.641
1494.25	0.2941
1505.82	0.4869
1517.4	0.681
1528.97	0.559
1540.55	0.125
1552.12	0.316
1563.7	0.425
1575.27	0.6559
1586.85	0.771
1598.42	0.675
1610	0.6539
1621.58	0.78
1633.15	0.697
1644.73	0.816
1656.3	0.833
1667.88	0.863
1679.45	0.871
1691.03	0.873
1702.6	0.876
1714.18	0.882
1725.75	0.891
1737.33	0.897
1748.9	0.899
1760.48	0.899
1772.05	0.893
1783.63	0.891
1795.21	0.902
1806.78	0.923
1818.36	0.93
1829.93	0.934
1841.51	0.937
1853.08	0.94
1864.66	0.939
1876.23	0.94
1887.81	0.94
1899.38	0.938
1910.96	0.932
1922.53	0.936
1934.11	0.943
1945.69	0.943
1957.26	0.949
1968.84	0.951
1980.41	0.951
1991.99	0.955
2003.56	0.9536
2015.14	0.951
2026.71	0.9483
2038.29	0.947
2049.86	0.945
2061.44	0.946
2073.01	0.947
2084.59	0.948
2096.16	0.9478
2107.74	0.9465
2119.32	0.9442
2130.89	0.944
2142.47	0.944
2154.04	0.944
2165.62	0.944
2177.19	0.944
2188.77	0.9435
2200.34	0.9402
2211.92	0.932
2223.49	0.93
2235.07	0.93
2246.64	0.929
2258.22	0.9278
2269.79	0.9266
2281.37	0.9246
2292.95	0.92
2304.52	0.9145
2316.1	0.9043
2327.67	0.8992
2339.25	0.897
2350.82	0.8896
2362.4	0.888
2373.97	0.8871
2385.55	0.886
2397.12	0.8815
2408.7	0.8658
2420.27	0.8575
2431.85	0.8369
2443.42	0.823
2455	0.8081
2466.58	0.807
2478.15	0.8051
2489.73	0.796
2501.3	0.7818
2512.88	0.7664
2524.45	0.7534
2536.03	0.7388
2547.6	0.7178
2559.18	0.696
2570.75	0.682
2582.33	0.667
2593.9	0.6607
2605.48	0.6446
2617.06	0.6314
2628.63	0.609
2640.21	0.5794
2651.78	0.5603
2663.36	0.558
2674.93	0.5565
2686.51	0.5475
2698.08	0.521
2709.66	0.5
2721.23	0.499
2732.81	0.501
2744.38	0.5
2755.96	0.4859
2767.53	0.4651
2779.11	0.4603
2790.69	0.459
2802.26	0.459
2813.84	0.4616
2825.41	0.4674
2836.99	0.468
2848.56	0.4588
2860.14	0.4314
2871.71	0.421
2883.29	0.4322
2894.86	0.4615
2906.44	0.4519
2918.01	0.4208
2929.59	0.418
2941.16	0.4345
2952.74	0.4585
2964.32	0.4618
2975.89	0.4546
2987.47	0.4447
2999.04	0.4369
3010.62	0.43
3022.19	0.4339
3033.77	0.4436
3045.34	0.4458
3056.92	0.4377
3068.49	0.4155
3080.07	0.417
3091.64	0.4289
3103.22	0.4406
3114.79	0.4437
3126.37	0.4451
3137.95	0.4537
3149.52	0.4941
3161.1	0.5218
3172.67	0.5595
3184.25	0.5961
3195.82	0.6119
3207.4	0.6233
3218.97	0.6394
3230.55	0.6559
3242.12	0.6699
3253.7	0.6816
3265.27	0.695
3276.85	0.7031
3288.43	0.7111
3300	0.7197
3311.58	0.725
3323.15	0.729
3334.73	0.7322
3346.3	0.7359
3357.88	0.739
3369.45	0.74
3381.03	0.7413
3392.6	0.742
3404.18	0.7412
3415.75	0.7411
3427.33	0.7434
3438.9	0.7457
3450.48	0.749
3462.06	0.751
3473.63	0.7545
3485.21	0.7598
3496.78	0.7632
3508.36	0.7694
3519.93	0.7716
3531.51	0.7798
3543.08	0.7852
3554.66	0.7885
3566.23	0.7948
3577.81	0.798
3589.38	0.803
3600.96	0.807
3612.53	0.8099
3624.11	0.8152
3635.69	0.818
3647.26	0.8197
3658.84	0.821
3670.41	0.825
3681.99	0.828
3693.56	0.8307
3705.14	0.836
3716.71	0.837
3728.29	0.838
3739.86	0.838
3751.44	0.839
3763.01	0.8395
3774.59	0.84
3786.16	0.84
3797.74	0.839
3809.32	0.839
3820.89	0.8371
3832.47	0.837
3844.04	0.8365
3855.62	0.836
3867.19	0.836
3878.77	0.833
3890.34	0.833
3901.92	0.8321
3913.49	0.8318
3925.07	0.8296
3936.64	0.8273
3948.22	0.823
3959.79	0.8217
3971.37	0.8184
3982.95	0.818
3994.52	0.8139
4006.1	0.811
4017.67	0.81
4029.25	0.81
4040.82	0.8068
4052.4	0.805
4063.97	0.803
4075.55	0.8019
4087.12	0.8
4098.7	0.798
4110.27	0.797
4121.85	0.7968
4133.43	0.7975
4145	0.798
4156.58	0.798
4168.15	0.7967
4179.73	0.796
4191.3	0.795
4202.88	0.7917
4214.45	0.79
4226.03	0.79
4237.6	0.789
4249.18	0.7875
4260.75	0.7839
4272.33	0.782
4283.9	0.781
4295.48	0.7796
4307.06	0.778
4318.63	0.777
4330.21	0.7772
4341.78	0.778
4353.36	0.778
4364.93	0.7769
4376.51	0.776
4388.08	0.7734
4399.66	0.77
4411.23	0.7724
4422.81	0.775
4434.38	0.775
4445.96	0.772
4457.53	0.77
4469.11	0.77
4480.69	0.77
4492.26	0.768
4503.84	0.7666
4515.41	0.766
4526.99	0.7611
4538.56	0.759
4550.14	0.758
4561.71	0.759
4573.29	0.7589
4584.86	0.7576
4596.44	0.7554
4608.01	0.755
4619.59	0.7538
4631.16	0.7525
4642.74	0.751
4654.32	0.7489
4665.89	0.7477
4677.47	0.7405
4689.04	0.7379
4700.62	0.74
4712.19	0.74
4723.77	0.739
4735.34	0.737
4746.92	0.7347
4758.49	0.7314
4770.07	0.729
4781.64	0.7269
4793.22	0.725
4804.8	0.725
4816.37	0.726
4827.95	0.7282
4839.52	0.729
4851.1	0.728
4862.67	0.7238
4874.25	0.7193
4885.82	0.7174
4897.4	0.7179
4908.97	0.724
4920.55	0.724
4932.12	0.724
4943.7	0.725
4955.27	0.725
4966.85	0.725
4978.43	0.7221
4990	0.7218
5001.58	0.7214
