Infrared Spectrum: 1,2,4,5-Tetrafluorobenzene
Formula: C 6 H 2 F 4
CAS: 327-54-8
State: gas
Instrument: HP-GC/MS/IRD
Origin: NIST Mass Spectrometry Data Center
1/CM	ABSORBANCE
550	0.000144
562	0.0002142
574	7.56e-05
586	7.02e-05
598	8.64e-05
610	1.8e-05
622	0
634	9.36e-05
646	0.000108
658	0.0001116
670	0.0002394
682	0.0004122
694	0.001278
706	0.0013698
718	0.0003366
730	0.0001548
742	0.0002322
754	0.0001512
766	0.0001998
778	0.0001566
790	0.0002034
802	0.0002304
814	0.0001386
826	0.0003258
838	0.0021582
850	0.0041688
862	0.0044766
874	0.003672
886	0.0015336
898	0.0004248
910	0.0002106
922	5.94e-05
934	9e-05
946	9.54e-05
958	0.0001116
970	8.46e-05
982	3.24e-05
994	0.0001044
1006	4.86e-05
1018	0.0001224
1030	0.0001278
1042	7.92e-05
1054	2.7e-05
1066	0.0001332
1078	0.0001008
1090	0.0001494
1102	0.0002322
1114	0.0003366
1126	0.0005724
1138	0.0007596
1150	0.0025416
1162	0.006138
1174	0.0038052
1186	0.0007164
1198	0.0007704
1210	0.0025074
1222	0.0049734
1234	0.0038124
1246	0.001251
1258	0.0015462
1270	0.0013518
1282	0.0005922
1294	0.0004464
1306	0.000423
1318	0.0003114
1330	0.0003672
1342	0.0003672
1354	0.000243
1366	0.0002052
1378	0.0001962
1390	0.0001962
1402	0.0002466
1414	0.0005544
1426	0.00162
1438	0.001818
1450	0.0008244
1462	0.0003348
1474	0.0003132
1486	0.0006102
1498	0.0025254
1510	0.00387
1522	0.0097344
1534	0.018
1546	0.008334
1558	0.0010278
1570	0.000468
1582	0.000351
1594	0.0003924
1606	0.000315
1618	0.0002952
1630	0.0002916
1642	0.0003492
1654	0.0003744
1666	0.000324
1678	0.0002862
1690	0.0003546
1702	0.0004014
1714	0.0002916
1726	0.0001602
1738	0.0001494
1750	0.0001152
1762	0.0001494
1774	0.0001368
1786	0.0001638
1798	0.0001944
1810	0.0001872
1822	0.0002556
1834	0.0002664
1846	0.0001458
1858	0.0001422
1870	0.0001296
1882	0.000126
1894	0.0001008
1906	0.0001314
1918	0.000135
1930	0.0001188
1942	0.0001206
1954	0.0001422
1966	0.0001026
1978	0.0001188
1990	0.0001242
2002	0.000117
2014	0.000108
2026	9e-05
2038	9.54e-05
2050	9.36e-05
2062	9.36e-05
2074	9.54e-05
2086	9.9e-05
2098	0.0001368
2110	9.9e-05
2122	7.2e-05
2134	0.0001026
2146	7.92e-05
2158	9.54e-05
2170	8.1e-05
2182	8.82e-05
2194	8.46e-05
2206	7.02e-05
2218	0.0001368
2230	0.0001584
2242	0.0001188
2254	9.72e-05
2266	0.0001422
2278	0.0001818
2290	0.0001152
2302	0.0001008
2314	0.0001098
2326	9e-05
2338	0.0001908
2350	0.0001674
2362	0.000153
2374	8.64e-05
2386	8.82e-05
2398	7.56e-05
2410	6.66e-05
2422	6.48e-05
2434	6.66e-05
2446	7.92e-05
2458	6.12e-05
2470	3.78e-05
2482	5.94e-05
2494	7.56e-05
2506	9.9e-05
2518	7.92e-05
2530	0.000135
2542	0.000135
2554	0.0001476
2566	0.0001584
2578	0.000126
2590	7.38e-05
2602	9.72e-05
2614	6.84e-05
2626	6.66e-05
2638	0.0001314
2650	0.0001026
2662	0.000117
2674	2.34e-05
2686	4.32e-05
2698	5.04e-05
2710	6.3e-05
2722	3.24e-05
2734	4.5e-05
2746	6.84e-05
2758	1.8e-05
2770	8.28e-05
2782	2.16e-05
2794	6.48e-05
2806	5.76e-05
2818	2.7e-05
2830	1.08e-05
2842	3.06e-05
2854	9.36e-05
2866	8.46e-05
2878	7.02e-05
2890	7.02e-05
2902	0.0001134
2914	0.0001512
2926	3.96e-05
2938	1.98e-05
2950	7.02e-05
2962	3.6e-05
2974	6.66e-05
2986	3.78e-05
2998	7.56e-05
3010	0.0001062
3022	0.0001386
3034	7.02e-05
3046	0.0001008
3058	4.68e-05
3070	0.0001242
3082	0.0002142
3094	0.0001998
3106	0.0001278
3118	0.0001368
3130	0.0001422
3142	9.72e-05
3154	9.18e-05
3166	0.0001242
3178	3.42e-05
3190	2.52e-05
3202	9.72e-05
3214	0.0001566
3226	0.000108
3238	6.84e-05
3250	0.0001044
3262	6.3e-05
3274	6.3e-05
3286	0.0001206
3298	7.92e-05
3310	0.000126
3322	0.0001152
3334	0.0001044
3346	0.0001692
3358	0.0001134
3370	0.0001206
3382	0.000108
3394	0.0001296
3406	0.0001116
3418	8.1e-05
3430	0.0001836
3442	0.0001566
3454	0.000144
3466	0.0001728
3478	0.0002034
3490	0.0002196
3502	0.000135
3514	0.0001206
3526	0.0002178
3538	0.00018
3550	8.28e-05
3562	0.0001908
3574	0.0002034
3586	0.0002304
3598	0.0002124
3610	0.000225
3622	0.0001206
3634	0.0002214
3646	0.0001242
3658	0.0001854
3670	0.0002196
3682	0.0001926
3694	0.0001566
3706	7.74e-05
3718	0.0001602
3730	0.0002592
3742	0.0001908
3754	0.000279
3766	0.0002106
3778	0.0001746
3790	0.0002196
3802	0.0001854
3814	0.000252
3826	0.0001062
3838	0.0002196
