Infrared Spectrum: 3,5-Bis(trifluoromethyl)benzyl alcohol
Formula: C 9 H 6 F 6 O
CAS: 32707-89-4
State: gas
Origin: EPA-IR VAPOR PHASE LIBRARY
1/CM	ABSORBANCE
549.8	0.00329
559.445	0.00391
569.09	0.00443
578.734	0.00368
588.379	0.00509
598.024	0.00411
607.669	0.00357
617.313	0.00375
626.958	0.00377
636.603	0.00369
646.248	0.00563
655.893	0.00816
665.537	0.00705
675.182	0.02003
684.827	0.06608
694.472	0.01507
704.116	0.02503
713.761	0.01466
723.406	0.00643
733.051	0.00768
742.695	0.00335
752.34	0.00286
761.985	0.0020034
771.63	0.00214
781.275	0.00205
790.919	0.0018898
800.564	0.00217
810.209	0.00321
819.854	0.0029
829.498	0.006
839.143	0.02337
848.788	0.02158
858.433	0.00865
868.078	0.01066
877.722	0.0246
887.367	0.03402
897.012	0.03084
906.657	0.03036
916.301	0.01321
925.946	0.0058
935.591	0.0056
945.236	0.00586
954.88	0.00593
964.525	0.00762
974.17	0.00777
983.815	0.00801
993.46	0.00839
1003.1	0.01235
1012.75	0.01513
1022.39	0.01717
1032.04	0.01809
1041.68	0.01982
1051.33	0.01836
1060.97	0.01542
1070.62	0.01385
1080.26	0.01097
1089.91	0.01413
1099.55	0.01769
1109.2	0.0392
1118.84	0.03871
1128.49	0.04239
1138.13	0.12237
1147.78	0.37458
1157.42	0.4328
1167.07	0.19723
1176.71	0.37389
1186.36	0.39192
1196	0.13706
1205.64	0.05009
1215.29	0.03582
1224.93	0.03334
1234.58	0.02915
1244.22	0.0281
1253.87	0.03593
1263.51	0.07971
1273.16	0.32098
1282.8	0.58319
1292.45	0.1264
1302.09	0.03569
1311.74	0.02149
1321.38	0.01744
1331.03	0.01714
1340.67	0.02346
1350.32	0.0488
1359.96	0.10242
1369.61	0.10974
1379.25	0.05882
1388.9	0.02613
1398.54	0.01249
1408.18	0.0086
1417.83	0.00733
1427.47	0.00617
1437.12	0.00636
1446.76	0.00729
1456.41	0.01074
1466.05	0.00926
1475.7	0.00498
1485.34	0.00364
1494.99	0.00293
1504.63	0.00316
1514.28	0.00252
1523.92	0.00262
1533.57	0.0024
1543.21	0.00254
1552.86	0.00288
1562.5	0.00252
1572.15	0.00266
1581.79	0.00236
1591.44	0.00233
1601.08	0.00333
1610.73	0.00543
1620.37	0.00903
1630.01	0.0062
1639.66	0.00337
1649.3	0.00287
1658.95	0.00275
1668.59	0.00221
1678.24	0.0018306
1687.88	0.0020112
1697.53	0.001875
1707.17	0.0020108
1716.82	0.00211
1726.46	0.0021
1736.11	0.00214
1745.75	0.0020014
1755.4	0.00231
1765.04	0.00237
1774.69	0.00212
1784.33	0.00265
1793.98	0.00369
1803.62	0.00516
1813.27	0.00566
1822.91	0.00354
1832.55	0.00284
1842.2	0.00234
1851.84	0.00211
1861.49	0.0015765
1871.13	0.0017258
1880.78	0.001819
1890.42	0.001557
1900.07	0.0017894
1909.71	0.0016725
1919.36	0.0016685
1929	0.0012685
1938.65	0.00131
1948.29	0.0013121
1957.94	0.00111235
1967.58	0.0009954
1977.23	0.0014493
1986.87	0.0013461
1996.52	0.0014048
2006.16	0.0017134
2015.81	0.0016161
2025.45	0.0013749
2035.1	0.0016653
2044.74	0.0011773
2054.38	0.001177
2064.03	0.0014429
2073.67	0.0015752
2083.32	0.0016076
2092.96	0.0014903
2102.61	0.0014484
2112.25	0.0014793
2121.9	0.0013437
2131.54	0.0011539
2141.19	0.0012015
2150.83	0.00103662
2160.48	0.0010324
2170.12	0.0012659
2179.77	0.0012907
2189.41	0.00111874
2199.06	0.0014142
2208.7	0.0018819
2218.35	0.0013389
2227.99	0.0013464
2237.64	0.0016635
2247.28	0.0018436
2256.92	0.00214
2266.57	0.00183
2276.21	0.00237
2285.86	0.00256
2295.5	0.00259
2305.15	0.00216
2314.79	0.00227
2324.44	0.0018745
2334.08	0.0018919
2343.73	0.0016222
2353.37	0.001693
2363.02	0.0019265
2372.66	0.0017678
2382.31	0.0016254
2391.95	0.0011884
2401.6	0.0014
2411.24	0.00105809
2420.89	0.0012769
2430.53	0.0013473
2440.18	0.0013531
2449.82	0.0014255
2459.47	0.0011337
2469.11	0.0013585
2478.75	0.0009613
2488.4	0.000939
2498.04	0.000765
2507.69	0.0009655
2517.33	0.0015334
2526.98	0.0013048
2536.62	0.0014494
2546.27	0.001246
2555.91	0.00111334
2565.56	0.0012103
2575.2	0.000845
2584.85	0.000889
2594.49	0.0009633
2604.14	0.0009343
2613.78	0.000886
2623.43	0.0009982
2633.07	0.0011501
2642.72	0.0012023
2652.36	0.0012855
2662.01	0.0015483
2671.65	0.0012375
2681.29	0.0012443
2690.94	0.0010045
2700.58	0.001256
2710.23	0.000622
2719.87	0.00106867
2729.52	0.0009808
2739.16	0.000919
2748.81	0.0013408
2758.45	0.0013465
2768.1	0.0017586
2777.74	0.0011932
2787.39	0.0012493
2797.03	0.0016423
2806.68	0.001833
2816.32	0.00256
2825.97	0.00209
2835.61	0.00305
2845.26	0.00333
2854.9	0.00527
2864.55	0.00566
2874.19	0.00731
2883.84	0.01081
2893.48	0.01037
2903.12	0.0098
2912.77	0.00923
2922.41	0.00864
2932.06	0.00832
2941.7	0.00878
2951.35	0.0077
2960.99	0.00642
2970.64	0.00481
2980.28	0.00368
2989.93	0.0025
2999.57	0.0021
3009.22	0.0017179
3018.86	0.00108464
3028.51	0.0013647
3038.15	0.0012669
3047.8	0.0018275
3057.44	0.0015058
3067.09	0.000483
3076.73	0.0016706
3086.38	0.0014106
3096.02	0.0016588
3105.67	0.001474
3115.31	0.000861
3124.95	0.0009366
3134.6	0.0009509
3144.24	0.000566
3153.89	0.000698
3163.53	0.000717
3173.18	0.0009604
3182.82	0.00028
3192.47	0.000911
3202.11	0.0012889
3211.76	0.000514
3221.4	0.00123
3231.05	0.00109275
3240.69	0.000898
3250.34	0.000586
3259.98	0.0012805
3269.63	0.00103256
3279.27	0.000714
3288.92	0.0009784
3298.56	0.000883
3308.21	0.000851
3317.85	0.000687
3327.49	0.000688
3337.14	0.0015824
3346.78	0.000552
3356.43	0.000854
3366.07	0.0014242
3375.72	0.000854
3385.36	0.000914
3395.01	0.00083
3404.65	0.00109956
3414.3	0.0011826
3423.94	0.00109189
3433.59	0.0014267
3443.23	0.001252
3452.88	0.0011481
3462.52	0.0015182
3472.17	0.0015318
3481.81	0.000912
3491.46	0.0014298
3501.1	0.000877
3510.75	0.00111385
3520.39	0.000942
3530.04	0.0010122
3539.68	0.0015706
3549.32	0.0016967
3558.97	0.0022
3568.61	0.0015197
3578.26	0.000887
3587.9	0.0015532
3597.55	0.00206
3607.19	0.00208
3616.84	0.00323
3626.48	0.00317
3636.13	0.00524
3645.77	0.00713
3655.42	0.0106
3665.06	0.01258
3674.71	0.01064
3684.35	0.00731
3694	0.0039
3703.64	0.00295
3713.29	0.001745
3722.93	0.0013689
3732.58	0.0020265
3742.22	0.00213
3751.86	0.0016399
3761.51	0.0019349
3771.15	0.0013408
3780.8	0.0017315
3790.44	0.0011744
3800.09	0.0014167
3809.73	0.0013241
3819.38	0.0018671
3829.02	0.0018882
3838.67	0.0009681
3848.31	0.0015515
3857.96	0.0014957
3867.6	0.00104798
3877.25	0.0014608
3886.89	0.0012534
3896.54	0.00107466
3906.18	0.0012756
3915.83	0.000876
3925.47	0.0018161
3935.12	0.0017999
3944.76	0.001934
3954.41	0.0009344
3964.05	0.0010136
3973.69	0.0015638
3983.34	0.00105017
3992.98	0.0013749
