Infrared Spectrum: Cycloheptanecarbonitrile
Formula: C 8 H 13 N
CAS: 32730-85-1
State: gas
Instrument: HP-GC/MS/IRD
Origin: NIST Mass Spectrometry Data Center
1/CM	ABSORBANCE
550	0.0004416
562	0.0001242
574	8.97e-05
586	0.0002829
598	0.000138
610	9.66e-05
622	2.76e-05
634	4.14e-05
646	6.9e-05
658	0.0001518
670	9.66e-05
682	0.0001656
694	0.0001587
706	0.0002277
718	0.0002691
730	0.0002484
742	0.000345
754	0.000276
766	0.0003036
778	0.0004002
790	0.000414
802	0.0004278
814	0.0009246
826	0.0008073
838	0.0009039
850	0.0006141
862	0.0005451
874	0.0004761
886	0.0004485
898	0.0003312
910	0.0003795
922	0.0003726
934	0.0005727
946	0.0007452
958	0.0007107
970	0.0006831
982	0.0005727
994	0.0004416
1006	0.0005658
1018	0.0007176
1030	0.000483
1042	0.0003243
1054	0.0002967
1066	0.0003657
1078	0.0002346
1090	0.0003174
1102	0.0003381
1114	0.0001725
1126	0.0002967
1138	0.0002139
1150	0.0002208
1162	0.0003312
1174	0.0003174
1186	0.0004209
1198	0.0004968
1210	0.0006141
1222	0.0005727
1234	0.0004761
1246	0.000414
1258	0.000552
1270	0.0006762
1282	0.0006417
1294	0.0006348
1306	0.0006555
1318	0.0006693
1330	0.0007314
1342	0.0008763
1354	0.0012765
1366	0.0010833
1378	0.0005451
1390	0.0003174
1402	0.0003657
1414	0.0006072
1426	0.0012282
1438	0.0036708
1450	0.0075831
1462	0.0084801
1474	0.0049611
1486	0.0021873
1498	0.0008901
1510	0.0004002
1522	0.0002277
1534	0.0001449
1546	7.59e-05
1558	9.66e-05
1570	6.9e-05
1582	7.59e-05
1594	6.9e-05
1606	0
1618	2.07e-05
1630	2.76e-05
1642	2.07e-05
1654	5.52e-05
1666	5.52e-05
1678	6.9e-05
1690	7.59e-05
1702	8.28e-05
1714	5.52e-05
1726	8.97e-05
1738	3.45e-05
1750	6.21e-05
1762	5.52e-05
1774	4.14e-05
1786	2.76e-05
1798	2.07e-05
1810	4.14e-05
1822	6.21e-05
1834	4.83e-05
1846	4.83e-05
1858	6.21e-05
1870	2.76e-05
1882	4.83e-05
1894	5.52e-05
1906	6.9e-05
1918	6.21e-05
1930	3.45e-05
1942	6.9e-05
1954	8.97e-05
1966	7.59e-05
1978	3.45e-05
1990	5.52e-05
2002	8.28e-05
2014	6.21e-05
2026	4.14e-05
2038	5.52e-05
2050	3.45e-05
2062	8.97e-05
2074	9.66e-05
2086	6.21e-05
2098	8.28e-05
2110	7.59e-05
2122	6.9e-05
2134	0.0001035
2146	6.9e-05
2158	0.0001173
2170	0.0001104
2182	8.97e-05
2194	0.0001311
2206	0.0001932
2218	0.0002967
2230	0.000828
2242	0.0011523
2254	0.0006417
2266	0.0001794
2278	8.97e-05
2290	0.0001035
2302	0.0001035
2314	0.0001035
2326	0.0001035
2338	0.0001035
2350	0.0001035
2362	0.0001104
2374	8.28e-05
2386	8.28e-05
2398	8.97e-05
2410	6.21e-05
2422	5.52e-05
2434	8.28e-05
2446	6.21e-05
2458	0.0001242
2470	0.0001104
2482	6.21e-05
2494	0.0001035
2506	8.97e-05
2518	6.9e-05
2530	7.59e-05
2542	3.45e-05
2554	0.0001035
2566	0.0001311
2578	0.0001035
2590	0.000138
2602	0.0001449
2614	0.0002001
2626	0.0002139
2638	0.0002622
2650	0.0003312
2662	0.0005037
2674	0.000621
2686	0.0008142
2698	0.0008487
2710	0.0006831
2722	0.0005658
2734	0.0005037
2746	0.0003726
2758	0.0003795
2770	0.0004071
2782	0.0006624
2794	0.0009039
2806	0.0012351
2818	0.001449
2830	0.0018561
2842	0.0031257
2854	0.0080523
2866	0.0156078
2878	0.0153801
2890	0.0109572
2902	0.0122061
2914	0.0215349
2926	0.0429249
2938	0.067413
2950	0.0576978
2962	0.0231771
2974	0.0065343
2986	0.0027186
2998	0.001587
3010	0.0010419
3022	0.000759
3034	0.0005934
3046	0.0004623
3058	0.0003726
3070	0.0003105
3082	0.0002829
3094	0.0002277
3106	0.0002001
3118	0.0002415
3130	0.0002277
3142	0.0001863
3154	0.0001173
3166	8.97e-05
3178	0.0001173
3190	0.0001518
3202	0.0001794
3214	0.0002346
3226	0.0002415
3238	0.0002208
3250	0.0001518
3262	0.0002346
3274	0.000138
3286	0.0001104
3298	0.0001035
3310	0.0001035
3322	2.76e-05
3334	3.45e-05
3346	4.83e-05
3358	6.21e-05
3370	0.000138
3382	1.38e-05
3394	0.000138
3406	0.0001587
3418	0.0002277
3430	0.0001725
3442	0.0001242
3454	0.000207
3466	0.0001173
3478	4.83e-05
3490	0.0001656
3502	6.21e-05
3514	0.0001449
3526	2.76e-05
3538	0.0001035
3550	0.0001173
3562	6.9e-05
3574	0.0001242
3586	0.000138
3598	0.0001173
3610	9.66e-05
3622	0.0001725
3634	0.0001656
3646	0.0001656
3658	0.0002001
3670	0.0001173
3682	0.000138
3694	0.0001104
3706	0.0001863
3718	0.000207
3730	0.0001242
3742	0.000276
3754	0.0001518
3766	0.0001725
3778	0.0002346
3790	0.000207
3802	0.0002829
3814	0.0003243
3826	0.0002346
3838	0.0002553
