Infrared Spectrum: 2-Ethoxy-3-methylpyrazine
Formula: C 7 H 10 N 2 O
CAS: 32737-14-7
State: gas
Origin: EPA-IR VAPOR PHASE LIBRARY
1/CM	ABSORBANCE
549.8	0.00479
559.445	0.00632
569.09	0.00697
578.734	0.0038
588.379	0.00513
598.024	0.01093
607.669	0.01476
617.313	0.01041
626.958	0.00338
636.603	0.00158
646.248	0.0010712
655.893	0.0009541
665.537	0.00046038
675.182	0.0003625
684.827	0.00053173
694.472	0.00052453
704.116	0.00033
713.761	0.000195
723.406	0.0006094
733.051	0.0010544
742.695	0.0016
752.34	0.0014377
761.985	0.00204
771.63	0.0025
781.275	0.00225
790.919	0.00169
800.564	0.00149
810.209	0.00301
819.854	0.00863
829.498	0.01979
839.143	0.03725
848.788	0.02508
858.433	0.01631
868.078	0.01012
877.722	0.00542
887.367	0.00332
897.012	0.00387
906.657	0.00774
916.301	0.01202
925.946	0.01266
935.591	0.00941
945.236	0.00665
954.88	0.00768
964.525	0.0132
974.17	0.01803
983.815	0.01722
993.46	0.01319
1003.1	0.01397
1012.75	0.02444
1022.39	0.04891
1032.04	0.07023
1041.68	0.05982
1051.33	0.0304
1060.97	0.01812
1070.62	0.01847
1080.26	0.02086
1089.91	0.02097
1099.55	0.01692
1109.2	0.01366
1118.84	0.01395
1128.49	0.01862
1138.13	0.03162
1147.78	0.06612
1157.42	0.14085
1167.07	0.17232
1176.71	0.12676
1186.36	0.08235
1196	0.06723
1205.64	0.02549
1215.29	0.01194
1224.93	0.01276
1234.58	0.01359
1244.22	0.01399
1253.87	0.02253
1263.51	0.03554
1273.16	0.05253
1282.8	0.06616
1292.45	0.06615
1302.09	0.06937
1311.74	0.07922
1321.38	0.07413
1331.03	0.07519
1340.67	0.09156
1350.32	0.09916
1359.96	0.08281
1369.61	0.07567
1379.25	0.11441
1388.9	0.12786
1398.54	0.09888
1408.18	0.13564
1417.83	0.20443
1427.47	0.19541
1437.12	0.10812
1446.76	0.05663
1456.41	0.03754
1466.05	0.03454
1475.7	0.02805
1485.34	0.01854
1494.99	0.01255
1504.63	0.01033
1514.28	0.01184
1523.92	0.02196
1533.57	0.04919
1543.21	0.06976
1552.86	0.05173
1562.5	0.02252
1572.15	0.01863
1581.79	0.01526
1591.44	0.00912
1601.08	0.00575
1610.73	0.00441
1620.37	0.00364
1630.01	0.00348
1639.66	0.0034
1649.3	0.00379
1658.95	0.00415
1668.59	0.00473
1678.24	0.0046
1687.88	0.00355
1697.53	0.00274
1707.17	0.00245
1716.82	0.00229
1726.46	0.00218
1736.11	0.00238
1745.75	0.00237
1755.4	0.00265
1765.04	0.00352
1774.69	0.00464
1784.33	0.0045
1793.98	0.00315
1803.62	0.00212
1813.27	0.00178
1822.91	0.00163
1832.55	0.00145
1842.2	0.0013689
1851.84	0.00159
1861.49	0.00206
1871.13	0.00324
1880.78	0.00473
1890.42	0.00515
1900.07	0.00398
1909.71	0.00281
1919.36	0.0023
1929	0.00227
1938.65	0.00219
1948.29	0.00209
1957.94	0.00182
1967.58	0.00157
1977.23	0.0013475
1986.87	0.0012513
1996.52	0.0012233
2006.16	0.0012485
2015.81	0.0013385
2025.45	0.00154
2035.1	0.00161
2044.74	0.00171
2054.38	0.0018
2064.03	0.00175
2073.67	0.0016
2083.32	0.00154
2092.96	0.00145
2102.61	0.00151
2112.25	0.00189
2121.9	0.00196
2131.54	0.0022
2141.19	0.0024
2150.83	0.00273
2160.48	0.00291
2170.12	0.00255
2179.77	0.00226
2189.41	0.00218
2199.06	0.0021
2208.7	0.00197
2218.35	0.00167
2227.99	0.00167
2237.64	0.00184
2247.28	0.00181
2256.92	0.00164
2266.57	0.0018
2276.21	0.00163
2285.86	0.00179
2295.5	0.00174
2305.15	0.00167
2314.79	0.00191
2324.44	0.00217
2334.08	0.00217
2343.73	0.00228
2353.37	0.00244
2363.02	0.00226
2372.66	0.0019
2382.31	0.00163
2391.95	0.00162
2401.6	0.00166
2411.24	0.00196
2420.89	0.00231
2430.53	0.00233
2440.18	0.00239
2449.82	0.00268
2459.47	0.00274
2469.11	0.00288
2478.75	0.00276
2488.4	0.00263
2498.04	0.0021
2507.69	0.00181
2517.33	0.0013684
2526.98	0.0014003
2536.62	0.0013154
2546.27	0.0013167
2555.91	0.0016
2565.56	0.00177
2575.2	0.00184
2584.85	0.00174
2594.49	0.0012811
2604.14	0.00147
2613.78	0.0012443
2623.43	0.0011539
2633.07	0.0013123
2642.72	0.0012697
2652.36	0.0011942
2662.01	0.0012858
2671.65	0.001328
2681.29	0.00151
2690.94	0.00175
2700.58	0.00188
2710.23	0.00209
2719.87	0.00224
2729.52	0.00245
2739.16	0.00272
2748.81	0.00253
2758.45	0.00258
2768.1	0.00258
2777.74	0.00227
2787.39	0.00253
2797.03	0.00288
2806.68	0.00336
2816.32	0.00391
2825.97	0.00471
2835.61	0.00541
2845.26	0.00595
2854.9	0.00685
2864.55	0.00867
2874.19	0.01171
2883.84	0.01413
2893.48	0.01558
2903.12	0.01808
2912.77	0.02177
2922.41	0.02663
2932.06	0.03688
2941.7	0.04432
2951.35	0.04072
2960.99	0.03686
2970.64	0.04261
2980.28	0.05379
2989.93	0.05591
2999.57	0.04051
3009.22	0.02632
3018.86	0.0159
3028.51	0.01162
3038.15	0.01353
3047.8	0.02571
3057.44	0.04568
3067.09	0.04698
3076.73	0.02604
3086.38	0.00994
3096.02	0.00609
3105.67	0.00472
3115.31	0.00427
3124.95	0.00386
3134.6	0.00367
3144.24	0.00335
3153.89	0.00311
3163.53	0.00227
3173.18	0.00161
3182.82	0.001363
3192.47	0.001179
3202.11	0.0009183
3211.76	0.0011026
3221.4	0.0009967
3231.05	0.0007208
3240.69	0.0006172
3250.34	0.0007909
3259.98	0.0005518
3269.63	0.0006916
3279.27	0.0006428
3288.92	0.0007115
3298.56	0.0005412
3308.21	0.0006663
3317.85	0.0006396
3327.49	0.00051139
3337.14	0.0008113
3346.78	0.0006746
3356.43	0.0008469
3366.07	0.0006685
3375.72	0.0006901
3385.36	0.0007211
3395.01	0.0007162
3404.65	0.0007064
3414.3	0.0006402
3423.94	0.0006264
3433.59	0.0005579
3443.23	0.0007424
3452.88	0.00053895
3462.52	0.0006379
3472.17	0.0005996
3481.81	0.000578
3491.46	0.000441233
3501.1	0.000448713
3510.75	0.00050213
3520.39	0.00051475
3530.04	0.0007457
3539.68	0.00048159
3549.32	0.000294
3558.97	0.00051642
3568.61	0.000439424
3578.26	0.00049383
3587.9	0.000447352
3597.55	0.0007786
3607.19	0.0006972
3616.84	0.0004167
3626.48	0.0004145
3636.13	0.00044638
3645.77	0.0004092
3655.42	0.00050838
3665.06	0.0003763
3674.71	0.000335
3684.35	0.0005968
3694	0.00046483
3703.64	0.0004008
3713.29	0.00047192
3722.93	0.0006035
3732.58	0.0003767
3742.22	0.000228
3751.86	0.000257
3761.51	0.00049281
3771.15	0.0005983
3780.8	0.000445999
3790.44	0.0006419
3800.09	0.0005619
3809.73	0.00045544
3819.38	0.0007296
3829.02	0.00052787
3838.67	0.0006093
3848.31	0.0008202
3857.96	0.0008218
3867.6	0.0006428
3877.25	0.0008535
3886.89	0.0006225
3896.54	0.000825
3906.18	0.0007853
3915.83	0.0008089
3925.47	0.0010381
3935.12	0.0008723
3944.76	0.0007341
3954.41	0.0006037
3964.05	0.0006833
3973.69	0.0010009
3983.34	0.001049
3992.98	0.0006629
