Infrared Spectrum: 2,3-Dimethylpentanal
Formula: C 7 H 14 O
CAS: 32749-94-3
State: gas
Instrument: HP-GC/MS/IRD
Origin: NIST Mass Spectrometry Data Center
1/CM	ABSORBANCE
550	0.0006288
562	0.0003408
574	0.0002112
586	0.0002616
598	0.0001368
610	0.0001704
622	0.000144
634	0.0002568
646	0.000348
658	0.000372
670	0.000264
682	0.000264
694	0.000168
706	0.0002304
718	0.0001848
730	0.0003528
742	0.000408
754	0.0003624
766	0.0003408
778	0.0004512
790	0.0004992
802	0.000444
814	0.0003984
826	0.000576
838	0.0008808
850	0.0009864
862	0.0008496
874	0.0008448
886	0.0011736
898	0.002136
910	0.0026952
922	0.0019344
934	0.0010776
946	0.0008568
958	0.0008952
970	0.0010176
982	0.0010128
994	0.001152
1006	0.001344
1018	0.0011712
1030	0.0008976
1042	0.0008064
1054	0.0006888
1066	0.0006072
1078	0.0007296
1090	0.0008832
1102	0.0008832
1114	0.0008136
1126	0.0008328
1138	0.0008424
1150	0.0008472
1162	0.0007608
1174	0.0005472
1186	0.0003408
1198	0.0002904
1210	0.000192
1222	0.0002424
1234	0.00036
1246	0.0004848
1258	0.0005784
1270	0.0005856
1282	0.0006912
1294	0.0006792
1306	0.000684
1318	0.0006672
1330	0.000696
1342	0.0007968
1354	0.0010584
1366	0.0017688
1378	0.0031968
1390	0.0036552
1402	0.0023688
1414	0.001224
1426	0.0010488
1438	0.0016872
1450	0.0032544
1462	0.0044208
1474	0.0035232
1486	0.0017424
1498	0.0007464
1510	0.0004416
1522	0.0003216
1534	0.0002904
1546	0.000264
1558	0.0002088
1570	0.0002376
1582	0.0002448
1594	0.0002088
1606	0.0002664
1618	0.0003168
1630	0.0003648
1642	0.00048
1654	0.000636
1666	0.000984
1678	0.0013416
1690	0.0018792
1702	0.0027936
1714	0.0059856
1726	0.015288
1738	0.0224208
1750	0.0160344
1762	0.0059832
1774	0.0027792
1786	0.001884
1798	0.0013656
1810	0.0010008
1822	0.00066
1834	0.0004104
1846	0.0002808
1858	0.000216
1870	0.0001656
1882	0.0001464
1894	0.0001344
1906	0.000108
1918	7.92e-05
1930	0.0001104
1942	0.0001032
1954	0.0001224
1966	6.24e-05
1978	8.64e-05
1990	7.92e-05
2002	7.68e-05
2014	7.68e-05
2026	6e-05
2038	6e-05
2050	4.56e-05
2062	6.72e-05
2074	3.12e-05
2086	4.56e-05
2098	4.56e-05
2110	3.6e-05
2122	4.08e-05
2134	4.32e-05
2146	4.56e-05
2158	3.6e-05
2170	3.12e-05
2182	7.2e-06
2194	2.4e-05
2206	2.16e-05
2218	4.32e-05
2230	5.04e-05
2242	2.16e-05
2254	2.88e-05
2266	5.04e-05
2278	6.48e-05
2290	4.08e-05
2302	4.08e-05
2314	2.88e-05
2326	7.68e-05
2338	6.72e-05
2350	5.76e-05
2362	4.08e-05
2374	5.28e-05
2386	5.28e-05
2398	8.88e-05
2410	9.6e-05
2422	0.0001104
2434	7.68e-05
2446	0.0001008
2458	5.76e-05
2470	7.2e-05
2482	6.96e-05
2494	6e-05
2506	8.16e-05
2518	9.6e-05
2530	0.0001224
2542	0.0001272
2554	0.000168
2566	0.0002448
2578	0.0002856
2590	0.0003816
2602	0.0005088
2614	0.0006648
2626	0.0008904
2638	0.0011088
2650	0.001416
2662	0.0019248
2674	0.0031536
2686	0.0054144
2698	0.0069192
2710	0.0059088
2722	0.0042888
2734	0.0034032
2746	0.0030456
2758	0.0028224
2770	0.002856
2782	0.0031632
2794	0.0037992
2806	0.004356
2818	0.0039456
2830	0.0032808
2842	0.003348
2854	0.0047232
2866	0.0077424
2878	0.0115152
2890	0.0120648
2902	0.0099312
2914	0.0098784
2926	0.012408
2938	0.0143688
2950	0.0146736
2962	0.0190992
2974	0.024
2986	0.016836
2998	0.0072216
3010	0.0029832
3022	0.0017376
3034	0.001284
3046	0.0010608
3058	0.0008952
3070	0.0007656
3082	0.0006168
3094	0.0006168
3106	0.0005784
3118	0.0005448
3130	0.0005568
3142	0.0004536
3154	0.000492
3166	0.0004176
3178	0.0003792
3190	0.0002976
3202	0.0001392
3214	0.0001056
3226	0.0001152
3238	0.000108
3250	8.64e-05
3262	5.52e-05
3274	3.12e-05
3286	6.72e-05
3298	6e-05
3310	9.12e-05
3322	5.52e-05
3334	6.24e-05
3346	4.8e-05
3358	2.88e-05
3370	6.48e-05
3382	6.96e-05
3394	0.0001032
3406	7.68e-05
3418	0.0001632
3430	0.0001608
3442	0.000432
3454	0.0004848
3466	0.0004104
3478	0.0002952
3490	0.000192
3502	0.000108
3514	7.2e-05
3526	3.84e-05
3538	3.12e-05
3550	2.4e-05
3562	3.12e-05
3574	4.8e-05
3586	4.08e-05
3598	3.6e-05
3610	4.8e-06
3622	7.2e-06
3634	7.92e-05
3646	6.24e-05
3658	9.6e-05
3670	1.92e-05
3682	3.36e-05
3694	5.52e-05
3706	4.8e-05
3718	8.16e-05
3730	7.68e-05
3742	2.88e-05
3754	4.08e-05
3766	8.88e-05
3778	0.0001272
3790	7.68e-05
3802	8.4e-05
3814	4.8e-05
3826	0.00012
3838	6e-05
