Infrared Spectrum: 2-ETHYLHEPTANOIC ACID
Formula: C9 H18 O2
CAS: 3274-29-1
Class: COBLENTZ
Instrument: Not specified, most likely a prism, grating, or hybrid spectrometer.
Sampling: TRANSMISSION
Path length: 0.0026 CM CELL
Resolution: 4
MICROMETERS	TRANSMITTANCE
2.078	0.893
2.11536	0.89
2.15272	0.864
2.19009	0.837
2.22745	0.839
2.26481	0.847
2.30217	0.851
2.33953	0.858
2.3769	0.858
2.41426	0.868
2.45162	0.878
2.48898	0.882
2.52634	0.886
2.56371	0.886
2.60107	0.884
2.63843	0.881
2.67579	0.872
2.71315	0.856
2.75052	0.839
2.78788	0.819
2.82524	0.783
2.8626	0.736
2.89996	0.669
2.93733	0.586
2.97469	0.486
3.01205	0.385
3.04941	0.297
3.08677	0.224
3.12414	0.159
3.1615	0.124
3.19886	0.078
3.23622	0.062
3.27358	0.056
3.31095	0.037
3.34831	0.007
3.38567	0.006
3.42303	0.007
3.46039	0.01
3.49776	0.049
3.53512	0.126
3.57248	0.173
3.60984	0.196
3.6472	0.205
3.68457	0.218
3.72193	0.182
3.75929	0.195
3.79665	0.212
3.83401	0.248
3.87138	0.263
3.90874	0.282
3.9461	0.336
3.98346	0.379
4.02083	0.457
4.05819	0.522
4.09555	0.57
4.13291	0.6
4.17027	0.639
4.20764	0.652
4.245	0.663
4.28236	0.686
4.31972	0.719
4.35708	0.737
4.39445	0.75
4.43181	0.753
4.46917	0.764
4.50653	0.769
4.54389	0.773
4.58126	0.78
4.61862	0.783
4.65598	0.787
4.69334	0.792
4.7307	0.794
4.76807	0.798
4.80543	0.792
4.84279	0.784
4.88015	0.786
4.91751	0.776
4.95488	0.767
4.99224	0.762
5.0296	0.758
5.06696	0.759
5.10432	0.761
5.14169	0.755
5.17905	0.753
5.21641	0.748
5.25377	0.736
5.29113	0.723
5.3285	0.726
5.36586	0.709
5.40322	0.694
5.44058	0.678
5.47794	0.666
5.51531	0.655
5.55267	0.658
5.59003	0.65
5.62739	0.63
5.66475	0.541
5.70212	0.407
5.73948	0.246
5.77684	0.23
5.8142	0.074
5.85156	0.018
5.88893	0.009
5.92629	0.028
5.96365	0.129
6.00101	0.329
6.03837	0.424
6.07574	0.502
6.1131	0.577
6.15046	0.638
6.18782	0.68
6.22518	0.719
6.26255	0.741
6.29991	0.759
6.33727	0.761
6.37463	0.765
6.41199	0.773
6.44936	0.778
6.48672	0.775
6.52408	0.77
6.56144	0.778
6.5988	0.764
6.63617	0.742
6.67353	0.73
6.71089	0.689
6.74825	0.594
6.78561	0.297
6.82298	0.063
6.86034	0.102
6.8977	0.202
6.93506	0.279
6.97242	0.271
7.00979	0.215
7.04715	0.191
7.08451	0.26
7.12187	0.422
7.15923	0.503
7.1966	0.46
7.23396	0.361
7.27132	0.499
7.30868	0.586
7.34604	0.561
7.38341	0.503
7.42077	0.433
7.45813	0.435
7.49549	0.452
7.53285	0.464
7.57022	0.418
7.60758	0.372
7.64494	0.302
7.6823	0.224
7.71966	0.148
7.75703	0.098
7.79439	0.095
7.83175	0.102
7.86911	0.102
7.90648	0.14
7.94384	0.173
7.9812	0.184
8.01856	0.188
8.05592	0.16
8.09329	0.117
8.13065	0.073
8.16801	0.057
8.20537	0.096
8.24273	0.173
8.2801	0.273
8.31746	0.346
8.35482	0.351
8.39218	0.357
8.42954	0.394
8.46691	0.446
8.50427	0.502
8.54163	0.558
8.57899	0.6
8.61635	0.633
8.65372	0.602
8.69108	0.577
8.72844	0.586
8.7658	0.617
8.80316	0.652
8.84053	0.65
8.87789	0.603
8.91525	0.549
8.95261	0.531
8.98997	0.533
9.02734	0.536
9.0647	0.528
9.10206	0.535
9.13942	0.605
9.17678	0.647
9.21415	0.653
9.25151	0.666
9.28887	0.681
9.32623	0.702
9.36359	0.723
9.40096	0.742
9.43832	0.753
9.47568	0.769
9.51304	0.769
9.5504	0.762
9.58777	0.756
9.62513	0.756
9.66249	0.762
9.69985	0.767
9.73721	0.772
9.77458	0.77
9.81194	0.761
9.8493	0.756
9.88666	0.747
9.92402	0.734
9.96139	0.712
9.99875	0.706
10.0361	0.689
10.0735	0.661
10.1108	0.631
10.1482	0.606
10.1856	0.578
10.2229	0.539
10.2603	0.514
10.2976	0.468
10.335	0.438
10.3724	0.396
10.4097	0.365
10.4471	0.33
10.4845	0.302
10.5218	0.276
10.5592	0.257
10.5965	0.246
10.6339	0.24
10.6713	0.243
10.7086	0.251
10.746	0.269
10.7834	0.283
10.8207	0.312
10.8581	0.332
10.8954	0.357
10.9328	0.372
10.9702	0.383
11.0075	0.416
11.0449	0.436
11.0822	0.457
11.1196	0.48
11.157	0.496
11.1943	0.505
11.2317	0.525
11.2691	0.547
11.3064	0.561
11.3438	0.564
11.3811	0.567
11.4185	0.555
11.4559	0.555
11.4932	0.578
11.5306	0.602
11.568	0.627
11.6053	0.644
11.6427	0.653
11.68	0.661
11.7174	0.673
11.7548	0.675
11.7921	0.681
11.8295	0.684
11.8668	0.686
11.9042	0.689
11.9416	0.694
11.9789	0.694
12.0163	0.689
12.0537	0.681
12.091	0.677
12.1284	0.669
12.1657	0.664
12.2031	0.68
12.2405	0.698
12.2778	0.709
12.3152	0.723
12.3526	0.736
12.3899	0.744
12.4273	0.747
12.4646	0.747
12.502	0.73
12.5394	0.697
12.5767	0.653
12.6141	0.586
12.6515	0.507
12.6888	0.432
12.7262	0.394
12.7635	0.394
12.8009	0.429
12.8383	0.468
12.8756	0.5
12.913	0.53
12.9503	0.563
12.9877	0.588
13.0251	0.614
13.0624	0.634
13.0998	0.656
13.1372	0.678
13.1745	0.702
13.2119	0.717
13.2492	0.731
13.2866	0.745
13.324	0.755
13.3613	0.764
13.3987	0.769
13.4361	0.769
13.4734	0.767
13.5108	0.765
13.5481	0.75
13.5855	0.736
13.6229	0.703
13.6602	0.677
13.6976	0.647
13.735	0.62
13.7723	0.622
13.8097	0.65
13.847	0.709
13.8844	0.755
13.9218	0.792
13.9591	0.803
13.9965	0.822
14.0338	0.833
14.0712	0.843
14.1086	0.851
14.1459	0.859
14.1833	0.865
14.2207	0.868
14.258	0.87
14.2954	0.872
14.3327	0.872
14.3701	0.872
14.4075	0.87
14.4448	0.867
14.4822	0.862
14.5196	0.861
14.5569	0.858
14.5943	0.851
14.6316	0.847
14.669	0.839
14.7064	0.833
14.7437	0.826
14.7811	0.817
14.8184	0.803
14.8558	0.795
14.8932	0.786
14.9305	0.769
14.9679	0.748
15.0053	0.722
15.0426	0.712
15.08	0.703
15.1173	0.695
15.1547	0.687
15.1921	0.681
15.2294	0.675
15.2668	0.669
15.3042	0.664
15.3415	0.663
15.3789	0.659
15.4162	0.655
15.4536	0.648
15.491	0.652
