Infrared Spectrum: 1,1,3,3-TETRAMETHYLDISILOXANE
Formula: C4 H14 O Si2
CAS: 3277-26-7
State: SOLUTION (10% IN CCl4 FOR 3800-1300, 2% IN CS2 FOR 1300-650, AND 10% IN CCl4 FOR 650-250 CM^-^1)
Class: COBLENTZ III
Instrument: PERKIN-ELMER 521 (GRATING)
Instrument parameters: FILTERS AT 3150, 2500, 2000, 1150, 700, 410. GRATING CHANGES: 2000, 630 CM^-^1
Sampling: TRANSMISSION
Path length: 0.011 CM, 0.010 CM, AND 0.019 CM
Resolution: 2
Origin: DOW CORNING CORP.
1/CM	TRANSMITTANCE
267.128	0.615
276.355	0.566
285.582	0.544
294.81	0.484
304.037	0.295
313.264	0.261
322.491	0.573
331.719	0.738
340.946	0.797
350.173	0.828
359.4	0.838
368.628	0.858
377.855	0.87
387.082	0.867
396.309	0.875
405.537	0.88
414.764	0.882
423.991	0.889
433.218	0.892
442.446	0.903
451.673	0.899
460.9	0.894
470.127	0.892
479.355	0.886
488.582	0.877
497.809	0.855
507.036	0.838
516.264	0.828
525.491	0.813
534.718	0.769
543.945	0.697
553.173	0.649
562.4	0.688
571.627	0.707
580.854	0.736
590.082	0.78
599.309	0.772
608.536	0.725
617.763	0.508
626.991	0.21
636.218	0.429
645.445	0.889
654.672	0.862
663.9	0.901
673.127	0.903
682.354	0.891
691.581	0.85
700.809	0.869
710.036	0.885
719.263	0.881
728.49	0.855
737.718	0.797
746.945	0.68
756.172	0.588
765.399	0.333
774.627	0.3721
783.854	0.72
793.081	0.764
802.308	0.769
811.536	0.741
820.763	0.608
829.99	0.313
839.217	0.472
848.445	0.607
857.672	0.576
866.899	0.404
876.126	0.018
885.354	0.241
894.581	0.28
903.808	0.023
913.035	0.1801
922.263	0.527
931.49	0.637
940.717	0.746
949.944	0.799
959.172	0.808
968.399	0.808
977.626	0.807
986.853	0.777
996.081	0.738
1005.31	0.701
1014.54	0.662
1023.76	0.557
1032.99	0.416
1042.22	0.259
1051.44	0.166
1060.67	0.171
1069.9	0.248
1079.13	0.381
1088.35	0.537
1097.58	0.644
1106.81	0.71
1116.03	0.736
1125.26	0.765
1134.49	0.785
1143.72	0.816
1152.94	0.848
1162.17	0.867
1171.4	0.877
1180.63	0.877
1189.85	0.875
1199.08	0.875
1208.31	0.875
1217.53	0.857
1226.76	0.831
1235.99	0.774
1245.22	0.4969
1254.44	0.118
1263.67	0.772
1272.9	0.853
1282.13	0.877
1291.35	0.89
1300.58	0.807
1309.81	0.816
1319.03	0.819
1328.26	0.812
1337.49	0.792
1346.72	0.79
1355.94	0.817
1365.17	0.814
1374.4	0.767
1383.62	0.73
1392.85	0.712
1402.08	0.68
1411.31	0.5789
1420.53	0.537
1429.76	0.588
1438.99	0.741
1448.22	0.78
1457.44	0.788
1466.67	0.803
1475.9	0.842
1485.12	0.87
1494.35	0.884
1503.58	0.895
1512.81	0.904
1522.03	0.896
1531.26	0.892
1540.49	0.895
1549.72	0.89
1558.94	0.891
1568.17	0.879
1577.4	0.862
1586.62	0.835
1595.85	0.788
1605.08	0.697
1614.31	0.735
1623.53	0.821
1632.76	0.855
1641.99	0.863
1651.22	0.866
1660.44	0.875
1669.67	0.879
1678.9	0.881
1688.12	0.877
1697.35	0.876
1706.58	0.882
1715.81	0.892
1725.03	0.892
1734.26	0.89
1743.49	0.881
1752.71	0.872
1761.94	0.874
1771.17	0.89
1780.4	0.882
1789.62	0.871
1798.85	0.835
1808.08	0.795
1817.31	0.84
1826.53	0.869
1835.76	0.889
1844.99	0.894
1854.21	0.889
1863.44	0.89
1872.67	0.896
1881.9	0.894
1891.12	0.886
1900.35	0.86
1909.58	0.876
1918.81	0.904
1928.03	0.895
1937.26	0.881
1946.49	0.863
1955.71	0.884
1964.94	0.897
1974.17	0.9
1983.4	0.897
1992.62	0.896
2001.85	0.9029
2011.08	0.866
2020.3	0.8608
2029.53	0.8599
2038.76	0.8507
2047.99	0.8287
2057.21	0.7883
2066.44	0.7362
2075.67	0.6326
2084.9	0.4933
2094.12	0.298
2103.35	0.0187
2112.58	0
2121.8	0
2131.03	0.0023
2140.26	0.0224
2149.49	0.0777
2158.71	0.2024
2167.94	0.3589
2177.17	0.521
2186.4	0.6189
2195.62	0.7048
2204.85	0.7636
2214.08	0.8022
2223.3	0.8419
2232.53	0.8547
2241.76	0.8696
2250.99	0.8782
2260.21	0.8847
2269.44	0.891
2278.67	0.894
2287.9	0.8957
2297.12	0.8997
2306.35	0.9015
2315.58	0.904
2324.8	0.904
2334.03	0.903
2343.26	0.9
2352.49	0.8961
2361.71	0.8951
2370.94	0.894
2380.17	0.894
2389.39	0.894
2398.62	0.892
2407.85	0.892
2417.08	0.891
2426.3	0.889
2435.53	0.889
2444.76	0.889
2453.99	0.884
2463.21	0.884
2472.44	0.882
2481.67	0.8786
2490.89	0.8774
2500.12	0.8842
2509.35	0.886
2518.58	0.8863
2527.8	0.8863
2537.03	0.887
2546.26	0.887
2555.49	0.8856
2564.71	0.882
2573.94	0.881
2583.17	0.879
2592.39	0.8765
2601.62	0.875
2610.85	0.875
2620.08	0.875
2629.3	0.875
2638.53	0.8714
2647.76	0.8694
2656.99	0.8617
2666.21	0.861
2675.44	0.861
2684.67	0.861
2693.89	0.8585
2703.12	0.8562
2712.35	0.852
2721.58	0.8472
2730.8	0.845
2740.03	0.8411
2749.26	0.8361
2758.48	0.832
2767.71	0.8272
2776.94	0.8171
2786.17	0.7981
2795.39	0.785
2804.62	0.783
2813.85	0.783
2823.08	0.783
2832.3	0.783
2841.53	0.783
2850.76	0.782
2859.98	0.7771
2869.21	0.7527
2878.44	0.7207
2887.67	0.6734
2896.89	0.5659
2906.12	0.632
2915.35	0.676
2924.58	0.6651
2933.8	0.5937
2943.03	0.4505
2952.26	0.1592
2961.48	0.0729
2970.71	0.2996
2979.94	0.572
2989.17	0.6655
2998.39	0.712
3007.62	0.7351
3016.85	0.7482
3026.07	0.754
3035.3	0.7624
3044.53	0.7712
3053.76	0.7776
3062.98	0.7847
3072.21	0.7927
3081.44	0.7987
3090.67	0.802
3099.89	0.8067
3109.12	0.811
3118.35	0.8228
3127.57	0.823
3136.8	0.8257
3146.03	0.827
3155.26	0.827
3164.48	0.827
3173.71	0.8241
3182.94	0.824
3192.17	0.823
3201.39	0.823
3210.62	0.824
3219.85	0.827
3229.07	0.8291
3238.3	0.8332
3247.53	0.8371
3256.76	0.841
3265.98	0.842
3275.21	0.843
3284.44	0.85
3293.67	0.851
3302.89	0.847
3312.12	0.847
3321.35	0.847
3330.57	0.848
3339.8	0.848
3349.03	0.848
3358.26	0.847
3367.48	0.847
3376.71	0.847
3385.94	0.847
3395.16	0.847
3404.39	0.848
3413.62	0.85
3422.85	0.8506
3432.07	0.851
3441.3	0.8526
3450.53	0.855
3459.76	0.8566
3468.98	0.8617
3478.21	0.8667
3487.44	0.8663
3496.66	0.8697
3505.89	0.874
3515.12	0.875
3524.35	0.877
3533.57	0.882
3542.8	0.8859
3552.03	0.8891
3561.26	0.8932
3570.48	0.8912
3579.71	0.886
3588.94	0.8866
3598.16	0.891
3607.39	0.901
3616.62	0.91
3625.85	0.9141
3635.07	0.9027
3644.3	0.9101
3653.53	0.9074
3662.75	0.8925
3671.98	0.91
3681.21	0.8942
3690.44	0.8931
3699.66	0.887
3708.89	0.903
3718.12	0.8913
3727.35	0.9023
3736.57	0.912
3745.8	0.937
3755.03	0.919
3764.25	0.9159
3773.48	0.908
3782.71	0.9005
3791.94	0.8974
3801.16	0.8975
