Infrared Spectrum: 2,3,5,6-Tetrachloroiodobenzene
Formula: C 6 H Cl 4 I
CAS: 32770-82-4
State: gas
Origin: EPA-IR VAPOR PHASE LIBRARY
1/CM	ABSORBANCE
549.8	0.003608
559.445	0.001728
569.09	0.001718
578.734	0.000194
588.379	0.0008903
598.024	0.000775
607.669	0.001978
617.313	0.001768
626.958	0.0008129
636.603	0.002078
646.248	0.002908
655.893	0.018838
665.537	0.092368
675.182	0.059138
684.827	0.004818
694.472	0.005858
704.116	0.002318
713.761	0.001157
723.406	0.0009491
733.051	0.002708
742.695	0.014198
752.34	0.039988
761.985	0.016618
771.63	0.002658
781.275	0.001368
790.919	0.0012183
800.564	0.001438
810.209	0.001788
819.854	0.001508
829.498	0.001173
839.143	0.002588
848.788	0.006538
858.433	0.014838
868.078	0.032418
877.722	0.008698
887.367	0.001618
897.012	0.00088
906.657	0.0008667
916.301	0.0010868
925.946	0.001688
935.591	0.003628
945.236	0.004028
954.88	0.001518
964.525	0.0007884
974.17	0.001272
983.815	0.000857
993.46	0.0006793
1003.1	0.001858
1012.75	0.0009947
1022.39	0.0011342
1032.04	0.0011397
1041.68	0.0005711
1051.33	0.003908
1060.97	0.021648
1070.62	0.022088
1080.26	0.001698
1089.91	0.002398
1099.55	0.002558
1109.2	0.002268
1118.84	0.002668
1128.49	0.003028
1138.13	0.002358
1147.78	0.007538
1157.42	0.058208
1167.07	0.071068
1176.71	0.007008
1186.36	0.004518
1196	0.012568
1205.64	0.019588
1215.29	0.006208
1224.93	0.001998
1234.58	0.002258
1244.22	0.001828
1253.87	0.001628
1263.51	0.002088
1273.16	0.002108
1282.8	0.005368
1292.45	0.021508
1302.09	0.070178
1311.74	0.083978
1321.38	0.021048
1331.03	0.017358
1340.67	0.010728
1350.32	0.011118
1359.96	0.033108
1369.61	0.118018
1379.25	0.145568
1388.9	0.095728
1398.54	0.046788
1408.18	0.027028
1417.83	0.012408
1427.47	0.004188
1437.12	0.002388
1446.76	0.001548
1456.41	0.001928
1466.05	0.003188
1475.7	0.004998
1485.34	0.005738
1494.99	0.008338
1504.63	0.012438
1514.28	0.020098
1523.92	0.030008
1533.57	0.012878
1543.21	0.017038
1552.86	0.013078
1562.5	0.003698
1572.15	0.001708
1581.79	0.0012441
1591.44	0.0010309
1601.08	0.0009534
1610.73	0.001548
1620.37	0.0011941
1630.01	0.00102
1639.66	0.0007652
1649.3	0.0008597
1658.95	0.0012176
1668.59	0.0007215
1678.24	0.0008004
1687.88	0.0006388
1697.53	0.0008542
1707.17	0.0010697
1716.82	0.002168
1726.46	0.004708
1736.11	0.004198
1745.75	0.0012826
1755.4	0.0006163
1765.04	0.0006641
1774.69	0.0004295
1784.33	0.0005218
1793.98	0.0005873
1803.62	0.0004895
1813.27	0.0007678
1822.91	0.001108
1832.55	0.0011182
1842.2	0.0008146
1851.84	0.0006616
1861.49	0.000692
1871.13	0.0007055
1880.78	0.0006507
1890.42	0.0006553
1900.07	0.0007322
1909.71	0.0010271
1919.36	0.0008664
1929	0.0006565
1938.65	0.0005702
1948.29	0.0006681
1957.94	0.0006815
1967.58	0.0005027
1977.23	0.0004583
1986.87	0.0005632
1996.52	0.0004311
2006.16	0.0004885
2015.81	0.000489
2025.45	0.00035014
2035.1	0.0005391
2044.74	0.0005777
2054.38	0.0004629
2064.03	0.0006905
2073.67	0.0005449
2083.32	0.0005073
2092.96	0.0005414
2102.61	0.0004728
2112.25	0.0006577
2121.9	0.0006343
2131.54	0.0005356
2141.19	0.0006167
2150.83	0.0005282
2160.48	0.0006072
2170.12	0.0007559
2179.77	0.0009406
2189.41	0.0008068
2199.06	0.0006185
2208.7	0.0005989
2218.35	0.0005035
2227.99	0.0005477
2237.64	0.0004948
2247.28	0.0008119
2256.92	0.0006711
2266.57	0.0006047
2276.21	0.0005979
2285.86	0.0004213
2295.5	0.0005422
2305.15	0.0005178
2314.79	0.0008446
2324.44	0.0007959
2334.08	0.0005942
2343.73	0.00035139
2353.37	0.0006813
2363.02	0.0006519
2372.66	0.0005906
2382.31	0.0004955
2391.95	0.0005245
2401.6	0.000563
2411.24	0.0005293
2420.89	0.00035606
2430.53	0.0004341
2440.18	0.00032341
2449.82	0.0005225
2459.47	0.000419
2469.11	0.0004538
2478.75	0.0003995
2488.4	0.0005667
2498.04	0.00033337
2507.69	0.00037966
2517.33	0.0005093
2526.98	0.000557
2536.62	0.0007493
2546.27	0.0005336
2555.91	0.0004379
2565.56	0.0005092
2575.2	0.000789
2584.85	0.0008458
2594.49	0.0005457
2604.14	0.0004001
2613.78	0.0005341
2623.43	0.0004855
2633.07	0.0004528
2642.72	0.0005016
2652.36	0.00038127
2662.01	0.0005156
2671.65	0.0008949
2681.29	0.0005686
2690.94	0.0006762
2700.58	0.0008576
2710.23	0.00109
2719.87	0.0012091
2729.52	0.0012095
2739.16	0.0011106
2748.81	0.0008925
2758.45	0.0005973
2768.1	0.0005299
2777.74	0.0004762
2787.39	0.0005337
2797.03	0.0007486
2806.68	0.0006378
2816.32	0.00032919
2825.97	0.0005468
2835.61	0.0005922
2845.26	0.0006799
2854.9	0.0005352
2864.55	0.00034524
2874.19	0.0004001
2883.84	0.0005039
2893.48	0.0004685
2903.12	0.0002832
2912.77	0.0007995
2922.41	0.0004505
2932.06	0.0006736
2941.7	0.0006252
2951.35	0.0005902
2960.99	0.00029623
2970.64	0.0004695
2980.28	0.00039793
2989.93	0.000172
2999.57	0.0005173
3009.22	0.000259
3018.86	0.0004226
3028.51	0.0006453
3038.15	0.0004797
3047.8	0.0004412
3057.44	0.0012138
3067.09	0.001358
3076.73	0.001398
3086.38	0.0009687
3096.02	0.0010748
3105.67	0.0012802
3115.31	0.001698
3124.95	0.0007281
3134.6	0.0006787
3144.24	0.0006432
3153.89	0.0004734
3163.53	0.00029039
3173.18	0.0006045
3182.82	0.0005869
3192.47	0.0005287
3202.11	0.0005486
3211.76	0.0006483
3221.4	0.000162
3231.05	0.00029521
3240.69	0.0002683
3250.34	0.000544
3259.98	0.00035227
3269.63	0.00038696
3279.27	0.000197
3288.92	0.0006141
3298.56	0.000598
3308.21	0.0005158
3317.85	0.0006874
3327.49	0.0005084
3337.14	0.0005479
3346.78	0.00030904
3356.43	0.0005225
3366.07	0.0007538
3375.72	0.0005922
3385.36	0.0006948
3395.01	0.0001
3404.65	0.0005411
3414.3	0.000301255
3423.94	0.00031556
3433.59	0.0004052
3443.23	0.0006342
3452.88	0.0006632
3462.52	0.0004656
3472.17	0.0005277
3481.81	0.0007353
3491.46	0.0007056
3501.1	0.00036635
3510.75	0.0002673
3520.39	0.000593
3530.04	0.000143
3539.68	0.0004598
3549.32	0.00038339
3558.97	0.00039002
3568.61	0.0005885
3578.26	0.0006324
3587.9	0.000438
3597.55	0.00066
3607.19	0.00036418
3616.84	0.0008305
3626.48	0.0007694
3636.13	0.0009736
3645.77	0.000743
3655.42	0.000568
3665.06	0.0005201
3674.71	0.000249
3684.35	0.0005221
3694	0.0005744
3703.64	0.0007335
3713.29	0.0004523
3722.93	0.0008598
3732.58	0.000114
3742.22	0.0007959
3751.86	0.0005151
3761.51	0.000142
3771.15	0.00036179
3780.8	0.000152
3790.44	0.0005332
3800.09	0.0005775
3809.73	0.0005624
3819.38	0.000516
3829.02	0.0004692
3838.67	0.0002863
3848.31	0.0004238
3857.96	0.0005597
3867.6	0.0002103
3877.25	0.00039549
3886.89	0.0005678
3896.54	0.0007782
3906.18	0.0005978
3915.83	0.000272
3925.47	0.00036565
3935.12	0.00033285
3944.76	0.0004146
3954.41	0.0002272
3964.05	0.0005893
3973.69	0.0007142
3983.34	0.0008613
3992.98	0.0011069
