Infrared Spectrum: (S)-(+)-2',3'-Dideoxyribonolactone
Formula: C 5 H 8 O 3
CAS: 32780-06-6
State: gas
Origin: EPA-IR VAPOR PHASE LIBRARY
1/CM	ABSORBANCE
549.8	0.000414
559.445	0.00071
569.09	0.0010667
578.734	0.0016641
588.379	0.002137
598.024	0.0012788
607.669	0.0013691
617.313	0.0015494
626.958	0.002347
636.603	0.0010524
646.248	0.0014113
655.893	0.00174
665.537	0.0016899
675.182	0.0018354
684.827	0.0014495
694.472	0.0010786
704.116	0.0012632
713.761	0.0010661
723.406	0.0010772
733.051	0.00072
742.695	0.0010623
752.34	0.0011204
761.985	0.0008558
771.63	0.00093266
781.275	0.0016056
790.919	0.002077
800.564	0.002127
810.209	0.002887
819.854	0.001947
829.498	0.002527
839.143	0.002407
848.788	0.002657
858.433	0.003547
868.078	0.004127
877.722	0.005307
887.367	0.006157
897.012	0.006707
906.657	0.007567
916.301	0.007547
925.946	0.007587
935.591	0.006457
945.236	0.004407
954.88	0.004437
964.525	0.004657
974.17	0.005147
983.815	0.005817
993.46	0.005257
1003.1	0.006277
1012.75	0.007687
1022.39	0.010037
1032.04	0.013967
1041.68	0.018217
1051.33	0.019657
1060.97	0.017897
1070.62	0.014917
1080.26	0.015657
1089.91	0.014637
1099.55	0.011837
1109.2	0.010907
1118.84	0.012177
1128.49	0.017667
1138.13	0.025457
1147.78	0.028847
1157.42	0.025287
1167.07	0.021407
1176.71	0.014837
1186.36	0.009837
1196	0.005597
1205.64	0.004597
1215.29	0.0018509
1224.93	0.002327
1234.58	0.002417
1244.22	0.0013406
1253.87	0.003127
1263.51	0.003217
1273.16	0.004257
1282.8	0.004027
1292.45	0.003457
1302.09	0.003837
1311.74	0.003677
1321.38	0.004577
1331.03	0.005607
1340.67	0.006397
1350.32	0.006007
1359.96	0.004727
1369.61	0.003827
1379.25	0.003167
1388.9	0.003067
1398.54	0.002857
1408.18	0.002757
1417.83	0.002247
1427.47	0.002757
1437.12	0.002477
1446.76	0.002507
1456.41	0.002947
1466.05	0.003007
1475.7	0.002567
1485.34	0.0018429
1494.99	0.0013246
1504.63	0.0010509
1514.28	0.0009163
1523.92	0.001006
1533.57	0.001134
1543.21	0.000777
1552.86	0.00090606
1562.5	0.0007969
1572.15	0.0011823
1581.79	0.0008539
1591.44	0.001085
1601.08	0.001257
1610.73	0.00092781
1620.37	0.0010846
1630.01	0.0010396
1639.66	0.0010626
1649.3	0.0010459
1658.95	0.001045
1668.59	0.0010221
1678.24	0.0011711
1687.88	0.0011111
1697.53	0.001118
1707.17	0.0013358
1716.82	0.0014308
1726.46	0.0015308
1736.11	0.0017757
1745.75	0.0018776
1755.4	0.002657
1765.04	0.003727
1774.69	0.005777
1784.33	0.010157
1793.98	0.023437
1803.62	0.053247
1813.27	0.074997
1822.91	0.067777
1832.55	0.030987
1842.2	0.010897
1851.84	0.005497
1861.49	0.003737
1871.13	0.002687
1880.78	0.002247
1890.42	0.002167
1900.07	0.0017962
1909.71	0.0016649
1919.36	0.0015167
1929	0.0013586
1938.65	0.0012317
1948.29	0.0013156
1957.94	0.0011963
1967.58	0.00098629
1977.23	0.0010965
1986.87	0.0010797
1996.52	0.0011338
2006.16	0.0012834
2015.81	0.0010607
2025.45	0.0011237
2035.1	0.001027
2044.74	0.0011327
2054.38	0.0011939
2064.03	0.0012414
2073.67	0.0011221
2083.32	0.0010599
2092.96	0.0010293
2102.61	0.0011991
2112.25	0.0010845
2121.9	0.0011101
2131.54	0.0010416
2141.19	0.00094956
2150.83	0.0010109
2160.48	0.00091479
2170.12	0.0010575
2179.77	0.0010149
2189.41	0.0011399
2199.06	0.000722
2208.7	0.0010063
2218.35	0.0008502
2227.99	0.0010868
2237.64	0.0008439
2247.28	0.0012661
2256.92	0.00094784
2266.57	0.0010212
2276.21	0.0010796
2285.86	0.0011778
2295.5	0.0012505
2305.15	0.00091685
2314.79	0.00088393
2324.44	0.00087
2334.08	0.0011076
2343.73	0.0010433
2353.37	0.0011593
2363.02	0.0010609
2372.66	0.0010857
2382.31	0.0010571
2391.95	0.001274
2401.6	0.00093921
2411.24	0.000895155
2420.89	0.0010436
2430.53	0.0008145
2440.18	0.0008412
2449.82	0.0012384
2459.47	0.0012857
2469.11	0.0010506
2478.75	0.00098197
2488.4	0.00096696
2498.04	0.00098605
2507.69	0.0010204
2517.33	0.00097031
2526.98	0.0011257
2536.62	0.0011429
2546.27	0.0007947
2555.91	0.000755
2565.56	0.00088501
2575.2	0.0008757
2584.85	0.00095609
2594.49	0.00097546
2604.14	0.0011019
2613.78	0.0011218
2623.43	0.0010601
2633.07	0.00098181
2642.72	0.0012458
2652.36	0.0011047
2662.01	0.000716
2671.65	0.0013883
2681.29	0.0010207
2690.94	0.0014693
2700.58	0.0013069
2710.23	0.001158
2719.87	0.0013914
2729.52	0.001117
2739.16	0.0008722
2748.81	0.0012209
2758.45	0.0013849
2768.1	0.0016712
2777.74	0.0013865
2787.39	0.0011734
2797.03	0.0014623
2806.68	0.0014544
2816.32	0.0015091
2825.97	0.001887
2835.61	0.0015067
2845.26	0.002117
2854.9	0.002367
2864.55	0.002777
2874.19	0.004287
2883.84	0.005037
2893.48	0.005357
2903.12	0.005297
2912.77	0.006397
2922.41	0.007647
2932.06	0.009317
2941.7	0.010677
2951.35	0.011107
2960.99	0.009497
2970.64	0.008347
2980.28	0.006757
2989.93	0.005817
2999.57	0.004527
3009.22	0.003427
3018.86	0.0018842
3028.51	0.0012222
3038.15	0.0012206
3047.8	0.0010656
3057.44	0.0014604
3067.09	0.001033
3076.73	0.0011854
3086.38	0.0011107
3096.02	0.000765
3105.67	0.0007976
3115.31	0.000749
3124.95	0.000568
3134.6	0.0010551
3144.24	0.0008627
3153.89	0.00091314
3163.53	0.0010344
3173.18	0.00093571
3182.82	0.0009126
3192.47	0.00094373
3202.11	0.0008659
3211.76	0.000666
3221.4	0.000396
3231.05	0.0013892
3240.69	0.000553
3250.34	0.000517
3259.98	0.0012069
3269.63	0.0011251
3279.27	0.000786
3288.92	0.00098571
3298.56	0.0011134
3308.21	0.0008727
3317.85	0.000723
3327.49	0.000611
3337.14	0.000875
3346.78	0.00093779
3356.43	0.000679
3366.07	0.000467
3375.72	0.0012408
3385.36	0.0008211
3395.01	0.000218
3404.65	0.0010187
3414.3	0.00090328
3423.94	0.0009937
3433.59	0.0008141
3443.23	0.0008259
3452.88	0.00095962
3462.52	0.00077
3472.17	0.000669
3481.81	0.0008363
3491.46	0.000667
3501.1	0.0011342
3510.75	0.0011742
3520.39	0.0013295
3530.04	0.000628
3539.68	0.00066
3549.32	0.0010739
3558.97	0.000736
3568.61	0.0015333
3578.26	0.0013226
3587.9	0.0015548
3597.55	0.0015524
3607.19	0.0018072
3616.84	0.002457
3626.48	0.003447
3636.13	0.003807
3645.77	0.004947
3655.42	0.003957
3665.06	0.003567
3674.71	0.002697
3684.35	0.002647
3694	0.0017673
3703.64	0.0013257
3713.29	0.0008592
3722.93	0.000527
3732.58	0.0009629
3742.22	0.0010694
3751.86	0.0011641
3761.51	0.0008651
3771.15	0.000683
3780.8	0.0010022
3790.44	0.000766
3800.09	0.0008646
3809.73	0.00064
3819.38	0.000671
3829.02	0.000542
3838.67	0.000524
3848.31	0.00056
3857.96	0.000419
3867.6	0.0010942
3877.25	0.0008704
3886.89	0.000895361
3896.54	0.0010711
3906.18	0.000694
3915.83	0.0013838
3925.47	0.0013311
3935.12	0.0008666
3944.76	0.0014754
3954.41	0.0007883
3964.05	0.0010432
3973.69	0.0013
3983.34	0.0012933
3992.98	0.000672
