Infrared Spectrum: 2,4,5-Tribromotoluene
Formula: C 7 H 5 Br 3
CAS: 3278-88-4
State: gas
Origin: EPA-IR VAPOR PHASE LIBRARY
1/CM	ABSORBANCE
549.8	0.0016261
559.445	0.00335
569.09	0.00297
578.734	0.002626
588.379	0.0025822
598.024	0.00315
607.669	0.00389
617.313	0.00642
626.958	0.01821
636.603	0.00547
646.248	0.00308
655.893	0.0025137
665.537	0.002557
675.182	0.0029
684.827	0.00307
694.472	0.00416
704.116	0.0020914
713.761	0.0020182
723.406	0.0032
733.051	0.00398
742.695	0.0026082
752.34	0.00276
761.985	0.0025558
771.63	0.0025473
781.275	0.00364
790.919	0.00377
800.564	0.0024675
810.209	0.0025076
819.854	0.000997
829.498	0.0020998
839.143	0.00308
848.788	0.00495
858.433	0.00996
868.078	0.01714
877.722	0.02545
887.367	0.00902
897.012	0.00382
906.657	0.0026851
916.301	0.00295
925.946	0.00285
935.591	0.001609
945.236	0.0018705
954.88	0.0021132
964.525	0.0026063
974.17	0.00298
983.815	0.00431
993.46	0.00507
1003.1	0.00735
1012.75	0.00493
1022.39	0.0068
1032.04	0.02744
1041.68	0.09949
1051.33	0.02891
1060.97	0.00637
1070.62	0.00537
1080.26	0.001414
1089.91	0.00586
1099.55	0.00744
1109.2	0.01434
1118.84	0.02114
1128.49	0.0118
1138.13	0.00569
1147.78	0.00369
1157.42	0.00356
1167.07	0.00297
1176.71	0.0025503
1186.36	0.0045
1196	0.00437
1205.64	0
1215.29	0.00317
1224.93	0.0024356
1234.58	0.001568
1244.22	0.00326
1253.87	0.0026422
1263.51	0.0023007
1273.16	0.001054
1282.8	0.0023978
1292.45	0.0023975
1302.09	0.00324
1311.74	0.00823
1321.38	0.01914
1331.03	0.01658
1340.67	0.00699
1350.32	0.0046
1359.96	0.00375
1369.61	0.00351
1379.25	0.00465
1388.9	0.00646
1398.54	0.00523
1408.18	0.00695
1417.83	0.01658
1427.47	0.03588
1437.12	0.03025
1446.76	0.0306
1456.41	0.06054
1466.05	0.03407
1475.7	0.00873
1485.34	0.00623
1494.99	0.0046
1504.63	0.00406
1514.28	0.00377
1523.92	0.00388
1533.57	0.00375
1543.21	0.00365
1552.86	0.00391
1562.5	0.00352
1572.15	0.00383
1581.79	0.00327
1591.44	0.0024225
1601.08	0.002433
1610.73	0.0023921
1620.37	0.0021951
1630.01	0.0021567
1639.66	0.0022054
1649.3	0.0021606
1658.95	0.0021016
1668.59	0.0018723
1678.24	0.0019323
1687.88	0.0019486
1697.53	0.0019975
1707.17	0.0019256
1716.82	0.0024461
1726.46	0.00379
1736.11	0.00407
1745.75	0.00294
1755.4	0.0022908
1765.04	0.0022215
1774.69	0.00175424
1784.33	0.0018152
1793.98	0.0019523
1803.62	0.001814
1813.27	0.0019276
1822.91	0.002148
1832.55	0.0020431
1842.2	0.00171304
1851.84	0.0018238
1861.49	0.0019119
1871.13	0.0018501
1880.78	0.0021541
1890.42	0.0022571
1900.07	0.0022956
1909.71	0.0022099
1919.36	0.0019723
1929	0.0022492
1938.65	0.0023221
1948.29	0.0018413
1957.94	0.00173541
1967.58	0.0018563
1977.23	0.0018186
1986.87	0.0018743
1996.52	0.001603
2006.16	0.0020552
2015.81	0.00178687
2025.45	0.001577
2035.1	0.00172798
2044.74	0.00175744
2054.38	0.0018547
2064.03	0.0018429
2073.67	0.0021078
2083.32	0.00176919
2092.96	0.0018992
2102.61	0.00170016
2112.25	0.0016249
2121.9	0.00175
2131.54	0.001608
2141.19	0.002022
2150.83	0.0021479
2160.48	0.00179032
2170.12	0.00176506
2179.77	0.0019659
2189.41	0.001913
2199.06	0.00171498
2208.7	0.001928
2218.35	0.0019163
2227.99	0.00180295
2237.64	0.0019079
2247.28	0.001515
2256.92	0.00171025
2266.57	0.001978
2276.21	0.00175261
2285.86	0.0019112
2295.5	0.001855
2305.15	0.0020213
2314.79	0.0019448
2324.44	0.00149
2334.08	0.00170677
2343.73	0.0020692
2353.37	0.0020127
2363.02	0.0022357
2372.66	0.0021722
2382.31	0.0022635
2391.95	0.0018138
2401.6	0.00175471
2411.24	0.0020814
2420.89	0.0019219
2430.53	0.0018903
2440.18	0.002146
2449.82	0.0019917
2459.47	0.0019243
2469.11	0.0016641
2478.75	0.002199
2488.4	0.0019379
2498.04	0.0018991
2507.69	0.001913
2517.33	0.00179569
2526.98	0.00138
2536.62	0.0019623
2546.27	0.0018146
2555.91	0.0020245
2565.56	0.00173637
2575.2	0.0020641
2584.85	0.0021873
2594.49	0.0023229
2604.14	0.0021428
2613.78	0.0020042
2623.43	0.0020195
2633.07	0.0020171
2642.72	0.002569
2652.36	0.0020294
2662.01	0.0021753
2671.65	0.0020941
2681.29	0.0022181
2690.94	0.0020723
2700.58	0.002242
2710.23	0.001826
2719.87	0.0019574
2729.52	0.0022834
2739.16	0.00177689
2748.81	0.0025584
2758.45	0.002294
2768.1	0.0023985
2777.74	0.0021111
2787.39	0.0022833
2797.03	0.0020376
2806.68	0.0019504
2816.32	0.002461
2825.97	0.0024776
2835.61	0.0023974
2845.26	0.0021946
2854.9	0.00302
2864.55	0.0041
2874.19	0.00411
2883.84	0.0038
2893.48	0.00312
2903.12	0.00289
2912.77	0.00402
2922.41	0.00569
2932.06	0.00944
2941.7	0.00904
2951.35	0.00615
2960.99	0.00544
2970.64	0.0061
2980.28	0.00565
2989.93	0.0064
2999.57	0.00476
3009.22	0.00419
3018.86	0.00384
3028.51	0.0026558
3038.15	0.00279
3047.8	0.00297
3057.44	0.00308
3067.09	0.00368
3076.73	0.0028
3086.38	0.00305
3096.02	0.0024971
3105.67	0.00293
3115.31	0.00272
3124.95	0.0018665
3134.6	0.0018254
3144.24	0.0019949
3153.89	0.0019998
3163.53	0.0025296
3173.18	0.0019886
3182.82	0.0018639
3192.47	0.0023012
3202.11	0.00173043
3211.76	0.0024993
3221.4	0.0020502
3231.05	0.0019475
3240.69	0.001316
3250.34	0.0019102
3259.98	0.001598
3269.63	0.0019044
3279.27	0.0019028
3288.92	0.00209
3298.56	0.0016625
3308.21	0.0022819
3317.85	0.0019912
3327.49	0.0020196
3337.14	0.001383
3346.78	0.0020243
3356.43	0.0026111
3366.07	0.0016512
3375.72	0.0021241
3385.36	0.00059
3395.01	0.0022509
3404.65	0.001415
3414.3	0.001072
3423.94	0.0019935
3433.59	0.0021561
3443.23	0.001506
3452.88	0.00175574
3462.52	0.0022791
3472.17	0.0016542
3481.81	0.00139
3491.46	0.000982
3501.1	0.0021515
3510.75	0.0016257
3520.39	0.001374
3530.04	0.0016798
3539.68	0.0016441
3549.32	0.0022024
3558.97	0.0019211
3568.61	0.0019127
3578.26	0.0025793
3587.9	0.0021896
3597.55	0.0018435
3607.19	0.0022567
3616.84	0.001061
3626.48	0.001398
3636.13	0.0018833
3645.77	0.001593
3655.42	0.00144
3665.06	0.001556
3674.71	0.0021655
3684.35	0.00173008
3694	0.001521
3703.64	0.00174746
3713.29	0.0018817
3722.93	0.001382
3732.58	0.0022053
3742.22	0.00170204
3751.86	0.001131
3761.51	0.0016814
3771.15	0.001426
3780.8	0.00301
3790.44	0.0025205
3800.09	0.002302
3809.73	0.001298
3819.38	0.0019884
3829.02	0.001198
3838.67	0.0024023
3848.31	0.001829
3857.96	0.0021022
3867.6	0.00177169
3877.25	0.001536
3886.89	0.0025637
3896.54	0.0019796
3906.18	0.00168
3915.83	0.0026203
3925.47	0.001359
3935.12	0.0021187
3944.76	0.0016366
3954.41	0.001447
3964.05	0.002599
3973.69	0.001509
3983.34	0.0020118
3992.98	0.001596
