Infrared Spectrum: Dimaleimide, N,N'-p-phenylene-
Formula: C14 H8 N2 O4
CAS: 3278-31-7
State: SOLID (SPLIT MULL), FLUOROLUBE FOR 3800-1330 CM^-^1, NUJOL FOR 1330-400 CM^-^1
Class: COBLENTZ III
Instrument: BECKMAN IR-9 (GRATING)
Instrument parameters: ORDER CHANGES: 670, 1200, 2000 CM^-^1
Sampling: TRANSMISSION
Resolution: 2
Origin: DOW CHEMICAL COMPANY
1/CM	TRANSMITTANCE
400	0.6076
409	0.6031
418	0.6074
427	0.6214
436	0.6571
445	0.6719
454	0.6952
463	0.7174
472	0.7354
481	0.7504
490	0.762
499	0.7707
508	0.7731
517	0.7189
526	0.7304
535	0.7651
544	0.7924
553	0.796
562	0.795
571	0.7941
580	0.7819
589	0.7266
598	0.7534
607	0.7871
616	0.7934
625	0.7909
634	0.7852
643	0.7782
652	0.7649
661	0.6782
670	0.7463
679	0.7532
688	0.4539
697	0.5088
706	0.7516
715	0.7486
724	0.7061
733	0.7495
742	0.7659
751	0.7841
760	0.7859
769	0.7708
778	0.7847
787	0.7858
796	0.7916
805	0.795
814	0.773
823	0.6624
832	0.5778
841	0.4446
850	0.5622
859	0.7205
868	0.7768
877	0.7908
886	0.7915
895	0.7876
904	0.7836
913	0.7787
922	0.7781
931	0.7778
940	0.7659
949	0.7295
958	0.7433
967	0.7555
976	0.7619
985	0.7675
994	0.7682
1003	0.7609
1012	0.7507
1021	0.7255
1030	0.7084
1039	0.737
1048	0.7548
1057	0.7463
1066	0.6959
1075	0.723
1084	0.7405
1093	0.7379
1102	0.7294
1111	0.7161
1120	0.7084
1129	0.684
1138	0.6137
1147	0.5064
1156	0.4066
1165	0.5666
1174	0.6407
1183	0.6409
1192	0.6375
1201	0.6292
1210	0.6062
1219	0.6256
1228	0.6388
1237	0.6518
1246	0.6679
1255	0.6657
1264	0.6615
1273	0.6691
1282	0.6709
1291	0.6485
1300	0.6471
1309	0.5903
1318	0.6254
1327	0.6175
1336	0.5113
1345	0.4847
1354	0.4754
1363	0.3685
1372	0.2648
1381	0.3199
1390	0.2494
1399	0.3947
1408	0.5952
1417	0.6298
1426	0.6581
1435	0.7511
1444	0.7554
1453	0.7519
1462	0.7411
1471	0.7287
1480	0.7261
1489	0.7014
1498	0.6439
1507	0.5268
1516	0.2275
1525	0.4837
1534	0.6385
1543	0.6842
1552	0.7116
1561	0.7319
1570	0.7407
1579	0.7231
1588	0.6852
1597	0.6886
1606	0.6569
1615	0.6572
1624	0.6496
1633	0.6285
1642	0.6118
1651	0.5979
1660	0.5717
1669	0.5315
1678	0.4873
1687	0.4057
1696	0.3272
1705	0.1459
1714	0.0849
1723	0.0759
1732	0.241
1741	0.4891
1750	0.6619
1759	0.7294
1768	0.7892
1777	0.8083
1786	0.8407
1795	0.8718
1804	0.8874
1813	0.8986
1822	0.9064
1831	0.9097
1840	0.9099
1849	0.9095
1858	0.9081
1867	0.9064
1876	0.9019
1885	0.8966
1894	0.8895
1903	0.884
1912	0.8803
1921	0.8815
1930	0.8824
1939	0.8823
1948	0.8817
1957	0.8809
1966	0.8797
1975	0.8786
1984	0.8759
1993	0.8617
2002	0.873
2011	0.875
2020	0.8741
2029	0.8722
2038	0.8699
2047	0.8666
2056	0.8622
2065	0.8565
2074	0.8507
2083	0.8449
2092	0.8408
2101	0.837
2110	0.8338
2119	0.8311
2128	0.8286
2137	0.8265
2146	0.8242
2155	0.8217
2164	0.8193
2173	0.815
2182	0.8111
2191	0.8078
2200	0.8047
2209	0.8027
2218	0.7978
2227	0.7893
2236	0.7813
2245	0.775
2254	0.7701
2263	0.7661
2272	0.7622
2281	0.7587
2290	0.7553
2299	0.7519
2308	0.7484
2317	0.7449
2326	0.7419
2335	0.7405
2344	0.7393
2353	0.7387
2362	0.7385
2371	0.7386
2380	0.7389
2389	0.7408
2398	0.7426
2407	0.7433
2416	0.7419
2425	0.7407
2434	0.7402
2443	0.7397
2452	0.7393
2461	0.7388
2470	0.7384
2479	0.7378
2488	0.7372
2497	0.7364
2506	0.7356
2515	0.7348
2524	0.734
2533	0.7334
2542	0.7329
2551	0.7324
2560	0.7319
2569	0.7313
2578	0.7307
2587	0.7299
2596	0.7292
2605	0.7283
2614	0.7273
2623	0.7263
2632	0.7246
2641	0.7227
2650	0.7208
2659	0.7193
2668	0.7179
2677	0.7165
2686	0.7146
2695	0.7125
2704	0.7106
2713	0.7085
2722	0.7065
2731	0.7045
2740	0.7025
2749	0.7004
2758	0.6985
2767	0.6964
2776	0.6945
2785	0.6925
2794	0.6902
2803	0.6874
2812	0.6846
2821	0.6818
2830	0.6774
2839	0.6725
2848	0.6671
2857	0.6612
2866	0.6579
2875	0.6576
2884	0.6573
2893	0.656
2902	0.6531
2911	0.6448
2920	0.636
2929	0.628
2938	0.6215
2947	0.6201
2956	0.6239
2965	0.6302
2974	0.6318
2983	0.633
2992	0.6346
3001	0.6345
3010	0.6339
3019	0.6327
3028	0.6313
3037	0.6274
3046	0.6215
3055	0.6107
3064	0.6004
3073	0.5846
3082	0.5669
3091	0.5438
3100	0.5261
3109	0.5526
3118	0.6149
3127	0.6258
3136	0.6274
3145	0.6272
3154	0.625
3163	0.6178
3172	0.6118
3181	0.6163
3190	0.62
3199	0.62
3208	0.6173
3217	0.6147
3226	0.612
3235	0.6093
3244	0.6066
3253	0.6039
3262	0.6011
3271	0.5984
3280	0.5957
3289	0.5929
3298	0.59
3307	0.5871
3316	0.5842
3325	0.5818
3334	0.5797
3343	0.5775
3352	0.576
3361	0.5759
3370	0.5758
3379	0.5758
3388	0.5774
3397	0.579
3406	0.5812
3415	0.5831
3424	0.583
3433	0.582
3442	0.5796
3451	0.5736
3460	0.5651
3469	0.5639
3478	0.566
3487	0.5688
3496	0.5714
3505	0.573
3514	0.5739
3523	0.574
3532	0.5741
3541	0.5741
3550	0.5739
3559	0.5738
3568	0.574
3577	0.5743
3586	0.5748
3595	0.5751
3604	0.5758
3613	0.5767
3622	0.5776
3631	0.5785
3640	0.5797
3649	0.5811
3658	0.5826
3667	0.5839
3676	0.585
3685	0.5856
3694	0.5849
3703	0.5837
3712	0.5816
3721	0.5795
3730	0.578
3739	0.5765
3748	0.575
3757	0.5728
3766	0.5706
3775	0.5684
3784	0.5666
3793	0.5645
