Infrared Spectrum: METHOXY DICHLORO PHOSPHINE
Formula: C H3 Cl2 P O
CAS: 3279-26-3
State: LIQUID
Class: COBLENTZ
Instrument: PERKIN-ELMER
Sampling: TRANSMISSION
Path length: 0.0015 CM
Resolution: 4
Origin: STANDARD OIL OF OHIO
MICROMETERS	TRANSMITTANCE
2.014	0.933
2.04791	0.938
2.08181	0.94
2.11572	0.94
2.14962	0.941
2.18353	0.943
2.21744	0.94
2.25134	0.935
2.28525	0.924
2.31916	0.94
2.35306	0.941
2.38697	0.941
2.42087	0.941
2.45478	0.941
2.48869	0.943
2.52259	0.945
2.5565	0.947
2.5904	0.95
2.62431	0.955
2.65822	0.957
2.69212	0.959
2.72603	0.959
2.75994	0.959
2.79384	0.96
2.82775	0.96
2.86165	0.957
2.89556	0.959
2.92947	0.957
2.96337	0.957
2.99728	0.96
3.03119	0.957
3.06509	0.959
3.099	0.959
3.1329	0.959
3.16681	0.953
3.20072	0.948
3.23462	0.935
3.26853	0.918
3.30243	0.872
3.33634	0.817
3.37025	0.849
3.40415	0.699
3.43806	0.858
3.47197	0.901
3.50587	0.899
3.53978	0.885
3.57368	0.93
3.60759	0.941
3.6415	0.945
3.6754	0.943
3.70931	0.947
3.74321	0.947
3.77712	0.947
3.81103	0.945
3.84493	0.948
3.87884	0.95
3.91275	0.95
3.94665	0.95
3.98056	0.952
4.01446	0.952
4.04837	0.952
4.08228	0.95
4.11618	0.948
4.15009	0.948
4.18399	0.947
4.2179	0.95
4.25181	0.955
4.28571	0.959
4.31962	0.96
4.35353	0.959
4.38743	0.955
4.42134	0.953
4.45524	0.953
4.48915	0.953
4.52306	0.952
4.55696	0.952
4.59087	0.948
4.62478	0.95
4.65868	0.952
4.69259	0.955
4.72649	0.957
4.7604	0.959
4.79431	0.957
4.82821	0.953
4.86212	0.952
4.89602	0.952
4.92993	0.955
4.96384	0.959
4.99774	0.962
5.03165	0.96
5.06556	0.96
5.09946	0.962
5.13337	0.96
5.16727	0.957
5.20118	0.955
5.23509	0.952
5.26899	0.953
5.3029	0.957
5.3368	0.959
5.37071	0.959
5.40462	0.959
5.43852	0.957
5.47243	0.953
5.50634	0.943
5.54024	0.919
5.57415	0.889
5.60805	0.853
5.64196	0.848
5.67587	0.904
5.70977	0.923
5.74368	0.936
5.77758	0.943
5.81149	0.95
5.8454	0.947
5.8793	0.943
5.91321	0.943
5.94712	0.943
5.98102	0.943
6.01493	0.943
6.04883	0.943
6.08274	0.941
6.11665	0.941
6.15055	0.94
6.18446	0.938
6.21837	0.936
6.25227	0.933
6.28618	0.93
6.32008	0.926
6.35399	0.921
6.3879	0.919
6.4218	0.916
6.45571	0.911
6.48961	0.909
6.52352	0.901
6.55743	0.899
6.59133	0.897
6.62524	0.892
6.65915	0.883
6.69305	0.872
6.72696	0.851
6.76086	0.822
6.79477	0.778
6.82868	0.706
6.86258	0.629
6.89649	0.592
6.93039	0.609
6.9643	0.563
6.99821	0.663
7.03211	0.824
7.06602	0.868
7.09993	0.882
7.13383	0.899
7.16774	0.906
7.20164	0.911
7.23555	0.914
7.26946	0.919
7.30336	0.923
7.33727	0.924
7.37118	0.924
7.40508	0.926
7.43899	0.93
7.47289	0.93
7.5068	0.931
7.54071	0.928
7.57461	0.918
7.60852	0.904
7.64242	0.899
7.67633	0.868
7.71024	0.853
7.74414	0.853
7.77805	0.86
7.81196	0.858
7.84586	0.853
7.87977	0.848
7.91367	0.841
7.94758	0.837
7.98149	0.834
8.01539	0.836
8.0493	0.837
8.0832	0.839
8.11711	0.839
8.15102	0.834
8.18492	0.829
8.21883	0.827
8.25274	0.829
8.28664	0.832
8.32055	0.829
8.35445	0.825
8.38836	0.815
8.42227	0.791
8.45617	0.757
8.49008	0.721
8.52398	0.663
8.55789	0.573
8.5918	0.578
8.6257	0.662
8.65961	0.703
8.69352	0.72
8.72742	0.74
8.76133	0.773
8.79523	0.8
8.82914	0.812
8.86305	0.824
8.89695	0.827
8.93086	0.829
8.96477	0.829
8.99867	0.824
9.03258	0.813
9.06648	0.803
9.10039	0.79
9.1343	0.774
9.1682	0.759
9.20211	0.735
9.23601	0.711
9.26992	0.68
9.30383	0.653
9.33773	0.624
9.37164	0.568
9.40555	0.484
9.43945	0.401
9.47336	0.302
9.50726	0.179
9.54117	0.042
9.57508	0.008
9.60898	0.003
9.64289	0.001
9.67679	0.001
9.7107	0.003
9.74461	0.01
9.77851	0.117
9.81242	0.225
9.84633	0.298
9.88023	0.387
9.91414	0.457
9.94804	0.503
9.98195	0.571
10.0159	0.631
10.0498	0.665
10.0837	0.691
10.1176	0.706
10.1515	0.715
10.1854	0.726
10.2193	0.744
10.2532	0.762
10.2871	0.784
10.321	0.803
10.3549	0.817
10.3888	0.829
10.4227	0.837
10.4566	0.848
10.4905	0.854
10.5244	0.858
10.5584	0.86
10.5923	0.863
10.6262	0.865
10.6601	0.865
10.694	0.863
10.7279	0.863
10.7618	0.861
10.7957	0.858
10.8296	0.854
10.8635	0.851
10.8974	0.848
10.9313	0.843
10.9652	0.839
10.9991	0.837
11.033	0.836
11.0669	0.834
11.1009	0.834
11.1348	0.834
11.1687	0.834
11.2026	0.834
11.2365	0.834
11.2704	0.834
11.3043	0.834
11.3382	0.836
11.3721	0.839
11.406	0.846
11.4399	0.851
11.4738	0.858
11.5077	0.865
11.5416	0.868
11.5755	0.872
11.6094	0.875
11.6434	0.88
11.6773	0.883
11.7112	0.887
11.7451	0.889
11.779	0.89
11.8129	0.892
11.8468	0.894
11.8807	0.899
11.9146	0.901
11.9485	0.901
11.9824	0.902
12.0163	0.902
12.0502	0.902
12.0841	0.902
12.118	0.901
12.1519	0.899
12.1859	0.894
12.2198	0.89
12.2537	0.89
12.2876	0.887
12.3215	0.882
12.3554	0.877
12.3893	0.87
12.4232	0.856
12.4571	0.851
12.491	0.851
12.5249	0.853
12.5588	0.856
12.5927	0.86
12.6266	0.86
12.6605	0.86
12.6944	0.856
12.7284	0.849
12.7623	0.836
12.7962	0.822
12.8301	0.81
12.864	0.788
12.8979	0.762
12.9318	0.723
12.9657	0.677
12.9996	0.597
13.0335	0.517
13.0674	0.435
13.1013	0.348
13.1352	0.254
13.1691	0.196
13.203	0.174
13.2369	0.165
13.2708	0.16
13.3048	0.156
13.3387	0.156
13.3726	0.156
13.4065	0.162
13.4404	0.172
13.4743	0.203
13.5082	0.262
13.5421	0.332
13.576	0.424
13.6099	0.508
13.6438	0.576
13.6777	0.641
13.7116	0.691
13.7455	0.738
13.7794	0.759
13.8133	0.781
13.8473	0.8
13.8812	0.815
13.9151	0.829
13.949	0.837
13.9829	0.848
14.0168	0.849
14.0507	0.849
14.0846	0.851
14.1185	0.854
14.1524	0.861
14.1863	0.863
14.2202	0.863
14.2541	0.863
14.288	0.863
14.3219	0.863
14.3558	0.861
14.3898	0.861
14.4237	0.861
14.4576	0.86
14.4915	0.86
14.5254	0.86
14.5593	0.86
14.5932	0.858
14.6271	0.858
14.661	0.856
14.6949	0.854
14.7288	0.853
14.7627	0.853
14.7966	0.851
14.8305	0.849
14.8644	0.848
14.8983	0.848
14.9323	0.846
14.9662	0.843
15.0001	0.841
15.034	0.839
15.0679	0.841
15.1018	0.843
15.1357	0.841
15.1696	0.841
15.2035	0.843
15.2374	0.843
15.2713	0.843
15.3052	0.843
15.3391	0.839
15.373	0.839
15.4069	0.836
