Infrared Spectrum: 4-Chloro-3-cyanobenzotrifluoride
Formula: C 8 H 3 Cl F 3 N
CAS: 328-87-0
State: gas
Origin: EPA-IR VAPOR PHASE LIBRARY
1/CM	ABSORBANCE
549.8	0.0055
559.445	0.00807
569.09	0.01341
578.735	0.00688
588.38	0.0035
598.025	0.00309
607.67	0.00836
617.315	0.01347
626.96	0.00404
636.605	0.00422
646.251	0.00876
655.896	0.00676
665.541	0.00339
675.186	0.00288
684.831	0.00608
694.476	0.00605
704.121	0.00337
713.766	0.00613
723.411	0.01296
733.056	0.02406
742.701	0.01514
752.346	0.00501
761.991	0.00348
771.636	0.00345
781.281	0.00289
790.926	0.00298
800.571	0.00377
810.216	0.00452
819.861	0.01581
829.507	0.04027
839.152	0.03492
848.797	0.01379
858.442	0.00693
868.087	0.01189
877.732	0.01196
887.377	0.00653
897.022	0.01488
906.667	0.03041
916.312	0.01914
925.957	0.00555
935.602	0.00249
945.247	0.00235
954.892	0.00246
964.537	0.00259
974.182	0.00258
983.827	0.0021617
993.472	0.00228
1003.12	0.00257
1012.76	0.00304
1022.41	0.00377
1032.05	0.00561
1041.7	0.00889
1051.34	0.01914
1060.99	0.02216
1070.63	0.04952
1080.28	0.19941
1089.92	0.22946
1099.57	0.06799
1109.21	0.02387
1118.86	0.02505
1128.5	0.03933
1138.15	0.09778
1147.79	0.29028
1157.44	0.40902
1167.08	0.2448
1176.73	0.25537
1186.37	0.25633
1196.02	0.12172
1205.66	0.05561
1215.31	0.02055
1224.95	0.01501
1234.6	0.01331
1244.24	0.01726
1253.89	0.05393
1263.53	0.09435
1273.18	0.06568
1282.82	0.03842
1292.47	0.02089
1302.11	0.03838
1311.76	0.08995
1321.4	0.31345
1331.05	0.42079
1340.69	0.13709
1350.34	0.04521
1359.98	0.01846
1369.63	0.01126
1379.27	0.0097
1388.92	0.01552
1398.56	0.0299
1408.21	0.03466
1417.85	0.01766
1427.5	0.00839
1437.14	0.00667
1446.79	0.00635
1456.43	0.0055
1466.08	0.01246
1475.73	0.02906
1485.37	0.01949
1495.02	0.00617
1504.66	0.00332
1514.31	0.0020992
1523.95	0.0021222
1533.6	0.0021657
1543.24	0.00281
1552.89	0.00496
1562.53	0.00738
1572.18	0.00847
1581.82	0.00781
1591.47	0.00938
1601.11	0.02237
1610.76	0.04453
1620.4	0.02639
1630.05	0.00606
1639.69	0.00314
1649.34	0.00283
1658.98	0.00411
1668.63	0.00437
1678.27	0.00284
1687.92	0.0019923
1697.56	0.0017525
1707.21	0.001596
1716.85	0.0016256
1726.5	0.0013991
1736.14	0.0016047
1745.79	0.00192
1755.43	0.0018799
1765.08	0.0017179
1774.72	0.0020233
1784.37	0.00333
1794.01	0.00428
1803.66	0.00403
1813.3	0.00444
1822.95	0.00276
1832.59	0.0015318
1842.24	0.0014086
1851.88	0.0013564
1861.53	0.0014549
1871.17	0.0018127
1880.82	0.0020391
1890.46	0.0018601
1900.11	0.0018758
1909.75	0.00286
1919.4	0.00434
1929.04	0.00351
1938.69	0.0015864
1948.33	0.001007
1957.98	0.000915
1967.62	0.000832
1977.27	0.000833
1986.91	0.000862
1996.56	0.000937
2006.2	0.001033
2015.85	0.0011518
2025.49	0.00127692
2035.14	0.0011653
2044.78	0.00126774
2054.43	0.0014915
2064.07	0.0015661
2073.72	0.001108
2083.36	0.000838
2093.01	0.000752
2102.65	0.000744
2112.3	0.000834
2121.94	0.000733
2131.59	0.000855
2141.23	0.000845
2150.88	0.000729
2160.52	0.000684
2170.17	0.000885
2179.81	0.000962
2189.46	0.0012136
2199.1	0.0014768
2208.75	0.0014775
2218.39	0.00134506
2228.04	0.0017742
2237.68	0.0022116
2247.33	0.0018227
2256.97	0.0014598
2266.62	0.0014671
2276.26	0.0014549
2285.91	0.0015845
2295.55	0.0018978
2305.2	0.0020272
2314.84	0.0018319
2324.49	0.0019376
2334.13	0.0019474
2343.78	0.0018951
2353.42	0.0019151
2363.07	0.0014962
2372.72	0.00128441
2382.36	0.001092
2392.01	0.000999
2401.65	0.000715
2411.3	0.000712
2420.94	0.00082
2430.59	0.000704
2440.23	0.000824
2449.88	0.000961
2459.52	0.000971
2469.17	0.00115
2478.81	0.001227
2488.46	0.0011611
2498.1	0.000955
2507.75	0.000702
2517.39	0.00076
2527.04	0.000722
2536.68	0.000805
2546.33	0.000819
2555.97	0.000797
2565.62	0.000815
2575.26	0.00072
2584.91	0.000863
2594.55	0.000777
2604.2	0.000674
2613.84	0.0007
2623.49	0.000637
2633.13	0.000696
2642.78	0.000867
2652.42	0.001094
2662.07	0.000985
2671.71	0.000558
2681.36	0.000521
2691	0.000409
2700.65	0.000446
2710.29	0.000381
2719.94	0.000444
2729.58	0.000472
2739.23	0.000575
2748.87	0.000578
2758.52	0.000516
2768.16	0.000348
2777.81	0.000363
2787.45	0.000255
2797.1	0.000344
2806.74	0.000307
2816.39	0.00023
2826.03	0.00022
2835.68	0.00017
2845.32	0.00025
2854.97	0.000254
2864.61	0.00025
2874.26	0.00022
2883.9	0.000258
2893.55	0.000287
2903.19	0.00025
2912.84	0.000351
2922.48	0.000543
2932.13	0.000883
2941.77	0.000772
2951.42	0.000377
2961.06	0.00011
2970.71	0.00017
2980.35	0.00016
2990	0.00025
2999.64	0.00021
3009.29	0.00021
3018.93	0.0002
3028.58	0.00015
3038.22	0.00016
3047.87	0.000305
3057.51	0.000497
3067.16	0.000586
3076.8	0.000791
3086.45	0.00132808
3096.09	0.000628
3105.74	0.00023
3115.38	0.00011
3125.03	0.0002
3134.67	8e-05
3144.32	0.000267
3153.96	0.00016
3163.61	0.000413
3173.25	0.0002
3182.9	0.000284
3192.54	0.00039
3202.19	0.0002
3211.83	0.000406
3221.48	0.0002
3231.12	6e-05
3240.77	0.000314
3250.41	0.000251
3260.06	0.00024
3269.7	0.00021
3279.35	0.000282
3289	0.0001
3298.64	0.000253
3308.29	0.00017
3317.93	0.000253
3327.58	0.00025
3337.22	0.000298
3346.87	0.000267
3356.51	0.00018
3366.16	0.000303
3375.8	0.000413
3385.45	0.000278
3395.09	0.000354
3404.74	0.000359
3414.38	0.000355
3424.03	0.000389
3433.67	0.000566
3443.32	0.00043
3452.96	0.000375
3462.61	0.00036
3472.25	0.000433
3481.9	0.000268
3491.54	0.00039
3501.19	0.000475
3510.83	0.00025
3520.48	0.000421
3530.12	0.000415
3539.77	0.000513
3549.41	0.000361
3559.06	0.000415
3568.7	0.000459
3578.35	0.000378
3587.99	0.000429
3597.64	0.00025
3607.28	0.000408
3616.93	0.000479
3626.57	0.000371
3636.22	0.00032
3645.86	0.000385
3655.51	0.000413
3665.15	0.000369
3674.8	0.00023
3684.44	0.000346
3694.09	0.000293
3703.73	0.000507
3713.38	0.000376
3723.02	0.000355
3732.67	0.000448
3742.31	0.000339
3751.96	0.000372
3761.6	0.000436
3771.25	0.000444
3780.89	0.000524
3790.54	0.000485
3800.18	0.000581
3809.83	0.000599
3819.47	0.000421
3829.12	0.000338
3838.76	0.000386
3848.41	0.000453
3858.05	0.00037
3867.7	0.000268
3877.34	0.000265
3886.99	0.00014
3896.63	0.0002
3906.28	0.000389
3915.92	0.000331
3925.57	0.000349
3935.21	0.000494
3944.86	0.000448
3954.5	0.000498
3964.15	0.000624
3973.79	0.000456
3983.44	0.000332
3993.08	0.00025
