Infrared Spectrum: m-Xylene, 5-bromo-Alpha,Alpha,Alpha,Alpha',Alpha',Alpha'-hexafluoro-
Formula: C8 H3 Br F6
CAS: 328-70-1
State: SOLUTION (10% CCl4 FOR 3800-1330, 10% CS2 FOR 1330-450 CM^-^1)
Class: COBLENTZ III
Instrument: DOW KBr FOREPRISM-GRATING
Instrument parameters: BLAZED AT 3.5, 12.0, 20.0 MICRON AND CHANGED AT 5.0, 7.5, 14.9 MICRON
Sampling: TRANSMISSION
Path length: 0.011 CM, 0.011 CM
Resolution: 2
Origin: DOW CHEMICAL COMPANY
1/CM	TRANSMITTANCE
3800	0.9101
3791	0.914
3782	0.9094
3773	0.9089
3764	0.9088
3755	0.9098
3746	0.9175
3737	0.93
3728	0.9186
3719	0.9142
3710	0.9153
3701	0.9152
3692	0.9065
3683	0.905
3674	0.9119
3665	0.9181
3656	0.9059
3647	0.9111
3638	0.9072
3629	0.905
3620	0.9086
3611	0.9086
3602	0.9093
3593	0.9085
3584	0.9101
3575	0.9099
3566	0.9111
3557	0.9113
3548	0.9105
3539	0.9091
3530	0.9086
3521	0.9068
3512	0.9061
3503	0.9047
3494	0.9111
3485	0.91
3476	0.9086
3467	0.9072
3458	0.9058
3449	0.907
3440	0.9087
3431	0.9105
3422	0.9119
3413	0.9134
3404	0.9146
3395	0.9148
3386	0.9151
3377	0.9153
3368	0.9151
3359	0.9151
3350	0.9149
3341	0.9149
3332	0.9147
3323	0.9145
3314	0.9143
3305	0.9152
3296	0.9139
3287	0.9135
3278	0.9141
3269	0.9139
3260	0.9135
3251	0.9129
3242	0.9123
3233	0.9116
3224	0.9109
3215	0.9103
3206	0.9084
3197	0.9087
3188	0.9084
3179	0.9064
3170	0.9055
3161	0.905
3152	0.9043
3143	0.9013
3134	0.8989
3125	0.8936
3116	0.8842
3107	0.8649
3098	0.8082
3089	0.7537
3080	0.855
3071	0.8613
3062	0.8502
3053	0.8691
3044	0.8888
3035	0.8979
3026	0.8967
3017	0.9003
3008	0.9009
2999	0.9016
2990	0.9026
2981	0.9011
2972	0.8978
2963	0.8981
2954	0.8984
2945	0.8982
2936	0.8994
2927	0.894
2918	0.8916
2909	0.8933
2900	0.8949
2891	0.8966
2882	0.8988
2873	0.9008
2864	0.9027
2855	0.9039
2846	0.9058
2837	0.9075
2828	0.9075
2819	0.9085
2810	0.9065
2801	0.9056
2792	0.903
2783	0.9002
2774	0.9008
2765	0.9009
2756	0.9013
2747	0.9017
2738	0.9022
2729	0.9027
2720	0.9035
2711	0.904
2702	0.9044
2693	0.9045
2684	0.9049
2675	0.9049
2666	0.9047
2657	0.9055
2648	0.9039
2639	0.9014
2630	0.8974
2621	0.8915
2612	0.8916
2603	0.8944
2594	0.8974
2585	0.8999
2576	0.901
2567	0.9009
2558	0.895
2549	0.8965
2540	0.8967
2531	0.8958
2522	0.8963
2513	0.9016
2504	0.9028
2495	0.9004
2486	0.9002
2477	0.9006
2468	0.8997
2459	0.8989
2450	0.8989
2441	0.9009
2432	0.898
2423	0.8936
2414	0.8943
2405	0.8986
2396	0.8972
2387	0.8951
2378	0.9016
2369	0.9083
2360	0.9088
2351	0.9042
2342	0.9038
2333	0.8995
2324	0.8976
2315	0.8907
2306	0.8835
2297	0.8758
2288	0.867
2279	0.8665
2270	0.8821
2261	0.8863
2252	0.8795
2243	0.8832
2234	0.8893
2225	0.8935
2216	0.8948
2207	0.8951
2198	0.8911
2189	0.8936
2180	0.8982
2171	0.8994
2162	0.8972
2153	0.8963
2144	0.8958
2135	0.8964
2126	0.899
2117	0.9012
2108	0.9015
2099	0.9009
2090	0.899
2081	0.8938
2072	0.8895
2063	0.8907
2054	0.8939
2045	0.8929
2036	0.8905
2027	0.8874
2018	0.8896
2009	0.8873
2000	0.8621
1991	0.8707
1982	0.8659
1973	0.8733
1964	0.8785
1955	0.8786
1946	0.8691
1937	0.8683
1928	0.8757
1919	0.8807
1910	0.8753
1901	0.8754
1892	0.8757
1883	0.8726
1874	0.8767
1865	0.8772
1856	0.8723
1847	0.8756
1838	0.8749
1829	0.8677
1820	0.817
1811	0.8377
1802	0.8216
1793	0.8221
1784	0.8598
1775	0.8742
1766	0.8767
1757	0.8784
1748	0.8793
1739	0.8849
1730	0.8862
1721	0.8861
1712	0.8753
1703	0.8884
1694	0.8783
1685	0.889
1676	0.8864
1667	0.8877
1658	0.8893
1649	0.8881
1640	0.878
1631	0.8596
1622	0.6935
1613	0.8238
1604	0.7684
1595	0.7078
1586	0.7327
1577	0.7397
1568	0.7129
1559	0.6622
1550	0.7084
1541	0.7824
1532	0.7864
1523	0.8111
1514	0.8139
1505	0.8309
1496	0.8451
1487	0.8509
1478	0.8489
1469	0.8597
1460	0.8239
1451	0.7707
1442	0.8647
1433	0.8498
1424	0.8599
1415	0.8465
1406	0.777
1397	0.7688
1388	0.8033
1379	0.805
1370	0.4983
1361	0.4202
1352	0.0046
1343	0.0505
1334	0.4341
1325	0.4425
1316	0.5317
1307	0.7128
1298	0.6289
1289	0.3654
1280	0.0032
1271	0.204
1262	0.1591
1253	0.6671
1244	0.7763
1235	0.772
1226	0.6998
1217	0.6627
1208	0.5508
1199	0.3474
1190	0.0564
1181	0
1172	0.025
1163	0.2012
1154	0.0135
1145	0.0001
1136	0.0063
1127	0.449
1118	0.5739
1109	0.4446
1100	0.3582
1091	0.7351
1082	0.6993
1073	0.8142
1064	0.9075
1055	0.9518
1046	0.9409
1037	0.9523
1028	0.8163
1019	0.9491
1010	0.9277
1001	0.9609
992	0.9651
983	0.9683
974	0.9697
965	0.97
956	0.9674
947	0.9633
938	0.9577
929	0.9473
920	0.9244
911	0.765
902	0.8232
893	0.5443
884	0.4797
875	0.8703
866	0.8852
857	0.8551
848	0.7682
839	0.7638
830	0.8359
821	0.9194
812	0.9205
803	0.8824
794	0.2054
785	0.9285
776	0.939
767	0.9532
758	0.9428
749	0.9473
740	0.9489
731	0.9379
722	0.9256
713	0.8606
704	0.0869
695	0.4754
686	0.533
677	0.687
668	0.9473
659	0.9136
650	0.9265
641	0.9581
632	0.9608
623	0.9585
614	0.9586
605	0.952
596	0.9517
587	0.9427
578	0.9585
569	0.9587
560	0.9578
551	0.9525
542	0.9478
533	0.9445
524	0.9359
515	0.9135
506	0.8495
497	0.9142
488	0.9122
479	0.889
470	0.8912
461	0.8847
