Infrared Spectrum: 3-Methoxy-5-nitrobenzotrifluoride
Formula: C 8 H 6 F 3 N O 3
CAS: 328-79-0
State: gas
Origin: EPA-IR VAPOR PHASE LIBRARY
1/CM	ABSORBANCE
549.8	0.002942
559.445	0.003522
569.09	0.002672
578.734	0.002712
588.379	0.0012907
598.024	0.00098931
607.669	0.0014131
617.313	0.0012858
626.958	0.0019488
636.603	0.002442
646.248	0.002312
655.893	0.0014954
665.537	0.002302
675.182	0.004762
684.827	0.023102
694.472	0.058422
704.116	0.030112
713.761	0.004352
723.406	0.002722
733.051	0.005432
742.695	0.014432
752.34	0.011782
761.985	0.018362
771.63	0.044072
781.275	0.018682
790.919	0.005282
800.564	0.002832
810.209	0.002482
819.854	0.001717
829.498	0.002152
839.143	0.002962
848.788	0.003712
858.433	0.009062
868.078	0.027582
877.722	0.045112
887.367	0.040422
897.012	0.024972
906.657	0.014472
916.301	0.013792
925.946	0.008472
935.591	0.004822
945.236	0.003432
954.88	0.002702
964.525	0.003052
974.17	0.003282
983.815	0.004552
993.46	0.006282
1003.1	0.006432
1012.75	0.007352
1022.39	0.013592
1032.04	0.031372
1041.68	0.073272
1051.33	0.110612
1060.97	0.061682
1070.62	0.021672
1080.26	0.023132
1089.91	0.045092
1099.55	0.054012
1109.2	0.036832
1118.84	0.021112
1128.49	0.024322
1138.13	0.057902
1147.78	0.174062
1157.42	0.253132
1167.07	0.100642
1176.71	0.131962
1186.36	0.191182
1196	0.077162
1205.64	0.028232
1215.29	0.028292
1224.93	0.049972
1234.58	0.088532
1244.22	0.075072
1253.87	0.048852
1263.51	0.036042
1273.16	0.019672
1282.8	0.020582
1292.45	0.034232
1302.09	0.080252
1311.74	0.142752
1321.38	0.215722
1331.03	0.289512
1340.67	0.171272
1350.32	0.127032
1359.96	0.146792
1369.61	0.082902
1379.25	0.037422
1388.9	0.025802
1398.54	0.022772
1408.18	0.020082
1417.83	0.023962
1427.47	0.040862
1437.12	0.055432
1446.76	0.054112
1456.41	0.063662
1466.05	0.061762
1475.7	0.057482
1485.34	0.032692
1494.99	0.021522
1504.63	0.024222
1514.28	0.029602
1523.92	0.027502
1533.57	0.031962
1543.21	0.072162
1552.86	0.188142
1562.5	0.197172
1572.15	0.059632
1581.79	0.037692
1591.44	0.045332
1601.08	0.040052
1610.73	0.022532
1620.37	0.018252
1630.01	0.017312
1639.66	0.013682
1649.3	0.010052
1658.95	0.007042
1668.59	0.005382
1678.24	0.004352
1687.88	0.003302
1697.53	0.002552
1707.17	0.002622
1716.82	0.002622
1726.46	0.003192
1736.11	0.003832
1745.75	0.003782
1755.4	0.003672
1765.04	0.004202
1774.69	0.004772
1784.33	0.005022
1793.98	0.004412
1803.62	0.003372
1813.27	0.002422
1822.91	0.0019099
1832.55	0.001755
1842.2	0.0018002
1851.84	0.0016258
1861.49	0.0018593
1871.13	0.0018451
1880.78	0.0014972
1890.42	0.0016032
1900.07	0.0016623
1909.71	0.0014596
1919.36	0.001478
1929	0.0017754
1938.65	0.001473
1948.29	0.0017196
1957.94	0.0019312
1967.58	0.002012
1977.23	0.0017872
1986.87	0.0016926
1996.52	0.0017138
2006.16	0.0017957
2015.81	0.0017654
2025.45	0.001992
2035.1	0.002032
2044.74	0.0018811
2054.38	0.0018089
2064.03	0.0016187
2073.67	0.0018711
2083.32	0.002142
2092.96	0.002462
2102.61	0.003182
2112.25	0.002782
2121.9	0.002172
2131.54	0.0017301
2141.19	0.0018747
2150.83	0.002052
2160.48	0.0019205
2170.12	0.002062
2179.77	0.0017377
2189.41	0.0016806
2199.06	0.0019126
2208.7	0.0015995
2218.35	0.0014096
2227.99	0.0013115
2237.64	0.0016437
2247.28	0.0018031
2256.92	0.0014971
2266.57	0.0018011
2276.21	0.0018166
2285.86	0.0017159
2295.5	0.0019584
2305.15	0.0017503
2314.79	0.0018248
2324.44	0.002032
2334.08	0.0019663
2343.73	0.0019078
2353.37	0.0015816
2363.02	0.0019043
2372.66	0.0018419
2382.31	0.0017643
2391.95	0.0015812
2401.6	0.0017527
2411.24	0.0016858
2420.89	0.0017765
2430.53	0.0019312
2440.18	0.0014965
2449.82	0.0013713
2459.47	0.0016008
2469.11	0.0015534
2478.75	0.002072
2488.4	0.002252
2498.04	0.001966
2507.69	0.0017871
2517.33	0.001739
2526.98	0.0013419
2536.62	0.0016982
2546.27	0.0019413
2555.91	0.002042
2565.56	0.002352
2575.2	0.001992
2584.85	0.002032
2594.49	0.0015735
2604.14	0.0018295
2613.78	0.0017042
2623.43	0.0018558
2633.07	0.0018419
2642.72	0.002302
2652.36	0.002392
2662.01	0.002032
2671.65	0.002192
2681.29	0.002102
2690.94	0.0018884
2700.58	0.0017199
2710.23	0.0018054
2719.87	0.0017494
2729.52	0.0013665
2739.16	0.00104801
2748.81	0.0012418
2758.45	0.001266
2768.1	0.0013012
2777.74	0.0014064
2787.39	0.0017024
2797.03	0.0019692
2806.68	0.002252
2816.32	0.002602
2825.97	0.003222
2835.61	0.004952
2845.26	0.008922
2854.9	0.011142
2864.55	0.008092
2874.19	0.006912
2883.84	0.007902
2893.48	0.007812
2903.12	0.008372
2912.77	0.008722
2922.41	0.008932
2932.06	0.008952
2941.7	0.012302
2951.35	0.018802
2960.99	0.016132
2970.64	0.015032
2980.28	0.010752
2989.93	0.006172
2999.57	0.005982
3009.22	0.008542
3018.86	0.013842
3028.51	0.010282
3038.15	0.004622
3047.8	0.003542
3057.44	0.003012
3067.09	0.002732
3076.73	0.003382
3086.38	0.003632
3096.02	0.007042
3105.67	0.011082
3115.31	0.008352
3124.95	0.003122
3134.6	0.0018611
3144.24	0.00105244
3153.89	0.0018716
3163.53	0.0011583
3173.18	0.0014948
3182.82	0.0011035
3192.47	0.00137
3202.11	0.0010865
3211.76	0.0011142
3221.4	0.001841
3231.05	0.001284
3240.69	0.0010056
3250.34	0.00104679
3259.98	0.00105943
3269.63	0.000691
3279.27	0.0009598
3288.92	0.0008987
3298.56	0.0008866
3308.21	0.000714
3317.85	0.000584
3327.49	0.00075
3337.14	0.0009109
3346.78	0.0009298
3356.43	0.000721
3366.07	0.000561
3375.72	0.00105932
3385.36	0.000749
3395.01	0.0011305
3404.65	0.000731
3414.3	0.00075
3423.94	0.000675
3433.59	0.0013472
3443.23	0.0011623
3452.88	0.000704
3462.52	0.000863
3472.17	0.000958
3481.81	0.000736
3491.46	0.000602
3501.1	0.000726
3510.75	0.000379
3520.39	0.000615
3530.04	0.0013901
3539.68	0.000608
3549.32	0.000812
3558.97	0.000713
3568.61	0.00101641
3578.26	0.0009179
3587.9	0.00052
3597.55	0.0009279
3607.19	0.000288
3616.84	0.000736
3626.48	0.00107195
3636.13	0.000249
3645.77	0.000488
3655.42	0.000677
3665.06	0.000766
3674.71	0.0012222
3684.35	0.000636
3694	0.0009266
3703.64	0.0010629
3713.29	0.0014195
3722.93	0.0010854
3732.58	0.00100879
3742.22	0.000505
3751.86	0.0009606
3761.51	0.00098242
3771.15	0.0010788
3780.8	0.000733
3790.44	0.000554
3800.09	0.0011965
3809.73	0.000479
3819.38	0.000243
3829.02	0.000592
3838.67	0.000732
3848.31	0.0009019
3857.96	0.00100149
3867.6	0.0015038
3877.25	0.000287
3886.89	0.000764
3896.54	0.000828
3906.18	0.0009362
3915.83	0.000807
3925.47	0.000456
3935.12	0.000505
3944.76	0.000397
3954.41	0.0012884
3964.05	0.0015121
3973.69	0.0009344
3983.34	0.00102582
3992.98	0.0018957
