Infrared Spectrum: GLUTAMIC ANHYDRIDE, N-(TRIFLUOROACETYL)-
Formula: C7 H6 F3 N O4
CAS: 328-13-2
State: SOLID (0.9 mg / 650 mg, KBr DISC)
Class: COBLENTZ III
Instrument: PERKIN-ELMER 21 (GRATING)
Instrument parameters: FILTER CHANGE AT ABOUT 1090 CM^-^1
Sampling: TRANSMISSION
Resolution: 2
Origin: SOUTHERN RESEARCH INSTITUTE
1/CM	TRANSMITTANCE
606.108	0.858
614.378	0.848
622.648	0.841
630.918	0.823
639.188	0.8111
647.458	0.795
655.728	0.7722
663.998	0.7166
672.268	0.697
680.538	0.7227
688.808	0.74
697.078	0.7351
705.348	0.7241
713.618	0.7111
721.888	0.6982
730.159	0.6523
738.429	0.6684
746.699	0.7554
754.969	0.764
763.239	0.7423
771.509	0.7449
779.779	0.7341
788.049	0.7609
796.319	0.7738
804.589	0.772
812.859	0.771
821.129	0.7827
829.399	0.785
837.669	0.784
845.939	0.775
854.209	0.7693
862.479	0.731
870.749	0.7374
879.019	0.7679
887.289	0.7723
895.559	0.7351
903.829	0.6854
912.099	0.6648
920.369	0.741
928.639	0.7188
936.909	0.6932
945.179	0.726
953.449	0.7308
961.719	0.7059
969.99	0.6558
978.26	0.5611
986.53	0.5616
994.8	0.6467
1003.07	0.689
1011.34	0.6772
1019.61	0.6225
1027.88	0.5047
1036.15	0.3396
1044.42	0.3584
1052.69	0.5204
1060.96	0.5205
1069.23	0.4348
1077.5	0.2603
1085.77	0.251
1094.04	0.285
1102.31	0.344
1110.58	0.4619
1118.85	0.5161
1127.12	0.5471
1135.39	0.5386
1143.66	0.4879
1151.93	0.3886
1160.2	0.2457
1168.47	0.2064
1176.74	0.1943
1185.01	0.1817
1193.28	0.1806
1201.55	0.2029
1209.82	0.2077
1218.09	0.2
1226.36	0.2125
1234.63	0.2372
1242.9	0.2813
1251.17	0.3267
1259.44	0.3723
1267.71	0.4278
1275.98	0.4846
1284.25	0.5128
1292.52	0.5226
1300.79	0.5306
1309.06	0.5304
1317.33	0.524
1325.6	0.5281
1333.87	0.524
1342.14	0.5357
1350.41	0.5587
1358.68	0.5765
1366.95	0.5975
1375.22	0.6035
1383.49	0.605
1391.76	0.6025
1400.03	0.5929
1408.3	0.581
1416.57	0.5615
1424.84	0.5721
1433.11	0.5865
1441.38	0.626
1449.65	0.631
1457.92	0.632
1466.19	0.635
1474.46	0.643
1482.73	0.7029
1491	0.7225
1499.27	0.727
1507.54	0.7235
1515.81	0.7142
1524.08	0.6808
1532.35	0.6505
1540.62	0.5901
1548.89	0.497
1557.16	0.45
1565.43	0.447
1573.7	0.4795
1581.97	0.5323
1590.24	0.5805
1598.51	0.6
1606.78	0.598
1615.05	0.5812
1623.32	0.5544
1631.59	0.5239
1639.86	0.5029
1648.13	0.4876
1656.4	0.4816
1664.67	0.4756
1672.94	0.4626
1681.21	0.4378
1689.48	0.3996
1697.75	0.3354
1706.02	0.1995
1714.29	0.1607
1722.56	0.164
1730.83	0.2003
1739.1	0.245
1747.37	0.2893
1755.64	0.2818
1763.91	0.2438
1772.18	0.2515
1780.45	0.3166
1788.72	0.418
1796.99	0.47
1805.26	0.4066
1813.53	0.356
1821.8	0.3856
1830.07	0.5054
1838.34	0.5741
1846.61	0.6148
1854.88	0.6418
1863.15	0.6587
1871.42	0.6682
1879.69	0.6762
1887.96	0.684
1896.23	0.69
1904.5	0.6962
1912.77	0.7022
1921.04	0.704
1929.31	0.7082
1937.58	0.709
1945.85	0.712
1954.12	0.7152
1962.39	0.716
1970.66	0.7184
1978.93	0.7224
1987.2	0.728
1995.47	0.729
2003.74	0.73
2012.01	0.727
2020.28	0.728
2028.55	0.735
2036.82	0.7372
2045.09	0.74
2053.36	0.74
2061.63	0.7412
2069.9	0.743
2078.17	0.743
2086.44	0.744
2094.71	0.7482
2102.98	0.748
2111.25	0.747
2119.52	0.754
2127.79	0.756
2136.06	0.757
2144.33	0.757
2152.6	0.757
2160.87	0.7572
2169.14	0.758
2177.41	0.7583
2185.68	0.764
2193.95	0.767
2202.22	0.7647
2210.49	0.7632
2218.76	0.767
2227.03	0.768
2235.3	0.763
2243.57	0.761
2251.84	0.76
2260.11	0.76
2268.38	0.761
2276.66	0.763
2284.93	0.7618
2293.2	0.761
2301.47	0.763
2309.74	0.7618
2318.01	0.7602
2326.28	0.7632
2334.55	0.7628
2342.82	0.76
2351.09	0.757
2359.36	0.7552
2367.63	0.7537
2375.9	0.749
2384.17	0.748
2392.44	0.747
2400.71	0.745
2408.98	0.7438
2417.25	0.742
2425.52	0.741
2433.79	0.74
2442.06	0.741
2450.33	0.74
2458.6	0.737
2466.87	0.736
2475.14	0.737
2483.41	0.737
2491.68	0.7368
2499.95	0.734
2508.22	0.73
2516.49	0.728
2524.76	0.728
2533.03	0.727
2541.3	0.725
2549.57	0.724
2557.84	0.721
2566.11	0.721
2574.38	0.7202
2582.65	0.7232
2590.92	0.727
2599.19	0.723
2607.46	0.7242
2615.73	0.7238
2624	0.7212
2632.27	0.722
2640.54	0.722
2648.81	0.722
2657.08	0.722
2665.35	0.722
2673.62	0.722
2681.89	0.722
2690.16	0.7197
2698.43	0.7148
2706.7	0.712
2714.97	0.7123
2723.24	0.714
2731.51	0.714
2739.78	0.714
2748.05	0.712
2756.32	0.7108
2764.59	0.705
2772.86	0.7
2781.13	0.6918
2789.4	0.688
2797.67	0.683
2805.94	0.678
2814.21	0.6638
2822.48	0.6568
2830.75	0.6498
2839.02	0.6448
2847.29	0.6358
2855.56	0.6248
2863.83	0.616
2872.1	0.6118
2880.37	0.6088
2888.64	0.6037
2896.91	0.5937
2905.18	0.588
2913.45	0.585
2921.72	0.584
2929.99	0.584
2938.26	0.584
2946.53	0.587
2954.8	0.588
2963.07	0.589
2971.34	0.59
2979.61	0.589
2987.88	0.588
2996.15	0.5867
3004.42	0.58
3012.69	0.5768
3020.96	0.571
3029.23	0.567
3037.5	0.563
3045.77	0.5597
3054.04	0.5537
3062.31	0.548
3070.58	0.547
3078.85	0.545
3087.12	0.545
3095.39	0.5492
3103.66	0.555
3111.93	0.558
3120.2	0.558
3128.47	0.558
3136.74	0.5557
3145.01	0.5478
3153.28	0.5408
3161.55	0.5337
3169.82	0.5278
3178.09	0.5208
3186.36	0.5158
3194.63	0.5137
3202.9	0.5067
3211.17	0.4978
3219.44	0.484
3227.71	0.4758
3235.98	0.467
3244.25	0.4597
3252.52	0.4437
3260.79	0.4368
3269.06	0.432
3277.33	0.43
3285.6	0.4228
3293.87	0.4137
3302.14	0.409
3310.41	0.408
3318.68	0.4078
3326.95	0.407
3335.22	0.407
3343.49	0.407
3351.76	0.407
3360.03	0.407
3368.3	0.409
3376.57	0.4112
3384.84	0.417
3393.11	0.4232
3401.38	0.4292
3409.65	0.4402
3417.92	0.4502
3426.19	0.4612
3434.46	0.4682
3442.73	0.4809
3451	0.5013
3459.27	0.5112
3467.54	0.5212
3475.81	0.5282
3484.08	0.5363
3492.35	0.5472
3500.62	0.5562
3508.89	0.5642
3517.16	0.5755
3525.43	0.5853
3533.7	0.591
3541.97	0.5962
3550.24	0.6032
3558.51	0.6185
3566.78	0.6302
3575.05	0.6442
3583.32	0.6523
3591.59	0.6602
3599.86	0.6692
3608.13	0.6748
3616.4	0.6772
3624.67	0.6842
3632.94	0.6912
3641.21	0.6962
3649.48	0.702
3657.75	0.708
3666.02	0.71
3674.29	0.711
3682.56	0.711
3690.83	0.711
3699.1	0.711
3707.37	0.712
3715.64	0.7162
3723.91	0.722
3732.18	0.724
3740.45	0.725
3748.72	0.725
3756.99	0.725
3765.26	0.7208
3773.53	0.718
3781.8	0.718
3790.07	0.7172
3798.34	0.718
