Infrared Spectrum: 3-Morpholinopropyl isothiocyanate
Formula: C 8 H 14 N 2 O S
CAS: 32813-50-6
State: gas
Origin: EPA-IR VAPOR PHASE LIBRARY
1/CM	ABSORBANCE
549.8	0.008336
559.445	0.007726
569.09	0.007666
578.734	0.006506
588.379	0.006006
598.024	0.005806
607.669	0.008676
617.313	0.009376
626.958	0.007706
636.603	0.005426
646.248	0.004706
655.893	0.004776
665.537	0.004316
675.182	0.003676
684.827	0.003266
694.472	0.004016
704.116	0.004876
713.761	0.004276
723.406	0.003646
733.051	0.003696
742.695	0.005896
752.34	0.009746
761.985	0.009896
771.63	0.006926
781.275	0.005786
790.919	0.004946
800.564	0.004986
810.209	0.004196
819.854	0.003946
829.498	0.003816
839.143	0.004796
848.788	0.006856
858.433	0.013796
868.078	0.025356
877.722	0.025076
887.367	0.012606
897.012	0.007366
906.657	0.008006
916.301	0.009386
925.946	0.006426
935.591	0.005236
945.236	0.005976
954.88	0.008766
964.525	0.010806
974.17	0.010996
983.815	0.011166
993.46	0.013956
1003.1	0.021726
1012.75	0.023816
1022.39	0.018666
1032.04	0.017296
1041.68	0.012296
1051.33	0.009516
1060.97	0.011766
1070.62	0.015526
1080.26	0.014876
1089.91	0.015656
1099.55	0.025086
1109.2	0.049396
1118.84	0.092456
1128.49	0.105926
1138.13	0.086506
1147.78	0.061786
1157.42	0.028526
1167.07	0.014266
1176.71	0.009086
1186.36	0.006916
1196	0.006946
1205.64	0.007836
1215.29	0.008536
1224.93	0.009216
1234.58	0.011176
1244.22	0.013026
1253.87	0.015336
1263.51	0.021856
1273.16	0.029796
1282.8	0.028406
1292.45	0.025866
1302.09	0.031056
1311.74	0.032106
1321.38	0.030536
1331.03	0.039716
1340.67	0.052516
1350.32	0.053706
1359.96	0.048166
1369.61	0.037326
1379.25	0.023896
1388.9	0.015296
1398.54	0.013086
1408.18	0.009116
1417.83	0.007046
1427.47	0.009136
1437.12	0.016836
1446.76	0.033646
1456.41	0.047586
1466.05	0.034956
1475.7	0.014526
1485.34	0.006436
1494.99	0.003816
1504.63	0.002646
1514.28	0.002186
1523.92	0.001746
1533.57	0.001626
1543.21	0.001386
1552.86	0.001296
1562.5	0.001176
1572.15	0.0011242
1581.79	0.0009825
1591.44	0.0010023
1601.08	0.0009298
1610.73	0.0008491
1620.37	0.0008716
1630.01	0.0008748
1639.66	0.0008737
1649.3	0.000892
1658.95	0.0008124
1668.59	0.0007674
1678.24	0.0007591
1687.88	0.0008088
1697.53	0.0008095
1707.17	0.000977
1716.82	0.0010669
1726.46	0.0011432
1736.11	0.0011152
1745.75	0.001206
1755.4	0.001206
1765.04	0.001256
1774.69	0.001336
1784.33	0.001246
1793.98	0.001236
1803.62	0.001256
1813.27	0.001356
1822.91	0.001496
1832.55	0.001696
1842.2	0.001876
1851.84	0.002336
1861.49	0.002756
1871.13	0.003386
1880.78	0.004196
1890.42	0.005276
1900.07	0.006566
1909.71	0.008076
1919.36	0.010036
1929	0.012446
1938.65	0.015426
1948.29	0.019156
1957.94	0.023916
1967.58	0.030596
1977.23	0.040066
1986.87	0.052756
1996.52	0.070656
2006.16	0.095726
2015.81	0.130136
2025.45	0.177496
2035.1	0.237416
2044.74	0.299266
2054.38	0.338916
2064.03	0.337086
2073.67	0.297216
2083.32	0.236576
2092.96	0.180406
2102.61	0.144646
2112.25	0.119016
2121.9	0.095366
2131.54	0.078476
2141.19	0.067946
2150.83	0.060206
2160.48	0.053516
2170.12	0.049656
2179.77	0.048156
2189.41	0.047416
2199.06	0.045066
2208.7	0.039226
2218.35	0.030966
2227.99	0.023366
2237.64	0.017906
2247.28	0.014206
2256.92	0.011336
2266.57	0.009206
2276.21	0.007526
2285.86	0.006146
2295.5	0.005216
2305.15	0.004376
2314.79	0.003786
2324.44	0.003246
2334.08	0.002796
2343.73	0.002476
2353.37	0.002176
2363.02	0.002046
2372.66	0.001906
2382.31	0.001746
2391.95	0.001656
2401.6	0.001576
2411.24	0.001566
2420.89	0.001496
2430.53	0.001516
2440.18	0.001436
2449.82	0.001446
2459.47	0.001526
2469.11	0.001656
2478.75	0.001726
2488.4	0.001636
2498.04	0.001976
2507.69	0.001936
2517.33	0.002036
2526.98	0.001916
2536.62	0.002066
2546.27	0.002206
2555.91	0.002426
2565.56	0.002556
2575.2	0.002706
2584.85	0.002656
2594.49	0.002906
2604.14	0.003046
2613.78	0.003156
2623.43	0.003336
2633.07	0.003606
2642.72	0.004406
2652.36	0.005526
2662.01	0.006936
2671.65	0.008366
2681.29	0.010446
2690.94	0.011966
2700.58	0.012256
2710.23	0.012786
2719.87	0.014346
2729.52	0.016566
2739.16	0.018656
2748.81	0.020726
2758.45	0.024296
2768.1	0.028056
2777.74	0.031316
2787.39	0.037096
2797.03	0.050706
2806.68	0.075046
2816.32	0.083166
2825.97	0.066436
2835.61	0.047326
2845.26	0.041996
2854.9	0.062276
2864.55	0.077706
2874.19	0.056426
2883.84	0.046546
2893.48	0.045736
2903.12	0.046176
2912.77	0.045416
2922.41	0.052726
2932.06	0.065686
2941.7	0.079696
2951.35	0.091716
2960.99	0.102236
2970.64	0.115746
2980.28	0.058146
2989.93	0.017696
2999.57	0.008426
3009.22	0.005046
3018.86	0.003396
3028.51	0.002606
3038.15	0.002096
3047.8	0.001676
3057.44	0.001516
3067.09	0.001296
3076.73	0.0011208
3086.38	0.0008709
3096.02	0.0009388
3105.67	0.0008829
3115.31	0.0007373
3124.95	0.0009488
3134.6	0.0007499
3144.24	0.0007197
3153.89	0.0005877
3163.53	0.0006124
3173.18	0.0006668
3182.82	0.0005984
3192.47	0.000605
3202.11	0.0006284
3211.76	0.000592
3221.4	0.0005533
3231.05	0.0005312
3240.69	0.0004468
3250.34	0.0003987
3259.98	0.0003715
3269.63	0.00018301
3279.27	0.0003006
3288.92	0.00020727
3298.56	0.0004286
3308.21	0.0002684
3317.85	0.0001546
3327.49	0.0002992
3337.14	0.0003193
3346.78	0.0003831
3356.43	0.0003541
3366.07	0.00022557
3375.72	0.0003001
3385.36	0.0003388
3395.01	0.0004311
3404.65	0.0003137
3414.3	0.0003089
3423.94	0.0003331
3433.59	0.0002819
3443.23	0.0001064
3452.88	0.000395
3462.52	0.0002551
3472.17	0.0003727
3481.81	0.0002755
3491.46	0.00025329
3501.1	0
3510.75	0.00021175
3520.39	0.00011
3530.04	0.000359
3539.68	0.0001422
3549.32	0.00019694
3558.97	0.000293
3568.61	0.00021925
3578.26	0.0003612
3587.9	0.0004702
3597.55	0.00017126
3607.19	0.00020672
3616.84	9e-06
3626.48	0.0002228
3636.13	0.00019741
3645.77	0.00018261
3655.42	0.0004386
3665.06	0.0003268
3674.71	0.0003301
3684.35	0.0004244
3694	0.0003919
3703.64	0.0001221
3713.29	0.0003175
3722.93	0.0004613
3732.58	0.00023046
3742.22	0.0003978
3751.86	0.0003296
3761.51	0.0005355
3771.15	0.0003764
3780.8	0.0004471
3790.44	0.0005161
3800.09	0.0005146
3809.73	0.000554
3819.38	0.0005884
3829.02	0.0008029
3838.67	0.0005955
3848.31	0.0007049
3857.96	0.0006909
3867.6	0.0006415
3877.25	0.0007604
3886.89	0.0008369
3896.54	0.0008482
3906.18	0.0008113
3915.83	0.0009532
3925.47	0.0009605
3935.12	0.001426
3944.76	0.001346
3954.41	0.001466
3964.05	0.001606
3973.69	0.001736
3983.34	0.002086
3992.98	0.002036
