Infrared Spectrum: PENTANECARBOXYLIC ACID, 3-HYDROXY-, METHYL ESTER
Formula: C7 H12 O3
CAS: 32811-76-0
State: LIQUID (NEAT)
Class: COBLENTZ III
Instrument: PERKIN-ELMER 21 (GRATING)
Instrument parameters: FILTER CHANGE AT 1025 CM^-^1
Sampling: TRANSMISSION
Path length: CAPILLARY
Resolution: 2
Origin: SOUTHERN RESEARCH INSTITUTE (W.C. COBURN, JR.)
1/CM	TRANSMITTANCE
607.792	0.514
616.824	0.514
625.857	0.514
634.889	0.516
643.921	0.516
652.953	0.5205
661.986	0.5255
671.018	0.535
680.05	0.5506
689.082	0.5658
698.115	0.5821
707.147	0.608
716.179	0.6279
725.211	0.6444
734.244	0.6544
743.276	0.656
752.308	0.659
761.34	0.6617
770.373	0.6797
779.405	0.7081
788.437	0.708
797.469	0.709
806.502	0.709
815.534	0.709
824.566	0.706
833.598	0.6913
842.631	0.688
851.663	0.6918
860.695	0.7082
869.727	0.7411
878.76	0.759
887.792	0.7498
896.824	0.7189
905.856	0.687
914.889	0.6541
923.921	0.6592
932.953	0.7042
941.985	0.718
951.018	0.6999
960.05	0.6438
969.082	0.6477
978.114	0.6666
987.147	0.6013
996.179	0.5209
1005.21	0.46
1014.24	0.454
1023.28	0.4975
1032.31	0.5459
1041.34	0.5423
1050.37	0.4969
1059.4	0.4795
1068.44	0.4943
1077.47	0.4445
1086.5	0.4
1095.53	0.4328
1104.57	0.5302
1113.6	0.6483
1122.63	0.65
1131.66	0.6322
1140.69	0.5503
1149.73	0.4042
1158.76	0.2816
1167.79	0.233
1176.82	0.22
1185.86	0.2351
1194.89	0.2154
1203.92	0.165
1212.95	0.1829
1221.99	0.2105
1231.02	0.2863
1240.05	0.3317
1249.08	0.3546
1258.11	0.385
1267.15	0.3776
1276.18	0.366
1285.21	0.3802
1294.24	0.4046
1303.28	0.415
1312.31	0.4789
1321.34	0.527
1330.37	0.5076
1339.4	0.4507
1348.44	0.427
1357.47	0.427
1366.5	0.4312
1375.53	0.4678
1384.57	0.5687
1393.6	0.627
1402.63	0.633
1411.66	0.6121
1420.69	0.5922
1429.73	0.542
1438.76	0.2999
1447.79	0.3425
1456.82	0.4428
1465.86	0.5151
1474.89	0.5786
1483.92	0.6792
1492.95	0.7274
1501.99	0.7536
1511.02	0.7629
1520.05	0.7744
1529.08	0.79
1538.11	0.7913
1547.15	0.798
1556.18	0.795
1565.21	0.8018
1574.24	0.8002
1583.28	0.801
1592.31	0.8
1601.34	0.7999
1610.37	0.798
1619.4	0.798
1628.44	0.796
1637.47	0.795
1646.5	0.7872
1655.53	0.7775
1664.57	0.7519
1673.6	0.7096
1682.63	0.6492
1691.66	0.5628
1700.69	0.311
1709.73	0.1387
1718.76	0.099
1727.79	0.09
1736.82	0.1309
1745.86	0.3164
1754.89	0.556
1763.92	0.679
1772.95	0.7375
1781.98	0.7614
1791.02	0.7833
1800.05	0.7931
1809.08	0.8
1818.11	0.802
1827.15	0.809
1836.18	0.807
1845.21	0.814
1854.24	0.815
1863.28	0.815
1872.31	0.818
1881.34	0.818
1890.37	0.8184
1899.4	0.819
1908.44	0.819
1917.47	0.819
1926.5	0.819
1935.53	0.819
1944.57	0.8193
1953.6	0.819
1962.63	0.819
1971.66	0.82
1980.69	0.82
1989.73	0.82
1998.76	0.818
2007.79	0.818
2016.82	0.818
2025.86	0.818
2034.89	0.818
2043.92	0.818
2052.95	0.818
2061.98	0.816
2071.02	0.816
2080.05	0.816
2089.08	0.815
2098.11	0.818
2107.15	0.816
2116.18	0.818
2125.21	0.82
2134.24	0.82
2143.27	0.82
2152.31	0.82
2161.34	0.822
2170.37	0.823
2179.4	0.824
2188.44	0.824
2197.47	0.824
2206.5	0.825
2215.53	0.825
2224.57	0.825
2233.6	0.825
2242.63	0.825
2251.66	0.824
2260.69	0.823
2269.73	0.822
2278.76	0.822
2287.79	0.82
2296.82	0.816
2305.86	0.815
2314.89	0.815
2323.92	0.815
2332.95	0.815
2341.98	0.815
2351.02	0.815
2360.05	0.822
2369.08	0.822
2378.11	0.819
2387.15	0.8179
2396.18	0.816
2405.21	0.8161
2414.24	0.816
2423.27	0.816
2432.31	0.815
2441.34	0.816
2450.37	0.816
2459.4	0.8161
2468.44	0.815
2477.47	0.815
2486.5	0.814
2495.53	0.814
2504.57	0.813
2513.6	0.81
2522.63	0.81
2531.66	0.807
2540.69	0.806
2549.73	0.807
2558.76	0.805
2567.79	0.802
2576.82	0.802
2585.86	0.802
2594.89	0.801
2603.92	0.801
2612.95	0.801
2621.98	0.801
2631.02	0.8
2640.05	0.8
2649.08	0.8
2658.11	0.8
2667.15	0.801
2676.18	0.801
2685.21	0.802
2694.24	0.7999
2703.27	0.795
2712.31	0.795
2721.34	0.793
2730.37	0.793
2739.4	0.795
2748.44	0.793
2757.47	0.792
2766.5	0.788
2775.53	0.783
2784.56	0.774
2793.6	0.765
2802.63	0.7459
2811.66	0.7219
2820.69	0.701
2829.73	0.6719
2838.76	0.6357
2847.79	0.6038
2856.82	0.5725
2865.86	0.5369
2874.89	0.5239
2883.92	0.5089
2892.95	0.4979
2901.98	0.4799
2911.02	0.459
2920.05	0.4228
2929.08	0.3768
2938.11	0.3389
2947.15	0.332
2956.18	0.339
2965.21	0.3713
2974.24	0.4437
2983.27	0.5325
2992.31	0.6053
3001.34	0.6581
3010.37	0.6881
3019.4	0.7101
3028.44	0.74
3037.47	0.758
3046.5	0.7661
3055.53	0.7701
3064.56	0.772
3073.6	0.77
3082.63	0.77
3091.66	0.768
3100.69	0.766
3109.73	0.766
3118.76	0.76
3127.79	0.752
3136.82	0.743
3145.86	0.732
3154.89	0.72
3163.92	0.711
3172.95	0.6949
3181.98	0.683
3191.02	0.6719
3200.05	0.6639
3209.08	0.651
3218.11	0.6379
3227.15	0.6198
3236.18	0.6049
3245.21	0.5879
3254.24	0.565
3263.27	0.55
3272.31	0.5299
3281.34	0.5209
3290.37	0.4979
3299.4	0.49
3308.44	0.4799
3317.47	0.469
3326.5	0.4569
3335.53	0.446
3344.56	0.436
3353.6	0.4249
3362.63	0.4139
3371.66	0.408
3380.69	0.399
3389.73	0.39
3398.76	0.386
3407.79	0.381
3416.82	0.376
3425.85	0.375
3434.89	0.375
3443.92	0.376
3452.95	0.379
3461.98	0.389
3471.02	0.396
3480.05	0.4071
3489.08	0.425
3498.11	0.439
3507.15	0.4531
3516.18	0.468
3525.21	0.4831
3534.24	0.516
3543.27	0.5412
3552.31	0.5782
3561.34	0.6093
3570.37	0.6542
3579.4	0.6791
3588.44	0.7052
3597.47	0.733
3606.5	0.759
3615.53	0.773
3624.56	0.786
3633.6	0.7931
3642.63	0.8
3651.66	0.804
3660.69	0.806
3669.73	0.809
3678.76	0.81
3687.79	0.809
3696.82	0.811
3705.85	0.814
3714.89	0.814
3723.92	0.814
3732.95	0.813
3741.98	0.813
3751.02	0.813
3760.05	0.818
3769.08	0.818
3778.11	0.818
3787.14	0.816
3796.18	0.816
3805.21	0.815
3814.24	0.813
3823.27	0.813
3832.31	0.815
3841.34	0.815
3850.37	0.815
3859.4	0.815
3868.44	0.815
3877.47	0.816
3886.5	0.816
3895.53	0.816
3904.56	0.816
3913.6	0.815
3922.63	0.814
3931.66	0.814
3940.69	0.814
3949.73	0.814
3958.76	0.813
3967.79	0.813
3976.82	0.8129
3985.85	0.811
3994.89	0.811
4003.92	0.81
