Infrared Spectrum: 2-Methyl-5-hexen-3-ol
Formula: C 7 H 14 O
CAS: 32815-70-6
State: gas
Instrument: HP-GC/MS/IRD
Origin: NIST Mass Spectrometry Data Center
1/CM	ABSORBANCE
550	0.0005412
562	0.0004356
574	0.0004158
586	0.0004048
598	0.0005588
610	0.0007634
622	0.0008558
634	0.0009922
646	0.0008756
658	0.0004664
670	0.0002552
682	0.0001518
694	0.0001562
706	0.0002134
718	0.0001166
730	2.86e-05
742	9.9e-05
754	6.6e-05
766	9.46e-05
778	0.0001122
790	0.0001694
802	0.0002376
814	0.0004114
826	0.0003256
838	0.000836
850	0.0015708
862	0.0021626
874	0.002013
886	0.0018568
898	0.0029018
910	0.0055352
922	0.006314
934	0.0042174
946	0.0029106
958	0.0027764
970	0.0039842
982	0.0068772
994	0.0094666
1006	0.009064
1018	0.0077506
1030	0.007194
1042	0.0062568
1054	0.0047278
1066	0.0035354
1078	0.003025
1090	0.0026994
1102	0.0025696
1114	0.0027148
1126	0.0027918
1138	0.002673
1150	0.0024156
1162	0.002387
1174	0.0022924
1186	0.0021186
1198	0.0022374
1210	0.002684
1222	0.0030052
1234	0.0031658
1246	0.0032252
1258	0.0030602
1270	0.0027698
1282	0.0024442
1294	0.0021692
1306	0.0020966
1318	0.0019206
1330	0.001793
1342	0.0019954
1354	0.0027632
1366	0.0038984
1378	0.0046618
1390	0.0048268
1402	0.0036762
1414	0.0024332
1426	0.0023848
1438	0.0026796
1450	0.0028974
1462	0.0032296
1474	0.0031812
1486	0.0020086
1498	0.0009262
1510	0.0004664
1522	0.0003432
1534	0.0003146
1546	0.0002266
1558	0.000198
1570	0.0002288
1582	0.000253
1594	0.000297
1606	0.0004356
1618	0.0008514
1630	0.0020746
1642	0.0026378
1654	0.001287
1666	0.0003806
1678	0.0001892
1690	0.0001584
1702	9.24e-05
1714	7.92e-05
1726	5.72e-05
1738	3.08e-05
1750	3.96e-05
1762	4.4e-05
1774	1.76e-05
1786	6.38e-05
1798	0.0001012
1810	0.0001782
1822	0.0004048
1834	0.0006578
1846	0.0005566
1858	0.000319
1870	0.0001342
1882	0.0001188
1894	9.9e-05
1906	8.36e-05
1918	5.28e-05
1930	7.04e-05
1942	5.94e-05
1954	5.5e-05
1966	8.58e-05
1978	8.14e-05
1990	0.0001122
2002	8.58e-05
2014	4.62e-05
2026	3.74e-05
2038	2.42e-05
2050	2.42e-05
2062	4.18e-05
2074	5.72e-05
2086	4.4e-05
2098	2.64e-05
2110	2.64e-05
2122	1.32e-05
2134	3.96e-05
2146	2.86e-05
2158	2.2e-05
2170	3.74e-05
2182	3.74e-05
2194	0
2206	4.4e-05
2218	3.74e-05
2230	2.86e-05
2242	3.96e-05
2254	3.96e-05
2266	3.52e-05
2278	3.96e-05
2290	5.5e-05
2302	5.94e-05
2314	8.58e-05
2326	0.0001166
2338	0.0001364
2350	0.000121
2362	0.000209
2374	0.0001276
2386	0.0001012
2398	8.36e-05
2410	7.7e-05
2422	7.04e-05
2434	5.72e-05
2446	7.04e-05
2458	4.62e-05
2470	5.94e-05
2482	9.9e-05
2494	4.62e-05
2506	5.94e-05
2518	5.28e-05
2530	5.06e-05
2542	0.0001012
2554	9.9e-05
2566	0.0001364
2578	0.0001782
2590	0.000198
2602	0.0002332
2614	0.0002728
2626	0.0002706
2638	0.0002354
2650	0.000286
2662	0.0003102
2674	0.0003212
2686	0.000363
2698	0.0004026
2710	0.0004642
2722	0.0005192
2734	0.0005808
2746	0.0006094
2758	0.0006006
2770	0.0006292
2782	0.000704
2794	0.0008008
2806	0.0009878
2818	0.0013222
2830	0.0019668
2842	0.0030118
2854	0.0046288
2866	0.007216
2878	0.0102344
2890	0.011484
2902	0.0114664
2914	0.0117018
2926	0.0123178
2938	0.013574
2950	0.015158
2962	0.0204776
2974	0.0209704
2986	0.0125312
2998	0.0062942
3010	0.0037664
3022	0.0024398
3034	0.001639
3046	0.0014894
3058	0.0017556
3070	0.0027104
3082	0.004235
3094	0.0034848
3106	0.001254
3118	0.0006578
3130	0.0005368
3142	0.0004532
3154	0.0004774
3166	0.0003982
3178	0.0003344
3190	0.0002596
3202	0.0002244
3214	0.0001254
3226	0.0001298
3238	7.04e-05
3250	8.14e-05
3262	2.64e-05
3274	6.16e-05
3286	3.96e-05
3298	3.52e-05
3310	6.82e-05
3322	5.5e-05
3334	6.38e-05
3346	9.68e-05
3358	7.26e-05
3370	5.5e-05
3382	8.8e-05
3394	0.0001144
3406	0.0001386
3418	9.02e-05
3430	0.0001012
3442	9.02e-05
3454	0.00011
3466	0.0001122
3478	0.0001518
3490	0.0001232
3502	0.0001364
3514	0.000121
3526	8.36e-05
3538	0.0001298
3550	0.000121
3562	0.0001166
3574	0.0002112
3586	0.000264
3598	0.000451
3610	0.0010802
3622	0.0016214
3634	0.0018304
3646	0.0018502
3658	0.0017908
3670	0.0011704
3682	0.0005852
3694	0.0002772
3706	0.0002156
3718	0.0001826
3730	9.02e-05
3742	1.76e-05
3754	3.08e-05
3766	9.24e-05
3778	0.0001232
3790	0.0001034
3802	0.0001254
3814	0.0001012
3826	0.0001518
3838	0.0001276
