Infrared Spectrum: 3-CARBOMETHOXYCYCLOPENTANONE
Formula: C7 H10 O3
CAS: 32811-75-9
State: LIQUID (NEAT)
Class: COBLENTZ III
Instrument: PERKIN-ELMER 21 (GRATING)
Instrument parameters: FILTER CHANGE ABOUT 1090 CM^-^1
Sampling: TRANSMISSION
Path length: CAPILLARY
Resolution: 2
Origin: SOUTHERN RESEARCH INSTITUTE
1/CM	TRANSMITTANCE
609	0.7042
618	0.7114
627	0.7221
636	0.7346
645	0.7572
654	0.7847
663	0.8057
672	0.812
681	0.8158
690	0.8282
699	0.8466
708	0.869
717	0.875
726	0.8781
735	0.8725
744	0.8723
753	0.8601
762	0.8452
771	0.832
780	0.8334
789	0.8585
798	0.8681
807	0.859
816	0.8326
825	0.8351
834	0.8027
843	0.8058
852	0.8134
861	0.7855
870	0.8344
879	0.8413
888	0.847
897	0.8328
906	0.8155
915	0.7964
924	0.8122
933	0.8273
942	0.8412
951	0.8158
960	0.8363
969	0.8241
978	0.7593
987	0.7214
996	0.75
1005	0.6998
1014	0.6371
1023	0.6137
1032	0.5957
1041	0.5915
1050	0.5281
1059	0.5161
1068	0.7112
1077	0.7225
1086	0.7196
1095	0.7233
1104	0.6993
1113	0.6514
1122	0.4608
1131	0.3411
1140	0.3196
1149	0.2977
1158	0.2002
1167	0.2004
1176	0.2874
1185	0.2824
1194	0.2606
1203	0.1653
1212	0.1367
1221	0.2504
1230	0.3151
1239	0.3477
1248	0.4234
1257	0.4815
1266	0.442
1275	0.4325
1284	0.4801
1293	0.5503
1302	0.6204
1311	0.6866
1320	0.6743
1329	0.5877
1338	0.6803
1347	0.6773
1356	0.6272
1365	0.5187
1374	0.4767
1383	0.6503
1392	0.736
1401	0.5872
1410	0.5636
1419	0.7031
1428	0.6709
1437	0.3821
1446	0.5186
1455	0.5639
1464	0.5643
1473	0.6887
1482	0.817
1491	0.8454
1500	0.8575
1509	0.8643
1518	0.8678
1527	0.8696
1536	0.8693
1545	0.8703
1554	0.8731
1563	0.8786
1572	0.8792
1581	0.8748
1590	0.8692
1599	0.863
1608	0.8537
1617	0.8478
1626	0.8347
1635	0.837
1644	0.8389
1653	0.834
1662	0.8217
1671	0.7917
1680	0.7461
1689	0.677
1698	0.5801
1707	0.4799
1716	0.0649
1725	0.027
1734	0.0532
1743	0.0731
1752	0.322
1761	0.5274
1770	0.7199
1779	0.7751
1788	0.8074
1797	0.8324
1806	0.852
1815	0.8666
1824	0.8722
1833	0.8749
1842	0.8783
1851	0.8846
1860	0.8875
1869	0.8907
1878	0.8942
1887	0.8947
1896	0.8944
1905	0.8939
1914	0.8933
1923	0.8927
1932	0.8914
1941	0.8901
1950	0.8895
1959	0.891
1968	0.8927
1977	0.8914
1986	0.8877
1995	0.8866
2004	0.8869
2013	0.8871
2022	0.8859
2031	0.8828
2040	0.8854
2049	0.8854
2058	0.8814
2067	0.8901
2076	0.8964
2085	0.892
2094	0.8918
2103	0.8919
2112	0.8912
2121	0.8919
2130	0.895
2139	0.8992
2148	0.9039
2157	0.9045
2166	0.9045
2175	0.9017
2184	0.9007
2193	0.9014
2202	0.9026
2211	0.9024
2220	0.898
2229	0.8981
2238	0.9044
2247	0.9052
2256	0.9049
2265	0.9048
2274	0.9049
2283	0.908
2292	0.9125
2301	0.9176
2310	0.9206
2319	0.9201
2328	0.9178
2337	0.9139
2346	0.908
2355	0.9018
2364	0.8957
2373	0.8905
2382	0.8884
2391	0.8863
2400	0.8857
2409	0.8926
2418	0.8928
2427	0.8933
2436	0.8935
2445	0.8942
2454	0.8958
2463	0.8969
2472	0.8975
2481	0.8991
2490	0.9003
2499	0.8999
2508	0.8969
2517	0.8929
2526	0.889
2535	0.8878
2544	0.89
2553	0.8903
2562	0.8903
2571	0.8905
2580	0.8907
2589	0.8904
2598	0.8907
2607	0.8911
2616	0.8915
2625	0.8919
2634	0.8923
2643	0.8928
2652	0.8923
2661	0.8929
2670	0.8944
2679	0.8959
2688	0.8927
2697	0.8857
2706	0.8842
2715	0.8868
2724	0.8888
2733	0.8861
2742	0.8818
2751	0.8818
2760	0.8698
2769	0.8562
2778	0.8454
2787	0.8228
2796	0.8055
2805	0.7836
2814	0.7789
2823	0.7803
2832	0.7731
2841	0.7502
2850	0.7288
2859	0.7058
2868	0.6842
2877	0.6641
2886	0.6423
2895	0.6188
2904	0.5912
2913	0.5377
2922	0.4927
2931	0.4772
2940	0.4995
2949	0.5509
2958	0.5832
2967	0.6166
2976	0.6658
2985	0.7061
2994	0.741
3003	0.7666
3012	0.7927
3021	0.8144
3030	0.8355
3039	0.8418
3048	0.8567
3057	0.863
3066	0.8688
3075	0.8746
3084	0.8785
3093	0.8804
3102	0.881
3111	0.8814
3120	0.8812
3129	0.882
3138	0.8847
3147	0.8856
3156	0.886
3165	0.8864
3174	0.8868
3183	0.8873
3192	0.8887
3201	0.8896
3210	0.8895
3219	0.8877
3228	0.8867
3237	0.8915
3246	0.8942
3255	0.8957
3264	0.8928
3273	0.8872
3282	0.886
3291	0.8934
3300	0.8961
3309	0.8895
3318	0.8894
3327	0.8915
3336	0.8879
3345	0.8814
3354	0.8855
3363	0.8883
3372	0.8883
3381	0.8855
3390	0.8802
3399	0.8714
3408	0.8612
3417	0.8539
3426	0.8464
3435	0.8406
3444	0.8408
3453	0.8463
3462	0.8526
3471	0.8569
3480	0.8582
3489	0.8615
3498	0.8612
3507	0.8677
3516	0.8687
3525	0.8673
3534	0.8656
3543	0.8649
3552	0.8659
3561	0.8586
3570	0.8597
3579	0.8671
3588	0.8668
3597	0.8639
3606	0.8615
3615	0.8603
3624	0.8653
3633	0.8755
3642	0.8815
3651	0.8807
3660	0.8904
3669	0.9006
3678	0.9074
3687	0.9139
3696	0.9207
3705	0.922
3714	0.9223
3723	0.9225
3732	0.9227
3741	0.9241
3750	0.9222
3759	0.9157
3768	0.9131
3777	0.9069
3786	0.9103
3795	0.9153
3804	0.9195
3813	0.9196
3822	0.9226
3831	0.9253
3840	0.9285
3849	0.9297
3858	0.923
3867	0.9215
3876	0.9216
3885	0.921
3894	0.9207
3903	0.9202
3912	0.9194
3921	0.9153
3930	0.9131
3939	0.915
3948	0.9226
3957	0.9227
3966	0.9232
3975	0.9359
3984	0.9394
3993	0.9221
