Infrared Spectrum: o-t-Butylnitrobenzene
Formula: C 10 H 13 N O 2
CAS: 3282-56-2
State: gas
Origin: EPA-IR VAPOR PHASE LIBRARY
1/CM	ABSORBANCE
549.8	0.002532
559.445	0.0011884
569.09	0.001462
578.734	0.002792
588.379	0.002842
598.024	0.001292
607.669	0.0008438
617.313	0.0004775
626.958	0.0009802
636.603	0.0010038
646.248	0.0010964
655.893	0.0008078
665.537	0.0011215
675.182	0.002722
684.827	0.006172
694.472	0.010162
704.116	0.010262
713.761	0.007902
723.406	0.011892
733.051	0.005182
742.695	0.003042
752.34	0.004702
761.985	0.004382
771.63	0.002632
781.275	0.001622
790.919	0.0009259
800.564	0.0011747
810.209	0.002102
819.854	0.004352
829.498	0.007262
839.143	0.013042
848.788	0.028852
858.433	0.040712
868.078	0.014192
877.722	0.003192
887.367	0.001352
897.012	0.0009772
906.657	0.0012057
916.301	0.001752
925.946	0.001842
935.591	0.001392
945.236	0.0010549
954.88	0.0009465
964.525	0.000834
974.17	0.0005819
983.815	0.00027205
993.46	0.0007582
1003.1	0.002482
1012.75	0.008682
1022.39	0.005382
1032.04	0.002362
1041.68	0.001842
1051.33	0.001292
1060.97	0.001662
1070.62	0.001682
1080.26	0.002292
1089.91	0.005212
1099.55	0.014162
1109.2	0.010672
1118.84	0.004712
1128.49	0.002772
1138.13	0.001552
1147.78	0.001272
1157.42	0.001442
1167.07	0.001752
1176.71	0.001592
1186.36	0.003932
1196	0.005552
1205.64	0.003772
1215.29	0.001822
1224.93	0.003902
1234.58	0.004642
1244.22	0.004172
1253.87	0.008602
1263.51	0.016652
1273.16	0.011132
1282.8	0.006272
1292.45	0.006892
1302.09	0.005982
1311.74	0.005652
1321.38	0.008382
1331.03	0.021792
1340.67	0.075992
1350.32	0.127712
1359.96	0.067822
1369.61	0.038482
1379.25	0.025822
1388.9	0.016012
1398.54	0.013692
1408.18	0.008582
1417.83	0.005432
1427.47	0.004832
1437.12	0.005592
1446.76	0.006962
1456.41	0.009602
1466.05	0.012702
1475.7	0.017192
1485.34	0.023652
1494.99	0.025182
1504.63	0.025652
1514.28	0.030662
1523.92	0.053552
1533.57	0.087332
1543.21	0.086502
1552.86	0.046852
1562.5	0.019832
1572.15	0.013772
1581.79	0.015872
1591.44	0.024222
1601.08	0.033722
1610.73	0.021182
1620.37	0.009212
1630.01	0.004242
1639.66	0.003062
1649.3	0.003012
1658.95	0.003002
1668.59	0.002632
1678.24	0.002152
1687.88	0.001622
1697.53	0.001282
1707.17	0.0010448
1716.82	0.0008009
1726.46	0.0006872
1736.11	0.0006329
1745.75	0.0008036
1755.4	0.0008994
1765.04	0.0008766
1774.69	0.001492
1784.33	0.002492
1793.98	0.002042
1803.62	0.0010361
1813.27	0.0007645
1822.91	0.0007986
1832.55	0.0007965
1842.2	0.0006587
1851.84	0.0006707
1861.49	0.0005834
1871.13	0.0005991
1880.78	0.0005709
1890.42	0.0007231
1900.07	0.0010031
1909.71	0.001512
1919.36	0.001862
1929	0.001602
1938.65	0.0009504
1948.29	0.0005425
1957.94	0.0005752
1967.58	0.0005034
1977.23	0.000444
1986.87	0.0004558
1996.52	0.0004445
2006.16	0.00030683
2015.81	0.00033872
2025.45	0.00031753
2035.1	0.000431
2044.74	0.0003983
2054.38	0.00030901
2064.03	0.00026417
2073.67	0.00031607
2083.32	0.0003712
2092.96	0.0003884
2102.61	0.0003533
2112.25	0.00033317
2121.9	0.0003719
2131.54	0.0004084
2141.19	0.0003788
2150.83	0.00033773
2160.48	0.00029348
2170.12	0.0002016
2179.77	0.0002016
2189.41	0.0003802
2199.06	0.0004441
2208.7	0.0004096
2218.35	0.000396
2227.99	0.0004512
2237.64	0.000455
2247.28	0.0003596
2256.92	0.0001942
2266.57	0.00029157
2276.21	0.00029119
2285.86	0.000417
2295.5	0.0004836
2305.15	0.0005256
2314.79	0.0004264
2324.44	0.0004807
2334.08	0.0003698
2343.73	0.0003693
2353.37	0.0003968
2363.02	0.0005109
2372.66	0.000575
2382.31	0.000722
2391.95	0.0007889
2401.6	0.0007076
2411.24	0.0004859
2420.89	0.0005786
2430.53	0.0006983
2440.18	0.0008929
2449.82	0.0009492
2459.47	0.001019
2469.11	0.0009756
2478.75	0.0006949
2488.4	0.0006371
2498.04	0.0005603
2507.69	0.000588
2517.33	0.0005317
2526.98	0.00030939
2536.62	0.000482
2546.27	0.0004417
2555.91	0.0003994
2565.56	0.000533
2575.2	0.0006687
2584.85	0.0007439
2594.49	0.0006385
2604.14	0.0008327
2613.78	0.0007904
2623.43	0.000676
2633.07	0.0007102
2642.72	0.0006099
2652.36	0.0006503
2662.01	0.000657
2671.65	0.0006793
2681.29	0.0006892
2690.94	0.0007477
2700.58	0.0010377
2710.23	0.0011858
2719.87	0.0012163
2729.52	0.0010317
2739.16	0.0010908
2748.81	0.0008717
2758.45	0.0007946
2768.1	0.0009242
2777.74	0.0009012
2787.39	0.0011251
2797.03	0.001252
2806.68	0.001492
2816.32	0.001762
2825.97	0.002042
2835.61	0.002422
2845.26	0.003162
2854.9	0.004442
2864.55	0.008212
2874.19	0.013932
2883.84	0.016612
2893.48	0.015112
2903.12	0.015362
2912.77	0.018532
2922.41	0.019132
2932.06	0.018312
2941.7	0.020522
2951.35	0.028872
2960.99	0.052312
2970.64	0.086042
2980.28	0.060832
2989.93	0.021112
2999.57	0.007852
3009.22	0.003502
3018.86	0.002342
3028.51	0.001652
3038.15	0.001772
3047.8	0.002302
3057.44	0.003112
3067.09	0.004112
3076.73	0.005032
3086.38	0.004982
3096.02	0.003152
3105.67	0.001662
3115.31	0.001492
3124.95	0.001262
3134.6	0.0010565
3144.24	0.0009919
3153.89	0.0009438
3163.53	0.000744
3173.18	0.0009432
3182.82	0.0008685
3192.47	0.0011446
3202.11	0.0010833
3211.76	0.0010818
3221.4	0.0007572
3231.05	0.0007665
3240.69	0.0006127
3250.34	0.0007665
3259.98	0.0003804
3269.63	0.0004555
3279.27	0.0004347
3288.92	0.0005841
3298.56	0.0005174
3308.21	0.0007431
3317.85	0.0004918
3327.49	0.00031533
3337.14	0.00028088
3346.78	0.0002376
3356.43	0.00034632
3366.07	0.00032279
3375.72	0.0001655
3385.36	0.0003963
3395.01	0.00027876
3404.65	0.0004286
3414.3	0.00028929
3423.94	0.0006127
3433.59	0.0002159
3443.23	0.00028366
3452.88	0.0003666
3462.52	0.00045
3472.17	0.0004907
3481.81	0.0003645
3491.46	0.0002148
3501.1	0.000165
3510.75	0.00034318
3520.39	0.00034192
3530.04	0.000155
3539.68	0.00033174
3549.32	0.00033572
3558.97	0.00026295
3568.61	0.00024393
3578.26	0.000129
3587.9	0.0002228
3597.55	0.000174
3607.19	0.00024368
3616.84	0.0002409
3626.48	0.000151
3636.13	0.00028931
3645.77	0.000143
3655.42	0.00027081
3665.06	0.0003671
3674.71	0.0004776
3684.35	0.0003862
3694	0.00027799
3703.64	0.0002462
3713.29	0.0004983
3722.93	0.00028548
3732.58	0.0004049
3742.22	0.000258202
3751.86	0.0004858
3761.51	0.00030405
3771.15	0.0001828
3780.8	0.0004957
3790.44	0.0005013
3800.09	0.00029422
3809.73	0.0004812
3819.38	0.000356
3829.02	0.0005305
3838.67	0.0003606
3848.31	0.0003098
3857.96	0.0002038
3867.6	0.0003884
3877.25	0.00026754
3886.89	0.0007749
3896.54	0.0006334
3906.18	0.0005953
3915.83	0.0004478
3925.47	0.0003844
3935.12	0.0002253
3944.76	0.00034573
3954.41	0.0005254
3964.05	0.00028501
3973.69	0.0004977
3983.34	0.00030887
3992.98	0.0004196
