Infrared Spectrum: 4-(Trifluoromethyl)phenylacetic acid
Formula: C 9 H 7 F 3 O 2
CAS: 32857-62-8
State: gas
Origin: EPA-IR VAPOR PHASE LIBRARY
1/CM	ABSORBANCE
549.8	0.002337
559.445	0.002697
569.09	0.003047
578.734	0.004257
588.379	0.004847
598.024	0.007187
607.669	0.010437
617.313	0.010587
626.958	0.008057
636.603	0.005757
646.248	0.003887
655.893	0.003557
665.537	0.003277
675.182	0.003917
684.827	0.003357
694.472	0.004717
704.116	0.004467
713.761	0.004247
723.406	0.003867
733.051	0.003517
742.695	0.002677
752.34	0.001947
761.985	0.0015418
771.63	0.0016472
781.275	0.0011297
790.919	0.002467
800.564	0.003337
810.209	0.005047
819.854	0.004977
829.498	0.004577
839.143	0.003237
848.788	0.003497
858.433	0.002577
868.078	0.002857
877.722	0.002417
887.367	0.002237
897.012	0.001817
906.657	0.0017139
916.301	0.0016698
925.946	0.002547
935.591	0.002467
945.236	0.002537
954.88	0.002307
964.525	0.0017173
974.17	0.0015446
983.815	0.0017443
993.46	0.00073912
1003.1	0.002217
1012.75	0.003627
1022.39	0.009987
1032.04	0.002717
1041.68	0.002997
1051.33	0.002407
1060.97	0.012727
1070.62	0.030137
1080.26	0.011277
1089.91	0.010587
1099.55	0.014517
1109.2	0.029327
1118.84	0.034427
1128.49	0.033447
1138.13	0.040177
1147.78	0.049807
1157.42	0.044047
1167.07	0.041677
1176.71	0.033147
1186.36	0.018757
1196	0.010997
1205.64	0.007647
1215.29	0.007667
1224.93	0.007357
1234.58	0.005217
1244.22	0.003767
1253.87	0.004407
1263.51	0.003587
1273.16	0.004487
1282.8	0.005047
1292.45	0.006637
1302.09	0.010017
1311.74	0.022937
1321.38	0.071057
1331.03	0.058387
1340.67	0.013587
1350.32	0.009287
1359.96	0.008477
1369.61	0.007217
1379.25	0.005447
1388.9	0.003967
1398.54	0.003287
1408.18	0.004267
1417.83	0.004907
1427.47	0.004847
1437.12	0.003557
1446.76	0.002847
1456.41	0.001807
1466.05	0.0014873
1475.7	0.001387
1485.34	0.0015465
1494.99	0.0012651
1504.63	0.0011325
1514.28	0.0016377
1523.92	0.0014732
1533.57	0.0016171
1543.21	0.0012942
1552.86	0.0014321
1562.5	0.0016014
1572.15	0.0013767
1581.79	0.0016921
1591.44	0.002267
1601.08	0.001917
1610.73	0.002387
1620.37	0.004627
1630.01	0.004087
1639.66	0.002237
1649.3	0.0016417
1658.95	0.001897
1668.59	0.001917
1678.24	0.001847
1687.88	0.002127
1697.53	0.001837
1707.17	0.002247
1716.82	0.002537
1726.46	0.003477
1736.11	0.005397
1745.75	0.008057
1755.4	0.012607
1765.04	0.018067
1774.69	0.024317
1784.33	0.026527
1793.98	0.021547
1803.62	0.014297
1813.27	0.008217
1822.91	0.004457
1832.55	0.002947
1842.2	0.001907
1851.84	0.001747
1861.49	0.0016323
1871.13	0.0013922
1880.78	0.0013307
1890.42	0.0016293
1900.07	0.0016195
1909.71	0.002017
1919.36	0.002027
1929	0.0015211
1938.65	0.0015576
1948.29	0.0015535
1957.94	0.0011633
1967.58	0.0012297
1977.23	0.0011992
1986.87	0.0013686
1996.52	0.0011447
2006.16	0.0012486
2015.81	0.001053
2025.45	0.0013241
2035.1	0.001573
2044.74	0.0012039
2054.38	0.0012335
2064.03	0.0012532
2073.67	0.0012817
2083.32	0.0010378
2092.96	0.0013695
2102.61	0.0012676
2112.25	0.001174
2121.9	0.0011637
2131.54	0.0012025
2141.19	0.0011939
2150.83	0.0012645
2160.48	0.0014641
2170.12	0.0011473
2179.77	0.001139
2189.41	0.0015861
2199.06	0.0013604
2208.7	0.0016291
2218.35	0.001455
2227.99	0.001391
2237.64	0.0012101
2247.28	0.0014288
2256.92	0.0014028
2266.57	0.0011981
2276.21	0.0014787
2285.86	0.0014361
2295.5	0.0012184
2305.15	0.0017012
2314.79	0.0015009
2324.44	0.0015898
2334.08	0.0015236
2343.73	0.0014918
2353.37	0.001036
2363.02	0.0014597
2372.66	0.0008683
2382.31	0.0014533
2391.95	0.0014454
2401.6	0.0011707
2411.24	0.0015528
2420.89	0.0012384
2430.53	0.0014574
2440.18	0.0015217
2449.82	0.001907
2459.47	0.0015942
2469.11	0.0013737
2478.75	0.0013789
2488.4	0.0010103
2498.04	0.0016744
2507.69	0.0009683
2517.33	0.0014785
2526.98	0.0014543
2536.62	0.0011009
2546.27	0.0011133
2555.91	0.0015425
2565.56	0.0010297
2575.2	0.0010442
2584.85	0.001272
2594.49	0.0012752
2604.14	0.0009752
2613.78	0.0014336
2623.43	0.0014796
2633.07	0.0016905
2642.72	0.0010826
2652.36	0.0017357
2662.01	0.0015432
2671.65	0.0012186
2681.29	0.0013007
2690.94	0.001847
2700.58	0.0010945
2710.23	0.0011982
2719.87	0.0011136
2729.52	0.0015331
2739.16	0.0009894
2748.81	0.0009018
2758.45	0.0012759
2768.1	0.0014843
2777.74	0.0012368
2787.39	0.0009877
2797.03	0.0016112
2806.68	0.0015876
2816.32	0.000868
2825.97	0.0012362
2835.61	0.0013438
2845.26	0.0016064
2854.9	0.0017316
2864.55	0.001462
2874.19	0.0016491
2883.84	0.0011765
2893.48	0.0014089
2903.12	0.0017092
2912.77	0.0015698
2922.41	0.0012476
2932.06	0.002407
2941.7	0.002427
2951.35	0.001907
2960.99	0.0016072
2970.64	0.0016939
2980.28	0.0015028
2989.93	0.002047
2999.57	0.001957
3009.22	0.0012344
3018.86	0.0016087
3028.51	0.002317
3038.15	0.002347
3047.8	0.002127
3057.44	0.0013724
3067.09	0.002487
3076.73	0.001857
3086.38	0.002967
3096.02	0.001747
3105.67	0.001907
3115.31	0.0014309
3124.95	0.0011855
3134.6	0.001167
3144.24	0.0015674
3153.89	0.002467
3163.53	0.0012799
3173.18	0.0013152
3182.82	0.001777
3192.47	0.002167
3202.11	0.0012012
3211.76	0.0009352
3221.4	0.0008599
3231.05	0.00081255
3240.69	0.001497
3250.34	0.0014158
3259.98	0.0003
3269.63	0.001787
3279.27	0.0014223
3288.92	0.0011764
3298.56	0.0009392
3308.21	0.0011196
3317.85	0.0014696
3327.49	0.0014038
3337.14	0.001126
3346.78	0.0013289
3356.43	0.0016533
3366.07	0.0010556
3375.72	0.0007354
3385.36	0.00082261
3395.01	0.0011819
3404.65	0.001377
3414.3	0.0009432
3423.94	0.0014071
3433.59	0.0012239
3443.23	0.0012552
3452.88	0.001987
3462.52	0.002117
3472.17	0.0015515
3481.81	0.0012768
3491.46	0.0013983
3501.1	0.001614
3510.75	0.0010179
3520.39	0.0014759
3530.04	0.0013718
3539.68	0.002287
3549.32	0.002667
3558.97	0.004257
3568.61	0.011957
3578.26	0.012137
3587.9	0.005097
3597.55	0.002647
3607.19	0.002287
3616.84	0.0016333
3626.48	0.001319
3636.13	0.000581
3645.77	0.0008992
3655.42	0.0007018
3665.06	0.0015855
3674.71	0.0012243
3684.35	0.0014264
3694	0.0016277
3703.64	0.0010624
3713.29	0.001927
3722.93	0.0008598
3732.58	0.0012786
3742.22	0.000535
3751.86	0.0016949
3761.51	0.0013977
3771.15	0.0010329
3780.8	0.000716
3790.44	0.000574
3800.09	0.0011639
3809.73	0.0010332
3819.38	0.0012263
3829.02	0.000524
3838.67	0.0010324
3848.31	0.001747
3857.96	0.0014765
3867.6	0.001947
3877.25	0.0012964
3886.89	0.0009913
3896.54	0.000487
3906.18	0.0006482
3915.83	0.0011501
3925.47	0.0013724
3935.12	0.0009343
3944.76	0.0013053
3954.41	0.0008495
3964.05	0.0014473
3973.69	0.001967
3983.34	0.002387
3992.98	0.001154
