Infrared Spectrum: 3-Phenoxyphenylacetic acid
Formula: C 14 H 12 O 3
CAS: 32852-81-6
State: gas
Origin: EPA-IR VAPOR PHASE LIBRARY
1/CM	ABSORBANCE
549.8	0.005316
559.445	0.007816
569.09	0.012556
578.734	0.019866
588.379	0.033226
598.024	0.023116
607.669	0.016086
617.313	0.014456
626.958	0.013266
636.603	0.011806
646.248	0.010446
655.893	0.009356
665.537	0.008406
675.182	0.010786
684.827	0.024406
694.472	0.031966
704.116	0.017856
713.761	0.010646
723.406	0.007756
733.051	0.008916
742.695	0.015046
752.34	0.021116
761.985	0.019676
771.63	0.016546
781.275	0.014796
790.919	0.012126
800.564	0.008156
810.209	0.006916
819.854	0.007226
829.498	0.009656
839.143	0.007666
848.788	0.005796
858.433	0.006066
868.078	0.005706
877.722	0.006446
887.367	0.007906
897.012	0.008506
906.657	0.007246
916.301	0.006496
925.946	0.007206
935.591	0.006006
945.236	0.005836
954.88	0.009116
964.525	0.015996
974.17	0.010036
983.815	0.004916
993.46	0.003746
1003.1	0.003456
1012.75	0.004186
1022.39	0.006666
1032.04	0.003616
1041.68	0.002896
1051.33	0.004266
1060.97	0.007186
1070.62	0.012276
1080.26	0.017296
1089.91	0.028066
1099.55	0.046236
1109.2	0.072096
1118.84	0.067886
1128.49	0.043226
1138.13	0.037686
1147.78	0.031066
1157.42	0.027406
1167.07	0.026286
1176.71	0.018606
1186.36	0.019506
1196	0.029256
1205.64	0.052376
1215.29	0.063296
1224.93	0.049466
1234.58	0.064476
1244.22	0.115896
1253.87	0.127296
1263.51	0.066936
1273.16	0.041056
1282.8	0.032956
1292.45	0.027846
1302.09	0.023686
1311.74	0.019616
1321.38	0.016946
1331.03	0.015746
1340.67	0.015836
1350.32	0.016136
1359.96	0.015736
1369.61	0.013326
1379.25	0.009986
1388.9	0.007326
1398.54	0.006836
1408.18	0.007336
1417.83	0.007986
1427.47	0.011966
1437.12	0.022106
1446.76	0.035236
1456.41	0.024406
1466.05	0.018646
1475.7	0.038496
1485.34	0.101286
1494.99	0.072006
1504.63	0.020306
1514.28	0.009646
1523.92	0.006646
1533.57	0.006116
1543.21	0.006556
1552.86	0.009006
1562.5	0.018156
1572.15	0.038536
1581.79	0.071796
1591.44	0.066346
1601.08	0.038846
1610.73	0.026006
1620.37	0.011396
1630.01	0.005076
1639.66	0.003476
1649.3	0.002826
1658.95	0.002436
1668.59	0.002556
1678.24	0.002776
1687.88	0.003276
1697.53	0.004116
1707.17	0.005096
1716.82	0.006516
1726.46	0.009106
1736.11	0.014276
1745.75	0.023546
1755.4	0.037096
1765.04	0.053066
1774.69	0.073516
1784.33	0.074246
1793.98	0.055406
1803.62	0.035956
1813.27	0.018916
1822.91	0.009776
1832.55	0.005786
1842.2	0.004296
1851.84	0.003826
1861.49	0.003286
1871.13	0.002626
1880.78	0.002176
1890.42	0.001896
1900.07	0.001936
1909.71	0.002266
1919.36	0.003216
1929	0.003746
1938.65	0.002896
1948.29	0.002476
1957.94	0.002166
1967.58	0.001936
1977.23	0.001936
1986.87	0.001886
1996.52	0.002066
2006.16	0.001976
2015.81	0.001926
2025.45	0.001946
2035.1	0.002146
2044.74	0.002056
2054.38	0.001806
2064.03	0.001626
2073.67	0.0014381
2083.32	0.0014191
2092.96	0.0012687
2102.61	0.0011762
2112.25	0.001256
2121.9	0.0012805
2131.54	0.0012604
2141.19	0.0009065
2150.83	0.0009984
2160.48	0.0010533
2170.12	0.0010283
2179.77	0.001076
2189.41	0.0010646
2199.06	0.0013175
2208.7	0.001337
2218.35	0.0013386
2227.99	0.0012984
2237.64	0.001225
2247.28	0.0011307
2256.92	0.0010753
2266.57	0.001037
2276.21	0.0011349
2285.86	0.0012301
2295.5	0.0011069
2305.15	0.0013537
2314.79	0.0014679
2324.44	0.001524
2334.08	0.0013961
2343.73	0.0012898
2353.37	0.001275
2363.02	0.0014182
2372.66	0.001576
2382.31	0.001856
2391.95	0.002096
2401.6	0.001906
2411.24	0.001926
2420.89	0.001996
2430.53	0.001806
2440.18	0.001736
2449.82	0.001616
2459.47	0.0015351
2469.11	0.0013873
2478.75	0.0012893
2488.4	0.0011994
2498.04	0.0012084
2507.69	0.0011455
2517.33	0.0010589
2526.98	0.0009449
2536.62	0.0011113
2546.27	0.0010726
2555.91	0.0011145
2565.56	0.0010708
2575.2	0.001043
2584.85	0.0009471
2594.49	0.0010687
2604.14	0.0009348
2613.78	0.0009077
2623.43	0.0008177
2633.07	0.0008475
2642.72	0.0007559
2652.36	0.0007875
2662.01	0.00062778
2671.65	0.00060813
2681.29	0.0007513
2690.94	0.0007766
2700.58	0.0008775
2710.23	0.0008215
2719.87	0.0008757
2729.52	0.0008749
2739.16	0.0008641
2748.81	0.0008158
2758.45	0.0008059
2768.1	0.0005638
2777.74	0.0007016
2787.39	0.000717
2797.03	0.0006324
2806.68	0.0006637
2816.32	0.0006727
2825.97	0.0007588
2835.61	0.0008887
2845.26	0.0008364
2854.9	0.0009897
2864.55	0.000992
2874.19	0.0009152
2883.84	0.0012106
2893.48	0.0010781
2903.12	0.0013105
2912.77	0.001766
2922.41	0.002516
2932.06	0.003136
2941.7	0.003376
2951.35	0.003136
2960.99	0.002396
2970.64	0.002196
2980.28	0.002126
2989.93	0.002106
2999.57	0.002096
3009.22	0.002696
3018.86	0.004116
3028.51	0.006936
3038.15	0.011176
3047.8	0.012846
3057.44	0.011396
3067.09	0.013156
3076.73	0.016916
3086.38	0.013216
3096.02	0.008136
3105.67	0.005056
3115.31	0.002456
3124.95	0.0014519
3134.6	0.0009591
3144.24	0.00062685
3153.89	0.0006814
3163.53	0.0007254
3173.18	0.00056301
3182.82	0.0006802
3192.47	0.0005086
3202.11	0.000311
3211.76	0.00054397
3221.4	0.000284
3231.05	0.0004798
3240.69	0.0004701
3250.34	0.00038
3259.98	0.000385
3269.63	0.00022
3279.27	0.000206
3288.92	0.000376
3298.56	0.000383
3308.21	0.00057627
3317.85	0.000396
3327.49	0.000355
3337.14	0.000437
3346.78	0.000222
3356.43	0.000406
3366.07	0.000247
3375.72	0.000377
3385.36	0.000184
3395.01	0.000479
3404.65	0.000296
3414.3	0.000255
3423.94	0.00038
3433.59	0.000306
3443.23	0.00034
3452.88	0.000295
3462.52	0.000439
3472.17	0.000427
3481.81	0.000436
3491.46	0.0007225
3501.1	0.0006789
3510.75	0.0010723
3520.39	0.0010749
3530.04	0.001646
3539.68	0.002636
3549.32	0.004806
3558.97	0.009486
3568.61	0.028736
3578.26	0.032366
3587.9	0.009936
3597.55	0.004086
3607.19	0.001976
3616.84	0.0010261
3626.48	0.0009559
3636.13	0.0007707
3645.77	0.000741
3655.42	0.00058762
3665.06	0.000426
3674.71	0.0005254
3684.35	0.0004483
3694	0.000356
3703.64	0.0004603
3713.29	0.000307
3722.93	0.000209
3732.58	0.000352
3742.22	0.000212
3751.86	0.000261
3761.51	0.000193
3771.15	0.000413
3780.8	0.00031
3790.44	0.000192
3800.09	0.00061384
3809.73	0.00039
3819.38	0.000384
3829.02	0.0005104
3838.67	0.000332
3848.31	0.000276
3857.96	0.000234
3867.6	0.000165
3877.25	0.000247
3886.89	0.000197
3896.54	0.000223
3906.18	0.000139
3915.83	0.000151
3925.47	0.000345
3935.12	0.000196
3944.76	0.000246
3954.41	0.000258
3964.05	0.000169
3973.69	0.000262
3983.34	0.00024
3992.98	0.000226
