Infrared Spectrum: m-Bromocinnamic acid
Formula: C 9 H 7 Br O 2
CAS: 32862-97-8
State: gas
Instrument: HP-GC/MS/IRD
Origin: NIST Mass Spectrometry Data Center
1/CM	ABSORBANCE
550	0.0019136
562	0.0064324
574	0.0069446
586	0.0027352
598	0.001118
610	0.000637
622	0.0005018
634	0.0010478
646	0.0022594
658	0.0023582
670	0.0026494
682	0.0025272
694	0.001378
706	0.0004862
718	0.0001846
730	0
742	0.0001846
754	0.0004368
766	0.0010348
778	0.0035256
790	0.0025506
802	0.0003744
814	0.000117
826	5.98e-05
838	0.000299
850	0.0008606
862	0.001976
874	0.0019916
886	0.0013754
898	0.0011206
910	0.0006578
922	0.0003718
934	0.000572
946	0.0008866
958	0.0009152
970	0.0022308
982	0.0029224
994	0.0013468
1006	0.0005122
1018	0.0001664
1030	0.0001846
1042	0.0003666
1054	0.000793
1066	0.0021008
1078	0.0031746
1090	0.0036192
1102	0.006474
1114	0.0185536
1126	0.017056
1138	0.0075036
1150	0.0100464
1162	0.008463
1174	0.0032214
1186	0.0030134
1198	0.0032812
1210	0.0017524
1222	0.0013624
1234	0.001703
1246	0.0020462
1258	0.002184
1270	0.0023062
1282	0.0024102
1294	0.0027872
1306	0.0027976
1318	0.0018226
1330	0.0018616
1342	0.0035074
1354	0.0064272
1366	0.0042952
1378	0.0016692
1390	0.0011778
1402	0.0011466
1414	0.0018694
1426	0.0019266
1438	0.0006838
1450	0.0005616
1462	0.0010894
1474	0.0025792
1486	0.0011284
1498	0.0003562
1510	0.0002444
1522	0.0003354
1534	0.0005902
1546	0.0015938
1558	0.0035854
1570	0.0039442
1582	0.0022594
1594	0.0018876
1606	0.000793
1618	0.0010166
1630	0.0028132
1642	0.0069056
1654	0.002795
1666	0.0007176
1678	0.0007254
1690	0.0009178
1702	0.001079
1714	0.002015
1726	0.0039104
1738	0.007371
1750	0.0202982
1762	0.0227084
1774	0.008515
1786	0.005408
1798	0.0030472
1810	0.0014872
1822	0.0009828
1834	0.0006864
1846	0.000403
1858	0.0003744
1870	0.000351
1882	0.0002236
1894	0.0001612
1906	0.000104
1918	0.0001404
1930	0.0002314
1942	0.0001768
1954	9.62e-05
1966	7.28e-05
1978	5.98e-05
1990	0.000104
2002	7.02e-05
2014	8.32e-05
2026	0.000117
2038	9.62e-05
2050	0.0001248
2062	0.0001144
2074	6.5e-05
2086	5.2e-05
2098	3.12e-05
2110	1.04e-05
2122	5.46e-05
2134	3.38e-05
2146	3.64e-05
2158	2.34e-05
2170	5.46e-05
2182	4.94e-05
2194	2.86e-05
2206	7.28e-05
2218	7.02e-05
2230	0.0001066
2242	9.88e-05
2254	6.24e-05
2266	6.76e-05
2278	5.46e-05
2290	4.94e-05
2302	0.0001118
2314	0.0001144
2326	0.0001118
2338	0.0001352
2350	0.0001222
2362	0.0001716
2374	0.0001196
2386	7.54e-05
2398	5.46e-05
2410	4.16e-05
2422	5.46e-05
2434	8.32e-05
2446	6.24e-05
2458	7.54e-05
2470	8.58e-05
2482	4.94e-05
2494	4.94e-05
2506	4.16e-05
2518	4.68e-05
2530	1.56e-05
2542	4.94e-05
2554	1.04e-05
2566	2.34e-05
2578	6.5e-05
2590	0.0001248
2602	4.16e-05
2614	5.46e-05
2626	7.54e-05
2638	6.24e-05
2650	7.02e-05
2662	6.5e-05
2674	3.9e-05
2686	3.9e-05
2698	4.94e-05
2710	8.06e-05
2722	5.2e-05
2734	5.2e-05
2746	6.5e-05
2758	9.88e-05
2770	0.0001248
2782	7.54e-05
2794	7.8e-05
2806	3.12e-05
2818	6.24e-05
2830	9.36e-05
2842	8.58e-05
2854	6.76e-05
2866	5.72e-05
2878	9.62e-05
2890	9.88e-05
2902	0.0001092
2914	9.36e-05
2926	0.0001066
2938	0.0001274
2950	0.0001352
2962	0.0001508
2974	0.0001222
2986	0.0001404
2998	0.0002028
3010	0.0002522
3022	0.0002964
3034	0.0003354
3046	0.0003874
3058	0.0006396
3070	0.0010998
3082	0.000897
3094	0.0005174
3106	0.0002054
3118	0.0001378
3130	5.2e-05
3142	7.54e-05
3154	0.0001144
3166	9.36e-05
3178	8.32e-05
3190	4.94e-05
3202	6.76e-05
3214	3.38e-05
3226	8.84e-05
3238	0.000104
3250	6.24e-05
3262	6.24e-05
3274	3.9e-05
3286	1.82e-05
3298	9.1e-05
3310	0.000104
3322	2.86e-05
3334	7.02e-05
3346	6.76e-05
3358	8.84e-05
3370	0.000117
3382	0.0001404
3394	0.0001196
3406	0.0001066
3418	0.0001274
3430	0.000104
3442	4.16e-05
3454	0.0001378
3466	0.0001768
3478	0.000195
3490	0.0002678
3502	0.0003354
3514	0.0003458
3526	0.0002106
3538	0.0001586
3550	0.0002886
3562	0.00078
3574	0.0051116
3586	0.010153
3598	0.0014638
3610	0.0003874
3622	0.0002652
3634	0.0001612
3646	0.0002184
3658	0.0001898
3670	0.0001378
3682	0.0001378
3694	0.0001248
3706	0.0001196
3718	0.0001144
3730	0.0001872
3742	0.0001508
3754	3.64e-05
3766	0.0001482
3778	8.84e-05
3790	0.000156
3802	0.0001378
3814	0.000117
3826	9.1e-05
3838	0.0001196
