Infrared Spectrum: t-Butyl ethyl malonate
Formula: C 9 H 16 O 4
CAS: 32864-38-3
State: gas
Origin: EPA-IR VAPOR PHASE LIBRARY
1/CM	ABSORBANCE
501.5	0.0002212
513.074	3.72e-05
524.648	1.5e-05
536.222	0.00012097
547.796	0.0002164
559.37	0.0004771
570.944	0.0008089
582.518	0.001201
594.092	0.001261
605.666	0.001111
617.24	0.0010404
628.814	0.0010126
640.388	0.000801
651.962	0.0008465
663.536	0.0010434
675.11	0.0008188
686.684	0.0006565
698.258	0.0004453
709.832	0.0003613
721.406	0.0006127
732.98	0.0010275
744.554	0.001501
756.128	0.001451
767.702	0.001191
779.276	0.001121
790.85	0.001111
802.423	0.001151
813.997	0.001461
825.571	0.002261
837.145	0.003361
848.719	0.003221
860.293	0.002321
871.867	0.001571
883.441	0.001591
895.015	0.001121
906.589	0.001271
918.163	0.001621
929.737	0.002111
941.311	0.002841
952.885	0.004051
964.459	0.004141
976.033	0.002611
987.607	0.001771
999.181	0.001781
1010.76	0.002711
1022.33	0.005601
1033.9	0.009901
1045.48	0.008791
1057.05	0.005061
1068.63	0.003761
1080.2	0.004331
1091.77	0.006751
1103.35	0.010211
1114.92	0.014781
1126.49	0.024111
1138.07	0.034571
1149.64	0.034041
1161.22	0.029961
1172.79	0.026331
1184.36	0.019501
1195.94	0.014301
1207.51	0.013961
1219.09	0.016231
1230.66	0.018801
1242.23	0.019861
1253.81	0.019111
1265.38	0.017281
1276.96	0.016331
1288.53	0.015621
1300.1	0.015711
1311.68	0.016771
1323.25	0.017881
1334.83	0.014411
1346.4	0.007921
1357.97	0.006971
1369.55	0.011351
1381.12	0.008991
1392.7	0.006281
1404.27	0.005281
1415.84	0.004051
1427.42	0.003261
1438.99	0.002791
1450.57	0.003161
1462.14	0.003651
1473.71	0.003671
1485.29	0.002901
1496.86	0.001761
1508.44	0.0010639
1520.01	0.0008603
1531.58	0.0007987
1543.16	0.0007287
1554.73	0.0007112
1566.31	0.0007262
1577.88	0.0007144
1589.45	0.0007371
1601.03	0.0007217
1612.6	0.0007441
1624.18	0.0007385
1635.75	0.0008116
1647.32	0.0008901
1658.9	0.0010395
1670.47	0.001181
1682.05	0.001481
1693.62	0.002081
1705.19	0.003411
1716.77	0.005951
1728.34	0.012251
1739.92	0.028371
1751.49	0.043371
1763.06	0.038871
1774.64	0.024181
1786.21	0.010371
1797.79	0.005291
1809.36	0.003181
1820.93	0.001981
1832.51	0.001351
1844.08	0.0010675
1855.66	0.0009134
1867.23	0.0008142
1878.8	0.0007683
1890.38	0.000736
1901.95	0.0006455
1913.53	0.0005566
1925.1	0.0005039
1936.67	0.0004656
1948.25	0.0004609
1959.82	0.000462
1971.4	0.0004533
1982.97	0.0004296
1994.54	0.0003767
2006.12	0.0003856
2017.69	0.0003516
2029.27	0.0003278
2040.84	0.0003158
2052.41	0.0002976
2063.99	0.000313
2075.56	0.0003515
2087.14	0.0003233
2098.71	0.0003414
2110.28	0.0003307
2121.86	0.0003197
2133.43	0.0003593
2145.01	0.0004302
2156.58	0.0004135
2168.15	0.0002987
2179.73	0.0002245
2191.3	0.0002236
2202.88	0.0002173
2214.45	0.0002469
2226.02	0.0002483
2237.6	0.0002775
2249.17	0.0002985
2260.74	0.0003334
2272.32	0.0004857
2283.89	0.0007682
2295.47	0.001401
2307.04	0.002321
2318.61	0.003291
2330.19	0.003671
2341.76	0.003171
2353.34	0.003341
2364.91	0.004691
2376.48	0.002861
2388.06	0.0006563
2399.63	0.0002383
2411.21	0.0002243
2422.78	0.00018085
2434.35	0.00017398
2445.93	0.00015659
2457.5	0.00015697
2469.08	0.00014502
2480.65	0.00014197
2492.22	0.00012381
2503.8	0.0001574
2515.37	0.00012754
2526.95	0.00012874
2538.52	0.00015147
2550.09	0.000110851
2561.67	7.33e-05
2573.24	7.01e-05
2584.82	0.00011472
2596.39	9.802e-05
2607.96	0.00011356
2619.54	0.0001111
2631.11	9.295e-05
2642.69	9.496e-05
2654.26	9.04e-05
2665.83	0.00011156
2677.41	0.00012685
2688.98	0.000110118
2700.56	0.00017602
2712.13	0.00018532
2723.7	0.0002301
2735.28	0.0002429
2746.85	0.000263
2758.43	0.0002833
2770	0.0002663
2781.57	0.000267
2793.15	0.0003679
2804.72	0.0003856
2816.3	0.0004598
2827.87	0.0005963
2839.44	0.0007198
2851.02	0.0009811
2862.59	0.001421
2874.17	0.002061
2885.74	0.002901
2897.31	0.003391
2908.89	0.004081
2920.46	0.004761
2932.04	0.006271
2943.61	0.008181
2955.18	0.007241
2966.76	0.008491
2978.33	0.013831
2989.91	0.015661
3001.48	0.008111
3013.05	0.005081
3024.63	0.002691
3036.2	0.001441
3047.78	0.0009619
3059.35	0.0008305
3070.92	0.0007699
3082.5	0.0007486
3094.07	0.0006929
3105.65	0.0006051
3117.22	0.000504
3128.79	0.0004185
3140.37	0.0003653
3151.94	0.0002935
3163.52	0.0003309
3175.09	0.0002761
3186.66	0.000266
3198.24	0.000327
3209.81	0.0002913
3221.39	0.0002594
3232.96	0.0002458
3244.53	0.000253
3256.11	0.0002266
3267.68	0.00015269
3279.26	0.00014649
3290.83	0.00015808
3302.4	0.00017273
3313.98	0.00012425
3325.55	0.000102538
3337.13	0.0002044
3348.7	0.0002496
3360.27	0.00018623
3371.85	0.000224
3383.42	0.00017722
3395	0.00013183
3406.57	0.00017708
3418.14	0.0002505
3429.72	0.0002649
3441.29	0.0002462
3452.86	0.0003182
3464.44	0.0003904
3476.01	0.000485
3487.59	0.0006875
3499.16	0.0006208
3510.73	0.0005768
3522.31	0.0004392
3533.88	0.0002967
3545.46	0.0002965
3557.03	0.0003491
3568.6	0.000451
3580.18	0.0004503
3591.75	0.0003675
3603.33	0.0002867
3614.9	0.0001825
3626.47	0.00018185
3638.05	0.000257
3649.62	0.000223
3661.2	0.0002479
3672.77	0.00019882
3684.34	0.00018528
3695.92	0.0002622
3707.49	0.000266
3719.07	0.0002545
3730.64	0.0002495
3742.21	0.0002278
3753.79	0.0002548
3765.36	0.00018198
3776.94	0.00018537
3788.51	0.0001706
3800.08	0.00019891
3811.66	0.00019762
3823.23	0.0002529
3834.81	0.00016762
3846.38	0.0002754
3857.95	0.00018009
3869.53	0.0002644
3881.1	0.0002584
3892.68	0.0002595
3904.25	0.0002411
3915.82	0.0002631
3927.4	0.0002953
3938.97	0.0002588
3950.55	0.0002566
3962.12	0.000307
3973.69	0.0002124
3985.27	0.0003156
3996.84	0.0002338
