Infrared Spectrum: BENZYLAMINE HYDROCHLORIDE
Formula: C7 H10 Cl N
CAS: 3287-99-8
State: SOLID (NUJOL MULL)
Class: COBLENTZ
Instrument: PERKIN-ELMER
Sampling: TRANSMISSION
Resolution: 4
Origin: ABBOTT LABORATORIES - WASHBURN
MICROMETERS	TRANSMITTANCE
2.008	0.568
2.04212	0.571
2.07623	0.573
2.11035	0.5797
2.14446	0.58
2.17858	0.5782
2.21269	0.5899
2.24681	0.5919
2.28092	0.592
2.31504	0.593
2.34915	0.5998
2.38327	0.61
2.41738	0.619
2.4515	0.621
2.48561	0.6259
2.51973	0.6449
2.55384	0.6544
2.58796	0.6596
2.62207	0.663
2.65619	0.6791
2.6903	0.6908
2.72442	0.6958
2.75853	0.696
2.79265	0.7005
2.82676	0.711
2.86088	0.718
2.89499	0.7258
2.92911	0.7378
2.96322	0.74
2.99734	0.7437
3.03145	0.7356
3.06557	0.6436
3.09968	0.5259
3.1338	0.4811
3.16791	0.3485
3.20203	0.2226
3.23614	0.1388
3.27026	0.0794
3.30437	0.0558
3.33849	0.0355
3.3726	0.0234
3.40672	0.0172
3.44083	0.0164
3.47495	0.0207
3.50906	0.0899
3.54318	0.1951
3.5773	0.2566
3.61141	0.2795
3.64553	0.2913
3.67964	0.302
3.71376	0.3077
3.74787	0.3918
3.78199	0.4401
3.8161	0.481
3.85022	0.4163
3.88433	0.3951
3.91845	0.495
3.95256	0.5048
3.98668	0.5574
4.02079	0.575
4.05491	0.5814
4.08902	0.6141
4.12314	0.6295
4.15725	0.6351
4.19137	0.636
4.22548	0.6298
4.2596	0.6078
4.29371	0.6277
4.32783	0.6629
4.36194	0.684
4.39606	0.6865
4.43017	0.691
4.46429	0.696
4.4984	0.689
4.53252	0.706
4.56663	0.708
4.60075	0.7
4.63486	0.691
4.66898	0.6795
4.70309	0.6684
4.73721	0.6569
4.77132	0.6182
4.80544	0.5764
4.83955	0.5327
4.87367	0.5307
4.90778	0.6164
4.9419	0.6616
4.97601	0.679
5.01013	0.7014
5.04424	0.709
5.07836	0.6938
5.11247	0.6952
5.14659	0.7271
5.18071	0.74
5.21482	0.7225
5.24894	0.7101
5.28305	0.7202
5.31717	0.74
5.35128	0.743
5.3854	0.739
5.41951	0.744
5.45363	0.742
5.48774	0.742
5.52186	0.7508
5.55597	0.752
5.59009	0.7481
5.6242	0.739
5.65832	0.754
5.69243	0.7601
5.72655	0.7601
5.76066	0.766
5.79478	0.764
5.82889	0.762
5.86301	0.7487
5.89712	0.7256
5.93124	0.6926
5.96535	0.6916
5.99947	0.7095
6.03358	0.716
6.0677	0.725
6.10181	0.732
6.13593	0.7345
6.17004	0.6369
6.20416	0.3106
6.23827	0.3201
6.27239	0.458
6.3065	0.5185
6.34062	0.5681
6.37473	0.604
6.40885	0.6078
6.44296	0.6061
6.47708	0.6116
6.51119	0.6515
6.54531	0.6555
6.57942	0.656
6.61354	0.6428
6.64765	0.5188
6.68177	0.5141
6.71589	0.2624
6.75	0.1421
6.78412	0.1236
6.81823	0.0964
6.85235	0.1071
6.88646	0.2571
6.92058	0.4091
6.95469	0.529
6.98881	0.5746
7.02292	0.62
7.05704	0.6444
7.09115	0.656
7.12527	0.652
7.15938	0.59
7.1935	0.4145
7.22761	0.3581
7.26173	0.4648
7.29584	0.554
7.32996	0.6297
7.36407	0.6639
7.39819	0.665
7.4323	0.6665
7.46642	0.6881
7.50053	0.6976
7.53465	0.7142
7.56876	0.7019
7.60288	0.6997
7.63699	0.7163
7.67111	0.725
7.70522	0.732
7.73934	0.73
7.77345	0.731
7.80757	0.7358
7.84168	0.74
7.8758	0.7479
7.90991	0.75
7.94403	0.7553
7.97814	0.762
8.01226	0.757
8.04637	0.76
8.08049	0.7628
8.1146	0.764
8.14872	0.7607
8.18283	0.6826
8.21695	0.5455
8.25107	0.7286
8.28518	0.7505
8.3193	0.756
8.35341	0.757
8.38753	0.7445
8.42164	0.757
8.45576	0.764
8.48987	0.7749
8.52399	0.771
8.5581	0.767
8.59222	0.767
8.62633	0.763
8.66045	0.753
8.69456	0.7516
8.72868	0.7648
8.76279	0.7719
8.79691	0.7721
8.83102	0.7667
8.86514	0.7427
8.89925	0.6569
8.93337	0.4321
8.96748	0.2818
9.0016	0.4882
9.03571	0.5523
9.06983	0.6025
9.10394	0.7142
9.13806	0.7484
9.17217	0.763
9.20629	0.769
9.2404	0.765
9.27452	0.76
9.30863	0.7424
9.34275	0.6871
9.37686	0.5283
9.41098	0.3363
9.44509	0.4157
9.47921	0.5524
9.51332	0.6567
9.54744	0.7096
9.58155	0.734
9.61567	0.7458
9.64978	0.703
9.6839	0.6638
9.71801	0.7463
9.75213	0.7604
9.78625	0.768
9.82036	0.7785
9.85448	0.7834
9.88859	0.791
9.92271	0.788
9.95682	0.7868
9.99094	0.7928
10.0251	0.8041
10.0592	0.802
10.0933	0.7871
10.1274	0.771
10.1615	0.778
10.1956	0.7629
10.2297	0.7023
10.2639	0.5969
10.298	0.5809
10.3321	0.6743
10.3662	0.7202
10.4003	0.7536
10.4344	0.76
10.4685	0.767
10.5027	0.773
10.5368	0.7769
10.5709	0.776
10.605	0.778
10.6391	0.7799
10.6732	0.779
10.7074	0.778
10.7415	0.7752
10.7756	0.7555
10.8097	0.6318
10.8438	0.4573
10.8779	0.5405
10.912	0.6772
10.9462	0.7484
10.9803	0.7764
11.0144	0.7891
11.0485	0.796
11.0826	0.798
11.1167	0.7898
11.1508	0.7762
11.185	0.7408
11.2191	0.6993
11.2532	0.621
11.2873	0.4907
11.3214	0.3849
11.3555	0.3896
11.3897	0.4967
11.4238	0.5865
11.4579	0.6727
11.492	0.7187
11.5261	0.7509
11.5602	0.772
11.5943	0.7785
11.6285	0.7868
11.6626	0.7918
11.6967	0.7988
11.7308	0.807
11.7649	0.817
11.799	0.819
11.8332	0.817
11.8673	0.8195
11.9014	0.8244
11.9355	0.8263
11.9696	0.827
12.0037	0.8314
12.0378	0.834
12.072	0.834
12.1061	0.835
12.1402	0.834
12.1743	0.836
12.2084	0.836
12.2425	0.836
12.2766	0.834
12.3108	0.834
12.3449	0.832
12.379	0.8301
12.4131	0.824
12.4472	0.825
12.4813	0.822
12.5155	0.8162
12.5496	0.7953
12.5837	0.7531
12.6178	0.6948
12.6519	0.6661
12.686	0.6994
12.7201	0.7644
12.7543	0.7859
12.7884	0.7995
12.8225	0.8137
12.8566	0.8142
12.8907	0.817
12.9248	0.815
12.959	0.8141
12.9931	0.812
13.0272	0.808
13.0613	0.8043
13.0954	0.7986
13.1295	0.7892
13.1636	0.7712
13.1978	0.7466
13.2319	0.6997
13.266	0.6003
13.3001	0.3936
13.3342	0.2005
13.3683	0.1445
13.4024	0.1216
13.4366	0.1335
13.4707	0.3492
13.5048	0.5311
13.5389	0.5945
13.573	0.6648
13.6071	0.6914
13.6413	0.7035
13.6754	0.709
13.7095	0.7137
13.7436	0.716
13.7777	0.713
13.8118	0.711
13.8459	0.708
13.8801	0.704
13.9142	0.704
13.9483	0.7084
13.9824	0.709
14.0165	0.7068
14.0506	0.7052
14.0847	0.6977
14.1189	0.6866
14.153	0.6651
14.1871	0.6292
14.2212	0.5938
14.2553	0.4972
14.2894	0.3526
14.3236	0.2069
14.3577	0.1177
14.3918	0.078
14.4259	0.0884
14.46	0.1593
14.4941	0.3143
14.5282	0.4437
14.5624	0.5136
14.5965	0.564
14.6306	0.6098
14.6647	0.6322
14.6988	0.6463
14.7329	0.6609
14.7671	0.665
14.8012	0.6759
14.8353	0.68
14.8694	0.6807
14.9035	0.6848
14.9376	0.6852
14.9717	0.682
15.0059	0.6853
15.04	0.6881
15.0741	0.6851
15.1082	0.6833
15.1423	0.6853
15.1764	0.679
15.2105	0.6782
15.2447	0.6746
15.2788	0.672
15.3129	0.667
15.347	0.6611
