Infrared Spectrum: o-METHOXYPHENYL ISOTHIOCYANATE
Formula: C8 H7 N O S
CAS: 3288-04-8
State: SOLUTION (10% CCl4 FOR 5000-1330, 10% CS2 FOR 1330-625 CM^-^1)
Class: COBLENTZ
Instrument: Not specified, most likely a prism, grating, or hybrid spectrometer.
Sampling: TRANSMISSION
Path length: 0.012 CM, 0.012 CM
Resolution: 4
Origin: DOW CHEMICAL COMPANY
MICROMETERS	TRANSMITTANCE
2.021	0.895
2.06216	0.893
2.10331	0.888
2.14447	0.895
2.18563	0.893
2.22678	0.881
2.26794	0.883
2.3091	0.881
2.35025	0.881
2.39141	0.878
2.43257	0.876
2.47372	0.881
2.51488	0.895
2.55604	0.895
2.59719	0.895
2.63835	0.903
2.67951	0.898
2.72066	0.898
2.76182	0.898
2.80297	0.898
2.84413	0.902
2.88529	0.905
2.92644	0.907
2.9676	0.905
3.00876	0.909
3.04991	0.903
3.09107	0.9
3.13223	0.89
3.17338	0.876
3.21454	0.821
3.2557	0.758
3.29685	0.739
3.33801	0.706
3.37917	0.55
3.42032	0.723
3.46148	0.799
3.50264	0.71
3.54379	0.861
3.58495	0.859
3.62611	0.83
3.66726	0.859
3.70842	0.893
3.74958	0.89
3.79073	0.873
3.83189	0.845
3.87305	0.809
3.9142	0.809
3.95536	0.811
3.99652	0.854
4.03767	0.861
4.07883	0.879
4.11998	0.879
4.16114	0.873
4.2023	0.876
4.24345	0.869
4.28461	0.874
4.32577	0.852
4.36692	0.83
4.40808	0.809
4.44924	0.74
4.49039	0.591
4.53155	0.445
4.57271	0.298
4.61386	0.121
4.65502	0.09
4.69618	0.039
4.73733	0.03
4.77849	0.03
4.81965	0.029
4.8608	0.024
4.90196	0.024
4.94312	0.029
4.98427	0.054
5.02543	0.209
5.06659	0.408
5.10774	0.586
5.1489	0.668
5.19006	0.751
5.23121	0.806
5.27237	0.77
5.31353	0.789
5.35468	0.787
5.39584	0.811
5.43699	0.871
5.47815	0.873
5.51931	0.879
5.56046	0.902
5.60162	0.902
5.64278	0.873
5.68393	0.907
5.72509	0.905
5.76625	0.905
5.8074	0.903
5.84856	0.898
5.88972	0.879
5.93087	0.876
5.97203	0.879
6.01319	0.898
6.05434	0.897
6.0955	0.869
6.13666	0.826
6.17781	0.734
6.21897	0.464
6.26013	0.252
6.30128	0.442
6.34244	0.535
6.3836	0.499
6.42475	0.451
6.46591	0.487
6.50707	0.55
6.54822	0.533
6.58938	0.492
6.63054	0.241
6.67169	0.078
6.71285	0.483
6.754	0.535
6.79516	0.238
6.83632	0.301
6.87747	0.653
6.91863	0.569
6.95979	0.799
7.00094	0.835
7.0421	0.861
7.08326	0.866
7.12441	0.845
7.16557	0.879
7.20673	0.895
7.24788	0.898
7.28904	0.9
7.3302	0.893
7.37135	0.888
7.41251	0.878
7.45367	0.861
7.49482	0.807
7.53598	0.746
7.57714	0.569
7.61829	0.274
7.65945	0.238
7.70061	0.451
7.74176	0.421
7.78292	0.289
7.82408	0.193
7.86523	0.068
7.90639	0.162
7.94755	0.44
7.9887	0.603
8.02986	0.59
8.07102	0.348
8.11217	0.149
8.15333	0.504
8.19448	0.732
8.23564	0.801
8.2768	0.823
8.31795	0.828
8.35911	0.806
8.40027	0.677
8.44142	0.488
8.48258	0.687
8.52374	0.758
8.56489	0.655
8.60605	0.523
8.64721	0.723
8.68836	0.794
8.72952	0.828
8.77068	0.833
8.81183	0.826
8.85299	0.78
8.89415	0.639
8.9353	0.337
8.97646	0.176
9.01762	0.567
9.05877	0.79
9.09993	0.842
9.14109	0.867
9.18224	0.874
9.2234	0.878
9.26456	0.873
9.30571	0.869
9.34687	0.864
9.38803	0.847
9.42918	0.804
9.47034	0.713
9.51149	0.521
9.55265	0.255
9.59381	0.279
9.63496	0.442
9.67612	0.26
9.71728	0.128
9.75843	0.269
9.79959	0.478
9.84075	0.639
9.8819	0.723
9.92306	0.77
9.96422	0.801
10.0054	0.823
10.0465	0.84
10.0877	0.85
10.1288	0.857
10.17	0.859
10.2112	0.852
10.2523	0.84
10.2935	0.83
10.3346	0.814
10.3758	0.799
10.4169	0.777
10.4581	0.754
10.4993	0.713
10.5404	0.646
10.5816	0.538
10.6227	0.385
10.6639	0.2
10.705	0.087
10.7462	0.121
10.7873	0.212
10.8285	0.358
10.8697	0.566
10.9108	0.668
10.952	0.704
10.9931	0.723
11.0343	0.728
11.0754	0.728
11.1166	0.728
11.1578	0.734
11.1989	0.747
11.2401	0.756
11.2812	0.759
11.3224	0.758
11.3635	0.753
11.4047	0.746
11.4459	0.74
11.487	0.735
11.5282	0.725
11.5693	0.71
11.6105	0.699
11.6516	0.687
11.6928	0.682
11.7339	0.686
11.7751	0.703
11.8163	0.727
11.8574	0.749
11.8986	0.771
11.9397	0.789
11.9809	0.801
12.022	0.802
12.0632	0.795
12.1044	0.802
12.1455	0.819
12.1867	0.828
12.2278	0.828
12.269	0.821
12.3101	0.816
12.3513	0.807
12.3925	0.801
12.4336	0.794
12.4748	0.78
12.5159	0.77
12.5571	0.749
12.5982	0.71
12.6394	0.6
12.6806	0.487
12.7217	0.473
12.7629	0.593
12.804	0.686
12.8452	0.728
12.8863	0.746
12.9275	0.747
12.9686	0.744
13.0098	0.728
13.051	0.706
13.0921	0.672
13.1333	0.624
13.1744	0.557
13.2156	0.461
13.2567	0.325
13.2979	0.154
13.3391	0.03
13.3802	0
13.4214	0
13.4625	0.039
13.5037	0.166
13.5448	0.336
13.586	0.463
13.6272	0.547
13.6683	0.59
13.7095	0.619
13.7506	0.639
13.7918	0.648
13.8329	0.644
13.8741	0.643
13.9152	0.663
13.9564	0.677
13.9976	0.682
14.0387	0.68
14.0799	0.672
14.121	0.663
14.1622	0.651
14.2033	0.638
14.2445	0.617
14.2857	0.595
14.3268	0.56
14.368	0.528
14.4091	0.493
14.4503	0.464
14.4914	0.437
14.5326	0.413
14.5738	0.394
14.6149	0.38
14.6561	0.372
14.6972	0.367
14.7384	0.368
14.7795	0.375
14.8207	0.387
14.8618	0.397
14.903	0.404
14.9442	0.418
14.9853	0.439
15.0265	0.449
15.0676	0.451
15.1088	0.449
15.1499	0.442
15.1911	0.435
15.2323	0.425
15.2734	0.416
15.3146	0.411
15.3557	0.408
15.3969	0.406
15.438	0.401
15.4792	0.397
15.5204	0.394
15.5615	0.391
15.6027	0.385
15.6438	0.38
15.685	0.373
15.7261	0.368
15.7673	0.361
15.8084	0.356
15.8496	0.351
15.8908	0.355
