Infrared Spectrum: 2-Fluoro-6-(trifluoromethylbenzoic acid
Formula: C 8 H 4 F 4 O 2
CAS: 32890-94-1
State: gas
Origin: EPA-IR VAPOR PHASE LIBRARY
1/CM	ABSORBANCE
549.8	0.003878
559.445	0.003438
569.09	0.002638
578.735	0.001988
588.38	0.001848
598.025	0.002278
607.67	0.001758
617.315	0.0010023
626.96	0.0010137
636.605	0.001758
646.251	0.003748
655.896	0.002648
665.541	0.0010293
675.186	0.000743
684.831	0.0007541
694.476	0.0008597
704.121	0.0009023
713.766	0.001528
723.411	0.003528
733.056	0.004348
742.701	0.003328
752.346	0.002998
761.991	0.002288
771.636	0.001608
781.281	0.001758
790.926	0.001928
800.571	0.002458
810.216	0.002658
819.861	0.001368
829.507	0.0007897
839.152	0.0006222
848.797	0.0006523
858.442	0.0006008
868.087	0.0006166
877.732	0.0005899
887.377	0.0007063
897.022	0.0010382
906.667	0.003338
916.312	0.006738
925.957	0.003378
935.602	0.0010202
945.247	0.0008405
954.892	0.0006503
964.537	0.0006811
974.182	0.0007497
983.827	0.0007195
993.472	0.0006971
1003.12	0.0006925
1012.76	0.0007212
1022.41	0.0008417
1032.05	0.000879
1041.7	0.001778
1051.34	0.003968
1060.99	0.004308
1070.63	0.002258
1080.28	0.002318
1089.92	0.004358
1099.57	0.004168
1109.21	0.002678
1118.86	0.003358
1128.5	0.008008
1138.15	0.011538
1147.79	0.011908
1157.44	0.021288
1167.08	0.028188
1176.73	0.021598
1186.37	0.015538
1196.02	0.010308
1205.66	0.005688
1215.31	0.003268
1224.95	0.002218
1234.6	0.002068
1244.24	0.002548
1253.89	0.005488
1263.53	0.006108
1273.18	0.003508
1282.82	0.003858
1292.47	0.005438
1302.11	0.008488
1311.76	0.018468
1321.4	0.024438
1331.05	0.014688
1340.69	0.007208
1350.34	0.004158
1359.98	0.003688
1369.63	0.002978
1379.27	0.001948
1388.92	0.0011745
1398.56	0.0008816
1408.21	0.0007718
1417.85	0.0007479
1427.5	0.0008407
1437.14	0.0011574
1446.79	0.002108
1456.43	0.004058
1466.08	0.006188
1475.73	0.004768
1485.37	0.002438
1495.02	0.001268
1504.66	0.0008425
1514.31	0.000717
1523.95	0.0006522
1533.6	0.000641
1543.24	0.0007183
1552.89	0.0006346
1562.53	0.0007796
1572.18	0.001103
1581.82	0.001558
1591.47	0.001498
1601.11	0.001258
1610.76	0.001638
1620.4	0.001658
1630.05	0.0010133
1639.69	0.000712
1649.34	0.0006528
1658.98	0.0005792
1668.63	0.000492
1678.27	0.0005286
1687.92	0.0005335
1697.56	0.0006549
1707.21	0.0008415
1716.85	0.0009599
1726.5	0.001218
1736.14	0.001428
1745.79	0.001518
1755.43	0.001848
1765.08	0.004218
1774.72	0.014238
1784.37	0.023168
1794.01	0.009898
1803.66	0.002948
1813.3	0.001858
1822.95	0.001328
1832.59	0.0011094
1842.24	0.0008576
1851.88	0.000778
1861.53	0.0007218
1871.17	0.0006625
1880.82	0.0005827
1890.46	0.000464
1900.11	0.0004873
1909.75	0.0004278
1919.4	0.0004186
1929.04	0.0004973
1938.69	0.0005129
1948.33	0.0004828
1957.98	0.0003464
1967.62	0.0003397
1977.27	0.00030188
1986.91	0.0003119
1996.56	0.0002913
2006.2	0.00028801
2015.85	0.00029519
2025.49	0.00026707
2035.14	0.00026466
2044.78	0.00030781
2054.43	0.00024993
2064.07	0.0003106
2073.72	0.0002974
2083.36	0.00026821
2093.01	0.00029029
2102.65	0.00030738
2112.3	0.00028728
2121.94	0.00024252
2131.59	0.0001935
2141.23	0.00019898
2150.88	0.00022422
2160.52	0.00024996
2170.17	0.00030556
2179.81	0.00030035
2189.46	0.00027982
2199.1	0.00025066
2208.75	0.00024109
2218.39	0.00025148
2228.04	0.00025443
2237.68	0.00020609
2247.33	0.00026668
2256.97	0.00026676
2266.62	0.0001965
2276.26	0.000212306
2285.91	0.00025322
2295.55	0.00026355
2305.2	0.00024054
2314.84	0.00023304
2324.49	0.00027327
2334.13	0.00027617
2343.78	0.00028052
2353.42	0.0003444
2363.07	0.0003123
2372.72	0.0003195
2382.36	0.0002455
2392.01	0.00023496
2401.65	0.000125
2411.3	0.0001229
2420.94	0.00020038
2430.59	0.00023593
2440.23	0.0001715
2449.88	0.0001933
2459.52	0.0001913
2469.17	0.0001809
2478.81	0.000115
2488.46	0.0001208
2498.1	0.000217469
2507.75	0.00020497
2517.39	0.00022477
2527.04	0.0001622
2536.68	0.0002363
2546.33	0.0001652
2555.97	0.00022611
2565.62	0.0001177
2575.26	0.000108
2584.91	0.0001317
2594.55	9e-05
2604.2	9.3e-05
2613.84	0.0001583
2623.49	0.0001506
2633.13	7.2e-05
2642.78	0.0001204
2652.42	4.5e-05
2662.07	0.0001165
2671.71	0.0001137
2681.36	8.9e-05
2691	7.5e-05
2700.65	0.0001398
2710.29	2.3e-05
2719.94	0.0001241
2729.58	8e-05
2739.23	7.1e-05
2748.87	8.5e-05
2758.52	8.6e-05
2768.16	3.1e-05
2777.81	8.8e-05
2787.45	3.3e-05
2797.1	1.3e-05
2806.74	8.4e-05
2816.39	0.0001354
2826.03	0.000105
2835.68	4.4e-05
2845.32	0.0001637
2854.97	0.0001148
2864.61	6.7e-05
2874.26	0.0001178
2883.9	0.0001821
2893.55	0.0001903
2903.19	0.0001716
2912.84	0.0001661
2922.48	0.0002305
2932.13	7.2e-05
2941.77	0.000117
2951.42	0.0001706
2961.06	0.0001758
2970.71	9.7e-05
2980.35	0.0001413
2990	9.7e-05
2999.64	0.00026729
3009.29	0.00026622
3018.93	0.0001673
3028.58	0.00022305
3038.22	0.00028979
3047.87	0.0003394
3057.51	0.00027132
3067.16	0.00022243
3076.8	0.00030703
3086.45	0.0004257
3096.09	0.0004673
3105.74	0.0003159
3115.38	0.0002556
3125.03	0.00026189
3134.67	0.0003013
3144.32	0.00029747
3153.96	0.0004144
3163.61	0.00026363
3173.25	0.0003581
3182.9	0.00025317
3192.54	0.0003956
3202.19	0.0003369
3211.83	0.0003204
3221.48	0.0003926
3231.12	0.0003613
3240.77	0.00029582
3250.41	0.0003184
3260.06	0.0004398
3269.7	0.0004165
3279.35	0.000469
3289	0.0004308
3298.64	0.0004674
3308.29	0.0004546
3317.93	0.000446
3327.58	0.0004418
3337.22	0.0004349
3346.87	0.0004975
3356.51	0.0005019
3366.16	0.0004931
3375.8	0.0003755
3385.45	0.0004364
3395.09	0.0004895
3404.74	0.0004978
3414.38	0.0004627
3424.03	0.0004673
3433.67	0.000612
3443.32	0.0003715
3452.96	0.0004316
3462.61	0.0005835
3472.25	0.0005673
3481.9	0.000603
3491.54	0.0005903
3501.19	0.000553
3510.83	0.0005245
3520.48	0.000608
3530.12	0.0006303
3539.77	0.0008493
3549.41	0.001588
3559.06	0.005738
3568.7	0.007438
3578.35	0.002568
3587.99	0.0009117
3597.64	0.0006767
3607.28	0.0006113
3616.93	0.0007422
3626.57	0.0007404
3636.22	0.0007114
3645.86	0.0006013
3655.51	0.0005797
3665.15	0.0006065
3674.8	0.0005058
3684.44	0.0005482
3694.09	0.0005662
3703.73	0.0005236
3713.38	0.0005624
3723.02	0.0004742
3732.67	0.0003902
3742.31	0.0006263
3751.96	0.0006083
3761.6	0.0005393
3771.25	0.0005333
3780.89	0.000485
3790.54	0.000532
3800.18	0.0005421
3809.83	0.0005116
3819.47	0.0005149
3829.12	0.0005718
3838.76	0.0004645
3848.41	0.0005614
3858.05	0.000481
3867.7	0.0005475
3877.34	0.0005073
3886.99	0.00044
3896.63	0.0006147
3906.28	0.0003927
3915.92	0.0003968
3925.57	0.0004041
3935.21	0.0004599
3944.86	0.0004929
3954.5	0.000565
3964.15	0.0005259
3973.79	0.0004838
3983.44	0.0004704
3993.08	0.0004391
