Infrared Spectrum: 2,4-Bis(trifluoromethyl)benzoic acid
Formula: C 9 H 4 F 6 O 2
CAS: 32890-87-2
State: gas
Origin: EPA-IR VAPOR PHASE LIBRARY
1/CM	ABSORBANCE
549.8	0.006685
559.445	0.006615
569.09	0.006085
578.734	0.005765
588.379	0.004725
598.024	0.004435
607.669	0.005815
617.313	0.005385
626.958	0.002465
636.603	0.001875
646.248	0.003425
655.893	0.003365
665.537	0.004595
675.182	0.006975
684.827	0.002385
694.472	0.002225
704.116	0.002675
713.761	0.002765
723.406	0.004255
733.051	0.008725
742.695	0.012455
752.34	0.005725
761.985	0.003225
771.63	0.002315
781.275	0.003285
790.919	0.003875
800.564	0.003075
810.209	0.002615
819.854	0.002605
829.498	0.002205
839.143	0.003975
848.788	0.010085
858.433	0.009415
868.078	0.002665
877.722	0.0009753
887.367	0.0014699
897.012	0.0018055
906.657	0.004185
916.301	0.007485
925.946	0.002785
935.591	0.0015026
945.236	0.0012914
954.88	0.0010921
964.525	0.0012743
974.17	0.001905
983.815	0.0014878
993.46	0.0012649
1003.1	0.002145
1012.75	0.002845
1022.39	0.003535
1032.04	0.006725
1041.68	0.020175
1051.33	0.020635
1060.97	0.008975
1070.62	0.011275
1080.26	0.020345
1089.91	0.023155
1099.55	0.030845
1109.2	0.020925
1118.84	0.014285
1128.49	0.016295
1138.13	0.027075
1147.78	0.049985
1157.42	0.092275
1167.07	0.100075
1176.71	0.109045
1186.36	0.096595
1196	0.044905
1205.64	0.017295
1215.29	0.011955
1224.93	0.008935
1234.58	0.007865
1244.22	0.009865
1253.87	0.018165
1263.51	0.047315
1273.16	0.088095
1282.8	0.080515
1292.45	0.051965
1302.09	0.040245
1311.74	0.022895
1321.38	0.021595
1331.03	0.029825
1340.67	0.036645
1350.32	0.024675
1359.96	0.011165
1369.61	0.007505
1379.25	0.005955
1388.9	0.004255
1398.54	0.002935
1408.18	0.002475
1417.83	0.002105
1427.47	0.002275
1437.12	0.0016747
1446.76	0.0016698
1456.41	0.0014278
1466.05	0.0015259
1475.7	0.0013994
1485.34	0.0015173
1494.99	0.002305
1504.63	0.002785
1514.28	0.002075
1523.92	0.001875
1533.57	0.0016951
1543.21	0.001865
1552.86	0.0017077
1562.5	0.0018104
1572.15	0.002675
1581.79	0.003425
1591.44	0.003035
1601.08	0.001995
1610.73	0.0015881
1620.37	0.002455
1630.01	0.002295
1639.66	0.0016662
1649.3	0.0011292
1658.95	0.0012181
1668.59	0.0012634
1678.24	0.0011253
1687.88	0.0014575
1697.53	0.001599
1707.17	0.002075
1716.82	0.002235
1726.46	0.003205
1736.11	0.004855
1745.75	0.006625
1755.4	0.011135
1765.04	0.024675
1774.69	0.044055
1784.33	0.037185
1793.98	0.016495
1803.62	0.008545
1813.27	0.005255
1822.91	0.003745
1832.55	0.002755
1842.2	0.002035
1851.84	0.0016879
1861.49	0.0014508
1871.13	0.0011775
1880.78	0.0011135
1890.42	0.0011159
1900.07	0.0010103
1909.71	0.0012337
1919.36	0.0013343
1929	0.0012522
1938.65	0.0014854
1948.29	0.0013787
1957.94	0.0010165
1967.58	0.0010987
1977.23	0.000723
1986.87	0.0007655
1996.52	0.00088333
2006.16	0.00089729
2015.81	0.0007816
2025.45	0.0009879
2035.1	0.00089106
2044.74	0.00087569
2054.38	0.0009623
2064.03	0.00088558
2073.67	0.00092201
2083.32	0.00085516
2092.96	0.00090502
2102.61	0.00084867
2112.25	0.00087622
2121.9	0.000693
2131.54	0.00091157
2141.19	0.00082861
2150.83	0.0007713
2160.48	0.0009621
2170.12	0.000627
2179.77	0.0009552
2189.41	0.000727
2199.06	0.00092399
2208.7	0.00085859
2218.35	0.000836564
2227.99	0.0012445
2237.64	0.00087735
2247.28	0.0010966
2256.92	0.0009928
2266.57	0.0010036
2276.21	0.0010913
2285.86	0.0011973
2295.5	0.0011684
2305.15	0.0012015
2314.79	0.0010269
2324.44	0.0010663
2334.08	0.0011635
2343.73	0.0010763
2353.37	0.0011445
2363.02	0.0011263
2372.66	0.0013343
2382.31	0.0007452
2391.95	0.00090201
2401.6	0.001001
2411.24	0.00091309
2420.89	0.0007694
2430.53	0.0010592
2440.18	0.0007728
2449.82	0.0010027
2459.47	0.000597
2469.11	0.0007999
2478.75	0.0009663
2488.4	0.00089612
2498.04	0.0010277
2507.69	0.0009466
2517.33	0.0009494
2526.98	0.00086761
2536.62	0.00087691
2546.27	0.001121
2555.91	0.000592
2565.56	0.00093425
2575.2	0.000539
2584.85	0.0010449
2594.49	0.000631
2604.14	0.000711
2613.78	0.0009738
2623.43	0.0008162
2633.07	0.00090057
2642.72	0.0007803
2652.36	0.000291
2662.01	0.000669
2671.65	0.000468
2681.29	0.0008127
2690.94	0.0009625
2700.58	0.0011478
2710.23	0.000834894
2719.87	0.00090535
2729.52	0.00089487
2739.16	0.000609
2748.81	0.000972
2758.45	0.0009714
2768.1	0.000677
2777.74	0.00085761
2787.39	0.00092492
2797.03	0.000573
2806.68	0.0008021
2816.32	0.000636
2825.97	0.000432
2835.61	0.00086184
2845.26	0.000622
2854.9	0.0010161
2864.55	0.0010356
2874.19	0.0010159
2883.84	0.00092707
2893.48	0.00082606
2903.12	0.000601
2912.77	0.0012333
2922.41	0.0010556
2932.06	0.0009986
2941.7	0.0008064
2951.35	0.000840697
2960.99	0.0008947
2970.64	0.0010727
2980.28	0.00067
2989.93	0.0012408
2999.57	0.000683
3009.22	0.000604
3018.86	0.0008053
3028.51	0.0010765
3038.15	0.0009622
3047.8	0.0011974
3057.44	0.000558
3067.09	0.000657
3076.73	0.0007551
3086.38	0.001118
3096.02	0.0010168
3105.67	0.000645
3115.31	0.000482
3124.95	0.00069
3134.6	0.000597
3144.24	0.0009563
3153.89	0.0010896
3163.53	0.0007641
3173.18	0.00084947
3182.82	0.0007953
3192.47	0.000245
3202.11	0.0007621
3211.76	0.00088013
3221.4	0.000374
3231.05	0.0011723
3240.69	0.000347
3250.34	0.00088675
3259.98	0.000477
3269.63	0.0009635
3279.27	0.000724
3288.92	0.000733
3298.56	0.000715
3308.21	0.000362
3317.85	0.00058
3327.49	0.0013792
3337.14	0.000518
3346.78	0.000581
3356.43	0.00083125
3366.07	0.000405
3375.72	0.00092973
3385.36	0.000547
3395.01	0.000475
3404.65	0.000673
3414.3	0.00047
3423.94	0.0007559
3433.59	0.0008085
3443.23	0.000508
3452.88	0.0012225
3462.52	0.0013804
3472.17	0.000638
3481.81	0.0012174
3491.46	0.0008494
3501.1	0.00061
3510.75	0.0011791
3520.39	0.0014443
3530.04	0.0010216
3539.68	0.001855
3549.32	0.002375
3558.97	0.007645
3568.61	0.027475
3578.26	0.009795
3587.9	0.002585
3597.55	0.0013928
3607.19	0.0012818
3616.84	0.0015161
3626.48	0.001855
3636.13	0.0011068
3645.77	0.0009924
3655.42	0.00084594
3665.06	0.0010733
3674.71	0.0008089
3684.35	0.000692
3694	0.000228
3703.64	0.001301
3713.29	0.00085506
3722.93	0.00066
3732.58	0.0010229
3742.22	0.0007572
3751.86	0.0011641
3761.51	0.0009757
3771.15	0.000527
3780.8	0.0009599
3790.44	0.0009783
3800.09	0.000608
3809.73	0.00087198
3819.38	0.0009438
3829.02	0.001038
3838.67	0.000198
3848.31	0.000718
3857.96	0.000359
3867.6	0.0011711
3877.25	0.000665
3886.89	0.000608
3896.54	0.000405
3906.18	0.0009752
3915.83	0.00089258
3925.47	0.000572
3935.12	0.000301
3944.76	0.00086454
3954.41	0.0010657
3964.05	0.000493
3973.69	0.000725
3983.34	0.00091349
3992.98	0.001407
