Infrared Spectrum: Ethyl cyclohexylmethanoate
Formula: C 9 H 16 O 2
CAS: 3289-28-9
State: gas
Instrument: HP-GC/MS/IRD
Origin: NIST Mass Spectrometry Data Center
1/CM	ABSORBANCE
550	0.0001416
562	0
574	0.0001593
586	0.0001475
598	0.000236
610	0.0003245
622	0.0003009
634	0.0003599
646	0.000413
658	0.000649
670	0.0006254
682	0.0007552
694	0.0007257
706	0.000708
718	0.0007434
730	0.0008496
742	0.0011387
754	0.0013924
766	0.0012921
778	0.0011387
790	0.0010679
802	0.0009853
814	0.000944
826	0.0009971
838	0.0015045
850	0.0023305
862	0.0024839
874	0.0020945
886	0.0018054
898	0.0017995
910	0.0016343
922	0.0018349
934	0.0017287
946	0.001298
958	0.0010561
970	0.0010325
982	0.0012803
994	0.0019116
1006	0.0033099
1018	0.0060416
1030	0.0106318
1042	0.0177767
1054	0.0134461
1066	0.0062009
1078	0.0052274
1090	0.0070033
1102	0.009027
1114	0.0111038
1126	0.0171631
1138	0.0201131
1150	0.0207798
1162	0.0342495
1174	0.038586
1186	0.0315532
1198	0.0218595
1210	0.0169153
1222	0.0171041
1234	0.0175938
1246	0.0195644
1258	0.012626
1270	0.0080594
1282	0.006549
1294	0.0072216
1306	0.010561
1318	0.0106495
1330	0.007434
1342	0.0042008
1354	0.0033925
1366	0.0056345
1378	0.0071036
1390	0.0040769
1402	0.0031329
1414	0.0027199
1426	0.0028379
1438	0.004425
1450	0.0083367
1462	0.0083839
1474	0.0049737
1486	0.0025016
1498	0.0014396
1510	0.000944
1522	0.000826
1534	0.0007729
1546	0.000708
1558	0.0006313
1570	0.0005605
1582	0.000531
1594	0.0005723
1606	0.0005723
1618	0.00059
1630	0.0006667
1642	0.0007257
1654	0.0007965
1666	0.000944
1678	0.0011623
1690	0.0017346
1702	0.0029854
1714	0.0057525
1726	0.0139358
1738	0.0319662
1750	0.0419077
1762	0.0231693
1774	0.0073278
1786	0.0027494
1798	0.0014868
1810	0.0009676
1822	0.0007493
1834	0.0006254
1846	0.0005605
1858	0.000531
1870	0.0005133
1882	0.0004838
1894	0.0004661
1906	0.0004366
1918	0.0003599
1930	0.0003009
1942	0.0003186
1954	0.0003363
1966	0.000354
1978	0.0003894
1990	0.0003894
2002	0.0003481
2014	0.000354
2026	0.0003776
2038	0.0003245
2050	0.0003363
2062	0.0003068
2074	0.0002655
2086	0.0002714
2098	0.0002419
2110	0.0002242
2122	0.0001947
2134	0.000177
2146	0.0001534
2158	0.0001652
2170	0.0001416
2182	0.0001593
2194	0.0001652
2206	0.0001652
2218	0.0001534
2230	0.0001947
2242	0.0001888
2254	0.0001888
2266	0.0001239
2278	0.0001298
2290	0.0001711
2302	0.0001475
2314	0.0001239
2326	9.44e-05
2338	0.000118
2350	0.0001298
2362	0.000118
2374	0.0001416
2386	0.0001475
2398	0.0001475
2410	0.0001003
2422	7.08e-05
2434	6.49e-05
2446	3.54e-05
2458	0
2470	7.67e-05
2482	0.0001003
2494	7.67e-05
2506	5.9e-05
2518	6.49e-05
2530	7.08e-05
2542	6.49e-05
2554	7.08e-05
2566	8.85e-05
2578	0.0001416
2590	0.0002183
2602	0.0002124
2614	0.0002065
2626	0.0002419
2638	0.000295
2650	0.0004189
2662	0.0006372
2674	0.0006254
2686	0.0005074
2698	0.0003953
2710	0.0003599
2722	0.0003186
2734	0.0002891
2746	0.0003481
2758	0.0004248
2770	0.0005546
2782	0.0007729
2794	0.0009912
2806	0.0011387
2818	0.0014042
2830	0.0019352
2842	0.0036816
2854	0.0106908
2866	0.0181956
2878	0.012803
2890	0.0090211
2902	0.0108737
2914	0.0178062
2926	0.0328748
2938	0.0569114
2950	0.047377
2962	0.0212577
2974	0.0131865
2986	0.0125847
2998	0.008083
3010	0.0045843
3022	0.0025193
3034	0.0014986
3046	0.0009735
3058	0.0007375
3070	0.0006195
3082	0.000531
3094	0.0004897
3106	0.0004189
3118	0.0003658
3130	0.0003422
3142	0.000354
3154	0.0003599
3166	0.000354
3178	0.0002832
3190	0.0002419
3202	0.0001652
3214	0.0001593
3226	0.0001298
3238	0.0001416
3250	0.0001534
3262	0.0001416
3274	7.67e-05
3286	0.0001121
3298	0.0001121
3310	6.49e-05
3322	6.49e-05
3334	8.26e-05
3346	8.26e-05
3358	8.85e-05
3370	0.0001239
3382	9.44e-05
3394	0.0001298
3406	0.0001003
3418	7.67e-05
3430	0.0001475
3442	0.0002065
3454	0.0003186
3466	0.0004248
3478	0.0005192
3490	0.0004012
3502	0.0002006
3514	0.0001534
3526	7.08e-05
3538	5.9e-05
3550	5.31e-05
3562	2.95e-05
3574	3.54e-05
3586	6.49e-05
3598	4.13e-05
3610	2.36e-05
3622	5.31e-05
3634	2.95e-05
3646	4.13e-05
3658	2.36e-05
3670	3.54e-05
3682	4.13e-05
3694	3.54e-05
3706	6.49e-05
3718	7.67e-05
3730	9.44e-05
3742	7.08e-05
3754	5.31e-05
3766	0.0001121
3778	0.0001062
3790	0.0001062
3802	9.44e-05
3814	9.44e-05
3826	0.0001298
3838	0.0001121
