Infrared Spectrum: NICOTINAMIDE, 6-AMINO-
Formula: C6 H7 N3 O
CAS: 329-89-5
State: SOLID (1 mg / 650 mg KBr DISC)
Class: COBLENTZ III
Instrument: PERKIN-ELMER 521 (GRATING)
Instrument parameters: FILTER CHANGE AT 3130, 2475, 2000, 1150, 700, 410 CM^-^1, GRATING CHANGES AT 2000, 630 CM^-^1
Sampling: TRANSMISSION
Resolution: 4
Origin: SOUTHERN RESEARCH INSTITUTE
1/CM	TRANSMITTANCE
228.634	0.188
237.68	0.198
246.725	0.215
255.771	0.247
264.816	0.31
273.862	0.389
282.907	0.458
291.953	0.495
300.998	0.533
310.044	0.562
319.089	0.586
328.135	0.611
337.181	0.642
346.226	0.654
355.272	0.672
364.317	0.698
373.363	0.71
382.408	0.722
391.454	0.717
400.499	0.699
409.545	0.707
418.59	0.702
427.636	0.675
436.681	0.662
445.727	0.71
454.773	0.719
463.818	0.715
472.864	0.711
481.909	0.707
490.955	0.702
500	0.649
509.046	0.601
518.091	0.602
527.137	0.603
536.182	0.575
545.228	0.637
554.274	0.661
563.319	0.658
572.365	0.646
581.41	0.635
590.456	0.618
599.501	0.592
608.547	0.577
617.592	0.629
626.638	0.603
635.683	0.592
644.729	0.619
653.775	0.605
662.82	0.631
671.866	0.666
680.911	0.711
689.957	0.737
699.002	0.772
708.048	0.79
717.093	0.772
726.139	0.773
735.184	0.783
744.23	0.787
753.276	0.77
762.321	0.729
771.367	0.766
780.412	0.731
789.458	0.758
798.503	0.749
807.549	0.754
816.594	0.776
825.64	0.784
834.685	0.618
843.731	0.772
852.776	0.802
861.822	0.826
870.868	0.85
879.913	0.849
888.959	0.848
898.004	0.845
907.05	0.843
916.095	0.84
925.141	0.84
934.186	0.835
943.232	0.817
952.277	0.745
961.323	0.822
970.369	0.822
979.414	0.818
988.46	0.814
997.505	0.812
1006.55	0.758
1015.6	0.718
1024.64	0.798
1033.69	0.8
1042.73	0.797
1051.78	0.794
1060.82	0.79
1069.87	0.782
1078.92	0.776
1087.96	0.772
1097.01	0.767
1106.05	0.731
1115.1	0.652
1124.14	0.655
1133.19	0.716
1142.23	0.715
1151.28	0.558
1160.32	0.624
1169.37	0.777
1178.42	0.791
1187.46	0.791
1196.51	0.79
1205.55	0.783
1214.6	0.779
1223.64	0.775
1232.69	0.769
1241.73	0.762
1250.78	0.752
1259.83	0.738
1268.87	0.703
1277.92	0.628
1286.96	0.705
1296.01	0.698
1305.05	0.636
1314.1	0.564
1323.14	0.605
1332.19	0.669
1341.24	0.631
1350.28	0.526
1359.33	0.39
1368.37	0.237
1377.42	0.228
1386.46	0.344
1395.51	0.46
1404.55	0.685
1413.6	0.586
1422.65	0.425
1431.69	0.596
1440.74	0.716
1449.78	0.752
1458.83	0.774
1467.87	0.784
1476.92	0.785
1485.96	0.769
1495.01	0.751
1504.06	0.55
1513.1	0.627
1522.15	0.705
1531.19	0.761
1540.24	0.77
1549.28	0.736
1558.33	0.668
1567.37	0.693
1576.42	0.621
1585.47	0.389
1594.51	0.158
1603.56	0.371
1612.6	0.427
1621.65	0.351
1630.69	0.358
1639.74	0.352
1648.78	0.259
1657.83	0.28
1666.88	0.294
1675.92	0.422
1684.97	0.592
1694.01	0.718
1703.06	0.705
1712.1	0.731
1721.15	0.784
1730.19	0.84
1739.24	0.855
1748.29	0.867
1757.33	0.876
1766.38	0.881
1775.42	0.884
1784.47	0.887
1793.51	0.891
1802.56	0.892
1811.6	0.893
1820.65	0.895
1829.7	0.896
1838.74	0.896
1847.79	0.895
1856.83	0.895
1865.88	0.893
1874.92	0.892
1883.97	0.89
1893.01	0.888
1902.06	0.886
1911.11	0.886
1920.15	0.887
1929.2	0.888
1938.24	0.891
1947.29	0.893
1956.33	0.893
1965.38	0.894
1974.42	0.893
1983.47	0.892
1992.51	0.889
2001.56	0.886
2010.61	0.885
2019.65	0.884
2028.7	0.884
2037.74	0.884
2046.79	0.884
2055.83	0.882
2064.88	0.882
2073.92	0.883
2082.97	0.883
2092.02	0.883
2101.06	0.883
2110.11	0.883
2119.15	0.883
2128.2	0.882
2137.24	0.879
2146.29	0.878
2155.33	0.877
2164.38	0.876
2173.43	0.876
2182.47	0.876
2191.52	0.876
2200.56	0.875
2209.61	0.874
2218.65	0.874
2227.7	0.873
2236.74	0.872
2245.79	0.872
2254.84	0.87
2263.88	0.868
2272.93	0.867
2281.97	0.867
2291.02	0.867
2300.06	0.868
2309.11	0.868
2318.15	0.867
2327.2	0.866
2336.25	0.866
2345.29	0.866
2354.34	0.866
2363.38	0.866
2372.43	0.866
2381.47	0.866
2390.52	0.865
2399.56	0.863
2408.61	0.862
2417.66	0.86
2426.7	0.858
2435.75	0.857
2444.79	0.855
2453.84	0.854
2462.88	0.853
2471.93	0.852
2480.97	0.851
2490.02	0.85
2499.07	0.849
2508.11	0.847
2517.16	0.845
2526.2	0.845
2535.25	0.844
2544.29	0.842
2553.34	0.841
2562.38	0.841
2571.43	0.84
2580.48	0.838
2589.52	0.836
2598.57	0.835
2607.61	0.835
2616.66	0.834
2625.7	0.832
2634.75	0.83
2643.79	0.828
2652.84	0.823
2661.89	0.819
2670.93	0.815
2679.98	0.812
2689.02	0.806
2698.07	0.8
2707.11	0.794
2716.16	0.788
2725.2	0.787
2734.25	0.788
2743.3	0.792
2752.34	0.792
2761.39	0.776
2770.43	0.764
2779.48	0.759
2788.52	0.765
2797.57	0.772
2806.61	0.78
2815.66	0.779
2824.7	0.776
2833.75	0.766
2842.8	0.761
2851.84	0.76
2860.89	0.759
2869.93	0.759
2878.98	0.755
2888.02	0.752
2897.07	0.743
2906.11	0.727
2915.16	0.714
2924.21	0.707
2933.25	0.706
2942.3	0.7
2951.34	0.691
2960.39	0.686
2969.43	0.685
2978.48	0.681
2987.52	0.677
2996.57	0.663
3005.62	0.637
3014.66	0.623
3023.71	0.61
3032.75	0.596
3041.8	0.574
3050.84	0.551
3059.89	0.535
3068.93	0.52
3077.98	0.499
3087.03	0.475
3096.07	0.446
3105.12	0.415
3114.16	0.38
3123.21	0.342
3132.25	0.301
3141.3	0.267
3150.34	0.269
3159.39	0.29
3168.44	0.313
3177.48	0.344
3186.53	0.387
3195.57	0.419
3204.62	0.457
3213.66	0.494
3222.71	0.522
3231.75	0.544
3240.8	0.548
3249.85	0.548
3258.89	0.543
3267.94	0.531
3276.98	0.511
3286.03	0.482
3295.07	0.443
3304.12	0.41
3313.16	0.389
3322.21	0.378
3331.26	0.353
3340.3	0.325
3349.35	0.324
3358.39	0.338
3367.44	0.359
3376.48	0.362
3385.53	0.367
3394.57	0.38
3403.62	0.439
3412.67	0.487
3421.71	0.533
3430.76	0.568
3439.8	0.596
3448.85	0.617
3457.89	0.633
3466.94	0.647
3475.98	0.659
3485.03	0.671
3494.08	0.685
3503.12	0.699
3512.17	0.71
3521.21	0.718
3530.26	0.731
3539.3	0.743
3548.35	0.752
3557.39	0.763
3566.44	0.772
3575.48	0.782
3584.53	0.791
3593.58	0.801
3602.62	0.811
3611.67	0.823
3620.71	0.835
3629.76	0.842
3638.8	0.849
3647.85	0.852
3656.89	0.853
3665.94	0.853
3674.99	0.852
3684.03	0.853
3693.08	0.857
3702.12	0.86
3711.17	0.861
3720.21	0.861
3729.26	0.861
3738.3	0.861
3747.35	0.861
3756.4	0.86
3765.44	0.86
3774.49	0.86
3783.53	0.86
3792.58	0.86
3801.62	0.86
