Infrared Spectrum: 4-Trifluoromethylbenzoyl chloride
Formula: C 8 H 4 Cl F 3 O
CAS: 329-15-7
State: gas
Origin: EPA-IR VAPOR PHASE LIBRARY
1/CM	ABSORBANCE
549.9	0.00365
559.547	0.0023763
569.193	0.00206
578.84	0.001877
588.486	0.0022311
598.133	0.002035
607.779	0.001982
617.426	0.0020084
627.072	0.0024642
636.719	0.00473
646.365	0.00797
656.012	0.00968
665.658	0.00664
675.305	0.00591
684.951	0.01003
694.598	0.00885
704.245	0.00385
713.891	0.0021293
723.538	0.0018845
733.184	0.0020164
742.831	0.0026117
752.477	0.00418
762.124	0.01368
771.77	0.01972
781.417	0.00524
791.063	0.00488
800.71	0.00461
810.356	0.00364
820.003	0.00396
829.649	0.00618
839.296	0.01163
848.943	0.01906
858.589	0.02381
868.236	0.03217
877.882	0.0469
887.529	0.04646
897.175	0.03542
906.822	0.01681
916.468	0.00746
926.115	0.00473
935.761	0.00382
945.408	0.00304
955.054	0.0026871
964.701	0.0027069
974.347	0.0026203
983.994	0.0021427
993.64	0.0020387
1003.29	0.002728
1012.93	0.00858
1022.58	0.00956
1032.23	0.002518
1041.87	0.00283
1051.52	0.00619
1061.17	0.02757
1070.81	0.04697
1080.46	0.01285
1090.11	0.00667
1099.75	0.00605
1109.4	0.00991
1119.05	0.01364
1128.69	0.01549
1138.34	0.02603
1147.99	0.05245
1157.63	0.07682
1167.28	0.06682
1176.92	0.08479
1186.57	0.07005
1196.22	0.0474
1205.86	0.03725
1215.51	0.00962
1225.16	0.00522
1234.8	0.00399
1244.45	0.00392
1254.1	0.00382
1263.74	0.00372
1273.39	0.00429
1283.04	0.00572
1292.68	0.00946
1302.33	0.02123
1311.98	0.04912
1321.62	0.10931
1331.27	0.0802
1340.92	0.01479
1350.56	0.00615
1360.21	0.00484
1369.86	0.00395
1379.5	0.00306
1389.15	0.00378
1398.79	0.00738
1408.44	0.01055
1418.09	0.00787
1427.73	0.00399
1437.38	0.0024153
1447.03	0.0021465
1456.67	0.0019174
1466.32	0.001549
1475.97	0.00137
1485.61	0.001482
1495.26	0.00181665
1504.91	0.00321
1514.55	0.00285
1524.2	0.0017228
1533.85	0.001533
1543.49	0.001555
1553.14	0.001625
1562.79	0.0017567
1572.43	0.0020984
1582.08	0.0026694
1591.73	0.002109
1601.37	0.001498
1611.02	0.001471
1620.67	0.00146
1630.31	0.001508
1639.96	0.001589
1649.6	0.001594
1659.25	0.00180053
1668.9	0.00185087
1678.54	0.002134
1688.19	0.0024249
1697.84	0.0023665
1707.48	0.0027323
1717.13	0.00356
1726.78	0.00511
1736.42	0.00796
1746.07	0.01302
1755.72	0.0183
1765.36	0.02031
1775.01	0.02344
1784.66	0.03288
1794.3	0.03745
1803.95	0.02554
1813.6	0.01174
1823.24	0.00573
1832.89	0.00399
1842.54	0.00299
1852.18	0.0021801
1861.83	0.00186744
1871.47	0.0017489
1881.12	0.001666
1890.77	0.00165
1900.41	0.001632
1910.06	0.00166
1919.71	0.0020069
1929.35	0.0022445
1939	0.0021589
1948.65	0.00180534
1958.29	0.001486
1967.94	0.001384
1977.59	0.001316
1987.23	0.001337
1996.88	0.001278
2006.53	0.001263
2016.17	0.001261
2025.82	0.00124
2035.47	0.001244
2045.11	0.001355
2054.76	0.001373
2064.41	0.001396
2074.05	0.001497
2083.7	0.001528
2093.35	0.001521
2102.99	0.001402
2112.64	0.001205
2122.28	0.001198
2131.93	0.001227
2141.58	0.001215
2151.22	0.00118
2160.87	0.001157
2170.52	0.001168
2180.16	0.001258
2189.81	0.001263
2199.46	0.001265
2209.1	0.001322
2218.75	0.00138
2228.4	0.001361
2238.04	0.001321
2247.69	0.001314
2257.34	0.001258
2266.98	0.001324
2276.63	0.001373
2286.28	0.001489
2295.92	0.001575
2305.57	0.001529
2315.22	0.001474
2324.86	0.001324
2334.51	0.001351
2344.16	0.001403
2353.8	0.001352
2363.45	0.001411
2373.09	0.00152
2382.74	0.001575
2392.39	0.001373
2402.03	0.001327
2411.68	0.00121
2421.33	0.001257
2430.97	0.001201
2440.62	0.001202
2450.27	0.001152
2459.91	0.001177
2469.56	0.00117
2479.21	0.001189
2488.85	0.00126
2498.5	0.001185
2508.15	0.001174
2517.79	0.001177
2527.44	0.001116
2537.09	0.001034
2546.73	0.001147
2556.38	0.001076
2566.03	0.001145
2575.67	0.001017
2585.32	0.001084
2594.96	0.001083
2604.61	0.001112
2614.26	0.001128
2623.9	0.001126
2633.55	0.00116
2643.2	0.001095
2652.84	0.000994
2662.49	0.000971
2672.14	0.000999
2681.78	0.001083
2691.43	0.001124
2701.08	0.000949
2710.72	0.001094
2720.37	0.000958
2730.02	0.000979
2739.66	0.000895
2749.31	0.000897
2758.96	0.000901
2768.6	0.000927
2778.25	0.000952
2787.9	0.000946
2797.54	0.000951
2807.19	0.000981
2816.84	0.000985
2826.48	0.000976
2836.13	0.000818
2845.77	0.00073
2855.42	0.0007
2865.07	0.00067
2874.71	0.00061
2884.36	0.00077
2894.01	0.00072
2903.65	0.00076
2913.3	0.00065
2922.95	0.000859
2932.59	0.000876
2942.24	0.000933
2951.89	0.000814
2961.53	0.00062
2971.18	0.00061
2980.83	0.00051
2990.47	0.00071
3000.12	0.00056
3009.77	0.00054
3019.41	0.00051
3029.06	0.00041
3038.71	0.0005
3048.35	0.00046
3058	0.0004
3067.64	0.00063
3077.29	0.00065
3086.94	0.0006
3096.58	0.0006
3106.23	0.00022
3115.88	0.00035
3125.52	0.00037
3135.17	0.00033
3144.82	0.00038
3154.46	0.00022
3164.11	0.00042
3173.76	0.0002
3183.4	0.0001
3193.05	0.00027
3202.7	0.00033
3212.34	0.00015
3221.99	0.00025
3231.64	0.00022
3241.28	0.00027
3250.93	0.00021
3260.58	0.0003
3270.22	0.00025
3279.87	0.00015
3289.52	0.00028
3299.16	6e-05
3308.81	0.00012
3318.45	0.00027
3328.1	0.00022
3337.75	0.00038
3347.39	0.00018
3357.04	0.00045
3366.69	0.00038
3376.33	0.00031
3385.98	0.00029
3395.63	0.00036
3405.27	0.00024
3414.92	0.00049
3424.57	0.00059
3434.21	0.00038
3443.86	0.00054
3453.51	0.0004
3463.15	0.00062
3472.8	0.00063
3482.45	0.000778
3492.09	0.00061
3501.74	0.0007
3511.39	0.001045
3521.03	0.000988
3530.68	0.001275
3540.33	0.001233
3549.97	0.00099
3559.62	0.000908
3569.26	0.00101
3578.91	0.001046
3588.56	0.001174
3598.2	0.000918
3607.85	0.000923
3617.5	0.00082
3627.14	0.0007
3636.79	0.000771
3646.44	0.000842
3656.08	0.000798
3665.73	0.000853
3675.38	0.00068
3685.02	0.000833
3694.67	0.000915
3704.32	0.000817
3713.96	0.000877
3723.61	0.000978
3733.26	0.000849
3742.9	0.0008
3752.55	0.000812
3762.2	0.000975
3771.84	0.000929
3781.49	0.000946
3791.13	0.001003
3800.78	0.000976
3810.43	0.000988
3820.07	0.000966
3829.72	0.000911
3839.37	0.000842
3849.01	0.000894
3858.66	0.001059
3868.31	0.000891
3877.95	0.000889
3887.6	0.000922
3897.25	0.001052
3906.89	0.000974
3916.54	0.000979
3926.19	0.000996
3935.83	0.001041
3945.48	0.001
3955.13	0.001102
3964.77	0.001142
3974.42	0.001151
3984.07	0.001009
3993.71	0.001139
