Infrared Spectrum: 3,5-Dichlorobenzyl chloride
Formula: C 7 H 5 Cl 3
CAS: 3290-06-0
State: gas
Origin: EPA-IR VAPOR PHASE LIBRARY
1/CM	ABSORBANCE
549.8	0.001712
559.445	0.002022
569.09	0.003632
578.734	0.015132
588.379	0.043012
598.024	0.026142
607.669	0.005812
617.313	0.003962
626.958	0.003622
636.603	0.003592
646.248	0.004082
655.893	0.008702
665.537	0.028822
675.182	0.027562
684.827	0.012722
694.472	0.013482
704.116	0.018822
713.761	0.032432
723.406	0.069932
733.051	0.098892
742.695	0.072832
752.34	0.049552
761.985	0.044182
771.63	0.030322
781.275	0.032282
790.919	0.064622
800.564	0.123862
810.209	0.097762
819.854	0.049512
829.498	0.043252
839.143	0.036582
848.788	0.049622
858.433	0.056272
868.078	0.038682
877.722	0.012972
887.367	0.006842
897.012	0.009082
906.657	0.014252
916.301	0.024452
925.946	0.014692
935.591	0.006902
945.236	0.005182
954.88	0.003532
964.525	0.001822
974.17	0.0012441
983.815	0.0012096
993.46	0.001852
1003.1	0.001662
1012.75	0.001612
1022.39	0.001612
1032.04	0.002372
1041.68	0.002492
1051.33	0.003242
1060.97	0.004352
1070.62	0.003752
1080.26	0.005882
1089.91	0.018872
1099.55	0.036582
1109.2	0.027192
1118.84	0.022552
1128.49	0.009512
1138.13	0.005642
1147.78	0.004942
1157.42	0.004462
1167.07	0.007212
1176.71	0.010682
1186.36	0.012282
1196	0.018172
1205.64	0.037882
1215.29	0.056702
1224.93	0.042352
1234.58	0.027562
1244.22	0.024262
1253.87	0.035892
1263.51	0.056032
1273.16	0.087732
1282.8	0.060442
1292.45	0.014032
1302.09	0.008072
1311.74	0.005882
1321.38	0.004152
1331.03	0.003542
1340.67	0.003602
1350.32	0.004532
1359.96	0.007242
1369.61	0.016732
1379.25	0.033052
1388.9	0.039562
1398.54	0.034812
1408.18	0.034212
1417.83	0.067562
1427.47	0.123322
1437.12	0.108912
1446.76	0.047502
1456.41	0.021722
1466.05	0.013812
1475.7	0.009082
1485.34	0.005612
1494.99	0.004262
1504.63	0.004092
1514.28	0.004372
1523.92	0.004892
1533.57	0.007782
1543.21	0.018852
1552.86	0.049912
1562.5	0.141462
1572.15	0.242692
1581.79	0.161842
1591.44	0.102282
1601.08	0.047642
1610.73	0.017722
1620.37	0.012732
1630.01	0.007222
1639.66	0.004122
1649.3	0.003162
1658.95	0.002832
1668.59	0.002182
1678.24	0.002022
1687.88	0.002132
1697.53	0.002472
1707.17	0.003622
1716.82	0.006432
1726.46	0.010432
1736.11	0.010242
1745.75	0.007632
1755.4	0.007572
1765.04	0.004852
1774.69	0.002932
1784.33	0.002532
1793.98	0.002352
1803.62	0.001972
1813.27	0.001642
1822.91	0.001582
1832.55	0.001372
1842.2	0.0012003
1851.84	0.0009856
1861.49	0.0010134
1871.13	0.0008846
1880.78	0.0008709
1890.42	0.0008099
1900.07	0.0010988
1909.71	0.001289
1919.36	0.001362
1929	0.0009683
1938.65	0.0008537
1948.29	0.0009433
1957.94	0.0009619
1967.58	0.0009373
1977.23	0.0008607
1986.87	0.0007463
1996.52	0.0007234
2006.16	0.0007738
2015.81	0.0007904
2025.45	0.0006498
2035.1	0.0005464
2044.74	0.000518
2054.38	0.0004884
2064.03	0.000636
2073.67	0.0007905
2083.32	0.0007816
2092.96	0.0006356
2102.61	0.0004663
2112.25	0.00041046
2121.9	0.00038438
2131.54	0.0002402
2141.19	0.00036653
2150.83	0.0004343
2160.48	0.00039725
2170.12	0.00042059
2179.77	0.0005411
2189.41	0.0007078
2199.06	0.0007566
2208.7	0.0007435
2218.35	0.000745
2227.99	0.0006073
2237.64	0.0005395
2247.28	0.00034772
2256.92	0.00034337
2266.57	0.00039022
2276.21	0.00036434
2285.86	0.0004899
2295.5	0.00040385
2305.15	0.000443
2314.79	0.000495
2324.44	0.0005854
2334.08	0.0007027
2343.73	0.0008209
2353.37	0.0011337
2363.02	0.0010962
2372.66	0.0012456
2382.31	0.001782
2391.95	0.001762
2401.6	0.001452
2411.24	0.0010153
2420.89	0.0005709
2430.53	0.00034936
2440.18	0.0004678
2449.82	0.00034079
2459.47	0.00042179
2469.11	0.00037349
2478.75	0.00041788
2488.4	0.0004315
2498.04	0.0004682
2507.69	0.00040161
2517.33	0.00037906
2526.98	0.000479
2536.62	0.000330147
2546.27	0.0004007
2555.91	0.0002957
2565.56	0.0004333
2575.2	0.0004952
2584.85	0.00039296
2594.49	0.00037788
2604.14	0.0002807
2613.78	0.0002573
2623.43	0.0005251
2633.07	0.0004683
2642.72	0.0007871
2652.36	0.0009102
2662.01	0.0012125
2671.65	0.0010838
2681.29	0.000852
2690.94	0.0007184
2700.58	0.0008708
2710.23	0.0012121
2719.87	0.001642
2729.52	0.0012346
2739.16	0.0006187
2748.81	0.00041818
2758.45	0.0002292
2768.1	0.0005297
2777.74	0.0007076
2787.39	0.0009052
2797.03	0.000898
2806.68	0.0009007
2816.32	0.0008211
2825.97	0.0008545
2835.61	0.0012228
2845.26	0.001632
2854.9	0.002142
2864.55	0.002302
2874.19	0.002602
2883.84	0.003072
2893.48	0.002302
2903.12	0.001402
2912.77	0.000991
2922.41	0.0012237
2932.06	0.002832
2941.7	0.005642
2951.35	0.007422
2960.99	0.010412
2970.64	0.016142
2980.28	0.011162
2989.93	0.006922
2999.57	0.006652
3009.22	0.006352
3018.86	0.003742
3028.51	0.002102
3038.15	0.001662
3047.8	0.001632
3057.44	0.001892
3067.09	0.002572
3076.73	0.002152
3086.38	0.001962
3096.02	0.001332
3105.67	0.0007695
3115.31	0.000559
3124.95	0.0005407
3134.6	0.0004864
3144.24	0.00031345
3153.89	0.0004355
3163.53	0.0005251
3173.18	0.000429
3182.82	0.000289
3192.47	0.000157
3202.11	0.000325892
3211.76	0.0004247
3221.4	0.0003088
3231.05	0.000203
3240.69	0.0003107
3250.34	0.0002414
3259.98	0.00015
3269.63	0.000216
3279.27	0.000308
3288.92	0.000159
3298.56	0.0002303
3308.21	0.0002717
3317.85	0.00036275
3327.49	0.000184
3337.14	2.6e-05
3346.78	0.000219
3356.43	0.0002245
3366.07	2.7e-05
3375.72	7.1e-05
3385.36	0.000136
3395.01	0.00035583
3404.65	0.000146
3414.3	0.00015
3423.94	6.1e-05
3433.59	0.000328723
3443.23	0.0002764
3452.88	0.000149
3462.52	3.6e-05
3472.17	0.0002953
3481.81	0.00035807
3491.46	0.00038046
3501.1	0.0005856
3510.75	0.0004547
3520.39	0.0002657
3530.04	0.00039905
3539.68	0.0003101
3549.32	0.0002831
3558.97	0.00033442
3568.61	0.0003023
3578.26	0.00033282
3587.9	0.000211
3597.55	0.0004322
3607.19	0.00033318
3616.84	9.4e-05
3626.48	0.0003043
3636.13	0.0002867
3645.77	0.0003125
3655.42	0.00037847
3665.06	0.000215
3674.71	0.00034735
3684.35	0.000182
3694	0.00034389
3703.64	0.00040355
3713.29	0.000327487
3722.93	0.0002529
3732.58	0.000521
3742.22	0.0004533
3751.86	0.0005301
3761.51	0.00034785
3771.15	0.000321138
3780.8	0.000201
3790.44	0.0003816
3800.09	0.00035763
3809.73	0.0002997
3819.38	0.00040859
3829.02	0.0002818
3838.67	0.0002527
3848.31	0.0005172
3857.96	0.0004861
3867.6	0.0007861
3877.25	0.0008144
3886.89	0.0006496
3896.54	0.0006585
3906.18	0.00034794
3915.83	0.0002449
3925.47	0.00036106
3935.12	0.0002552
3944.76	0.0002599
3954.41	0.00034477
3964.05	0.0003012
3973.69	0.00032071
3983.34	0.00039447
3992.98	0.0005486
