Infrared Spectrum: 2-Methyl-3-phenyl-1-propene
Formula: C 10 H 12
CAS: 3290-53-7
State: gas
Instrument: HP-GC/MS/IRD
Origin: NIST Mass Spectrometry Data Center
1/CM	ABSORBANCE
550	0.000204
562	0.0001092
574	0.0001812
586	0.0007464
598	0.0016656
610	0.0012984
622	0.0004968
634	0.0002016
646	0.0002352
658	0.0006024
670	0.0015864
682	0.0040488
694	0.0085752
706	0.0082788
718	0.0070596
730	0.0101088
742	0.0069312
754	0.0021504
766	0.0006936
778	0.0003396
790	0.00027
802	0.0003564
814	0.000684
826	0.0005904
838	0.000576
850	0.000546
862	0.0009012
874	0.0024804
886	0.0081336
898	0.0095652
910	0.0037644
922	0.001338
934	0.0006492
946	0.0004812
958	0.00042
970	0.000366
982	0.0003144
994	0.0003528
1006	0.0004992
1018	0.0011868
1030	0.0017232
1042	0.0007584
1054	0.0005364
1066	0.000942
1078	0.0009408
1090	0.0003972
1102	0.0002448
1114	0.0001248
1126	6.12e-05
1138	2.28e-05
1150	7.32e-05
1162	0.000126
1174	0.0001896
1186	0.0003648
1198	0.0003276
1210	0.0004584
1222	0.0008628
1234	0.0008028
1246	0.0005712
1258	0.0008052
1270	0.00144
1282	0.0012492
1294	0.0007188
1306	0.0005112
1318	0.0004836
1330	0.000606
1342	0.0006684
1354	0.000756
1366	0.0015048
1378	0.0026904
1390	0.0019392
1402	0.0010932
1414	0.0013992
1426	0.0024888
1438	0.0041472
1450	0.0049428
1462	0.0037608
1474	0.0021996
1486	0.0033696
1498	0.0042972
1510	0.0014904
1522	0.000696
1534	0.0005508
1546	0.000546
1558	0.0006528
1570	0.0009252
1582	0.001482
1594	0.0026412
1606	0.0027828
1618	0.0018792
1630	0.002178
1642	0.0033996
1654	0.0033516
1666	0.0016488
1678	0.0007008
1690	0.0004164
1702	0.0003096
1714	0.0002568
1726	0.0002868
1738	0.0003372
1750	0.0003408
1762	0.0003852
1774	0.0005772
1786	0.0011724
1798	0.0013644
1810	0.0007596
1822	0.0003756
1834	0.000258
1846	0.0002496
1858	0.0003624
1870	0.0004788
1882	0.000468
1894	0.0002952
1906	0.0001764
1918	0.0002796
1930	0.0004992
1942	0.0006648
1954	0.0005388
1966	0.0002112
1978	9.84e-05
1990	6.84e-05
2002	5.16e-05
2014	3.84e-05
2026	6e-05
2038	4.68e-05
2050	6.12e-05
2062	6.48e-05
2074	4.92e-05
2086	7.68e-05
2098	8.52e-05
2110	4.8e-05
2122	6e-05
2134	5.28e-05
2146	4.2e-05
2158	4.32e-05
2170	5.28e-05
2182	8.04e-05
2194	7.68e-05
2206	6.12e-05
2218	7.2e-05
2230	7.68e-05
2242	6e-05
2254	8.4e-05
2266	7.32e-05
2278	5.88e-05
2290	5.76e-05
2302	8.52e-05
2314	0.0001152
2326	0.0001284
2338	0.0001512
2350	0.000138
2362	0.000114
2374	9.6e-05
2386	5.16e-05
2398	4.68e-05
2410	9.12e-05
2422	5.88e-05
2434	6.84e-05
2446	7.32e-05
2458	9.36e-05
2470	6.6e-05
2482	9.84e-05
2494	6.12e-05
2506	6.84e-05
2518	3.48e-05
2530	6.36e-05
2542	5.88e-05
2554	5.64e-05
2566	5.52e-05
2578	5.76e-05
2590	8.64e-05
2602	9.96e-05
2614	0.0001164
2626	0.0001152
2638	0.0001164
2650	0.0001068
2662	9.96e-05
2674	0.000126
2686	9.72e-05
2698	0.0001164
2710	0.0001524
2722	0.0002616
2734	0.0002976
2746	0.0002904
2758	0.0002592
2770	0.000282
2782	0.0003468
2794	0.0004308
2806	0.000582
2818	0.0009168
2830	0.0016008
2842	0.0024216
2854	0.00282
2866	0.0029208
2878	0.003282
2890	0.0045708
2902	0.006846
2914	0.0082788
2926	0.0083628
2938	0.0071292
2950	0.0053736
2962	0.004422
2974	0.0064956
2986	0.0068268
2998	0.0045816
3010	0.0040644
3022	0.006408
3034	0.0087996
3046	0.0065688
3058	0.0068928
3070	0.011238
3082	0.0111048
3094	0.0066996
3106	0.002994
3118	0.0014124
3130	0.00072
3142	0.000456
3154	0.0003336
3166	0.0002784
3178	0.0001896
3190	9.12e-05
3202	0.0001212
3214	6.72e-05
3226	9.6e-05
3238	0.0001188
3250	9.36e-05
3262	7.08e-05
3274	9.36e-05
3286	9.12e-05
3298	6.48e-05
3310	8.16e-05
3322	8.76e-05
3334	8.28e-05
3346	8.28e-05
3358	9.36e-05
3370	0.0001056
3382	5.88e-05
3394	4.08e-05
3406	7.44e-05
3418	4.2e-05
3430	6e-05
3442	4.92e-05
3454	4.32e-05
3466	3.84e-05
3478	4.92e-05
3490	3.72e-05
3502	4.44e-05
3514	4.8e-05
3526	8.76e-05
3538	9.96e-05
3550	6.48e-05
3562	9e-05
3574	7.92e-05
3586	8.64e-05
3598	9.12e-05
3610	3.96e-05
3622	0.0001368
3634	0.0001152
3646	0.0001068
3658	0.0001224
3670	9.48e-05
3682	6.84e-05
3694	0.0001128
3706	0.0001296
3718	0.0001152
3730	8.52e-05
3742	0.0001284
3754	0.000114
3766	9.36e-05
3778	0.0001164
3790	0.0001152
3802	7.44e-05
3814	0.0001176
3826	0.0001488
3838	9.48e-05
