Infrared Spectrum: 3,4,5-Trimethoxybenzhydrazide
Formula: C 10 H 14 N 2 O 4
CAS: 3291-03-0
State: gas
Origin: EPA-IR VAPOR PHASE LIBRARY
1/CM	ABSORBANCE
549.8	0.023012
559.445	0.017042
569.09	0.012302
578.734	0.009262
588.379	0.008242
598.024	0.007402
607.669	0.008202
617.313	0.008712
626.958	0.008342
636.603	0.008702
646.248	0.009962
655.893	0.011142
665.537	0.012592
675.182	0.015292
684.827	0.027782
694.472	0.035262
704.116	0.020182
713.761	0.012812
723.406	0.013262
733.051	0.021132
742.695	0.038452
752.34	0.061272
761.985	0.043632
771.63	0.022312
781.275	0.015512
790.919	0.014552
800.564	0.013942
810.209	0.014802
819.854	0.024222
829.498	0.043352
839.143	0.056072
848.788	0.046482
858.433	0.037672
868.078	0.066892
877.722	0.027882
887.367	0.016942
897.012	0.020662
906.657	0.025302
916.301	0.024892
925.946	0.029402
935.591	0.043952
945.236	0.042642
954.88	0.025022
964.525	0.014362
974.17	0.010182
983.815	0.007292
993.46	0.005852
1003.1	0.009532
1012.75	0.013842
1022.39	0.016192
1032.04	0.004612
1041.68	0.002502
1051.33	0.003572
1060.97	0.007412
1070.62	0.009282
1080.26	0.008522
1089.91	0.010962
1099.55	0.015872
1109.2	0.012142
1118.84	0.007962
1128.49	0.007522
1138.13	0.009202
1147.78	0.012442
1157.42	0.038772
1167.07	0.044562
1176.71	0.021322
1186.36	0.027182
1196	0.039362
1205.64	0.072412
1215.29	0.153932
1224.93	0.269692
1234.58	0.567202
1244.22	0.432722
1253.87	0.250422
1263.51	0.148592
1273.16	0.089922
1282.8	0.060462
1292.45	0.046462
1302.09	0.034672
1311.74	0.024472
1321.38	0.019142
1331.03	0.014762
1340.67	0.012502
1350.32	0.009422
1359.96	0.007502
1369.61	0.005942
1379.25	0.005872
1388.9	0.006482
1398.54	0.006112
1408.18	0.007032
1417.83	0.010472
1427.47	0.018742
1437.12	0.027142
1446.76	0.018552
1456.41	0.028132
1466.05	0.048452
1475.7	0.100002
1485.34	0.391102
1494.99	0.442632
1504.63	0.336442
1514.28	0.096372
1523.92	0.037452
1533.57	0.022402
1543.21	0.018072
1552.86	0.019212
1562.5	0.025702
1572.15	0.046352
1581.79	0.093762
1591.44	0.105792
1601.08	0.051732
1610.73	0.025702
1620.37	0.015272
1630.01	0.011652
1639.66	0.010362
1649.3	0.009642
1658.95	0.007822
1668.59	0.006192
1678.24	0.005142
1687.88	0.004872
1697.53	0.005062
1707.17	0.005472
1716.82	0.005802
1726.46	0.005822
1736.11	0.005832
1745.75	0.006452
1755.4	0.006892
1765.04	0.006812
1774.69	0.007682
1784.33	0.007052
1793.98	0.006522
1803.62	0.006272
1813.27	0.006222
1822.91	0.006742
1832.55	0.008022
1842.2	0.010022
1851.84	0.012532
1861.49	0.014952
1871.13	0.017402
1880.78	0.018292
1890.42	0.017502
1900.07	0.017842
1909.71	0.020152
1919.36	0.024732
1929	0.031442
1938.65	0.041292
1948.29	0.055232
1957.94	0.071912
1967.58	0.095662
1977.23	0.128182
1986.87	0.170942
1996.52	0.227232
2006.16	0.298342
2015.81	0.385382
2025.45	0.480562
2035.1	0.557562
2044.74	0.602132
2054.38	0.535222
2064.03	0.383562
2073.67	0.312452
2083.32	0.322862
2092.96	0.358732
2102.61	0.358102
2112.25	0.284282
2121.9	0.196952
2131.54	0.145402
2141.19	0.121652
2150.83	0.108632
2160.48	0.094982
2170.12	0.078692
2179.77	0.064642
2189.41	0.053432
2199.06	0.042392
2208.7	0.030632
2218.35	0.021732
2227.99	0.016022
2237.64	0.012312
2247.28	0.010032
2256.92	0.008532
2266.57	0.007382
2276.21	0.006382
2285.86	0.005502
2295.5	0.004972
2305.15	0.005062
2314.79	0.005212
2324.44	0.005212
2334.08	0.004402
2343.73	0.004302
2353.37	0.004682
2363.02	0.005302
2372.66	0.005572
2382.31	0.005842
2391.95	0.006942
2401.6	0.007092
2411.24	0.006572
2420.89	0.007412
2430.53	0.008452
2440.18	0.008542
2449.82	0.008192
2459.47	0.008032
2469.11	0.008012
2478.75	0.007842
2488.4	0.007492
2498.04	0.006472
2507.69	0.005812
2517.33	0.005712
2526.98	0.005932
2536.62	0.006352
2546.27	0.007182
2555.91	0.008032
2565.56	0.009112
2575.2	0.009672
2584.85	0.007832
2594.49	0.005372
2604.14	0.004262
2613.78	0.003972
2623.43	0.003772
2633.07	0.003752
2642.72	0.003732
2652.36	0.003752
2662.01	0.003722
2671.65	0.004232
2681.29	0.005072
2690.94	0.006072
2700.58	0.007152
2710.23	0.007802
2719.87	0.007412
2729.52	0.005902
2739.16	0.004542
2748.81	0.003962
2758.45	0.003782
2768.1	0.003442
2777.74	0.003202
2787.39	0.002712
2797.03	0.002742
2806.68	0.002852
2816.32	0.002862
2825.97	0.003152
2835.61	0.003262
2845.26	0.003042
2854.9	0.002742
2864.55	0.002552
2874.19	0.002312
2883.84	0.002032
2893.48	0.001842
2903.12	0.001882
2912.77	0.002022
2922.41	0.002072
2932.06	0.002212
2941.7	0.002622
2951.35	0.002922
2960.99	0.003322
2970.64	0.003792
2980.28	0.004212
2989.93	0.004732
2999.57	0.004732
3009.22	0.005642
3018.86	0.008402
3028.51	0.011762
3038.15	0.019992
3047.8	0.030402
3057.44	0.022442
3067.09	0.020672
3076.73	0.028902
3086.38	0.027142
3096.02	0.018982
3105.67	0.013142
3115.31	0.006612
3124.95	0.003202
3134.6	0.001732
3144.24	0.0010774
3153.89	0.0009752
3163.53	0.00074159
3173.18	0.00066755
3182.82	0.00072777
3192.47	0.000624
3202.11	0.000555
3211.76	0.000502
3221.4	0.00029
3231.05	0.000219
3240.69	0.000269
3250.34	0.000159
3259.98	0.000173
3269.63	8.5e-05
3279.27	0.000153
3288.92	0.000229
3298.56	0.000306
3308.21	0.000257
3317.85	0.000187
3327.49	0.000229
3337.14	0.000283
3346.78	0.000299
3356.43	0.000226
3366.07	0.000322
3375.72	0.000217
3385.36	0.000329
3395.01	0.000303
3404.65	0.000166
3414.3	0.000329
3423.94	0.000115
3433.59	0.000303
3443.23	0.000399
3452.88	0.000267
3462.52	0.000308
3472.17	0.000217
3481.81	0.000286
3491.46	0.000311
3501.1	0.000152
3510.75	0.0003
3520.39	0.000332
3530.04	0.00019
3539.68	0.000297
3549.32	0.000343
3558.97	0.000252
3568.61	0.000434
3578.26	0.000152
3587.9	0.000238
3597.55	0.000559
3607.19	0.00053
3616.84	0.000387
3626.48	0.000556
3636.13	0.00070166
3645.77	0.000547
3655.42	0.00070023
3665.06	0.0006343
3674.71	0.0005749
3684.35	0.00071018
3694	0.000778
3703.64	0.00070662
3713.29	0.000569
3722.93	0.0005884
3732.58	0.0009731
3742.22	0.000467
3751.86	0.0007884
3761.51	0.0006607
3771.15	0.000495
3780.8	0.0006355
3790.44	0.0006426
3800.09	0.000678815
3809.73	0.0008066
3819.38	0.00074088
3829.02	0.00073109
3838.67	0.00075291
3848.31	0.0009547
3857.96	0.00074607
3867.6	0.0008729
3877.25	0.0008766
3886.89	0.0010936
3896.54	0.001059
3906.18	0.0012945
3915.83	0.0012086
3925.47	0.0012533
3935.12	0.001692
3944.76	0.0015552
3954.41	0.001782
3964.05	0.001842
3973.69	0.001922
3983.34	0.002062
3992.98	0.002412
