Infrared Spectrum: 2,2'-THIOBIS[4-(1,1,3,3-TETRAMETHYLBUTYL)PHENOL]
Formula: C28 H42 O2 S
CAS: 3294-03-9
State: SOLID (KBr PELLET)
Melting point: 132-134 C
Class: COBLENTZ
Instrument: Not specified, most likely a prism, grating, or hybrid spectrometer.
Sampling: TRANSMISSION
Resolution: 4
Origin: TENNESSEE EASTMAN COMPANY, RESEARCH LABORATORIES
MICROMETERS	TRANSMITTANCE
2.02	0.96
2.05985	0.961
2.0997	0.961
2.13955	0.958
2.17939	0.96
2.21924	0.961
2.25909	0.953
2.29894	0.945
2.33879	0.951
2.37864	0.953
2.41849	0.95
2.45834	0.951
2.49818	0.955
2.53803	0.955
2.57788	0.951
2.61773	0.943
2.65758	0.946
2.69743	0.943
2.73728	0.895
2.77712	0.815
2.81697	0.768
2.85682	0.665
2.89667	0.495
2.93652	0.229
2.97637	0.116
3.01622	0.282
3.05607	0.492
3.09591	0.632
3.13576	0.723
3.17561	0.797
3.21546	0.836
3.25531	0.838
3.29516	0.792
3.33501	0.369
3.37485	0.216
3.4147	0.272
3.45455	0.381
3.4944	0.737
3.53425	0.83
3.5741	0.87
3.61395	0.895
3.6538	0.898
3.69364	0.895
3.73349	0.901
3.77334	0.905
3.81319	0.918
3.85304	0.925
3.89289	0.928
3.93274	0.918
3.97258	0.918
4.01243	0.926
4.05228	0.926
4.09213	0.93
4.13198	0.931
4.17183	0.93
4.21168	0.936
4.25153	0.925
4.29137	0.915
4.33122	0.916
4.37107	0.938
4.41092	0.946
4.45077	0.951
4.49062	0.955
4.53047	0.955
4.57031	0.955
4.61016	0.955
4.65001	0.955
4.68986	0.946
4.72971	0.945
4.76956	0.951
4.80941	0.955
4.84926	0.955
4.8891	0.953
4.92895	0.951
4.9688	0.951
5.00865	0.955
5.0485	0.953
5.08835	0.951
5.1282	0.951
5.16804	0.95
5.20789	0.95
5.24774	0.943
5.28759	0.911
5.32744	0.935
5.36729	0.943
5.40714	0.948
5.44699	0.941
5.48683	0.943
5.52668	0.945
5.56653	0.936
5.60638	0.928
5.64623	0.893
5.68608	0.916
5.72593	0.906
5.76577	0.893
5.80562	0.903
5.84547	0.906
5.88532	0.888
5.92517	0.9
5.96502	0.883
6.00487	0.878
6.04472	0.865
6.08456	0.813
6.12441	0.825
6.16426	0.825
6.20411	0.805
6.24396	0.675
6.28381	0.715
6.32366	0.71
6.3635	0.826
6.40335	0.84
6.4432	0.863
6.48305	0.821
6.5229	0.813
6.56275	0.715
6.6026	0.402
6.64245	0.311
6.68229	0.101
6.72214	0.232
6.76199	0.309
6.80184	0.367
6.84169	0.459
6.88154	0.589
6.92139	0.667
6.96123	0.703
7.00108	0.71
7.04093	0.675
7.08078	0.522
7.12063	0.281
7.16048	0.391
7.20033	0.457
7.24018	0.653
7.28002	0.584
7.31987	0.222
7.35972	0.552
7.39957	0.444
7.43942	0.366
7.47927	0.442
7.51912	0.544
7.55897	0.552
7.59881	0.715
7.63866	0.79
7.67851	0.788
7.71836	0.695
7.75821	0.231
7.79806	0.334
7.83791	0.427
7.87775	0.532
7.9176	0.44
7.95745	0.297
7.9973	0.274
8.03715	0.289
8.077	0.382
8.11685	0.271
8.1567	0.131
8.19654	0.149
8.23639	0.227
8.27624	0.241
8.31609	0.327
8.35594	0.424
8.39579	0.487
8.43564	0.559
8.47548	0.608
8.51533	0.608
8.55518	0.603
8.59503	0.642
8.63488	0.65
8.67473	0.594
8.71458	0.657
8.75443	0.7
8.79427	0.758
8.83412	0.765
8.87397	0.733
8.91382	0.753
8.95367	0.778
8.99352	0.78
9.03337	0.725
9.07321	0.698
9.11306	0.778
9.15291	0.797
9.19276	0.808
9.23261	0.815
9.27246	0.81
9.31231	0.808
9.35216	0.778
9.392	0.597
9.43185	0.7
9.4717	0.782
9.51155	0.818
9.5514	0.823
9.59125	0.825
9.6311	0.826
9.67094	0.828
9.71079	0.82
9.75064	0.826
9.79049	0.831
9.83034	0.833
9.87019	0.828
9.91004	0.828
9.94989	0.84
9.98973	0.848
10.0296	0.853
10.0694	0.853
10.1093	0.851
10.1491	0.845
10.189	0.808
10.2288	0.805
10.2687	0.833
10.3085	0.853
10.3484	0.861
10.3882	0.868
10.4281	0.87
10.4679	0.87
10.5078	0.87
10.5476	0.865
10.5875	0.861
10.6273	0.855
10.6672	0.851
10.707	0.858
10.7469	0.861
10.7867	0.843
10.8266	0.798
10.8664	0.8
10.9063	0.838
10.9461	0.871
10.986	0.883
11.0258	0.89
11.0656	0.898
11.1055	0.895
11.1453	0.851
11.1852	0.797
11.225	0.795
11.2649	0.792
11.3047	0.825
11.3446	0.845
11.3844	0.84
11.4243	0.833
11.4641	0.86
11.504	0.883
11.5438	0.878
11.5837	0.853
11.6235	0.865
11.6634	0.885
11.7032	0.901
11.7431	0.906
11.7829	0.913
11.8228	0.903
11.8626	0.895
11.9025	0.87
11.9423	0.858
11.9822	0.82
12.022	0.733
12.0619	0.46
12.1017	0.154
12.1416	0.126
12.1814	0.306
12.2213	0.585
12.2611	0.737
12.301	0.811
12.3408	0.84
12.3807	0.85
12.4205	0.861
12.4604	0.871
12.5002	0.878
12.54	0.881
12.5799	0.881
12.6197	0.878
12.6596	0.881
12.6994	0.885
12.7393	0.888
12.7791	0.888
12.819	0.886
12.8588	0.878
12.8987	0.871
12.9385	0.876
12.9784	0.875
13.0182	0.873
13.0581	0.866
13.0979	0.85
13.1378	0.823
13.1776	0.78
13.2175	0.72
13.2573	0.725
13.2972	0.79
13.337	0.816
13.3769	0.821
13.4167	0.795
13.4566	0.742
13.4964	0.73
13.5363	0.743
13.5761	0.738
13.616	0.673
13.6558	0.605
13.6957	0.594
13.7355	0.62
13.7754	0.633
13.8152	0.665
13.8551	0.715
13.8949	0.762
13.9348	0.79
13.9746	0.798
14.0144	0.8
14.0543	0.8
14.0941	0.798
14.134	0.792
14.1738	0.788
14.2137	0.783
14.2535	0.778
14.2934	0.773
14.3332	0.767
14.3731	0.762
14.4129	0.76
14.4528	0.755
14.4926	0.75
14.5325	0.745
14.5723	0.747
14.6122	0.745
14.652	0.743
14.6919	0.742
14.7317	0.74
14.7716	0.737
14.8114	0.737
14.8513	0.732
14.8911	0.725
14.931	0.703
14.9708	0.682
15.0107	0.673
15.0505	0.675
15.0904	0.682
15.1302	0.685
15.1701	0.683
15.2099	0.677
15.2498	0.672
15.2896	0.665
15.3295	0.653
15.3693	0.648
15.4092	0.643
15.449	0.637
15.4889	0.632
15.5287	0.628
15.5685	0.622
15.6084	0.613
15.6482	0.603
15.6881	0.599
15.7279	0.589
15.7678	0.582
15.8076	0.579
15.8475	0.572
15.8873	0.567
15.9272	0.559
15.967	0.557
