Infrared Spectrum: 2(1H)-Naphthalenone, 3,4-dihydro-5-methoxy-
Formula: C11 H12 O2
CAS: 32940-15-1
State: SOLUTION (10% CCl4 FOR 3800-1330, 10% CS2 FOR 1330-400 CM^-^1)
Class: COBLENTZ
Instrument: DOW KBr FOREPRISM-GRATING
Instrument parameters: BLAZED AT 3.5, 12.0, 20.0 MICRON AND CHANGED AT 5.0, 7.5, 14.9 MICRON
Sampling: TRANSMISSION
Path length: 0.011 CM, 0.011 CM
Resolution: 2
Origin: DOW CHEMICAL COMPANY
1/CM	TRANSMITTANCE
3800	0.8865
3791	0.889
3782	0.8886
3773	0.8901
3764	0.8912
3755	0.8869
3746	0.881
3737	0.8824
3728	0.8842
3719	0.8842
3710	0.8849
3701	0.8828
3692	0.8722
3683	0.8679
3674	0.869
3665	0.8747
3656	0.8771
3647	0.8769
3638	0.8763
3629	0.8743
3620	0.8723
3611	0.8685
3602	0.8671
3593	0.8649
3584	0.848
3575	0.8379
3566	0.7989
3557	0.7771
3548	0.7803
3539	0.7925
3530	0.8034
3521	0.8095
3512	0.8133
3503	0.8138
3494	0.8127
3485	0.81
3476	0.8064
3467	0.7995
3458	0.7899
3449	0.7766
3440	0.7628
3431	0.7502
3422	0.7405
3413	0.7416
3404	0.7445
3395	0.7529
3386	0.7576
3377	0.7597
3368	0.7618
3359	0.7634
3350	0.7652
3341	0.7665
3332	0.7679
3323	0.7696
3314	0.7715
3305	0.7752
3296	0.7771
3287	0.7803
3278	0.7848
3269	0.7889
3260	0.7923
3251	0.7957
3242	0.7991
3233	0.8023
3224	0.8054
3215	0.8085
3206	0.8105
3197	0.8149
3188	0.8187
3179	0.8205
3170	0.8236
3161	0.8274
3152	0.8307
3143	0.832
3134	0.836
3125	0.8366
3116	0.8357
3107	0.8271
3098	0.7926
3089	0.7735
3080	0.7426
3071	0.7274
3062	0.7336
3053	0.7417
3044	0.6877
3035	0.6925
3026	0.6895
3017	0.6829
3008	0.5661
2999	0.5969
2990	0.6469
2981	0.6289
2972	0.5172
2963	0.4024
2954	0.3743
2945	0.3807
2936	0.3915
2927	0.5166
2918	0.538
2909	0.4687
2900	0.4888
2891	0.5752
2882	0.6618
2873	0.6841
2864	0.5973
2855	0.5236
2846	0.5647
2837	0.4063
2828	0.6514
2819	0.7636
2810	0.8001
2801	0.8227
2792	0.8333
2783	0.8406
2774	0.8484
2765	0.8547
2756	0.8592
2747	0.8631
2738	0.8653
2729	0.8675
2720	0.8692
2711	0.8708
2702	0.8725
2693	0.8733
2684	0.8729
2675	0.8722
2666	0.872
2657	0.8733
2648	0.8724
2639	0.8716
2630	0.8717
2621	0.8729
2612	0.8735
2603	0.8741
2594	0.8745
2585	0.8746
2576	0.8749
2567	0.8753
2558	0.8757
2549	0.8769
2540	0.8759
2531	0.8675
2522	0.8675
2513	0.87
2504	0.8724
2495	0.8745
2486	0.8763
2477	0.8793
2468	0.881
2459	0.8825
2450	0.8829
2441	0.8855
2432	0.8871
2423	0.8884
2414	0.8897
2405	0.8916
2396	0.8917
2387	0.8927
2378	0.8967
2369	0.8966
2360	0.8943
2351	0.8934
2342	0.8708
2333	0.8781
2324	0.8864
2315	0.8901
2306	0.8916
2297	0.8941
2288	0.8927
2279	0.8907
2270	0.8897
2261	0.8907
2252	0.8931
2243	0.8938
2234	0.8932
2225	0.8952
2216	0.896
2207	0.8983
2198	0.9001
2189	0.895
2180	0.889
2171	0.8885
2162	0.8878
2153	0.8939
2144	0.8963
2135	0.8972
2126	0.8982
2117	0.8996
2108	0.9011
2099	0.9024
2090	0.9028
2081	0.9026
2072	0.9012
2063	0.8976
2054	0.8952
2045	0.8887
2036	0.8861
2027	0.8959
2018	0.9051
2009	0.9054
2000	0.8671
1991	0.898
1982	0.914
1973	0.9147
1964	0.9111
1955	0.918
1946	0.9136
1937	0.9145
1928	0.9148
1919	0.903
1910	0.8717
1901	0.8868
1892	0.9021
1883	0.9078
1874	0.9136
1865	0.9176
1856	0.9204
1847	0.9175
1838	0.9062
1829	0.8911
1820	0.8902
1811	0.8904
1802	0.8851
1793	0.8823
1784	0.8641
1775	0.8355
1766	0.7954
1757	0.7236
1748	0.5515
1739	0.3843
1730	0.1137
1721	0.0253
1712	0.0942
1703	0.2666
1694	0.4752
1685	0.6047
1676	0.7005
1667	0.7722
1658	0.8003
1649	0.7883
1640	0.7284
1631	0.7188
1622	0.7603
1613	0.6194
1604	0.392
1595	0.1859
1586	0.1592
1577	0.5118
1568	0.7092
1559	0.7476
1550	0.817
1541	0.7907
1532	0.7982
1523	0.7104
1514	0.7287
1505	0.6663
1496	0.6796
1487	0.5234
1478	0.0931
1469	0.1906
1460	0.2624
1451	0.3056
1442	0.2593
1433	0.5502
1424	0.6565
1415	0.5954
1406	0.4187
1397	0.5324
1388	0.6533
1379	0.746
1370	0.7216
1361	0.6894
1352	0.5787
1343	0.3542
1334	0.5489
1325	0.553
1316	0.442
1307	0.3474
1298	0.3618
1289	0.4865
1280	0.5005
1271	0.287
1262	0.0262
1253	0.1544
1244	0.249
1235	0.2345
1226	0.3567
1217	0.4484
1208	0.5889
1199	0.5115
1190	0.5301
1181	0.5244
1172	0.3949
1163	0.4322
1154	0.5405
1145	0.6464
1136	0.7138
1127	0.7373
1118	0.6664
1109	0.6702
1100	0.5015
1091	0.085
1082	0.2687
1073	0.3191
1064	0.5142
1055	0.7119
1046	0.7632
1037	0.7465
1028	0.7624
1019	0.7176
1010	0.8292
1001	0.8446
992	0.822
983	0.7528
974	0.5344
965	0.6398
956	0.7554
947	0.8237
938	0.8525
929	0.8829
920	0.9046
911	0.9119
902	0.9117
893	0.7807
884	0.8326
875	0.8076
866	0.8156
857	0.783
848	0.7178
839	0.8161
830	0.7611
821	0.8327
812	0.8155
803	0.7877
794	0.7695
785	0.6021
776	0.2526
767	0.5428
758	0.5726
749	0.5036
740	0.4272
731	0.7251
722	0.5523
713	0.731
704	0.8125
695	0.7042
686	0.8159
677	0.9183
668	0.9473
659	0.9221
650	0.8772
641	0.904
632	0.9167
623	0.9246
614	0.9173
605	0.9171
596	0.9185
587	0.9011
578	0.8658
569	0.8718
560	0.8818
551	0.8754
542	0.9002
533	0.9066
524	0.8853
515	0.8247
506	0.8562
497	0.9007
488	0.8982
479	0.8889
470	0.8933
461	0.9054
452	0.8874
443	0.8743
434	0.8823
425	0.8808
416	0.8218
407	0.6459
398	0.4788
389	0.3514
380	0.2711
