Infrared Spectrum: CARBANILIC ACID, N-METHYL, ISOPROPYL ESTER
Formula: C11 H15 N O2
CAS: 3295-92-9
State: SOLUTION (10% CCl4 FOR 5000-1330, 10% CS2 FOR 1330-625 CM^-^1)
Class: COBLENTZ
Instrument: Not specified, most likely a prism, grating, or hybrid spectrometer.
Sampling: TRANSMISSION
Path length: 0.012 CM, 0.012 CM
Resolution: 4
Origin: DOW CHEMICAL COMPANY
MICROMETERS	TRANSMITTANCE
2.062	0.919
2.10304	0.917
2.14407	0.92
2.18511	0.912
2.22614	0.893
2.26718	0.9
2.30822	0.91
2.34925	0.905
2.39029	0.898
2.43132	0.901
2.47236	0.922
2.5134	0.925
2.55443	0.922
2.59547	0.913
2.6365	0.913
2.67754	0.893
2.71858	0.889
2.75961	0.86
2.80065	0.829
2.84168	0.814
2.88272	0.805
2.92376	0.791
2.96479	0.829
3.00583	0.845
3.04686	0.853
3.0879	0.86
3.12894	0.865
3.16997	0.858
3.21101	0.767
3.25204	0.691
3.29308	0.645
3.33412	0.39
3.37515	0.506
3.41619	0.628
3.45722	0.736
3.49826	0.827
3.5393	0.879
3.58033	0.891
3.62137	0.886
3.6624	0.896
3.70344	0.888
3.74448	0.893
3.78551	0.888
3.82655	0.9
3.86758	0.903
3.90862	0.9
3.94966	0.905
3.99069	0.905
4.03173	0.907
4.07276	0.901
4.1138	0.903
4.15484	0.903
4.19587	0.898
4.23691	0.876
4.27794	0.872
4.31898	0.874
4.36002	0.877
4.40105	0.893
4.44209	0.9
4.48312	0.905
4.52416	0.91
4.5652	0.908
4.60623	0.903
4.64727	0.903
4.6883	0.907
4.72934	0.901
4.77038	0.901
4.81141	0.9
4.85245	0.903
4.89348	0.895
4.93452	0.886
4.97556	0.879
5.01659	0.888
5.05763	0.865
5.09866	0.862
5.1397	0.865
5.18074	0.895
5.22177	0.891
5.26281	0.87
5.30384	0.865
5.34488	0.865
5.38592	0.877
5.42695	0.86
5.46799	0.831
5.50902	0.819
5.55006	0.802
5.5911	0.784
5.63213	0.771
5.67317	0.745
5.71421	0.621
5.75524	0.421
5.79628	0.196
5.83731	0.046
5.87835	0.053
5.91939	0.111
5.96042	0.468
6.00146	0.585
6.04249	0.66
6.08353	0.702
6.12457	0.69
6.1656	0.569
6.20664	0.253
6.24767	0.23
6.28871	0.433
6.32975	0.509
6.37078	0.478
6.41182	0.416
6.45285	0.406
6.49389	0.454
6.53493	0.476
6.57596	0.48
6.617	0.297
6.65803	0.096
6.69907	0.301
6.74011	0.256
6.78114	0.194
6.82218	0.285
6.86321	0.294
6.90425	0.251
6.94529	0.278
6.98632	0.249
7.02736	0.444
7.06839	0.495
7.10943	0.413
7.15047	0.239
7.1915	0.096
7.23254	0.03
7.27357	0.036
7.31461	0.163
7.35565	0.271
7.39668	0.158
7.43772	0.175
7.47875	0.191
7.51979	0.144
7.56083	0.254
7.60186	0.216
7.6429	0.149
7.68393	0.139
7.72497	0.203
7.76601	0.182
7.80704	0.122
7.84808	0.191
7.88911	0.215
7.93015	0.301
7.97119	0.457
8.01222	0.583
8.05326	0.64
8.09429	0.681
8.13533	0.7
8.17637	0.703
8.2174	0.681
8.25844	0.655
8.29947	0.604
8.34051	0.542
8.38155	0.425
8.42258	0.234
8.46362	0.106
8.50465	0.063
8.54569	0.03
8.58673	0.025
8.62776	0.056
8.6688	0.142
8.70983	0.201
8.75087	0.308
8.79191	0.364
8.83294	0.325
8.87398	0.239
8.91501	0.127
8.95605	0.041
8.99709	0.029
9.03812	0.034
9.07916	0.079
9.12019	0.33
9.16123	0.499
9.20227	0.581
9.2433	0.562
9.28434	0.543
9.32537	0.664
9.36641	0.774
9.40745	0.803
9.44848	0.82
9.48952	0.831
9.53055	0.833
9.57159	0.812
9.61263	0.755
9.65366	0.681
9.6947	0.631
9.73573	0.688
9.77677	0.793
9.81781	0.817
9.85884	0.802
9.89988	0.721
9.94091	0.619
9.98195	0.741
10.023	0.698
10.064	0.566
10.1051	0.445
10.1461	0.358
10.1871	0.302
10.2282	0.419
10.2692	0.667
10.3102	0.762
10.3513	0.791
10.3923	0.822
10.4333	0.833
10.4744	0.843
10.5154	0.845
10.5565	0.829
10.5975	0.812
10.6385	0.808
10.6796	0.82
10.7206	0.808
10.7616	0.781
10.8027	0.729
10.8437	0.607
10.8847	0.449
10.9258	0.447
10.9668	0.612
11.0079	0.614
11.0489	0.624
11.0899	0.702
11.131	0.771
11.172	0.803
11.213	0.815
11.2541	0.81
11.2951	0.798
11.3361	0.786
11.3772	0.776
11.4182	0.765
11.4592	0.755
11.5003	0.745
11.5413	0.733
11.5824	0.721
11.6234	0.712
11.6644	0.71
11.7055	0.719
11.7465	0.74
11.7875	0.759
11.8286	0.759
11.8696	0.736
11.9106	0.721
11.9517	0.733
11.9927	0.765
12.0338	0.779
12.0748	0.793
12.1158	0.808
12.1569	0.814
12.1979	0.82
12.2389	0.82
12.28	0.815
12.321	0.808
12.362	0.798
12.4031	0.764
12.4441	0.724
12.4851	0.683
12.5262	0.714
12.5672	0.74
12.6083	0.716
12.6493	0.636
12.6903	0.547
12.7314	0.531
12.7724	0.574
12.8134	0.581
12.8545	0.528
12.8955	0.449
12.9365	0.306
12.9776	0.185
13.0186	0.099
13.0597	0.08
13.1007	0.106
13.1417	0.141
13.1828	0.247
13.2238	0.394
13.2648	0.537
13.3059	0.602
13.3469	0.654
13.3879	0.679
13.429	0.702
13.47	0.717
13.511	0.729
13.5521	0.736
13.5931	0.741
13.6342	0.74
13.6752	0.74
13.7162	0.736
13.7573	0.731
13.7983	0.728
13.8393	0.719
13.8804	0.712
13.9214	0.702
13.9624	0.69
14.0035	0.672
14.0445	0.652
14.0856	0.624
14.1266	0.592
14.1676	0.538
14.2087	0.454
14.2497	0.351
14.2907	0.244
14.3318	0.129
14.3728	0.049
14.4138	0.061
14.4549	0.151
14.4959	0.333
14.5369	0.444
14.578	0.507
14.619	0.531
14.6601	0.545
14.7011	0.549
14.7421	0.545
14.7832	0.542
14.8242	0.531
14.8652	0.521
14.9063	0.502
14.9473	0.464
14.9883	0.432
15.0294	0.394
15.0704	0.383
15.1115	0.392
15.1525	0.423
15.1935	0.437
15.2346	0.437
15.2756	0.43
15.3166	0.416
15.3577	0.402
15.3987	0.38
15.4397	0.363
15.4808	0.363
15.5218	0.375
15.5628	0.39
15.6039	0.392
15.6449	0.392
15.686	0.39
15.727	0.387
15.768	0.382
15.8091	0.375
15.8501	0.371
