Infrared Spectrum: trans-Bicyclo[4.3.0]nonane
Formula: C 9 H 16
CAS: 3296-50-2
State: gas
Instrument: HP-GC/MS/IRD
Origin: NIST Mass Spectrometry Data Center
1/CM	ABSORBANCE
550	0.00069
562	6.44e-05
574	3.68e-05
586	3.45e-05
598	0.0001656
610	0.0003013
622	0.000207
634	0.00023
646	0.0002461
658	0.0003059
670	0.0002208
682	0.0002231
694	0.0002553
706	0.0002622
718	0.0003657
730	0.0003542
742	0.0002829
754	0.000299
766	0.000345
778	0.0003749
790	0.0003979
802	0.0003289
814	0.0003864
826	0.0003266
838	0.0005681
850	0.0004784
862	0.00046
874	0.0004623
886	0.0004968
898	0.000506
910	0.0004991
922	0.0004853
934	0.0004462
946	0.0004416
958	0.000437
970	0.0005198
982	0.0005566
994	0.0005014
1006	0.0004531
1018	0.0004669
1030	0.0004577
1042	0.0005658
1054	0.0005543
1066	0.0005589
1078	0.000621
1090	0.0006371
1102	0.0006486
1114	0.0006348
1126	0.0006256
1138	0.0006302
1150	0.0006141
1162	0.0006279
1174	0.0007015
1186	0.0006509
1198	0.0006463
1210	0.0006141
1222	0.0006233
1234	0.0007153
1246	0.000782
1258	0.0008349
1270	0.0007498
1282	0.0008303
1294	0.0009039
1306	0.0009499
1318	0.000805
1330	0.0008326
1342	0.0006693
1354	0.0007521
1366	0.0006532
1378	0.0006624
1390	0.0005612
1402	0.0006992
1414	0.0006762
1426	0.0008648
1438	0.0012098
1450	0.0022287
1462	0.0018285
1474	0.0009936
1486	0.0007544
1498	0.0005796
1510	8.74e-05
1522	0.0002139
1534	0.00046
1546	0.000368
1558	7.36e-05
1570	0.0006003
1582	0.0006992
1594	0.0007015
1606	0.0006693
1618	0.0004945
1630	0.000575
1642	0.0004761
1654	8.97e-05
1666	0.0004186
1678	0.000345
1690	0.0003887
1702	0.0001104
1714	0.0002162
1726	0.0004692
1738	0.0002369
1750	0.0002047
1762	0.0003588
1774	0.0003105
1786	0.0003496
1798	0.0003634
1810	0.0004278
1822	0.0003749
1834	0.0004048
1846	0.000276
1858	0.0004071
1870	0.000322
1882	0.0004002
1894	0.0003726
1906	0.0003956
1918	0.0003174
1930	0.0003864
1942	0.0003289
1954	0.0003565
1966	0.0003381
1978	0.0003496
1990	0.0002806
2002	0.0003312
2014	0.0003036
2026	0.0003059
2038	0.0002898
2050	0.0002921
2062	0.0002645
2074	0.000253
2086	0.0002507
2098	0.0002438
2110	0.0002461
2122	0.0002484
2134	0.0002369
2146	0.0002139
2158	0.0002231
2170	0.0002093
2182	0.0001909
2194	0.0001794
2206	0.0001656
2218	0.0001771
2230	0.0001495
2242	0.0001564
2254	0.0001357
2266	0.000138
2278	0.0001403
2290	7.13e-05
2302	4.6e-05
2314	1.15e-05
2326	9.2e-06
2338	9.2e-06
2350	9.2e-06
2362	9.2e-06
2374	1.15e-05
2386	8.97e-05
2398	0.0001035
2410	9.89e-05
2422	0.0001058
2434	8.28e-05
2446	9.89e-05
2458	9.89e-05
2470	0.0001035
2482	8.97e-05
2494	0.000115
2506	0.0001472
2518	0.0001426
2530	0.0001426
2542	0.0001633
2554	0.0001426
2566	0.0001702
2578	0.0002024
2590	0.0002139
2602	0.0002507
2614	0.0002484
2626	0.0003059
2638	0.0003427
2650	0.000368
2662	0.0003887
2674	0.0003381
2686	0.0002967
2698	0.0003105
2710	0.0003404
2722	0.0003289
2734	0.0003404
2746	0.0003358
2758	0.0003795
2770	0.0004393
2782	0.0005014
2794	0.0005773
2806	0.0006555
2818	0.0007958
2830	0.0013708
2842	0.0034132
2854	0.007797
2866	0.0105593
2878	0.0083927
2890	0.005336
2902	0.0063135
2914	0.0121854
2926	0.0210818
2938	0.0212083
2950	0.0161966
2962	0.0114563
2974	0.0050761
2986	0.0015341
2998	0.0008349
3010	0.0006808
3022	0.0006325
3034	0.0005612
3046	0.0005566
3058	0.0005221
3070	0.0004554
3082	0.0003703
3094	0.0003634
3106	0.0003381
3118	0.0003358
3130	0.0003266
3142	0.0003243
3154	0.0002806
3166	0.0002668
3178	0.0002599
3190	0.0002783
3202	0.0002875
3214	0.0002829
3226	0.000299
3238	0.0003335
3250	0.0003634
3262	0.0003289
3274	0.0002875
3286	0.0002944
3298	0.0002898
3310	0.0002875
3322	0.000276
3334	0.0002852
3346	0.0002921
3358	0.0002852
3370	0.0003151
3382	0.0003312
3394	0.0003312
3406	0.0003657
3418	0.0003657
3430	0.0003197
3442	0.0003105
3454	0.0003243
3466	0.0003381
3478	0.0003542
3490	0.0003703
3502	0.0002553
3514	0.0003818
3526	0.0002484
3538	0.0003266
3550	0.0002806
3562	0.000276
3574	0.0003381
3586	0.000138
3598	0.0003105
3610	0.0001219
3622	0.0002277
3634	0.0002829
3646	0.0001564
3658	0.0003266
3670	0.0001495
3682	0.0003542
3694	0.0003519
3706	0.0003588
3718	0.0003082
3730	0.0002185
3742	3.45e-05
3754	0.0002024
3766	0.000437
3778	0.0004853
3790	0.0005152
3802	0.0002806
3814	0.0003289
3826	0.0003956
3838	0.0002139
