Infrared Spectrum: 1,3-Propanediol, 2,2-bis(bromomethyl)
Formula: C5 H10 Br2 O2
CAS: 3296-90-0
State: SOLID (SPLIT MULL), FLUOROLUBE FOR 3800-1330 CM^-^1, NUJOL FOR 1330-460 CM^-^1
Class: COBLENTZ III
Instrument: DOW KBr FOREPRISM-GRATING
Instrument parameters: BLAZED AT 3.5, 12.0, 20.0 MICRON AND CHANGED AT 5.0, 7.5, 14.9 MICRON
Sampling: TRANSMISSION
Resolution: 2
Origin: DOW CHEMICAL COMPANY
1/CM	TRANSMITTANCE
453	0.6987
462	0.7308
471	0.7932
480	0.8082
489	0.82
498	0.8268
507	0.8305
516	0.8296
525	0.8236
534	0.8125
543	0.7996
552	0.7826
561	0.754
570	0.699
579	0.399
588	0.6391
597	0.7185
606	0.7035
615	0.6596
624	0.578
633	0.4801
642	0.5246
651	0.5487
660	0.548
669	0.5385
678	0.4733
687	0.3013
696	0.3902
705	0.5419
714	0.5393
723	0.5698
732	0.6347
741	0.6842
750	0.7178
759	0.7092
768	0.6112
777	0.7572
786	0.7937
795	0.8091
804	0.8143
813	0.8118
822	0.789
831	0.6125
840	0.307
849	0.606
858	0.7972
867	0.7805
876	0.6098
885	0.5523
894	0.8096
903	0.826
912	0.8244
921	0.8259
930	0.8221
939	0.8125
948	0.7496
957	0.6524
966	0.7911
975	0.798
984	0.7819
993	0.7538
1002	0.6949
1011	0.5244
1020	0.124
1029	0.0824
1038	0.1895
1047	0.0584
1056	0.1171
1065	0.503
1074	0.7138
1083	0.7471
1092	0.7639
1101	0.7186
1110	0.7701
1119	0.7711
1128	0.7441
1137	0.7661
1146	0.7711
1155	0.7693
1164	0.763
1173	0.754
1182	0.7343
1191	0.71
1200	0.7288
1209	0.7065
1218	0.518
1227	0.318
1236	0.4732
1245	0.591
1254	0.362
1263	0.3553
1272	0.4844
1281	0.3171
1290	0.5005
1299	0.498
1308	0.6517
1317	0.7001
1326	0.7039
1335	0.6898
1344	0.6778
1353	0.6944
1362	0.6788
1371	0.5875
1380	0.4938
1389	0.6671
1398	0.6451
1407	0.6299
1416	0.6045
1425	0.502
1434	0.4348
1443	0.5279
1452	0.5251
1461	0.349
1470	0.5428
1479	0.567
1488	0.6693
1497	0.7918
1506	0.8321
1515	0.8497
1524	0.8607
1533	0.8701
1542	0.8756
1551	0.8786
1560	0.8867
1569	0.8877
1578	0.8878
1587	0.888
1596	0.8875
1605	0.8878
1614	0.8887
1623	0.8897
1632	0.8902
1641	0.8893
1650	0.8864
1659	0.8834
1668	0.8821
1677	0.8816
1686	0.882
1695	0.8837
1704	0.8839
1713	0.8821
1722	0.8802
1731	0.8789
1740	0.8784
1749	0.8785
1758	0.8792
1767	0.8836
1776	0.8831
1785	0.8816
1794	0.8812
1803	0.8807
1812	0.8799
1821	0.8793
1830	0.8792
1839	0.8789
1848	0.8782
1857	0.8775
1866	0.8768
1875	0.8763
1884	0.876
1893	0.8764
1902	0.8768
1911	0.8773
1920	0.8783
1929	0.8778
1938	0.8757
1947	0.8748
1956	0.8734
1965	0.871
1974	0.8684
1983	0.8658
1992	0.8525
2001	0.8763
2010	0.8725
2019	0.8686
2028	0.8655
2037	0.8603
2046	0.8542
2055	0.8478
2064	0.8403
2073	0.846
2082	0.8513
2091	0.8513
2100	0.8514
2109	0.8525
2118	0.8536
2127	0.8525
2136	0.8505
2145	0.8478
2154	0.845
2163	0.8418
2172	0.839
2181	0.8357
2190	0.8325
2199	0.829
2208	0.824
2217	0.8189
2226	0.8137
2235	0.8081
2244	0.8011
2253	0.7962
2262	0.7951
2271	0.7964
2280	0.7956
2289	0.7938
2298	0.7918
2307	0.7897
2316	0.7889
2325	0.7893
2334	0.7868
2343	0.7842
2352	0.7837
2361	0.7882
2370	0.7856
2379	0.7815
2388	0.7771
2397	0.7733
2406	0.7697
2415	0.7661
2424	0.764
2433	0.7621
2442	0.7615
2451	0.7611
2460	0.7587
2469	0.7546
2478	0.7505
2487	0.7465
2496	0.7428
2505	0.739
2514	0.7351
2523	0.7319
2532	0.7335
2541	0.7337
2550	0.7297
2559	0.7245
2568	0.7191
2577	0.7132
2586	0.7069
2595	0.7008
2604	0.6946
2613	0.6868
2622	0.6799
2631	0.6748
2640	0.671
2649	0.668
2658	0.666
2667	0.6646
2676	0.6611
2685	0.6568
2694	0.6508
2703	0.6474
2712	0.6362
2721	0.6169
2730	0.5984
2739	0.601
2748	0.6045
2757	0.5996
2766	0.5923
2775	0.5833
2784	0.572
2793	0.5574
2802	0.542
2811	0.5253
2820	0.5089
2829	0.4926
2838	0.477
2847	0.4654
2856	0.4584
2865	0.4442
2874	0.4052
2883	0.3416
2892	0.3924
2901	0.4419
2910	0.4412
2919	0.4302
2928	0.411
2937	0.3609
2946	0.2768
2955	0.3482
2964	0.3884
2973	0.5192
2982	0.518
2991	0.5092
3000	0.4987
3009	0.4783
3018	0.4509
3027	0.446
3036	0.4308
3045	0.4095
3054	0.3892
3063	0.3679
3072	0.3459
3081	0.3255
3090	0.2965
3099	0.2683
3108	0.244
3117	0.2221
3126	0.1987
3135	0.1777
3144	0.1585
3153	0.1406
3162	0.1238
3171	0.1071
3180	0.0972
3189	0.0893
3198	0.0826
3207	0.0775
3216	0.0731
3225	0.0694
3234	0.0656
3243	0.0626
3252	0.0598
3261	0.0572
3270	0.0557
3279	0.0544
3288	0.0543
3297	0.0568
3306	0.0616
3315	0.071
3324	0.0822
3333	0.0979
3342	0.1233
3351	0.1584
3360	0.1959
3369	0.2358
3378	0.2905
3387	0.3466
3396	0.4062
3405	0.457
3414	0.4948
3423	0.561
3432	0.6031
3441	0.6464
3450	0.6745
3459	0.6915
3468	0.7067
3477	0.7195
3486	0.7304
3495	0.7403
3504	0.7494
3513	0.7556
3522	0.7601
3531	0.7621
3540	0.7634
3549	0.7642
3558	0.7648
3567	0.765
3576	0.7651
3585	0.7643
3594	0.7635
3603	0.7618
3612	0.7603
3621	0.7584
3630	0.7551
3639	0.7514
3648	0.7504
3657	0.7543
3666	0.7538
3675	0.7492
3684	0.7428
3693	0.7397
3702	0.738
3711	0.7362
3720	0.7347
3729	0.733
3738	0.7312
3747	0.7293
3756	0.7272
3765	0.7246
3774	0.7212
3783	0.7176
3792	0.7142
