Infrared Spectrum: 2-Acetyl-3-ethylpyrazine
Formula: C 8 H 10 N 2 O
CAS: 32974-92-8
State: gas
Origin: EPA-IR VAPOR PHASE LIBRARY
1/CM	ABSORBANCE
549.8	0.004775
559.445	0.007955
569.09	0.008945
578.734	0.012545
588.379	0.032815
598.024	0.086145
607.669	0.093425
617.313	0.044505
626.958	0.011135
636.603	0.005515
646.248	0.003025
655.893	0.003385
665.537	0.005805
675.182	0.010655
684.827	0.010955
694.472	0.005965
704.116	0.002565
713.761	0.0014444
723.406	0.0014245
733.051	0.0014313
742.695	0.002055
752.34	0.001745
761.985	0.001705
771.63	0.001915
781.275	0.0009597
790.919	0.001905
800.564	0.001735
810.209	0.002255
819.854	0.003735
829.498	0.009055
839.143	0.025375
848.788	0.048975
858.433	0.034945
868.078	0.020495
877.722	0.008175
887.367	0.005725
897.012	0.005065
906.657	0.005565
916.301	0.008645
925.946	0.019075
935.591	0.058505
945.236	0.102295
954.88	0.099375
964.525	0.053065
974.17	0.037655
983.815	0.035045
993.46	0.031035
1003.1	0.026475
1012.75	0.027745
1022.39	0.030065
1032.04	0.029075
1041.68	0.030965
1051.33	0.038225
1060.97	0.045105
1070.62	0.056905
1080.26	0.125945
1089.91	0.162705
1099.55	0.111065
1109.2	0.031555
1118.84	0.016265
1128.49	0.016055
1138.13	0.020655
1147.78	0.039585
1157.42	0.060895
1167.07	0.057645
1176.71	0.039945
1186.36	0.037765
1196	0.028905
1205.64	0.017825
1215.29	0.013605
1224.93	0.016805
1234.58	0.024865
1244.22	0.037085
1253.87	0.037845
1263.51	0.056985
1273.16	0.110945
1282.8	0.111965
1292.45	0.039435
1302.09	0.013755
1311.74	0.013575
1321.38	0.016085
1331.03	0.021355
1340.67	0.036075
1350.32	0.076705
1359.96	0.094735
1369.61	0.082875
1379.25	0.087825
1388.9	0.129445
1398.54	0.147755
1408.18	0.132345
1417.83	0.089925
1427.47	0.076725
1437.12	0.065805
1446.76	0.052755
1456.41	0.039875
1466.05	0.028225
1475.7	0.021085
1485.34	0.019145
1494.99	0.019535
1504.63	0.022125
1514.28	0.030275
1523.92	0.043485
1533.57	0.051575
1543.21	0.048395
1552.86	0.037415
1562.5	0.023265
1572.15	0.013275
1581.79	0.010255
1591.44	0.009085
1601.08	0.008485
1610.73	0.008585
1620.37	0.009115
1630.01	0.008905
1639.66	0.009565
1649.3	0.010905
1658.95	0.014585
1668.59	0.022215
1678.24	0.035625
1687.88	0.060095
1697.53	0.113885
1707.17	0.274425
1716.82	0.331445
1726.46	0.234105
1736.11	0.075615
1745.75	0.046275
1755.4	0.032825
1765.04	0.018115
1774.69	0.009555
1784.33	0.007325
1793.98	0.007625
1803.62	0.008425
1813.27	0.007265
1822.91	0.005105
1832.55	0.003535
1842.2	0.003265
1851.84	0.003085
1861.49	0.003255
1871.13	0.003535
1880.78	0.003995
1890.42	0.004285
1900.07	0.004855
1909.71	0.006365
1919.36	0.007775
1929	0.007085
1938.65	0.004855
1948.29	0.003305
1957.94	0.002965
1967.58	0.002675
1977.23	0.002085
1986.87	0.001925
1996.52	0.001965
2006.16	0.002345
2015.81	0.002505
2025.45	0.002435
2035.1	0.002465
2044.74	0.002295
2054.38	0.002165
2064.03	0.002085
2073.67	0.002175
2083.32	0.002385
2092.96	0.001925
2102.61	0.002005
2112.25	0.001895
2121.9	0.002015
2131.54	0.002215
2141.19	0.002345
2150.83	0.002085
2160.48	0.001775
2170.12	0.001655
2179.77	0.001695
2189.41	0.001364
2199.06	0.001685
2208.7	0.001735
2218.35	0.001935
2227.99	0.002095
2237.64	0.001895
2247.28	0.001905
2256.92	0.001685
2266.57	0.001595
2276.21	0.001625
2285.86	0.001985
2295.5	0.002435
2305.15	0.002805
2314.79	0.002655
2324.44	0.002015
2334.08	0.002015
2343.73	0.002375
2353.37	0.002075
2363.02	0.002105
2372.66	0.002055
2382.31	0.002075
2391.95	0.001975
2401.6	0.002085
2411.24	0.002015
2420.89	0.002055
2430.53	0.001905
2440.18	0.001885
2449.82	0.001995
2459.47	0.001855
2469.11	0.001695
2478.75	0.001615
2488.4	0.001735
2498.04	0.001605
2507.69	0.001795
2517.33	0.001795
2526.98	0.001915
2536.62	0.002015
2546.27	0.001875
2555.91	0.001715
2565.56	0.001625
2575.2	0.001825
2584.85	0.001605
2594.49	0.001795
2604.14	0.001815
2613.78	0.002035
2623.43	0.002175
2633.07	0.002315
2642.72	0.002255
2652.36	0.001825
2662.01	0.002015
2671.65	0.002115
2681.29	0.001885
2690.94	0.001825
2700.58	0.001875
2710.23	0.001715
2719.87	0.001765
2729.52	0.001915
2739.16	0.002135
2748.81	0.002495
2758.45	0.002385
2768.1	0.002575
2777.74	0.002935
2787.39	0.002795
2797.03	0.003185
2806.68	0.003335
2816.32	0.003365
2825.97	0.003595
2835.61	0.004675
2845.26	0.004995
2854.9	0.006155
2864.55	0.006385
2874.19	0.006845
2883.84	0.007055
2893.48	0.007715
2903.12	0.008645
2912.77	0.009885
2922.41	0.013195
2932.06	0.021035
2941.7	0.028635
2951.35	0.028845
2960.99	0.023835
2970.64	0.021845
2980.28	0.023035
2989.93	0.023235
2999.57	0.024465
3009.22	0.027925
3018.86	0.028835
3028.51	0.030675
3038.15	0.046235
3047.8	0.071585
3057.44	0.073755
3067.09	0.049995
3076.73	0.031125
3086.38	0.023805
3096.02	0.020405
3105.67	0.016635
3115.31	0.011355
3124.95	0.007065
3134.6	0.004615
3144.24	0.003505
3153.89	0.003005
3163.53	0.002605
3173.18	0.002155
3182.82	0.002005
3192.47	0.001885
3202.11	0.001775
3211.76	0.001685
3221.4	0.0014152
3231.05	0.001461
3240.69	0.0012529
3250.34	0.0013415
3259.98	0.0013601
3269.63	0.0010759
3279.27	0.0011471
3288.92	0.0010806
3298.56	0.0011048
3308.21	0.0009839
3317.85	0.0013257
3327.49	0.001313
3337.14	0.0010425
3346.78	0.0011639
3356.43	0.0010628
3366.07	0.002015
3375.72	0.002095
3385.36	0.002805
3395.01	0.004065
3404.65	0.006475
3414.3	0.007115
3423.94	0.005845
3433.59	0.003125
3443.23	0.002165
3452.88	0.001965
3462.52	0.001785
3472.17	0.0011398
3481.81	0.0013278
3491.46	0.0010756
3501.1	0.0011449
3510.75	0.0009572
3520.39	0.0008394
3530.04	0.0011161
3539.68	0.0005353
3549.32	0.0005741
3558.97	0.000423
3568.61	0.00065492
3578.26	0.0010599
3587.9	0.00057727
3597.55	0.0007691
3607.19	0.0005167
3616.84	0.000277
3626.48	0.0005089
3636.13	0.000219
3645.77	0.000327
3655.42	0.00061088
3665.06	0.000771
3674.71	0.0005036
3684.35	0.000329
3694	0.0004965
3703.64	0.000484
3713.29	0.0010076
3722.93	0.000336
3732.58	0.0008404
3742.22	0.0005978
3751.86	0.0005705
3761.51	0.0007169
3771.15	0.000409
3780.8	0.000227
3790.44	0.0005495
3800.09	0.0008301
3809.73	0.00060932
3819.38	0.00063643
3829.02	0.00063264
3838.67	0.0007965
3848.31	0.000161
3857.96	0.000206
3867.6	0.000423
3877.25	0.0008177
3886.89	0.0010652
3896.54	0.0013639
3906.18	0.001995
3915.83	0.0013688
3925.47	0.001147
3935.12	0.0008767
3944.76	0.0007713
3954.41	0.0012134
3964.05	0.0015425
3973.69	0.0008573
3983.34	0.0013588
3992.98	0.0011702
