Infrared Spectrum: N,N'-Dicyclohexyloxamide
Formula: C 14 H 24 N 2 O 2
CAS: 3299-64-7
State: gas
Origin: EPA-IR VAPOR PHASE LIBRARY
1/CM	ABSORBANCE
549.8	0.00627
559.445	0.00431
569.09	0.00315
578.734	0.00397
588.379	0.00463
598.024	0.0045
607.669	0.00473
617.313	0.00504
626.958	0.00456
636.603	0.00393
646.248	0.00328
655.893	0.00243
665.537	0.00199
675.182	0.00177
684.827	0.0014348
694.472	0.0012436
704.116	0.0010536
713.761	0.0009856
723.406	0.000779
733.051	0.0007706
742.695	0.00173
752.34	0.00491
761.985	0.00321
771.63	0.0010646
781.275	0.0006898
790.919	0.0010318
800.564	0.000374
810.209	0.0019
819.854	0.00212
829.498	0.0009487
839.143	0.0012564
848.788	0.001048
858.433	0.0009553
868.078	0.0009626
877.722	0.0012945
887.367	0.00241
897.012	0.00257
906.657	0.0015
916.301	0.0010815
925.946	0.0012201
935.591	0.001001
945.236	0.0011543
954.88	0.0012755
964.525	0.0014178
974.17	0.0010766
983.815	0.0004568
993.46	0.0010615
1003.1	0.0008279
1012.75	0.0006729
1022.39	0.0009906
1032.04	0.0011779
1041.68	0.000922
1051.33	0.0012406
1060.97	0.0010759
1070.62	0.00201
1080.26	0.00203
1089.91	0.00176
1099.55	0.00172
1109.2	0.0006219
1118.84	0.0011782
1128.49	0.0010694
1138.13	0.0018
1147.78	0.00358
1157.42	0.00337
1167.07	0.00397
1176.71	0.00495
1186.36	0.00731
1196	0.01157
1205.64	0.00843
1215.29	0.00404
1224.93	0.00276
1234.58	0.00268
1244.22	0.00527
1253.87	0.0066
1263.51	0.00409
1273.16	0.00506
1282.8	0.00335
1292.45	0.00313
1302.09	0.004
1311.74	0.00564
1321.38	0.00534
1331.03	0.00441
1340.67	0.00533
1350.32	0.00897
1359.96	0.00537
1369.61	0.00626
1379.25	0.00621
1388.9	0.00448
1398.54	0.00405
1408.18	0.00429
1417.83	0.00461
1427.47	0.00539
1437.12	0.00705
1446.76	0.01208
1456.41	0.01837
1466.05	0.02487
1475.7	0.0265
1485.34	0.05559
1494.99	0.11285
1504.63	0.10006
1514.28	0.04168
1523.92	0.01767
1533.57	0.00958
1543.21	0.00591
1552.86	0.00413
1562.5	0.00343
1572.15	0.00313
1581.79	0.00287
1591.44	0.0026
1601.08	0.00221
1610.73	0.00198
1620.37	0.00206
1630.01	0.00217
1639.66	0.00272
1649.3	0.00389
1658.95	0.00631
1668.59	0.00956
1678.24	0.01795
1687.88	0.04133
1697.53	0.08171
1707.17	0.06285
1716.82	0.0275
1726.46	0.01294
1736.11	0.00741
1745.75	0.005
1755.4	0.00339
1765.04	0.0024
1774.69	0.00204
1784.33	0.00183
1793.98	0.00155
1803.62	0.0013858
1813.27	0.0011285
1822.91	0.0009469
1832.55	0.0008887
1842.2	0.0007553
1851.84	0.00054611
1861.49	0.0005883
1871.13	0.0006594
1880.78	0.0006335
1890.42	0.000588
1900.07	0.000586
1909.71	0.0005972
1919.36	0.00053716
1929	0.000471468
1938.65	0.00049704
1948.29	0.00053354
1957.94	0.00048542
1967.58	0.00049545
1977.23	0.00051002
1986.87	0.0003882
1996.52	0.0004477
2006.16	0.0004358
2015.81	0.0004281
2025.45	0.00053538
2035.1	0.00051842
2044.74	0.00054348
2054.38	0.00051541
2064.03	0.0004568
2073.67	0.0004608
2083.32	0.00035
2092.96	0.0003934
2102.61	0.000476249
2112.25	0.000478989
2121.9	0.0005991
2131.54	0.00053926
2141.19	0.0005388
2150.83	0.00053464
2160.48	0.00055564
2170.12	0.0006482
2179.77	0.0005854
2189.41	0.0005579
2199.06	0.0005307
2208.7	0.00053682
2218.35	0.0003985
2227.99	0.0003978
2237.64	0.00050285
2247.28	0.0005797
2256.92	0.0006092
2266.57	0.00054598
2276.21	0.00055371
2285.86	0.00054664
2295.5	0.00054626
2305.15	0.0006216
2314.79	0.00050114
2324.44	0.0004119
2334.08	0.00049175
2343.73	0.00046463
2353.37	0.00050586
2363.02	0.000473272
2372.66	0.0005565
2382.31	0.0006424
2391.95	0.00056364
2401.6	0.0006282
2411.24	0.0006554
2420.89	0.0006356
2430.53	0.0007403
2440.18	0.0006258
2449.82	0.00050951
2459.47	0.00055242
2469.11	0.0005926
2478.75	0.0006775
2488.4	0.000689
2498.04	0.00053805
2507.69	0.00051735
2517.33	0.0006632
2526.98	0.000628
2536.62	0.0006894
2546.27	0.0006715
2555.91	0.0005804
2565.56	0.0006351
2575.2	0.0007392
2584.85	0.0007319
2594.49	0.0009122
2604.14	0.0009571
2613.78	0.001055
2623.43	0.0009799
2633.07	0.0010204
2642.72	0.0010418
2652.36	0.0011922
2662.01	0.0014671
2671.65	0.00155
2681.29	0.0012315
2690.94	0.0012043
2700.58	0.0012496
2710.23	0.0012629
2719.87	0.0010823
2729.52	0.0011004
2739.16	0.0009142
2748.81	0.0010203
2758.45	0.0010894
2768.1	0.0011431
2777.74	0.0011695
2787.39	0.0013362
2797.03	0.00165
2806.68	0.00159
2816.32	0.00186
2825.97	0.0021
2835.61	0.00317
2845.26	0.00509
2854.9	0.01326
2864.55	0.02956
2874.19	0.01786
2883.84	0.00932
2893.48	0.00822
2903.12	0.01179
2912.77	0.01841
2922.41	0.03
2932.06	0.05805
2941.7	0.08942
2951.35	0.05048
2960.99	0.01724
2970.64	0.00747
2980.28	0.00385
2989.93	0.00216
2999.57	0.0015
3009.22	0.0012462
3018.86	0.0011218
3028.51	0.0010551
3038.15	0.0009704
3047.8	0.000832
3057.44	0.0006644
3067.09	0.00052267
3076.73	0.0005798
3086.38	0.00051252
3096.02	0.0005793
3105.67	0.00051802
3115.31	0.0007004
3124.95	0.0006087
3134.6	0.0006967
3144.24	0.000661
3153.89	0.0007649
3163.53	0.00052924
3173.18	0.0007964
3182.82	0.00056562
3192.47	0.0008215
3202.11	0.00061
3211.76	0.0007134
3221.4	0.0006672
3231.05	0.0008468
3240.69	0.0007807
3250.34	0.0005789
3259.98	0.00050555
3269.63	0.0007422
3279.27	0.000815
3288.92	0.0005709
3298.56	0.00048523
3308.21	0.0006659
3317.85	0.0007533
3327.49	0.0007641
3337.14	0.0010282
3346.78	0.00154
3356.43	0.00188
3366.07	0.00214
3375.72	0.00323
3385.36	0.00743
3395.01	0.01498
3404.65	0.01358
3414.3	0.00584
3423.94	0.00275
3433.59	0.00178
3443.23	0.001436
3452.88	0.0009611
3462.52	0.0005765
3472.17	0.0006148
3481.81	0.00073
3491.46	0.00051921
3501.1	0.000471885
3510.75	0.000231
3520.39	0.000458
3530.04	0.0003869
3539.68	0.0003907
3549.32	0.000206
3558.97	0.000368
3568.61	0.000319
3578.26	0.0004261
3587.9	0.0004162
3597.55	0.000231
3607.19	0.000331
3616.84	0.00046787
3626.48	0.000301
3636.13	0.000156
3645.77	0.00029
3655.42	0.000356
3665.06	0.0003
3674.71	0.000151
3684.35	6.4e-05
3694	0.000243
3703.64	0.000358
3713.29	0.000245
3722.93	0.0003802
3732.58	0.0004347
3742.22	0.0002
3751.86	0.0004065
3761.51	0.0006329
3771.15	0.0004406
3780.8	0.00052676
3790.44	0.000434
3800.09	0.000278
3809.73	0.0004151
3819.38	0.0006207
3829.02	0.000288
3838.67	0.0004097
3848.31	0.000355
3857.96	0.000326
3867.6	0.00051974
3877.25	0.000225
3886.89	0.000235
3896.54	0.00053067
3906.18	0.000259
3915.83	0.000279
3925.47	0.0006125
3935.12	0.0004045
3944.76	0.0005795
3954.41	0.000238
3964.05	0.0004498
3973.69	0.00055774
3983.34	0.0003714
3992.98	0.000366
