Infrared Spectrum: Linuron
Formula: C 9 H 10 Cl 2 N 2 O 2
CAS: 330-55-2
State: gas
Instrument: HP-GC/MS/IRD
Origin: NIST Mass Spectrometry Data Center
1/CM	ABSORBANCE
550	0.0009864
562	0.0008496
574	0.0013824
586	0.001908
598	0.0013824
610	0.0010224
622	0.0006624
634	0.0002232
646	5.4e-05
658	3.6e-06
670	0.0004248
682	0.000882
694	0.0003924
706	0.0004248
718	0.000738
730	0.0005724
742	0.0008316
754	0.0014292
766	0.0004968
778	0.0001764
790	0.0006588
802	0.0017964
814	0.002088
826	0.0011592
838	0.0007272
850	0.0018072
862	0.0021132
874	0.0019476
886	0.0012816
898	0.0008172
910	0.0009504
922	0.0010188
934	0.0009072
946	0.0010008
958	0.001548
970	0.002268
982	0.0016596
994	0.0010584
1006	0.0014616
1018	0.0031068
1030	0.0061524
1042	0.0038988
1054	0.0019044
1066	0.0014688
1078	0.00162
1090	0.001908
1102	0.004266
1114	0.007758
1126	0.0092988
1138	0.007308
1150	0.004464
1162	0.0043812
1174	0.0046872
1186	0.0029556
1198	0.0023184
1210	0.0023508
1222	0.0029196
1234	0.0021888
1246	0.0026784
1258	0.0029808
1270	0.0045792
1282	0.0072036
1294	0.0053352
1306	0.0031968
1318	0.0023544
1330	0.001872
1342	0.0016848
1354	0.0019656
1366	0.0036252
1378	0.0065448
1390	0.007218
1402	0.004086
1414	0.0025632
1426	0.0034416
1438	0.003978
1450	0.005382
1462	0.0082152
1474	0.0158652
1486	0.0173988
1498	0.0259488
1510	0.033138
1522	0.0184896
1534	0.0096192
1546	0.005706
1558	0.0051732
1570	0.0092484
1582	0.0102708
1594	0.0108036
1606	0.005184
1618	0.0021132
1630	0.001404
1642	0.001044
1654	0.000864
1666	0.0008244
1678	0.0011088
1690	0.0017028
1702	0.0030312
1714	0.0068364
1726	0.0145872
1738	0.0106056
1750	0.0038916
1762	0.0015912
1774	0.0007812
1786	0.000468
1798	0.000432
1810	0.0004104
1822	0.0003348
1834	0.0002268
1846	0.0001944
1858	0.0002268
1870	0.0001872
1882	0.0001836
1894	0.0001656
1906	7.56e-05
1918	2.16e-05
1930	3.24e-05
1942	1.44e-05
1954	0
1966	2.52e-05
1978	3.6e-06
1990	2.52e-05
2002	3.6e-05
2014	6.84e-05
2026	4.68e-05
2038	1.08e-05
2050	3.24e-05
2062	3.96e-05
2074	9.36e-05
2086	0.0001152
2098	0.000162
2110	0.000234
2122	0.0002916
2134	0.0003852
2146	0.0006048
2158	0.000882
2170	0.0011844
2182	0.001548
2194	0.0020556
2206	0.0028044
2218	0.003672
2230	0.0046116
2242	0.0070812
2254	0.0147276
2266	0.0313092
2278	0.032472
2290	0.0154584
2302	0.0075744
2314	0.0043776
2326	0.003366
2338	0.0034776
2350	0.0036684
2362	0.0025812
2374	0.0013212
2386	0.0007596
2398	0.0005328
2410	0.000414
2422	0.0003924
2434	0.0002808
2446	0.0002304
2458	0.0001476
2470	0.0001188
2482	0.0001188
2494	0.0001044
2506	5.76e-05
2518	5.4e-05
2530	5.04e-05
2542	2.16e-05
2554	3.24e-05
2566	1.08e-05
2578	6.48e-05
2590	8.64e-05
2602	9.36e-05
2614	9.36e-05
2626	0.0001044
2638	9.72e-05
2650	9.36e-05
2662	2.52e-05
2674	4.32e-05
2686	3.6e-05
2698	5.76e-05
2710	5.4e-05
2722	3.6e-05
2734	5.04e-05
2746	7.92e-05
2758	0.0001116
2770	0.0001944
2782	0.0003168
2794	0.0004536
2806	0.0006588
2818	0.0008964
2830	0.0010152
2842	0.0008532
2854	0.000936
2866	0.0013104
2878	0.001908
2890	0.0024552
2902	0.0027828
2914	0.0030744
2926	0.003294
2938	0.0040428
2950	0.004338
2962	0.003906
2974	0.0041832
2986	0.003114
2998	0.002196
3010	0.0015084
3022	0.00099
3034	0.0007668
3046	0.0006192
3058	0.0005868
3070	0.0005652
3082	0.000558
3094	0.00054
3106	0.0004788
3118	0.0005508
3130	0.0003816
3142	0.0002088
3154	0.0001692
3166	0.000126
3178	0.0001008
3190	0.0001404
3202	9.36e-05
3214	8.28e-05
3226	6.84e-05
3238	5.76e-05
3250	3.6e-05
3262	1.08e-05
3274	3.96e-05
3286	8.64e-05
3298	0.000108
3310	8.28e-05
3322	6.12e-05
3334	0.0001152
3346	0.0001332
3358	0.0002052
3370	0.0003312
3382	0.0002736
3394	0.0003708
3406	0.0004464
3418	0.0007812
3430	0.0020592
3442	0.0052272
3454	0.0031356
3466	0.000936
3478	0.0004788
3490	0.0002736
3502	0.0002808
3514	0.0003024
3526	0.000126
3538	0.0001728
3550	0.0002232
3562	0.000252
3574	0.0001476
3586	0.0002052
3598	0.0002016
3610	0.000216
3622	0.0002268
3634	0.000288
3646	0.0002448
3658	0.0002556
3670	0.0003348
3682	0.0003204
3694	0.0003168
3706	0.0002988
3718	0.0002664
3730	0.0001728
3742	0.0002376
3754	0.0002448
3766	0.0002844
3778	0.0002376
3790	0.0002664
3802	0.0002304
3814	0.0001872
3826	0.0001872
3838	0.0001368
