Infrared Spectrum: 4-Fluorodiphenyl ether
Formula: C 12 H 9 F O
CAS: 330-84-7
State: gas
Origin: EPA-IR VAPOR PHASE LIBRARY
1/CM	ABSORBANCE
549.8	0.002005
559.445	0.0011641
569.09	0.0011742
578.734	0.002125
588.379	0.002805
598.024	0.002995
607.669	0.002315
617.313	0.001825
626.958	0.001965
636.603	0.001965
646.248	0.002215
655.893	0.003455
665.537	0.005065
675.182	0.010375
684.827	0.020955
694.472	0.024265
704.116	0.016535
713.761	0.010245
723.406	0.011025
733.051	0.016155
742.695	0.019955
752.34	0.024185
761.985	0.029885
771.63	0.032115
781.275	0.025945
790.919	0.018655
800.564	0.023105
810.209	0.033335
819.854	0.029565
829.498	0.034255
839.143	0.047365
848.788	0.043895
858.433	0.027885
868.078	0.032885
877.722	0.027905
887.367	0.009635
897.012	0.006375
906.657	0.005145
916.301	0.003565
925.946	0.002275
935.591	0.001905
945.236	0.001555
954.88	0.001595
964.525	0.001825
974.17	0.002195
983.815	0.002105
993.46	0.002245
1003.1	0.004545
1012.75	0.007945
1022.39	0.008945
1032.04	0.003475
1041.68	0.001815
1051.33	0.002565
1060.97	0.005255
1070.62	0.008265
1080.26	0.010425
1089.91	0.011465
1099.55	0.007585
1109.2	0.004635
1118.84	0.003215
1128.49	0.003305
1138.13	0.006055
1147.78	0.015295
1157.42	0.020775
1167.07	0.022185
1176.71	0.025925
1186.36	0.049115
1196	0.076035
1205.64	0.159315
1215.29	0.290595
1224.93	0.306165
1234.58	0.138985
1244.22	0.089185
1253.87	0.110445
1263.51	0.062655
1273.16	0.039185
1282.8	0.028045
1292.45	0.020395
1302.09	0.014465
1311.74	0.011585
1321.38	0.009655
1331.03	0.008155
1340.67	0.005685
1350.32	0.003655
1359.96	0.003125
1369.61	0.003195
1379.25	0.003065
1388.9	0.003085
1398.54	0.003495
1408.18	0.004505
1417.83	0.008525
1427.47	0.012045
1437.12	0.009245
1446.76	0.010495
1456.41	0.014205
1466.05	0.023365
1475.7	0.065445
1485.34	0.237375
1494.99	0.282445
1504.63	0.284255
1514.28	0.113525
1523.92	0.036525
1533.57	0.022445
1543.21	0.015635
1552.86	0.010995
1562.5	0.011215
1572.15	0.018405
1581.79	0.036535
1591.44	0.053405
1601.08	0.036635
1610.73	0.017955
1620.37	0.010295
1630.01	0.007195
1639.66	0.005725
1649.3	0.004545
1658.95	0.003485
1668.59	0.002795
1678.24	0.002395
1687.88	0.002425
1697.53	0.002415
1707.17	0.002645
1716.82	0.002805
1726.46	0.003235
1736.11	0.003565
1745.75	0.002745
1755.4	0.002205
1765.04	0.002845
1774.69	0.003555
1784.33	0.002455
1793.98	0.001865
1803.62	0.001655
1813.27	0.001675
1822.91	0.001845
1832.55	0.002195
1842.2	0.003145
1851.84	0.004795
1861.49	0.006115
1871.13	0.005675
1880.78	0.003825
1890.42	0.002255
1900.07	0.001895
1909.71	0.002295
1919.36	0.003035
1929	0.003605
1938.65	0.003595
1948.29	0.003645
1957.94	0.003255
1967.58	0.003135
1977.23	0.003305
1986.87	0.003285
1996.52	0.003135
2006.16	0.003015
2015.81	0.003175
2025.45	0.003605
2035.1	0.003655
2044.74	0.003215
2054.38	0.003085
2064.03	0.003025
2073.67	0.002265
2083.32	0.001605
2092.96	0.0013637
2102.61	0.0012847
2112.25	0.0010511
2121.9	0.0008762
2131.54	0.0008092
2141.19	0.0007738
2150.83	0.0007095
2160.48	0.0007314
2170.12	0.0007452
2179.77	0.0008
2189.41	0.000739
2199.06	0.000743
2208.7	0.0007354
2218.35	0.0008432
2227.99	0.0010777
2237.64	0.001138
2247.28	0.0009798
2256.92	0.0008006
2266.57	0.0007187
2276.21	0.0007545
2285.86	0.000908
2295.5	0.0012867
2305.15	0.001705
2314.79	0.001765
2324.44	0.001905
2334.08	0.001775
2343.73	0.001605
2353.37	0.001725
2363.02	0.002075
2372.66	0.002485
2382.31	0.002355
2391.95	0.002095
2401.6	0.002455
2411.24	0.002985
2420.89	0.003525
2430.53	0.004065
2440.18	0.004285
2449.82	0.003275
2459.47	0.002495
2469.11	0.002055
2478.75	0.001715
2488.4	0.00129
2498.04	0.0011324
2507.69	0.0010727
2517.33	0.0009989
2526.98	0.0009179
2536.62	0.0009735
2546.27	0.00116
2555.91	0.0012128
2565.56	0.0012342
2575.2	0.0009504
2584.85	0.0006306
2594.49	0.0006632
2604.14	0.00061879
2613.78	0.0006498
2623.43	0.00056889
2633.07	0.00052837
2642.72	0.0006388
2652.36	0.00060976
2662.01	0.00055235
2671.65	0.00057881
2681.29	0.0004673
2690.94	0.00061932
2700.58	0.0005222
2710.23	0.00060259
2719.87	0.0005135
2729.52	0.0004962
2739.16	0.00062596
2748.81	0.0007137
2758.45	0.0008392
2768.1	0.0006913
2777.74	0.000535029
2787.39	0.0006358
2797.03	0.00056827
2806.68	0.00061597
2816.32	0.0007023
2825.97	0.000697
2835.61	0.0008873
2845.26	0.0009757
2854.9	0.0011315
2864.55	0.0012529
2874.19	0.0011673
2883.84	0.000927
2893.48	0.0008362
2903.12	0.00062983
2912.77	0.0006472
2922.41	0.00054846
2932.06	0.0004851
2941.7	0.0004498
2951.35	0.000411
2960.99	0.0004656
2970.64	0.00056904
2980.28	0.0004659
2989.93	0.0008781
2999.57	0.0013215
3009.22	0.002925
3018.86	0.004815
3028.51	0.007135
3038.15	0.012335
3047.8	0.017555
3057.44	0.017855
3067.09	0.016235
3076.73	0.021015
3086.38	0.018325
3096.02	0.011945
3105.67	0.008315
3115.31	0.004495
3124.95	0.002165
3134.6	0.0013401
3144.24	0.0007642
3153.89	0.00060157
3163.53	0.000393
3173.18	0.0006871
3182.82	0.00041
3192.47	0.0005008
3202.11	0.000417
3211.76	0.000331
3221.4	0.000337
3231.05	0.000264
3240.69	0.00024
3250.34	0.0002
3259.98	0.000396
3269.63	0.000176
3279.27	0.00015
3288.92	0.000285
3298.56	6.6e-05
3308.21	0.000107
3317.85	0.000147
3327.49	0.000344
3337.14	0.000356
3346.78	0.000322
3356.43	0.000354
3366.07	0.000172
3375.72	0.00025
3385.36	0.000269
3395.01	0.0005155
3404.65	0.000377
3414.3	0.000241
3423.94	0.000171
3433.59	0.000118
3443.23	0.000179
3452.88	0.000114
3462.52	7e-05
3472.17	0.000292
3481.81	0.000281
3491.46	0.000232
3501.1	0.000444
3510.75	0.000211
3520.39	0.000367
3530.04	0.000234
3539.68	0.000155
3549.32	0.000154
3558.97	0.00027
3568.61	0.000309
3578.26	0.000426
3587.9	0.000403
3597.55	0.000302
3607.19	0.0004497
3616.84	0.00056247
3626.48	0.000426
3636.13	0.000306
3645.77	0.00023
3655.42	0.000381
3665.06	0.0004894
3674.71	0.0004461
3684.35	0.0004911
3694	0.00054589
3703.64	0.0005242
3713.29	0.000506
3722.93	0.0004533
3732.58	0.000332
3742.22	0.000289
3751.86	0.000202
3761.51	0.000355
3771.15	0.000192
3780.8	0.000165
3790.44	0.000324
3800.09	0.000432
3809.73	0.000351
3819.38	0.0004379
3829.02	0.000425
3838.67	0.000287
3848.31	0.000206
3857.96	0.000333
3867.6	0.000308
3877.25	0.000252
3886.89	0.000352
3896.54	0.000431
3906.18	0.0004576
3915.83	0.000234
3925.47	0.0004972
3935.12	0.000401
3944.76	0.00058697
3954.41	0.0006399
3964.05	0.000249
3973.69	0.000192
3983.34	0.000337
3992.98	0.000332
