Infrared Spectrum: 4,4'-Bis(fluorophenyl)ether
Formula: C 12 H 8 F 2 O
CAS: 330-93-8
State: gas
Origin: EPA-IR VAPOR PHASE LIBRARY
1/CM	ABSORBANCE
549.8	0.004875
559.445	0.010175
569.09	0.016775
578.734	0.014035
588.379	0.007135
598.024	0.003115
607.669	0.002305
617.313	0.002505
626.958	0.003785
636.603	0.004475
646.248	0.003135
655.893	0.002975
665.537	0.003255
675.182	0.005215
684.827	0.007195
694.472	0.009155
704.116	0.006705
713.761	0.004275
723.406	0.003415
733.051	0.003135
742.695	0.004255
752.34	0.004795
761.985	0.007215
771.63	0.020565
781.275	0.150045
790.919	0.092955
800.564	0.024325
810.209	0.033295
819.854	0.077675
829.498	0.128615
839.143	0.118385
848.788	0.082465
858.433	0.051895
868.078	0.035975
877.722	0.046225
887.367	0.016985
897.012	0.007355
906.657	0.005215
916.301	0.003915
925.946	0.003095
935.591	0.002255
945.236	0.001645
954.88	0.001565
964.525	0.0013004
974.17	0.0008565
983.815	0.001695
993.46	0.002495
1003.1	0.008695
1012.75	0.015075
1022.39	0.002915
1032.04	0.001525
1041.68	0.002225
1051.33	0.002345
1060.97	0.003925
1070.62	0.007965
1080.26	0.021295
1089.91	0.029685
1099.55	0.018955
1109.2	0.008035
1118.84	0.006015
1128.49	0.007445
1138.13	0.012975
1147.78	0.032855
1157.42	0.015825
1167.07	0.025605
1176.71	0.049225
1186.36	0.095045
1196	0.278055
1205.64	0.590415
1215.29	0.480715
1224.93	0.402245
1234.58	0.180425
1244.22	0.074945
1253.87	0.069225
1263.51	0.078455
1273.16	0.056865
1282.8	0.036655
1292.45	0.027285
1302.09	0.020095
1311.74	0.013535
1321.38	0.008685
1331.03	0.005485
1340.67	0.004285
1350.32	0.003815
1359.96	0.003855
1369.61	0.003425
1379.25	0.003205
1388.9	0.003615
1398.54	0.005875
1408.18	0.011315
1417.83	0.018945
1427.47	0.021585
1437.12	0.016165
1446.76	0.014065
1456.41	0.016875
1466.05	0.027005
1475.7	0.060035
1485.34	0.246565
1494.99	0.888915
1504.63	0.581655
1514.28	0.184835
1523.92	0.100485
1533.57	0.044205
1543.21	0.021295
1552.86	0.013785
1562.5	0.010535
1572.15	0.009475
1581.79	0.009105
1591.44	0.008595
1601.08	0.009485
1610.73	0.010725
1620.37	0.012235
1630.01	0.011475
1639.66	0.009625
1649.3	0.007295
1658.95	0.005435
1668.59	0.004255
1678.24	0.003345
1687.88	0.002735
1697.53	0.002625
1707.17	0.003015
1716.82	0.004025
1726.46	0.005495
1736.11	0.006895
1745.75	0.005095
1755.4	0.003255
1765.04	0.002795
1774.69	0.002285
1784.33	0.002275
1793.98	0.002005
1803.62	0.001915
1813.27	0.001765
1822.91	0.002435
1832.55	0.003505
1842.2	0.005195
1851.84	0.009065
1861.49	0.012795
1871.13	0.011875
1880.78	0.007895
1890.42	0.005125
1900.07	0.003435
1909.71	0.002745
1919.36	0.002965
1929	0.003815
1938.65	0.004465
1948.29	0.004745
1957.94	0.004475
1967.58	0.003745
1977.23	0.003435
1986.87	0.004305
1996.52	0.005705
2006.16	0.006375
2015.81	0.006385
2025.45	0.004845
2035.1	0.004285
2044.74	0.005235
2054.38	0.006015
2064.03	0.005645
2073.67	0.003875
2083.32	0.002725
2092.96	0.002095
2102.61	0.001855
2112.25	0.001815
2121.9	0.001615
2131.54	0.001486
2141.19	0.0011677
2150.83	0.0011721
2160.48	0.0011277
2170.12	0.0012203
2179.77	0.0012411
2189.41	0.0013119
2199.06	0.0011275
2208.7	0.0011162
2218.35	0.0013037
2227.99	0.001825
2237.64	0.002225
2247.28	0.001855
2256.92	0.001447
2266.57	0.0013388
2276.21	0.0013627
2285.86	0.001785
2295.5	0.002145
2305.15	0.002125
2314.79	0.002145
2324.44	0.002455
2334.08	0.002725
2343.73	0.003385
2353.37	0.003645
2363.02	0.003265
2372.66	0.003725
2382.31	0.005245
2391.95	0.004605
2401.6	0.003815
2411.24	0.003655
2420.89	0.004515
2430.53	0.006195
2440.18	0.007455
2449.82	0.005985
2459.47	0.004415
2469.11	0.003605
2478.75	0.002885
2488.4	0.002475
2498.04	0.002095
2507.69	0.001655
2517.33	0.0013815
2526.98	0.0012804
2536.62	0.0015131
2546.27	0.001795
2555.91	0.001975
2565.56	0.001835
2575.2	0.0014999
2584.85	0.0009445
2594.49	0.0008876
2604.14	0.0009296
2613.78	0.000935
2623.43	0.000741
2633.07	0.0008761
2642.72	0.0010359
2652.36	0.0010863
2662.01	0.0008888
2671.65	0.0010121
2681.29	0.0011828
2690.94	0.0012659
2700.58	0.0012735
2710.23	0.0011414
2719.87	0.0012118
2729.52	0.0012746
2739.16	0.0011306
2748.81	0.0011951
2758.45	0.001187
2768.1	0.0014949
2777.74	0.0014347
2787.39	0.0012176
2797.03	0.0011844
2806.68	0.0013945
2816.32	0.0012477
2825.97	0.0011973
2835.61	0.0013646
2845.26	0.001805
2854.9	0.002325
2864.55	0.002775
2874.19	0.002215
2883.84	0.001715
2893.48	0.0013611
2903.12	0.0012836
2912.77	0.0009585
2922.41	0.000707
2932.06	0.000522073
2941.7	0.00058255
2951.35	0.0004211
2960.99	0.00054159
2970.64	0.0007266
2980.28	0.0006432
2989.93	0.0011121
2999.57	0.001935
3009.22	0.003115
3018.86	0.003045
3028.51	0.002675
3038.15	0.004375
3047.8	0.010955
3057.44	0.020275
3067.09	0.010855
3076.73	0.007725
3086.38	0.006795
3096.02	0.004795
3105.67	0.004495
3115.31	0.004385
3124.95	0.003465
3134.6	0.001815
3144.24	0.0012171
3153.89	0.0009856
3163.53	0.0007451
3173.18	0.00052624
3182.82	0.0004365
3192.47	0.000485
3202.11	0.0007859
3211.76	0.00059437
3221.4	0.0007259
3231.05	0.00053164
3240.69	0.000411
3250.34	0.000332
3259.98	0.0004156
3269.63	0.0004941
3279.27	0.00052625
3288.92	0.0006156
3298.56	0.000203
3308.21	0.000312
3317.85	0.000329
3327.49	0.0004908
3337.14	0.000514766
3346.78	0.000307
3356.43	0.000378
3366.07	0.000299
3375.72	0.0006973
3385.36	0.00058219
3395.01	0.000257
3404.65	0.0004852
3414.3	0.000395
3423.94	0.00023
3433.59	0.000263
3443.23	0.0004431
3452.88	0.000412
3462.52	0.000228
3472.17	0.0004983
3481.81	0.000203
3491.46	0.000424
3501.1	0.000272
3510.75	0.000306
3520.39	0.00057455
3530.04	0.0004472
3539.68	0.00019
3549.32	0.000357
3558.97	0.00055041
3568.61	0.0007329
3578.26	0.0004509
3587.9	0.000345
3597.55	0.000242
3607.19	0.000344
3616.84	0.00055756
3626.48	0.000335
3636.13	0.0004419
3645.77	0.000261
3655.42	0.0002
3665.06	0.0004543
3674.71	0.00051357
3684.35	0.0006311
3694	0.0006683
3703.64	0.0007331
3713.29	0.00058326
3722.93	0.0006652
3732.58	0.0007868
3742.22	0.0007167
3751.86	0.0006244
3761.51	0.0007424
3771.15	0.000204
3780.8	0.000162
3790.44	0.0007116
3800.09	2.4e-05
3809.73	0.000323
3819.38	0.0004928
3829.02	0.00055683
3838.67	0.0004536
3848.31	0.0009402
3857.96	0.0007173
3867.6	0.0004981
3877.25	0.0006486
3886.89	0.0004847
3896.54	0.0007073
3906.18	0.00053376
3915.83	0.00057747
3925.47	0.000816
3935.12	0.000376
3944.76	0.0008728
3954.41	0.0004796
3964.05	0.00054486
3973.69	0.00054625
3983.34	0.000397
3992.98	0.00050592
