Infrared Spectrum: 1-(3,4-DICHLOROPHENYL)-3,3-DIMETHYL UREA
Formula: C9 H10 Cl2 N2 O
CAS: 330-54-1
State: SOLID (MINERAL OIL MULL)
Class: COBLENTZ
Instrument: Not specified, most likely a prism, grating, or hybrid spectrometer.
Sampling: TRANSMISSION
Resolution: 4
Origin: DOW CHEMICAL COMPANY
MICROMETERS	TRANSMITTANCE
2.027	0.292
2.06694	0.303
2.10689	0.313
2.14683	0.33
2.18677	0.343
2.22672	0.35
2.26666	0.362
2.3066	0.372
2.34655	0.387
2.38649	0.398
2.42643	0.413
2.46638	0.426
2.50632	0.431
2.54626	0.438
2.58621	0.453
2.62615	0.465
2.66609	0.478
2.70604	0.483
2.74598	0.495
2.78593	0.508
2.82587	0.518
2.86581	0.526
2.90576	0.485
2.9457	0.332
2.98564	0.373
3.02559	0.403
3.06553	0.443
3.10547	0.425
3.14542	0.441
3.18536	0.413
3.2253	0.441
3.26525	0.48
3.30519	0.466
3.34513	0.265
3.38508	0.106
3.42502	0.215
3.46496	0.274
3.50491	0.591
3.54485	0.634
3.58479	0.646
3.62474	0.651
3.66468	0.657
3.70462	0.674
3.74457	0.677
3.78451	0.687
3.82445	0.694
3.8644	0.704
3.90434	0.712
3.94428	0.722
3.98423	0.729
4.02417	0.735
4.06412	0.744
4.10406	0.749
4.144	0.752
4.18395	0.754
4.22389	0.759
4.26383	0.769
4.30378	0.774
4.34372	0.772
4.38366	0.78
4.42361	0.782
4.46355	0.79
4.50349	0.794
4.54344	0.799
4.58338	0.803
4.62332	0.808
4.66327	0.817
4.70321	0.82
4.74315	0.822
4.7831	0.827
4.82304	0.828
4.86298	0.837
4.90293	0.84
4.94287	0.848
4.98281	0.853
5.02276	0.858
5.0627	0.86
5.10264	0.865
5.14259	0.872
5.18253	0.873
5.22247	0.877
5.26242	0.873
5.30236	0.853
5.3423	0.868
5.38225	0.885
5.42219	0.89
5.46214	0.89
5.50208	0.888
5.54202	0.89
5.58197	0.903
5.62191	0.9
5.66185	0.898
5.7018	0.897
5.74174	0.897
5.78168	0.898
5.82163	0.858
5.86157	0.817
5.90151	0.691
5.94146	0.45
5.9814	0.21
6.02134	0.31
6.06129	0.559
6.10123	0.593
6.14117	0.481
6.18112	0.212
6.22106	0.225
6.261	0.274
6.30095	0.26
6.34089	0.475
6.38083	0.529
6.42078	0.345
6.46072	0.277
6.50066	0.357
6.54061	0.358
6.58055	0.355
6.62049	0.39
6.66044	0.556
6.70038	0.493
6.74033	0.254
6.78027	0.21
6.82021	0.284
6.86016	0.478
6.9001	0.602
6.94004	0.697
6.97999	0.752
7.01993	0.785
7.05987	0.799
7.09982	0.745
7.13976	0.526
7.1797	0.377
7.21965	0.367
7.25959	0.398
7.29953	0.629
7.33948	0.727
7.37942	0.747
7.41936	0.749
7.45931	0.696
7.49925	0.569
7.53919	0.5
7.57914	0.629
7.61908	0.636
7.65902	0.45
7.69897	0.27
7.73891	0.415
7.77885	0.616
7.8188	0.667
7.85874	0.657
7.89868	0.664
7.93863	0.677
7.97857	0.659
8.01851	0.593
8.05846	0.493
8.0984	0.34
8.13835	0.365
8.17829	0.416
8.21823	0.435
8.25818	0.523
8.29812	0.589
8.33806	0.641
8.37801	0.682
8.41795	0.72
8.45789	0.742
8.49784	0.759
8.53778	0.765
8.57772	0.752
8.61767	0.747
8.65761	0.744
8.69755	0.74
8.7375	0.704
8.77744	0.606
8.81738	0.533
8.85733	0.519
8.89727	0.528
8.93721	0.644
8.97716	0.722
9.0171	0.78
9.05704	0.8
9.09699	0.81
9.13693	0.817
9.17687	0.82
9.21682	0.82
9.25676	0.822
9.2967	0.825
9.33665	0.825
9.37659	0.82
9.41653	0.82
9.45648	0.84
9.49642	0.847
9.53637	0.842
9.57631	0.833
9.61625	0.812
9.6562	0.747
9.69614	0.684
9.73608	0.679
9.77603	0.752
9.81597	0.812
9.85591	0.832
9.89586	0.848
9.9358	0.862
9.97574	0.868
10.0157	0.872
10.0556	0.877
10.0956	0.878
10.1355	0.88
10.1755	0.883
10.2154	0.885
10.2553	0.887
10.2953	0.888
10.3352	0.89
10.3752	0.89
10.4151	0.89
10.4551	0.892
10.495	0.892
10.535	0.887
10.5749	0.882
10.6148	0.878
10.6548	0.885
10.6947	0.888
10.7347	0.892
10.7746	0.897
10.8146	0.9
10.8545	0.898
10.8944	0.898
10.9344	0.897
10.9743	0.897
11.0143	0.892
11.0542	0.883
11.0942	0.855
11.1341	0.808
11.174	0.712
11.214	0.642
11.2539	0.581
11.2939	0.601
11.3338	0.7
11.3738	0.769
11.4137	0.832
11.4537	0.857
11.4936	0.865
11.5335	0.85
11.5735	0.813
11.6134	0.694
11.6534	0.524
11.6933	0.478
11.7333	0.754
11.7732	0.852
11.8131	0.878
11.8531	0.888
11.893	0.89
11.933	0.892
11.9729	0.892
12.0129	0.887
12.0528	0.877
12.0927	0.858
12.1327	0.837
12.1726	0.817
12.2126	0.772
12.2525	0.661
12.2925	0.48
12.3324	0.3
12.3723	0.373
12.4123	0.652
12.4522	0.767
12.4922	0.787
12.5321	0.805
12.5721	0.84
12.612	0.857
12.652	0.87
12.6919	0.875
12.7318	0.88
12.7718	0.88
12.8117	0.88
12.8517	0.877
12.8916	0.872
12.9316	0.868
12.9715	0.868
13.0114	0.867
13.0514	0.862
13.0913	0.857
13.1313	0.847
13.1712	0.835
13.2112	0.827
13.2511	0.82
13.291	0.817
13.331	0.807
13.3709	0.792
13.4109	0.772
13.4508	0.76
13.4908	0.762
13.5307	0.767
13.5707	0.767
13.6106	0.76
13.6505	0.752
13.6905	0.74
13.7304	0.732
13.7704	0.722
13.8103	0.71
13.8503	0.699
13.8902	0.687
13.9301	0.677
13.9701	0.662
14.01	0.644
14.05	0.619
14.0899	0.598
14.1299	0.566
14.1698	0.531
14.2097	0.498
14.2497	0.466
14.2896	0.441
14.3296	0.423
14.3695	0.411
14.4095	0.41
14.4494	0.42
14.4894	0.45
14.5293	0.473
14.5692	0.483
14.6092	0.483
14.6491	0.47
14.6891	0.455
14.729	0.428
14.769	0.418
14.8089	0.411
14.8488	0.41
14.8888	0.411
14.9287	0.415
14.9687	0.418
15.0086	0.421
15.0486	0.425
15.0885	0.426
15.1284	0.426
15.1684	0.428
15.2083	0.433
15.2483	0.436
15.2882	0.441
15.3282	0.441
15.3681	0.441
15.408	0.438
15.448	0.433
15.4879	0.418
15.5279	0.4
15.5678	0.388
15.6078	0.387
15.6477	0.387
15.6877	0.387
15.7276	0.385
15.7675	0.385
15.8075	0.385
15.8474	0.385
15.8874	0.385
