Infrared Spectrum: 4-(Trifluoromethoxy)benzoic acid
Formula: C 8 H 5 F 3 O 3
CAS: 330-12-1
State: gas
Origin: EPA-IR VAPOR PHASE LIBRARY
1/CM	ABSORBANCE
549.8	0.00318
559.445	0.00604
569.09	0.00575
578.734	0.00857
588.379	0.00863
598.024	0.00524
607.669	0.00407
617.313	0.00407
626.958	0.00911
636.603	0.01758
646.248	0.00868
655.893	0.00364
665.537	0.00263
675.182	0.0026
684.827	0.00318
694.472	0.00459
704.116	0.00564
713.761	0.00398
723.406	0.00245
733.051	0.00516
742.695	0.00854
752.34	0.0088
761.985	0.00832
771.63	0.00654
781.275	0.00389
790.919	0.0024
800.564	0.001999
810.209	0.00235
819.854	0.0019873
829.498	0.0021797
839.143	0.00239
848.788	0.00399
858.433	0.00376
868.078	0.0021033
877.722	0.0015704
887.367	0.0014985
897.012	0.00249
906.657	0.00309
916.301	0.0021432
925.946	0.0022878
935.591	0.0022988
945.236	0.0023214
954.88	0.0031
964.525	0.00311
974.17	0.00126
983.815	0.0021339
993.46	0.0019376
1003.1	0.0021773
1012.75	0.0018954
1022.39	0.0020977
1032.04	0.0022711
1041.68	0.003
1051.33	0.00625
1060.97	0.00992
1070.62	0.01033
1080.26	0.01206
1089.91	0.01293
1099.55	0.00758
1109.2	0.0067
1118.84	0.00582
1128.49	0.01078
1138.13	0.01717
1147.78	0.02778
1157.42	0.03443
1167.07	0.03789
1176.71	0.04605
1186.36	0.05553
1196	0.05851
1205.64	0.05657
1215.29	0.0899
1224.93	0.08331
1234.58	0.05298
1244.22	0.04544
1253.87	0.07214
1263.51	0.11201
1273.16	0.10675
1282.8	0.05198
1292.45	0.0263
1302.09	0.01801
1311.74	0.01354
1321.38	0.01281
1331.03	0.01291
1340.67	0.01086
1350.32	0.00889
1359.96	0.00877
1369.61	0.00816
1379.25	0.00535
1388.9	0.0035
1398.54	0.00301
1408.18	0.00256
1417.83	0.00303
1427.47	0.00374
1437.12	0.00792
1446.76	0.01164
1456.41	0.00697
1466.05	0.00346
1475.7	0.00431
1485.34	0.00615
1494.99	0.0057
1504.63	0.00327
1514.28	0.00255
1523.92	0.00282
1533.57	0.0022603
1543.21	0.0019515
1552.86	0.00252
1562.5	0.0027
1572.15	0.00381
1581.79	0.00636
1591.44	0.00693
1601.08	0.00467
1610.73	0.00341
1620.37	0.0029
1630.01	0.0021774
1639.66	0.0016346
1649.3	0.001608
1658.95	0.0014376
1668.59	0.0016474
1678.24	0.0016406
1687.88	0.0016391
1697.53	0.0020547
1707.17	0.00311
1716.82	0.00496
1726.46	0.00488
1736.11	0.00448
1745.75	0.00877
1755.4	0.0302
1765.04	0.06594
1774.69	0.0292
1784.33	0.0067
1793.98	0.00399
1803.62	0.00408
1813.27	0.00497
1822.91	0.00347
1832.55	0.0019691
1842.2	0.0019356
1851.84	0.0016242
1861.49	0.0015753
1871.13	0.0014886
1880.78	0.0014758
1890.42	0.0015312
1900.07	0.0015577
1909.71	0.001175
1919.36	0.0014538
1929	0.00134818
1938.65	0.0014764
1948.29	0.001468
1957.94	0.0016013
1967.58	0.00141292
1977.23	0.001002
1986.87	0.00138415
1996.52	0.001025
2006.16	0.00134152
2015.81	0.001047
2025.45	0.000995
2035.1	0.00137857
2044.74	0.001176
2054.38	0.001212
2064.03	0.00136128
2073.67	0.00133361
2083.32	0.001175
2092.96	0.001168
2102.61	0.00138075
2112.25	0.0014333
2121.9	0.001217
2131.54	0.0015497
2141.19	0.001123
2150.83	0.001007
2160.48	0.000987
2170.12	0.001053
2179.77	0.001082
2189.41	0.000982
2199.06	0.001065
2208.7	0.00123
2218.35	0.000848
2227.99	0.000979
2237.64	0.001017
2247.28	0.001031
2256.92	0.000769
2266.57	0.000813
2276.21	0.000951
2285.86	0.001007
2295.5	0.000815
2305.15	0.000806
2314.79	0.001006
2324.44	0.000986
2334.08	0.000853
2343.73	0.001001
2353.37	0.000585
2363.02	0.000866
2372.66	0.001038
2382.31	0.001061
2391.95	0.000991
2401.6	0.001098
2411.24	0.001057
2420.89	0.001122
2430.53	0.0014322
2440.18	0.0017593
2449.82	0.0015548
2459.47	0.0014524
2469.11	0.00142974
2478.75	0.001218
2488.4	0.001213
2498.04	0.00113
2507.69	0.00133894
2517.33	0.00136939
2526.98	0.000978
2536.62	0.001171
2546.27	0.000954
2555.91	0.000989
2565.56	0.000677
2575.2	0.000959
2584.85	0.000853
2594.49	0.000538
2604.14	0.000929
2613.78	0.000816
2623.43	0.000972
2633.07	0.000742
2642.72	0.000841
2652.36	0.000759
2662.01	0.000656
2671.65	0.000655
2681.29	0.000594
2690.94	0.000677
2700.58	0.000627
2710.23	0.00106
2719.87	0.001025
2729.52	0.000497
2739.16	0.000729
2748.81	0.00096
2758.45	0.000488
2768.1	0.000579
2777.74	0.000795
2787.39	0.000675
2797.03	0.000612
2806.68	0.000344
2816.32	0.000963
2825.97	0.001184
2835.61	0.001184
2845.26	0.000966
2854.9	0.000952
2864.55	0.000439
2874.19	0.000729
2883.84	0.000409
2893.48	0.000535
2903.12	0.000743
2912.77	0.000875
2922.41	0.000847
2932.06	0.00082
2941.7	0.000785
2951.35	0.001203
2960.99	0.000592
2970.64	0.001024
2980.28	0.000762
2989.93	0.000671
2999.57	0.00105
3009.22	0.001165
3018.86	0.000629
3028.51	0.001163
3038.15	0.000785
3047.8	0.001004
3057.44	0.000999
3067.09	0.0015865
3076.73	0.0016036
3086.38	0.00237
3096.02	0.0018024
3105.67	0.0018281
3115.31	0.000814
3124.95	0.00083
3134.6	0.000698
3144.24	0.000663
3153.89	0.001217
3163.53	0.000908
3173.18	0.00015
3182.82	0.000652
3192.47	0.000847
3202.11	0.000631
3211.76	0.000736
3221.4	0.001198
3231.05	0.000976
3240.69	0.000981
3250.34	0.00081
3259.98	0.000407
3269.63	0.00112
3279.27	0.0011
3288.92	0.000648
3298.56	0.000883
3308.21	0.000747
3317.85	0.000752
3327.49	0.000943
3337.14	0.000571
3346.78	0.000933
3356.43	0.0012963
3366.07	0.000678
3375.72	0.001026
3385.36	0.000771
3395.01	0.00137877
3404.65	0.001095
3414.3	0.001175
3423.94	0.0007
3433.59	0.000984
3443.23	8e-05
3452.88	0.000538
3462.52	0.000812
3472.17	0.000992
3481.81	0.0012638
3491.46	0.000966
3501.1	0.000584
3510.75	0.001136
3520.39	0.0019249
3530.04	0.001039
3539.68	0.000712
3549.32	0.001317
3558.97	0.0016121
3568.61	0.00555
3578.26	0.02027
3587.9	0.01816
3597.55	0.00345
3607.19	0.001969
3616.84	0.000503
3626.48	0.000762
3636.13	0.000688
3645.77	0.000477
3655.42	0.001022
3665.06	0.00031
3674.71	0.000626
3684.35	0.000618
3694	0.000947
3703.64	0.001028
3713.29	0.0016583
3722.93	0.000989
3732.58	0.000817
3742.22	0.000863
3751.86	0.001207
3761.51	0.000745
3771.15	0.000805
3780.8	0.000933
3790.44	0.000962
3800.09	0.0014794
3809.73	0.000895
3819.38	0.0013169
3829.02	0.001039
3838.67	0.000959
3848.31	0.000685
3857.96	0.0012587
3867.6	0.001159
3877.25	0.001217
3886.89	0.000876
3896.54	0.000701
3906.18	0.000948
3915.83	0.0014663
3925.47	0.00133164
3935.12	0.001306
3944.76	0.00027
3954.41	0.000768
3964.05	0.001185
3973.69	0.000502
3983.34	0.001175
3992.98	0.00092
