Infrared Spectrum: UREA, 1-METHYL-3-METHYLSULFONYL-
Formula: C3 H8 N2 O3 S
CAS: 33024-69-0
State: SOLID (1 mg / 650 mg KBr DISC)
Class: COBLENTZ III
Instrument: PERKIN-ELMER 521 (GRATING)
Sampling: TRANSMISSION
Resolution: 4
Origin: SOUTHERN RESEARCH INSTITUTE
1/CM	TRANSMITTANCE
254.185	0.436
264.748	0.4869
275.312	0.5189
285.875	0.5439
296.438	0.6546
307.002	0.701
317.565	0.701
328.129	0.7507
338.692	0.784
349.255	0.7841
359.819	0.7379
370.382	0.6677
380.945	0.7561
391.509	0.6411
402.072	0.8507
412.636	0.8788
423.199	0.8751
433.762	0.868
444.326	0.867
454.889	0.863
465.452	0.8551
476.016	0.8392
486.579	0.8193
497.143	0.784
507.706	0.6627
518.269	0.287
528.833	0.21
539.396	0.4451
549.959	0.8038
560.523	0.8686
571.086	0.8606
581.65	0.8393
592.213	0.7802
602.776	0.749
613.34	0.755
623.903	0.7565
634.466	0.7383
645.03	0.7116
655.593	0.6866
666.157	0.6355
676.72	0.5574
687.283	0.4585
697.847	0.4391
708.41	0.5528
718.973	0.7401
729.537	0.82
740.1	0.8003
750.663	0.4781
761.227	0.2699
771.79	0.6469
782.354	0.7688
792.917	0.8072
803.48	0.8383
814.044	0.8682
824.607	0.8738
835.17	0.8658
845.734	0.845
856.297	0.8128
866.861	0.7719
877.424	0.6211
887.987	0.3356
898.551	0.5857
909.114	0.7787
919.677	0.8357
930.241	0.8465
940.804	0.8015
951.368	0.643
961.931	0.6362
972.494	0.1664
983.058	0.5348
993.621	0.7691
1004.18	0.8245
1014.75	0.834
1025.31	0.835
1035.87	0.8295
1046.44	0.8185
1057	0.7961
1067.56	0.7558
1078.13	0.7171
1088.69	0.6551
1099.25	0.5623
1109.82	0.3991
1120.38	0.314
1130.94	0.474
1141.51	0.2892
1152.07	0.0986
1162.64	0.2574
1173.2	0.4211
1183.76	0.5324
1194.33	0.5849
1204.89	0.616
1215.45	0.6116
1226.02	0.5785
1236.58	0.4588
1247.14	0.4407
1257.71	0.5863
1268.27	0.6706
1278.83	0.6757
1289.4	0.6594
1299.96	0.5914
1310.52	0.4869
1321.09	0.2304
1331.65	0.0948
1342.21	0.3202
1352.78	0.5441
1363.34	0.6438
1373.9	0.6887
1384.47	0.6838
1395.03	0.6538
1405.59	0.464
1416.16	0.5547
1426.72	0.6797
1437.28	0.5907
1447.85	0.5174
1458.41	0.4464
1468.97	0.3466
1479.54	0.3788
1490.1	0.4861
1500.66	0.5885
1511.23	0.5602
1521.79	0.4358
1532.35	0.2911
1542.92	0.1645
1553.48	0.1525
1564.04	0.2278
1574.61	0.3633
1585.17	0.4891
1595.73	0.534
1606.3	0.5236
1616.86	0.4825
1627.42	0.4301
1637.99	0.3595
1648.55	0.2508
1659.11	0.079
1669.68	0.1286
1680.24	0.2745
1690.8	0.21
1701.37	0.3274
1711.93	0.3984
1722.49	0.5223
1733.06	0.599
1743.62	0.642
1754.18	0.675
1764.75	0.697
1775.31	0.714
1785.87	0.7269
1796.44	0.7449
1807	0.762
1817.56	0.7729
1828.13	0.781
1838.69	0.791
1849.25	0.797
1859.82	0.8059
1870.38	0.816
1880.94	0.8259
1891.51	0.837
1902.07	0.8439
1912.63	0.848
1923.2	0.8549
1933.76	0.856
1944.32	0.8649
1954.89	0.8707
1965.45	0.875
1976.01	0.88
1986.58	0.88
1997.14	0.881
2007.7	0.88
2018.27	0.8808
2028.83	0.884
2039.39	0.886
2049.96	0.888
2060.52	0.888
2071.09	0.888
2081.65	0.889
2092.21	0.894
2102.78	0.8997
2113.34	0.9037
2123.9	0.905
2134.47	0.9098
2145.03	0.913
2155.59	0.914
2166.16	0.915
2176.72	0.915
2187.28	0.9142
2197.85	0.914
2208.41	0.914
2218.97	0.914
2229.54	0.9167
2240.1	0.919
2250.66	0.922
2261.23	0.922
2271.79	0.921
2282.35	0.9193
2292.92	0.918
2303.48	0.9178
2314.04	0.921
2324.61	0.922
2335.17	0.922
2345.73	0.922
2356.3	0.921
2366.86	0.921
2377.42	0.922
2387.99	0.9247
2398.55	0.925
2409.11	0.925
2419.68	0.9233
2430.24	0.922
2440.8	0.921
2451.37	0.9212
2461.93	0.9132
2472.49	0.8937
2483.06	0.889
2493.62	0.901
2504.18	0.904
2514.75	0.904
2525.31	0.904
2535.87	0.904
2546.44	0.904
2557	0.893
2567.56	0.886
2578.13	0.883
2588.69	0.883
2599.25	0.8888
2609.82	0.89
2620.38	0.89
2630.94	0.8882
2641.51	0.885
2652.07	0.883
2662.63	0.884
2673.2	0.884
2683.76	0.881
2694.32	0.8727
2704.89	0.8592
2715.45	0.846
2726.01	0.848
2736.58	0.848
2747.14	0.847
2757.7	0.842
2768.27	0.8305
2778.83	0.8087
2789.39	0.7917
2799.96	0.7572
2810.52	0.7678
2821.08	0.768
2831.65	0.7563
2842.21	0.7362
2852.77	0.7032
2863.34	0.652
2873.9	0.5885
2884.46	0.5465
2895.03	0.5332
2905.59	0.5
2916.15	0.496
2926.72	0.487
2937.28	0.5035
2947.84	0.5553
2958.41	0.5947
2968.97	0.5902
2979.54	0.6008
2990.1	0.6178
3000.66	0.6087
3011.23	0.4773
3021.79	0.5402
3032.35	0.55
3042.92	0.5267
3053.48	0.4948
3064.04	0.4513
3074.61	0.4128
3085.17	0.3827
3095.73	0.3505
3106.3	0.332
3116.86	0.3417
3127.42	0.3685
3137.99	0.3958
3148.55	0.4207
3159.11	0.447
3169.68	0.4578
3180.24	0.4725
3190.8	0.4828
3201.37	0.5067
3211.93	0.5413
3222.49	0.5733
3233.06	0.5993
3243.62	0.614
3254.18	0.6338
3264.75	0.6525
3275.31	0.659
3285.87	0.6572
3296.44	0.6338
3307	0.5886
3317.56	0.4925
3328.13	0.3308
3338.69	0.1402
3349.25	0.2154
3359.82	0.3395
3370.38	0.4345
3380.94	0.4787
3391.51	0.5123
3402.07	0.5443
3412.63	0.5692
3423.2	0.5983
3433.76	0.6213
3444.32	0.6447
3454.89	0.6567
3465.45	0.6677
3476.01	0.6827
3486.58	0.6918
3497.14	0.7
3507.7	0.7098
3518.27	0.7245
3528.83	0.7327
3539.39	0.746
3549.96	0.7548
3560.52	0.7657
3571.08	0.7768
3581.65	0.7878
3592.21	0.7958
3602.77	0.8035
3613.34	0.819
3623.9	0.831
3634.46	0.834
3645.03	0.838
3655.59	0.84
3666.15	0.842
3676.72	0.846
3687.28	0.854
3697.84	0.858
3708.41	0.8588
3718.97	0.86
3729.53	0.862
3740.1	0.863
3750.66	0.864
3761.22	0.865
3771.79	0.867
3782.35	0.868
3792.91	0.8707
3803.48	0.871
3814.04	0.869
3824.6	0.871
3835.17	0.872
3845.73	0.871
3856.29	0.871
3866.86	0.873
3877.42	0.871
3887.99	0.8712
3898.55	0.872
3909.11	0.873
3919.68	0.876
3930.24	0.876
3940.8	0.876
3951.37	0.876
3961.93	0.873
3972.49	0.873
3983.06	0.873
3993.62	0.8722
