Infrared Spectrum: UREA, 1-(BENZYLOXY)-3-PHENYL-
Formula: C14 H14 N2 O2
CAS: 33026-77-6
State: SOLID (0.7 mg / 500 mg KBr DISC)
Class: COBLENTZ III
Instrument: PERKIN-ELMER 221 (GRATING)
Instrument parameters: FILTERS AT 2490, 980 CM ^-^1, GRATING FOR 4000-1428 CM^-^1, NaCl PRISM FOR 1428-650 CM^-^1
Sampling: TRANSMISSION
Resolution: 4
Origin: SOUTHERN RES. INSTITUTE
1/CM	TRANSMITTANCE
606.054	0.71
615.295	0.741
624.535	0.784
633.776	0.791
643.016	0.725
652.257	0.655
661.498	0.645
670.738	0.736
679.979	0.744
689.219	0.479
698.46	0.578
707.7	0.78
716.941	0.754
726.182	0.602
735.422	0.71
744.663	0.498
753.903	0.508
763.144	0.765
772.385	0.8
781.625	0.704
790.866	0.649
800.106	0.691
809.347	0.767
818.587	0.804
827.828	0.861
837.069	0.916
846.309	0.93
855.55	0.947
864.79	0.922
874.031	0.936
883.272	0.958
892.512	0.939
901.753	0.872
910.993	0.81
920.234	0.938
929.475	0.935
938.715	0.871
947.956	0.743
957.196	0.751
966.437	0.903
975.677	0.919
984.918	0.921
994.159	0.897
1003.4	0.895
1012.64	0.889
1021.88	0.904
1031.12	0.878
1040.36	0.93
1049.6	0.922
1058.84	0.9
1068.08	0.748
1077.32	0.778
1086.56	0.864
1095.81	0.919
1105.05	0.932
1114.29	0.937
1123.53	0.937
1132.77	0.932
1142.01	0.929
1151.25	0.913
1160.49	0.911
1169.73	0.896
1178.97	0.807
1188.21	0.916
1197.45	0.896
1206.69	0.874
1215.93	0.883
1225.17	0.789
1234.41	0.78
1243.65	0.858
1252.9	0.881
1262.14	0.849
1271.38	0.795
1280.62	0.801
1289.86	0.809
1299.1	0.789
1308.34	0.775
1317.58	0.768
1326.82	0.707
1336.06	0.826
1345.3	0.855
1354.54	0.733
1363.78	0.858
1373.02	0.861
1382.26	0.859
1391.5	0.85
1400.74	0.829
1409.99	0.81
1419.23	0.779
1428.47	0.745
1437.71	0.635
1446.95	0.298
1456.19	0.762
1465.43	0.845
1474.67	0.779
1483.91	0.696
1493.15	0.592
1502.39	0.665
1511.63	0.583
1520.87	0.43
1530.11	0.191
1539.35	0.183
1548.59	0.415
1557.83	0.688
1567.08	0.776
1576.32	0.823
1585.56	0.699
1594.8	0.367
1604.04	0.69
1613.28	0.765
1622.52	0.74
1631.76	0.708
1641	0.646
1650.24	0.466
1659.48	0.196
1668.72	0.308
1677.96	0.507
1687.2	0.645
1696.44	0.731
1705.68	0.797
1714.92	0.839
1724.17	0.863
1733.41	0.868
1742.65	0.882
1751.89	0.893
1761.13	0.9
1770.37	0.906
1779.61	0.906
1788.85	0.906
1798.09	0.904
1807.33	0.903
1816.57	0.904
1825.81	0.909
1835.05	0.913
1844.29	0.913
1853.53	0.909
1862.77	0.903
1872.01	0.895
1881.26	0.897
1890.5	0.9
1899.74	0.903
1908.98	0.903
1918.22	0.899
1927.46	0.894
1936.7	0.891
1945.94	0.887
1955.18	0.89
1964.42	0.893
1973.66	0.893
1982.9	0.891
1992.14	0.889
2001.38	0.887
2010.62	0.886
2019.86	0.884
2029.1	0.884
2038.34	0.883
2047.59	0.882
2056.83	0.881
2066.07	0.88
2075.31	0.879
2084.55	0.878
2093.79	0.877
2103.03	0.877
2112.27	0.877
2121.51	0.876
2130.75	0.875
2139.99	0.875
2149.23	0.874
2158.47	0.874
2167.71	0.874
2176.95	0.874
2186.19	0.873
2195.43	0.872
2204.68	0.871
2213.92	0.871
2223.16	0.871
2232.4	0.87
2241.64	0.869
2250.88	0.868
2260.12	0.868
2269.36	0.867
2278.6	0.864
2287.84	0.861
2297.08	0.857
2306.32	0.853
2315.56	0.851
2324.8	0.85
2334.04	0.85
2343.28	0.851
2352.52	0.852
2361.77	0.852
2371.01	0.852
2380.25	0.852
2389.49	0.852
2398.73	0.852
2407.97	0.852
2417.21	0.852
2426.45	0.851
2435.69	0.85
2444.93	0.849
2454.17	0.848
2463.41	0.847
2472.65	0.844
2481.89	0.841
2491.13	0.838
2500.37	0.836
2509.61	0.834
2518.86	0.833
2528.1	0.833
2537.34	0.833
2546.58	0.833
2555.82	0.832
2565.06	0.831
2574.3	0.83
2583.54	0.829
2592.78	0.829
2602.02	0.828
2611.26	0.826
2620.5	0.825
2629.74	0.823
2638.98	0.822
2648.22	0.821
2657.46	0.819
2666.7	0.819
2675.95	0.817
2685.19	0.816
2694.43	0.816
2703.67	0.814
2712.91	0.813
2722.15	0.813
2731.39	0.812
2740.63	0.809
2749.87	0.805
2759.11	0.801
2768.35	0.797
2777.59	0.794
2786.83	0.789
2796.07	0.785
2805.31	0.781
2814.55	0.778
2823.79	0.772
2833.04	0.755
2842.28	0.721
2851.52	0.681
2860.76	0.675
2870	0.723
2879.24	0.745
2888.48	0.737
2897.72	0.71
2906.96	0.681
2916.2	0.651
2925.44	0.728
2934.68	0.742
2943.92	0.745
2953.16	0.748
2962.4	0.75
2971.64	0.749
2980.88	0.747
2990.13	0.739
2999.37	0.725
3008.61	0.717
3017.85	0.701
3027.09	0.681
3036.33	0.668
3045.57	0.662
3054.81	0.657
3064.05	0.655
3073.29	0.658
3082.53	0.664
3091.77	0.68
3101.01	0.69
3110.25	0.683
3119.49	0.672
3128.73	0.667
3137.97	0.664
3147.22	0.658
3156.46	0.638
3165.7	0.61
3174.94	0.577
3184.18	0.539
3193.42	0.511
3202.66	0.491
3211.9	0.494
3221.14	0.531
3230.38	0.579
3239.62	0.627
3248.86	0.656
3258.1	0.67
3267.34	0.673
3276.58	0.669
3285.82	0.656
3295.06	0.635
3304.31	0.607
3313.55	0.541
3322.79	0.489
3332.03	0.438
3341.27	0.526
3350.51	0.611
3359.75	0.649
3368.99	0.653
3378.23	0.67
3387.47	0.684
3396.71	0.685
3405.95	0.686
3415.19	0.688
3424.43	0.69
3433.67	0.69
3442.91	0.691
3452.15	0.691
3461.4	0.693
3470.64	0.694
3479.88	0.695
3489.12	0.697
3498.36	0.699
3507.6	0.701
3516.84	0.704
3526.08	0.706
3535.32	0.71
3544.56	0.713
3553.8	0.717
3563.04	0.72
3572.28	0.723
3581.52	0.727
3590.76	0.732
3600	0.736
3609.24	0.74
3618.49	0.742
3627.73	0.744
3636.97	0.745
3646.21	0.748
3655.45	0.748
3664.69	0.747
3673.93	0.746
3683.17	0.745
3692.41	0.748
3701.65	0.749
3710.89	0.749
3720.13	0.749
3729.37	0.748
3738.61	0.745
3747.85	0.744
3757.09	0.745
3766.33	0.75
3775.58	0.749
3784.82	0.747
3794.06	0.745
3803.3	0.742
3812.54	0.74
3821.78	0.739
3831.02	0.736
3840.26	0.736
3849.5	0.734
3858.74	0.733
3867.98	0.732
3877.22	0.731
3886.46	0.73
3895.7	0.729
3904.94	0.729
3914.18	0.729
3923.42	0.729
3932.67	0.729
3941.91	0.729
3951.15	0.728
3960.39	0.728
3969.63	0.727
3978.87	0.727
3988.11	0.727
3997.35	0.727
4006.59	0.727
