Infrared Spectrum: UREA, 1-(2-CHLOROETHYL)-3-(3,4,5-TRIMETHOXYPHENYL)-
Formula: C12 H17 Cl N2 O4
CAS: 33021-68-0
State: SOLID (1 mg / 650 mg KBr DISC)
Class: COBLENTZ III
Instrument: PERKIN-ELMER 521 (GRATING)
Instrument parameters: FILTERS AT 3150, 2500, 2000, 1150, 700, 410 CM ^-^1, GRATING CHANGES AT 2000, 630 CM^-^1
Sampling: TRANSMISSION
Resolution: 4
Origin: SOUTHERN RES. INSTITUTE
1/CM	TRANSMITTANCE
250.346	0.348
259.536	0.383
268.725	0.417
277.915	0.496
287.105	0.537
296.295	0.584
305.484	0.594
314.674	0.607
323.864	0.636
333.053	0.667
342.243	0.685
351.433	0.685
360.623	0.684
369.812	0.702
379.002	0.733
388.192	0.755
397.381	0.751
406.571	0.745
415.761	0.763
424.95	0.769
434.14	0.762
443.33	0.744
452.52	0.757
461.709	0.768
470.899	0.76
480.089	0.744
489.278	0.749
498.468	0.761
507.658	0.75
516.848	0.686
526.037	0.722
535.227	0.753
544.417	0.751
553.606	0.741
562.796	0.725
571.986	0.702
581.176	0.67
590.365	0.626
599.555	0.57
608.745	0.49
617.934	0.532
627.124	0.517
636.314	0.448
645.503	0.57
654.693	0.512
663.883	0.674
673.073	0.636
682.262	0.744
691.452	0.778
700.642	0.797
709.831	0.801
719.021	0.802
728.211	0.794
737.401	0.75
746.59	0.783
755.78	0.79
764.97	0.728
774.159	0.694
783.349	0.806
792.539	0.82
801.729	0.813
810.918	0.747
820.108	0.532
829.298	0.525
838.487	0.809
847.677	0.826
856.867	0.806
866.056	0.775
875.246	0.822
884.436	0.831
893.626	0.831
902.815	0.822
912.005	0.8
921.195	0.802
930.384	0.803
939.574	0.756
948.764	0.757
957.954	0.781
967.143	0.778
976.333	0.748
985.523	0.69
994.712	0.609
1003.9	0.325
1013.09	0.589
1022.28	0.748
1031.47	0.744
1040.66	0.699
1049.85	0.728
1059.04	0.738
1068.23	0.682
1077.42	0.583
1086.61	0.68
1095.8	0.666
1104.99	0.588
1114.18	0.494
1123.37	0.308
1132.56	0.089
1141.75	0.216
1150.94	0.616
1160.13	0.71
1169.32	0.633
1178.51	0.532
1187.7	0.501
1196.89	0.623
1206.08	0.629
1215.27	0.556
1224.46	0.42
1233.64	0.145
1242.83	0.248
1252.02	0.401
1261.21	0.341
1270.4	0.342
1279.59	0.566
1288.78	0.63
1297.97	0.57
1307.16	0.496
1316.35	0.586
1325.54	0.66
1334.73	0.74
1343.92	0.726
1353.11	0.658
1362.3	0.685
1371.49	0.701
1380.68	0.742
1389.87	0.748
1399.06	0.645
1408.25	0.33
1417.44	0.214
1426.63	0.355
1435.82	0.392
1445.01	0.473
1454.2	0.357
1463.39	0.517
1472.58	0.574
1481.77	0.683
1490.96	0.603
1500.15	0.418
1509.34	0.13
1518.53	0.534
1527.72	0.59
1536.91	0.469
1546.09	0.296
1555.28	0.18
1564.47	0.19
1573.66	0.345
1582.85	0.522
1592.04	0.3
1601.23	0.186
1610.42	0.311
1619.61	0.329
1628.8	0.083
1637.99	0.22
1647.18	0.388
1656.37	0.509
1665.56	0.611
1674.75	0.679
1683.94	0.722
1693.13	0.752
1702.32	0.779
1711.51	0.804
1720.7	0.814
1729.89	0.823
1739.08	0.831
1748.27	0.837
1757.46	0.841
1766.65	0.844
1775.84	0.846
1785.03	0.849
1794.22	0.856
1803.41	0.858
1812.6	0.86
1821.79	0.861
1830.98	0.862
1840.17	0.862
1849.36	0.862
1858.55	0.863
1867.73	0.864
1876.92	0.865
1886.11	0.866
1895.3	0.866
1904.49	0.866
1913.68	0.865
1922.87	0.863
1932.06	0.862
1941.25	0.86
1950.44	0.863
1959.63	0.864
1968.82	0.857
1978.01	0.856
1987.2	0.862
1996.39	0.863
2005.58	0.865
2014.77	0.866
2023.96	0.868
2033.15	0.869
2042.34	0.869
2051.53	0.869
2060.72	0.867
2069.91	0.866
2079.1	0.865
2088.29	0.863
2097.48	0.861
2106.67	0.859
2115.86	0.862
2125.05	0.864
2134.24	0.864
2143.43	0.865
2152.62	0.866
2161.81	0.867
2171	0.868
2180.18	0.869
2189.37	0.868
2198.56	0.867
2207.75	0.866
2216.94	0.866
2226.13	0.865
2235.32	0.863
2244.51	0.861
2253.7	0.86
2262.89	0.86
2272.08	0.864
2281.27	0.865
2290.46	0.866
2299.65	0.865
2308.84	0.864
2318.03	0.864
2327.22	0.866
2336.41	0.866
2345.6	0.866
2354.79	0.866
2363.98	0.866
2373.17	0.866
2382.36	0.865
2391.55	0.865
2400.74	0.862
2409.93	0.861
2419.12	0.86
2428.31	0.86
2437.5	0.86
2446.69	0.86
2455.88	0.86
2465.07	0.861
2474.26	0.861
2483.45	0.861
2492.63	0.86
2501.82	0.859
2511.01	0.859
2520.2	0.858
2529.39	0.857
2538.58	0.856
2547.77	0.856
2556.96	0.854
2566.15	0.852
2575.34	0.849
2584.53	0.85
2593.72	0.85
2602.91	0.85
2612.1	0.85
2621.29	0.85
2630.48	0.85
2639.67	0.85
2648.86	0.851
2658.05	0.851
2667.24	0.851
2676.43	0.85
2685.62	0.849
2694.81	0.848
2704	0.846
2713.19	0.844
2722.38	0.843
2731.57	0.843
2740.76	0.841
2749.95	0.839
2759.14	0.836
2768.33	0.834
2777.52	0.825
2786.71	0.815
2795.9	0.806
2805.08	0.788
2814.27	0.738
2823.46	0.709
2832.65	0.744
2841.84	0.772
2851.03	0.769
2860.22	0.757
2869.41	0.749
2878.6	0.738
2887.79	0.728
2896.98	0.717
2906.17	0.699
2915.36	0.667
2924.55	0.597
2933.74	0.548
2942.93	0.656
2952.12	0.697
2961.31	0.604
2970.5	0.623
2979.69	0.682
2988.88	0.634
2998.07	0.621
3007.26	0.697
3016.45	0.748
3025.64	0.763
3034.83	0.769
3044.02	0.774
3053.21	0.779
3062.4	0.791
3071.59	0.791
3080.78	0.772
3089.97	0.763
3099.16	0.749
3108.35	0.758
3117.54	0.766
3126.72	0.764
3135.91	0.763
3145.1	0.757
3154.29	0.747
3163.48	0.735
3172.67	0.726
3181.86	0.721
3191.05	0.718
3200.24	0.714
3209.43	0.711
3218.62	0.704
3227.81	0.692
3237	0.673
3246.19	0.641
3255.38	0.607
3264.57	0.571
3273.76	0.531
3282.95	0.487
3292.14	0.44
3301.33	0.398
3310.52	0.383
3319.71	0.4
3328.9	0.406
3338.09	0.399
3347.28	0.381
3356.47	0.38
3365.66	0.399
3374.85	0.472
3384.04	0.527
3393.23	0.589
3402.42	0.662
3411.61	0.685
3420.8	0.705
3429.99	0.722
3439.17	0.732
3448.36	0.741
3457.55	0.746
3466.74	0.751
3475.93	0.756
3485.12	0.76
3494.31	0.764
3503.5	0.768
3512.69	0.773
3521.88	0.78
3531.07	0.787
3540.26	0.792
3549.45	0.798
3558.64	0.803
3567.83	0.806
3577.02	0.811
3586.21	0.816
3595.4	0.825
3604.59	0.83
3613.78	0.835
3622.97	0.838
3632.16	0.842
3641.35	0.846
3650.54	0.847
3659.73	0.849
3668.92	0.849
3678.11	0.849
3687.3	0.853
3696.49	0.856
3705.68	0.856
3714.87	0.855
3724.06	0.853
3733.25	0.85
3742.44	0.849
3751.62	0.849
3760.81	0.853
3770	0.857
3779.19	0.859
3788.38	0.858
3797.57	0.856
