Infrared Spectrum: Urea, 1-(2-chloroethyl)-1-nitroso-3-(p-tolylsulfonyl)-
Formula: C10 H12 Cl N3 O4 S
CAS: 33024-34-9
State: SOLID (1 mg / 650 mg KBr DISC)
Class: COBLENTZ III
Instrument: PERKIN-ELMER 521 (GRATING)
Instrument parameters: FILTERS AT 3150, 2500, 2000, 1150, 700, 410. GRATING CHANGES: 2000, 630
Sampling: TRANSMISSION
Resolution: 2
Origin: SOUTHERN RESEARCH INSTITUTE
1/CM	TRANSMITTANCE
249.45	0.331
259.465	0.4316
269.48	0.4934
279.494	0.5429
289.509	0.6088
299.524	0.6563
309.539	0.6759
319.553	0.6932
329.568	0.7086
339.583	0.7173
349.598	0.7422
359.613	0.6846
369.627	0.7409
379.642	0.7953
389.657	0.8096
399.672	0.8137
409.686	0.8217
419.701	0.8237
429.716	0.8189
439.731	0.8222
449.746	0.8251
459.76	0.8223
469.775	0.8144
479.79	0.787
489.805	0.8124
499.82	0.7886
509.834	0.7065
519.849	0.7774
529.864	0.7625
539.879	0.5647
549.893	0.4532
559.908	0.6324
569.923	0.42
579.938	0.4644
589.953	0.7728
599.967	0.7804
609.982	0.7602
619.997	0.7065
630.012	0.7247
640.026	0.7455
650.041	0.6611
660.056	0.6479
670.071	0.4212
680.086	0.6565
690.1	0.7943
700.115	0.7094
710.13	0.8178
720.145	0.8173
730.159	0.8068
740.174	0.7564
750.189	0.6259
760.204	0.381
770.219	0.8228
780.233	0.8263
790.248	0.8091
800.263	0.6959
810.278	0.4942
820.292	0.688
830.307	0.7592
840.322	0.8056
850.337	0.795
860.352	0.7434
870.366	0.595
880.381	0.5149
890.396	0.5228
900.411	0.3376
910.425	0.7535
920.44	0.7957
930.455	0.7918
940.47	0.7492
950.485	0.6769
960.499	0.7552
970.514	0.7054
980.529	0.5095
990.544	0.3078
1000.56	0.7018
1010.57	0.7788
1020.59	0.7799
1030.6	0.7743
1040.62	0.7454
1050.63	0.7349
1060.65	0.6433
1070.66	0.5251
1080.68	0.3806
1090.69	0.5474
1100.71	0.7155
1110.72	0.7416
1120.74	0.7688
1130.75	0.753
1140.77	0.7114
1150.78	0.5862
1160.8	0.357
1170.81	0.2188
1180.82	0.6066
1190.84	0.694
1200.85	0.7695
1210.87	0.7436
1220.88	0.7555
1230.9	0.7755
1240.91	0.7726
1250.93	0.7575
1260.94	0.6561
1270.96	0.7325
1280.97	0.7385
1290.99	0.6629
1301	0.6223
1311.02	0.6078
1321.03	0.7093
1331.05	0.7168
1341.06	0.6204
1351.08	0.4122
1361.09	0.4288
1371.11	0.6025
1381.12	0.6148
1391.13	0.5413
1401.15	0.4793
1411.16	0.3257
1421.18	0.3189
1431.19	0.1652
1441.21	0.2735
1451.22	0.4366
1461.24	0.6121
1471.25	0.6594
1481.27	0.7185
1491.28	0.6582
1501.3	0.6039
1511.31	0.681
1521.33	0.7094
1531.34	0.2382
1541.36	0.5794
1551.37	0.731
1561.39	0.7895
1571.4	0.8027
1581.42	0.7983
1591.43	0.6591
1601.45	0.7523
1611.46	0.8006
1621.47	0.8021
1631.49	0.8028
1641.5	0.8049
1651.52	0.8221
1661.53	0.8288
1671.55	0.8286
1681.56	0.8258
1691.58	0.812
1701.59	0.808
1711.61	0.7767
1721.62	0.6454
1731.64	0.4025
1741.65	0.3969
1751.67	0.6673
1761.68	0.7714
1771.7	0.8159
1781.71	0.832
1791.73	0.8384
1801.74	0.8493
1811.76	0.859
1821.77	0.8603
1831.79	0.8657
1841.8	0.8662
1851.81	0.8649
1861.83	0.8645
1871.84	0.8653
1881.86	0.8663
1891.87	0.8662
1901.89	0.8636
1911.9	0.8461
1921.92	0.8592
1931.93	0.87
1941.95	0.869
1951.96	0.8686
1961.98	0.8687
1971.99	0.8686
1982.01	0.8695
1992.02	0.8679
2002.04	0.8634
2012.05	0.8619
2022.07	0.8631
2032.08	0.8647
2042.1	0.8655
2052.11	0.8664
2062.13	0.8668
2072.14	0.867
2082.15	0.8668
2092.17	0.8666
2102.18	0.8674
2112.2	0.8683
2122.21	0.8689
2132.23	0.8693
2142.24	0.8697
2152.26	0.8702
2162.27	0.8701
2172.29	0.8688
2182.3	0.8676
2192.32	0.8664
2202.33	0.8659
2212.35	0.8659
2222.36	0.8653
2232.38	0.8641
2242.39	0.8634
2252.41	0.8625
2262.42	0.8601
2272.44	0.8582
2282.45	0.8569
2292.47	0.8562
2302.48	0.8559
2312.49	0.8545
2322.51	0.8516
2332.52	0.8411
2342.54	0.8453
2352.55	0.8573
2362.57	0.8597
2372.58	0.8606
2382.6	0.861
2392.61	0.8607
2402.63	0.8601
2412.64	0.8594
2422.66	0.859
2432.67	0.8586
2442.69	0.8583
2452.7	0.8572
2462.72	0.8526
2472.73	0.8627
2482.75	0.8523
2492.76	0.852
2502.78	0.8523
2512.79	0.8534
2522.81	0.8544
2532.82	0.8549
2542.83	0.8549
2552.85	0.8548
2562.86	0.8543
2572.88	0.8539
2582.89	0.8535
2592.91	0.8532
2602.92	0.853
2612.94	0.8527
2622.95	0.8525
2632.97	0.8523
2642.98	0.8521
2653	0.852
2663.01	0.8513
2673.03	0.85
2683.04	0.8484
2693.06	0.8467
2703.07	0.8454
2713.09	0.8447
2723.1	0.8439
2733.12	0.8429
2743.13	0.842
2753.15	0.8416
2763.16	0.8411
2773.17	0.8407
2783.19	0.8402
2793.2	0.8398
2803.22	0.8393
2813.23	0.8385
2823.25	0.8368
2833.26	0.8328
2843.28	0.8278
2853.29	0.8231
2863.31	0.8213
2873.32	0.8225
2883.34	0.8251
2893.35	0.8266
2903.37	0.8226
2913.38	0.8164
2923.4	0.8064
2933.41	0.806
2943.43	0.823
2953.44	0.8159
2963.46	0.8161
2973.47	0.815
2983.49	0.8102
2993.5	0.7982
3003.51	0.8115
3013.53	0.8108
3023.54	0.7953
3033.56	0.7989
3043.57	0.7988
3053.59	0.8038
3063.6	0.803
3073.62	0.7949
3083.63	0.807
3093.65	0.8018
3103.66	0.7978
3113.68	0.7939
3123.69	0.7852
3133.71	0.7798
3143.72	0.7752
3153.74	0.7533
3163.75	0.737
3173.77	0.7195
3183.78	0.6986
3193.8	0.6711
3203.81	0.6473
3213.82	0.6119
3223.84	0.5251
3233.85	0.3923
3243.87	0.3324
3253.88	0.4854
3263.9	0.5831
3273.91	0.6322
3283.93	0.7055
3293.94	0.7367
3303.96	0.7574
3313.97	0.7721
3323.99	0.7824
3334	0.7869
3344.02	0.7912
3354.03	0.794
3364.05	0.7942
3374.06	0.7912
3384.08	0.7882
3394.09	0.7847
3404.11	0.7811
3414.12	0.7788
3424.14	0.7769
3434.15	0.7762
3444.16	0.7763
3454.18	0.7728
3464.19	0.7668
3474.21	0.7812
3484.22	0.7933
3494.24	0.7957
3504.25	0.7963
3514.27	0.7984
3524.28	0.8077
3534.3	0.8104
3544.31	0.8123
3554.33	0.8122
3564.34	0.8232
3574.36	0.8265
3584.37	0.8285
3594.39	0.8312
3604.4	0.8355
3614.42	0.8389
3624.43	0.8413
3634.45	0.8425
3644.46	0.8446
3654.48	0.8464
3664.49	0.8478
3674.5	0.8489
3684.52	0.8501
3694.53	0.8508
3704.55	0.8514
3714.56	0.8514
3724.58	0.8513
3734.59	0.8511
3744.61	0.8507
3754.62	0.8503
3764.64	0.8501
3774.65	0.8502
3784.67	0.8504
3794.68	0.8507
3804.7	0.8511
3814.71	0.8515
3824.73	0.8517
3834.74	0.8518
3844.76	0.8511
3854.77	0.8504
3864.79	0.8497
3874.8	0.8478
3884.82	0.8461
3894.83	0.8453
3904.84	0.8458
3914.86	0.8458
3924.87	0.845
3934.89	0.8441
3944.9	0.8438
3954.92	0.8456
3964.93	0.8465
3974.95	0.8437
3984.96	0.8431
3994.98	0.8464
4004.99	0.8464
