Infrared Spectrum: UREA, 1-(2-FLUOROETHYL)-3-NITRO-
Formula: C3 H6 F N3 O3
CAS: 33021-92-0
State: SOLID (1 mg / 650 mg KBr DISC)
Class: COBLENTZ III
Instrument: PERKIN-ELMER 521 (GRATING)
Sampling: TRANSMISSION
Resolution: 4
Origin: SOUTHERN RESEARCH INSTITUTE
1/CM	TRANSMITTANCE
266.285	0.383
276.848	0.416
287.412	0.437
297.975	0.5679
308.539	0.647
319.102	0.67
329.665	0.701
340.229	0.7
350.792	0.66
361.356	0.6219
371.919	0.829
382.483	0.838
393.046	0.831
403.609	0.797
414.173	0.692
424.736	0.792
435.3	0.86
445.863	0.8191
456.426	0.8479
466.99	0.906
477.553	0.905
488.117	0.894
498.68	0.884
509.243	0.856
519.807	0.797
530.37	0.852
540.934	0.833
551.497	0.808
562.06	0.777
572.624	0.75
583.187	0.716
593.751	0.642
604.314	0.603
614.878	0.551
625.441	0.482
636.004	0.466
646.568	0.5509
657.131	0.6879
667.695	0.742
678.258	0.768
688.821	0.781
699.385	0.768
709.948	0.716
720.512	0.533
731.075	0.517
741.638	0.676
752.202	0.5871
762.765	0.546
773.329	0.651
783.892	0.742
794.455	0.742
805.019	0.742
815.582	0.731
826.146	0.6041
836.709	0.762
847.273	0.781
857.836	0.785
868.399	0.781
878.963	0.729
889.526	0.755
900.09	0.789
910.653	0.795
921.216	0.792
931.78	0.784
942.343	0.76
952.907	0.729
963.47	0.657
974.033	0.672
984.597	0.687
995.16	0.668
1005.72	0.597
1016.29	0.4781
1026.85	0.2502
1037.41	0.3849
1047.98	0.45
1058.54	0.724
1069.1	0.819
1079.67	0.817
1090.23	0.784
1100.79	0.701
1111.36	0.691
1121.92	0.6541
1132.48	0.716
1143.05	0.688
1153.61	0.637
1164.17	0.578
1174.74	0.4951
1185.3	0.382
1195.87	0.229
1206.43	0.268
1216.99	0.429
1227.56	0.558
1238.12	0.4481
1248.68	0.467
1259.25	0.458
1269.81	0.335
1280.37	0.5028
1290.94	0.6289
1301.5	0.659
1312.06	0.607
1322.63	0.463
1333.19	0.32
1343.75	0.379
1354.32	0.392
1364.88	0.597
1375.44	0.596
1386.01	0.5091
1396.57	0.492
1407.13	0.436
1417.7	0.442
1428.26	0.645
1438.82	0.705
1449.39	0.601
1459.95	0.649
1470.51	0.639
1481.08	0.607
1491.64	0.571
1502.2	0.559
1512.77	0.488
1523.33	0.37
1533.89	0.247
1544.46	0.2679
1555.02	0.459
1565.58	0.567
1576.15	0.555
1586.71	0.403
1597.27	0.2581
1607.84	0.266
1618.4	0.406
1628.96	0.477
1639.53	0.49
1650.09	0.461
1660.66	0.434
1671.22	0.354
1681.78	0.203
1692.35	0.227
1702.91	0.256
1713.47	0.296
1724.04	0.358
1734.6	0.49
1745.16	0.571
1755.73	0.641
1766.29	0.671
1776.85	0.7
1787.42	0.721
1797.98	0.742
1808.54	0.759
1819.11	0.773
1829.67	0.788
1840.23	0.798
1850.8	0.808
1861.36	0.816
1871.92	0.829
1882.49	0.835
1893.05	0.842
1903.61	0.846
1914.18	0.848
1924.74	0.858
1935.3	0.862
1945.87	0.862
1956.43	0.863
1966.99	0.869
1977.56	0.871
1988.12	0.869
1998.68	0.867
2009.25	0.864
2019.81	0.868
2030.37	0.869
2040.94	0.869
2051.5	0.869
2062.06	0.871
2072.63	0.875
2083.19	0.877
2093.75	0.8799
2104.32	0.8809
2114.88	0.883
2125.45	0.884
2136.01	0.884
2146.57	0.8849
2157.14	0.885
2167.7	0.885
2178.26	0.885
2188.83	0.886
2199.39	0.888
2209.95	0.888
2220.52	0.8851
2231.08	0.8832
2241.64	0.8802
2252.21	0.88
2262.77	0.881
2273.33	0.883
2283.9	0.883
2294.46	0.8762
2305.02	0.867
2315.59	0.863
2326.15	0.86
2336.71	0.86
2347.28	0.8582
2357.84	0.852
2368.4	0.852
2378.97	0.8517
2389.53	0.852
2400.09	0.8503
2410.66	0.846
2421.22	0.8383
2431.78	0.835
2442.35	0.831
2452.91	0.826
2463.47	0.823
2474.04	0.8173
2484.6	0.817
2495.16	0.816
2505.73	0.8093
2516.29	0.802
2526.85	0.7954
2537.42	0.788
2547.98	0.784
2558.54	0.781
2569.11	0.7738
2579.67	0.768
2590.24	0.767
2600.8	0.7634
2611.36	0.7554
2621.93	0.7494
2632.49	0.7414
2643.05	0.7304
2653.62	0.7214
2664.18	0.7134
2674.74	0.7034
2685.31	0.6979
2695.87	0.6824
2706.43	0.668
2717	0.6519
2727.56	0.629
2738.12	0.6105
2748.69	0.5815
2759.25	0.554
2769.81	0.543
2780.38	0.5365
2790.94	0.5311
2801.5	0.5429
2812.07	0.5723
2822.63	0.6
2833.19	0.5941
2843.76	0.5876
2854.32	0.578
2864.88	0.5653
2875.45	0.5527
2886.01	0.5335
2896.57	0.515
2907.14	0.4996
2917.7	0.4832
2928.26	0.4706
2938.83	0.463
2949.39	0.4543
2959.95	0.4467
2970.52	0.4544
2981.08	0.488
2991.64	0.5113
3002.21	0.5243
3012.77	0.512
3023.34	0.519
3033.9	0.501
3044.46	0.4861
3055.03	0.48
3065.59	0.484
3076.15	0.4943
3086.72	0.5203
3097.28	0.541
3107.84	0.536
3118.41	0.529
3128.97	0.5305
3139.53	0.545
3150.1	0.5627
3160.66	0.5776
3171.22	0.6002
3181.79	0.617
3192.35	0.6346
3202.91	0.6434
3213.48	0.6458
3224.04	0.651
3234.6	0.6604
3245.17	0.6755
3255.73	0.691
3266.29	0.697
3276.86	0.7
3287.42	0.7
3297.98	0.699
3308.55	0.697
3319.11	0.696
3329.67	0.6879
3340.24	0.6707
3350.8	0.6353
3361.36	0.5651
3371.93	0.4056
3382.49	0.282
3393.05	0.4287
3403.62	0.5083
3414.18	0.5581
3424.74	0.5961
3435.31	0.6301
3445.87	0.6431
3456.43	0.658
3467	0.67
3477.56	0.681
3488.13	0.688
3498.69	0.696
3509.25	0.705
3519.82	0.714
3530.38	0.7239
3540.94	0.73
3551.51	0.743
3562.07	0.751
3572.63	0.7579
3583.2	0.7599
3593.76	0.762
3604.32	0.7729
3614.89	0.7889
3625.45	0.7959
3636.01	0.7998
3646.58	0.801
3657.14	0.801
3667.7	0.7971
3678.27	0.8038
3688.83	0.8089
3699.39	0.81
3709.96	0.812
3720.52	0.809
3731.08	0.808
3741.65	0.809
3752.21	0.812
3762.77	0.812
3773.34	0.812
3783.9	0.812
3794.46	0.809
3805.03	0.81
3815.59	0.809
3826.15	0.8082
3836.72	0.8083
3847.28	0.805
3857.84	0.806
3868.41	0.805
3878.97	0.8048
3889.53	0.805
3900.1	0.8035
3910.66	0.805
3921.22	0.804
3931.79	0.804
3942.35	0.805
3952.92	0.805
3963.48	0.802
3974.04	0.8013
3984.61	0.802
3995.17	0.8
