Infrared Spectrum: UREA, 1-(2-CHLOROETHYL)-3-(3,5,7-TRIMETHYL-1-ADAMANTYL)-
Formula: C16 H27 Cl N2 O
CAS: 33021-59-9
State: SOLID (1 mg / 650 mg KBr DISC)
Class: COBLENTZ III
Instrument: PERKIN-ELMER 521 (GRATING)
Instrument parameters: FILTER CHANGE AT 3130, 2500, 2000,1150, 700, 410 CM^-^1, GRATING CHANGES AT 2000, 630 CM^-^1
Sampling: TRANSMISSION
Resolution: 4
Origin: SOUTHERN RESEARCH INST.
1/CM	TRANSMITTANCE
246.028	0.284
255.263	0.333
264.499	0.422
273.734	0.476
282.969	0.518
292.205	0.574
301.44	0.605
310.676	0.633
319.911	0.659
329.146	0.679
338.382	0.707
347.617	0.736
356.852	0.752
366.088	0.764
375.323	0.784
384.558	0.817
393.794	0.819
403.029	0.819
412.265	0.809
421.5	0.844
430.735	0.839
439.971	0.832
449.206	0.832
458.441	0.841
467.677	0.813
476.912	0.808
486.147	0.835
495.383	0.852
504.618	0.856
513.853	0.857
523.089	0.854
532.324	0.85
541.56	0.847
550.795	0.847
560.03	0.847
569.266	0.845
578.501	0.839
587.736	0.831
596.972	0.81
606.207	0.781
615.442	0.752
624.678	0.702
633.913	0.642
643.149	0.691
652.384	0.695
661.619	0.742
670.855	0.774
680.09	0.787
689.325	0.816
698.561	0.837
707.796	0.854
717.031	0.851
726.267	0.846
735.502	0.837
744.738	0.819
753.973	0.834
763.208	0.848
772.444	0.827
781.679	0.876
790.914	0.902
800.15	0.876
809.385	0.897
818.62	0.913
827.856	0.916
837.091	0.914
846.327	0.903
855.562	0.903
864.797	0.893
874.033	0.902
883.268	0.904
892.503	0.906
901.739	0.899
910.974	0.867
920.209	0.845
929.445	0.876
938.68	0.863
947.916	0.874
957.151	0.863
966.386	0.841
975.622	0.863
984.857	0.866
994.092	0.847
1003.33	0.849
1012.56	0.865
1021.8	0.86
1031.03	0.842
1040.27	0.816
1049.5	0.807
1058.74	0.832
1067.98	0.832
1077.21	0.809
1086.45	0.823
1095.68	0.833
1104.92	0.837
1114.15	0.841
1123.39	0.854
1132.62	0.862
1141.86	0.862
1151.09	0.847
1160.33	0.819
1169.56	0.812
1178.8	0.808
1188.03	0.769
1197.27	0.768
1206.51	0.747
1215.74	0.597
1224.98	0.596
1234.21	0.565
1243.45	0.616
1252.68	0.533
1261.92	0.551
1271.15	0.488
1280.39	0.615
1289.62	0.701
1298.86	0.552
1308.09	0.729
1317.33	0.653
1326.57	0.659
1335.8	0.768
1345.04	0.642
1354.27	0.525
1363.51	0.725
1372.74	0.695
1381.98	0.776
1391.21	0.852
1400.45	0.854
1409.68	0.851
1418.92	0.833
1428.15	0.766
1437.39	0.677
1446.63	0.601
1455.86	0.438
1465.1	0.626
1474.33	0.788
1483.57	0.793
1492.8	0.762
1502.04	0.715
1511.27	0.667
1520.51	0.611
1529.74	0.54
1538.98	0.524
1548.21	0.415
1557.45	0.258
1566.68	0.14
1575.92	0.239
1585.16	0.421
1594.39	0.57
1603.63	0.615
1612.86	0.54
1622.1	0.339
1631.33	0.11
1640.57	0.234
1649.8	0.393
1659.04	0.511
1668.27	0.591
1677.51	0.599
1686.74	0.593
1695.98	0.645
1705.22	0.743
1714.45	0.808
1723.69	0.845
1732.92	0.864
1742.16	0.872
1751.39	0.88
1760.63	0.889
1769.86	0.891
1779.1	0.894
1788.33	0.897
1797.57	0.901
1806.8	0.906
1816.04	0.912
1825.27	0.914
1834.51	0.916
1843.75	0.918
1852.98	0.917
1862.22	0.917
1871.45	0.919
1880.69	0.92
1889.92	0.921
1899.16	0.921
1908.39	0.922
1917.63	0.922
1926.86	0.924
1936.1	0.925
1945.33	0.925
1954.57	0.925
1963.81	0.925
1973.04	0.925
1982.28	0.925
1991.51	0.92
2000.75	0.919
2009.98	0.919
2019.22	0.919
2028.45	0.919
2037.69	0.919
2046.92	0.919
2056.16	0.919
2065.39	0.919
2074.63	0.919
2083.87	0.919
2093.1	0.919
2102.34	0.919
2111.57	0.919
2120.81	0.919
2130.04	0.918
2139.28	0.918
2148.51	0.917
2157.75	0.917
2166.98	0.916
2176.22	0.916
2185.45	0.916
2194.69	0.916
2203.92	0.916
2213.16	0.916
2222.4	0.916
2231.63	0.916
2240.87	0.916
2250.1	0.916
2259.34	0.916
2268.57	0.916
2277.81	0.916
2287.04	0.915
2296.28	0.915
2305.51	0.915
2314.75	0.915
2323.98	0.915
2333.22	0.915
2342.46	0.914
2351.69	0.914
2360.93	0.914
2370.16	0.914
2379.4	0.914
2388.63	0.914
2397.87	0.913
2407.1	0.913
2416.34	0.913
2425.57	0.912
2434.81	0.911
2444.04	0.911
2453.28	0.91
2462.51	0.91
2471.75	0.909
2480.99	0.909
2490.22	0.909
2499.46	0.908
2508.69	0.907
2517.93	0.905
2527.16	0.903
2536.4	0.9
2545.63	0.898
2554.87	0.898
2564.1	0.897
2573.34	0.895
2582.57	0.894
2591.81	0.893
2601.05	0.892
2610.28	0.892
2619.52	0.892
2628.75	0.892
2637.99	0.891
2647.22	0.891
2656.46	0.888
2665.69	0.879
2674.93	0.875
2684.16	0.869
2693.4	0.86
2702.63	0.859
2711.87	0.865
2721.1	0.867
2730.34	0.868
2739.58	0.869
2748.81	0.867
2758.05	0.859
2767.28	0.85
2776.52	0.838
2785.75	0.827
2794.99	0.814
2804.22	0.803
2813.46	0.761
2822.69	0.654
2831.93	0.351
2841.16	0.527
2850.4	0.458
2859.64	0.432
2868.87	0.515
2878.11	0.379
2887.34	0.289
2896.58	0.27
2905.81	0.37
2915.05	0.35
2924.28	0.416
2933.52	0.401
2942.75	0.234
2951.99	0.386
2961.22	0.616
2970.46	0.702
2979.7	0.758
2988.93	0.772
2998.17	0.776
3007.4	0.781
3016.64	0.782
3025.87	0.78
3035.11	0.779
3044.34	0.778
3053.58	0.779
3062.81	0.786
3072.05	0.793
3081.28	0.798
3090.52	0.793
3099.75	0.777
3108.99	0.758
3118.23	0.765
3127.46	0.777
3136.7	0.795
3145.93	0.783
3155.17	0.778
3164.4	0.773
3173.64	0.766
3182.87	0.762
3192.11	0.758
3201.34	0.757
3210.58	0.754
3219.81	0.748
3229.05	0.738
3238.29	0.724
3247.52	0.704
3256.76	0.678
3265.99	0.645
3275.23	0.602
3284.46	0.55
3293.7	0.487
3302.93	0.423
3312.17	0.426
3321.4	0.435
3330.64	0.461
3339.87	0.468
3349.11	0.455
3358.34	0.448
3367.58	0.456
3376.82	0.477
3386.05	0.553
3395.29	0.614
3404.52	0.663
3413.76	0.698
3422.99	0.717
3432.23	0.732
3441.46	0.745
3450.7	0.755
3459.93	0.763
3469.17	0.767
3478.4	0.772
3487.64	0.775
3496.88	0.777
3506.11	0.783
3515.35	0.788
3524.58	0.792
3533.82	0.797
3543.05	0.805
3552.29	0.808
3561.52	0.81
3570.76	0.815
3579.99	0.821
3589.23	0.825
3598.46	0.829
3607.7	0.832
3616.94	0.837
3626.17	0.841
3635.41	0.847
3644.64	0.848
3653.88	0.848
3663.11	0.848
3672.35	0.848
3681.58	0.848
3690.82	0.853
3700.05	0.855
3709.29	0.855
3718.52	0.855
3727.76	0.853
3736.99	0.85
3746.23	0.847
3755.47	0.85
3764.7	0.852
3773.94	0.853
3783.17	0.854
3792.41	0.854
3801.64	0.85
