Infrared Spectrum: UREA, N-(2-CHLOROETHYL)-N-NITROSO-N'-(5-NITROTHIAZOL-2-YL)-
Formula: C6 H6 Cl N5 O4 S
CAS: 33024-33-8
State: SOLID (1 mg / 650 mg KBr DISC)
Class: COBLENTZ III
Instrument: PERKIN-ELMER 521 (GRATING)
Sampling: TRANSMISSION
Resolution: 4
Origin: SOUTHERN RESEARCH INSTITUTE
1/CM	TRANSMITTANCE
266.285	0.489
276.848	0.556
287.412	0.603
297.975	0.654
308.539	0.646
319.102	0.667
329.665	0.686
340.229	0.7749
350.792	0.797
361.356	0.787
371.919	0.742
382.483	0.7
393.046	0.817
403.609	0.839
414.173	0.788
424.736	0.824
435.3	0.863
445.863	0.871
456.426	0.876
466.99	0.871
477.553	0.854
488.117	0.7571
498.68	0.792
509.243	0.83
519.807	0.832
530.37	0.824
540.934	0.884
551.497	0.881
562.06	0.877
572.624	0.87
583.187	0.866
593.751	0.838
604.314	0.834
614.878	0.816
625.441	0.797
636.004	0.784
646.568	0.7331
657.131	0.652
667.695	0.745
678.258	0.799
688.821	0.775
699.385	0.728
709.948	0.6501
720.512	0.4791
731.075	0.5619
741.638	0.833
752.202	0.7291
762.765	0.6749
773.329	0.6781
783.892	0.573
794.455	0.824
805.019	0.7631
815.582	0.6781
826.146	0.766
836.709	0.602
847.273	0.671
857.836	0.851
868.399	0.835
878.963	0.788
889.526	0.675
900.09	0.602
910.653	0.6408
921.216	0.791
931.78	0.727
942.343	0.549
952.907	0.418
963.47	0.6868
974.033	0.753
984.597	0.729
995.16	0.625
1005.72	0.568
1016.29	0.7959
1026.85	0.808
1037.41	0.772
1047.98	0.683
1058.54	0.515
1069.1	0.3091
1079.67	0.2569
1090.23	0.3809
1100.79	0.623
1111.36	0.686
1121.92	0.629
1132.48	0.803
1143.05	0.772
1153.61	0.62
1164.17	0.181
1174.74	0.5906
1185.3	0.742
1195.87	0.725
1206.43	0.556
1216.99	0.615
1227.56	0.704
1238.12	0.704
1248.68	0.688
1259.25	0.561
1269.81	0.607
1280.37	0.545
1290.94	0.2901
1301.5	0.257
1312.06	0.23
1322.63	0.3389
1333.19	0.162
1343.75	0.183
1354.32	0.3678
1364.88	0.635
1375.44	0.704
1386.01	0.753
1396.57	0.707
1407.13	0.557
1417.7	0.631
1428.26	0.535
1438.82	0.484
1449.39	0.549
1459.95	0.414
1470.51	0.267
1481.08	0.093
1491.64	0.101
1502.2	0.129
1512.77	0.25
1523.33	0.292
1533.89	0.139
1544.46	0.152
1555.02	0.4419
1565.58	0.653
1576.15	0.715
1586.71	0.754
1597.27	0.787
1607.84	0.778
1618.4	0.767
1628.96	0.784
1639.53	0.793
1650.09	0.825
1660.66	0.863
1671.22	0.856
1681.78	0.809
1692.35	0.657
1702.91	0.3843
1713.47	0.2659
1724.04	0.666
1734.6	0.838
1745.16	0.888
1755.73	0.913
1766.29	0.916
1776.85	0.918
1787.42	0.939
1797.98	0.955
1808.54	0.959
1819.11	0.961
1829.67	0.963
1840.23	0.963
1850.8	0.963
1861.36	0.964
1871.92	0.964
1882.49	0.964
1893.05	0.964
1903.61	0.963
1914.18	0.961
1924.74	0.961
1935.3	0.961
1945.87	0.96
1956.43	0.96
1966.99	0.959
1977.56	0.96
1988.12	0.958
1998.68	0.958
2009.25	0.955
2019.81	0.954
2030.37	0.952
2040.94	0.951
2051.5	0.95
2062.06	0.9483
2072.63	0.948
2083.19	0.948
2093.75	0.947
2104.32	0.947
2114.88	0.947
2125.45	0.9463
2136.01	0.9467
2146.57	0.94
2157.14	0.94
2167.7	0.9413
2178.26	0.94
2188.83	0.94
2199.39	0.939
2209.95	0.939
2220.52	0.938
2231.08	0.937
2241.64	0.935
2252.21	0.934
2262.77	0.934
2273.33	0.933
2283.9	0.929
2294.46	0.925
2305.02	0.922
2315.59	0.919
2326.15	0.917
2336.71	0.916
2347.28	0.918
2357.84	0.918
2368.4	0.917
2378.97	0.917
2389.53	0.914
2400.09	0.914
2410.66	0.9138
2421.22	0.91
2431.78	0.9117
2442.35	0.902
2452.91	0.898
2463.47	0.887
2474.04	0.8831
2484.6	0.8891
2495.16	0.891
2505.73	0.887
2516.29	0.885
2526.85	0.884
2537.42	0.8812
2547.98	0.8791
2558.54	0.877
2569.11	0.875
2579.67	0.872
2590.24	0.8712
2600.8	0.8672
2611.36	0.862
2621.93	0.8672
2632.49	0.868
2643.05	0.8623
2653.62	0.86
2664.18	0.859
2674.74	0.858
2685.31	0.855
2695.87	0.851
2706.43	0.845
2717	0.8399
2727.56	0.8345
2738.12	0.83
2748.69	0.825
2759.25	0.8175
2769.81	0.8056
2780.38	0.793
2790.94	0.7876
2801.5	0.7796
2812.07	0.7716
2822.63	0.77
2833.19	0.766
2843.76	0.763
2854.32	0.763
2864.88	0.7627
2875.45	0.759
2886.01	0.7565
2896.57	0.7506
2907.14	0.7418
2917.7	0.734
2928.26	0.7279
2938.83	0.7026
2949.39	0.6856
2959.95	0.6649
2970.52	0.6671
2981.08	0.6689
2991.64	0.661
3002.21	0.656
3012.77	0.658
3023.34	0.664
3033.9	0.662
3044.46	0.664
3055.03	0.653
3065.59	0.646
3076.15	0.646
3086.72	0.644
3097.28	0.6184
3107.84	0.5887
3118.41	0.5298
3128.97	0.492
3139.53	0.515
3150.1	0.518
3160.66	0.5317
3171.22	0.5596
3181.79	0.5945
3192.35	0.6375
3202.91	0.6632
3213.48	0.6826
3224.04	0.6996
3234.6	0.7065
3245.17	0.718
3255.73	0.7285
3266.29	0.7455
3276.86	0.7584
3287.42	0.7673
3297.98	0.7704
3308.55	0.7682
3319.11	0.759
3329.67	0.7503
3340.24	0.7337
3350.8	0.7164
3361.36	0.7027
3371.93	0.6805
3382.49	0.6618
3393.05	0.6488
3403.62	0.6318
3414.18	0.6293
3424.74	0.6322
3435.31	0.6373
3445.87	0.6451
3456.43	0.6542
3467	0.661
3477.56	0.6671
3488.13	0.674
3498.69	0.685
3509.25	0.692
3519.82	0.7079
3530.38	0.7199
3540.94	0.734
3551.51	0.7509
3562.07	0.7619
3572.63	0.7789
3583.2	0.7908
3593.76	0.8038
3604.32	0.8178
3614.89	0.8338
3625.45	0.8427
3636.01	0.8525
3646.58	0.8547
3657.14	0.856
3667.7	0.853
3678.27	0.8556
3688.83	0.8652
3699.39	0.863
3709.96	0.8634
3720.52	0.8651
3731.08	0.871
3741.65	0.862
3752.21	0.862
3762.77	0.8625
3773.34	0.86
3783.9	0.862
3794.46	0.8596
3805.03	0.859
3815.59	0.856
3826.15	0.855
3836.72	0.855
3847.28	0.8537
3857.84	0.849
3868.41	0.853
3878.97	0.8538
3889.53	0.851
3900.1	0.8526
3910.66	0.849
3921.22	0.851
3931.79	0.8513
3942.35	0.8499
3952.92	0.851
3963.48	0.849
3974.04	0.847
3984.61	0.8452
3995.17	0.85
