Infrared Spectrum: Urea, 1-(2-chloroethyl)-1-nitro-3-(3,5,7-trimethyl-1-adamantyl)-
Formula: C16 H26 Cl N3 O2
CAS: 33021-99-7
State: SOLID (1 mg / 650 mg KBr DISC)
Class: COBLENTZ III
Instrument: PERKIN-ELMER 521 (GRATING)
Instrument parameters: FILTERS AT 3150, 2500, 2000, 1150, 700, 410. GRATING CHANGES: 2000, 630
Sampling: TRANSMISSION
Resolution: 2
Origin: SOUTHERN RESEARCH INSTITUTE
1/CM	TRANSMITTANCE
246	0.3172
255	0.3844
264	0.4528
273	0.5293
282	0.5937
291	0.6446
300	0.6987
309	0.7205
318	0.7387
327	0.7671
336	0.7767
345	0.7794
354	0.7723
363	0.7543
372	0.6145
381	0.8626
390	0.8876
399	0.8997
408	0.9038
417	0.8942
426	0.8317
435	0.9072
444	0.8736
453	0.8905
462	0.8442
471	0.8704
480	0.8792
489	0.8771
498	0.8082
507	0.7191
516	0.5837
525	0.6113
534	0.6394
543	0.7594
552	0.8776
561	0.9024
570	0.9179
579	0.9276
588	0.9312
597	0.9241
606	0.9178
615	0.8918
624	0.8116
633	0.5857
642	0.9325
651	0.9371
660	0.9441
669	0.9581
678	0.9649
687	0.9655
696	0.9548
705	0.9184
714	0.8134
723	0.7124
732	0.8954
741	0.7844
750	0.7524
759	0.6177
768	0.8951
777	0.86
786	0.6047
795	0.8199
804	0.8185
813	0.6452
822	0.7468
831	0.9009
840	0.9088
849	0.9043
858	0.915
867	0.8906
876	0.8408
885	0.8449
894	0.8483
903	0.8607
912	0.8354
921	0.8633
930	0.7891
939	0.4799
948	0.6202
957	0.3224
966	0.2757
975	0.6476
984	0.7861
993	0.7184
1002	0.8662
1011	0.8762
1020	0.861
1029	0.7762
1038	0.7349
1047	0.7946
1056	0.7017
1065	0.5386
1074	0.2877
1083	0.3014
1092	0.6476
1101	0.8106
1110	0.8369
1119	0.859
1128	0.8539
1137	0.8064
1146	0.6047
1155	0.3078
1164	0.5458
1173	0.7083
1182	0.7356
1191	0.8164
1200	0.7847
1209	0.6876
1218	0.7988
1227	0.748
1236	0.7507
1245	0.6567
1254	0.7207
1263	0.8403
1272	0.8004
1281	0.8016
1290	0.7467
1299	0.7167
1308	0.7231
1317	0.5708
1326	0.4182
1335	0.6357
1344	0.5605
1353	0.5113
1362	0.8169
1371	0.825
1380	0.898
1389	0.8952
1398	0.8515
1407	0.645
1416	0.6759
1425	0.7004
1434	0.486
1443	0.4794
1452	0.3699
1461	0.3561
1470	0.1603
1479	0.159
1488	0.382
1497	0.5526
1506	0.3181
1515	0.104
1524	0.3575
1533	0.6087
1542	0.7237
1551	0.7787
1560	0.8442
1569	0.8729
1578	0.8763
1587	0.875
1596	0.879
1605	0.877
1614	0.862
1623	0.8368
1632	0.8521
1641	0.8978
1650	0.9
1659	0.8941
1668	0.8738
1677	0.8437
1686	0.8005
1695	0.7395
1704	0.5505
1713	0.3213
1722	0.0905
1731	0.1312
1740	0.3572
1749	0.6718
1758	0.7479
1767	0.8328
1776	0.874
1785	0.8999
1794	0.9097
1803	0.9189
1812	0.9225
1821	0.9233
1830	0.926
1839	0.9324
1848	0.9413
1857	0.9491
1866	0.9562
1875	0.9586
1884	0.9599
1893	0.9609
1902	0.9613
1911	0.9616
1920	0.962
1929	0.9624
1938	0.9631
1947	0.9634
1956	0.9634
1965	0.9633
1974	0.9629
1983	0.9624
1992	0.9621
2001	0.9621
2010	0.9621
2019	0.9621
2028	0.9622
2037	0.9624
2046	0.9627
2055	0.9631
2064	0.9635
2073	0.9636
2082	0.9636
2091	0.9636
2100	0.9636
2109	0.9633
2118	0.9631
2127	0.9629
2136	0.9624
2145	0.9619
2154	0.9613
2163	0.9608
2172	0.9603
2181	0.9591
2190	0.9575
2199	0.9546
2208	0.9506
2217	0.9435
2226	0.9327
2235	0.9179
2244	0.9126
2253	0.9209
2262	0.9324
2271	0.9426
2280	0.9452
2289	0.9466
2298	0.9468
2307	0.9463
2316	0.9463
2325	0.9468
2334	0.9468
2343	0.9468
2352	0.9468
2361	0.9473
2370	0.95
2379	0.9477
2388	0.9467
2397	0.9457
2406	0.9446
2415	0.9441
2424	0.9437
2433	0.9443
2442	0.946
2451	0.9468
2460	0.946
2469	0.9443
2478	0.9434
2487	0.9437
2496	0.943
2505	0.9413
2514	0.939
2523	0.9362
2532	0.9339
2541	0.932
2550	0.9311
2559	0.9302
2568	0.9294
2577	0.9286
2586	0.9286
2595	0.9286
2604	0.9295
2613	0.9304
2622	0.9311
2631	0.9298
2640	0.9266
2649	0.9226
2658	0.9182
2667	0.9132
2676	0.9089
2685	0.9053
2694	0.9046
2703	0.9069
2712	0.9091
2721	0.9105
2730	0.911
2739	0.9102
2748	0.9076
2757	0.8998
2766	0.887
2775	0.8779
2784	0.8696
2793	0.8492
2802	0.833
2811	0.7703
2820	0.5946
2829	0.4711
2838	0.4945
2847	0.4786
2856	0.4276
2865	0.4787
2874	0.4062
2883	0.2933
2892	0.3094
2901	0.366
2910	0.3603
2919	0.3455
2928	0.368
2937	0.3116
2946	0.3391
2955	0.4655
2964	0.6435
2973	0.7227
2982	0.7867
2991	0.8164
3000	0.8298
3009	0.8394
3018	0.8401
3027	0.8558
3036	0.8679
3045	0.873
3054	0.8755
3063	0.8762
3072	0.8766
3081	0.8768
3090	0.8771
3099	0.8771
3108	0.8765
3117	0.8756
3126	0.8746
3135	0.8716
3144	0.8651
3153	0.8654
3162	0.8632
3171	0.8567
3180	0.8508
3189	0.8468
3198	0.8455
3207	0.8455
3216	0.8466
3225	0.848
3234	0.849
3243	0.8487
3252	0.8464
3261	0.844
3270	0.8409
3279	0.8368
3288	0.8326
3297	0.8277
3306	0.821
3315	0.813
3324	0.8049
3333	0.7964
3342	0.7883
3351	0.778
3360	0.7649
3369	0.7442
3378	0.716
3387	0.5804
3396	0.399
3405	0.6539
3414	0.7274
3423	0.752
3432	0.7603
3441	0.7609
3450	0.765
3459	0.7706
3468	0.7761
3477	0.7818
3486	0.7871
3495	0.7923
3504	0.7964
3513	0.7999
3522	0.8082
3531	0.8151
3540	0.8171
3549	0.8287
3558	0.8337
3567	0.8374
3576	0.8405
3585	0.8446
3594	0.8489
3603	0.8535
3612	0.8579
3621	0.8622
3630	0.8651
3639	0.8671
3648	0.8677
3657	0.8683
3666	0.8678
3675	0.8673
3684	0.8668
3693	0.8666
3702	0.8668
3711	0.8671
3720	0.8674
3729	0.8672
3738	0.8655
3747	0.8617
3756	0.8594
3765	0.8584
3774	0.858
3783	0.8574
3792	0.8571
