Infrared Spectrum: Dimethyl-4,5-imidazoledicarboxylate
Formula: C 7 H 8 N 2 O 4
CAS: 3304-70-9
State: gas
Origin: EPA-IR VAPOR PHASE LIBRARY
1/CM	ABSORBANCE
501.5	0.0004761
513.074	0.0003151
524.648	0.000425
536.222	0.0007507
547.796	0.001391
559.37	0.002871
570.944	0.004561
582.518	0.005741
594.092	0.004941
605.666	0.002891
617.24	0.001631
628.814	0.0010275
640.388	0.0011807
651.962	0.0010899
663.536	0.0008042
675.11	0.000517
686.684	0.0005021
698.258	0.0004375
709.832	0.0003526
721.406	0.0004106
732.98	0.0003941
744.554	0.0007392
756.128	0.001601
767.702	0.003031
779.276	0.003701
790.85	0.005231
802.423	0.003451
813.997	0.002691
825.571	0.002261
837.145	0.002761
848.719	0.001291
860.293	0.0005742
871.867	0.0005589
883.441	0.0004658
895.015	0.0005197
906.589	0.0005279
918.163	0.0008831
929.737	0.001341
941.311	0.001801
952.885	0.001621
964.459	0.001721
976.033	0.002781
987.607	0.002131
999.181	0.0008867
1010.76	0.0009153
1022.33	0.001371
1033.9	0.002201
1045.48	0.006071
1057.05	0.014091
1068.63	0.009971
1080.2	0.004341
1091.77	0.008471
1103.35	0.015011
1114.92	0.008911
1126.49	0.005641
1138.07	0.007401
1149.64	0.013581
1161.22	0.022051
1172.79	0.022821
1184.36	0.018471
1195.94	0.018471
1207.51	0.015141
1219.09	0.008031
1230.66	0.004461
1242.23	0.003751
1253.81	0.005431
1265.38	0.008951
1276.96	0.011911
1288.53	0.014901
1300.1	0.019541
1311.68	0.020431
1323.25	0.011181
1334.83	0.010321
1346.4	0.017751
1357.97	0.026031
1369.55	0.017511
1381.12	0.006521
1392.7	0.003191
1404.27	0.002691
1415.84	0.003341
1427.42	0.005161
1438.99	0.010331
1450.57	0.007441
1462.14	0.005901
1473.71	0.009681
1485.29	0.007771
1496.86	0.003031
1508.44	0.001691
1520.01	0.001491
1531.58	0.001711
1543.16	0.002441
1554.73	0.004301
1566.31	0.004831
1577.88	0.002461
1589.45	0.001411
1601.03	0.0011473
1612.6	0.0010224
1624.18	0.0010265
1635.75	0.001107
1647.32	0.001391
1658.9	0.002131
1670.47	0.003111
1682.05	0.003491
1693.62	0.004571
1705.19	0.008941
1716.77	0.019401
1728.34	0.029551
1739.92	0.020961
1751.49	0.020241
1763.06	0.022211
1774.64	0.017801
1786.21	0.008701
1797.79	0.003811
1809.36	0.001981
1820.93	0.001211
1832.51	0.0007979
1844.08	0.0006343
1855.66	0.0004856
1867.23	0.0004996
1878.8	0.000455
1890.38	0.0004555
1901.95	0.000463
1913.53	0.0004378
1925.1	0.0004285
1936.67	0.0003849
1948.25	0.0003579
1959.82	0.0003444
1971.4	0.0003491
1982.97	0.0003564
1994.54	0.0003869
2006.12	0.0003792
2017.69	0.000359
2029.27	0.0003023
2040.84	0.00025902
2052.41	0.00024358
2063.99	0.00018865
2075.56	0.0002222
2087.14	0.00027123
2098.71	0.00023321
2110.28	0.00024565
2121.86	0.00027487
2133.43	0.00025621
2145.01	0.00022407
2156.58	0.00021459
2168.15	0.00018661
2179.73	0.0001509
2191.3	0.0001114
2202.88	0.0001132
2214.45	0.0001152
2226.02	0.0001347
2237.6	0.0001431
2249.17	0.0001403
2260.74	0.0001455
2272.32	0.000143
2283.89	0.0001385
2295.47	0.0001739
2307.04	0.00021805
2318.61	0.00024589
2330.19	0.0003019
2341.76	0.0003229
2353.34	0.0003605
2364.91	0.0004703
2376.48	0.0003855
2388.06	0.00026266
2399.63	0.00022705
2411.21	0.00021702
2422.78	0.0001348
2434.35	0.000155
2445.93	0.0001749
2457.5	0.0001524
2469.08	0.0001685
2480.65	0.0001702
2492.22	0.00018993
2503.8	0.00023308
2515.37	0.00025316
2526.95	0.00021253
2538.52	0.00020776
2550.09	0.0001706
2561.67	0.000178
2573.24	0.0001653
2584.82	0.0001707
2596.39	0.00018366
2607.96	0.0001323
2619.54	0.0001182
2631.11	0.0001134
2642.69	0.0001212
2654.26	9e-05
2665.83	0.0001025
2677.41	5.7e-05
2688.98	0.0001003
2700.56	0.0001336
2712.13	0.0001762
2723.7	0.0001573
2735.28	0.000199184
2746.85	0.00020293
2758.43	0.00023889
2770	0.00021182
2781.57	0.00025564
2793.15	0.00029029
2804.72	0.0002438
2816.3	0.00028139
2827.87	0.0004484
2839.44	0.0008663
2851.02	0.001261
2862.59	0.0009926
2874.17	0.0006848
2885.74	0.0007809
2897.31	0.001136
2908.89	0.001311
2920.46	0.001361
2932.04	0.001451
2943.61	0.002371
2955.18	0.006551
2966.76	0.006761
2978.33	0.002461
2989.91	0.001891
3001.48	0.002111
3013.05	0.001971
3024.63	0.001731
3036.2	0.001531
3047.78	0.0011236
3059.35	0.0008081
3070.92	0.0006493
3082.5	0.0006207
3094.07	0.0006237
3105.65	0.0005341
3117.22	0.0005174
3128.79	0.0005873
3140.37	0.0004653
3151.94	0.0003423
3163.52	0.00023107
3175.09	0.0001686
3186.66	0.00018727
3198.24	0.00020487
3209.81	0.0001249
3221.39	0.0001321
3232.96	0.000133
3244.53	0.0001326
3256.11	0.0001336
3267.68	0.00021863
3279.26	0.0001068
3290.83	0.0001439
3302.4	0.0001304
3313.98	0.0001747
3325.55	0.00021283
3337.13	0.00018893
3348.7	0.0001561
3360.27	8.7e-05
3371.85	0.0001223
3383.42	0.0001728
3395	0.00025389
3406.57	0.00026991
3418.14	0.0003668
3429.72	0.0005898
3441.29	0.0010279
3452.86	0.002381
3464.44	0.007121
3476.01	0.010591
3487.59	0.005211
3499.16	0.002831
3510.73	0.0007761
3522.31	0.0004321
3533.88	0.0003227
3545.46	0.0003087
3557.03	0.0001393
3568.6	0.000163
3580.18	8.3e-05
3591.75	0.000181
3603.33	0.0001247
3614.9	9.86e-05
3626.47	0.00021211
3638.05	1.6e-05
3649.62	0.0001264
3661.2	2.5e-05
3672.77	0.0001295
3684.34	4.5e-05
3695.92	8e-05
3707.49	0.000199069
3719.07	6.6e-05
3730.64	0.0001656
3742.21	0.0001571
3753.79	0.0001353
3765.36	9.29e-05
3776.94	0.0001183
3788.51	0.0001256
3800.08	9.16e-05
3811.66	0
3823.23	0.0001012
3834.81	0.00021913
3846.38	0.0001733
3857.95	0.00018991
3869.53	0.0001012
3881.1	0.0001806
3892.68	0.0001401
3904.25	0.0001638
3915.82	0.000122
3927.4	0.0001196
3938.97	0.00019166
3950.55	0.000128
3962.12	0.0001157
3973.69	0.0001483
3985.27	0.0001749
3996.84	0.00018493
