Infrared Spectrum: o-AMINOBENZENESULFONAMIDE
Formula: C6 H8 N2 O2 S
CAS: 3306-62-5
State: SOLID (NUJOL MULL)
Class: COBLENTZ
Instrument: PERKIN-ELMER
Sampling: TRANSMISSION
Resolution: 4
Origin: ABBOTT LABORATORIES - WASHBURN
MICROMETERS	TRANSMITTANCE
2.026	0.46
2.06034	0.467
2.09468	0.4789
2.12902	0.489
2.16336	0.5031
2.1977	0.5132
2.23204	0.522
2.26638	0.529
2.30072	0.537
2.33506	0.537
2.3694	0.5458
2.40374	0.551
2.43808	0.566
2.47242	0.57
2.50676	0.5829
2.5411	0.594
2.57544	0.6008
2.60978	0.6088
2.64412	0.6141
2.67846	0.633
2.7128	0.6418
2.74714	0.652
2.78148	0.654
2.81582	0.6667
2.85016	0.678
2.8845	0.4523
2.91884	0.5823
2.95318	0.3415
2.98752	0.1992
3.02186	0.3603
3.0562	0.4137
3.09054	0.1982
3.12488	0.3506
3.15922	0.4596
3.19356	0.4879
3.2279	0.4681
3.26224	0.5052
3.29658	0.527
3.33092	0.4823
3.36526	0.2403
3.3996	0.0322
3.43394	0.0079
3.46828	0.0927
3.50262	0.118
3.53696	0.4696
3.57129	0.6496
3.60563	0.6992
3.63997	0.715
3.67431	0.72
3.70865	0.719
3.74299	0.722
3.77733	0.708
3.81167	0.702
3.84601	0.7096
3.88035	0.7241
3.91469	0.7441
3.94903	0.751
3.98337	0.756
4.01771	0.761
4.05205	0.763
4.08639	0.763
4.12073	0.761
4.15507	0.767
4.18941	0.773
4.22375	0.773
4.25809	0.777
4.29243	0.7768
4.32677	0.78
4.36111	0.779
4.39545	0.779
4.42979	0.78
4.46413	0.7889
4.49847	0.791
4.53281	0.791
4.56715	0.791
4.60149	0.791
4.63583	0.791
4.67017	0.792
4.70451	0.7969
4.73885	0.801
4.77319	0.7991
4.80753	0.806
4.84187	0.806
4.87621	0.806
4.91055	0.803
4.94489	0.8078
4.97923	0.811
5.01357	0.8063
5.04791	0.8078
5.08225	0.8128
5.11659	0.8049
5.15093	0.8107
5.18527	0.8176
5.21961	0.8074
5.25395	0.825
5.28829	0.8105
5.32263	0.8206
5.35697	0.8303
5.39131	0.83
5.42565	0.8311
5.45999	0.832
5.49433	0.8263
5.52867	0.8273
5.56301	0.8291
5.59735	0.8188
5.63169	0.8305
5.66603	0.8354
5.70037	0.837
5.73471	0.839
5.76905	0.845
5.80339	0.84
5.83773	0.8351
5.87207	0.8272
5.90641	0.8209
5.94075	0.8318
5.97509	0.8232
6.00943	0.8183
6.04377	0.8063
6.07811	0.7815
6.11245	0.6698
6.14679	0.3602
6.18113	0.312
6.21547	0.5383
6.24981	0.4352
6.28415	0.5744
6.31849	0.6775
6.35283	0.6461
6.38717	0.4618
6.42151	0.3946
6.45585	0.5841
6.49019	0.6798
6.52453	0.7224
6.55887	0.7505
6.59321	0.75
6.62754	0.7563
6.66188	0.755
6.69622	0.7134
6.73056	0.5954
6.7649	0.1971
6.79924	0.361
6.83358	0.3604
6.86792	0.3208
6.90226	0.2104
6.9366	0.3281
6.97094	0.5352
7.00528	0.6411
7.03962	0.7258
7.07396	0.744
7.1083	0.7555
7.14264	0.763
7.17698	0.7684
7.21132	0.7621
7.24566	0.6899
7.28	0.5677
7.31434	0.5283
7.34868	0.6208
7.38302	0.6527
7.41736	0.686
7.4517	0.6767
7.48604	0.6339
7.52038	0.3467
7.55472	0.4491
7.58906	0.4273
7.6234	0.1625
7.65774	0.1127
7.69208	0.1627
7.72642	0.3225
7.76076	0.4642
7.7951	0.5266
7.82944	0.6049
7.86378	0.6571
7.89812	0.6747
7.93246	0.6685
7.9668	0.6125
8.00114	0.7049
8.03548	0.7382
8.06982	0.7489
8.10416	0.755
8.1385	0.7618
8.17284	0.768
8.20718	0.7742
8.24152	0.7817
8.27586	0.78
8.3102	0.78
8.34454	0.784
8.37888	0.782
8.41322	0.777
8.44756	0.768
8.4819	0.7612
8.51624	0.7467
8.55058	0.7037
8.58492	0.5794
8.61926	0.3322
8.6536	0.4309
8.68794	0.3201
8.72228	0.2334
8.75662	0.1479
8.79096	0.1071
8.8253	0.1145
8.85964	0.2211
8.89398	0.3183
8.92832	0.4143
8.96266	0.4661
8.997	0.5043
9.03134	0.5288
9.06568	0.547
9.10002	0.5535
9.13436	0.565
9.1687	0.565
9.20304	0.5698
9.23738	0.5167
9.27172	0.4233
9.30606	0.4543
9.3404	0.5529
9.37474	0.6197
9.40908	0.6534
9.44342	0.6704
9.47776	0.684
9.5121	0.6738
9.54644	0.6564
9.58078	0.7006
9.61512	0.726
9.64946	0.739
9.68379	0.7422
9.71813	0.748
9.75247	0.7472
9.78681	0.7269
9.82115	0.6714
9.85549	0.6774
9.88983	0.7233
9.92417	0.7397
9.95851	0.7466
9.99285	0.753
10.0272	0.7551
10.0615	0.76
10.0959	0.763
10.1302	0.7651
10.1646	0.767
10.1989	0.763
10.2332	0.761
10.2676	0.7602
10.3019	0.758
10.3363	0.7552
10.3706	0.7607
10.4049	0.76
10.4393	0.76
10.4736	0.758
10.508	0.7587
10.5423	0.751
10.5766	0.7319
10.611	0.6611
10.6453	0.7127
10.6797	0.7368
10.714	0.7403
10.7483	0.7333
10.7827	0.7317
10.817	0.7214
10.8514	0.7057
10.8857	0.6803
10.92	0.6463
10.9544	0.5966
10.9887	0.5179
11.0231	0.4529
11.0574	0.3981
11.0917	0.39
11.1261	0.3976
11.1604	0.4386
11.1947	0.4699
11.2291	0.5086
11.2634	0.5424
11.2978	0.5677
11.3321	0.5976
11.3664	0.6171
11.4008	0.6298
11.4351	0.6532
11.4695	0.664
11.5038	0.6654
11.5381	0.6714
11.5725	0.6783
11.6068	0.684
11.6412	0.6916
11.6755	0.691
11.7098	0.684
11.7442	0.6563
11.7785	0.6503
11.8129	0.669
11.8472	0.6541
11.8815	0.609
11.9159	0.6138
11.9502	0.6143
11.9846	0.599
12.0189	0.6219
12.0532	0.6565
12.0876	0.6781
12.1219	0.6943
12.1563	0.7
12.1906	0.7054
12.2249	0.71
12.2593	0.714
12.2936	0.7091
12.328	0.717
12.3623	0.707
12.3966	0.7084
12.431	0.71
12.4653	0.71
12.4997	0.71
12.534	0.71
12.5683	0.71
12.6027	0.708
12.637	0.7078
12.6714	0.705
12.7057	0.707
12.74	0.707
12.7744	0.7032
12.8087	0.6984
12.8431	0.693
12.8774	0.6883
12.9117	0.6793
12.9461	0.676
12.9804	0.6577
13.0148	0.6481
13.0491	0.6249
13.0834	0.5827
13.1178	0.4873
13.1521	0.3446
13.1865	0.2277
13.2208	0.2036
13.2551	0.1796
13.2895	0.2125
13.3238	0.3431
13.3582	0.4562
13.3925	0.5149
13.4268	0.5474
13.4612	0.5714
13.4955	0.5791
13.5299	0.5942
13.5642	0.595
13.5985	0.594
13.6329	0.5938
13.6672	0.5922
13.7016	0.587
13.7359	0.5803
13.7702	0.5685
13.8046	0.5634
13.8389	0.5265
13.8733	0.4877
13.9076	0.4855
13.9419	0.5006
13.9763	0.5105
14.0106	0.5119
14.045	0.509
14.0793	0.5015
14.1136	0.4807
14.148	0.4619
14.1823	0.4398
14.2167	0.3994
14.251	0.3754
14.2853	0.3328
14.3197	0.3127
14.354	0.3065
14.3884	0.3286
14.4227	0.3788
14.457	0.4291
14.4914	0.483
14.5257	0.5244
14.5601	0.5454
14.5944	0.5644
14.6287	0.5797
14.6631	0.5828
14.6974	0.587
14.7318	0.585
14.7661	0.585
14.8004	0.5824
14.8348	0.5774
14.8691	0.567
14.9035	0.562
14.9378	0.5571
14.9721	0.5585
15.0065	0.5642
15.0408	0.5151
15.0752	0.517
15.1095	0.518
15.1438	0.5125
15.1782	0.506
15.2125	0.4997
15.2469	0.494
15.2812	0.4908
15.3155	0.477
15.3499	0.4738
15.3842	0.4652
15.4186	0.4603
15.4529	0.4483
