Infrared Spectrum: 1-CARBOETHOXY-2,3-PHTHALOYLPYRROCOLINE
Formula: C19 H13 N O4
CAS: 3306-93-2
State: SOLID (KBr PRESSING)
Melting point: 156 C
Class: COBLENTZ
Instrument: Not specified, most likely a prism, grating, or hybrid spectrometer.
Sampling: TRANSMISSION
Resolution: 4
Origin: EASTMAN KODAK COMPANY, RESEARCH LABORATORIES, ROCHESTER, N.Y.
MICROMETERS	TRANSMITTANCE
2.007	0.342
2.04689	0.348
2.08677	0.355
2.12666	0.356
2.16654	0.356
2.20643	0.361
2.24631	0.368
2.2862	0.369
2.32609	0.374
2.36597	0.382
2.40586	0.389
2.44574	0.396
2.48563	0.402
2.52551	0.409
2.5654	0.409
2.60529	0.412
2.64517	0.43
2.68506	0.428
2.72494	0.445
2.76483	0.435
2.80471	0.418
2.8446	0.405
2.88449	0.392
2.92437	0.384
2.96426	0.389
3.00414	0.417
3.04403	0.435
3.08392	0.448
3.1238	0.459
3.16369	0.466
3.20357	0.45
3.24346	0.44
3.28334	0.459
3.32323	0.459
3.36312	0.407
3.403	0.432
3.44289	0.44
3.48277	0.469
3.52266	0.499
3.56254	0.518
3.60243	0.531
3.64232	0.536
3.6822	0.543
3.72209	0.553
3.76197	0.559
3.80186	0.574
3.84174	0.574
3.88163	0.584
3.92152	0.595
3.9614	0.603
4.00129	0.608
4.04117	0.62
4.08106	0.621
4.12094	0.63
4.16083	0.639
4.20072	0.635
4.2406	0.631
4.28049	0.639
4.32037	0.659
4.36026	0.672
4.40014	0.68
4.44003	0.69
4.47992	0.698
4.5198	0.71
4.55969	0.716
4.59957	0.721
4.63946	0.721
4.67934	0.728
4.71923	0.729
4.75912	0.734
4.799	0.743
4.83889	0.751
4.87877	0.762
4.91866	0.769
4.95854	0.774
4.99843	0.772
5.03832	0.779
5.0782	0.78
5.11809	0.79
5.15797	0.788
5.19786	0.8
5.23775	0.815
5.27763	0.819
5.31752	0.829
5.3574	0.833
5.39729	0.864
5.43717	0.875
5.47706	0.882
5.51695	0.878
5.55683	0.883
5.59672	0.873
5.6366	0.873
5.67649	0.89
5.71637	0.896
5.75626	0.862
5.79615	0.762
5.83603	0.643
5.87592	0.428
5.9158	0.212
5.95569	0.14
5.99557	0.193
6.03546	0.361
6.07535	0.279
6.11523	0.173
6.15512	0.238
6.195	0.425
6.23489	0.518
6.27477	0.32
6.31466	0.32
6.35455	0.435
6.39443	0.495
6.43432	0.563
6.4742	0.667
6.51409	0.671
6.55397	0.612
6.59386	0.502
6.63375	0.369
6.67363	0.279
6.71352	0.148
6.7534	0.145
6.79329	0.189
6.83317	0.291
6.87306	0.343
6.91295	0.45
6.95283	0.51
6.99272	0.453
7.0326	0.561
7.07249	0.623
7.11237	0.605
7.15226	0.338
7.19215	0.312
7.23203	0.279
7.27192	0.36
7.3118	0.327
7.35169	0.389
7.39158	0.515
7.43146	0.579
7.47135	0.703
7.51123	0.754
7.55112	0.78
7.591	0.577
7.63089	0.402
7.67078	0.379
7.71066	0.631
7.75055	0.718
7.79043	0.657
7.83032	0.361
7.8702	0.26
7.91009	0.379
7.94998	0.59
7.98986	0.592
8.02975	0.18
8.06963	0.058
8.10952	0.04
8.1494	0.032
8.18929	0.062
8.22918	0.139
8.26906	0.139
8.30895	0.209
8.34883	0.309
8.38872	0.399
8.4286	0.471
8.46849	0.533
8.50838	0.572
8.54826	0.559
8.58815	0.376
8.62803	0.229
8.66792	0.199
8.7078	0.361
8.74769	0.5
8.78758	0.533
8.82746	0.448
8.86735	0.522
8.90723	0.396
8.94712	0.25
8.987	0.238
9.02689	0.211
9.06678	0.369
9.10666	0.492
9.14655	0.551
9.18643	0.559
9.22632	0.613
9.2662	0.672
9.30609	0.713
9.34598	0.739
9.38586	0.595
9.42575	0.279
9.46563	0.44
9.50552	0.569
9.54541	0.635
9.58529	0.651
9.62518	0.579
9.66506	0.32
9.70495	0.301
9.74483	0.392
9.78472	0.278
9.82461	0.379
9.86449	0.369
9.90438	0.414
9.94426	0.515
9.98415	0.574
10.024	0.63
10.0639	0.653
10.1038	0.68
10.1437	0.698
10.1836	0.707
10.2235	0.639
10.2633	0.412
10.3032	0.441
10.3431	0.533
10.383	0.571
10.4229	0.651
10.4628	0.703
10.5027	0.731
10.5425	0.752
10.5824	0.77
10.6223	0.774
10.6622	0.761
10.7021	0.747
10.742	0.801
10.7819	0.824
10.8217	0.836
10.8616	0.851
10.9015	0.87
10.9414	0.875
10.9813	0.88
11.0212	0.887
11.0611	0.887
11.1009	0.87
11.1408	0.829
11.1807	0.862
11.2206	0.887
11.2605	0.909
11.3004	0.931
11.3403	0.936
11.3801	0.919
11.42	0.739
11.4599	0.628
11.4998	0.653
11.5397	0.648
11.5796	0.72
11.6195	0.793
11.6593	0.839
11.6992	0.854
11.7391	0.865
11.779	0.867
11.8189	0.896
11.8588	0.921
11.8987	0.929
11.9385	0.936
11.9784	0.941
12.0183	0.941
12.0582	0.942
12.0981	0.941
12.138	0.937
12.1779	0.913
12.2177	0.844
12.2576	0.81
12.2975	0.772
12.3374	0.672
12.3773	0.797
12.4172	0.893
12.4571	0.905
12.497	0.87
12.5368	0.716
12.5767	0.569
12.6166	0.708
12.6565	0.787
12.6964	0.78
12.7363	0.639
12.7762	0.499
12.816	0.68
12.8559	0.828
12.8958	0.882
12.9357	0.901
12.9756	0.905
13.0155	0.873
13.0554	0.801
13.0952	0.597
13.1351	0.345
13.175	0.373
13.2149	0.484
13.2548	0.518
13.2947	0.448
13.3346	0.294
13.3744	0.211
13.4143	0.307
13.4542	0.458
13.4941	0.607
13.534	0.705
13.5739	0.77
13.6138	0.792
13.6536	0.764
13.6935	0.751
13.7334	0.805
13.7733	0.851
13.8132	0.849
13.8531	0.79
13.893	0.646
13.9328	0.389
13.9727	0.171
14.0126	0.148
14.0525	0.235
14.0924	0.33
14.1323	0.415
14.1722	0.515
14.212	0.602
14.2519	0.675
14.2918	0.703
14.3317	0.713
14.3716	0.721
14.4115	0.754
14.4514	0.79
14.4912	0.813
14.5311	0.837
14.571	0.854
14.6109	0.872
14.6508	0.882
14.6907	0.885
14.7306	0.891
14.7704	0.905
14.8103	0.914
14.8502	0.923
14.8901	0.921
14.93	0.921
14.9699	0.913
15.0098	0.877
15.0496	0.8
15.0895	0.752
15.1294	0.772
15.1693	0.821
15.2092	0.851
15.2491	0.87
15.289	0.88
15.3288	0.888
15.3687	0.883
15.4086	0.878
15.4485	0.875
15.4884	0.872
15.5283	0.869
15.5682	0.864
15.608	0.859
15.6479	0.849
15.6878	0.834
15.7277	0.826
15.7676	0.819
15.8075	0.816
15.8474	0.813
15.8872	0.818
15.9271	0.821
15.967	0.821
