Infrared Spectrum: Cyclohexanecarboxylic acid, 4-[3-(2-chloroethyl )-3-nitrosoureido]-, ethyl ester,trans-
Formula: C12 H20 Cl N3 O4
CAS: 33073-60-8
State: SOLID (1 mg / 650 mg KBr DISC)
Class: COBLENTZ III
Instrument: PERKIN-ELMER 521 (GRATING)
Instrument parameters: FILTERS AT 3150, 2500, 2000, 1150, 700, 410. GRATING CHANGES: 2000, 630
Sampling: TRANSMISSION
Resolution: 2
Origin: SOUTHERN RESEARCH INSTITUTE
1/CM	TRANSMITTANCE
254	0.2622
264.027	0.3868
274.053	0.4792
284.08	0.5372
294.107	0.5635
304.133	0.649
314.16	0.6745
324.187	0.7103
334.214	0.719
344.24	0.67
354.267	0.6725
364.294	0.7555
374.32	0.7495
384.347	0.851
394.374	0.8514
404.4	0.7907
414.427	0.8927
424.454	0.9001
434.481	0.8903
444.507	0.8733
454.534	0.8973
464.561	0.8824
474.587	0.8931
484.614	0.8754
494.641	0.8826
504.667	0.8411
514.694	0.847
524.721	0.8655
534.747	0.8509
544.774	0.8203
554.801	0.7776
564.828	0.7111
574.854	0.6356
584.881	0.7685
594.908	0.8375
604.934	0.7884
614.961	0.8748
624.988	0.8843
635.014	0.8848
645.041	0.8651
655.068	0.7672
665.095	0.673
675.121	0.9099
685.148	0.8962
695.175	0.8679
705.201	0.9282
715.228	0.9279
725.255	0.9207
735.281	0.9091
745.308	0.8641
755.335	0.6734
765.361	0.8303
775.388	0.5731
785.415	0.8081
795.442	0.6438
805.468	0.8831
815.495	0.8889
825.522	0.8868
835.548	0.9007
845.575	0.8899
855.602	0.8591
865.628	0.7995
875.655	0.8286
885.682	0.7079
895.708	0.8086
905.735	0.7104
915.762	0.6989
925.789	0.8351
935.815	0.731
945.842	0.7273
955.869	0.4853
965.895	0.3738
975.922	0.6233
985.949	0.7551
995.975	0.7166
1006	0.5646
1016.03	0.6732
1026.06	0.5133
1036.08	0.6479
1046.11	0.5642
1056.14	0.7195
1066.16	0.6004
1076.19	0.4529
1086.22	0.3199
1096.24	0.5095
1106.27	0.7255
1116.3	0.6943
1126.32	0.4752
1136.35	0.6669
1146.38	0.6106
1156.4	0.5659
1166.43	0.4978
1176.46	0.3747
1186.48	0.4261
1196.51	0.2887
1206.54	0.5107
1216.56	0.6592
1226.59	0.718
1236.62	0.7408
1246.64	0.5878
1256.67	0.4874
1266.7	0.6383
1276.72	0.6256
1286.75	0.602
1296.78	0.6589
1306.8	0.5697
1316.83	0.6407
1326.86	0.552
1336.88	0.5183
1346.91	0.6434
1356.94	0.7486
1366.96	0.7292
1376.99	0.5933
1387.02	0.6003
1397.04	0.6798
1407.07	0.7341
1417.1	0.6803
1427.12	0.7514
1437.15	0.4711
1447.18	0.5752
1457.2	0.6295
1467.23	0.4581
1477.26	0.2673
1487.28	0.3571
1497.31	0.5087
1507.34	0.4778
1517.36	0.3163
1527.39	0.2596
1537.42	0.441
1547.44	0.5792
1557.47	0.6751
1567.5	0.7624
1577.52	0.7894
1587.55	0.8061
1597.58	0.8182
1607.6	0.8267
1617.63	0.8276
1627.66	0.8176
1637.68	0.8098
1647.71	0.8115
1657.74	0.8087
1667.76	0.785
1677.79	0.714
1687.82	0.6755
1697.84	0.5167
1707.87	0.2688
1717.9	0.1225
1727.92	0.1542
1737.95	0.256
1747.98	0.41
1758	0.5804
1768.03	0.6434
1778.06	0.681
1788.08	0.7124
1798.11	0.7364
1808.14	0.754
1818.16	0.7687
1828.19	0.7815
1838.22	0.7934
1848.24	0.8027
1858.27	0.8115
1868.3	0.8195
1878.32	0.8253
1888.35	0.8293
1898.38	0.8326
1908.4	0.8365
1918.43	0.843
1928.46	0.8486
1938.48	0.8515
1948.51	0.8521
1958.54	0.8529
1968.56	0.8537
1978.59	0.8544
1988.62	0.8547
1998.64	0.8547
2008.67	0.8544
2018.7	0.8535
2028.73	0.8527
2038.75	0.852
2048.78	0.8513
2058.81	0.8507
2068.83	0.8497
2078.86	0.8496
2088.89	0.8486
2098.91	0.8476
2108.94	0.8471
2118.97	0.848
2128.99	0.8489
2139.02	0.8493
2149.05	0.8494
2159.07	0.8495
2169.1	0.8497
2179.13	0.85
2189.15	0.8503
2199.18	0.8488
2209.21	0.8467
2219.23	0.8447
2229.26	0.8423
2239.29	0.84
2249.31	0.8377
2259.34	0.8372
2269.37	0.8378
2279.39	0.8381
2289.42	0.8386
2299.45	0.8391
2309.47	0.8389
2319.5	0.8386
2329.53	0.8375
2339.55	0.8361
2349.58	0.835
2359.61	0.8338
2369.63	0.8329
2379.66	0.8327
2389.69	0.8325
2399.71	0.8323
2409.74	0.8321
2419.77	0.8318
2429.79	0.8314
2439.82	0.8311
2449.85	0.8307
2459.87	0.8299
2469.9	0.8292
2479.93	0.8284
2489.95	0.8277
2499.98	0.827
2510.01	0.8259
2520.03	0.8244
2530.06	0.823
2540.09	0.8215
2550.11	0.8198
2560.14	0.8183
2570.17	0.8164
2580.19	0.8144
2590.22	0.8125
2600.25	0.8113
2610.27	0.8103
2620.3	0.8093
2630.33	0.8084
2640.35	0.8086
2650.38	0.8091
2660.41	0.8095
2670.43	0.8091
2680.46	0.8087
2690.49	0.8082
2700.51	0.8072
2710.54	0.8062
2720.57	0.8053
2730.59	0.8048
2740.62	0.8043
2750.65	0.8037
2760.67	0.8031
2770.7	0.8007
2780.73	0.7978
2790.75	0.7948
2800.78	0.7917
2810.81	0.7876
2820.83	0.7815
2830.86	0.7725
2840.89	0.7496
2850.91	0.6791
2860.94	0.6281
2870.97	0.6572
2880.99	0.7055
2891.02	0.6843
2901.05	0.6372
2911.07	0.605
2921.1	0.6014
2931.13	0.538
2941.15	0.4899
2951.18	0.4688
2961.21	0.5215
2971.23	0.6023
2981.26	0.589
2991.29	0.567
3001.31	0.6624
3011.34	0.7031
3021.37	0.7278
3031.39	0.7385
3041.42	0.745
3051.45	0.75
3061.47	0.7536
3071.5	0.7562
3081.53	0.7589
3091.55	0.7606
3101.58	0.7613
3111.61	0.7616
3121.63	0.762
3131.66	0.7624
3141.69	0.7623
3151.71	0.7606
3161.74	0.7509
3171.77	0.7487
3181.79	0.7483
3191.82	0.748
3201.85	0.7474
3211.88	0.746
3221.9	0.7438
3231.93	0.7412
3241.96	0.7375
3251.98	0.7328
3262.01	0.7257
3272.04	0.718
3282.06	0.7091
3292.09	0.6994
3302.12	0.6876
3312.14	0.6747
3322.17	0.6574
3332.2	0.6381
3342.22	0.6144
3352.25	0.5731
3362.28	0.4126
3372.3	0.3938
3382.33	0.5552
3392.36	0.6038
3402.38	0.6205
3412.41	0.6282
3422.44	0.6331
3432.46	0.6439
3442.49	0.6571
3452.52	0.6715
3462.54	0.6867
3472.57	0.6939
3482.6	0.6973
3492.62	0.6993
3502.65	0.7002
3512.68	0.7027
3522.7	0.7054
3532.73	0.7083
3542.76	0.7113
3552.78	0.7147
3562.81	0.7184
3572.84	0.722
3582.86	0.724
3592.89	0.7251
3602.92	0.7248
3612.94	0.726
3622.97	0.7281
3633	0.7305
3643.02	0.7334
3653.05	0.7363
3663.08	0.7365
3673.1	0.7363
3683.13	0.7347
3693.16	0.7362
3703.18	0.7393
3713.21	0.7406
3723.24	0.7406
3733.26	0.7387
3743.29	0.7364
3753.32	0.7341
3763.34	0.736
3773.37	0.7386
3783.4	0.7378
3793.42	0.7364
3803.45	0.7351
3813.48	0.7345
3823.5	0.7339
3833.53	0.7332
3843.56	0.7321
3853.58	0.7303
3863.61	0.7282
3873.64	0.7269
3883.66	0.726
3893.69	0.7259
3903.72	0.7258
3913.74	0.7257
3923.77	0.7255
3933.8	0.7255
3943.82	0.7257
3953.85	0.7258
3963.88	0.725
3973.9	0.7241
3983.93	0.7231
3993.96	0.7217
4003.98	0.7212
