Infrared Spectrum: 5-Undecanone
Formula: C 11 H 22 O
CAS: 33083-83-9
State: gas
Instrument: HP-GC/MS/IRD
Origin: NIST Mass Spectrometry Data Center
1/CM	ABSORBANCE
550	0.000208
562	0.000244
574	6.4e-05
586	6.4e-05
598	0.000108
610	0.000204
622	0.00022
634	0.000272
646	0.000184
658	0.000132
670	0.000196
682	0.000128
694	0.000228
706	0.000524
718	0.0008
730	0.000996
742	0.001004
754	0.000848
766	0.000752
778	0.000576
790	0.000476
802	0.000376
814	0.000296
826	0.00028
838	0.000252
850	0.000292
862	0.00046
874	0.000532
886	0.000632
898	0.000628
910	0.000644
922	0.000624
934	0.000636
946	0.000724
958	0.000944
970	0.001072
982	0.001216
994	0.001384
1006	0.001564
1018	0.001812
1030	0.002484
1042	0.003196
1054	0.003792
1066	0.003188
1078	0.002176
1090	0.001836
1102	0.001932
1114	0.002704
1126	0.003684
1138	0.003848
1150	0.003344
1162	0.002564
1174	0.001896
1186	0.001812
1198	0.002028
1210	0.0021
1222	0.002104
1234	0.002104
1246	0.002056
1258	0.002236
1270	0.002252
1282	0.002324
1294	0.002396
1306	0.002628
1318	0.002856
1330	0.003552
1342	0.00458
1354	0.005584
1366	0.005212
1378	0.003804
1390	0.003072
1402	0.002636
1414	0.003188
1426	0.00338
1438	0.003712
1450	0.004768
1462	0.005476
1474	0.003948
1486	0.002016
1498	0.001136
1510	0.00074
1522	0.000532
1534	0.000428
1546	0.00032
1558	0.00028
1570	0.000268
1582	0.000248
1594	0.000264
1606	0.000268
1618	0.000276
1630	0.000312
1642	0.00038
1654	0.00054
1666	0.000808
1678	0.001368
1690	0.002524
1702	0.00564
1714	0.013572
1726	0.019264
1738	0.010488
1750	0.003476
1762	0.001492
1774	0.000788
1786	0.000504
1798	0.000308
1810	0.000212
1822	0.000132
1834	0.000108
1846	5.2e-05
1858	5.6e-05
1870	7.2e-05
1882	3.2e-05
1894	5.6e-05
1906	2.4e-05
1918	3.2e-05
1930	4e-05
1942	2.8e-05
1954	2.4e-05
1966	0
1978	2.8e-05
1990	2.8e-05
2002	2e-05
2014	4.8e-05
2026	6.4e-05
2038	8e-05
2050	6.4e-05
2062	4.8e-05
2074	4.8e-05
2086	2.8e-05
2098	3.6e-05
2110	4.8e-05
2122	5.2e-05
2134	7.6e-05
2146	6.4e-05
2158	6.4e-05
2170	8e-05
2182	8e-05
2194	7.2e-05
2206	7.2e-05
2218	7.2e-05
2230	8.8e-05
2242	6.4e-05
2254	5.6e-05
2266	4.8e-05
2278	5.6e-05
2290	4.8e-05
2302	8e-05
2314	7.6e-05
2326	0.000104
2338	8.4e-05
2350	0.0001
2362	0.000104
2374	0.000104
2386	0.000124
2398	0.0001
2410	0.000116
2422	0.000132
2434	0.000128
2446	0.00012
2458	8.8e-05
2470	0.000124
2482	0.000116
2494	0.000136
2506	0.000128
2518	0.000172
2530	0.0002
2542	0.000204
2554	0.000208
2566	0.000288
2578	0.000284
2590	0.0003
2602	0.000304
2614	0.00036
2626	0.000392
2638	0.000416
2650	0.0005
2662	0.000556
2674	0.0006
2686	0.000644
2698	0.00062
2710	0.000612
2722	0.000704
2734	0.000848
2746	0.000972
2758	0.001008
2770	0.001052
2782	0.001268
2794	0.001648
2806	0.002108
2818	0.002684
2830	0.003608
2842	0.005388
2854	0.009792
2866	0.01572
2878	0.017964
2890	0.017808
2902	0.018224
2914	0.023524
2926	0.03348
2938	0.04
2950	0.0358
2962	0.034716
2974	0.028552
2986	0.012716
2998	0.006336
3010	0.003856
3022	0.002696
3034	0.002084
3046	0.001576
3058	0.001204
3070	0.00108
3082	0.000936
3094	0.000828
3106	0.000792
3118	0.0007
3130	0.000652
3142	0.000608
3154	0.000536
3166	0.00058
3178	0.0005
3190	0.000468
3202	0.000408
3214	0.000376
3226	0.00032
3238	0.000252
3250	0.000268
3262	0.000236
3274	0.000196
3286	0.00018
3298	0.000184
3310	0.000176
3322	0.000224
3334	0.0002
3346	0.0002
3358	0.000176
3370	0.0002
3382	0.000216
3394	0.000256
3406	0.000308
3418	0.000404
3430	0.000524
3442	0.000416
3454	0.000288
3466	0.000152
3478	0.00016
3490	9.2e-05
3502	0.000128
3514	0.000112
3526	8e-05
3538	6e-05
3550	5.6e-05
3562	6.4e-05
3574	7.2e-05
3586	6.8e-05
3598	6.4e-05
3610	9.6e-05
3622	0.000124
3634	9.2e-05
3646	0.000136
3658	0.000128
3670	0.00016
3682	0.000164
3694	0.000168
3706	0.000152
3718	0.000168
3730	0.000188
3742	0.000188
3754	0.000148
3766	0.000172
3778	0.000208
3790	0.000124
3802	0.000184
3814	0.000196
3826	0.00018
3838	0.000212
