Infrared Spectrum: UREA, 1-(2-CHLOROETHYL)-3-(Alpha,Alpha-DIMETHYLPHENETHYL)-
Formula: C13 H19 Cl N2 O
CAS: 33082-80-3
State: SOLID (1 mg / 650 mg KBr DISC)
Class: COBLENTZ III
Instrument: PERKIN-ELMER 521 (GRATING)
Instrument parameters: FILTERS AT 3150, 2500, 2000, 1150, 700, 410 CM ^-^1, GRATING CHANGES AT 2000, 630 CM ^-^1
Sampling: TRANSMISSION
Resolution: 4
Origin: SOUTHERN RES. INSTITUTE
1/CM	TRANSMITTANCE
251.426	0.211
260.534	0.227
269.641	0.273
278.749	0.335
287.857	0.399
296.964	0.447
306.072	0.49
315.179	0.508
324.287	0.508
333.395	0.494
342.502	0.556
351.61	0.581
360.718	0.638
369.825	0.66
378.933	0.673
388.041	0.678
397.148	0.681
406.256	0.685
415.364	0.709
424.471	0.726
433.579	0.729
442.686	0.728
451.794	0.726
460.902	0.683
470.009	0.648
479.117	0.712
488.225	0.708
497.332	0.678
506.44	0.562
515.548	0.684
524.655	0.708
533.763	0.702
542.871	0.554
551.978	0.606
561.086	0.731
570.193	0.728
579.301	0.713
588.409	0.693
597.516	0.659
606.624	0.502
615.732	0.524
624.839	0.593
633.947	0.477
643.055	0.405
652.162	0.355
661.27	0.38
670.378	0.6
679.485	0.66
688.593	0.69
697.7	0.224
706.808	0.536
715.916	0.714
725.023	0.753
734.131	0.407
743.239	0.611
752.346	0.752
761.454	0.797
770.562	0.791
779.669	0.697
788.777	0.79
797.884	0.663
806.992	0.692
816.1	0.815
825.207	0.832
834.315	0.843
843.423	0.83
852.53	0.76
861.638	0.821
870.746	0.835
879.853	0.826
888.961	0.809
898.069	0.825
907.176	0.802
916.284	0.737
925.391	0.774
934.499	0.775
943.607	0.768
952.714	0.645
961.822	0.754
970.93	0.693
980.037	0.731
989.145	0.732
998.253	0.71
1007.36	0.734
1016.47	0.731
1025.58	0.715
1034.68	0.638
1043.79	0.751
1052.9	0.745
1062.01	0.727
1071.11	0.644
1080.22	0.629
1089.33	0.712
1098.44	0.728
1107.54	0.712
1116.65	0.7
1125.76	0.574
1134.87	0.715
1143.97	0.723
1153.08	0.662
1162.19	0.62
1171.3	0.656
1180.41	0.587
1189.51	0.523
1198.62	0.435
1207.73	0.642
1216.84	0.601
1225.94	0.609
1235.05	0.571
1244.16	0.448
1253.27	0.265
1262.37	0.403
1271.48	0.542
1280.59	0.37
1289.7	0.457
1298.8	0.551
1307.91	0.539
1317.02	0.395
1326.13	0.383
1335.24	0.73
1344.34	0.758
1353.45	0.709
1362.56	0.479
1371.67	0.753
1380.77	0.51
1389.88	0.455
1398.99	0.762
1408.1	0.755
1417.2	0.672
1426.31	0.583
1435.42	0.438
1444.53	0.445
1453.63	0.5
1462.74	0.67
1471.85	0.553
1480.96	0.699
1490.07	0.614
1499.17	0.626
1508.28	0.632
1517.39	0.581
1526.5	0.464
1535.6	0.372
1544.71	0.403
1553.82	0.257
1562.93	0.108
1572.03	0.084
1581.14	0.2
1590.25	0.322
1599.36	0.374
1608.46	0.352
1617.57	0.249
1626.68	0.1
1635.79	0.06
1644.9	0.207
1654	0.331
1663.11	0.433
1672.22	0.487
1681.33	0.481
1690.43	0.514
1699.54	0.631
1708.65	0.695
1717.76	0.738
1726.86	0.766
1735.97	0.784
1745.08	0.797
1754.19	0.8
1763.29	0.809
1772.4	0.821
1781.51	0.826
1790.62	0.83
1799.73	0.829
1808.83	0.817
1817.94	0.83
1827.05	0.836
1836.16	0.85
1845.26	0.853
1854.37	0.857
1863.48	0.859
1872.59	0.856
1881.69	0.854
1890.8	0.853
1899.91	0.859
1909.02	0.865
1918.12	0.868
1927.23	0.868
1936.34	0.865
1945.45	0.847
1954.55	0.865
1963.66	0.862
1972.77	0.878
1981.88	0.878
1990.99	0.878
2000.09	0.869
2009.2	0.877
2018.31	0.878
2027.42	0.878
2036.52	0.878
2045.63	0.878
2054.74	0.878
2063.85	0.878
2072.95	0.878
2082.06	0.878
2091.17	0.879
2100.28	0.88
2109.38	0.881
2118.49	0.881
2127.6	0.881
2136.71	0.881
2145.82	0.881
2154.92	0.881
2164.03	0.881
2173.14	0.881
2182.25	0.881
2191.35	0.881
2200.46	0.881
2209.57	0.881
2218.68	0.881
2227.78	0.881
2236.89	0.881
2246	0.88
2255.11	0.88
2264.21	0.88
2273.32	0.88
2282.43	0.88
2291.54	0.88
2300.65	0.88
2309.75	0.88
2318.86	0.88
2327.97	0.88
2337.08	0.881
2346.18	0.881
2355.29	0.881
2364.4	0.881
2373.51	0.881
2382.61	0.881
2391.72	0.881
2400.83	0.881
2409.94	0.881
2419.04	0.881
2428.15	0.881
2437.26	0.881
2446.37	0.881
2455.48	0.88
2464.58	0.878
2473.69	0.876
2482.8	0.875
2491.91	0.875
2501.01	0.872
2510.12	0.872
2519.23	0.871
2528.34	0.872
2537.44	0.874
2546.55	0.875
2555.66	0.874
2564.77	0.872
2573.87	0.871
2582.98	0.869
2592.09	0.869
2601.2	0.871
2610.31	0.871
2619.41	0.868
2628.52	0.868
2637.63	0.869
2646.74	0.869
2655.84	0.868
2664.95	0.866
2674.06	0.862
2683.17	0.859
2692.27	0.858
2701.38	0.851
2710.49	0.843
2719.6	0.85
2728.7	0.851
2737.81	0.85
2746.92	0.848
2756.03	0.846
2765.14	0.844
2774.24	0.837
2783.35	0.833
2792.46	0.831
2801.57	0.828
2810.67	0.817
2819.78	0.81
2828.89	0.791
2838	0.769
2847.1	0.721
2856.21	0.695
2865.32	0.725
2874.43	0.724
2883.53	0.721
2892.64	0.7
2901.75	0.63
2910.86	0.537
2919.96	0.42
2929.07	0.592
2938.18	0.56
2947.29	0.557
2956.4	0.594
2965.5	0.481
2974.61	0.438
2983.72	0.681
2992.83	0.609
3001.93	0.737
3011.04	0.725
3020.15	0.659
3029.26	0.55
3038.36	0.623
3047.47	0.709
3056.58	0.663
3065.69	0.668
3074.79	0.7
3083.9	0.693
3093.01	0.73
3102.12	0.743
3111.23	0.719
3120.33	0.687
3129.44	0.694
3138.55	0.718
3147.66	0.735
3156.76	0.729
3165.87	0.714
3174.98	0.709
3184.09	0.706
3193.19	0.706
3202.3	0.708
3211.41	0.706
3220.52	0.698
3229.62	0.682
3238.73	0.668
3247.84	0.651
3256.95	0.62
3266.06	0.587
3275.16	0.554
3284.27	0.518
3293.38	0.477
3302.49	0.428
3311.59	0.368
3320.7	0.296
3329.81	0.227
3338.92	0.266
3348.02	0.311
3357.13	0.291
3366.24	0.246
3375.35	0.252
3384.45	0.336
3393.56	0.404
3402.67	0.488
3411.78	0.536
3420.89	0.565
3429.99	0.595
3439.1	0.623
3448.21	0.64
3457.32	0.654
3466.42	0.664
3475.53	0.672
3484.64	0.68
3493.75	0.688
3502.85	0.696
3511.96	0.704
3521.07	0.713
3530.18	0.723
3539.28	0.734
3548.39	0.745
3557.5	0.754
3566.61	0.76
3575.72	0.769
3584.82	0.777
3593.93	0.786
3603.04	0.795
3612.15	0.803
3621.25	0.81
3630.36	0.819
3639.47	0.826
3648.58	0.831
3657.68	0.835
3666.79	0.834
3675.9	0.832
3685.01	0.837
3694.11	0.845
3703.22	0.847
3712.33	0.848
3721.44	0.848
3730.55	0.849
3739.65	0.85
3748.76	0.85
3757.87	0.85
3766.98	0.852
3776.08	0.852
3785.19	0.852
3794.3	0.852
3803.41	0.853
