Infrared Spectrum: UREA, 1-(2-FLUOROETHYL)-3-PHENYL-
Formula: C9 H11 F N2 O
CAS: 331-07-7
State: SOLID (1 mg / 650 mg KBr DISC)
Class: COBLENTZ III
Instrument: PERKIN-ELMER 521 (GRATING)
Instrument parameters: FILTERS AT 3150, 2500, 2000, 1150, 700, 410 CM ^-^1, GRATING CHANGES AT 2000, 630 CM^-^1
Sampling: TRANSMISSION
Resolution: 4
Origin: SOUTHERN RES. INSTITUTE
1/CM	TRANSMITTANCE
260.288	0.43
269.37	0.4468
278.453	0.4785
287.535	0.5005
296.617	0.548
305.7	0.5957
314.782	0.622
323.864	0.6385
332.947	0.6617
342.029	0.6831
351.111	0.7024
360.194	0.7178
369.276	0.7287
378.358	0.737
387.44	0.746
396.523	0.7101
405.605	0.695
414.687	0.7436
423.77	0.765
432.852	0.767
441.934	0.767
451.017	0.768
460.099	0.767
469.181	0.762
478.264	0.7573
487.346	0.7444
496.428	0.6808
505.511	0.659
514.593	0.6989
523.675	0.746
532.758	0.743
541.84	0.752
550.922	0.7556
560.005	0.7594
569.087	0.7608
578.169	0.7569
587.251	0.7519
596.334	0.737
605.416	0.6308
614.498	0.718
623.581	0.7023
632.663	0.6742
641.745	0.6311
650.828	0.5782
659.91	0.519
668.992	0.5504
678.075	0.6113
687.157	0.6329
696.239	0.5238
705.322	0.701
714.404	0.5464
723.486	0.6108
732.569	0.7512
741.651	0.7701
750.733	0.7619
759.816	0.5298
768.898	0.5927
777.98	0.7596
787.063	0.8216
796.145	0.826
805.227	0.8288
814.309	0.828
823.392	0.8243
832.474	0.8194
841.556	0.8174
850.639	0.813
859.721	0.7496
868.803	0.5736
877.886	0.8114
886.968	0.8183
896.05	0.8178
905.133	0.8098
914.215	0.7958
923.297	0.7911
932.38	0.816
941.462	0.819
950.544	0.8151
959.627	0.8091
968.709	0.8022
977.791	0.798
986.874	0.7923
995.956	0.7574
1005.04	0.7019
1014.12	0.5686
1023.2	0.6817
1032.29	0.674
1041.37	0.7336
1050.45	0.4992
1059.53	0.4785
1068.61	0.6879
1077.7	0.7413
1086.78	0.7694
1095.86	0.776
1104.94	0.77
1114.03	0.7241
1123.11	0.7517
1132.19	0.766
1141.27	0.767
1150.36	0.768
1159.44	0.7633
1168.52	0.7548
1177.6	0.7253
1186.68	0.7525
1195.77	0.7525
1204.85	0.7366
1213.93	0.7169
1223.01	0.675
1232.1	0.5984
1241.18	0.4965
1250.26	0.4581
1259.34	0.5474
1268.43	0.644
1277.51	0.5652
1286.59	0.5969
1295.67	0.7001
1304.75	0.6497
1313.84	0.503
1322.92	0.5399
1332	0.7048
1341.08	0.7544
1350.17	0.7716
1359.25	0.777
1368.33	0.7383
1377.41	0.789
1386.5	0.786
1395.58	0.7603
1404.66	0.7609
1413.74	0.788
1422.82	0.7775
1431.91	0.7355
1440.99	0.5932
1450.07	0.5425
1459.15	0.75
1468.24	0.7158
1477.32	0.7674
1486.4	0.7459
1495.48	0.7026
1504.57	0.478
1513.65	0.698
1522.73	0.6613
1531.81	0.4411
1540.9	0.5243
1549.98	0.562
1559.06	0.4456
1568.14	0.183
1577.22	0.1853
1586.31	0.411
1595.39	0.2098
1604.47	0.4649
1613.55	0.503
1622.64	0.3453
1631.72	0.0969
1640.8	0.2042
1649.88	0.3876
1658.97	0.5253
1668.05	0.6093
1677.13	0.6795
1686.21	0.7225
1695.29	0.7605
1704.38	0.7888
1713.46	0.8082
1722.54	0.816
1731.62	0.8213
1740.71	0.8272
1749.79	0.8332
1758.87	0.8361
1767.95	0.841
1777.04	0.842
1786.12	0.843
1795.2	0.844
1804.28	0.847
1813.36	0.8508
1822.45	0.8538
1831.53	0.8533
1840.61	0.8514
1849.69	0.8484
1858.78	0.847
1867.86	0.849
1876.94	0.8514
1886.02	0.8544
1895.11	0.856
1904.19	0.8573
1913.27	0.859
1922.35	0.8568
1931.43	0.8529
1940.52	0.849
1949.6	0.851
1958.68	0.854
1967.76	0.8579
1976.85	0.8618
1985.93	0.863
1995.01	0.8623
2004.09	0.861
2013.18	0.86
2022.26	0.859
2031.34	0.859
2040.42	0.858
2049.5	0.857
2058.59	0.8563
2067.67	0.856
2076.75	0.856
2085.83	0.855
2094.92	0.855
2104	0.855
2113.08	0.855
2122.16	0.855
2131.25	0.856
2140.33	0.856
2149.41	0.856
2158.49	0.856
2167.58	0.856
2176.66	0.856
2185.74	0.856
2194.82	0.856
2203.9	0.856
2212.99	0.856
2222.07	0.855
2231.15	0.854
2240.23	0.853
2249.32	0.853
2258.4	0.853
2267.48	0.853
2276.56	0.853
2285.65	0.853
2294.73	0.853
2303.81	0.853
2312.89	0.853
2321.97	0.853
2331.06	0.853
2340.14	0.853
2349.22	0.854
2358.3	0.855
2367.39	0.855
2376.47	0.856
2385.55	0.856
2394.63	0.856
2403.72	0.856
2412.8	0.856
2421.88	0.855
2430.96	0.855
2440.04	0.854
2449.13	0.854
2458.21	0.853
2467.29	0.853
2476.37	0.852
2485.46	0.851
2494.54	0.85
2503.62	0.85
2512.7	0.85
2521.79	0.85
2530.87	0.85
2539.95	0.85
2549.03	0.85
2558.11	0.849
2567.2	0.8483
2576.28	0.848
2585.36	0.848
2594.44	0.848
2603.53	0.847
2612.61	0.846
2621.69	0.845
2630.77	0.844
2639.86	0.844
2648.94	0.843
2658.02	0.842
2667.1	0.841
2676.18	0.84
2685.27	0.84
2694.35	0.84
2703.43	0.84
2712.51	0.84
2721.6	0.839
2730.68	0.838
2739.76	0.837
2748.84	0.835
2757.93	0.834
2767.01	0.833
2776.09	0.831
2785.17	0.822
2794.26	0.821
2803.34	0.821
2812.42	0.822
2821.5	0.821
2830.58	0.8183
2839.67	0.8106
2848.75	0.809
2857.83	0.8127
2866.91	0.815
2876	0.8116
2885.08	0.8026
2894.16	0.7926
2903.24	0.7799
2912.33	0.7602
2921.41	0.7363
2930.49	0.7623
2939.57	0.7857
2948.65	0.7757
2957.74	0.7063
2966.82	0.7356
2975.9	0.7686
2984.98	0.7117
2994.07	0.7042
3003.15	0.7834
3012.23	0.7927
3021.31	0.7906
3030.4	0.785
3039.48	0.7753
3048.56	0.772
3057.64	0.7639
3066.72	0.7634
3075.81	0.7757
3084.89	0.7763
3093.97	0.7669
3103.05	0.7462
3112.14	0.7317
3121.22	0.7451
3130.3	0.7604
3139.38	0.7714
3148.47	0.7733
3157.55	0.7656
3166.63	0.758
3175.71	0.752
3184.79	0.749
3193.88	0.747
3202.96	0.745
3212.04	0.7406
3221.12	0.7279
3230.21	0.7149
3239.29	0.6972
3248.37	0.6742
3257.45	0.6482
3266.54	0.6188
3275.62	0.5885
3284.7	0.552
3293.78	0.5112
3302.86	0.4457
3311.95	0.3937
3321.03	0.3209
3330.11	0.2533
3339.19	0.2781
3348.28	0.37
3357.36	0.4935
3366.44	0.5575
3375.52	0.6012
3384.61	0.6372
3393.69	0.6819
3402.77	0.7165
3411.85	0.7401
3420.94	0.7554
3430.02	0.7647
3439.1	0.7717
3448.18	0.7777
3457.26	0.7847
3466.35	0.788
3475.43	0.791
3484.51	0.7947
3493.59	0.7967
3502.68	0.7997
3511.76	0.802
3520.84	0.8057
3529.92	0.8097
3539.01	0.813
3548.09	0.8167
3557.17	0.819
3566.25	0.822
3575.33	0.825
3584.42	0.828
3593.5	0.83
3602.58	0.831
3611.66	0.8337
3620.75	0.8357
3629.83	0.8377
3638.91	0.84
3647.99	0.8407
3657.08	0.842
3666.16	0.8437
3675.24	0.844
3684.32	0.845
3693.4	0.846
3702.49	0.847
3711.57	0.847
3720.65	0.848
3729.73	0.849
3738.82	0.849
3747.9	0.849
3756.98	0.85
3766.06	0.849
3775.15	0.848
3784.23	0.847
3793.31	0.8463
3802.39	0.844
