Infrared Spectrum: 3-Fluorophenylacetic acid
Formula: C 8 H 7 F O 2
CAS: 331-25-9
State: gas
Origin: EPA-IR VAPOR PHASE LIBRARY
1/CM	ABSORBANCE
549.8	0.008226
559.445	0.009766
569.09	0.011086
578.734	0.026336
588.379	0.035916
598.024	0.023806
607.669	0.019536
617.313	0.020296
626.958	0.017256
636.603	0.013926
646.248	0.010426
655.893	0.007906
665.537	0.009236
675.182	0.014286
684.827	0.020076
694.472	0.019526
704.116	0.015626
713.761	0.009226
723.406	0.004976
733.051	0.004326
742.695	0.005306
752.34	0.009366
761.985	0.016426
771.63	0.020566
781.275	0.016296
790.919	0.009476
800.564	0.004526
810.209	0.002506
819.854	0.002116
829.498	0.002496
839.143	0.003286
848.788	0.005076
858.433	0.005506
868.078	0.005496
877.722	0.006926
887.367	0.007876
897.012	0.006616
906.657	0.005406
916.301	0.005736
925.946	0.005756
935.591	0.005796
945.236	0.007076
954.88	0.010586
964.525	0.009456
974.17	0.004236
983.815	0.002656
993.46	0.002506
1003.1	0.002266
1012.75	0.002176
1022.39	0.001876
1032.04	0.002216
1041.68	0.002736
1051.33	0.003516
1060.97	0.006206
1070.62	0.010176
1080.26	0.017116
1089.91	0.027926
1099.55	0.049656
1109.2	0.075996
1118.84	0.077756
1128.49	0.053836
1138.13	0.046106
1147.78	0.038746
1157.42	0.023116
1167.07	0.015176
1176.71	0.013016
1186.36	0.013846
1196	0.015376
1205.64	0.015776
1215.29	0.016186
1224.93	0.015946
1234.58	0.018216
1244.22	0.026416
1253.87	0.038296
1263.51	0.035076
1273.16	0.021666
1282.8	0.016126
1292.45	0.013326
1302.09	0.010656
1311.74	0.008856
1321.38	0.008206
1331.03	0.009136
1340.67	0.012336
1350.32	0.015666
1359.96	0.015636
1369.61	0.012986
1379.25	0.009446
1388.9	0.006536
1398.54	0.005586
1408.18	0.005746
1417.83	0.006446
1427.47	0.008866
1437.12	0.013736
1446.76	0.018786
1456.41	0.017166
1466.05	0.010846
1475.7	0.013656
1485.34	0.025706
1494.99	0.023196
1504.63	0.009436
1514.28	0.006106
1523.92	0.005236
1533.57	0.003736
1543.21	0.003346
1552.86	0.003956
1562.5	0.006326
1572.15	0.011186
1581.79	0.020256
1591.44	0.029936
1601.08	0.030216
1610.73	0.029616
1620.37	0.023986
1630.01	0.008626
1639.66	0.003006
1649.3	0.002176
1658.95	0.002236
1668.59	0.002406
1678.24	0.002446
1687.88	0.002646
1697.53	0.003296
1707.17	0.004126
1716.82	0.005796
1726.46	0.008876
1736.11	0.014766
1745.75	0.024926
1755.4	0.039816
1765.04	0.058776
1774.69	0.081016
1784.33	0.086086
1793.98	0.066736
1803.62	0.044036
1813.27	0.023426
1822.91	0.011196
1832.55	0.005876
1842.2	0.003996
1851.84	0.003096
1861.49	0.002226
1871.13	0.001706
1880.78	0.001526
1890.42	0.0014342
1900.07	0.0013859
1909.71	0.001506
1919.36	0.001766
1929	0.001776
1938.65	0.0014108
1948.29	0.0010452
1957.94	0.0010725
1967.58	0.0010615
1977.23	0.0009249
1986.87	0.0008825
1996.52	0.0009071
2006.16	0.0008805
2015.81	0.000909
2025.45	0.0008642
2035.1	0.0008087
2044.74	0.000845
2054.38	0.0007568
2064.03	0.0006832
2073.67	0.0006214
2083.32	0.0006298
2092.96	0.0006851
2102.61	0.0006359
2112.25	0.0006505
2121.9	0.000681
2131.54	0.0006569
2141.19	0.0005727
2150.83	0.0006401
2160.48	0.0006595
2170.12	0.0006184
2179.77	0.000735
2189.41	0.0008124
2199.06	0.0008922
2208.7	0.0010048
2218.35	0.0010348
2227.99	0.0008887
2237.64	0.0008428
2247.28	0.0006899
2256.92	0.0007217
2266.57	0.0006013
2276.21	0.0006508
2285.86	0.0006046
2295.5	0.0006456
2305.15	0.0007267
2314.79	0.000751
2324.44	0.0007642
2334.08	0.0007732
2343.73	0.0007888
2353.37	0.0007383
2363.02	0.0007817
2372.66	0.0009504
2382.31	0.0009703
2391.95	0.0008835
2401.6	0.0008226
2411.24	0.0007478
2420.89	0.0007771
2430.53	0.0006909
2440.18	0.000735
2449.82	0.0006542
2459.47	0.0006933
2469.11	0.00054737
2478.75	0.0006153
2488.4	0.0006635
2498.04	0.00056536
2507.69	0.0006425
2517.33	0.0005807
2526.98	0.0005874
2536.62	0.00052935
2546.27	0.00048237
2555.91	0.00054321
2565.56	0.00053246
2575.2	0.0005798
2584.85	0.0004531
2594.49	0.000442
2604.14	0.00048747
2613.78	0.00056103
2623.43	0.000278
2633.07	0.00045769
2642.72	0.0003972
2652.36	0.0004427
2662.01	0.000341
2671.65	0.000266
2681.29	0.0004125
2690.94	0.0004029
2700.58	0.00050927
2710.23	0.000314
2719.87	0.00045608
2729.52	0.0004787
2739.16	0.00054704
2748.81	0.00046141
2758.45	0.000288
2768.1	0.0003
2777.74	0.000318
2787.39	0.000418
2797.03	0.00036
2806.68	0.0003757
2816.32	0.0003759
2825.97	0.00054232
2835.61	0.00049206
2845.26	0.0006107
2854.9	0.0006416
2864.55	0.0006106
2874.19	0.00052878
2883.84	0.0006848
2893.48	0.0008132
2903.12	0.0008396
2912.77	0.001287
2922.41	0.001896
2932.06	0.002776
2941.7	0.002806
2951.35	0.002756
2960.99	0.002366
2970.64	0.001936
2980.28	0.001866
2989.93	0.001836
2999.57	0.001526
3009.22	0.0012892
3018.86	0.0012983
3028.51	0.001986
3038.15	0.003186
3047.8	0.004476
3057.44	0.004816
3067.09	0.004806
3076.73	0.004896
3086.38	0.004546
3096.02	0.003016
3105.67	0.001716
3115.31	0.0012577
3124.95	0.000745
3134.6	0.0006012
3144.24	0.000264
3153.89	0.000163
3163.53	0.000289
3173.18	0.00033
3182.82	0.000261
3192.47	0.0004128
3202.11	0.000226
3211.76	0.000354
3221.4	0.0003693
3231.05	0.000468731
3240.69	0.000175
3250.34	0.000169
3259.98	0.00026
3269.63	5.7e-05
3279.27	0.000306
3288.92	0.000247
3298.56	0.0003826
3308.21	0.000308
3317.85	2.6e-05
3327.49	0.000329
3337.14	0.000216
3346.78	0.000324
3356.43	0.000341
3366.07	0.000364
3375.72	0.000206
3385.36	0.000172
3395.01	0.000283
3404.65	0.000258
3414.3	0.000199
3423.94	0.00032
3433.59	0.000257
3443.23	0.000247
3452.88	0.0003974
3462.52	0.000264
3472.17	0.000472026
3481.81	0.00049542
3491.46	0.00053877
3501.1	0.0006962
3510.75	0.0008595
3520.39	0.001281
3530.04	0.001846
3539.68	0.002796
3549.32	0.005096
3558.97	0.011556
3568.61	0.034676
3578.26	0.037026
3587.9	0.012726
3597.55	0.004956
3607.19	0.002426
3616.84	0.0013552
3626.48	0.0009504
3636.13	0.00048613
3645.77	0.00052599
3655.42	0.0004233
3665.06	0.000238
3674.71	0.0003843
3684.35	0.0004295
3694	0.0003696
3703.64	0.000296
3713.29	0.00024
3722.93	0.000309
3732.58	0.000255
3742.22	0.0003774
3751.86	0.00050732
3761.51	0.0003729
3771.15	0.00033
3780.8	0.000221
3790.44	0.0004079
3800.09	0.00048035
3809.73	0.000154
3819.38	0.000237
3829.02	0.000125
3838.67	0.0003936
3848.31	0.000124
3857.96	0.000267
3867.6	0.000223
3877.25	0.000248
3886.89	0.0003892
3896.54	0.0004327
3906.18	0.000159
3915.83	0.000109
3925.47	0.000261
3935.12	0.000241
3944.76	7.4e-05
3954.41	8.5e-05
3964.05	0.000264
3973.69	0.000217
3983.34	0.000129
3992.98	0.000278
