Infrared Spectrum: CINNAMIC ACID, 3,4-DIHYDROXY-
Formula: C9 H8 O4
CAS: 331-39-5
State: SOLID (OIL MULL)
Class: COBLENTZ III
Instrument: CARY 90 (GRATING)
Instrument parameters: ORDER CHANGES: 3000, 2000, 1200 CM^-^1
Sampling: TRANSMISSION
Resolution: 2
Origin: WESTERN REGIONAL RES. USDA
1/CM	TRANSMITTANCE
3996	0.8022
3987	0.8037
3978	0.8054
3969	0.8068
3960	0.8084
3951	0.8097
3942	0.8111
3933	0.8128
3924	0.8146
3915	0.8162
3906	0.818
3897	0.8197
3888	0.8214
3879	0.8231
3870	0.8243
3861	0.8253
3852	0.8264
3843	0.8274
3834	0.8288
3825	0.8303
3816	0.8318
3807	0.8334
3798	0.835
3789	0.8371
3780	0.8393
3771	0.8415
3762	0.8437
3753	0.8459
3744	0.8478
3735	0.8496
3726	0.8514
3717	0.8531
3708	0.8549
3699	0.8567
3690	0.8581
3681	0.8594
3672	0.8607
3663	0.8618
3654	0.8631
3645	0.8642
3636	0.8657
3627	0.8671
3618	0.8686
3609	0.8701
3600	0.8714
3591	0.8724
3582	0.8728
3573	0.8736
3564	0.8755
3555	0.8749
3546	0.8742
3537	0.8716
3528	0.869
3519	0.8653
3510	0.8614
3501	0.8535
3492	0.844
3483	0.8193
3474	0.7895
3465	0.7521
3456	0.6948
3447	0.5746
3438	0.4544
3429	0.3847
3420	0.4032
3411	0.437
3402	0.4465
3393	0.4743
3384	0.5152
3375	0.556
3366	0.5909
3357	0.6166
3348	0.6302
3339	0.6342
3330	0.6357
3321	0.6347
3312	0.6318
3303	0.626
3294	0.6177
3285	0.6038
3276	0.5844
3267	0.5602
3258	0.5371
3249	0.5154
3240	0.5036
3231	0.5002
3222	0.5019
3213	0.5255
3204	0.5454
3195	0.5647
3186	0.5859
3177	0.6037
3168	0.6206
3159	0.6335
3150	0.6425
3141	0.6495
3132	0.6533
3123	0.6558
3114	0.6575
3105	0.6589
3096	0.6565
3087	0.6526
3078	0.6474
3069	0.6404
3060	0.633
3051	0.6226
3042	0.6125
3033	0.603
3024	0.596
3015	0.5898
3006	0.5802
2997	0.5616
2988	0.531
2979	0.4951
2970	0.3843
2961	0.2275
2952	0.1101
2943	0.1269
2934	0.1415
2925	0.0815
2916	0.0753
2907	0.1328
2898	0.1903
2889	0.2478
2880	0.3053
2871	0.2655
2862	0.2126
2853	0.1935
2844	0.2266
2835	0.497
2826	0.5545
2817	0.5958
2808	0.6299
2799	0.6585
2790	0.6749
2781	0.6855
2772	0.6972
2763	0.7068
2754	0.7105
2745	0.7089
2736	0.7068
2727	0.7045
2718	0.7015
2709	0.6986
2700	0.6965
2691	0.6969
2682	0.7005
2673	0.7061
2664	0.7137
2655	0.7218
2646	0.7276
2637	0.7214
2628	0.7167
2619	0.7161
2610	0.7151
2601	0.7112
2592	0.7037
2583	0.6981
2574	0.6946
2565	0.6943
2556	0.6976
2547	0.7041
2538	0.7151
2529	0.7274
2520	0.7405
2511	0.7519
2502	0.7615
2493	0.7711
2484	0.7805
2475	0.7897
2466	0.7976
2457	0.8041
2448	0.8106
2439	0.8157
2430	0.8184
2421	0.8211
2412	0.8245
2403	0.8278
2394	0.8321
2385	0.8362
2376	0.8403
2367	0.8454
2358	0.8507
2349	0.8557
2340	0.8602
2331	0.8647
2322	0.868
2313	0.8709
2304	0.8738
2295	0.8744
2286	0.8754
2277	0.8768
2268	0.8784
2259	0.8814
2250	0.8847
2241	0.888
2232	0.8915
2223	0.895
2214	0.8985
2205	0.9018
2196	0.905
2187	0.9081
2178	0.9098
2169	0.9108
2160	0.9118
2151	0.9131
2142	0.9145
2133	0.9157
2124	0.9167
2115	0.9175
2106	0.9184
2097	0.9192
2088	0.9201
2079	0.9212
2070	0.9223
2061	0.9237
2052	0.9251
2043	0.9265
2034	0.9278
2025	0.929
2016	0.9305
2007	0.9334
1998	0.947
1989	0.95
1980	0.9512
1971	0.9523
1962	0.9525
1953	0.9525
1944	0.9528
1935	0.9524
1926	0.9523
1917	0.9523
1908	0.9525
1899	0.9532
1890	0.9552
1881	0.9571
1872	0.9591
1863	0.9609
1854	0.9627
1845	0.9645
1836	0.9666
1827	0.9681
1818	0.9695
1809	0.9708
1800	0.972
1791	0.9732
1782	0.9736
1773	0.9739
1764	0.974
1755	0.9737
1746	0.9727
1737	0.9709
1728	0.9675
1719	0.9613
1710	0.9414
1701	0.9095
1692	0.8582
1683	0.7899
1674	0.6871
1665	0.5253
1656	0.3368
1647	0.1426
1638	0.2628
1629	0.4332
1620	0.1908
1611	0.3373
1602	0.389
1593	0.5032
1584	0.6706
1575	0.7569
1566	0.8047
1557	0.8349
1548	0.8557
1539	0.8353
1530	0.726
1521	0.7545
1512	0.8391
1503	0.8402
1494	0.8321
1485	0.8118
1476	0.6884
1467	0.4652
1458	0.2328
1449	0.1325
1440	0.3053
1431	0.6173
1422	0.7741
1413	0.8335
1404	0.8565
1395	0.8511
1386	0.7975
1377	0.5912
1368	0.6528
1359	0.7101
1350	0.6865
1341	0.7668
1332	0.6606
1323	0.5712
1314	0.4985
1305	0.324
1296	0.2008
1287	0.3252
1278	0.1626
1269	0.3414
1260	0.5494
1251	0.6617
1242	0.7055
1233	0.5571
1224	0.402
1215	0.329
1206	0.5264
1197	0.6575
1188	0.7126
1179	0.678
1170	0.6596
1161	0.7898
1152	0.8494
1143	0.8918
1134	0.9092
1125	0.6407
1116	0.5217
1107	0.7954
1098	0.8449
1089	0.8967
1080	0.9223
1071	0.9327
1062	0.9371
1053	0.9375
1044	0.9306
1035	0.9288
1026	0.9407
1017	0.9467
1008	0.9504
999	0.9515
990	0.9432
981	0.9158
972	0.6921
963	0.8537
954	0.9263
945	0.9415
936	0.8698
927	0.9235
918	0.8852
909	0.8317
900	0.7835
891	0.8324
882	0.9015
873	0.9382
864	0.9411
855	0.8514
846	0.951
837	0.9812
828	0.9823
819	0.7451
810	0.9595
801	0.8659
792	1.0021
783	0.8785
774	0.9483
765	1.0061
756	1.0111
747	1.0101
738	0.9656
729	0.9858
720	0.9918
711	0.9986
702	0.9325
693	0.9739
684	0.9934
675	0.9904
666	0.9746
657	0.9475
648	0.9289
639	0.9421
630	0.9561
621	0.9618
612	0.9528
603	0.8628
594	0.8657
585	0.9075
576	0.6794
567	0.8881
558	0.8781
549	0.9054
540	0.9221
531	0.9334
522	0.9423
513	0.9492
504	0.9525
495	0.9475
486	0.9397
477	0.9299
