Infrared Spectrum: 2-AMINO-4-PHENYL OXAZOLE
Formula: C9 H8 N2 O
CAS: 33119-65-2
State: SOLID (KBr PELLET)
Class: COBLENTZ
Instrument: Not specified, most likely a prism, grating, or hybrid spectrometer.
Sampling: TRANSMISSION
Resolution: 4
Origin: TENNESSEE EASTMAN COMPANY, RESEARCH LABORATORIES
MICROMETERS	TRANSMITTANCE
2.034	0.993
2.07496	0.993
2.11591	0.996
2.15687	0.998
2.19782	1
2.23878	1
2.27974	0.996
2.32069	0.991
2.36165	0.986
2.4026	0.982
2.44356	0.981
2.48452	0.981
2.52547	0.981
2.56643	0.979
2.60738	0.965
2.64834	0.964
2.68929	0.964
2.73025	0.942
2.77121	0.88
2.81216	0.816
2.85312	0.742
2.89407	0.347
2.93503	0.724
2.97599	0.701
3.01694	0.587
3.0579	0.601
3.09885	0.616
3.13981	0.434
3.18077	0.24
3.22172	0.393
3.26268	0.49
3.30363	0.614
3.34459	0.722
3.38555	0.766
3.4265	0.81
3.46746	0.85
3.50841	0.87
3.54937	0.87
3.59033	0.875
3.63128	0.899
3.67224	0.899
3.71319	0.904
3.75415	0.918
3.79511	0.926
3.83606	0.93
3.87702	0.935
3.91797	0.942
3.95893	0.942
3.99988	0.945
4.04084	0.948
4.0818	0.95
4.12275	0.95
4.16371	0.95
4.20466	0.948
4.24562	0.948
4.28658	0.942
4.32753	0.942
4.36849	0.947
4.40944	0.95
4.4504	0.95
4.49136	0.95
4.53231	0.948
4.57327	0.943
4.61422	0.942
4.65518	0.95
4.69614	0.947
4.73709	0.948
4.77805	0.948
4.819	0.95
4.85996	0.948
4.90092	0.945
4.94187	0.947
4.98283	0.95
5.02378	0.952
5.06474	0.945
5.1057	0.942
5.14665	0.945
5.18761	0.95
5.22856	0.947
5.26952	0.913
5.31047	0.936
5.35143	0.95
5.39239	0.954
5.43334	0.95
5.4743	0.94
5.51525	0.94
5.55621	0.933
5.59717	0.936
5.63812	0.935
5.67908	0.913
5.72003	0.88
5.76099	0.853
5.80195	0.834
5.8429	0.761
5.88386	0.65
5.92481	0.385
5.96577	0.025
6.00673	0.117
6.04768	0.402
6.08864	0.626
6.12959	0.703
6.17055	0.722
6.21151	0.614
6.25246	0.683
6.29342	0.55
6.33437	0.713
6.37533	0.737
6.41629	0.826
6.45724	0.872
6.4982	0.88
6.53915	0.89
6.58011	0.882
6.62106	0.877
6.66202	0.652
6.70298	0.781
6.74393	0.807
6.78489	0.821
6.82584	0.742
6.8668	0.277
6.90776	0.683
6.94871	0.771
6.98967	0.744
7.03062	0.632
7.07158	0.512
7.11254	0.333
7.15349	0.327
7.19445	0.519
7.2354	0.706
7.27636	0.77
7.31732	0.812
7.35827	0.817
7.39923	0.805
7.44018	0.781
7.48114	0.729
7.5221	0.735
7.56305	0.758
7.60401	0.759
7.64496	0.804
7.68592	0.509
7.72688	0.671
7.76783	0.688
7.80879	0.781
7.84974	0.805
7.8907	0.81
7.93165	0.814
7.97261	0.821
8.01357	0.821
8.05452	0.81
8.09548	0.751
8.13643	0.798
8.17739	0.827
8.21835	0.833
8.2593	0.829
8.30026	0.829
8.34121	0.819
8.38217	0.819
8.42313	0.81
8.46408	0.776
8.50504	0.797
8.54599	0.798
8.58695	0.766
8.62791	0.741
8.66886	0.795
8.70982	0.797
8.75077	0.797
8.79173	0.797
8.83269	0.792
8.87364	0.792
8.9146	0.787
8.95555	0.778
8.99651	0.768
9.03746	0.744
9.07842	0.725
9.11938	0.666
9.16033	0.4
9.20129	0.255
9.24224	0.304
9.2832	0.293
9.32416	0.209
9.36511	0.344
9.40607	0.608
9.44702	0.725
9.48798	0.783
9.52894	0.8
9.56989	0.804
9.61085	0.797
9.6518	0.756
9.69276	0.669
9.73372	0.705
9.77467	0.795
9.81563	0.816
9.85658	0.829
9.89754	0.841
9.9385	0.844
9.97945	0.838
10.0204	0.833
10.0614	0.831
10.1023	0.838
10.1433	0.824
10.1842	0.838
10.2252	0.85
10.2661	0.841
10.3071	0.824
10.3481	0.827
10.389	0.812
10.43	0.691
10.4709	0.354
10.5119	0.228
10.5528	0.325
10.5938	0.398
10.6347	0.58
10.6757	0.783
10.7167	0.819
10.7576	0.846
10.7986	0.853
10.8395	0.856
10.8805	0.858
10.9214	0.85
10.9624	0.751
11.0033	0.768
11.0443	0.846
11.0853	0.87
11.1262	0.879
11.1672	0.885
11.2081	0.889
11.2491	0.889
11.29	0.889
11.331	0.889
11.372	0.889
11.4129	0.89
11.4539	0.892
11.4948	0.892
11.5358	0.892
11.5767	0.894
11.6177	0.896
11.6586	0.894
11.6996	0.88
11.7406	0.863
11.7815	0.858
11.8225	0.86
11.8634	0.868
11.9044	0.873
11.9453	0.872
11.9863	0.872
12.0272	0.872
12.0682	0.87
12.1092	0.868
12.1501	0.863
12.1911	0.858
12.232	0.855
12.273	0.848
12.3139	0.839
12.3549	0.838
12.3959	0.836
12.4368	0.833
12.4778	0.827
12.5187	0.821
12.5597	0.817
12.6006	0.807
12.6416	0.8
12.6825	0.788
12.7235	0.77
12.7645	0.732
12.8054	0.618
12.8464	0.349
12.8873	0.299
12.9283	0.415
12.9692	0.623
13.0102	0.72
13.0511	0.78
13.0921	0.819
13.1331	0.848
13.174	0.856
13.215	0.851
13.2559	0.836
13.2969	0.8
13.3378	0.759
13.3788	0.689
13.4198	0.671
13.4607	0.734
13.5017	0.787
13.5426	0.8
13.5836	0.804
13.6245	0.802
13.6655	0.79
13.7064	0.776
13.7474	0.751
13.7884	0.722
13.8293	0.674
13.8703	0.596
13.9112	0.425
13.9522	0.209
13.9931	0.112
14.0341	0.078
14.075	0.081
14.116	0.141
14.157	0.27
14.1979	0.4
14.2389	0.504
14.2798	0.56
14.3208	0.589
14.3617	0.592
14.4027	0.555
14.4436	0.5
14.4846	0.485
14.5256	0.529
14.5665	0.609
14.6075	0.66
14.6484	0.688
14.6894	0.698
14.7303	0.701
14.7713	0.703
14.8123	0.7
14.8532	0.688
14.8942	0.672
14.9351	0.64
14.9761	0.591
15.017	0.557
15.058	0.541
15.0989	0.557
15.1399	0.575
15.1809	0.587
15.2218	0.594
15.2628	0.594
15.3037	0.592
15.3447	0.591
15.3856	0.586
15.4266	0.58
15.4675	0.577
15.5085	0.572
15.5495	0.568
15.5904	0.562
15.6314	0.558
15.6723	0.557
15.7133	0.55
15.7542	0.548
15.7952	0.543
15.8362	0.538
15.8771	0.533
15.9181	0.529
15.959	0.528
16	0.524
