Infrared Spectrum: UREA, N-2-CHLOROETHYL-N'-(5-NITROTHIAZOL-2-YL)-
Formula: C6 H7 Cl N4 O3 S
CAS: 3311-98-6
State: SOLID (1 mg / 650 mg KBr DISC)
Class: COBLENTZ III
Instrument: PERKIN-ELMER 521 (GRATING)
Sampling: TRANSMISSION
Resolution: 4
Origin: SOUTHERN RESEARCH INSTITUTE
1/CM	TRANSMITTANCE
265.873	0.434
276.455	0.482
287.037	0.557
297.619	0.625
308.201	0.651
318.783	0.698
329.365	0.711
339.947	0.7569
350.529	0.793
361.111	0.789
371.693	0.726
382.275	0.794
392.857	0.827
403.439	0.847
414.021	0.84
424.603	0.835
435.185	0.839
445.767	0.83
456.349	0.821
466.931	0.817
477.514	0.8
488.096	0.6681
498.678	0.7269
509.26	0.719
519.842	0.725
530.424	0.752
541.006	0.785
551.588	0.814
562.17	0.832
572.752	0.839
583.334	0.839
593.916	0.819
604.498	0.815
615.08	0.794
625.662	0.796
636.244	0.743
646.826	0.732
657.408	0.7188
667.99	0.786
678.572	0.736
689.154	0.651
699.736	0.838
710.318	0.806
720.9	0.7191
731.482	0.6459
742.064	0.756
752.646	0.703
763.228	0.707
773.81	0.725
784.392	0.692
794.974	0.743
805.556	0.6322
816.138	0.8429
826.72	0.871
837.302	0.864
847.884	0.825
858.466	0.7806
869.048	0.851
879.631	0.773
890.213	0.868
900.795	0.871
911.377	0.867
921.959	0.86
932.541	0.848
943.123	0.826
953.705	0.823
964.287	0.821
974.869	0.793
985.451	0.732
996.033	0.744
1006.61	0.803
1017.2	0.807
1027.78	0.805
1038.36	0.773
1048.94	0.718
1059.52	0.573
1070.11	0.7249
1080.69	0.768
1091.27	0.753
1101.85	0.719
1112.44	0.689
1123.02	0.7519
1133.6	0.755
1144.18	0.727
1154.76	0.66
1165.35	0.502
1175.93	0.5594
1186.51	0.568
1197.09	0.503
1207.67	0.357
1218.26	0.256
1228.84	0.235
1239.42	0.2729
1250	0.33
1260.58	0.435
1271.17	0.626
1281.75	0.605
1292.33	0.536
1302.91	0.3351
1313.49	0.3979
1324.08	0.656
1334.66	0.5182
1345.24	0.1402
1355.82	0.3229
1366.4	0.5859
1376.99	0.782
1387.57	0.806
1398.15	0.767
1408.73	0.678
1419.31	0.53
1429.9	0.369
1440.48	0.4309
1451.06	0.561
1461.64	0.521
1472.22	0.394
1482.81	0.214
1493.39	0.4438
1503.97	0.482
1514.55	0.3011
1525.13	0.319
1535.72	0.267
1546.3	0.227
1556.88	0.3169
1567.46	0.353
1578.04	0.414
1588.63	0.582
1599.21	0.646
1609.79	0.653
1620.37	0.647
1630.95	0.648
1641.54	0.613
1652.12	0.546
1662.7	0.3891
1673.28	0.18
1683.86	0.363
1694.45	0.505
1705.03	0.6099
1715.61	0.7719
1726.19	0.868
1736.77	0.914
1747.36	0.925
1757.94	0.923
1768.52	0.923
1779.1	0.942
1789.68	0.955
1800.27	0.957
1810.85	0.955
1821.43	0.959
1832.01	0.959
1842.59	0.955
1853.18	0.955
1863.76	0.953
1874.34	0.956
1884.92	0.953
1895.51	0.95
1906.09	0.944
1916.67	0.943
1927.25	0.942
1937.83	0.939
1948.42	0.936
1959	0.935
1969.58	0.931
1980.16	0.927
1990.74	0.926
2001.33	0.922
2011.91	0.921
2022.49	0.918
2033.07	0.918
2043.65	0.917
2054.24	0.917
2064.82	0.9141
2075.4	0.913
2085.98	0.911
2096.56	0.9091
2107.15	0.907
2117.73	0.905
2128.31	0.903
2138.89	0.901
2149.47	0.9
2160.06	0.898
2170.64	0.897
2181.22	0.8932
2191.8	0.892
2202.38	0.89
2212.97	0.888
2223.55	0.885
2234.13	0.884
2244.71	0.881
2255.29	0.881
2265.88	0.88
2276.46	0.8737
2287.04	0.872
2297.62	0.871
2308.2	0.871
2318.79	0.8638
2329.37	0.857
2339.95	0.857
2350.53	0.857
2361.11	0.856
2371.7	0.856
2382.28	0.8555
2392.86	0.848
2403.44	0.8425
2414.02	0.839
2424.61	0.84
2435.19	0.839
2445.77	0.8372
2456.35	0.8306
2466.93	0.814
2477.52	0.814
2488.1	0.814
2498.68	0.811
2509.26	0.8017
2519.84	0.798
2530.43	0.794
2541.01	0.79
2551.59	0.788
2562.17	0.7835
2572.75	0.777
2583.34	0.769
2593.92	0.7594
2604.5	0.75
2615.08	0.747
2625.66	0.7453
2636.25	0.7358
2646.83	0.7277
2657.41	0.717
2667.99	0.6967
2678.57	0.6819
2689.16	0.68
2699.74	0.6759
2710.32	0.6669
2720.9	0.6459
2731.49	0.636
2742.07	0.636
2752.65	0.642
2763.23	0.636
2773.81	0.621
2784.4	0.607
2794.98	0.603
2805.56	0.601
2816.14	0.5921
2826.72	0.5771
2837.31	0.5645
2847.89	0.553
2858.47	0.5483
2869.05	0.557
2879.63	0.56
2890.22	0.5484
2900.8	0.523
2911.38	0.51
2921.96	0.507
2932.54	0.505
2943.13	0.5132
2953.71	0.5307
2964.29	0.5488
2974.87	0.5785
2985.45	0.6121
2996.04	0.621
3006.62	0.618
3017.2	0.6186
3027.78	0.6353
3038.36	0.656
3048.95	0.656
3059.53	0.6514
3070.11	0.6469
3080.69	0.6354
3091.27	0.6411
3101.86	0.6555
3112.44	0.659
3123.02	0.651
3133.6	0.6406
3144.18	0.6046
3154.77	0.59
3165.35	0.6048
3175.93	0.6491
3186.51	0.6774
3197.09	0.689
3207.68	0.689
3218.26	0.685
3228.84	0.6799
3239.42	0.6626
3250	0.6413
3260.59	0.6347
3271.17	0.6294
3281.75	0.625
3292.33	0.6137
3302.91	0.579
3313.5	0.5425
3324.08	0.5016
3334.66	0.4568
3345.24	0.4562
3355.82	0.4826
3366.41	0.5217
3376.99	0.5436
3387.57	0.5631
3398.15	0.5904
3408.73	0.6132
3419.32	0.6271
3429.9	0.6442
3440.48	0.657
3451.06	0.663
3461.64	0.669
3472.23	0.676
3482.81	0.68
3493.39	0.689
3503.97	0.696
3514.56	0.702
3525.14	0.711
3535.72	0.719
3546.3	0.7319
3556.88	0.7438
3567.47	0.7509
3578.05	0.7588
3588.63	0.767
3599.21	0.7759
3609.79	0.7877
3620.38	0.7957
3630.96	0.801
3641.54	0.801
3652.12	0.802
3662.7	0.8002
3673.29	0.8
3683.87	0.803
3694.45	0.805
3705.03	0.805
3715.61	0.805
3726.2	0.805
3736.78	0.805
3747.36	0.803
3757.94	0.803
3768.52	0.802
3779.11	0.802
3789.69	0.801
3800.27	0.798
3810.85	0.797
3821.43	0.794
3832.02	0.792
3842.6	0.79
3853.18	0.789
3863.76	0.788
3874.34	0.785
3884.93	0.784
3895.51	0.785
3906.09	0.785
3916.67	0.785
3927.25	0.785
3937.84	0.785
3948.42	0.785
3959	0.782
3969.58	0.782
3980.16	0.782
3990.75	0.7843
