Infrared Spectrum: 2,3,4-Trimethoxycinnamic acid
Formula: C 12 H 14 O 5
CAS: 33130-03-9
State: gas
Origin: EPA-IR VAPOR PHASE LIBRARY
1/CM	ABSORBANCE
549.8	0.005083
559.445	0.003593
569.09	0.003103
578.734	0.003453
588.379	0.004113
598.024	0.003403
607.669	0.002563
617.313	0.002373
626.958	0.002243
636.603	0.002303
646.248	0.002223
655.893	0.002143
665.537	0.001753
675.182	0.001243
684.827	0.0010844
694.472	0.0009667
704.116	0.0008637
713.761	0.0008103
723.406	0.0010616
733.051	0.0009076
742.695	0.000948
752.34	0.0009475
761.985	0.0010872
771.63	0.0010883
781.275	0.001473
790.919	0.002903
800.564	0.003333
810.209	0.002523
819.854	0.001933
829.498	0.0010503
839.143	0.0009133
848.788	0.0009402
858.433	0.001173
868.078	0.001623
877.722	0.001263
887.367	0.001623
897.012	0.002123
906.657	0.002203
916.301	0.001713
925.946	0.001543
935.591	0.001943
945.236	0.002983
954.88	0.002503
964.525	0.002383
974.17	0.003153
983.815	0.004373
993.46	0.003863
1003.1	0.004173
1012.75	0.006793
1022.39	0.007523
1032.04	0.006773
1041.68	0.008273
1051.33	0.007893
1060.97	0.007013
1070.62	0.008603
1080.26	0.012203
1089.91	0.016653
1099.55	0.024363
1109.2	0.037803
1118.84	0.034103
1128.49	0.013313
1138.13	0.009443
1147.78	0.012313
1157.42	0.014613
1167.07	0.009323
1176.71	0.006483
1186.36	0.005453
1196	0.006083
1205.64	0.005883
1215.29	0.006313
1224.93	0.007623
1234.58	0.009023
1244.22	0.009403
1253.87	0.009743
1263.51	0.011583
1273.16	0.014623
1282.8	0.020053
1292.45	0.024793
1302.09	0.017523
1311.74	0.008743
1321.38	0.005543
1331.03	0.004533
1340.67	0.004783
1350.32	0.006293
1359.96	0.006173
1369.61	0.003943
1379.25	0.002803
1388.9	0.002723
1398.54	0.003863
1408.18	0.008463
1417.83	0.010733
1427.47	0.006603
1437.12	0.006783
1446.76	0.005763
1456.41	0.008173
1466.05	0.012003
1475.7	0.009203
1485.34	0.013683
1494.99	0.015743
1504.63	0.005513
1514.28	0.002753
1523.92	0.002063
1533.57	0.001843
1543.21	0.001913
1552.86	0.002323
1562.5	0.003243
1572.15	0.004553
1581.79	0.006933
1591.44	0.009493
1601.08	0.007523
1610.73	0.004493
1620.37	0.004893
1630.01	0.010453
1639.66	0.011333
1649.3	0.002923
1658.95	0.001583
1668.59	0.001283
1678.24	0.001273
1687.88	0.001413
1697.53	0.001783
1707.17	0.002613
1716.82	0.003493
1726.46	0.005693
1736.11	0.011513
1745.75	0.028333
1755.4	0.029253
1765.04	0.012153
1774.69	0.006213
1784.33	0.005213
1793.98	0.003253
1803.62	0.002013
1813.27	0.001463
1822.91	0.0011134
1832.55	0.0009598
1842.2	0.0008922
1851.84	0.0008905
1861.49	0.0007886
1871.13	0.0007952
1880.78	0.0007323
1890.42	0.0006339
1900.07	0.0006429
1909.71	0.0007113
1919.36	0.0007237
1929	0.0007008
1938.65	0.0007091
1948.29	0.0007228
1957.94	0.0006557
1967.58	0.0006174
1977.23	0.0007011
1986.87	0.0005842
1996.52	0.0006255
2006.16	0.0006168
2015.81	0.0005989
2025.45	0.00062
2035.1	0.0007026
2044.74	0.0006767
2054.38	0.0006556
2064.03	0.0005733
2073.67	0.0004821
2083.32	0.0005095
2092.96	0.0004379
2102.61	0.0004571
2112.25	0.0004885
2121.9	0.000514
2131.54	0.0004486
2141.19	0.0004595
2150.83	0.0004843
2160.48	0.0004485
2170.12	0.0004894
2179.77	0.0004661
2189.41	0.0004155
2199.06	0.0004325
2208.7	0.0003592
2218.35	0.0003994
2227.99	0.0005126
2237.64	0.0004151
2247.28	0.0004019
2256.92	0.0003967
2266.57	0.0003892
2276.21	0.0003189
2285.86	0.0002932
2295.5	0.0003571
2305.15	0.0003479
2314.79	0.0002886
2324.44	0.0003003
2334.08	0.0003545
2343.73	0.0003143
2353.37	0.0003129
2363.02	0.0003849
2372.66	0.0003374
2382.31	0.0003588
2391.95	0.00032
2401.6	0.0003317
2411.24	0.0003767
2420.89	0.0003913
2430.53	0.0003422
2440.18	0.0003707
2449.82	0.0004272
2459.47	0.000403
2469.11	0.0004029
2478.75	0.0004905
2488.4	0.0004092
2498.04	0.0003683
2507.69	0.0003991
2517.33	0.0004161
2526.98	0.0004347
2536.62	0.0004303
2546.27	0.0004651
2555.91	0.0004901
2565.56	0.000491
2575.2	0.0005331
2584.85	0.0004778
2594.49	0.0004433
2604.14	0.0004009
2613.78	0.0003685
2623.43	0.0004272
2633.07	0.0003418
2642.72	0.0004343
2652.36	0.0003038
2662.01	0.0002842
2671.65	0.0003496
2681.29	0.0003547
2690.94	0.000399
2700.58	0.000417
2710.23	0.0003066
2719.87	0.0003254
2729.52	0.0003395
2739.16	0.0003635
2748.81	0.0004518
2758.45	0.0004513
2768.1	0.0004334
2777.74	0.00053
2787.39	0.0004073
2797.03	0.0006432
2806.68	0.0008127
2816.32	0.001363
2825.97	0.002163
2835.61	0.003353
2845.26	0.004193
2854.9	0.003203
2864.55	0.002393
2874.19	0.002613
2883.84	0.002683
2893.48	0.002773
2903.12	0.003093
2912.77	0.003383
2922.41	0.003833
2932.06	0.004883
2941.7	0.008073
2951.35	0.008993
2960.99	0.005943
2970.64	0.004893
2980.28	0.004123
2989.93	0.003973
2999.57	0.004663
3009.22	0.004873
3018.86	0.003033
3028.51	0.002173
3038.15	0.001863
3047.8	0.001683
3057.44	0.001543
3067.09	0.001613
3076.73	0.001533
3086.38	0.001403
3096.02	0.001203
3105.67	0.0008684
3115.31	0.000437
3124.95	0.0005448
3134.6	0.0005219
3144.24	0.0003366
3153.89	0.0003689
3163.53	0.0002756
3173.18	0.0003991
3182.82	0.0003178
3192.47	0.00022394
3202.11	0.00022643
3211.76	0.00022025
3221.4	0.00019125
3231.05	0.0003845
3240.69	9.9e-05
3250.34	0.0002622
3259.98	0.00015863
3269.63	0.00016317
3279.27	0.00017767
3288.92	0.0002464
3298.56	0.00016928
3308.21	0.00022703
3317.85	7.45e-05
3327.49	0.0001203
3337.14	0.00016339
3346.78	0.0002453
3356.43	0.000251
3366.07	0.00020946
3375.72	0.00031
3385.36	0.000249
3395.01	0.0002768
3404.65	0.0003763
3414.3	0.0003236
3423.94	0.0002754
3433.59	0.0002565
3443.23	0.0002464
3452.88	0.0003478
3462.52	0.0002952
3472.17	0.0004375
3481.81	0.0003847
3491.46	0.0004536
3501.1	0.0002747
3510.75	0.00014371
3520.39	0.0002753
3530.04	0.0003787
3539.68	0.0004677
3549.32	0.0002931
3558.97	0.0006627
3568.61	0.001193
3578.26	0.008633
3587.9	0.010593
3597.55	0.001373
3607.19	0.0005074
3616.84	0.0003647
3626.48	0.0004085
3636.13	0.0004514
3645.77	0.0002571
3655.42	0.0003889
3665.06	0.0004652
3674.71	0.0002711
3684.35	0.00022036
3694	0.0003439
3703.64	0.000141097
3713.29	0.0002699
3722.93	2.1e-05
3732.58	0.00021727
3742.22	0.0002338
3751.86	0
3761.51	0.0002648
3771.15	0.0004554
3780.8	0.000219
3790.44	0.0002494
3800.09	0.0003774
3809.73	0.0003611
3819.38	0.0002668
3829.02	0.0003116
3838.67	0.00021697
3848.31	0.0001122
3857.96	0.00023159
3867.6	0.0003185
3877.25	0.0003359
3886.89	0.0003056
3896.54	0.0002871
3906.18	0.0002611
3915.83	0.000319
3925.47	0.000369
3935.12	0.0002856
3944.76	0.00020733
3954.41	0.0003415
3964.05	0.0003465
3973.69	0.0002835
3983.34	0.0002585
3992.98	0.0003296
