Infrared Spectrum: 3-Amino-4,5-dihydro-1-phenylpyrazole
Formula: C 9 H 11 N 3
CAS: 3314-35-0
State: gas
Origin: EPA-IR VAPOR PHASE LIBRARY
1/CM	ABSORBANCE
549.9	0.008212
559.547	0.007832
569.193	0.008332
578.84	0.008382
588.486	0.008842
598.133	0.009282
607.779	0.009432
617.426	0.009782
627.072	0.010222
636.719	0.010432
646.365	0.012412
656.012	0.017392
665.658	0.016462
675.305	0.013862
684.951	0.017262
694.598	0.016762
704.245	0.012482
713.891	0.010152
723.538	0.013152
733.184	0.021452
742.831	0.029132
752.477	0.028202
762.124	0.017072
771.77	0.009392
781.417	0.007302
791.063	0.006852
800.71	0.006672
810.356	0.006532
820.003	0.006432
829.649	0.006672
839.296	0.006922
848.943	0.006642
858.589	0.005492
868.236	0.005262
877.882	0.005402
887.529	0.004842
897.175	0.004702
906.822	0.004732
916.468	0.004372
926.115	0.004122
935.761	0.006472
945.408	0.007962
955.054	0.005242
964.701	0.005002
974.347	0.004722
983.994	0.005202
993.64	0.007762
1003.29	0.006992
1012.93	0.004392
1022.58	0.006572
1032.23	0.012412
1041.87	0.013742
1051.52	0.009492
1061.17	0.006932
1070.81	0.005012
1080.46	0.005332
1090.11	0.005642
1099.75	0.005022
1109.4	0.004562
1119.05	0.003822
1128.69	0.003512
1138.34	0.003342
1147.99	0.004082
1157.63	0.004992
1167.28	0.005772
1176.92	0.004882
1186.57	0.003352
1196.22	0.002962
1205.86	0.003682
1215.51	0.004852
1225.16	0.005542
1234.8	0.005582
1244.45	0.004662
1254.1	0.004842
1263.74	0.006232
1273.39	0.008272
1283.04	0.009472
1292.68	0.011002
1302.33	0.013432
1311.98	0.013342
1321.62	0.011712
1331.27	0.014462
1340.92	0.016122
1350.56	0.012242
1360.21	0.008432
1369.86	0.008632
1379.5	0.013192
1389.15	0.027632
1398.79	0.050522
1408.44	0.049552
1418.09	0.023282
1427.73	0.010602
1437.38	0.008732
1447.03	0.008072
1456.67	0.009102
1466.32	0.015122
1475.97	0.026852
1485.61	0.036212
1495.26	0.061472
1504.91	0.059752
1514.55	0.021932
1524.2	0.010192
1533.85	0.012432
1543.49	0.022802
1553.14	0.028612
1562.79	0.021152
1572.43	0.017252
1582.08	0.026432
1591.73	0.055702
1601.37	0.067002
1611.02	0.042012
1620.67	0.027012
1630.31	0.020172
1639.96	0.023262
1649.6	0.041492
1659.25	0.050952
1668.9	0.027552
1678.54	0.009832
1688.19	0.006132
1697.84	0.004902
1707.48	0.004072
1717.13	0.003732
1726.78	0.003312
1736.42	0.003122
1746.07	0.002802
1755.72	0.002762
1765.36	0.002622
1775.01	0.002322
1784.66	0.002052
1794.3	0.001792
1803.95	0.001662
1813.6	0.001722
1823.24	0.001872
1832.89	0.001912
1842.54	0.001982
1852.18	0.0016423
1861.83	0.0013614
1871.47	0.0013495
1881.12	0.0013072
1890.77	0.0013533
1900.41	0.0015655
1910.06	0.001802
1919.71	0.001992
1929.35	0.002002
1939	0.001802
1948.65	0.0015387
1958.29	0.0013348
1967.94	0.0011726
1977.59	0.0011774
1987.23	0.0012418
1996.88	0.0011883
2006.53	0.0011132
2016.17	0.0010456
2025.82	0.000939
2035.47	0.0009345
2045.11	0.0008786
2054.76	0.0008755
2064.41	0.0008877
2074.05	0.0008405
2083.7	0.0008006
2093.35	0.0007631
2102.99	0.00074096
2112.64	0.0007934
2122.28	0.00074569
2131.93	0.0007707
2141.58	0.0007891
2151.22	0.0008682
2160.87	0.0007714
2170.52	0.0007772
2180.16	0.00069266
2189.81	0.0006246
2199.46	0.0006177
2209.1	0.00068214
2218.75	0.00066224
2228.4	0.0007771
2238.04	0.0008034
2247.69	0.0009073
2257.34	0.0010261
2266.98	0.0010052
2276.63	0.00097
2286.28	0.0008242
2295.92	0.00074347
2305.57	0.0009104
2315.22	0.0009263
2324.86	0.000837
2334.51	0.0008596
2344.16	0.00073243
2353.8	0.00074216
2363.45	0.0007972
2373.09	0.00066906
2382.74	0.0005954
2392.39	0.000483
2402.03	0.000433
2411.68	0.000491
2421.33	0.000538
2430.97	0.0006048
2440.62	0.0006453
2450.27	0.0006474
2459.91	0.0006172
2469.56	0.000586
2479.21	0.0005611
2488.85	0.000519
2498.5	0.000509
2508.15	0.000503
2517.79	0.000521
2527.44	0.000498
2537.09	0.000555
2546.73	0.0005925
2556.38	0.00073133
2566.03	0.0008139
2575.67	0.0008998
2585.32	0.0008936
2594.96	0.0008791
2604.61	0.0007033
2614.26	0.00068625
2623.9	0.00069533
2633.55	0.0007349
2643.2	0.0006192
2652.84	0.0006173
2662.49	0.000526
2672.14	0.000466
2681.78	0.000473
2691.43	0.000509
2701.08	0.000509
2710.72	0.000532
2720.37	0.0005533
2730.02	0.000541
2739.66	0.0005942
2749.31	0.00067054
2758.96	0.0007655
2768.6	0.0008974
2778.25	0.0010454
2787.9	0.0012068
2797.54	0.0013325
2807.19	0.0015161
2816.84	0.002102
2826.48	0.003652
2836.13	0.006592
2845.77	0.008992
2855.42	0.008652
2865.07	0.005692
2874.71	0.003562
2884.36	0.003042
2894.01	0.003392
2903.65	0.004852
2913.3	0.006242
2922.95	0.008112
2932.59	0.008542
2942.24	0.007252
2951.89	0.006982
2961.53	0.007972
2971.18	0.007592
2980.83	0.005232
2990.47	0.003092
3000.12	0.002022
3009.77	0.002232
3019.41	0.003642
3029.06	0.006332
3038.71	0.009712
3048.35	0.010972
3058	0.010552
3067.64	0.012622
3077.29	0.011782
3086.94	0.007242
3096.58	0.005332
3106.23	0.003792
3115.88	0.002052
3125.52	0.0009269
3135.17	0.000521
3144.82	0.000354
3154.46	0.000253
3164.11	0.000203
3173.76	0.000488
3183.4	0.000344
3193.05	0.000244
3202.7	0.000138
3212.34	0.000132
3221.99	0.000103
3231.64	0.000115
3241.28	0.000167
3250.93	0.000214
3260.58	0.00023
3270.22	0.000146
3279.87	0.000152
3289.52	6.1e-05
3299.16	0.000198
3308.81	0.000221
3318.45	6e-05
3328.1	0.000113
3337.75	0.000206
3347.39	0.000132
3357.04	0.000462
3366.69	0.000499
3376.33	0.0008808
3385.98	0.002152
3395.63	0.005662
3405.27	0.007742
3414.92	0.004092
3424.57	0.0015522
3434.21	0.0008621
3443.86	0.0008051
3453.51	0.0008717
3463.15	0.0013116
3472.8	0.002092
3482.45	0.003982
3492.09	0.006062
3501.74	0.005102
3511.39	0.002282
3521.03	0.0010376
3530.68	0.0008668
3540.33	0.000536
3549.97	0.000556
3559.62	0.000468
3569.26	0.000469
3578.91	0.000464
3588.56	0.0005838
3598.2	0.000388
3607.85	0.000463
3617.5	0.000409
3627.14	0.00052
3636.79	0.000478
3646.44	0.000595
3656.08	0.000446
3665.73	0.000512
3675.38	0.00064638
3685.02	0.00065009
3694.67	0.0005924
3704.32	0.0005895
3713.96	0.00071676
3723.61	0.0006388
3733.26	0.00067567
3742.9	0.0007587
3752.55	0.00049
3762.2	0.0006092
3771.84	0.000508
3781.49	0.000464
3791.13	0.00048
3800.78	0.000527
3810.43	0.000533
3820.07	0.0005575
3829.72	0.0005688
3839.37	0.0006119
3849.01	0.0005865
3858.66	0.0006269
3868.31	0.0005598
3877.95	0.00055
3887.6	0.0007535
3897.25	0.0006394
3906.89	0.0006702
3916.54	0.00072737
3926.19	0.0005914
3935.83	0.00072565
3945.48	0.0006362
3955.13	0.0006399
3964.77	0.000567
3974.42	0.0005887
3984.07	0.00071872
3993.71	0.0007833
