Infrared Spectrum: 4-Nitropyrocatechol
Formula: C6 H5 N O4
CAS: 3316-09-4
State: SOLID (SPLIT MULL)
Class: COBLENTZ III
Instrument: DOW KBr FOREPRISM-GRATING
Instrument parameters: BLAZED AT 3.5, 12.0, 20.0 MICRON AND CHANGED AT 5.0, 7.5, 14.9 MICRON
Sampling: TRANSMISSION
Resolution: 2
Origin: DOW CHEMICAL COMPANY
1/CM	TRANSMITTANCE
382	1.0706
391	1.0671
400	1.0595
409	1.0477
418	1.0366
427	1.0218
436	0.9875
445	0.9021
454	0.9641
463	1.0413
472	1.0263
481	0.9964
490	0.9582
499	0.9109
508	0.8849
517	0.8484
526	0.7815
535	0.6958
544	0.5168
553	0.6188
562	0.7304
571	0.8101
580	0.8995
589	0.8586
598	0.6821
607	0.6309
616	0.7514
625	0.7567
634	0.7312
643	0.6838
652	0.6474
661	0.8482
670	0.8673
679	0.898
688	0.9295
697	0.9403
706	0.929
715	0.8835
724	0.8383
733	0.8675
742	0.5697
751	0.9555
760	0.9545
769	0.9337
778	0.8604
787	0.335
796	0.6918
805	0.856
814	0.7824
823	0.1642
832	0.9645
841	0.9755
850	0.9632
859	0.939
868	0.5477
877	0.8428
886	0.5093
895	0.9167
904	0.9304
913	0.9259
922	0.9121
931	0.8843
940	0.7351
949	0.851
958	0.8918
967	0.8793
976	0.8734
985	0.8708
994	0.8618
1003	0.8466
1012	0.8225
1021	0.8046
1030	0.7895
1039	0.7661
1048	0.7342
1057	0.6974
1066	0.6332
1075	0.1502
1084	0.5253
1093	0.5653
1102	0.5312
1111	0.3364
1120	0.0638
1129	0.617
1138	0.5026
1147	0.3152
1156	0.055
1165	0.0657
1174	0.0435
1183	0.0167
1192	0.088
1201	0.1336
1210	0.177
1219	0.3187
1228	0.373
1237	0.3547
1246	0.2431
1255	0.2155
1264	0.1634
1273	0.0388
1282	0.0119
1291	0.0333
1300	0.2743
1309	0.3264
1318	0.1255
1327	0.0212
1336	0.1109
1345	0.4425
1354	0.5223
1363	0.6233
1372	0.4636
1381	0.3157
1390	0.6184
1399	0.7882
1408	0.8563
1417	0.8471
1426	0.7669
1435	0.5162
1444	0.0983
1453	0.5491
1462	0.7071
1471	0.7393
1480	0.7068
1489	0.5537
1498	0.4309
1507	0.0488
1516	0.0352
1525	0.022
1534	0.3687
1543	0.7265
1552	0.8089
1561	0.8621
1570	0.7921
1579	0.6478
1588	0.2897
1597	0.2216
1606	0.6558
1615	0.8071
1624	0.7612
1633	0.8817
1642	0.9695
1651	0.9565
1660	0.9757
1669	0.9821
1678	1.0206
1687	1.0111
1696	0.9975
1705	1.0032
1714	1.0089
1723	1.0057
1732	0.9936
1741	0.9793
1750	0.9637
1759	0.9785
1768	0.9834
1777	0.9901
1786	0.9903
1795	0.9853
1804	0.9836
1813	0.9812
1822	0.9789
1831	0.976
1840	0.9724
1849	0.9683
1858	0.9621
1867	0.9536
1876	0.9348
1885	0.8912
1894	0.9275
1903	0.9506
1912	0.9516
1921	0.9506
1930	0.9471
1939	0.942
1948	0.9378
1957	0.9414
1966	0.9212
1975	0.9189
1984	0.9252
1993	0.9228
2002	0.9152
2011	0.9039
2020	0.8892
2029	0.8982
2038	0.8985
2047	0.8921
2056	0.8803
2065	0.8708
2074	0.869
2083	0.87
2092	0.8738
2101	0.8742
2110	0.8718
2119	0.868
2128	0.863
2137	0.8574
2146	0.8518
2155	0.8468
2164	0.8418
2173	0.837
2182	0.8325
2191	0.8271
2200	0.8218
2209	0.8174
2218	0.8124
2227	0.805
2236	0.7958
2245	0.7875
2254	0.7793
2263	0.7711
2272	0.7628
2281	0.7557
2290	0.7504
2299	0.7465
2308	0.7414
2317	0.7381
2326	0.735
2335	0.7326
2344	0.7306
2353	0.7249
2362	0.7192
2371	0.7134
2380	0.7078
2389	0.7044
2398	0.7018
2407	0.7022
2416	0.7057
2425	0.7056
2434	0.7033
2443	0.7003
2452	0.6968
2461	0.6947
2470	0.693
2479	0.6914
2488	0.6893
2497	0.6838
2506	0.6776
2515	0.6715
2524	0.6654
2533	0.6618
2542	0.6625
2551	0.6646
2560	0.6675
2569	0.6712
2578	0.6715
2587	0.6714
2596	0.6675
2605	0.6625
2614	0.6555
2623	0.6501
2632	0.6461
2641	0.6421
2650	0.6374
2659	0.6331
2668	0.6289
2677	0.6255
2686	0.6226
2695	0.6197
2704	0.6186
2713	0.6178
2722	0.6132
2731	0.6023
2740	0.5874
2749	0.5751
2758	0.5685
2767	0.5698
2776	0.5707
2785	0.5715
2794	0.5716
2803	0.571
2812	0.568
2821	0.5641
2830	0.5624
2839	0.5616
2848	0.5588
2857	0.553
2866	0.5476
2875	0.5437
2884	0.5402
2893	0.5376
2902	0.5325
2911	0.5274
2920	0.5232
2929	0.519
2938	0.515
2947	0.5124
2956	0.5087
2965	0.5037
2974	0.4973
2983	0.4907
2992	0.4831
3001	0.4752
3010	0.4659
3019	0.4558
3028	0.4452
3037	0.4366
3046	0.4285
3055	0.409
3064	0.3737
3073	0.3355
3082	0.2884
3091	0.3239
3100	0.3782
3109	0.3718
3118	0.3618
3127	0.3468
3136	0.3323
3145	0.3177
3154	0.3007
3163	0.2794
3172	0.2557
3181	0.2319
3190	0.2127
3199	0.1937
3208	0.1752
3217	0.1563
3226	0.1372
3235	0.1222
3244	0.1082
3253	0.0956
3262	0.0825
3271	0.0715
3280	0.0645
3289	0.0608
3298	0.0623
3307	0.0662
3316	0.0723
3325	0.0783
3334	0.0837
3343	0.0855
3352	0.081
3361	0.0691
3370	0.0551
3379	0.0465
3388	0.0545
3397	0.0832
3406	0.1501
3415	0.2376
3424	0.3163
3433	0.3802
3442	0.4127
3451	0.4629
3460	0.5067
3469	0.526
3478	0.5478
3487	0.5669
3496	0.5932
3505	0.6143
3514	0.6244
3523	0.6287
3532	0.63
3541	0.6288
3550	0.6264
3559	0.621
3568	0.6141
3577	0.606
3586	0.5962
3595	0.5866
3604	0.5778
3613	0.5706
3622	0.5639
3631	0.558
3640	0.5521
3649	0.5476
3658	0.5432
3667	0.5388
3676	0.5348
3685	0.5308
3694	0.527
3703	0.5232
3712	0.5195
3721	0.5156
3730	0.5118
3739	0.5078
3748	0.5047
3757	0.5018
3766	0.499
3775	0.4966
3784	0.4949
3793	0.4939
