Infrared Spectrum: 2-Methoxy-.beta.-nitrostyrene
Formula: C 9 H 9 N O 3
CAS: 3316-24-3
State: gas
Origin: EPA-IR VAPOR PHASE LIBRARY
1/CM	ABSORBANCE
549.8	0.010477
559.445	0.010477
569.09	0.008697
578.734	0.005987
588.379	0.007747
598.024	0.018027
607.669	0.017447
617.313	0.007087
626.958	0.002577
636.603	0.001857
646.248	0.001587
655.893	0.001437
665.537	0.001857
675.182	0.002307
684.827	0.002047
694.472	0.002847
704.116	0.004817
713.761	0.010197
723.406	0.024377
733.051	0.036927
742.695	0.064917
752.34	0.088907
761.985	0.045967
771.63	0.019337
781.275	0.016857
790.919	0.017987
800.564	0.012357
810.209	0.008577
819.854	0.007747
829.498	0.010507
839.143	0.013397
848.788	0.013847
858.433	0.012147
868.078	0.008677
877.722	0.006437
887.367	0.005737
897.012	0.005297
906.657	0.005907
916.301	0.008097
925.946	0.012257
935.591	0.017587
945.236	0.030197
954.88	0.054517
964.525	0.061837
974.17	0.040297
983.815	0.019257
993.46	0.014607
1003.1	0.017747
1012.75	0.030757
1022.39	0.047497
1032.04	0.049207
1041.68	0.039667
1051.33	0.031057
1060.97	0.016137
1070.62	0.007627
1080.26	0.005957
1089.91	0.009107
1099.55	0.019057
1109.2	0.027717
1118.84	0.027117
1128.49	0.020407
1138.13	0.010437
1147.78	0.009507
1157.42	0.024197
1167.07	0.026417
1176.71	0.023017
1186.36	0.031137
1196	0.026427
1205.64	0.017637
1215.29	0.020667
1224.93	0.037087
1234.58	0.076367
1244.22	0.125137
1253.87	0.150097
1263.51	0.111297
1273.16	0.070247
1282.8	0.063567
1292.45	0.060957
1302.09	0.055607
1311.74	0.047257
1321.38	0.047407
1331.03	0.090507
1340.67	0.219047
1350.32	0.268877
1359.96	0.103887
1369.61	0.045427
1379.25	0.030627
1388.9	0.018497
1398.54	0.012297
1408.18	0.011897
1417.83	0.016117
1427.47	0.028487
1437.12	0.048437
1446.76	0.049577
1456.41	0.049237
1466.05	0.067327
1475.7	0.083967
1485.34	0.113097
1494.99	0.104947
1504.63	0.071567
1514.28	0.070437
1523.92	0.093557
1533.57	0.162377
1543.21	0.192327
1552.86	0.116647
1562.5	0.072887
1572.15	0.065777
1581.79	0.054367
1591.44	0.054547
1601.08	0.054617
1610.73	0.034767
1620.37	0.028977
1630.01	0.050287
1639.66	0.070907
1649.3	0.038277
1658.95	0.014027
1668.59	0.010197
1678.24	0.009437
1687.88	0.007977
1697.53	0.005607
1707.17	0.004467
1716.82	0.003857
1726.46	0.003067
1736.11	0.002407
1745.75	0.002177
1755.4	0.002237
1765.04	0.002717
1774.69	0.003257
1784.33	0.003417
1793.98	0.003527
1803.62	0.003877
1813.27	0.003557
1822.91	0.002827
1832.55	0.002237
1842.2	0.002087
1851.84	0.002177
1861.49	0.002537
1871.13	0.002587
1880.78	0.002727
1890.42	0.004317
1900.07	0.005397
1909.71	0.004357
1919.36	0.003737
1929	0.004507
1938.65	0.004277
1948.29	0.002677
1957.94	0.001847
1967.58	0.001737
1977.23	0.001837
1986.87	0.001747
1996.52	0.001917
2006.16	0.002357
2015.81	0.002857
2025.45	0.003347
2035.1	0.003557
2044.74	0.003607
2054.38	0.003337
2064.03	0.002767
2073.67	0.002117
2083.32	0.001657
2092.96	0.001337
2102.61	0.001297
2112.25	0.0010952
2121.9	0.0012396
2131.54	0.001231
2141.19	0.0011222
2150.83	0.0011598
2160.48	0.0010165
2170.12	0.0008495
2179.77	0.0008833
2189.41	0.0009626
2199.06	0.0012003
2208.7	0.0012309
2218.35	0.0012403
2227.99	0.0012057
2237.64	0.0011901
2247.28	0.0012683
2256.92	0.001647
2266.57	0.001777
2276.21	0.002127
2285.86	0.002117
2295.5	0.002157
2305.15	0.002047
2314.79	0.001697
2324.44	0.001587
2334.08	0.001427
2343.73	0.0011854
2353.37	0.0011886
2363.02	0.0011388
2372.66	0.0009784
2382.31	0.0011522
2391.95	0.0010516
2401.6	0.001059
2411.24	0.00108
2420.89	0.0010825
2430.53	0.0009596
2440.18	0.0009936
2449.82	0.0011148
2459.47	0.001337
2469.11	0.001587
2478.75	0.001907
2488.4	0.002317
2498.04	0.002317
2507.69	0.002407
2517.33	0.002287
2526.98	0.002067
2536.62	0.001957
2546.27	0.001847
2555.91	0.001887
2565.56	0.001897
2575.2	0.002007
2584.85	0.002187
2594.49	0.002217
2604.14	0.001997
2613.78	0.001957
2623.43	0.001687
2633.07	0.001567
2642.72	0.001377
2652.36	0.001317
2662.01	0.0009974
2671.65	0.0010951
2681.29	0.0011385
2690.94	0.001537
2700.58	0.001457
2710.23	0.001597
2719.87	0.001567
2729.52	0.001427
2739.16	0.001607
2748.81	0.001537
2758.45	0.001517
2768.1	0.001787
2777.74	0.002027
2787.39	0.002457
2797.03	0.002627
2806.68	0.003247
2816.32	0.004447
2825.97	0.006607
2835.61	0.011637
2845.26	0.021347
2854.9	0.021607
2864.55	0.013827
2874.19	0.012257
2883.84	0.012447
2893.48	0.012617
2903.12	0.013777
2912.77	0.015607
2922.41	0.016797
2932.06	0.018927
2941.7	0.026947
2951.35	0.034787
2960.99	0.030557
2970.64	0.024647
2980.28	0.017037
2989.93	0.012767
2999.57	0.014217
3009.22	0.020497
3018.86	0.020097
3028.51	0.016117
3038.15	0.015177
3047.8	0.012817
3057.44	0.014067
3067.09	0.018747
3076.73	0.023537
3086.38	0.021377
3096.02	0.012947
3105.67	0.011327
3115.31	0.009857
3124.95	0.004997
3134.6	0.003697
3144.24	0.003747
3153.89	0.004047
3163.53	0.003077
3173.18	0.001917
3182.82	0.001577
3192.47	0.0011894
3202.11	0.0008067
3211.76	0.0007798
3221.4	0.0009153
3231.05	0.0007636
3240.69	0.000681
3250.34	0.0005986
3259.98	0.0006617
3269.63	0.0005399
3279.27	0.0006379
3288.92	0.0004815
3298.56	0.0004823
3308.21	0.00027087
3317.85	0.00036369
3327.49	0.0002446
3337.14	0.00029129
3346.78	0.00036718
3356.43	0.00036577
3366.07	0.0004284
3375.72	0.0004144
3385.36	0.0003843
3395.01	0.00030853
3404.65	0.00032415
3414.3	0.0002058
3423.94	0.000383
3433.59	0.0002362
3443.23	0.0002283
3452.88	0.00032301
3462.52	0.00033587
3472.17	9.6e-05
3481.81	0.00033944
3491.46	0.00026902
3501.1	0.0005148
3510.75	0.00031016
3520.39	0.00032914
3530.04	0.0003857
3539.68	0.0004372
3549.32	0.00031151
3558.97	0.0005102
3568.61	0.00030878
3578.26	0.0004412
3587.9	0.0004414
3597.55	0.0002548
3607.19	0.0004198
3616.84	0.0006058
3626.48	0.000558
3636.13	0.0005317
3645.77	0.0005168
3655.42	0.0004241
3665.06	0.0004928
3674.71	0.00043
3684.35	0.000283598
3694	0.0004538
3703.64	0.0002339
3713.29	0.000276337
3722.93	0.0004389
3732.58	0.0004735
3742.22	0.0004113
3751.86	0.00035851
3761.51	0.0001952
3771.15	0.0003241
3780.8	0.0002531
3790.44	0.000395
3800.09	0.0007753
3809.73	0.00034118
3819.38	0.0004825
3829.02	0.0007222
3838.67	0.0006048
3848.31	0.0006715
3857.96	0.0006592
3867.6	0.0010454
3877.25	0.0009063
3886.89	0.000997
3896.54	0.0006145
3906.18	0.0006726
3915.83	0.0008433
3925.47	0.0010191
3935.12	0.0009631
3944.76	0.0010407
3954.41	0.0009747
3964.05	0.0006362
3973.69	0.0008795
3983.34	0.0007788
3992.98	0.0008473
