Infrared Spectrum: HYDRAZINE, 1-(m-ANISOYL)-2-(2-NAPHTHOYL)-
Formula: C19 H16 N2 O3
CAS: 331636-67-0
State: SOLID (SPLIT MULL), FLUOROLUBE FOR 3800-1330 CM^-^1, NUJOL FOR 1330-400 CM^-^1
Class: COBLENTZ III
Instrument: DOW KBr FOREPRISM-GRATING
Instrument parameters: BLAZED AT 3.5, 12.0, 20.0 MICRON AND CHANGED AT 5.0, 7.5, 14.9 MICRON
Resolution: 2
Origin: DOW CHEMICAL COMPANY
1/CM	TRANSMITTANCE
386.32	0.991
395.186	0.991
404.053	0.995
412.919	1.004
421.785	1.011
430.652	1.012
439.518	1.013
448.385	1.013
457.251	0.998
466.117	0.895
474.984	0.883
483.85	0.943
492.716	1.002
501.583	0.997
510.449	0.95
519.316	0.884
528.182	0.859
537.048	0.876
545.915	0.907
554.781	0.925
563.647	0.907
572.514	0.914
581.38	0.912
590.247	0.922
599.113	0.952
607.979	0.972
616.846	0.965
625.712	0.93
634.578	0.954
643.445	0.981
652.311	0.981
661.178	0.95
670.044	0.88
678.91	0.803
687.777	0.94
696.643	0.962
705.509	0.929
714.376	0.872
723.242	0.836
732.109	0.833
740.975	0.785
749.841	0.728
758.708	0.71
767.574	0.85
776.44	0.826
785.307	0.966
794.173	0.89
803.039	0.834
811.906	0.808
820.772	0.725
829.639	0.821
838.505	0.941
847.371	0.961
856.238	0.905
865.104	0.823
873.97	0.891
882.837	0.932
891.703	0.893
900.57	0.833
909.436	0.846
918.302	0.898
927.169	0.865
936.035	0.852
944.901	0.882
953.768	0.876
962.634	0.889
971.501	0.923
980.367	0.943
989.233	0.904
998.1	0.936
1006.97	0.932
1015.83	0.918
1024.7	0.887
1033.57	0.732
1042.43	0.725
1051.3	0.78
1060.16	0.891
1069.03	0.894
1077.9	0.869
1086.76	0.893
1095.63	0.866
1104.5	0.893
1113.36	0.902
1122.23	0.876
1131.1	0.815
1139.96	0.852
1148.83	0.839
1157.69	0.832
1166.56	0.726
1175.43	0.815
1184.29	0.804
1193.16	0.84
1202.03	0.79
1210.89	0.785
1219.76	0.751
1228.63	0.556
1237.49	0.633
1246.36	0.567
1255.22	0.515
1264.09	0.615
1272.96	0.552
1281.82	0.303
1290.69	0.242
1299.56	0.31
1308.42	0.574
1317.29	0.626
1326.16	0.642
1335.02	0.658
1343.89	0.674
1352.75	0.692
1361.62	0.71
1370.49	0.73
1379.35	0.739
1388.22	0.697
1397.09	0.721
1405.95	0.71
1414.82	0.679
1423.69	0.615
1432.55	0.565
1441.42	0.632
1450.28	0.576
1459.15	0.55
1468.02	0.481
1476.88	0.5
1485.75	0.31
1494.62	0.507
1503.48	0.402
1512.35	0.413
1521.22	0.349
1530.08	0.267
1538.95	0.292
1547.81	0.417
1556.68	0.568
1565.55	0.621
1574.41	0.495
1583.28	0.281
1592.15	0.46
1601.01	0.478
1609.88	0.549
1618.75	0.391
1627.61	0.292
1636.48	0.167
1645.34	0.324
1654.21	0.714
1663.08	0.636
1671.94	0.604
1680.81	0.812
1689.68	0.926
1698.54	0.952
1707.41	0.969
1716.28	0.973
1725.14	0.973
1734.01	0.963
1742.87	0.958
1751.74	0.952
1760.61	0.947
1769.47	0.94
1778.34	0.936
1787.21	0.933
1796.07	0.933
1804.94	0.933
1813.81	0.923
1822.67	0.92
1831.54	0.918
1840.4	0.916
1849.27	0.914
1858.14	0.911
1867	0.912
1875.87	0.912
1884.74	0.909
1893.6	0.907
1902.47	0.904
1911.34	0.897
1920.2	0.893
1929.07	0.891
1937.94	0.893
1946.8	0.894
1955.67	0.894
1964.53	0.894
1973.4	0.894
1982.27	0.887
1991.13	0.883
2000	0.868
2008.87	0.859
2017.73	0.855
2026.6	0.8539
2035.47	0.8509
2044.33	0.844
2053.2	0.8426
2062.06	0.839
2070.93	0.837
2079.8	0.8356
2088.66	0.834
2097.53	0.833
2106.4	0.832
2115.26	0.8314
2124.13	0.8274
2133	0.822
2141.86	0.8186
2150.73	0.816
2159.59	0.8146
2168.46	0.812
2177.33	0.8086
2186.19	0.8045
2195.06	0.801
2203.93	0.7965
2212.79	0.7905
2221.66	0.7839
2230.53	0.772
2239.39	0.7684
2248.26	0.766
2257.12	0.7607
2265.99	0.755
2274.86	0.7533
2283.72	0.751
2292.59	0.7537
2301.46	0.758
2310.32	0.7648
2319.19	0.765
2328.06	0.7642
2336.92	0.7583
2345.79	0.7474
2354.65	0.746
2363.52	0.743
2372.39	0.7421
2381.25	0.735
2390.12	0.7301
2398.99	0.728
2407.85	0.728
2416.72	0.728
2425.59	0.726
2434.45	0.725
2443.32	0.723
2452.18	0.722
2461.05	0.721
2469.92	0.721
2478.78	0.721
2487.65	0.721
2496.52	0.719
2505.38	0.718
2514.25	0.7164
2523.12	0.71
2531.98	0.71
2540.85	0.7077
2549.71	0.7036
2558.58	0.7
2567.45	0.6966
2576.31	0.6936
2585.18	0.6911
2594.05	0.689
2602.91	0.687
2611.78	0.686
2620.65	0.685
2629.51	0.685
2638.38	0.6772
2647.24	0.674
2656.11	0.6697
2664.98	0.669
2673.84	0.665
2682.71	0.6613
2691.58	0.658
2700.44	0.6533
2709.31	0.65
2718.18	0.6462
2727.04	0.6382
2735.91	0.6322
2744.77	0.6251
2753.64	0.6171
2762.51	0.6101
2771.37	0.604
2780.24	0.5971
2789.11	0.592
2797.97	0.582
2806.84	0.5649
2815.71	0.5268
2824.57	0.5205
2833.44	0.5381
2842.31	0.5378
2851.17	0.5289
2860.04	0.5179
2868.9	0.5038
2877.77	0.502
2886.64	0.4916
2895.5	0.4843
2904.37	0.4747
2913.24	0.4637
2922.1	0.4448
2930.97	0.4244
2939.84	0.4116
2948.7	0.3949
2957.57	0.391
2966.43	0.3794
2975.3	0.36
2984.17	0.3471
2993.03	0.3455
3001.9	0.3545
3010.77	0.366
3019.63	0.3761
3028.5	0.3856
3037.37	0.3979
3046.23	0.4136
3055.1	0.4328
3063.96	0.452
3072.83	0.4607
3081.7	0.461
3090.56	0.4546
3099.43	0.4405
3108.3	0.4217
3117.16	0.3982
3126.03	0.3812
3134.9	0.3635
3143.76	0.3551
3152.63	0.353
3161.49	0.353
3170.36	0.3521
3179.23	0.35
3188.09	0.346
3196.96	0.346
3205.83	0.3551
3214.69	0.3782
3223.56	0.4161
3232.43	0.4531
3241.29	0.4857
3250.16	0.5147
3259.02	0.5444
3267.89	0.5661
3276.76	0.5856
3285.62	0.5954
3294.49	0.6065
3303.36	0.6155
3312.22	0.6213
3321.09	0.626
3329.96	0.6296
3338.82	0.633
3347.69	0.635
3356.55	0.6326
3365.42	0.631
3374.29	0.6256
3383.15	0.6245
3392.02	0.622
3400.89	0.619
3409.75	0.618
3418.62	0.6145
3427.49	0.611
3436.35	0.604
3445.22	0.6034
3454.08	0.601
3462.95	0.601
3471.82	0.5976
3480.68	0.5923
3489.55	0.592
3498.42	0.592
3507.28	0.59
3516.15	0.5888
3525.02	0.5834
3533.88	0.581
3542.75	0.578
3551.61	0.5763
3560.48	0.575
3569.35	0.575
3578.21	0.574
3587.08	0.574
3595.95	0.572
3604.81	0.57
3613.68	0.565
3622.55	0.564
3631.41	0.5629
3640.28	0.5598
3649.14	0.558
3658.01	0.5597
3666.88	0.557
3675.74	0.557
3684.61	0.554
3693.48	0.55
3702.34	0.5497
3711.21	0.549
3720.08	0.547
3728.94	0.5457
3737.81	0.5427
3746.67	0.54
3755.54	0.538
3764.41	0.5348
3773.27	0.5326
3782.14	0.5315
3791.01	0.529
