Infrared Spectrum: 5-Fluoro-2-methylbenzoic acid
Formula: C 8 H 7 F O 2
CAS: 33184-16-6
State: gas
Origin: EPA-IR VAPOR PHASE LIBRARY
1/CM	ABSORBANCE
549.8	0.006626
559.445	0.006976
569.09	0.008646
578.734	0.012576
588.379	0.015556
598.024	0.014516
607.669	0.010316
617.313	0.006906
626.958	0.004996
636.603	0.009816
646.248	0.015886
655.893	0.011836
665.537	0.005946
675.182	0.002626
684.827	0.002536
694.472	0.002836
704.116	0.003576
713.761	0.010726
723.406	0.014186
733.051	0.008106
742.695	0.003946
752.34	0.003986
761.985	0.003686
771.63	0.004966
781.275	0.006066
790.919	0.008046
800.564	0.007756
810.209	0.009506
819.854	0.011516
829.498	0.005866
839.143	0.002456
848.788	0.001776
858.433	0.001856
868.078	0.002286
877.722	0.004616
887.367	0.006946
897.012	0.005766
906.657	0.005566
916.301	0.008406
925.946	0.009226
935.591	0.005666
945.236	0.003256
954.88	0.002236
964.525	0.001736
974.17	0.001596
983.815	0.001876
993.46	0.002016
1003.1	0.003266
1012.75	0.003166
1022.39	0.004866
1032.04	0.009196
1041.68	0.019956
1051.33	0.023676
1060.97	0.015416
1070.62	0.011456
1080.26	0.009656
1089.91	0.007996
1099.55	0.009296
1109.2	0.012456
1118.84	0.017976
1128.49	0.021466
1138.13	0.028426
1147.78	0.045276
1157.42	0.054716
1167.07	0.041086
1176.71	0.023186
1186.36	0.015046
1196	0.009646
1205.64	0.005606
1215.29	0.006536
1224.93	0.012656
1234.58	0.022966
1244.22	0.022446
1253.87	0.009756
1263.51	0.012086
1273.16	0.018036
1282.8	0.016226
1292.45	0.011066
1302.09	0.010706
1311.74	0.011606
1321.38	0.013646
1331.03	0.016226
1340.67	0.015816
1350.32	0.010756
1359.96	0.006216
1369.61	0.004906
1379.25	0.004726
1388.9	0.005816
1398.54	0.007896
1408.18	0.012006
1417.83	0.014516
1427.47	0.010566
1437.12	0.005936
1446.76	0.006256
1456.41	0.006616
1466.05	0.007486
1475.7	0.009646
1485.34	0.017636
1494.99	0.028276
1504.63	0.023556
1514.28	0.008786
1523.92	0.003856
1533.57	0.003176
1543.21	0.003196
1552.86	0.004136
1562.5	0.005386
1572.15	0.007596
1581.79	0.009016
1591.44	0.008936
1601.08	0.007516
1610.73	0.008576
1620.37	0.008026
1630.01	0.004616
1639.66	0.002596
1649.3	0.001806
1658.95	0.001656
1668.59	0.001646
1678.24	0.001896
1687.88	0.002396
1697.53	0.003196
1707.17	0.004716
1716.82	0.007566
1726.46	0.012616
1736.11	0.018476
1745.75	0.041566
1755.4	0.084716
1765.04	0.078626
1774.69	0.026176
1784.33	0.014896
1793.98	0.013606
1803.62	0.007966
1813.27	0.003586
1822.91	0.002096
1832.55	0.001826
1842.2	0.0015116
1851.84	0.0014721
1861.49	0.0012987
1871.13	0.001596
1880.78	0.001906
1890.42	0.001746
1900.07	0.0012968
1909.71	0.0010875
1919.36	0.0010462
1929	0.0008426
1938.65	0.0010934
1948.29	0.0011708
1957.94	0.001232
1967.58	0.0012101
1977.23	0.0010692
1986.87	0.0008554
1996.52	0.0008273
2006.16	0.0007968
2015.81	0.0007576
2025.45	0.0006319
2035.1	0.0007373
2044.74	0.0008504
2054.38	0.0009795
2064.03	0.0011021
2073.67	0.0010571
2083.32	0.0012211
2092.96	0.0011478
2102.61	0.0008815
2112.25	0.0008615
2121.9	0.0009415
2131.54	0.0008424
2141.19	0.0011219
2150.83	0.0010069
2160.48	0.0009941
2170.12	0.0009059
2179.77	0.000895
2189.41	0.0008444
2199.06	0.0009348
2208.7	0.000822
2218.35	0.0007625
2227.99	0.0009279
2237.64	0.0008733
2247.28	0.0008948
2256.92	0.0010866
2266.57	0.0009216
2276.21	0.0008178
2285.86	0.0007956
2295.5	0.0011417
2305.15	0.0007899
2314.79	0.0008225
2324.44	0.0008987
2334.08	0.0007188
2343.73	0.0007879
2353.37	0.0008333
2363.02	0.0009684
2372.66	0.0009518
2382.31	0.0009555
2391.95	0.0009115
2401.6	0.0010538
2411.24	0.0011424
2420.89	0.0009179
2430.53	0.0008773
2440.18	0.0008217
2449.82	0.001024
2459.47	0.0009172
2469.11	0.0010062
2478.75	0.0008914
2488.4	0.0010532
2498.04	0.0009617
2507.69	0.0009359
2517.33	0.0010241
2526.98	0.000846
2536.62	0.0011083
2546.27	0.0007494
2555.91	0.0008388
2565.56	0.0009057
2575.2	0.00059736
2584.85	0.000451
2594.49	0.0008003
2604.14	0.0008371
2613.78	0.0008195
2623.43	0.0009103
2633.07	0.000369
2642.72	0.00061471
2652.36	0.0008271
2662.01	0.0008097
2671.65	0.0009885
2681.29	0.0009207
2690.94	0.0007353
2700.58	0.0004763
2710.23	0.000873
2719.87	0.0008607
2729.52	0.0010431
2739.16	0.0009829
2748.81	0.0011762
2758.45	0.0008004
2768.1	0.0012062
2777.74	0.000721
2787.39	0.0007177
2797.03	0.0007991
2806.68	0.0010837
2816.32	0.0008728
2825.97	0.0013797
2835.61	0.0008423
2845.26	0.0009677
2854.9	0.0013309
2864.55	0.002236
2874.19	0.001916
2883.84	0.002216
2893.48	0.002596
2903.12	0.002196
2912.77	0.002036
2922.41	0.002066
2932.06	0.003586
2941.7	0.005546
2951.35	0.005306
2960.99	0.003816
2970.64	0.003676
2980.28	0.004126
2989.93	0.003966
2999.57	0.002976
3009.22	0.002536
3018.86	0.001786
3028.51	0.001926
3038.15	0.003146
3047.8	0.003406
3057.44	0.002476
3067.09	0.001806
3076.73	0.002466
3086.38	0.002226
3096.02	0.001636
3105.67	0.001766
3115.31	0.0009778
3124.95	0.0013538
3134.6	0.0009442
3144.24	0.000265
3153.89	0.0007054
3163.53	0.0007662
3173.18	0.0006696
3182.82	0.00060534
3192.47	0.0006899
3202.11	0.00058237
3211.76	0.0004663
3221.4	0.0008547
3231.05	0.000366
3240.69	0.000303
3250.34	0.00060909
3259.98	0.00057057
3269.63	0.0008482
3279.27	0.0006997
3288.92	0.0008432
3298.56	0.0009749
3308.21	0.0006889
3317.85	0.0008793
3327.49	0.000409
3337.14	0.000944
3346.78	0.0004727
3356.43	0.0009866
3366.07	0.000389
3375.72	0.00051092
3385.36	0.0006728
3395.01	0.0006548
3404.65	0.00052848
3414.3	0.00053302
3423.94	0.0007871
3433.59	0.0008656
3443.23	0.0007538
3452.88	0.0010616
3462.52	0.0004382
3472.17	0.0007291
3481.81	0.0007927
3491.46	0.0011548
3501.1	0.0007988
3510.75	0.0012363
3520.39	0.0009451
3530.04	0.0014316
3539.68	0.001776
3549.32	0.002396
3558.97	0.010086
3568.61	0.021166
3578.26	0.025806
3587.9	0.016766
3597.55	0.003856
3607.19	0.0013237
3616.84	0.000908
3626.48	0.0009765
3636.13	0.0008383
3645.77	0.0009314
3655.42	0.0007091
3665.06	0.0008182
3674.71	0.0006308
3684.35	0.00061501
3694	0.0006342
3703.64	0.00059342
3713.29	0.000968
3722.93	0.0007373
3732.58	0.0005117
3742.22	0.000243
3751.86	0.0004822
3761.51	0.0007119
3771.15	0.000637
3780.8	0.000167
3790.44	0.0008149
3800.09	0.00057272
3809.73	0.000192
3819.38	0.00060689
3829.02	0.0007372
3838.67	0.00088
3848.31	0.00056557
3857.96	0.00062
3867.6	0.000171
3877.25	0.000347
3886.89	0.000133
3896.54	0.000412
3906.18	0.0006365
3915.83	0.0006764
3925.47	0.000145
3935.12	0.0006701
3944.76	0.00058737
3954.41	0.0008015
3964.05	0.0004899
3973.69	0.0007496
3983.34	0.00069
3992.98	0.00052945
