Infrared Spectrum: 4-Chloro-2-iodotoluene
Formula: C 7 H 6 Cl I
CAS: 33184-48-4
State: gas
Origin: EPA-IR VAPOR PHASE LIBRARY
1/CM	ABSORBANCE
549.8	0.0006692
559.445	0.0009564
569.09	0.0006885
578.734	0.0009471
588.379	0.0006989
598.024	0.0006385
607.669	0.0003723
617.313	0.0006357
626.958	0.0011422
636.603	0.004082
646.248	0.008392
655.893	0.004132
665.537	0.015302
675.182	0.026602
684.827	0.007762
694.472	0.002152
704.116	0.0007467
713.761	0.0007407
723.406	0.0009351
733.051	0.0012152
742.695	0.0008792
752.34	0.0005474
761.985	0.0005613
771.63	0.0009318
781.275	0.001532
790.919	0.006512
800.564	0.026572
810.209	0.051492
819.854	0.023472
829.498	0.005402
839.143	0.001902
848.788	0.001882
858.433	0.004712
868.078	0.009472
877.722	0.006532
887.367	0.002142
897.012	0.0009567
906.657	0.0006164
916.301	0.000543
925.946	0.0007571
935.591	0.0008101
945.236	0.0009744
954.88	0.0013913
964.525	0.001702
974.17	0.002182
983.815	0.003622
993.46	0.004962
1003.1	0.004392
1012.75	0.006872
1022.39	0.015302
1032.04	0.023192
1041.68	0.011742
1051.33	0.005382
1060.97	0.004562
1070.62	0.003882
1080.26	0.002862
1089.91	0.006802
1099.55	0.022282
1109.2	0.029262
1118.84	0.011182
1128.49	0.002482
1138.13	0.002012
1147.78	0.0012251
1157.42	0.001096
1167.07	0.001662
1176.71	0.0012434
1186.36	0.00050379
1196	0.0003767
1205.64	0.0005394
1215.29	0.0003256
1224.93	0.0005509
1234.58	0.001069
1244.22	0.001672
1253.87	0.001932
1263.51	0.004262
1273.16	0.004152
1282.8	0.0010806
1292.45	0.0008153
1302.09	0.0007776
1311.74	0.000836
1321.38	0.0011369
1331.03	0.001732
1340.67	0.002292
1350.32	0.003092
1359.96	0.006732
1369.61	0.009262
1379.25	0.008162
1388.9	0.006622
1398.54	0.007442
1408.18	0.006732
1417.83	0.004952
1427.47	0.006062
1437.12	0.010132
1446.76	0.020302
1456.41	0.038572
1466.05	0.060072
1475.7	0.046042
1485.34	0.019192
1494.99	0.005792
1504.63	0.002662
1514.28	0.001952
1523.92	0.002082
1533.57	0.004012
1543.21	0.010302
1552.86	0.017292
1562.5	0.017202
1572.15	0.018812
1581.79	0.021472
1591.44	0.015212
1601.08	0.005072
1610.73	0.003582
1620.37	0.002622
1630.01	0.0012726
1639.66	0.0007798
1649.3	0.000734
1658.95	0.0007078
1668.59	0.0008008
1678.24	0.0009187
1687.88	0.000868
1697.53	0.0007873
1707.17	0.0007051
1716.82	0.0009014
1726.46	0.001682
1736.11	0.002972
1745.75	0.002942
1755.4	0.001452
1765.04	0.0005846
1774.69	0.00050797
1784.33	0.0005108
1793.98	0.00045148
1803.62	0.0005189
1813.27	0.0005899
1822.91	0.0005451
1832.55	0.00050874
1842.2	0.0005241
1851.84	0.0005937
1861.49	0.0007841
1871.13	0.001522
1880.78	0.002272
1890.42	0.001542
1900.07	0.0007051
1909.71	0.00049707
1919.36	0.00044543
1929	0.0003874
1938.65	0.0003733
1948.29	0.0003847
1957.94	0.0003898
1967.58	0.00040376
1977.23	0.0003706
1986.87	0.0004353
1996.52	0.00043332
2006.16	0.0004626
2015.81	0.0003719
2025.45	0.000304
2035.1	0.00042276
2044.74	0.0003499
2054.38	0.00049237
2064.03	0.00045482
2073.67	0.00043022
2083.32	0.0003782
2092.96	0.000273
2102.61	0.0003268
2112.25	0.000305
2121.9	0.0003384
2131.54	0.000304
2141.19	0.000296
2150.83	0.0003894
2160.48	0.000268
2170.12	0.0004236
2179.77	0.0003248
2189.41	0.0003308
2199.06	0.00042747
2208.7	0.000254
2218.35	0.0003521
2227.99	0.0003984
2237.64	0.0003241
2247.28	0.0003696
2256.92	0.00042558
2266.57	0.00040447
2276.21	0.000638
2285.86	0.0005664
2295.5	0.000529
2305.15	0.00045221
2314.79	0.000241
2324.44	0.0003727
2334.08	0.0003509
2343.73	0.00043684
2353.37	0.00043105
2363.02	0.0005586
2372.66	0.0005248
2382.31	0.00047593
2391.95	0.000534
2401.6	0.00049671
2411.24	0.0005519
2420.89	0.0005842
2430.53	0.0003387
2440.18	0.000420798
2449.82	0.00043114
2459.47	0.000411225
2469.11	0.00040386
2478.75	0.0005476
2488.4	0.00043826
2498.04	0.0006372
2507.69	0.0006223
2517.33	0.0005733
2526.98	0.00040867
2536.62	0.0003612
2546.27	0.0003574
2555.91	0.0005078
2565.56	0.0005445
2575.2	0.0006333
2584.85	0.000692
2594.49	0.0006254
2604.14	0.0006784
2613.78	0.00044615
2623.43	0.000534
2633.07	0.0004933
2642.72	0.0005621
2652.36	0.000531
2662.01	0.0005193
2671.65	0.0003657
2681.29	0.000412076
2690.94	0.00045104
2700.58	0.0003899
2710.23	0.0003705
2719.87	0.0005243
2729.52	0.0005518
2739.16	0.0005339
2748.81	0.0009086
2758.45	0.0008323
2768.1	0.0006245
2777.74	0.0006103
2787.39	0.0007115
2797.03	0.0008986
2806.68	0.0009501
2816.32	0.0008887
2825.97	0.0011077
2835.61	0.0012575
2845.26	0.001592
2854.9	0.002142
2864.55	0.003042
2874.19	0.003162
2883.84	0.002942
2893.48	0.002912
2903.12	0.002882
2912.77	0.003082
2922.41	0.005402
2932.06	0.009622
2941.7	0.008382
2951.35	0.005162
2960.99	0.005902
2970.64	0.005952
2980.28	0.007282
2989.93	0.007352
2999.57	0.005082
3009.22	0.004542
3018.86	0.004262
3028.51	0.003702
3038.15	0.003712
3047.8	0.004982
3057.44	0.006302
3067.09	0.005352
3076.73	0.003922
3086.38	0.002952
3096.02	0.001772
3105.67	0.001117
3115.31	0.0010359
3124.95	0.000949
3134.6	0.0008113
3144.24	0.0007756
3153.89	0.000587
3163.53	0.0006801
3173.18	0.00046203
3182.82	0.0003793
3192.47	0.00045699
3202.11	0.0005637
3211.76	0.000421658
3221.4	0.000362
3231.05	0.0003382
3240.69	0.000259
3250.34	0.000295
3259.98	0.0003271
3269.63	0.000194
3279.27	0.0003279
3288.92	0.000263
3298.56	0.000166
3308.21	0.000155
3317.85	0.00040222
3327.49	0.0003592
3337.14	0.0003254
3346.78	0.000125
3356.43	0.0003126
3366.07	0.0003154
3375.72	0.0003688
3385.36	0.000307
3395.01	0.000263
3404.65	0.0003983
3414.3	0.000258
3423.94	0.000222
3433.59	0.000292
3443.23	0.000179
3452.88	0.0003209
3462.52	0.0003742
3472.17	0.000263
3481.81	0.000153
3491.46	0.00024
3501.1	0.000265
3510.75	0.0003164
3520.39	0.000279
3530.04	0.00011
3539.68	0.000267
3549.32	0.000204
3558.97	0.000275
3568.61	0.0003655
3578.26	0.000420515
3587.9	0.000175
3597.55	0.0003474
3607.19	0.000217
3616.84	0.000215
3626.48	0.000285
3636.13	0.000383
3645.77	0.0004
3655.42	0.0003726
3665.06	0.0003153
3674.71	0.0003721
3684.35	0.000283
3694	0.0003203
3703.64	0.0006534
3713.29	0.00047691
3722.93	0.00042299
3732.58	0.0003643
3742.22	0.0003737
3751.86	0.0004013
3761.51	0.00044942
3771.15	0.0005265
3780.8	0.00042583
3790.44	0.00042717
3800.09	0.000184
3809.73	0.000178
3819.38	0.000262
3829.02	0.000268
3838.67	0.000181
3848.31	0.0003524
3857.96	0.0003123
3867.6	0.0003414
3877.25	0.000276
3886.89	0.0003971
3896.54	0.00049361
3906.18	0.0003457
3915.83	0.0006425
3925.47	0.0003203
3935.12	0.0005473
3944.76	0.000414055
3954.41	0.0003863
3964.05	0.00048142
3973.69	0.00042958
3983.34	0.000203
3992.98	0.0005386
