Infrared Spectrum: 1-(4-Methoxyphenyl)ethanol
Formula: C 9 H 12 O 2
CAS: 3319-15-1
State: gas
Origin: EPA-IR VAPOR PHASE LIBRARY
1/CM	ABSORBANCE
549.8	0.00966
559.445	0.01062
569.09	0.01073
578.734	0.00943
588.379	0.00711
598.024	0.00425
607.669	0.00302
617.313	0.00223
626.958	0.00217
636.603	0.0022
646.248	0.00187
655.893	0.00148
665.537	0.00164
675.182	0.00172
684.827	0.00193
694.472	0.00262
704.116	0.00277
713.761	0.00257
723.406	0.00208
733.051	0.00208
742.695	0.00186
752.34	0.00183
761.985	0.00158
771.63	0.00196
781.275	0.00241
790.919	0.00403
800.564	0.00781
810.209	0.01127
819.854	0.0174
829.498	0.02583
839.143	0.02283
848.788	0.01296
858.433	0.00621
868.078	0.00472
877.722	0.00544
887.367	0.0096
897.012	0.01283
906.657	0.01013
916.301	0.00547
925.946	0.00363
935.591	0.00304
945.236	0.00278
954.88	0.00326
964.525	0.0044
974.17	0.00604
983.815	0.00919
993.46	0.01352
1003.1	0.01653
1012.75	0.01804
1022.39	0.02161
1032.04	0.03234
1041.68	0.03827
1051.33	0.0307
1060.97	0.02416
1070.62	0.02499
1080.26	0.02964
1089.91	0.02781
1099.55	0.01855
1109.2	0.01105
1118.84	0.00831
1128.49	0.00669
1138.13	0.00676
1147.78	0.00787
1157.42	0.01332
1167.07	0.03423
1176.71	0.04324
1186.36	0.02299
1196	0.01454
1205.64	0.01468
1215.29	0.01798
1224.93	0.03098
1234.58	0.06667
1244.22	0.12052
1253.87	0.11047
1263.51	0.05327
1273.16	0.03479
1282.8	0.03504
1292.45	0.03652
1302.09	0.02924
1311.74	0.01793
1321.38	0.01297
1331.03	0.01257
1340.67	0.01412
1350.32	0.01637
1359.96	0.01716
1369.61	0.01669
1379.25	0.01631
1388.9	0.01292
1398.54	0.00948
1408.18	0.00788
1417.83	0.00783
1427.47	0.00806
1437.12	0.01075
1446.76	0.01386
1456.41	0.01537
1466.05	0.01756
1475.7	0.01583
1485.34	0.01384
1494.99	0.02308
1504.63	0.05899
1514.28	0.07728
1523.92	0.03363
1533.57	0.00883
1543.21	0.00515
1552.86	0.00442
1562.5	0.00475
1572.15	0.00692
1581.79	0.01139
1591.44	0.01601
1601.08	0.02245
1610.73	0.02897
1620.37	0.0222
1630.01	0.00953
1639.66	0.00462
1649.3	0.00295
1658.95	0.00223
1668.59	0.00181
1678.24	0.00144
1687.88	0.00121
1697.53	0.00118
1707.17	0.00114
1716.82	0.0012
1726.46	0.00109
1736.11	0.00115
1745.75	0.00141
1755.4	0.00173
1765.04	0.00122
1774.69	0.001
1784.33	0.0008733
1793.98	0.0008206
1803.62	0.0009345
1813.27	0.0009429
1822.91	0.00102
1832.55	0.0009345
1842.2	0.00112
1851.84	0.00118
1861.49	0.00151
1871.13	0.00195
1880.78	0.00215
1890.42	0.00192
1900.07	0.00147
1909.71	0.00116
1919.36	0.0009534
1929	0.0009469
1938.65	0.0011
1948.29	0.00122
1957.94	0.00127
1967.58	0.00127
1977.23	0.0013
1986.87	0.0012
1996.52	0.00113
2006.16	0.00105
2015.81	0.00101
2025.45	0.00107
2035.1	0.00141
2044.74	0.00189
2054.38	0.00216
2064.03	0.00218
2073.67	0.00216
2083.32	0.00187
2092.96	0.0013
2102.61	0.0008507
2112.25	0.000648
2121.9	0.0005539
2131.54	0.0003859
2141.19	0.000371
2150.83	0.0002786
2160.48	0.0003659
2170.12	0.0003619
2179.77	0.0003872
2189.41	0.0004155
2199.06	0.0004854
2208.7	0.0005558
2218.35	0.0005275
2227.99	0.0004567
2237.64	0.0005275
2247.28	0.0005486
2256.92	0.0005347
2266.57	0.0006007
2276.21	0.0007393
2285.86	0.0009643
2295.5	0.0008732
2305.15	0.0008519
2314.79	0.0008285
2324.44	0.0007178
2334.08	0.0007455
2343.73	0.0005917
2353.37	0.0004594
2363.02	0.0004811
2372.66	0.0005749
2382.31	0.0004994
2391.95	0.0006899
2401.6	0.0007447
2411.24	0.0008556
2420.89	0.0008633
2430.53	0.000915
2440.18	0.0007763
2449.82	0.0006901
2459.47	0.0008204
2469.11	0.0009161
2478.75	0.0009785
2488.4	0.00108
2498.04	0.00101
2507.69	0.00111
2517.33	0.00118
2526.98	0.00122
2536.62	0.00134
2546.27	0.00127
2555.91	0.00117
2565.56	0.0009545
2575.2	0.0009251
2584.85	0.00108
2594.49	0.00108
2604.14	0.00113
2613.78	0.00104
2623.43	0.00104
2633.07	0.0009596
2642.72	0.0008627
2652.36	0.0008976
2662.01	0.0007762
2671.65	0.0007583
2681.29	0.0008009
2690.94	0.000791
2700.58	0.0009781
2710.23	0.0008886
2719.87	0.0009489
2729.52	0.00115
2739.16	0.00121
2748.81	0.00126
2758.45	0.00145
2768.1	0.0015
2777.74	0.00172
2787.39	0.00194
2797.03	0.00258
2806.68	0.00318
2816.32	0.00426
2825.97	0.00605
2835.61	0.01137
2845.26	0.01551
2854.9	0.01238
2864.55	0.01141
2874.19	0.0138
2883.84	0.01612
2893.48	0.0169
2903.12	0.01763
2912.77	0.01894
2922.41	0.01966
2932.06	0.02208
2941.7	0.02533
2951.35	0.02415
2960.99	0.02368
2970.64	0.02744
2980.28	0.0346
2989.93	0.02937
2999.57	0.02272
3009.22	0.02154
3018.86	0.01366
3028.51	0.01109
3038.15	0.01069
3047.8	0.0083
3057.44	0.00696
3067.09	0.00715
3076.73	0.00732
3086.38	0.00631
3096.02	0.00534
3105.67	0.00454
3115.31	0.00341
3124.95	0.00239
3134.6	0.00197
3144.24	0.00142
3153.89	0.0012
3163.53	0.00107
3173.18	0.0008568
3182.82	0.0007343
3192.47	0.0007506
3202.11	0.0007757
3211.76	0.0009625
3221.4	0.0008261
3231.05	0.0007543
3240.69	0.0007441
3250.34	0.0005359
3259.98	0.0004349
3269.63	0.0003765
3279.27	0.0003995
3288.92	0.0004101
3298.56	0.0002892
3308.21	0.0003046
3317.85	0.0004349
3327.49	0.0003651
3337.14	0.0004612
3346.78	0.0005893
3356.43	0.0003593
3366.07	0.0006854
3375.72	0.000357
3385.36	0.0007265
3395.01	0.0005909
3404.65	0.0006223
3414.3	0.0006849
3423.94	0.000563
3433.59	0.0005704
3443.23	0.0005278
3452.88	0.0005461
3462.52	0.0004154
3472.17	0.0005755
3481.81	0.0006803
3491.46	0.0005089
3501.1	0.0005411
3510.75	0.0006625
3520.39	0.0004653
3530.04	0.0005202
3539.68	0.000571
3549.32	0.0004315
3558.97	0.0004579
3568.61	0.0005971
3578.26	0.0003424
3587.9	0.0006251
3597.55	0.0006003
3607.19	0.00121
3616.84	0.0014
3626.48	0.00262
3636.13	0.0048
3645.77	0.00742
3655.42	0.00658
3665.06	0.0035
3674.71	0.00181
3684.35	0.00113
3694	0.0008
3703.64	0.0007378
3713.29	0.0006322
3722.93	0.0007502
3732.58	0.0007392
3742.22	0.0007267
3751.86	0.0006029
3761.51	0.0007753
3771.15	0.0005277
3780.8	0.000624
3790.44	0.0005362
3800.09	0.0004255
3809.73	0.0006599
3819.38	0.0004672
3829.02	0.0004043
3838.67	0.0007798
3848.31	0.0005533
3857.96	0.0008465
3867.6	0.0006688
3877.25	0.0008154
3886.89	0.00109
3896.54	0.0007966
3906.18	0.0009098
3915.83	0.0004884
3925.47	0.0008604
3935.12	0.0005659
3944.76	0.0007537
3954.41	0.000389
3964.05	0.0006344
3973.69	0.0007045
3983.34	0.0006164
3992.98	0.0007204
