Infrared Spectrum: CYCLOHEXANECARBOXYLIC ACID, 1-[3-(2-CHLOROETHYL)UREIDO]-3-METHYL-, ETHYL ESTER
Formula: C13 H23 Cl N2 O3
CAS: 33190-16-8
State: SOLID (1 mg / 650 mg KBr DISC)
Class: COBLENTZ III
Instrument: PERKIN-ELMER 521 (GRATING)
Instrument parameters: FILTERS AT 3150, 2500, 2000, 1150, 700, 410 CM ^-^1, GRATING CHANGES AT 2000, 630 CM ^-^1
Sampling: TRANSMISSION
Resolution: 4
Origin: SOUTHERN RES. INSTITUTE
1/CM	TRANSMITTANCE
238.926	0.19
248.13	0.21
257.334	0.248
266.539	0.32
275.743	0.396
284.947	0.447
294.151	0.485
303.356	0.529
312.56	0.545
321.764	0.565
330.968	0.599
340.172	0.629
349.377	0.636
358.581	0.642
367.785	0.673
376.989	0.679
386.194	0.697
395.398	0.751
404.602	0.763
413.806	0.771
423.011	0.781
432.215	0.789
441.419	0.776
450.623	0.761
459.827	0.778
469.032	0.791
478.236	0.808
487.44	0.809
496.644	0.804
505.849	0.792
515.053	0.759
524.257	0.788
533.461	0.786
542.665	0.77
551.87	0.78
561.074	0.782
570.278	0.776
579.482	0.748
588.687	0.747
597.891	0.754
607.095	0.743
616.299	0.723
625.504	0.692
634.708	0.659
643.912	0.629
653.116	0.674
662.32	0.737
671.525	0.763
680.729	0.785
689.933	0.798
699.137	0.788
708.342	0.729
717.546	0.776
726.75	0.77
735.954	0.753
745.158	0.745
754.363	0.841
763.567	0.841
772.771	0.795
781.975	0.844
791.18	0.862
800.384	0.873
809.588	0.889
818.792	0.889
827.997	0.87
837.201	0.869
846.405	0.87
855.609	0.84
864.813	0.854
874.018	0.819
883.222	0.85
892.426	0.871
901.63	0.881
910.835	0.888
920.039	0.881
929.243	0.871
938.447	0.878
947.651	0.847
956.856	0.825
966.06	0.801
975.264	0.838
984.468	0.852
993.673	0.841
1002.88	0.817
1012.08	0.72
1021.29	0.646
1030.49	0.54
1039.69	0.683
1048.9	0.768
1058.1	0.741
1067.31	0.788
1076.51	0.782
1085.71	0.752
1094.92	0.604
1104.12	0.709
1113.33	0.773
1122.53	0.787
1131.74	0.758
1140.94	0.608
1150.14	0.478
1159.35	0.627
1168.55	0.555
1177.76	0.468
1186.96	0.566
1196.17	0.68
1205.37	0.647
1214.57	0.459
1223.78	0.639
1232.98	0.542
1242.19	0.35
1251.39	0.255
1260.6	0.457
1269.8	0.522
1279	0.472
1288.21	0.504
1297.41	0.456
1306.62	0.494
1315.82	0.632
1325.02	0.743
1334.23	0.77
1343.43	0.785
1352.64	0.774
1361.84	0.751
1371.05	0.69
1380.25	0.75
1389.45	0.791
1398.66	0.791
1407.86	0.824
1417.07	0.832
1426.27	0.822
1435.48	0.698
1444.68	0.589
1453.88	0.552
1463.09	0.516
1472.29	0.604
1481.5	0.733
1490.7	0.794
1499.91	0.782
1509.11	0.723
1518.31	0.683
1527.52	0.65
1536.72	0.616
1545.93	0.543
1555.13	0.388
1564.33	0.194
1573.54	0.133
1582.74	0.27
1591.95	0.45
1601.15	0.627
1610.36	0.57
1619.56	0.51
1628.76	0.281
1637.97	0.142
1647.17	0.321
1656.38	0.438
1665.58	0.32
1674.79	0.549
1683.99	0.641
1693.19	0.695
1702.4	0.714
1711.6	0.491
1720.81	0.413
1730.01	0.437
1739.22	0.253
1748.42	0.571
1757.62	0.725
1766.83	0.775
1776.03	0.804
1785.24	0.822
1794.44	0.832
1803.64	0.844
1812.85	0.853
1822.05	0.86
1831.26	0.866
1840.46	0.87
1849.67	0.875
1858.87	0.878
1868.07	0.879
1877.28	0.881
1886.48	0.884
1895.69	0.888
1904.89	0.889
1914.1	0.891
1923.3	0.894
1932.5	0.896
1941.71	0.897
1950.91	0.897
1960.12	0.898
1969.32	0.897
1978.52	0.895
1987.73	0.893
1996.93	0.891
2006.14	0.888
2015.34	0.888
2024.55	0.888
2033.75	0.889
2042.95	0.889
2052.16	0.89
2061.36	0.891
2070.57	0.891
2079.77	0.892
2088.98	0.893
2098.18	0.893
2107.38	0.894
2116.59	0.894
2125.79	0.894
2135	0.895
2144.2	0.895
2153.41	0.895
2162.61	0.895
2171.81	0.895
2181.02	0.895
2190.22	0.895
2199.43	0.894
2208.63	0.894
2217.83	0.894
2227.04	0.894
2236.24	0.893
2245.45	0.893
2254.65	0.893
2263.86	0.894
2273.06	0.894
2282.26	0.894
2291.47	0.894
2300.67	0.895
2309.88	0.895
2319.08	0.895
2328.29	0.894
2337.49	0.894
2346.69	0.894
2355.9	0.894
2365.1	0.894
2374.31	0.895
2383.51	0.896
2392.72	0.896
2401.92	0.897
2411.12	0.896
2420.33	0.895
2429.53	0.894
2438.74	0.894
2447.94	0.893
2457.14	0.892
2466.35	0.892
2475.55	0.892
2484.76	0.891
2493.96	0.891
2503.17	0.891
2512.37	0.891
2521.57	0.891
2530.78	0.891
2539.98	0.891
2549.19	0.891
2558.39	0.891
2567.6	0.891
2576.8	0.891
2586	0.891
2595.21	0.89
2604.41	0.888
2613.62	0.887
2622.82	0.885
2632.03	0.885
2641.23	0.884
2650.43	0.883
2659.64	0.883
2668.84	0.881
2678.05	0.881
2687.25	0.88
2696.45	0.88
2705.66	0.878
2714.86	0.877
2724.07	0.878
2733.27	0.879
2742.48	0.88
2751.68	0.881
2760.88	0.878
2770.09	0.875
2779.29	0.866
2788.5	0.86
2797.7	0.854
2806.91	0.848
2816.11	0.841
2825.31	0.812
2834.52	0.69
2843.72	0.711
2852.93	0.629
2862.13	0.674
2871.33	0.711
2880.54	0.666
2889.74	0.611
2898.95	0.557
2908.15	0.492
2917.36	0.437
2926.56	0.464
2935.76	0.454
2944.97	0.453
2954.17	0.493
2963.38	0.595
2972.58	0.631
2981.79	0.678
2990.99	0.702
3000.19	0.739
3009.4	0.756
3018.6	0.76
3027.81	0.758
3037.01	0.763
3046.22	0.776
3055.42	0.794
3064.62	0.797
3073.83	0.795
3083.03	0.788
3092.24	0.774
3101.44	0.756
3110.64	0.77
3119.85	0.786
3129.05	0.788
3138.26	0.785
3147.46	0.782
3156.67	0.775
3165.87	0.766
3175.07	0.76
3184.28	0.748
3193.48	0.736
3202.69	0.719
3211.89	0.703
3221.1	0.685
3230.3	0.663
3239.5	0.645
3248.71	0.591
3257.91	0.548
3267.12	0.518
3276.32	0.518
3285.53	0.525
3294.73	0.526
3303.93	0.512
3313.14	0.499
3322.34	0.472
3331.55	0.447
3340.75	0.419
3349.95	0.413
3359.16	0.43
3368.36	0.439
3377.57	0.4
3386.77	0.453
3395.98	0.546
3405.18	0.629
3414.38	0.654
3423.59	0.67
3432.79	0.687
3442	0.697
3451.2	0.704
3460.41	0.712
3469.61	0.718
3478.81	0.725
3488.02	0.732
3497.22	0.738
3506.43	0.744
3515.63	0.75
3524.84	0.757
3534.04	0.763
3543.24	0.772
3552.45	0.779
3561.65	0.782
3570.86	0.788
3580.06	0.794
3589.26	0.8
3598.47	0.805
3607.67	0.81
3616.88	0.816
3626.08	0.825
3635.29	0.828
3644.49	0.83
3653.69	0.832
3662.9	0.831
3672.1	0.829
3681.31	0.832
3690.51	0.836
3699.72	0.839
3708.92	0.841
3718.12	0.841
3727.33	0.841
3736.53	0.84
3745.74	0.839
3754.94	0.841
3764.15	0.841
3773.35	0.84
3782.55	0.841
3791.76	0.841
3800.96	0.841
