Infrared Spectrum: 1,2,4-BENZENETRICARBOXYLIC ACID, TRIS(2-ETHYLHEXYL) ESTER
Formula: C33 H54 O6
CAS: 3319-31-1
State: SOLUTION (10% IN CCl4 FOR 4000-1330, 10% IN CS2 FOR 1330-420 CM^-^1) VS. SOLVENT
Class: COBLENTZ III
Instrument: PERKIN-ELMER 180
Sampling: TRANSMISSION
Path length: 0.011, 0.011 CM
Resolution: 4
Origin: DOW CHEMICAL COMPANY
1/CM	TRANSMITTANCE
421.266	0.905
430.38	0.913
439.494	0.92
448.608	0.917
457.722	0.913
466.836	0.902
475.95	0.884
485.064	0.873
494.178	0.875
503.292	0.888
512.406	0.899
521.519	0.904
530.633	0.902
539.747	0.905
548.861	0.9
557.975	0.901
567.089	0.904
576.203	0.907
585.317	0.91
594.431	0.909
603.545	0.912
612.659	0.924
621.773	0.94
630.887	0.94
640.001	0.934
649.115	0.921
658.229	0.906
667.343	0.887
676.457	0.929
685.571	0.914
694.685	0.839
703.798	0.827
712.912	0.8001
722.026	0.735
731.14	0.752
740.254	0.726
749.368	0.388
758.482	0.565
767.596	0.626
776.71	0.686
785.824	0.732
794.938	0.7429
804.052	0.82
813.166	0.831
822.28	0.826
831.394	0.824
840.508	0.844
849.622	0.778
858.736	0.717
867.85	0.834
876.964	0.867
886.077	0.854
895.191	0.801
904.305	0.747
913.419	0.737
922.533	0.689
931.647	0.678
940.761	0.66
949.875	0.599
958.989	0.56
968.103	0.592
977.217	0.573
986.331	0.62
995.445	0.608
1004.56	0.698
1013.67	0.759
1022.79	0.749
1031.9	0.776
1041.01	0.773
1050.13	0.709
1059.24	0.3988
1068.36	0.2249
1077.47	0.5989
1086.58	0.663
1095.7	0.51
1104.81	0.093
1113.93	0.075
1123.04	0.158
1132.15	0.268
1141.27	0.276
1150.38	0.3551
1159.5	0.5659
1168.61	0.707
1177.72	0.759
1186.84	0.756
1195.95	0.695
1205.07	0.57
1214.18	0.379
1223.29	0.033
1232.41	0.01
1241.52	0.029
1250.64	0.064
1259.75	0.065
1268.86	0.058
1277.98	0.044
1287.09	0.08
1296.21	0.085
1305.32	0.08
1314.43	0.194
1323.55	0.4551
1332.66	0.594
1341.78	0.6
1350.89	0.673
1360	0.681
1369.12	0.614
1378.23	0.372
1387.34	0.531
1396.46	0.675
1405.57	0.619
1414.69	0.727
1423.8	0.771
1432.91	0.722
1442.03	0.569
1451.14	0.382
1460.26	0.204
1469.37	0.398
1478.48	0.705
1487.6	0.689
1496.71	0.766
1505.83	0.811
1514.94	0.842
1524.05	0.862
1533.17	0.867
1542.28	0.863
1551.4	0.861
1560.51	0.852
1569.62	0.797
1578.74	0.837
1587.85	0.86
1596.97	0.852
1606.08	0.799
1615.19	0.842
1624.31	0.863
1633.42	0.863
1642.54	0.858
1651.65	0.85
1660.76	0.839
1669.88	0.815
1678.99	0.755
1688.11	0.698
1697.22	0.6159
1706.33	0.428
1715.45	0.05
1724.56	0.001
1733.67	0.011
1742.79	0.105
1751.9	0.4232
1761.02	0.693
1770.13	0.772
1779.24	0.808
1788.36	0.836
1797.47	0.857
1806.59	0.869
1815.7	0.876
1824.81	0.88
1833.93	0.886
1843.04	0.892
1852.16	0.897
1861.27	0.901
1870.38	0.904
1879.5	0.907
1888.61	0.908
1897.73	0.91
1906.84	0.912
1915.95	0.911
1925.07	0.908
1934.18	0.903
1943.3	0.904
1952.41	0.909
1961.52	0.915
1970.64	0.918
1979.75	0.917
1988.87	0.919
1997.98	0.918
2007.09	0.9075
2016.21	0.906
2025.32	0.9065
2034.44	0.904
2043.55	0.905
2052.66	0.905
2061.78	0.902
2070.89	0.902
2080.01	0.9055
2089.12	0.906
2098.23	0.9015
2107.35	0.906
2116.46	0.9065
2125.57	0.9069
2134.69	0.903
2143.8	0.906
2152.92	0.909
2162.03	0.905
2171.14	0.9041
2180.26	0.906
2189.37	0.907
2198.49	0.907
2207.6	0.9034
2216.71	0.9051
2225.83	0.906
2234.94	0.905
2244.06	0.908
2253.17	0.909
2262.28	0.908
2271.4	0.909
2280.51	0.908
2289.63	0.911
2298.74	0.91
2307.85	0.907
2316.97	0.9086
2326.08	0.9079
2335.2	0.9028
2344.31	0.9
2353.42	0.9
2362.54	0.9
2371.65	0.899
2380.77	0.897
2389.88	0.9016
2398.99	0.9009
2408.11	0.902
2417.22	0.903
2426.34	0.9086
2435.45	0.909
2444.56	0.9094
2453.68	0.9119
2462.79	0.91
2471.9	0.911
2481.02	0.911
2490.13	0.9109
2499.25	0.909
2508.36	0.911
2517.47	0.9074
2526.59	0.906
2535.7	0.905
2544.82	0.905
2553.93	0.904
2563.04	0.903
2572.16	0.901
2581.27	0.8989
2590.39	0.8957
2599.5	0.894
2608.61	0.895
2617.73	0.8952
2626.84	0.898
2635.96	0.8968
2645.07	0.895
2654.18	0.891
2663.3	0.8877
2672.41	0.886
2681.53	0.8887
2690.64	0.889
2699.75	0.8873
2708.87	0.8828
2717.98	0.876
2727.1	0.8618
2736.21	0.8617
2745.32	0.8695
2754.44	0.873
2763.55	0.872
2772.67	0.8706
2781.78	0.8606
2790.89	0.8509
2800.01	0.8332
2809.12	0.8142
2818.24	0.7894
2827.35	0.7392
2836.46	0.6453
2845.58	0.4836
2854.69	0.1629
2863.8	0.1783
2872.92	0.1454
2882.03	0.3001
2891.15	0.2767
2900.26	0.2092
2909.37	0.1257
2918.49	0.0498
2927.6	0.0202
2936.72	0.0488
2945.83	0.0822
2954.94	0.0276
2964.06	0.0179
2973.17	0.1364
2982.29	0.381
2991.4	0.6048
3000.51	0.7253
3009.63	0.7892
3018.74	0.8265
3027.86	0.8493
3036.97	0.8613
3046.08	0.8685
3055.2	0.8765
3064.31	0.8792
3073.43	0.8793
3082.54	0.8881
3091.65	0.8993
3100.77	0.9046
3109.88	0.9093
3119	0.9128
3128.11	0.915
3137.22	0.917
3146.34	0.9203
3155.45	0.921
3164.57	0.921
3173.68	0.9192
3182.79	0.922
3191.91	0.9258
3201.02	0.928
3210.13	0.9298
3219.25	0.933
3228.36	0.934
3237.48	0.937
3246.59	0.938
3255.7	0.94
3264.82	0.9408
3273.93	0.9403
3283.05	0.94
3292.16	0.942
3301.27	0.9428
3310.39	0.943
3319.5	0.943
3328.62	0.943
3337.73	0.943
3346.84	0.944
3355.96	0.944
3365.07	0.943
3374.19	0.943
3383.3	0.941
3392.41	0.94
3401.53	0.9386
3410.64	0.9321
3419.76	0.9186
3428.87	0.9074
3437.98	0.904
3447.1	0.9099
3456.21	0.9194
3465.33	0.9299
3474.44	0.9344
3483.55	0.9379
3492.67	0.942
3501.78	0.9459
3510.9	0.949
3520.01	0.949
3529.12	0.949
3538.24	0.951
3547.35	0.949
3556.47	0.9499
3565.58	0.952
3574.69	0.9568
3583.81	0.9606
3592.92	0.95
3602.03	0.9466
3611.15	0.943
3620.26	0.944
3629.38	0.9469
3638.49	0.948
3647.6	0.949
3656.72	0.948
3665.83	0.947
3674.95	0.946
3684.06	0.946
3693.17	0.946
3702.29	0.9469
3711.4	0.949
3720.52	0.948
3729.63	0.949
3738.74	0.949
3747.86	0.95
3756.97	0.95
3766.09	0.95
3775.2	0.95
3784.31	0.9499
3793.43	0.951
3802.54	0.9515
3811.66	0.952
3820.77	0.9499
3829.88	0.951
3839	0.95
3848.11	0.951
3857.23	0.951
3866.34	0.949
3875.45	0.9505
3884.57	0.949
3893.68	0.949
3902.8	0.949
3911.91	0.95
3921.02	0.948
3930.14	0.9495
3939.25	0.95
3948.36	0.951
3957.48	0.951
3966.59	0.949
3975.71	0.949
3984.82	0.95
3993.93	0.948
