Infrared Spectrum: o-Nitrophenyl isocyanate
Formula: C 7 H 4 N 2 O 3
CAS: 3320-86-3
State: gas
Origin: EPA-IR VAPOR PHASE LIBRARY
1/CM	ABSORBANCE
549.8	0.001599
559.445	0.001559
569.09	0.001389
578.734	0.001369
588.379	0.0007201
598.024	0.0008128
607.669	0.0009753
617.313	0.0010228
626.958	0.0010964
636.603	0.0010909
646.248	0.001479
655.893	0.001779
665.537	0.002049
675.182	0.002289
684.827	0.002269
694.472	0.002149
704.116	0.001679
713.761	0.001709
723.406	0.002619
733.051	0.004489
742.695	0.007499
752.34	0.004089
761.985	0.002489
771.63	0.001809
781.275	0.001539
790.919	0.0012491
800.564	0.0012476
810.209	0.001599
819.854	0.001769
829.498	0.001509
839.143	0.0012304
848.788	0.001419
858.433	0.002349
868.078	0.003189
877.722	0.002739
887.367	0.0012512
897.012	0.0009414
906.657	0.0006097
916.301	0.000714
925.946	0.0007705
935.591	0.0008019
945.236	0.0009013
954.88	0.0006032
964.525	0.0007503
974.17	0.0008474
983.815	0.0008676
993.46	0.0007135
1003.1	0.0007932
1012.75	0.0007849
1022.39	0.0012753
1032.04	0.0008129
1041.68	0.0005341
1051.33	0.0006196
1060.97	0.0010238
1070.62	0.0009977
1080.26	0.0008049
1089.91	0.000538
1099.55	0.0006144
1109.2	0.0011358
1118.84	0.0007887
1128.49	0.0005921
1138.13	0.0007105
1147.78	0.001429
1157.42	0.003189
1167.07	0.002739
1176.71	0.001829
1186.36	0.00043872
1196	8.2e-05
1205.64	0.0005804
1215.29	0.0004696
1224.93	0.00034938
1234.58	0.0010748
1244.22	0.002809
1253.87	0.005299
1263.51	0.006659
1273.16	0.004979
1282.8	0.003229
1292.45	0.003869
1302.09	0.003769
1311.74	0.002329
1321.38	0.002669
1331.03	0.006209
1340.67	0.012069
1350.32	0.012739
1359.96	0.006569
1369.61	0.001809
1379.25	0.001339
1388.9	0.0011219
1398.54	0.0009137
1408.18	0.0008747
1417.83	0.0008213
1427.47	0.0009894
1437.12	0.001679
1446.76	0.002479
1456.41	0.002639
1466.05	0.002089
1475.7	0.002569
1485.34	0.002929
1494.99	0.003559
1504.63	0.006969
1514.28	0.014739
1523.92	0.017009
1533.57	0.013309
1543.21	0.005519
1552.86	0.003429
1562.5	0.003739
1572.15	0.004979
1581.79	0.005319
1591.44	0.004289
1601.08	0.004529
1610.73	0.008579
1620.37	0.013849
1630.01	0.013129
1639.66	0.007539
1649.3	0.002969
1658.95	0.001559
1668.59	0.0010393
1678.24	0.0009071
1687.88	0.0007565
1697.53	0.000727
1707.17	0.0006406
1716.82	0.0005436
1726.46	0.0006011
1736.11	0.0004874
1745.75	0.0004922
1755.4	0.00040866
1765.04	0.00043191
1774.69	0.0004872
1784.33	0.0004805
1793.98	0.0005044
1803.62	0.0004709
1813.27	0.000465
1822.91	0.00043501
1832.55	0.0003481
1842.2	0.0004634
1851.84	0.00040435
1861.49	0.00041168
1871.13	0.00037141
1880.78	0.00042955
1890.42	0.0004993
1900.07	0.00044839
1909.71	0.0005824
1919.36	0.0005394
1929	0.0005442
1938.65	0.000558
1948.29	0.00043504
1957.94	0.0003473
1967.58	0.00041444
1977.23	0.000238
1986.87	0.00042166
1996.52	0.00038436
2006.16	0.00037325
2015.81	0.00042485
2025.45	0.00035551
2035.1	0.000368146
2044.74	0.000363566
2054.38	0.00037645
2064.03	0.0003442
2073.67	0.00037269
2083.32	0.00037934
2092.96	0.0003415
2102.61	0.000358464
2112.25	0.00040014
2121.9	0.00042048
2131.54	0.00042608
2141.19	0.00045245
2150.83	0.0003559
2160.48	0.00043035
2170.12	0.0004337
2179.77	0.000472
2189.41	0.0004722
2199.06	0.0004599
2208.7	0.0003387
2218.35	0.00042644
2227.99	0.0003315
2237.64	0.000365924
2247.28	0.00040194
2256.92	0.00043939
2266.57	0.000252
2276.21	0.00043878
2285.86	0.00035096
2295.5	0.00042406
2305.15	0.0004843
2314.79	0.00039205
2324.44	0.00040966
2334.08	0.00041469
2343.73	0.00037765
2353.37	0.00043825
2363.02	0.0004644
2372.66	0.0005074
2382.31	0.00041465
2391.95	0.00038853
2401.6	0.00040908
2411.24	0.000501
2420.89	0.00037423
2430.53	0.00045556
2440.18	0.0004698
2449.82	0.0005661
2459.47	0.00044991
2469.11	0.00043365
2478.75	0.00040344
2488.4	0.000397
2498.04	0.00042969
2507.69	0.0003071
2517.33	0.00039325
2526.98	0.0003326
2536.62	0.0002978
2546.27	0.00041293
2555.91	0.0004731
2565.56	0.000358807
2575.2	0.0003377
2584.85	0.00040668
2594.49	0.00044639
2604.14	0.0005103
2613.78	0.000514
2623.43	0.0004599
2633.07	0.000477
2642.72	0.00041845
2652.36	0.00045895
2662.01	0.00043194
2671.65	0.000361506
2681.29	0.0005403
2690.94	0.00043634
2700.58	0.0004812
2710.23	0.0004803
2719.87	0.00044993
2729.52	0.0003481
2739.16	0.00038836
2748.81	0.00040521
2758.45	0.000502
2768.1	0.000367983
2777.74	0.0005599
2787.39	0.00041427
2797.03	0.00042129
2806.68	0.0005423
2816.32	0.00041192
2825.97	0.0005232
2835.61	0.0005289
2845.26	0.0005825
2854.9	0.0005267
2864.55	0.0006238
2874.19	0.0006227
2883.84	0.0005618
2893.48	0.0005083
2903.12	0.0005581
2912.77	0.00045769
2922.41	0.000616
2932.06	0.0004627
2941.7	0.0005159
2951.35	0.0004636
2960.99	0.00044008
2970.64	0.00040678
2980.28	0.0004944
2989.93	0.0005049
2999.57	0.0003279
3009.22	0.0004644
3018.86	0.0005104
3028.51	0.00076
3038.15	0.0008907
3047.8	0.001218
3057.44	0.0013343
3067.09	0.001489
3076.73	0.001519
3086.38	0.0013011
3096.02	0.001026
3105.67	0.0007471
3115.31	0.000233
3124.95	0.0005158
3134.6	0.00040865
3144.24	0.0002901
3153.89	0.00041622
3163.53	0.0003022
3173.18	0.0005865
3182.82	0.0002901
3192.47	0.00042749
3202.11	0.00035863
3211.76	0.0004795
3221.4	0.00045219
3231.05	0.00037096
3240.69	0.00038506
3250.34	0.0002887
3259.98	0.000279
3269.63	0.0003077
3279.27	0.000333
3288.92	0.0002794
3298.56	0.0003446
3308.21	0.0003462
3317.85	0.0003328
3327.49	0.0003114
3337.14	0.00041437
3346.78	0.00041888
3356.43	0.000209
3366.07	0.0003163
3375.72	0.0007288
3385.36	0.0009359
3395.01	0.002089
3404.65	0.003689
3414.3	0.003709
3423.94	0.002169
3433.59	0.0008306
3443.23	0.00037222
3452.88	0.00042559
3462.52	0.0005189
3472.17	0.0005529
3481.81	0.0006896
3491.46	0.0010129
3501.1	0.001419
3510.75	0.001819
3520.39	0.002689
3530.04	0.002769
3539.68	0.002119
3549.32	0.0011494
3558.97	0.0005554
3568.61	0.000366101
3578.26	0.000112
3587.9	0.0003015
3597.55	0.00038452
3607.19	0.0004777
3616.84	0.000119
3626.48	0.000205
3636.13	0.000304
3645.77	0.0005371
3655.42	0.0005036
3665.06	0.00039454
3674.71	0.000259
3684.35	0.000154
3694	0.000247
3703.64	0.0002817
3713.29	0.00044277
3722.93	0.000192
3732.58	0.000257
3742.22	0.000178
3751.86	0.000208
3761.51	0.00014
3771.15	0.0002686
3780.8	0.00040344
3790.44	0.000163
3800.09	0.0003073
3809.73	0.000221
3819.38	0.0002831
3829.02	0.0003173
3838.67	0.0002833
3848.31	0.000167
3857.96	7.9e-05
3867.6	0.00039939
3877.25	0.000362383
3886.89	0.000166
3896.54	0.000243
3906.18	0.000233
3915.83	0.0002594
3925.47	0.00037481
3935.12	0.000239
3944.76	0.00041617
3954.41	0.00040071
3964.05	0.00040016
3973.69	0.000224
3983.34	0.0002947
3992.98	0.0003307
