Infrared Spectrum: Endosulfan II
Formula: C 9 H 6 Cl 6 O 3 S
CAS: 33213-65-9
State: gas
Instrument: HP-GC/MS/IRD
Origin: NIST Mass Spectrometry Data Center
1/CM	ABSORBANCE
550	0.0002584
562	0.0004114
574	0.000204
586	2.38e-05
598	0.0001632
610	0.001173
622	0.002754
634	0.0057511
646	0.0042874
658	0.0023885
670	0.0089114
682	0.0099688
694	0.0098396
706	0.0043095
718	0.0028917
730	0.002601
742	0.0047396
754	0.0024667
766	0.0027761
778	0.0066317
790	0.0020706
802	0.0006069
814	0.0004131
826	0.0003196
838	0.0010982
850	0.0013957
862	0.0011883
874	0.0020043
886	0.0058293
898	0.0036278
910	0.0060146
922	0.0037417
934	0.0025534
946	0.0042194
958	0.0094418
970	0.0112744
982	0.0054587
994	0.0122944
1006	0.0084337
1018	0.0070193
1030	0.0035513
1042	0.0021148
1054	0.0028135
1066	0.0050524
1078	0.0067252
1090	0.0052479
1102	0.0030362
1114	0.0015351
1126	0.0012597
1138	0.0023307
1150	0.0021692
1162	0.0017765
1174	0.0029682
1186	0.0026418
1198	0.0055046
1210	0.0157573
1222	0.0010676
1234	0.0012886
1246	0.0061659
1258	0.0041225
1270	0.0015793
1282	0.0022338
1294	0.0009112
1306	0.0012495
1318	0.0005406
1330	0.0003349
1342	0.0003621
1354	0.0001683
1366	7.65e-05
1378	0.0001564
1390	0.0001751
1402	5.1e-05
1414	2.21e-05
1426	7.65e-05
1438	0.000272
1450	0.0011764
1462	0.0013787
1474	0.0006664
1486	0.0001632
1498	8.5e-05
1510	4.76e-05
1522	7.14e-05
1534	7.31e-05
1546	1.19e-05
1558	5.78e-05
1570	0.0002584
1582	0.000442
1594	0.0021165
1606	0.0040647
1618	0.0006222
1630	0.0001581
1642	6.8e-05
1654	4.76e-05
1666	5.78e-05
1678	3.91e-05
1690	5.1e-05
1702	1.19e-05
1714	1.7e-05
1726	3.57e-05
1738	5.27e-05
1750	5.1e-05
1762	4.25e-05
1774	7.82e-05
1786	8.5e-05
1798	5.95e-05
1810	6.8e-05
1822	1.36e-05
1834	3.74e-05
1846	2.04e-05
1858	4.08e-05
1870	2.72e-05
1882	3.91e-05
1894	2.04e-05
1906	8.16e-05
1918	9.69e-05
1930	8.84e-05
1942	9.86e-05
1954	0.0001224
1966	8.67e-05
1978	9.35e-05
1990	6.46e-05
2002	6.8e-05
2014	7.14e-05
2026	7.99e-05
2038	5.95e-05
2050	5.27e-05
2062	6.29e-05
2074	6.12e-05
2086	4.08e-05
2098	4.08e-05
2110	4.25e-05
2122	4.08e-05
2134	4.42e-05
2146	4.59e-05
2158	5.44e-05
2170	4.93e-05
2182	4.25e-05
2194	1.53e-05
2206	6.8e-05
2218	2.89e-05
2230	5.1e-05
2242	4.93e-05
2254	2.21e-05
2266	2.04e-05
2278	4.42e-05
2290	4.08e-05
2302	3.57e-05
2314	5.1e-06
2326	2.72e-05
2338	2.04e-05
2350	1.7e-06
2362	0
2374	3.06e-05
2386	6.8e-05
2398	0.0001479
2410	0.0001343
2422	6.29e-05
2434	4.76e-05
2446	2.89e-05
2458	7.14e-05
2470	2.72e-05
2482	0.0001173
2494	9.01e-05
2506	5.44e-05
2518	4.25e-05
2530	5.27e-05
2542	8.67e-05
2554	3.06e-05
2566	4.93e-05
2578	5.27e-05
2590	9.35e-05
2602	3.91e-05
2614	2.04e-05
2626	9.86e-05
2638	6.63e-05
2650	3.4e-05
2662	5.95e-05
2674	2.89e-05
2686	4.93e-05
2698	5.27e-05
2710	7.14e-05
2722	8.33e-05
2734	9.69e-05
2746	9.86e-05
2758	7.14e-05
2770	7.48e-05
2782	0.0001003
2794	0.0001173
2806	0.0001394
2818	0.0001258
2830	0.0001615
2842	0.000187
2854	0.0001887
2866	0.0001785
2878	0.0002516
2890	0.0005508
2902	0.0005321
2914	0.0004284
2926	0.0005899
2938	0.0008755
2950	0.0014535
2962	0.0020842
2974	0.0010999
2986	0.000816
2998	0.000238
3010	0.0001581
3022	0.0001054
3034	0.0001462
3046	0.0001292
3058	9.86e-05
3070	1.19e-05
3082	0.0001054
3094	6.12e-05
3106	0.0001411
3118	8.16e-05
3130	0.0001088
3142	9.18e-05
3154	7.31e-05
3166	7.14e-05
3178	0.0001836
3190	0.0001445
3202	0.0001394
3214	0.0001241
3226	0.0001547
3238	0.0001105
3250	8.67e-05
3262	0.0001462
3274	0.0001377
3286	0.0001445
3298	0.0001479
3310	0.0001343
3322	0.0001105
3334	7.82e-05
3346	0.0001581
3358	8.67e-05
3370	0.0001819
3382	0.000119
3394	0.0001241
3406	0.0001037
3418	0.0001377
3430	6.97e-05
3442	0.0001241
3454	8.84e-05
3466	3.91e-05
3478	0.000153
3490	0.0001479
3502	4.59e-05
3514	0.0001394
3526	0.0001496
3538	3.4e-05
3550	6.12e-05
3562	0.0001003
3574	6.46e-05
3586	8.33e-05
3598	5.44e-05
3610	6.63e-05
3622	0.0001666
3634	7.99e-05
3646	8.33e-05
3658	0.0001088
3670	0.0002499
3682	9.18e-05
3694	0.0001292
3706	0.0001377
3718	0.0001887
3730	0.0001003
3742	0.0001224
3754	0.0001479
3766	0.0001411
3778	0.0001275
3790	0.0001292
3802	0.0001683
3814	0.0001904
3826	0.0001717
3838	0.0002108
