Infrared Spectrum: 3,5-Dichloro-2-hydroxyacetophenone
Formula: C 8 H 6 Cl 2 O 2
CAS: 3321-92-4
State: gas
Origin: EPA-IR VAPOR PHASE LIBRARY
1/CM	ABSORBANCE
549.8	0.02926
559.445	0.03898
569.09	0.01481
578.734	0.00717
588.379	0.00639
598.024	0.00622
607.669	0.00667
617.313	0.00646
626.958	0.01544
636.603	0.05767
646.248	0.05847
655.893	0.01956
665.537	0.01314
675.182	0.01215
684.827	0.01347
694.472	0.0143
704.116	0.01506
713.761	0.02258
723.406	0.04902
733.051	0.08928
742.695	0.10262
752.34	0.07651
761.985	0.05392
771.63	0.04889
781.275	0.04714
790.919	0.04288
800.564	0.03254
810.209	0.03231
819.854	0.03587
829.498	0.01774
839.143	0.0091
848.788	0.01255
858.433	0.0478
868.078	0.07739
877.722	0.02646
887.367	0.0156
897.012	0.01057
906.657	0.00611
916.301	0.00593
925.946	0.00554
935.591	0.00579
945.236	0.00802
954.88	0.01202
964.525	0.02127
974.17	0.02217
983.815	0.0103
993.46	0.00582
1003.1	0.00465
1012.75	0.00597
1022.39	0.00865
1032.04	0.008
1041.68	0.00626
1051.33	0.00523
1060.97	0.00531
1070.62	0.00582
1080.26	0.01076
1089.91	0.01527
1099.55	0.01521
1109.2	0.02072
1118.84	0.02113
1128.49	0.02752
1138.13	0.03178
1147.78	0.02449
1157.42	0.04428
1167.07	0.11006
1176.71	0.13978
1186.36	0.06981
1196	0.05261
1205.64	0.11329
1215.29	0.21939
1224.93	0.24766
1234.58	0.13535
1244.22	0.08062
1253.87	0.05576
1263.51	0.04773
1273.16	0.05969
1282.8	0.09609
1292.45	0.17243
1302.09	0.26135
1311.74	0.17501
1321.38	0.0731
1331.03	0.06901
1340.67	0.07474
1350.32	0.07483
1359.96	0.08754
1369.61	0.11085
1379.25	0.08621
1388.9	0.05959
1398.54	0.06127
1408.18	0.08463
1417.83	0.155
1427.47	0.2751
1437.12	0.33281
1446.76	0.19359
1456.41	0.09247
1466.05	0.04836
1475.7	0.03603
1485.34	0.03163
1494.99	0.02953
1504.63	0.02563
1514.28	0.02331
1523.92	0.0227
1533.57	0.02235
1543.21	0.02055
1552.86	0.01864
1562.5	0.01701
1572.15	0.01733
1581.79	0.0193
1591.44	0.02682
1601.08	0.0424
1610.73	0.04422
1620.37	0.03355
1630.01	0.03495
1639.66	0.04881
1649.3	0.10533
1658.95	0.23816
1668.59	0.22438
1678.24	0.09131
1687.88	0.04432
1697.53	0.02703
1707.17	0.02242
1716.82	0.02119
1726.46	0.01981
1736.11	0.01376
1745.75	0.01078
1755.4	0.01054
1765.04	0.0101
1774.69	0.00926
1784.33	0.00672
1793.98	0.00412
1803.62	0.00295
1813.27	0.0027
1822.91	0.00275
1832.55	0.00258
1842.2	0.00225
1851.84	0.0025
1861.49	0.00245
1871.13	0.0023
1880.78	0.00217
1890.42	0.0019
1900.07	0.00192
1909.71	0.00218
1919.36	0.00238
1929	0.00224
1938.65	0.00231
1948.29	0.00243
1957.94	0.00228
1967.58	0.00221
1977.23	0.00202
1986.87	0.00208
1996.52	0.00197
2006.16	0.00244
2015.81	0.00266
2025.45	0.00245
2035.1	0.00249
2044.74	0.00217
2054.38	0.00198
2064.03	0.00173
2073.67	0.00152
2083.32	0.00155
2092.96	0.00161
2102.61	0.00146
2112.25	0.00192
2121.9	0.00176
2131.54	0.00181
2141.19	0.00166
2150.83	0.00199
2160.48	0.00187
2170.12	0.00239
2179.77	0.0023
2189.41	0.00231
2199.06	0.00212
2208.7	0.00192
2218.35	0.00208
2227.99	0.00216
2237.64	0.00209
2247.28	0.00206
2256.92	0.00192
2266.57	0.00198
2276.21	0.00214
2285.86	0.00242
2295.5	0.0027
2305.15	0.00297
2314.79	0.00287
2324.44	0.00266
2334.08	0.00225
2343.73	0.00245
2353.37	0.00209
2363.02	0.00235
2372.66	0.00241
2382.31	0.00268
2391.95	0.00321
2401.6	0.00294
2411.24	0.003
2420.89	0.00291
2430.53	0.003
2440.18	0.00292
2449.82	0.00307
2459.47	0.00344
2469.11	0.0035
2478.75	0.00408
2488.4	0.00395
2498.04	0.00448
2507.69	0.00533
2517.33	0.00574
2526.98	0.00644
2536.62	0.00669
2546.27	0.00689
2555.91	0.00689
2565.56	0.00624
2575.2	0.00603
2584.85	0.00646
2594.49	0.00676
2604.14	0.00683
2613.78	0.00638
2623.43	0.00608
2633.07	0.00671
2642.72	0.00662
2652.36	0.00774
2662.01	0.00789
2671.65	0.00796
2681.29	0.00811
2690.94	0.00846
2700.58	0.00885
2710.23	0.0089
2719.87	0.00895
2729.52	0.00863
2739.16	0.00858
2748.81	0.00807
2758.45	0.0086
2768.1	0.0092
2777.74	0.00935
2787.39	0.00976
2797.03	0.01011
2806.68	0.0105
2816.32	0.01101
2825.97	0.01137
2835.61	0.01199
2845.26	0.01251
2854.9	0.01277
2864.55	0.01291
2874.19	0.01284
2883.84	0.01324
2893.48	0.01388
2903.12	0.01411
2912.77	0.0145
2922.41	0.01521
2932.06	0.01697
2941.7	0.01867
2951.35	0.01926
2960.99	0.02049
2970.64	0.02252
2980.28	0.02462
2989.93	0.02526
2999.57	0.02536
3009.22	0.02697
3018.86	0.03054
3028.51	0.0309
3038.15	0.02908
3047.8	0.02827
3057.44	0.0289
3067.09	0.0293
3076.73	0.02999
3086.38	0.03116
3096.02	0.03112
3105.67	0.03002
3115.31	0.03033
3124.95	0.02977
3134.6	0.02911
3144.24	0.0292
3153.89	0.02748
3163.53	0.02745
3173.18	0.02692
3182.82	0.026
3192.47	0.02495
3202.11	0.02445
3211.76	0.0239
3221.4	0.02309
3231.05	0.02252
3240.69	0.02163
3250.34	0.02147
3259.98	0.021
3269.63	0.01964
3279.27	0.01865
3288.92	0.01864
3298.56	0.01847
3308.21	0.01881
3317.85	0.01881
3327.49	0.01768
3337.14	0.01642
3346.78	0.01538
3356.43	0.0141
3366.07	0.01302
3375.72	0.01222
3385.36	0.01136
3395.01	0.01162
3404.65	0.01007
3414.3	0.0098
3423.94	0.00863
3433.59	0.0077
3443.23	0.0075
3452.88	0.00671
3462.52	0.0063
3472.17	0.00573
3481.81	0.00566
3491.46	0.00537
3501.1	0.00479
3510.75	0.00444
3520.39	0.00417
3530.04	0.00406
3539.68	0.00438
3549.32	0.00786
3558.97	0.0105
3568.61	0.00704
3578.26	0.0038
3587.9	0.00288
3597.55	0.00145
3607.19	0.00201
3616.84	0.00177
3626.48	0.00151
3636.13	0.00185
3645.77	0.00109
3655.42	0.00116
3665.06	0.00136
3674.71	0.00126
3684.35	0.00104
3694	0.00138
3703.64	0.00101
3713.29	0.00122
3722.93	0.00113
3732.58	0.00101
3742.22	0.0005455
3751.86	0.0007185
3761.51	0.00138
3771.15	0.00111
3780.8	0.000756
3790.44	0.0007338
3800.09	0.0005525
3809.73	0.0007032
3819.38	0.0009017
3829.02	0.0011
3838.67	0.000487
3848.31	0.00125
3857.96	0.0007841
3867.6	0.00126
3877.25	0.0008612
3886.89	0.00131
3896.54	0.00108
3906.18	0.00136
3915.83	0.00119
3925.47	0.00144
3935.12	0.00109
3944.76	0.00165
3954.41	0.00185
3964.05	0.00151
3973.69	0.00152
3983.34	0.00161
3992.98	0.00126
