Infrared Spectrum: 3,4,5-Trichloropyridine
Formula: C 5 H 2 Cl 3 N
CAS: 33216-52-3
State: gas
Origin: EPA-IR VAPOR PHASE LIBRARY
1/CM	ABSORBANCE
549.9	0.00933
559.547	0.00337
569.193	0.001886
578.84	0.00286
588.486	0.00268
598.133	0.001789
607.779	0.0014697
617.426	0.0016758
627.072	0.0016816
636.719	0.0015185
646.365	0.001444
656.012	0.0015211
665.658	0.0015474
675.305	0.0019005
684.951	0.0022717
694.598	0.00422
704.245	0.01204
713.891	0.02998
723.538	0.04858
733.184	0.07109
742.831	0.04733
752.477	0.00744
762.124	0.00345
771.77	0.00413
781.417	0.00517
791.063	0.00755
800.71	0.02425
810.356	0.09204
820.003	0.12319
829.649	0.04705
839.296	0.01096
848.943	0.00808
858.589	0.01002
868.236	0.0134
877.882	0.02196
887.529	0.02836
897.175	0.0134
906.822	0.00525
916.468	0.00281
926.115	0.0018675
935.761	0.0018513
945.408	0.0017677
955.054	0.00161731
964.701	0.001446
974.347	0.0018632
983.994	0.0028
993.64	0.00306
1003.29	0.00304
1012.93	0.00256
1022.58	0.002115
1032.23	0.0017412
1041.87	0.0016861
1051.52	0.0019432
1061.17	0.004
1070.81	0.00722
1080.46	0.00682
1090.11	0.0039
1099.75	0.00256
1109.4	0.00527
1119.05	0.02129
1128.69	0.04262
1138.34	0.0362
1147.99	0.0117
1157.63	0.00464
1167.28	0.00454
1176.92	0.01101
1186.57	0.03513
1196.22	0.05732
1205.86	0.05684
1215.51	0.03852
1225.16	0.06168
1234.8	0.07186
1244.45	0.02362
1254.1	0.00389
1263.74	0.0024981
1273.39	0.0018815
1283.04	0.001303
1292.68	0.001288
1302.33	0.001256
1311.98	0.0014635
1321.62	0.0016881
1331.27	0.0018802
1340.92	0.0017672
1350.56	0.0019806
1360.21	0.00461
1369.86	0.02176
1379.5	0.05773
1389.15	0.08755
1398.79	0.09558
1408.44	0.08519
1418.09	0.07143
1427.73	0.06332
1437.38	0.05328
1447.03	0.02495
1456.67	0.00498
1466.32	0.00264
1475.97	0.0023266
1485.61	0.0023119
1495.26	0.00404
1504.91	0.01091
1514.55	0.02962
1524.2	0.05096
1533.85	0.05258
1543.49	0.03214
1553.14	0.00977
1562.79	0.00501
1572.43	0.00342
1582.08	0.00491
1591.73	0.00703
1601.37	0.00679
1611.02	0.00405
1620.67	0.0023119
1630.31	0.0020693
1639.96	0.0018419
1649.6	0.0014611
1659.25	0.001198
1668.9	0.001221
1678.54	0.001155
1688.19	0.001241
1697.84	0.001463
1707.48	0.00162273
1717.13	0.0017895
1726.78	0.0018758
1736.42	0.0019578
1746.07	0.001993
1755.72	0.0021136
1765.36	0.0024828
1775.01	0.0023233
1784.66	0.0021258
1794.3	0.00312
1803.95	0.00557
1813.6	0.00731
1823.24	0.00522
1832.89	0.0023016
1842.54	0.00164261
1852.18	0.0018936
1861.83	0.00262
1871.47	0.00274
1881.12	0.001973
1890.77	0.001412
1900.41	0.001394
1910.06	0.001438
1919.71	0.0015112
1929.35	0.00158704
1939	0.00163014
1948.65	0.0014748
1958.29	0.001366
1967.94	0.00127
1977.59	0.001149
1987.23	0.001057
1996.88	0.001299
2006.53	0.001544
2016.17	0.00162049
2025.82	0.001375
2035.47	0.001254
2045.11	0.001162
2054.76	0.00113
2064.41	0.001061
2074.05	0.000997
2083.7	0.001013
2093.35	0.001027
2102.99	0.001068
2112.64	0.001227
2122.28	0.001355
2131.93	0.0015208
2141.58	0.00155
2151.22	0.00141
2160.87	0.001291
2170.52	0.001213
2180.16	0.001094
2189.81	0.001016
2199.46	0.001046
2209.1	0.001092
2218.75	0.001075
2228.4	0.001122
2238.04	0.001133
2247.69	0.001224
2257.34	0.001391
2266.98	0.001365
2276.63	0.001264
2286.28	0.001088
2295.92	0.001029
2305.57	0.001034
2315.22	0.001111
2324.86	0.00117
2334.51	0.001238
2344.16	0.001126
2353.8	0.001184
2363.45	0.001322
2373.09	0.0016234
2382.74	0.0021467
2392.39	0.00304
2402.03	0.00349
2411.68	0.00325
2421.33	0.0024395
2430.97	0.0018478
2440.62	0.001313
2450.27	0.001115
2459.91	0.001015
2469.56	0.001054
2479.21	0.001035
2488.85	0.000981
2498.5	0.000912
2508.15	0.000986
2517.79	0.000987
2527.44	0.001042
2537.09	0.000915
2546.73	0.000978
2556.38	0.000873
2566.03	0.000954
2575.67	0.001053
2585.32	0.001117
2594.96	0.001058
2604.61	0.001217
2614.26	0.001161
2623.9	0.001066
2633.55	0.001134
2643.2	0.001077
2652.84	0.001169
2662.49	0.001231
2672.14	0.001099
2681.78	0.001072
2691.43	0.000953
2701.08	0.001105
2710.72	0.001281
2720.37	0.00164042
2730.02	0.001373
2739.66	0.000888
2749.31	0.000752
2758.96	0.000715
2768.6	0.000669
2778.25	0.000667
2787.9	0.000665
2797.54	0.000666
2807.19	0.000667
2816.84	0.00052
2826.48	0.00051
2836.13	0.00051
2845.77	0.00056
2855.42	0.00037
2865.07	0.00043
2874.71	0.00041
2884.36	0.00049
2894.01	0.00038
2903.65	0.00047
2913.3	0.00042
2922.95	0.00037
2932.59	0.00038
2942.24	0.00046
2951.89	0.00048
2961.53	0.00041
2971.18	0.00042
2980.83	0.00046
2990.47	0.00042
3000.12	0.00047
3009.77	0.000667
3019.41	0.000869
3029.06	0.0017224
3038.71	0.00382
3048.35	0.00625
3058	0.00692
3067.64	0.00889
3077.29	0.00799
3086.94	0.00294
3096.58	0.000745
3106.23	0.00051
3115.88	0.00047
3125.52	0.00046
3135.17	0.00023
3144.82	0.00029
3154.46	0.00019
3164.11	0.00013
3173.76	0.00021
3183.4	9e-05
3193.05	0.0002
3202.7	9e-05
3212.34	2e-05
3221.99	0.00021
3231.64	0.00027
3241.28	0.00025
3250.93	0.00024
3260.58	0.00026
3270.22	0.00016
3279.87	0.00029
3289.52	0.00037
3299.16	0.0003
3308.81	0.00024
3318.45	0.00042
3328.1	4e-05
3337.75	0.00048
3347.39	0.00035
3357.04	0.00029
3366.69	0.00024
3376.33	0.00025
3385.98	0.00023
3395.63	0.00018
3405.27	0.00028
3414.92	0.0005
3424.57	0.0004
3434.21	0.00047
3443.86	0.00038
3453.51	0.000669
3463.15	0.00042
3472.8	0.00042
3482.45	0.00042
3492.09	0.0007
3501.74	0.00053
3511.39	0.000729
3521.03	0.00064
3530.68	0.000642
3540.33	0.000676
3549.97	0.000711
3559.62	0.000691
3569.26	0.000658
3578.91	0.000735
3588.56	0.000616
3598.2	0.000786
3607.85	0.000763
3617.5	0.000781
3627.14	0.000739
3636.79	0.000738
3646.44	0.000827
3656.08	0.000664
3665.73	0.000619
3675.38	0.000796
3685.02	0.000727
3694.67	0.000773
3704.32	0.000737
3713.96	0.000822
3723.61	0.000798
3733.26	0.000776
3742.9	0.00095
3752.55	0.001024
3762.2	0.000944
3771.84	0.000799
3781.49	0.000902
3791.13	0.000825
3800.78	0.000971
3810.43	0.000834
3820.07	0.000921
3829.72	0.00086
3839.37	0.000809
3849.01	0.000947
3858.66	0.000947
3868.31	0.001109
3877.95	0.001034
3887.6	0.001012
3897.25	0.001062
3906.89	0.001025
3916.54	0.000873
3926.19	0.000901
3935.83	0.000779
3945.48	0.000854
3955.13	0.000896
3964.77	0.000866
3974.42	0.000855
3984.07	0.000779
3993.71	0.000805
