Infrared Spectrum: p-Hexylaniline
Formula: C 12 H 19 N
CAS: 33228-45-4
State: gas
Origin: EPA-IR VAPOR PHASE LIBRARY
1/CM	ABSORBANCE
549.8	0.0112264
559.445	0.0095664
569.09	0.0072164
578.734	0.0063864
588.379	0.0060764
598.024	0.0059464
607.669	0.0062664
617.313	0.0074464
626.958	0.0100264
636.603	0.0158564
646.248	0.0254964
655.893	0.0272664
665.537	0.0208564
675.182	0.0170264
684.827	0.0153164
694.472	0.0130364
704.116	0.0108864
713.761	0.0095064
723.406	0.0089664
733.051	0.0085364
742.695	0.0084464
752.34	0.0082264
761.985	0.0087664
771.63	0.0094364
781.275	0.0105364
790.919	0.0130664
800.564	0.0185064
810.209	0.0227064
819.854	0.0212664
829.498	0.0160364
839.143	0.0117564
848.788	0.0090664
858.433	0.0067364
868.078	0.0056164
877.722	0.0045064
887.367	0.0039964
897.012	0.0032764
906.657	0.0031064
916.301	0.0030364
925.946	0.0032964
935.591	0.0029364
945.236	0.0025464
954.88	0.0028264
964.525	0.0030464
974.17	0.0034464
983.815	0.0034564
993.46	0.0032764
1003.1	0.0028964
1012.75	0.0034564
1022.39	0.0035964
1032.04	0.0033764
1041.68	0.0038764
1051.33	0.0041964
1060.97	0.0054164
1070.62	0.0065864
1080.26	0.0062864
1089.91	0.0054364
1099.55	0.0049164
1109.2	0.0053964
1118.84	0.0062664
1128.49	0.0064064
1138.13	0.0039364
1147.78	0.0024064
1157.42	0.0021664
1167.07	0.0035764
1176.71	0.0114264
1186.36	0.0078564
1196	0.0027964
1205.64	0.0026564
1215.29	0.0030964
1224.93	0.0030264
1234.58	0.0050364
1244.22	0.0096664
1253.87	0.0208964
1263.51	0.0450464
1273.16	0.0428364
1282.8	0.0179564
1292.45	0.0086564
1302.09	0.0066364
1311.74	0.0056364
1321.38	0.0052364
1331.03	0.0054664
1340.67	0.0063664
1350.32	0.0062464
1359.96	0.0053064
1369.61	0.0044864
1379.25	0.0046464
1388.9	0.0041964
1398.54	0.0032564
1408.18	0.0034364
1417.83	0.0040164
1427.47	0.0050464
1437.12	0.0068864
1446.76	0.0101364
1456.41	0.0126164
1466.05	0.0125364
1475.7	0.0099364
1485.34	0.0082764
1494.99	0.0121564
1504.63	0.0334964
1514.28	0.0806564
1523.92	0.0432364
1533.57	0.0122164
1543.21	0.0060564
1552.86	0.0043364
1562.5	0.0041364
1572.15	0.0049464
1581.79	0.0066964
1591.44	0.0092264
1601.08	0.0138164
1610.73	0.0244864
1620.37	0.0447564
1630.01	0.0489664
1639.66	0.0230364
1649.3	0.0091664
1658.95	0.0054164
1668.59	0.0038364
1678.24	0.0029164
1687.88	0.0026564
1697.53	0.0025964
1707.17	0.0025064
1716.82	0.0022464
1726.46	0.0018864
1736.11	0.0019464
1745.75	0.0020564
1755.4	0.0017964
1765.04	0.0012264
1774.69	0.0010464
1784.33	0.0009832
1793.98	0.0009589
1803.62	0.0009784
1813.27	0.0009927
1822.91	0.0011064
1832.55	0.0012964
1842.2	0.0014964
1851.84	0.0021264
1861.49	0.0026964
1871.13	0.0026364
1880.78	0.0018764
1890.42	0.0013364
1900.07	0.0012064
1909.71	0.0011864
1919.36	0.0013264
1929	0.0011664
1938.65	0.0010264
1948.29	0.0009604
1957.94	0.0009019
1967.58	0.0008035
1977.23	0.0008056
1986.87	0.0006744
1996.52	0.0007992
2006.16	0.0008593
2015.81	0.000947
2025.45	0.0011064
2035.1	0.0010564
2044.74	0.0009365
2054.38	0.001024
2064.03	0.0011064
2073.67	0.0010464
2083.32	0.000879
2092.96	0.0008139
2102.61	0.0008512
2112.25	0.0007423
2121.9	0.0005946
2131.54	0.0004869
2141.19	0.0005832
2150.83	0.0006054
2160.48	0.0006092
2170.12	0.0006369
2179.77	0.0005912
2189.41	0.0005944
2199.06	0.0004804
2208.7	0.0005324
2218.35	0.0005085
2227.99	0.0004467
2237.64	0.0005126
2247.28	0.0004837
2256.92	0.0006041
2266.57	0.0006314
2276.21	0.0006986
2285.86	0.0006495
2295.5	0.0007204
2305.15	0.0007284
2314.79	0.0006999
2324.44	0.0006671
2334.08	0.000759
2343.73	0.0007375
2353.37	0.0007259
2363.02	0.0006665
2372.66	0.000561
2382.31	0.000515
2391.95	0.0004733
2401.6	0.0005787
2411.24	0.0004463
2420.89	0.0005277
2430.53	0.0005393
2440.18	0.0006399
2449.82	0.0005776
2459.47	0.0006548
2469.11	0.0005459
2478.75	0.0004483
2488.4	0.0004762
2498.04	0.000488
2507.69	0.0004855
2517.33	0.000653
2526.98	0.000885
2536.62	0.0008902
2546.27	0.0007954
2555.91	0.0006503
2565.56	0.0007952
2575.2	0.000846
2584.85	0.0008947
2594.49	0.0010264
2604.14	0.0011064
2613.78	0.0012464
2623.43	0.0011364
2633.07	0.0012464
2642.72	0.0013064
2652.36	0.0012664
2662.01	0.0014464
2671.65	0.0014664
2681.29	0.0014364
2690.94	0.0014464
2700.58	0.0014564
2710.23	0.0013164
2719.87	0.0014564
2729.52	0.0016064
2739.16	0.0017264
2748.81	0.0018564
2758.45	0.0019364
2768.1	0.0019964
2777.74	0.0023364
2787.39	0.0027164
2797.03	0.0031864
2806.68	0.0038564
2816.32	0.0050064
2825.97	0.0064464
2835.61	0.0092264
2845.26	0.0166864
2854.9	0.0332264
2864.55	0.0459164
2874.19	0.0405764
2883.84	0.0345264
2893.48	0.0304864
2903.12	0.0369664
2912.77	0.0551364
2922.41	0.0880864
2932.06	0.118666
2941.7	0.100876
2951.35	0.0625264
2960.99	0.0542764
2970.64	0.0516364
2980.28	0.0275964
2989.93	0.0181464
2999.57	0.0197564
3009.22	0.0220464
3018.86	0.0229064
3028.51	0.0275564
3038.15	0.0212364
3047.8	0.0135564
3057.44	0.0112564
3067.09	0.0086164
3076.73	0.0062064
3086.38	0.0049764
3096.02	0.0045364
3105.67	0.0039664
3115.31	0.0028564
3124.95	0.0024364
3134.6	0.0021364
3144.24	0.0015864
3153.89	0.0013464
3163.53	0.0010664
3173.18	0.0009015
3182.82	0.0008744
3192.47	0.0008225
3202.11	0.0009175
3211.76	0.0010864
3221.4	0.0009595
3231.05	0.0012364
3240.69	0.0010864
3250.34	0.0007673
3259.98	0.000608
3269.63	0.0004146
3279.27	0.0004402
3288.92	0.0003206
3298.56	0.0001388
3308.21	0.000318
3317.85	0.0001576
3327.49	0.0001522
3337.14	0.0003122
3346.78	0.0002725
3356.43	0.0004511
3366.07	0.0005891
3375.72	0.0007927
3385.36	0.0016764
3395.01	0.0037064
3404.65	0.0057164
3414.3	0.0043564
3423.94	0.0018864
3433.59	0.0012264
3443.23	0.0010864
3452.88	0.0011664
3462.52	0.0018464
3472.17	0.0025264
3481.81	0.0034964
3491.46	0.0035664
3501.1	0.0027664
3510.75	0.0016364
3520.39	0.0008022
3530.04	0.0006181
3539.68	0.0003668
3549.32	0.0004175
3558.97	0.0003906
3568.61	0.000195
3578.26	0.0002718
3587.9	0.0002171
3597.55	0.0001488
3607.19	0.0001968
3616.84	0.0003405
3626.48	0.00034
3636.13	0.0004067
3645.77	0.0004348
3655.42	0.0005039
3665.06	0.0002898
3674.71	0.0003846
3684.35	0.0002665
3694	0.0004909
3703.64	0.0003551
3713.29	0.0004741
3722.93	0.0005314
3732.58	0.0004011
3742.22	0.0004306
3751.86	0.000224
3761.51	0.0002309
3771.15	0.0005092
3780.8	0.0003509
3790.44	0.0003207
3800.09	0.0003236
3809.73	0.0004658
3819.38	0.0003752
3829.02	0.000436
3838.67	0.0004461
3848.31	0.0003872
3857.96	0.0007321
3867.6	0.0007142
3877.25	0.000684
3886.89	0.0007841
3896.54	0.0005255
3906.18	0.0005686
3915.83	0.0005356
3925.47	0.0008995
3935.12	0.0007081
3944.76	0.0005633
3954.41	0.0008592
3964.05	0.0005836
3973.69	0.000631
3983.34	0.000439
3992.98	0.0005524
