Infrared Spectrum: p-Pentylaniline
Formula: C 11 H 17 N
CAS: 33228-44-3
State: gas
Origin: EPA-IR VAPOR PHASE LIBRARY
1/CM	ABSORBANCE
549.8	0.00815
559.445	0.00629
569.09	0.00459
578.734	0.00444
588.379	0.00416
598.024	0.00425
607.669	0.00437
617.313	0.00495
626.958	0.00685
636.603	0.01121
646.248	0.0174
655.893	0.01908
665.537	0.01462
675.182	0.0117
684.827	0.01046
694.472	0.00885
704.116	0.00731
713.761	0.00653
723.406	0.0056
733.051	0.00568
742.695	0.00555
752.34	0.00577
761.985	0.00597
771.63	0.00675
781.275	0.00781
790.919	0.00953
800.564	0.01138
810.209	0.0141
819.854	0.01483
829.498	0.01172
839.143	0.0084
848.788	0.00578
858.433	0.00432
868.078	0.00329
877.722	0.0031
887.367	0.00249
897.012	0.00233
906.657	0.00241
916.301	0.00185
925.946	0.00202
935.591	0.00215
945.236	0.00195
954.88	0.00225
964.525	0.00231
974.17	0.00235
983.815	0.00252
993.46	0.00204
1003.1	0.00156
1012.75	0.00209
1022.39	0.00191
1032.04	0.00206
1041.68	0.00192
1051.33	0.00219
1060.97	0.00354
1070.62	0.00378
1080.26	0.0047
1089.91	0.00402
1099.55	0.00321
1109.2	0.00303
1118.84	0.00487
1128.49	0.00379
1138.13	0.00275
1147.78	0.00198
1157.42	0.00155
1167.07	0.00233
1176.71	0.00738
1186.36	0.00592
1196	0.00199
1205.64	0.00198
1215.29	0.00201
1224.93	0.00252
1234.58	0.00355
1244.22	0.00661
1253.87	0.01454
1263.51	0.03076
1273.16	0.02974
1282.8	0.01274
1292.45	0.00588
1302.09	0.00431
1311.74	0.0036
1321.38	0.00333
1331.03	0.00356
1340.67	0.00402
1350.32	0.00382
1359.96	0.00322
1369.61	0.00282
1379.25	0.003
1388.9	0.00285
1398.54	0.00219
1408.18	0.00228
1417.83	0.0027
1427.47	0.00325
1437.12	0.00438
1446.76	0.00624
1456.41	0.00775
1466.05	0.00791
1475.7	0.00642
1485.34	0.0056
1494.99	0.00821
1504.63	0.02301
1514.28	0.0547
1523.92	0.03168
1533.57	0.00824
1543.21	0.00425
1552.86	0.00301
1562.5	0.00281
1572.15	0.00336
1581.79	0.0046
1591.44	0.00647
1601.08	0.00961
1610.73	0.01727
1620.37	0.03107
1630.01	0.03377
1639.66	0.01633
1649.3	0.00642
1658.95	0.00366
1668.59	0.00263
1678.24	0.00203
1687.88	0.00176
1697.53	0.00169
1707.17	0.00173
1716.82	0.00161
1726.46	0.00133
1736.11	0.00126
1745.75	0.00155
1755.4	0.00118
1765.04	0.0008217
1774.69	0.0007305
1784.33	0.0006689
1793.98	0.0006811
1803.62	0.0005791
1813.27	0.0006311
1822.91	0.0007515
1832.55	0.0008063
1842.2	0.001
1851.84	0.00152
1861.49	0.00192
1871.13	0.00185
1880.78	0.00132
1890.42	0.0009279
1900.07	0.0008121
1909.71	0.000828
1919.36	0.000928
1929	0.0008758
1938.65	0.000629
1948.29	0.0006712
1957.94	0.0005431
1967.58	0.0005589
1977.23	0.0005785
1986.87	0.0005374
1996.52	0.0005232
2006.16	0.000503
2015.81	0.0007014
2025.45	0.00065
2035.1	0.000805
2044.74	0.0006698
2054.38	0.0006361
2064.03	0.0007775
2073.67	0.0007487
2083.32	0.0005958
2092.96	0.0006026
2102.61	0.0005868
2112.25	0.0004785
2121.9	0.0004123
2131.54	0.0003972
2141.19	0.0003319
2150.83	0.0003965
2160.48	0.0003152
2170.12	0.0004508
2179.77	0.0003717
2189.41	0.0003906
2199.06	0.0003654
2208.7	0.0003414
2218.35	0.000342
2227.99	0.0003871
2237.64	0.0003078
2247.28	0.0003944
2256.92	0.000467
2266.57	0.0004273
2276.21	0.0004735
2285.86	0.0005176
2295.5	0.0005446
2305.15	0.0005219
2314.79	0.0005246
2324.44	0.0004295
2334.08	0.0005388
2343.73	0.000427
2353.37	0.0004289
2363.02	0.0005371
2372.66	0.0003948
2382.31	0.0003843
2391.95	0.0003838
2401.6	0.0003332
2411.24	0.0003867
2420.89	0.0003776
2430.53	0.0005258
2440.18	0.0004221
2449.82	0.0005329
2459.47	0.0004833
2469.11	0.0004115
2478.75	0.0002098
2488.4	0.0003179
2498.04	0.0003147
2507.69	0.0003888
2517.33	0.0004704
2526.98	0.0006014
2536.62	0.0006504
2546.27	0.0006983
2555.91	0.0005549
2565.56	0.0005787
2575.2	0.0005678
2584.85	0.0006386
2594.49	0.000634
2604.14	0.0006405
2613.78	0.0007135
2623.43	0.0006667
2633.07	0.0008104
2642.72	0.0009409
2652.36	0.0009285
2662.01	0.0009422
2671.65	0.0009291
2681.29	0.0008269
2690.94	0.0009151
2700.58	0.0008622
2710.23	0.000832
2719.87	0.0009164
2729.52	0.0009466
2739.16	0.00112
2748.81	0.00133
2758.45	0.00117
2768.1	0.00123
2777.74	0.00139
2787.39	0.00163
2797.03	0.00193
2806.68	0.00226
2816.32	0.00283
2825.97	0.00379
2835.61	0.00546
2845.26	0.00964
2854.9	0.01806
2864.55	0.02526
2874.19	0.02425
2883.84	0.02177
2893.48	0.01851
2903.12	0.0212
2912.77	0.031
2922.41	0.04873
2932.06	0.06454
2941.7	0.05728
2951.35	0.03794
2960.99	0.03516
2970.64	0.03432
2980.28	0.01906
2989.93	0.01225
2999.57	0.01326
3009.22	0.01506
3018.86	0.01568
3028.51	0.01884
3038.15	0.01493
3047.8	0.00928
3057.44	0.0079
3067.09	0.00595
3076.73	0.00433
3086.38	0.00348
3096.02	0.00314
3105.67	0.00255
3115.31	0.00187
3124.95	0.00167
3134.6	0.00153
3144.24	0.00105
3153.89	0.0007854
3163.53	0.0008121
3173.18	0.0007899
3182.82	0.0006279
3192.47	0.0006143
3202.11	0.000656
3211.76	0.0007165
3221.4	0.0006215
3231.05	0.0007558
3240.69	0.0008102
3250.34	0.0005827
3259.98	0.0003596
3269.63	0.0004854
3279.27	0.000303
3288.92	0.0001602
3298.56	0.0002019
3308.21	0.0001554
3317.85	0.00027
3327.49	0.0004308
3337.14	0.0001496
3346.78	0.0002295
3356.43	0.000387
3366.07	0.0004238
3375.72	0.0008756
3385.36	0.00119
3395.01	0.00271
3404.65	0.00404
3414.3	0.0029
3423.94	0.00154
3433.59	0.00108
3443.23	0.0005222
3452.88	0.00106
3462.52	0.0012
3472.17	0.00204
3481.81	0.00245
3491.46	0.0025
3501.1	0.00207
3510.75	0.00114
3520.39	0.0006133
3530.04	0.0004704
3539.68	0.0003708
3549.32	0.0002098
3558.97	0.0002879
3568.61	0.0001225
3578.26	0.000172
3587.9	0.0001505
3597.55	0.0002182
3607.19	0.0001252
3616.84	0.000213
3626.48	4.738e-05
3636.13	0.0003687
3645.77	0.0001158
3655.42	0.0003002
3665.06	0.0002935
3674.71	0.0003595
3684.35	0.0002901
3694	0.0003099
3703.64	0.0003921
3713.29	0.0001241
3722.93	0.0002485
3732.58	0.0002821
3742.22	0.0001953
3751.86	0.0003332
3761.51	0.0004343
3771.15	4.301e-05
3780.8	0.0001106
3790.44	0.000278
3800.09	0.0002218
3809.73	0.0002826
3819.38	0.0003764
3829.02	0.0003537
3838.67	0.0003394
3848.31	0.0002006
3857.96	0.0004458
3867.6	0.0006527
3877.25	0.0003499
3886.89	0.0003008
3896.54	0.0005983
3906.18	0.0003878
3915.83	0.0002611
3925.47	0.0003495
3935.12	0.0003815
3944.76	0.0005073
3954.41	0.0004495
3964.05	0.0003249
3973.69	0.0004802
3983.34	0.0004871
3992.98	0.0003419
