Infrared Spectrum: 1-Chloro-5-methylhexane
Formula: C 7 H 15 Cl
CAS: 33240-56-1
State: gas
Instrument: HP-GC/MS/IRD
Origin: NIST Mass Spectrometry Data Center
1/CM	ABSORBANCE
550	0.0004033
562	0.0001184
574	0.0001147
586	0.0001665
598	0.0001665
610	0.0001813
622	0.0003774
634	0.0007252
646	0.0014948
658	0.0027047
670	0.0021238
682	0.0010989
694	0.0009657
706	0.0011655
718	0.0018796
730	0.0030599
742	0.003996
754	0.0029082
766	0.0016761
778	0.0010323
790	0.0008066
802	0.0008695
814	0.0010323
826	0.000962
838	0.0006734
850	0.0005439
862	0.0005883
874	0.000666
886	0.0006845
898	0.000629
910	0.0006216
922	0.0006401
934	0.0005661
946	0.0005476
958	0.0006364
970	0.0007067
982	0.0007511
994	0.0006586
1006	0.0006364
1018	0.0006364
1030	0.0006327
1042	0.000555
1054	0.0004773
1066	0.0004218
1078	0.0003626
1090	0.0002886
1102	0.000296
1114	0.0003441
1126	0.0003145
1138	0.00037
1150	0.0005624
1162	0.0010286
1174	0.0010841
1186	0.0006808
1198	0.0005587
1210	0.0005513
1222	0.0006401
1234	0.0006808
1246	0.0010397
1258	0.0018611
1270	0.0024309
1282	0.0028342
1294	0.0033337
1306	0.0034151
1318	0.0030858
1330	0.0023236
1342	0.0019647
1354	0.0020424
1366	0.0027121
1378	0.0030821
1390	0.0030081
1402	0.0015133
1414	0.0009842
1426	0.0013468
1438	0.0024531
1450	0.004292
1462	0.0050283
1474	0.004144
1486	0.0021349
1498	0.0009916
1510	0.0005402
1522	0.0003663
1534	0.000259
1546	0.0002146
1558	0.0001924
1570	0.0001776
1582	0.0001406
1594	0.0001443
1606	0.0001369
1618	0.0001221
1630	0.0001332
1642	0.0001221
1654	0.0001221
1666	0.0001221
1678	0.0001221
1690	0.0001406
1702	0.000111
1714	0.0001221
1726	9.99e-05
1738	7.77e-05
1750	8.14e-05
1762	7.03e-05
1774	6.66e-05
1786	5.18e-05
1798	6.66e-05
1810	4.07e-05
1822	4.44e-05
1834	4.81e-05
1846	4.44e-05
1858	5.55e-05
1870	4.81e-05
1882	3.7e-05
1894	3.7e-05
1906	1.11e-05
1918	1.48e-05
1930	2.22e-05
1942	1.48e-05
1954	2.22e-05
1966	2.59e-05
1978	3.7e-05
1990	2.22e-05
2002	3.33e-05
2014	4.44e-05
2026	3.7e-05
2038	5.18e-05
2050	3.7e-05
2062	4.44e-05
2074	4.07e-05
2086	3.33e-05
2098	4.81e-05
2110	4.44e-05
2122	4.07e-05
2134	2.96e-05
2146	2.59e-05
2158	3.7e-05
2170	2.96e-05
2182	7.4e-05
2194	5.55e-05
2206	1.48e-05
2218	2.96e-05
2230	5.18e-05
2242	3.7e-05
2254	5.92e-05
2266	7.77e-05
2278	7.03e-05
2290	9.25e-05
2302	7.4e-05
2314	9.25e-05
2326	5.18e-05
2338	6.29e-05
2350	6.29e-05
2362	9.62e-05
2374	8.51e-05
2386	8.14e-05
2398	8.51e-05
2410	9.25e-05
2422	9.25e-05
2434	5.92e-05
2446	5.55e-05
2458	7.77e-05
2470	9.99e-05
2482	8.88e-05
2494	0.000111
2506	0.000111
2518	9.99e-05
2530	0.0001147
2542	0.0001221
2554	0.0001184
2566	0.0001739
2578	0.0001924
2590	0.0002146
2602	0.0002442
2614	0.0003034
2626	0.0003145
2638	0.0003478
2650	0.0003515
2662	0.0003404
2674	0.0003404
2686	0.0003811
2698	0.0004292
2710	0.0004958
2722	0.0006216
2734	0.000703
2746	0.000629
2758	0.0006327
2770	0.0007104
2782	0.0007881
2794	0.0009657
2806	0.0012617
2818	0.0016354
2830	0.0024272
2842	0.004255
2854	0.0072372
2866	0.0102157
2878	0.0135087
2890	0.0143005
2902	0.0160543
2914	0.0195619
2926	0.0220187
2938	0.0257076
2950	0.0290228
2962	0.036926
2974	0.0279461
2986	0.0106967
2998	0.0064417
3010	0.0036371
3022	0.0018685
3034	0.0012432
3046	0.0010212
3058	0.0008325
3070	0.0007585
3082	0.0006697
3094	0.0006216
3106	0.0005402
3118	0.0005032
3130	0.0004551
3142	0.0004884
3154	0.0004625
3166	0.0004514
3178	0.0004329
3190	0.0003959
3202	0.0003589
3214	0.0002442
3226	0.0001665
3238	0.0001369
3250	0.0001295
3262	0.0001665
3274	0.0001665
3286	9.25e-05
3298	0.0001332
3310	9.62e-05
3322	0.0001258
3334	0.0001369
3346	0.0001628
3358	0.0001406
3370	0.0001406
3382	0.0001406
3394	7.4e-05
3406	9.62e-05
3418	9.25e-05
3430	8.51e-05
3442	4.81e-05
3454	5.92e-05
3466	3.7e-05
3478	2.96e-05
3490	7.03e-05
3502	7.77e-05
3514	4.44e-05
3526	4.07e-05
3538	3.33e-05
3550	2.96e-05
3562	6.66e-05
3574	1.85e-05
3586	7.03e-05
3598	0.0001258
3610	4.81e-05
3622	5.92e-05
3634	8.14e-05
3646	4.44e-05
3658	8.14e-05
3670	3.33e-05
3682	6.66e-05
3694	6.29e-05
3706	4.81e-05
3718	8.88e-05
3730	5.18e-05
3742	8.88e-05
3754	0.0001258
3766	6.66e-05
3778	8.51e-05
3790	9.99e-05
3802	0.0001406
3814	0.0001036
3826	0.0001369
3838	0.0001258
