Infrared Spectrum: Fluchloralin
Formula: C 12 H 13 Cl F 3 N 3 O 4
CAS: 33245-39-5
State: gas
Instrument: HP-GC/MS/IRD
Origin: NIST Mass Spectrometry Data Center
1/CM	ABSORBANCE
550	0.000748
562	0.00017
574	0.000459
586	0.000629
598	0.001003
610	0.001343
622	0.001411
634	0.001598
646	0.002363
658	0.003723
670	0.005763
682	0.004012
694	0.003791
706	0.011696
718	0.027489
730	0.010659
742	0.007106
754	0.005338
766	0.004998
778	0.005015
790	0.004522
802	0.002686
814	0.001003
826	0.00085
838	0.000918
850	0.001496
862	0.001666
874	0.002771
886	0.005729
898	0.01326
910	0.010183
922	0.0051
934	0.003213
946	0.003043
958	0.003349
970	0.002618
982	0.001547
994	0.001139
1006	0.001411
1018	0.002176
1030	0.002465
1042	0.002618
1054	0.00238
1066	0.002397
1078	0.0034
1090	0.00544
1102	0.0085
1114	0.014926
1126	0.028866
1138	0.059891
1150	0.065875
1162	0.103955
1174	0.051527
1186	0.056712
1198	0.024038
1210	0.011628
1222	0.010115
1234	0.01071
1246	0.012648
1258	0.017952
1270	0.020808
1282	0.021148
1294	0.03485
1306	0.11288
1318	0.13668
1330	0.051663
1342	0.051663
1354	0.057562
1366	0.030974
1378	0.018989
1390	0.015096
1402	0.011135
1414	0.007123
1426	0.005933
1438	0.007735
1450	0.008738
1462	0.009248
1474	0.008228
1486	0.008534
1498	0.011594
1510	0.014059
1522	0.017918
1534	0.029648
1546	0.076534
1558	0.107593
1570	0.046393
1582	0.020179
1594	0.012648
1606	0.011594
1618	0.02006
1630	0.02448
1642	0.008857
1654	0.003366
1666	0.001938
1678	0.001309
1690	0.00102
1702	0.000799
1714	0.000612
1726	0.000408
1738	0.000272
1750	0.000238
1762	0.000306
1774	0.000357
1786	0.00051
1798	0.000969
1810	0.001394
1822	0.001054
1834	0.000561
1846	0.000323
1858	0.000238
1870	0.000221
1882	0.000221
1894	0.000187
1906	0.00017
1918	0.000136
1930	0.000136
1942	8.5e-05
1954	0.000102
1966	8.5e-05
1978	8.5e-05
1990	6.8e-05
2002	5.1e-05
2014	6.8e-05
2026	0.000119
2038	0.00017
2050	0.000204
2062	0.000238
2074	0.000204
2086	0.000204
2098	0.000187
2110	0.000187
2122	0.000153
2134	8.5e-05
2146	8.5e-05
2158	8.5e-05
2170	0.000102
2182	0.000119
2194	0.000187
2206	0.000255
2218	0.000238
2230	0.000204
2242	0.000204
2254	0.000238
2266	0.000272
2278	0.000306
2290	0.000374
2302	0.000408
2314	0.000408
2326	0.000306
2338	0.000289
2350	0.000272
2362	0.000255
2374	0.000187
2386	8.5e-05
2398	6.8e-05
2410	0.000153
2422	0.000204
2434	0.000153
2446	0.000221
2458	0.000238
2470	0.000272
2482	0.000272
2494	0.000187
2506	0.000153
2518	0.00017
2530	0.000187
2542	0.000221
2554	0.000238
2566	0.000187
2578	0.000187
2590	0.000187
2602	0.000238
2614	0.000272
2626	0.000306
2638	0.000255
2650	0.000255
2662	0.00034
2674	0.000476
2686	0.000561
2698	0.000765
2710	0.000867
2722	0.000884
2734	0.000918
2746	0.000952
2758	0.000918
2770	0.000918
2782	0.000952
2794	0.001003
2806	0.001173
2818	0.001462
2830	0.001989
2842	0.002805
2854	0.004182
2866	0.006188
2878	0.00867
2890	0.010948
2902	0.008381
2914	0.008432
2926	0.009503
2938	0.011645
2950	0.012665
2962	0.01292
2974	0.017986
2986	0.012376
2998	0.005559
3010	0.00357
3022	0.002618
3034	0.001666
3046	0.00119
3058	0.001003
3070	0.001156
3082	0.001802
3094	0.002329
3106	0.00119
3118	0.000765
3130	0.000544
3142	0.000408
3154	0.000391
3166	0.000306
3178	0.000289
3190	0.000221
3202	0.000102
3214	0.000187
3226	0.000153
3238	0.000221
3250	0.000204
3262	0.00017
3274	0.000119
3286	6.8e-05
3298	5.1e-05
3310	0.000119
3322	6.8e-05
3334	0.000119
3346	8.5e-05
3358	0.000102
3370	0.000102
3382	0.000119
3394	0.000102
3406	8.5e-05
3418	0.000119
3430	0.000153
3442	0.000102
3454	0.000153
3466	0.000136
3478	0.000119
3490	0.000153
3502	0.00017
3514	0.000153
3526	0.000187
3538	0.000119
3550	8.5e-05
3562	0.000204
3574	0.000204
3586	0.000221
3598	0.000136
3610	0.000204
3622	0.000221
3634	0.000204
3646	0.00017
3658	0.000221
3670	0.000238
3682	0.000204
3694	0.000255
3706	0.000255
3718	0.000289
3730	0.000306
3742	0.00034
3754	0.000289
3766	0.000357
3778	0.000289
3790	0.000323
3802	0.000374
3814	0.000408
3826	0.000272
3838	0.00034
