Infrared Spectrum: 5-Aminobenzotriazole
Formula: C 6 H 6 N 4
CAS: 3325-11-9
State: gas
Origin: EPA-IR VAPOR PHASE LIBRARY
1/CM	ABSORBANCE
549.8	0.002476
559.445	0.003136
569.09	0.003136
578.734	0.003266
588.379	0.003556
598.024	0.004116
607.669	0.005336
617.313	0.004966
626.958	0.004346
636.603	0.003636
646.248	0.004996
655.893	0.006986
665.537	0.008296
675.182	0.008806
684.827	0.008426
694.472	0.006126
704.116	0.004556
713.761	0.003486
723.406	0.003086
733.051	0.003136
742.695	0.002766
752.34	0.003346
761.985	0.002716
771.63	0.003946
781.275	0.004076
790.919	0.006666
800.564	0.008756
810.209	0.007956
819.854	0.006936
829.498	0.005506
839.143	0.004356
848.788	0.003386
858.433	0.003106
868.078	0.003526
877.722	0.003996
887.367	0.005026
897.012	0.005266
906.657	0.004456
916.301	0.003156
925.946	0.002726
935.591	0.002376
945.236	0.002606
954.88	0.002066
964.525	0.002506
974.17	0.002956
983.815	0.004776
993.46	0.005766
1003.1	0.005776
1012.75	0.002746
1022.39	0.002526
1032.04	0.002206
1041.68	0.002056
1051.33	0.002476
1060.97	0.002256
1070.62	0.002836
1080.26	0.003896
1089.91	0.004616
1099.55	0.004056
1109.2	0.004386
1118.84	0.005356
1128.49	0.004436
1138.13	0.003626
1147.78	0.003456
1157.42	0.003166
1167.07	0.003436
1176.71	0.003956
1186.36	0.004296
1196	0.004786
1205.64	0.007286
1215.29	0.008936
1224.93	0.008856
1234.58	0.006656
1244.22	0.003806
1253.87	0.005386
1263.51	0.006406
1273.16	0.006786
1282.8	0.005086
1292.45	0.003176
1302.09	0.002996
1311.74	0.004006
1321.38	0.004326
1331.03	0.003076
1340.67	0.001686
1350.32	0.0015332
1359.96	0.0016563
1369.61	0.001906
1379.25	0.002096
1388.9	0.001816
1398.54	0.001866
1408.18	0.001766
1417.83	0.001776
1427.47	0.002046
1437.12	0.002406
1446.76	0.003506
1456.41	0.004996
1466.05	0.004506
1475.7	0.002436
1485.34	0.002206
1494.99	0.003946
1504.63	0.006096
1514.28	0.006156
1523.92	0.004186
1533.57	0.002066
1543.21	0.002356
1552.86	0.002626
1562.5	0.002886
1572.15	0.002746
1581.79	0.002876
1591.44	0.003976
1601.08	0.005036
1610.73	0.007416
1620.37	0.013726
1630.01	0.020126
1639.66	0.018286
1649.3	0.009646
1658.95	0.004586
1668.59	0.002866
1678.24	0.002436
1687.88	0.002166
1697.53	0.002166
1707.17	0.002166
1716.82	0.0013675
1726.46	0.0014878
1736.11	0.0015432
1745.75	0.0014437
1755.4	0.0015205
1765.04	0.0015855
1774.69	0.0014045
1784.33	0.0014134
1793.98	0.0013541
1803.62	0.0011673
1813.27	0.0011323
1822.91	0.0011172
1832.55	0.0012931
1842.2	0.0010559
1851.84	0.001215
1861.49	0.0012599
1871.13	0.001437
1880.78	0.0014423
1890.42	0.0013937
1900.07	0.0012173
1909.71	0.0011939
1919.36	0.0010825
1929	0.0011442
1938.65	0.0011928
1948.29	0.0011243
1957.94	0.0010296
1967.58	0.0012749
1977.23	0.0010514
1986.87	0.0010616
1996.52	0.0012237
2006.16	0.0011344
2015.81	0.0010174
2025.45	0.0011989
2035.1	0.0011837
2044.74	0.000983
2054.38	0.001127
2064.03	0.0011813
2073.67	0.0012578
2083.32	0.0011348
2092.96	0.001135
2102.61	0.0010167
2112.25	0.0013737
2121.9	0.0011152
2131.54	0.0011362
2141.19	0.0010678
2150.83	0.0011489
2160.48	0.0011631
2170.12	0.0010721
2179.77	0.0011758
2189.41	0.0012693
2199.06	0.001157
2208.7	0.0012799
2218.35	0.0009837
2227.99	0.0010866
2237.64	0.0009154
2247.28	0.0010369
2256.92	0.0012424
2266.57	0.0011206
2276.21	0.0010122
2285.86	0.0011423
2295.5	0.0012867
2305.15	0.0010455
2314.79	0.0011275
2324.44	0.0009771
2334.08	0.0010064
2343.73	0.0010725
2353.37	0.0011098
2363.02	0.0011145
2372.66	0.0009864
2382.31	0.0009299
2391.95	0.0011593
2401.6	0.0011269
2411.24	0.0008677
2420.89	0.0008881
2430.53	0.0009913
2440.18	0.0011493
2449.82	0.0011882
2459.47	0.0009291
2469.11	0.0010799
2478.75	0.001075
2488.4	0.0014167
2498.04	0.0010699
2507.69	0.0010529
2517.33	0.0011431
2526.98	0.0011315
2536.62	0.001117
2546.27	0.0012155
2555.91	0.0011687
2565.56	0.0011443
2575.2	0.0009714
2584.85	0.001012
2594.49	0.0010758
2604.14	0.001098
2613.78	0.0010605
2623.43	0.0011615
2633.07	0.000986
2642.72	0.0008962
2652.36	0.0008829
2662.01	0.001052
2671.65	0.0010177
2681.29	0.0008978
2690.94	0.0010564
2700.58	0.0009162
2710.23	0.0010158
2719.87	0.0008451
2729.52	0.0010084
2739.16	0.0011711
2748.81	0.0009915
2758.45	0.0011872
2768.1	0.0012069
2777.74	0.00070153
2787.39	0.0011126
2797.03	0.001232
2806.68	0.0012077
2816.32	0.0011048
2825.97	0.0013026
2835.61	0.0013598
2845.26	0.0010667
2854.9	0.0011193
2864.55	0.0008418
2874.19	0.0011751
2883.84	0.00136
2893.48	0.0011939
2903.12	0.0014597
2912.77	0.0011389
2922.41	0.0011484
2932.06	0.000501
2941.7	0.0007873
2951.35	0.0012229
2960.99	0.0010495
2970.64	0.0011287
2980.28	0.0008377
2989.93	0.0011298
2999.57	0.0010779
3009.22	0.0011472
3018.86	0.001976
3028.51	0.002296
3038.15	0.003106
3047.8	0.003296
3057.44	0.002816
3067.09	0.002316
3076.73	0.001866
3086.38	0.0016652
3096.02	0.0015413
3105.67	0.001766
3115.31	0.0010511
3124.95	0.0010492
3134.6	0.0010951
3144.24	0.001096
3153.89	0.0010947
3163.53	0.0013031
3173.18	0.0010737
3182.82	0.0008479
3192.47	0.0009432
3202.11	0.0011364
3211.76	0.0012519
3221.4	0.0009823
3231.05	0.0012072
3240.69	0.0009852
3250.34	0.0010611
3259.98	0.0013287
3269.63	0.0010719
3279.27	0.0011946
3288.92	0.001023
3298.56	0.0009011
3308.21	0.0009176
3317.85	0.0010649
3327.49	0.0009676
3337.14	0.0011418
3346.78	0.0012816
3356.43	0.0012477
3366.07	0.0006211
3375.72	0.0015408
3385.36	0.0010006
3395.01	0.002146
3404.65	0.002676
3414.3	0.003166
3423.94	0.002626
3433.59	0.002126
3443.23	0.001826
3452.88	0.0016045
3462.52	0.003176
3472.17	0.005396
3481.81	0.009676
3491.46	0.013086
3501.1	0.014426
3510.75	0.009166
3520.39	0.007106
3530.04	0.002696
3539.68	0.002066
3549.32	0.0013446
3558.97	0.0012166
3568.61	0.0010054
3578.26	0.0014197
3587.9	0.0008458
3597.55	0.000809
3607.19	0.00073907
3616.84	0.000871
3626.48	0.00075648
3636.13	0.0009227
3645.77	0.00070718
3655.42	0.0010426
3665.06	0.0008028
3674.71	0.0011633
3684.35	0.0012227
3694	0.0010106
3703.64	0.0010985
3713.29	0.0011225
3722.93	0.0012092
3732.58	0.0011989
3742.22	0.000955
3751.86	0.0013457
3761.51	0.0008929
3771.15	0.0010879
3780.8	0.00069048
3790.44	0.0010368
3800.09	0.000966
3809.73	0.0011031
3819.38	0.0010993
3829.02	0.0014414
3838.67	0.0009394
3848.31	0.0009595
3857.96	0.0011163
3867.6	0.0010622
3877.25	0.0012223
3886.89	0.0011732
3896.54	0.0008202
3906.18	0.0011506
3915.83	0.0014223
3925.47	0.0013513
3935.12	0.000565
3944.76	0.000511
3954.41	0.0009393
3964.05	0.0013403
3973.69	0.0012907
3983.34	0.0010778
3992.98	0.0009497
