Infrared Spectrum: 1-(2-Nitrophenyl)pyrrole
Formula: C 10 H 8 N 2 O 2
CAS: 33265-60-0
State: gas
Origin: EPA-IR VAPOR PHASE LIBRARY
1/CM	ABSORBANCE
549.8	0.007311
559.445	0.004941
569.09	0.005231
578.734	0.005091
588.379	0.005931
598.024	0.009151
607.669	0.024111
617.313	0.042481
626.958	0.029711
636.603	0.017101
646.248	0.022961
655.893	0.021391
665.537	0.016601
675.182	0.019271
684.827	0.027511
694.472	0.039341
704.116	0.075661
713.761	0.225561
723.406	0.281301
733.051	0.111851
742.695	0.084321
752.34	0.111011
761.985	0.088051
771.63	0.083591
781.275	0.042321
790.919	0.018371
800.564	0.012511
810.209	0.008571
819.854	0.008861
829.498	0.013821
839.143	0.041971
848.788	0.071031
858.433	0.038811
868.078	0.010891
877.722	0.005521
887.367	0.004441
897.012	0.004191
906.657	0.008091
916.301	0.036511
925.946	0.050231
935.591	0.016661
945.236	0.009601
954.88	0.006421
964.525	0.003731
974.17	0.004131
983.815	0.004711
993.46	0.005621
1003.1	0.016931
1012.75	0.044831
1022.39	0.030231
1032.04	0.019631
1041.68	0.018601
1051.33	0.018291
1060.97	0.070601
1070.62	0.101751
1080.26	0.092611
1089.91	0.085661
1099.55	0.042001
1109.2	0.018151
1118.84	0.012611
1128.49	0.010191
1138.13	0.007391
1147.78	0.008371
1157.42	0.009921
1167.07	0.009871
1176.71	0.007101
1186.36	0.006251
1196	0.006371
1205.64	0.006881
1215.29	0.009001
1224.93	0.009861
1234.58	0.014141
1244.22	0.013801
1253.87	0.014541
1263.51	0.022001
1273.16	0.036691
1282.8	0.046961
1292.45	0.039311
1302.09	0.036821
1311.74	0.048511
1321.38	0.092371
1331.03	0.174451
1340.67	0.184091
1350.32	0.176771
1359.96	0.201851
1369.61	0.123611
1379.25	0.043481
1388.9	0.028971
1398.54	0.033131
1408.18	0.033951
1417.83	0.023601
1427.47	0.018591
1437.12	0.022291
1446.76	0.026281
1456.41	0.031191
1466.05	0.046021
1475.7	0.061201
1485.34	0.116841
1494.99	0.304761
1504.63	0.389131
1514.28	0.233611
1523.92	0.174691
1533.57	0.229021
1543.21	0.395071
1552.86	0.425911
1562.5	0.238391
1572.15	0.123751
1581.79	0.094841
1591.44	0.107411
1601.08	0.156541
1610.73	0.164921
1620.37	0.075091
1630.01	0.029551
1639.66	0.022261
1649.3	0.017831
1658.95	0.012531
1668.59	0.009391
1678.24	0.010041
1687.88	0.013541
1697.53	0.012601
1707.17	0.009561
1716.82	0.010881
1726.46	0.015111
1736.11	0.012011
1745.75	0.006161
1755.4	0.003991
1765.04	0.003411
1774.69	0.003301
1784.33	0.003521
1793.98	0.004171
1803.62	0.005971
1813.27	0.006791
1822.91	0.004611
1832.55	0.003711
1842.2	0.004321
1851.84	0.003781
1861.49	0.002641
1871.13	0.002451
1880.78	0.003091
1890.42	0.003901
1900.07	0.004161
1909.71	0.004561
1919.36	0.006581
1929	0.006341
1938.65	0.004891
1948.29	0.005911
1957.94	0.005991
1967.58	0.003211
1977.23	0.001901
1986.87	0.001871
1996.52	0.001921
2006.16	0.001711
2015.81	0.001891
2025.45	0.002101
2035.1	0.002241
2044.74	0.002391
2054.38	0.001991
2064.03	0.0014097
2073.67	0.0013713
2083.32	0.0012497
2092.96	0.001396
2102.61	0.0013671
2112.25	0.001651
2121.9	0.001721
2131.54	0.002101
2141.19	0.002441
2150.83	0.002131
2160.48	0.001821
2170.12	0.001711
2179.77	0.002081
2189.41	0.002441
2199.06	0.002361
2208.7	0.002321
2218.35	0.002241
2227.99	0.001811
2237.64	0.002011
2247.28	0.002251
2256.92	0.002191
2266.57	0.002361
2276.21	0.002181
2285.86	0.002271
2295.5	0.002001
2305.15	0.002351
2314.79	0.002611
2324.44	0.003211
2334.08	0.002351
2343.73	0.001831
2353.37	0.001771
2363.02	0.002181
2372.66	0.002391
2382.31	0.002911
2391.95	0.003281
2401.6	0.002981
2411.24	0.002331
2420.89	0.002711
2430.53	0.002671
2440.18	0.002401
2449.82	0.002711
2459.47	0.002781
2469.11	0.002611
2478.75	0.002131
2488.4	0.002021
2498.04	0.002271
2507.69	0.002181
2517.33	0.002281
2526.98	0.002311
2536.62	0.002611
2546.27	0.002631
2555.91	0.003121
2565.56	0.003291
2575.2	0.003421
2584.85	0.003841
2594.49	0.004541
2604.14	0.004381
2613.78	0.004041
2623.43	0.004711
2633.07	0.004521
2642.72	0.004141
2652.36	0.004601
2662.01	0.004301
2671.65	0.003991
2681.29	0.003441
2690.94	0.003271
2700.58	0.003571
2710.23	0.003611
2719.87	0.003461
2729.52	0.002791
2739.16	0.002341
2748.81	0.002121
2758.45	0.002651
2768.1	0.002761
2777.74	0.002771
2787.39	0.003361
2797.03	0.003171
2806.68	0.003191
2816.32	0.003991
2825.97	0.005391
2835.61	0.005861
2845.26	0.005441
2854.9	0.005391
2864.55	0.005361
2874.19	0.005821
2883.84	0.006931
2893.48	0.007771
2903.12	0.007891
2912.77	0.006281
2922.41	0.005031
2932.06	0.003951
2941.7	0.003531
2951.35	0.003021
2960.99	0.002251
2970.64	0.002351
2980.28	0.002171
2989.93	0.002601
2999.57	0.002731
3009.22	0.002741
3018.86	0.002751
3028.51	0.003261
3038.15	0.005381
3047.8	0.007461
3057.44	0.009031
3067.09	0.014771
3076.73	0.026221
3086.38	0.027051
3096.02	0.013671
3105.67	0.010051
3115.31	0.013921
3124.95	0.011271
3134.6	0.007621
3144.24	0.007191
3153.89	0.004741
3163.53	0.002521
3173.18	0.001881
3182.82	0.0014812
3192.47	0.0014886
3202.11	0.0014801
3211.76	0.0012246
3221.4	0.0010588
3231.05	0.0008434
3240.69	0.0012174
3250.34	0.00057695
3259.98	0.00051463
3269.63	0.0009266
3279.27	0.0007777
3288.92	0.0005131
3298.56	0.0006711
3308.21	0.000504732
3317.85	0.000727
3327.49	0.0006357
3337.14	0.000376
3346.78	0.00059727
3356.43	0.000354
3366.07	0.000501057
3375.72	0.000332
3385.36	0.0004041
3395.01	0.0010848
3404.65	0.0007681
3414.3	0.0011793
3423.94	0.0007387
3433.59	0.00051291
3443.23	0.000394
3452.88	0.0004047
3462.52	0.00052622
3472.17	0.0004028
3481.81	0.0008956
3491.46	0.0008754
3501.1	0.00053887
3510.75	0.0008086
3520.39	0.0010046
3530.04	0.00059602
3539.68	0.0007217
3549.32	0.0009524
3558.97	0.001019
3568.61	0.0004699
3578.26	0.0007581
3587.9	0.0006855
3597.55	0.0010853
3607.19	0.0007015
3616.84	0.0007212
3626.48	0.000323
3636.13	0.000222
3645.77	0.00058817
3655.42	0.000476
3665.06	0.0012251
3674.71	0.0008956
3684.35	0.0009253
3694	0.0007728
3703.64	0.0009272
3713.29	0.0007766
3722.93	0.0013147
3732.58	0.0010926
3742.22	0.0012935
3751.86	0.0011148
3761.51	0.0012077
3771.15	0.0014548
3780.8	0.0008317
3790.44	0.0012543
3800.09	0.0009083
3809.73	0.0007154
3819.38	0.000388
3829.02	0.0006168
3838.67	0.000192
3848.31	0.0010634
3857.96	0.0004402
3867.6	0.00052766
3877.25	0.0006365
3886.89	0.0008479
3896.54	0.0009971
3906.18	0.0007585
3915.83	0.0006948
3925.47	0.0011178
3935.12	0.0009587
3944.76	0.0012213
3954.41	0.0011639
3964.05	0.0010779
3973.69	0.002191
3983.34	0.004101
3992.98	0.004341
