Infrared Spectrum: 2,4-DIPHENYLTHIOPHENE
Formula: C16 H12 S
CAS: 3328-86-7
State: SOLUTION (5% CCl4 FOR 2.5-7.5, 5% CS2 FOR 7.5-15 MICRON)
Class: COBLENTZ
Instrument: Not specified, most likely a prism, grating, or hybrid spectrometer.
Sampling: TRANSMISSION
Path length: 0.02 CM, 0.02 CM
Resolution: 4
Origin: DOW CHEMICAL COMPANY
MICROMETERS	TRANSMITTANCE
2.021	0.859
2.06218	0.861
2.10335	0.861
2.14453	0.854
2.1857	0.863
2.22688	0.866
2.26805	0.866
2.30923	0.869
2.3504	0.869
2.39158	0.871
2.43275	0.866
2.47393	0.856
2.5151	0.876
2.55628	0.881
2.59746	0.881
2.63863	0.88
2.67981	0.881
2.72098	0.88
2.76216	0.875
2.80333	0.871
2.84451	0.857
2.88568	0.852
2.92686	0.845
2.96803	0.842
3.00921	0.84
3.05039	0.842
3.09156	0.847
3.13274	0.851
3.17391	0.839
3.21509	0.753
3.25626	0.676
3.29744	0.592
3.33861	0.607
3.37979	0.839
3.42096	0.852
3.46214	0.861
3.50331	0.871
3.54449	0.881
3.58567	0.888
3.62684	0.893
3.66802	0.895
3.70919	0.897
3.75037	0.898
3.79154	0.9
3.83272	0.902
3.87389	0.9
3.91507	0.9
3.95624	0.905
3.99742	0.907
4.03859	0.907
4.07977	0.909
4.12095	0.907
4.16212	0.907
4.2033	0.907
4.24447	0.905
4.28565	0.902
4.32682	0.881
4.368	0.875
4.40917	0.886
4.45035	0.9
4.49152	0.907
4.5327	0.916
4.57388	0.919
4.61505	0.921
4.65623	0.922
4.6974	0.922
4.73858	0.922
4.77975	0.921
4.82093	0.922
4.8621	0.922
4.90328	0.919
4.94445	0.914
4.98563	0.916
5.0268	0.919
5.06798	0.912
5.10916	0.88
5.15033	0.861
5.19151	0.878
5.23268	0.922
5.27386	0.9
5.31503	0.876
5.35621	0.873
5.39738	0.886
5.43856	0.912
5.47973	0.912
5.52091	0.89
5.56208	0.876
5.60326	0.893
5.64444	0.919
5.68561	0.919
5.72679	0.895
5.76796	0.895
5.80914	0.907
5.85031	0.922
5.89149	0.921
5.93266	0.904
5.97384	0.878
6.01501	0.873
6.05619	0.854
6.09737	0.833
6.13854	0.827
6.17972	0.761
6.22089	0.602
6.26207	0.359
6.30324	0.422
6.34442	0.412
6.38559	0.371
6.42677	0.308
6.46794	0.267
6.50912	0.392
6.55029	0.458
6.59147	0.511
6.63265	0.522
6.67382	0.563
6.715	0.357
6.75617	0.438
6.79735	0.772
6.83852	0.765
6.8797	0.52
6.92087	0.738
6.96205	0.844
7.00322	0.864
7.0444	0.876
7.08557	0.886
7.12675	0.893
7.16793	0.895
7.2091	0.886
7.25028	0.871
7.29145	0.804
7.33263	0.772
7.3738	0.893
7.41498	0.916
7.45615	0.902
7.49733	0.833
7.5385	0.84
7.57968	0.857
7.62086	0.859
7.66203	0.832
7.70321	0.833
7.74438	0.847
7.78556	0.837
7.82673	0.833
7.86791	0.849
7.90908	0.868
7.95026	0.854
7.99143	0.83
8.03261	0.753
8.07378	0.748
8.11496	0.767
8.15614	0.741
8.19731	0.765
8.23849	0.818
8.27966	0.789
8.32084	0.702
8.36201	0.65
8.40319	0.705
8.44436	0.75
8.48554	0.779
8.52671	0.809
8.56789	0.813
8.60906	0.804
8.65024	0.799
8.69142	0.82
8.73259	0.837
8.77377	0.847
8.81494	0.849
8.85612	0.842
8.89729	0.844
8.93847	0.847
8.97964	0.849
9.02082	0.839
9.06199	0.808
9.10317	0.796
9.14435	0.809
9.18552	0.823
9.2267	0.825
9.26787	0.804
9.30905	0.719
9.35022	0.614
9.3914	0.715
9.43257	0.813
9.47375	0.806
9.51492	0.779
9.5561	0.801
9.59727	0.821
9.63845	0.779
9.67963	0.669
9.7208	0.666
9.76198	0.753
9.80315	0.816
9.84433	0.839
9.8855	0.847
9.92668	0.849
9.96785	0.839
10.009	0.828
10.0502	0.835
10.0914	0.84
10.1326	0.84
10.1737	0.837
10.2149	0.828
10.2561	0.825
10.2973	0.825
10.3384	0.777
10.3796	0.69
10.4208	0.696
10.462	0.782
10.5031	0.825
10.5443	0.837
10.5855	0.839
10.6267	0.844
10.6678	0.849
10.709	0.857
10.7502	0.863
10.7914	0.864
10.8325	0.861
10.8737	0.852
10.9149	0.842
10.9561	0.813
10.9972	0.763
11.0384	0.686
11.0796	0.671
11.1208	0.75
11.1619	0.782
11.2031	0.765
11.2443	0.696
11.2855	0.515
11.3266	0.441
11.3678	0.559
11.409	0.626
11.4502	0.645
11.4913	0.64
11.5325	0.621
11.5737	0.606
11.6149	0.59
11.656	0.583
11.6972	0.573
11.7384	0.57
11.7796	0.551
11.8207	0.488
11.8619	0.414
11.9031	0.284
11.9443	0.376
11.9854	0.527
12.0266	0.633
12.0678	0.691
12.109	0.768
12.1501	0.801
12.1913	0.818
12.2325	0.823
12.2737	0.823
12.3149	0.823
12.356	0.82
12.3972	0.804
12.4384	0.782
12.4796	0.775
12.5207	0.792
12.5619	0.809
12.6031	0.811
12.6443	0.808
12.6854	0.801
12.7266	0.792
12.7678	0.777
12.809	0.758
12.8501	0.732
12.8913	0.684
12.9325	0.613
12.9737	0.517
13.0148	0.489
13.056	0.489
13.0972	0.452
13.1384	0.327
13.1795	0.148
13.2207	0.053
13.2619	0.042
13.3031	0.094
13.3442	0.232
13.3854	0.357
13.4266	0.453
13.4678	0.501
13.5089	0.498
13.5501	0.434
13.5913	0.309
13.6325	0.196
13.6736	0.118
13.7148	0.142
13.756	0.287
13.7972	0.41
13.8383	0.503
13.8795	0.551
13.9207	0.563
13.9619	0.53
14.003	0.518
14.0442	0.529
14.0854	0.559
14.1266	0.573
14.1677	0.565
14.2089	0.517
14.2501	0.467
14.2913	0.381
14.3324	0.303
14.3736	0.212
14.4148	0.152
14.456	0.104
14.4971	0.107
14.5383	0.171
14.5795	0.227
14.6207	0.345
14.6618	0.44
14.703	0.506
14.7442	0.541
14.7854	0.554
14.8266	0.559
14.8677	0.563
14.9089	0.565
14.9501	0.566
14.9913	0.57
15.0324	0.571
15.0736	0.571
15.1148	0.571
15.156	0.561
15.1971	0.537
15.2383	0.511
15.2795	0.503
15.3207	0.501
15.3618	0.501
15.403	0.505
15.4442	0.511
15.4854	0.515
15.5265	0.517
15.5677	0.517
15.6089	0.517
15.6501	0.517
15.6912	0.517
15.7324	0.517
15.7736	0.517
15.8148	0.518
15.8559	0.52
15.8971	0.518
15.9383	0.517
