Infrared Spectrum: N-METHYLGLUCOSAMINE
Formula: C7 H15 O5 N
CAS: 3329-30-4
State: SOLID (NUJOL MULL)
Class: COBLENTZ
Instrument: Not specified, most likely a prism, grating, or hybrid spectrometer.
Sampling: TRANSMISSION
Resolution: 4
MICROMETERS	TRANSMITTANCE
1.993	0.77
2.02868	0.77
2.06435	0.777
2.10003	0.786
2.1357	0.789
2.17138	0.795
2.20705	0.798
2.24273	0.796
2.2784	0.777
2.31408	0.748
2.34976	0.753
2.38543	0.763
2.42111	0.769
2.45678	0.777
2.49246	0.795
2.52813	0.814
2.56381	0.819
2.59948	0.819
2.63516	0.833
2.67084	0.845
2.70651	0.847
2.74219	0.845
2.77786	0.833
2.81354	0.753
2.84921	0.564
2.88489	0.35
2.92057	0.157
2.95624	0.111
2.99192	0.046
3.02759	0.092
3.06327	0.083
3.09894	0.109
3.13462	0.199
3.17029	0.274
3.20597	0.307
3.24165	0.312
3.27732	0.302
3.313	0.276
3.34867	0.079
3.38435	0.005
3.42002	0.001
3.4557	0.001
3.49137	0.006
3.52705	0.149
3.56273	0.234
3.5984	0.284
3.63408	0.314
3.66975	0.305
3.70543	0.298
3.7411	0.3
3.77678	0.324
3.81245	0.361
3.84813	0.402
3.88381	0.444
3.91948	0.482
3.95516	0.503
3.99083	0.508
4.02651	0.538
4.06218	0.567
4.09786	0.593
4.13353	0.623
4.16921	0.644
4.20489	0.664
4.24056	0.675
4.27624	0.678
4.31191	0.685
4.34759	0.699
4.38326	0.718
4.41894	0.737
4.45462	0.744
4.49029	0.75
4.52597	0.762
4.56164	0.765
4.59732	0.769
4.63299	0.774
4.66867	0.779
4.70434	0.782
4.74002	0.784
4.7757	0.786
4.81137	0.786
4.84705	0.788
4.88272	0.788
4.9184	0.786
4.95407	0.786
4.98975	0.788
5.02542	0.788
5.0611	0.786
5.09678	0.784
5.13245	0.784
5.16813	0.786
5.2038	0.788
5.23948	0.789
5.27515	0.789
5.31083	0.791
5.3465	0.793
5.38218	0.795
5.41786	0.795
5.45353	0.795
5.48921	0.795
5.52488	0.795
5.56056	0.795
5.59623	0.793
5.63191	0.789
5.66759	0.788
5.70326	0.784
5.73894	0.781
5.77461	0.777
5.81029	0.776
5.84596	0.77
5.88164	0.763
5.91731	0.758
5.95299	0.744
5.98867	0.734
6.02434	0.729
6.06002	0.727
6.09569	0.718
6.13137	0.72
6.16704	0.727
6.20272	0.73
6.23839	0.736
6.27407	0.739
6.30975	0.746
6.34542	0.75
6.3811	0.75
6.41677	0.75
6.45245	0.748
6.48812	0.744
6.5238	0.73
6.55947	0.725
6.59515	0.704
6.63083	0.67
6.6665	0.602
6.70218	0.498
6.73785	0.336
6.77353	0.26
6.8092	0.185
6.84488	0.071
6.88055	0.048
6.91623	0.052
6.95191	0.098
6.98758	0.147
7.02326	0.251
7.05893	0.229
7.09461	0.279
7.13028	0.38
7.16596	0.42
7.20164	0.46
7.23731	0.354
7.27299	0.222
7.30866	0.237
7.34434	0.355
7.38001	0.484
7.41569	0.519
7.45136	0.541
7.48704	0.553
7.52272	0.564
7.55839	0.526
7.59407	0.515
7.62974	0.505
7.66542	0.425
7.70109	0.375
7.73677	0.428
7.77244	0.409
7.80812	0.446
7.8438	0.532
7.87947	0.564
7.91515	0.56
7.95082	0.557
7.9865	0.571
8.02217	0.545
8.05785	0.446
8.09352	0.286
8.1292	0.355
8.16488	0.473
8.20055	0.512
8.23623	0.583
8.2719	0.564
8.30758	0.524
8.34325	0.595
8.37893	0.657
8.4146	0.673
8.45028	0.671
8.48596	0.64
8.52163	0.437
8.55731	0.46
8.59298	0.598
8.62866	0.626
8.66433	0.581
8.70001	0.532
8.73569	0.583
8.77136	0.645
8.80704	0.668
8.84271	0.651
8.87839	0.565
8.91406	0.505
8.94974	0.404
8.98541	0.401
9.02109	0.468
9.05677	0.442
9.09244	0.296
9.12812	0.14
9.16379	0.138
9.19947	0.307
9.23514	0.394
9.27082	0.3
9.30649	0.145
9.34217	0.09
9.37785	0.177
9.41352	0.328
9.4492	0.371
9.48487	0.303
9.52055	0.13
9.55622	0.072
9.5919	0.105
9.62757	0.197
9.66325	0.286
9.69893	0.361
9.7346	0.46
9.77028	0.51
9.80595	0.451
9.84163	0.263
9.8773	0.241
9.91298	0.404
9.94865	0.513
9.98433	0.571
10.02	0.621
10.0557	0.642
10.0914	0.661
10.127	0.668
10.1627	0.668
10.1984	0.656
10.2341	0.637
10.2697	0.578
10.3054	0.548
10.3411	0.553
10.3768	0.579
10.4124	0.631
10.4481	0.654
10.4838	0.651
10.5195	0.63
10.5551	0.569
10.5908	0.503
10.6265	0.487
10.6622	0.524
10.6978	0.593
10.7335	0.633
10.7692	0.651
10.8049	0.645
10.8405	0.618
10.8762	0.553
10.9119	0.473
10.9476	0.376
10.9832	0.296
11.0189	0.248
11.0546	0.251
11.0903	0.315
11.1259	0.432
11.1616	0.522
11.1973	0.567
11.233	0.571
11.2687	0.493
11.3043	0.394
11.34	0.387
11.3757	0.484
11.4114	0.487
11.447	0.387
11.4827	0.357
11.5184	0.366
11.5541	0.336
11.5897	0.314
11.6254	0.362
11.6611	0.42
11.6968	0.46
11.7324	0.463
11.7681	0.402
11.8038	0.331
11.8395	0.302
11.8751	0.348
11.9108	0.435
11.9465	0.506
11.9822	0.536
12.0178	0.562
12.0535	0.604
12.0892	0.628
12.1249	0.642
12.1605	0.661
12.1962	0.678
12.2319	0.687
12.2676	0.692
12.3032	0.694
12.3389	0.701
12.3746	0.713
12.4103	0.715
12.4459	0.713
12.4816	0.717
12.5173	0.722
12.553	0.722
12.5886	0.723
12.6243	0.723
12.66	0.72
12.6957	0.717
12.7314	0.703
12.767	0.69
12.8027	0.671
12.8384	0.642
12.8741	0.595
12.9097	0.572
12.9454	0.586
12.9811	0.604
13.0168	0.628
13.0524	0.64
13.0881	0.645
13.1238	0.651
13.1595	0.654
13.1951	0.652
13.2308	0.647
13.2665	0.645
13.3022	0.638
13.3378	0.63
13.3735	0.621
13.4092	0.612
13.4449	0.604
13.4805	0.592
13.5162	0.578
13.5519	0.564
13.5876	0.553
13.6232	0.541
13.6589	0.534
13.6946	0.522
13.7303	0.513
13.7659	0.496
13.8016	0.482
13.8373	0.47
13.873	0.465
13.9086	0.463
13.9443	0.467
13.98	0.47
14.0157	0.468
14.0513	0.463
14.087	0.456
14.1227	0.444
14.1584	0.423
14.194	0.411
14.2297	0.392
14.2654	0.375
14.3011	0.354
14.3368	0.324
14.3724	0.309
14.4081	0.296
14.4438	0.284
14.4795	0.279
14.5151	0.277
14.5508	0.279
14.5865	0.282
14.6222	0.288
14.6578	0.295
14.6935	0.309
14.7292	0.314
14.7649	0.319
14.8005	0.324
14.8362	0.326
14.8719	0.328
14.9076	0.328
14.9432	0.326
14.9789	0.321
15.0146	0.303
15.0503	0.284
15.0859	0.277
15.1216	0.262
15.1573	0.243
15.193	0.227
15.2286	0.21
15.2643	0.194
15.3	0.184
15.3357	0.168
15.3713	0.168
15.407	0.184
15.4427	0.213
