Infrared Spectrum: UREA, 1-(2-CHLOROETHYL)-3-TRICYCLO[2.2.1.0^2^,^6]HEPT-3-YL-
Formula: C10 H15 Cl N2 O
CAS: 33298-50-9
State: SOLID (1 mg / 650 mg KBr DISC)
Class: COBLENTZ III
Instrument: PERKIN-ELMER 521 (GRATING)
Instrument parameters: FILTER CHANGES AT 3130, 2475, 2000, 1150, 700, 410 CM^-^1, GRATING CHANGES AT 2000, 620 CM^-^1
Sampling: TRANSMISSION
Resolution: 4
Origin: SOUTHERN RESEARCH INST.
1/CM	TRANSMITTANCE
273.708	0.519
283.352	0.569
292.996	0.6
302.64	0.621
312.284	0.648
321.928	0.677
331.573	0.705
341.217	0.73
350.861	0.746
360.505	0.764
370.149	0.769
379.793	0.763
389.437	0.757
399.081	0.764
408.725	0.753
418.369	0.762
428.014	0.763
437.658	0.734
447.302	0.743
456.946	0.772
466.59	0.779
476.234	0.779
485.878	0.779
495.522	0.778
505.166	0.776
514.81	0.775
524.455	0.774
534.099	0.772
543.743	0.769
553.387	0.763
563.031	0.757
572.675	0.753
582.319	0.741
591.963	0.722
601.607	0.69
611.251	0.663
620.896	0.655
630.54	0.655
640.184	0.658
649.828	0.665
659.472	0.695
669.116	0.72
678.76	0.767
688.404	0.764
698.048	0.75
707.692	0.762
717.337	0.761
726.981	0.683
736.625	0.753
746.269	0.796
755.913	0.783
765.557	0.783
775.201	0.777
784.845	0.797
794.489	0.695
804.133	0.707
813.778	0.781
823.422	0.832
833.066	0.833
842.71	0.832
852.354	0.831
861.998	0.829
871.642	0.827
881.286	0.824
890.93	0.814
900.574	0.784
910.219	0.804
919.863	0.816
929.507	0.812
939.151	0.798
948.795	0.806
958.439	0.807
968.083	0.803
977.727	0.8
987.371	0.799
997.015	0.795
1006.66	0.791
1016.3	0.788
1025.95	0.786
1035.59	0.78
1045.24	0.77
1054.88	0.764
1064.52	0.762
1074.17	0.758
1083.81	0.713
1093.46	0.746
1103.1	0.778
1112.74	0.771
1122.39	0.768
1132.03	0.777
1141.68	0.781
1151.32	0.779
1160.97	0.774
1170.61	0.765
1180.25	0.74
1189.9	0.687
1199.54	0.732
1209.19	0.728
1218.83	0.692
1228.47	0.65
1238.12	0.642
1247.76	0.521
1257.41	0.648
1267.05	0.592
1276.69	0.638
1286.34	0.637
1295.98	0.712
1305.63	0.669
1315.27	0.757
1324.91	0.768
1334.56	0.761
1344.2	0.761
1353.85	0.765
1363.49	0.772
1373.14	0.785
1382.78	0.791
1392.42	0.797
1402.07	0.797
1411.71	0.789
1421.36	0.778
1431	0.731
1440.64	0.702
1450.29	0.606
1459.93	0.742
1469.58	0.759
1479.22	0.76
1488.86	0.739
1498.51	0.68
1508.15	0.641
1517.8	0.61
1527.44	0.59
1537.09	0.589
1546.73	0.53
1556.37	0.435
1566.02	0.334
1575.66	0.29
1585.31	0.408
1594.95	0.608
1604.59	0.584
1614.24	0.352
1623.88	0.22
1633.53	0.397
1643.17	0.569
1652.81	0.658
1662.46	0.678
1672.1	0.69
1681.75	0.705
1691.39	0.759
1701.03	0.796
1710.68	0.818
1720.32	0.83
1729.97	0.836
1739.61	0.838
1749.26	0.841
1758.9	0.843
1768.54	0.845
1778.19	0.849
1787.83	0.852
1797.48	0.852
1807.12	0.854
1816.76	0.856
1826.41	0.856
1836.05	0.856
1845.7	0.857
1855.34	0.858
1864.98	0.858
1874.63	0.859
1884.27	0.86
1893.92	0.86
1903.56	0.86
1913.2	0.86
1922.85	0.86
1932.49	0.86
1942.14	0.86
1951.78	0.86
1961.43	0.86
1971.07	0.86
1980.71	0.86
1990.36	0.86
2000	0.859
2009.65	0.859
2019.29	0.859
2028.93	0.859
2038.58	0.859
2048.22	0.859
2057.87	0.858
2067.51	0.857
2077.15	0.855
2086.8	0.855
2096.44	0.856
2106.09	0.856
2115.73	0.856
2125.38	0.856
2135.02	0.856
2144.66	0.856
2154.31	0.856
2163.95	0.856
2173.6	0.856
2183.24	0.856
2192.88	0.856
2202.53	0.856
2212.17	0.856
2221.82	0.856
2231.46	0.856
2241.1	0.856
2250.75	0.856
2260.39	0.856
2270.04	0.856
2279.68	0.856
2289.32	0.855
2298.97	0.855
2308.61	0.855
2318.26	0.855
2327.9	0.855
2337.55	0.855
2347.19	0.855
2356.83	0.855
2366.48	0.855
2376.12	0.854
2385.77	0.854
2395.41	0.854
2405.05	0.853
2414.7	0.853
2424.34	0.853
2433.99	0.852
2443.63	0.852
2453.27	0.852
2462.92	0.852
2472.56	0.852
2482.21	0.852
2491.85	0.852
2501.5	0.852
2511.14	0.852
2520.78	0.852
2530.43	0.852
2540.07	0.851
2549.72	0.851
2559.36	0.85
2569	0.849
2578.65	0.849
2588.29	0.849
2597.94	0.849
2607.58	0.849
2617.22	0.849
2626.87	0.849
2636.51	0.849
2646.16	0.848
2655.8	0.847
2665.44	0.845
2675.09	0.844
2684.73	0.842
2694.38	0.839
2704.02	0.838
2713.67	0.837
2723.31	0.837
2732.95	0.838
2742.6	0.838
2752.24	0.838
2761.89	0.838
2771.53	0.835
2781.17	0.832
2790.82	0.829
2800.46	0.827
2810.11	0.822
2819.75	0.817
2829.39	0.812
2839.04	0.8
2848.68	0.785
2858.33	0.714
2867.97	0.698
2877.61	0.742
2887.26	0.781
2896.9	0.757
2906.55	0.735
2916.19	0.721
2925.84	0.694
2935.48	0.64
2945.12	0.607
2954.77	0.641
2964.41	0.71
2974.06	0.728
2983.7	0.744
2993.34	0.753
3002.99	0.765
3012.63	0.792
3022.28	0.795
3031.92	0.787
3041.56	0.781
3051.21	0.762
3060.85	0.743
3070.5	0.754
3080.14	0.775
3089.79	0.783
3099.43	0.786
3109.07	0.787
3118.72	0.787
3128.36	0.786
3138.01	0.785
3147.65	0.784
3157.29	0.781
3166.94	0.778
3176.58	0.775
3186.23	0.772
3195.87	0.765
3205.51	0.759
3215.16	0.753
3224.8	0.742
3234.45	0.729
3244.09	0.718
3253.73	0.702
3263.38	0.68
3273.02	0.653
3282.67	0.613
3292.31	0.572
3301.96	0.535
3311.6	0.551
3321.24	0.58
3330.89	0.606
3340.53	0.606
3350.18	0.588
3359.82	0.555
3369.46	0.498
3379.11	0.519
3388.75	0.603
3398.4	0.674
3408.04	0.709
3417.68	0.727
3427.33	0.741
3436.97	0.752
3446.62	0.759
3456.26	0.764
3465.91	0.768
3475.55	0.772
3485.19	0.773
3494.84	0.776
3504.48	0.78
3514.13	0.785
3523.77	0.79
3533.41	0.794
3543.06	0.799
3552.7	0.805
3562.35	0.811
3571.99	0.816
3581.63	0.82
3591.28	0.825
3600.92	0.83
3610.57	0.834
3620.21	0.837
3629.85	0.84
3639.5	0.843
3649.14	0.845
3658.79	0.847
3668.43	0.849
3678.08	0.849
3687.72	0.85
3697.36	0.851
3707.01	0.851
3716.65	0.852
3726.3	0.852
3735.94	0.852
3745.58	0.852
3755.23	0.852
3764.87	0.852
3774.52	0.852
3784.16	0.852
3793.8	0.853
3803.45	0.853
3813.09	0.853
