Infrared Spectrum: Diazinon
Formula: C 12 H 21 N 2 O 3 P S
CAS: 333-41-5
State: gas
Instrument: HP-GC/MS/IRD
Origin: NIST Mass Spectrometry Data Center
1/CM	ABSORBANCE
550	0.002405
562	0.0005735
574	1.85e-05
586	0.0001295
598	0.0003885
610	0.001147
622	0.0032375
634	0.0067155
646	0.010249
658	0.0086395
670	0.0051245
682	0.0020165
694	0.0010915
706	0.001036
718	0.0007585
730	0.0007215
742	0.0014615
754	0.003182
766	0.006993
778	0.0168165
790	0.0323935
802	0.0480815
814	0.0668405
826	0.0783105
838	0.06216
850	0.058164
862	0.048137
874	0.034891
886	0.0151145
898	0.008732
910	0.009361
922	0.0139305
934	0.0267325
946	0.0567025
958	0.079661
970	0.0898175
982	0.0846745
994	0.086617
1006	0.112184
1018	0.16687
1030	0.183076
1042	0.173622
1054	0.124227
1066	0.093092
1078	0.059644
1090	0.0474525
1102	0.039479
1114	0.027158
1126	0.021867
1138	0.0239945
1150	0.0445665
1162	0.057646
1174	0.0261405
1186	0.013468
1198	0.009028
1210	0.0058275
1222	0.0039405
1234	0.003034
1246	0.002775
1258	0.0031635
1270	0.0041625
1282	0.0069745
1294	0.013542
1306	0.012173
1318	0.013764
1330	0.031524
1342	0.082066
1354	0.07104
1366	0.0405705
1378	0.047323
1390	0.048655
1402	0.0327265
1414	0.024827
1426	0.0214045
1438	0.0199245
1450	0.0253265
1462	0.0200355
1474	0.019314
1486	0.015614
1498	0.015651
1510	0.019018
1522	0.023939
1534	0.0338365
1546	0.059015
1558	0.0993265
1570	0.114922
1582	0.141229
1594	0.0759425
1606	0.022126
1618	0.010175
1630	0.0063825
1642	0.004625
1654	0.0034965
1666	0.0028305
1678	0.0024235
1690	0.002183
1702	0.001887
1714	0.001628
1726	0.001295
1738	0.0010915
1750	0.000925
1762	0.000851
1774	0.000814
1786	0.0009065
1798	0.00111
1810	0.0013875
1822	0.0016095
1834	0.0018685
1846	0.0020165
1858	0.001924
1870	0.001591
1882	0.001221
1894	0.000999
1906	0.0007955
1918	0.0006845
1930	0.0006475
1942	0.0005365
1954	0.000407
1966	0.000296
1978	0.000259
1990	0.0002035
2002	0.000185
2014	0.000185
2026	0.000148
2038	0.000111
2050	5.55e-05
2062	3.7e-05
2074	3.7e-05
2086	0.000111
2098	0.0002035
2110	0.0002405
2122	0.0003145
2134	0.000407
2146	0.0004995
2158	0.000518
2170	0.000481
2182	0.000407
2194	0.0003515
2206	0.000259
2218	0.000185
2230	0.0001665
2242	0.0002035
2254	0.0002035
2266	0.0001665
2278	0.000185
2290	0.0002035
2302	0.000333
2314	0.0005365
2326	0.000629
2338	0.000777
2350	0.0009065
2362	0.0009065
2374	0.000814
2386	0.0007585
2398	0.0007215
2410	0.0005365
2422	0.0003885
2434	0.00037
2446	0.00037
2458	0.000407
2470	0.000444
2482	0.0004255
2494	0.000518
2506	0.000481
2518	0.0003885
2530	0.0004255
2542	0.0004995
2554	0.0005365
2566	0.0005365
2578	0.0004625
2590	0.000407
2602	0.000407
2614	0.000407
2626	0.000259
2638	0.000111
2650	7.4e-05
2662	3.7e-05
2674	9.25e-05
2686	0.0001665
2698	0.000222
2710	0.0004255
2722	0.0006845
2734	0.000925
2746	0.0010175
2758	0.001073
2770	0.0012395
2782	0.001406
2794	0.001369
2806	0.0015355
2818	0.0018685
2830	0.0022385
2842	0.003108
2854	0.004625
2866	0.0076775
2878	0.013875
2890	0.014911
2902	0.015281
2914	0.0197025
2926	0.024087
2938	0.036149
2950	0.0333
2962	0.033041
2974	0.055685
2986	0.0481555
2998	0.0309875
3010	0.016354
3022	0.009324
3034	0.0059755
3046	0.004366
3058	0.0030895
3070	0.0025345
3082	0.0025345
3094	0.002072
3106	0.0016835
3118	0.00148
3130	0.0013505
3142	0.001295
3154	0.001184
3166	0.00111
3178	0.000999
3190	0.000888
3202	0.0008325
3214	0.000703
3226	0.000555
3238	0.00037
3250	0.0002775
3262	0.000185
3274	0.0002035
3286	0.0001665
3298	7.4e-05
3310	5.55e-05
3322	0.000111
3334	1.85e-05
3346	3.7e-05
3358	0.0001295
3370	7.4e-05
3382	5.55e-05
3394	5.55e-05
3406	0.000111
3418	0.0001295
3430	3.7e-05
3442	9.25e-05
3454	3.7e-05
3466	0
3478	1.85e-05
3490	0
3502	5.55e-05
3514	5.55e-05
3526	1.85e-05
3538	0
3550	5.55e-05
3562	3.7e-05
3574	7.4e-05
3586	1.85e-05
3598	9.25e-05
3610	7.4e-05
3622	0.0001295
3634	5.55e-05
3646	0
3658	5.55e-05
3670	9.25e-05
3682	9.25e-05
3694	9.25e-05
3706	0.0001295
3718	0.000111
3730	0.0001295
3742	0.000148
3754	0.0002035
3766	0.0002035
3778	0.000111
3790	0.000148
3802	0.0002035
3814	0.0002405
3826	0.0002405
3838	0.000296
