Infrared Spectrum: 1-Allyl-4-methylbenzene
Formula: C 10 H 12
CAS: 3333-13-9
State: gas
Instrument: HP-GC/MS/IRD
Origin: NIST Mass Spectrometry Data Center
1/CM	ABSORBANCE
550	0.0009273
562	0.0004917
574	0.0003696
586	0.0005599
598	0.0006303
610	0.0009339
622	0.0009207
634	0.0005236
646	0.0002717
658	0.0001144
670	0.0001122
682	1.98e-05
694	3.3e-05
706	0.0001089
718	0.0001716
730	0.000506
742	0.0012023
754	0.002178
766	0.0024398
778	0.0027489
790	0.0043681
802	0.0059092
814	0.0043945
826	0.0023804
838	0.0017358
850	0.001133
862	0.0008778
874	0.001078
886	0.00176
898	0.0037334
910	0.0066627
922	0.0061864
934	0.0029469
946	0.001727
958	0.0013926
970	0.0016731
982	0.0028721
994	0.0036872
1006	0.0023386
1018	0.0023265
1030	0.0015609
1042	0.0008965
1054	0.0008107
1066	0.0007337
1078	0.0007447
1090	0.0010131
1102	0.0013211
1114	0.0013464
1126	0.0010087
1138	0.0005291
1150	0.0002486
1162	0.0002453
1174	0.0003047
1186	0.000517
1198	0.0007392
1210	0.0009218
1222	0.0007689
1234	0.0008371
1246	0.0005709
1258	0.0003949
1270	0.0005522
1282	0.0008514
1294	0.0008778
1306	0.0006886
1318	0.0004972
1330	0.0004862
1342	0.000495
1354	0.0005148
1366	0.0004939
1378	0.0006743
1390	0.0008855
1402	0.001287
1414	0.0019448
1426	0.0023859
1438	0.0025432
1450	0.001859
1462	0.0013849
1474	0.0012705
1486	0.0014674
1498	0.0032472
1510	0.0080674
1522	0.0059224
1534	0.0014784
1546	0.0008294
1558	0.000561
1570	0.0004983
1582	0.000539
1594	0.0006083
1606	0.0008096
1618	0.0013332
1630	0.002651
1642	0.0032857
1654	0.0014047
1666	0.0005456
1678	0.0002651
1690	0.0001529
1702	0.0001265
1714	0.0001243
1726	0.0001078
1738	0.0001287
1750	0.0001672
1762	0.0002134
1774	0.0003828
1786	0.0005577
1798	0.0003212
1810	0.0003157
1822	0.000605
1834	0.0008525
1846	0.0005819
1858	0.000418
1870	0.0004455
1882	0.0006083
1894	0.0007161
1906	0.000506
1918	0.0002387
1930	0.0001188
1942	8.69e-05
1954	9.46e-05
1966	0.0001122
1978	0.0001265
1990	8.91e-05
2002	6.93e-05
2014	4.29e-05
2026	4.73e-05
2038	3.85e-05
2050	0
2062	1.98e-05
2074	3.74e-05
2086	3.85e-05
2098	3.52e-05
2110	2.97e-05
2122	3.74e-05
2134	4.07e-05
2146	4.29e-05
2158	1.43e-05
2170	3.74e-05
2182	3.08e-05
2194	4.4e-05
2206	3.85e-05
2218	3.08e-05
2230	2.64e-05
2242	1.32e-05
2254	2.31e-05
2266	1.1e-06
2278	2.31e-05
2290	5.72e-05
2302	0.0001001
2314	8.58e-05
2326	6.6e-05
2338	8.03e-05
2350	7.59e-05
2362	2.64e-05
2374	5.39e-05
2386	5.94e-05
2398	6.38e-05
2410	4.07e-05
2422	3.63e-05
2434	1.98e-05
2446	2.75e-05
2458	1.54e-05
2470	3.74e-05
2482	2.75e-05
2494	2.53e-05
2506	3.63e-05
2518	2.86e-05
2530	3.3e-05
2542	1.43e-05
2554	5.61e-05
2566	4.18e-05
2578	8.25e-05
2590	9.13e-05
2602	8.36e-05
2614	7.7e-05
2626	4.62e-05
2638	5.61e-05
2650	2.86e-05
2662	2.75e-05
2674	1.98e-05
2686	5.17e-05
2698	7.7e-05
2710	0.0001419
2722	0.0001925
2734	0.0003179
2746	0.0003641
2758	0.0002035
2770	0.0001661
2782	0.0002002
2794	0.0002871
2806	0.0004345
2818	0.0007513
2830	0.0012573
2842	0.0020262
2854	0.0026631
2866	0.0035024
2878	0.0045045
2890	0.0049346
2902	0.0061545
2914	0.0078408
2926	0.0094314
2938	0.0085206
2950	0.0049467
2962	0.0035662
2974	0.004202
2986	0.0059686
2998	0.0070092
3010	0.008987
3022	0.011
3034	0.0088649
3046	0.0067892
3058	0.0064526
3070	0.0055913
3082	0.0057783
3094	0.0049324
3106	0.0024706
3118	0.0012705
3130	0.0008481
3142	0.0005214
3154	0.0002728
3166	0.0001848
3178	0.0001353
3190	0.0001496
3202	9.9e-05
3214	9.35e-05
3226	4.18e-05
3238	5.17e-05
3250	7.81e-05
3262	6.16e-05
3274	0.0001078
3286	8.14e-05
3298	3.41e-05
3310	6.27e-05
3322	5.39e-05
3334	5.5e-05
3346	3.96e-05
3358	7.15e-05
3370	4.51e-05
3382	4.95e-05
3394	4.73e-05
3406	7.37e-05
3418	7.26e-05
3430	6.16e-05
3442	8.69e-05
3454	7.81e-05
3466	8.69e-05
3478	4.62e-05
3490	6.71e-05
3502	2.64e-05
3514	7.48e-05
3526	7.81e-05
3538	5.28e-05
3550	7.59e-05
3562	5.06e-05
3574	5.83e-05
3586	6.16e-05
3598	4.4e-06
3610	5.17e-05
3622	2.31e-05
3634	5.72e-05
3646	9.02e-05
3658	0.0001496
3670	0.0001276
3682	0.0001265
3694	0.0001298
3706	6.16e-05
3718	5.94e-05
3730	0.0001023
3742	0.0001122
3754	8.03e-05
3766	5.94e-05
3778	7.59e-05
3790	0.0001221
3802	0.0001309
3814	0.0001375
3826	0.0001419
3838	0.0001133
