Infrared Spectrum: CyclohexaneCarboxylic acid, 3,4-dihydroxy-, cis-3,cis-4
Formula: C7 H12 O4
CAS: 333364-12-8
State: SOLID (1.2 mg / 650 mg KBr DISC)
Class: COBLENTZ III
Instrument: PERKIN-ELMER 21 (GRATING)
Instrument parameters: FILTER CHANGE ABOUT 1090 CM^-^1
Sampling: TRANSMISSION
Resolution: 2
Origin: SOUTHERN RESEARCH INSTITUTE
1/CM	TRANSMITTANCE
604	0.7062
613	0.7095
622	0.706
631	0.6943
640	0.6745
649	0.6514
658	0.6256
667	0.5987
676	0.5718
685	0.5408
694	0.5193
703	0.5321
712	0.5465
721	0.5486
730	0.5424
739	0.5065
748	0.525
757	0.6313
766	0.667
775	0.7019
784	0.6768
793	0.7433
802	0.7647
811	0.7703
820	0.7639
829	0.7452
838	0.6306
847	0.7643
856	0.7591
865	0.7419
874	0.7128
883	0.6706
892	0.6202
901	0.6157
910	0.5378
919	0.386
928	0.514
937	0.4185
946	0.4849
955	0.5052
964	0.5671
973	0.5703
982	0.4691
991	0.5509
1000	0.5658
1009	0.2461
1018	0.3564
1027	0.6043
1036	0.4884
1045	0.569
1054	0.4369
1063	0.1123
1072	0.1732
1081	0.3429
1090	0.5057
1099	0.5832
1108	0.4303
1117	0.3781
1126	0.4668
1135	0.7114
1144	0.7128
1153	0.6912
1162	0.636
1171	0.5457
1180	0.4587
1189	0.3316
1198	0.2251
1207	0.3619
1216	0.2042
1225	0.4787
1234	0.4721
1243	0.3464
1252	0.2382
1261	0.2998
1270	0.5015
1279	0.4811
1288	0.2782
1297	0.3727
1306	0.3555
1315	0.3471
1324	0.4701
1333	0.5374
1342	0.5064
1351	0.3762
1360	0.4408
1369	0.4701
1378	0.3658
1387	0.4979
1396	0.5713
1405	0.5172
1414	0.4855
1423	0.3058
1432	0.2782
1441	0.3467
1450	0.4391
1459	0.4058
1468	0.3672
1477	0.5153
1486	0.626
1495	0.6373
1504	0.658
1513	0.7066
1522	0.7255
1531	0.7348
1540	0.7451
1549	0.7564
1558	0.7668
1567	0.7721
1576	0.7701
1585	0.7661
1594	0.7529
1603	0.7157
1612	0.6794
1621	0.6545
1630	0.6324
1639	0.6166
1648	0.6003
1657	0.5684
1666	0.5458
1675	0.4545
1684	0.3381
1693	0.0731
1702	0.0219
1711	0.0275
1720	0.219
1729	0.3043
1738	0.4641
1747	0.5149
1756	0.5603
1765	0.5888
1774	0.6512
1783	0.6648
1792	0.6713
1801	0.675
1810	0.6781
1819	0.6798
1828	0.6865
1837	0.6937
1846	0.6945
1855	0.6962
1864	0.6979
1873	0.6994
1882	0.7023
1891	0.7052
1900	0.7069
1909	0.7101
1918	0.7144
1927	0.719
1936	0.7254
1945	0.7329
1954	0.741
1963	0.7479
1972	0.7546
1981	0.759
1990	0.7626
1999	0.766
2008	0.7648
2017	0.7611
2026	0.7609
2035	0.7644
2044	0.7688
2053	0.7694
2062	0.7688
2071	0.7742
2080	0.7853
2089	0.7919
2098	0.7925
2107	0.7942
2116	0.7942
2125	0.793
2134	0.7931
2143	0.7948
2152	0.7962
2161	0.7957
2170	0.7939
2179	0.793
2188	0.7933
2197	0.7891
2206	0.7831
2215	0.7849
2224	0.7867
2233	0.7845
2242	0.7834
2251	0.7826
2260	0.7805
2269	0.7777
2278	0.7734
2287	0.7689
2296	0.7655
2305	0.7641
2314	0.7652
2323	0.763
2332	0.7586
2341	0.7561
2350	0.7518
2359	0.7475
2368	0.7426
2377	0.7356
2386	0.7282
2395	0.714
2404	0.7002
2413	0.6931
2422	0.6781
2431	0.6752
2440	0.6726
2449	0.669
2458	0.6427
2467	0.6261
2476	0.6138
2485	0.6016
2494	0.5894
2503	0.5764
2512	0.5593
2521	0.5453
2530	0.5416
2539	0.5221
2548	0.5111
2557	0.5046
2566	0.498
2575	0.4948
2584	0.4983
2593	0.5009
2602	0.5008
2611	0.4988
2620	0.4957
2629	0.4904
2638	0.4843
2647	0.4787
2656	0.4787
2665	0.4793
2674	0.4708
2683	0.4621
2692	0.4584
2701	0.464
2710	0.469
2719	0.4706
2728	0.4595
2737	0.4453
2746	0.431
2755	0.4165
2764	0.4039
2773	0.3931
2782	0.385
2791	0.3698
2800	0.3507
2809	0.3327
2818	0.319
2827	0.3052
2836	0.2892
2845	0.2688
2854	0.2449
2863	0.2341
2872	0.2273
2881	0.2204
2890	0.2143
2899	0.2061
2908	0.198
2917	0.1862
2926	0.1565
2935	0.1512
2944	0.1508
2953	0.1541
2962	0.172
2971	0.2026
2980	0.2402
2989	0.2648
2998	0.2785
3007	0.2879
3016	0.2906
3025	0.3016
3034	0.3049
3043	0.3062
3052	0.3094
3061	0.3121
3070	0.3152
3079	0.32
3088	0.3232
3097	0.3201
3106	0.3136
3115	0.3083
3124	0.3001
3133	0.2874
3142	0.2693
3151	0.2507
3160	0.2357
3169	0.2188
3178	0.2007
3187	0.1833
3196	0.167
3205	0.1578
3214	0.1517
3223	0.1486
3232	0.148
3241	0.1472
3250	0.1459
3259	0.1465
3268	0.1498
3277	0.1521
3286	0.1523
3295	0.15
3304	0.1443
3313	0.1337
3322	0.1155
3331	0.0999
3340	0.0874
3349	0.0832
3358	0.0869
3367	0.0832
3376	0.0789
3385	0.0863
3394	0.097
3403	0.1102
3412	0.1224
3421	0.1373
3430	0.1526
3439	0.1692
3448	0.1857
3457	0.2052
3466	0.2272
3475	0.2442
3484	0.2629
3493	0.286
3502	0.3141
3511	0.333
3520	0.3516
3529	0.3702
3538	0.3888
3547	0.405
3556	0.4237
3565	0.4537
3574	0.4619
3583	0.4864
3592	0.5096
3601	0.5236
3610	0.5289
3619	0.5629
3628	0.5809
3637	0.5909
3646	0.6089
3655	0.6184
3664	0.6365
3673	0.6505
3682	0.6656
3691	0.6664
3700	0.6616
3709	0.6715
3718	0.6825
3727	0.6923
3736	0.6991
3745	0.7053
3754	0.7133
3763	0.7169
3772	0.7169
3781	0.714
3790	0.7186
3799	0.7187
3808	0.7173
3817	0.7151
3826	0.7145
3835	0.7153
3844	0.7148
3853	0.7165
3862	0.7237
3871	0.7385
3880	0.736
3889	0.7301
3898	0.7291
3907	0.7325
3916	0.7348
3925	0.7279
3934	0.7247
3943	0.7254
3952	0.7272
3961	0.7283
3970	0.7285
3979	0.7257
3988	0.7144
3997	0.7039
