Infrared Spectrum: 3,5-Dibromo-4-methoxybenzonitrile
Formula: C 8 H 5 Br 2 N O
CAS: 3336-39-8
State: gas
Origin: EPA-IR VAPOR PHASE LIBRARY
1/CM	ABSORBANCE
549.8	0.001842
559.445	0.00072
569.09	0.002122
578.734	0.002762
588.379	0.003632
598.024	0.005602
607.669	0.013262
617.313	0.008132
626.958	0.002272
636.603	0.002612
646.248	0.0015345
655.893	0.0013203
665.537	0.0015213
675.182	0.002042
684.827	0.003892
694.472	0.004522
704.116	0.007082
713.761	0.006102
723.406	0.005162
733.051	0.015112
742.695	0.044302
752.34	0.054562
761.985	0.032572
771.63	0.009252
781.275	0.003702
790.919	0.002572
800.564	0.002212
810.209	0.002662
819.854	0.000593
829.498	0.003162
839.143	0.003172
848.788	0.002772
858.433	0.003242
868.078	0.008102
877.722	0.030222
887.367	0.024242
897.012	0.005742
906.657	0.002192
916.301	0.002162
925.946	0.002642
935.591	0.002802
945.236	0.003372
954.88	0.002662
964.525	0.005152
974.17	0.012452
983.815	0.026052
993.46	0.049122
1003.1	0.071022
1012.75	0.023762
1022.39	0.006592
1032.04	0.003162
1041.68	0.004892
1051.33	0.004002
1060.97	0.006772
1070.62	0.010612
1080.26	0.008572
1089.91	0.002622
1099.55	0.004452
1109.2	0.0013608
1118.84	0.0010694
1128.49	0.002682
1138.13	0.0010846
1147.78	0.003922
1157.42	0.002272
1167.07	0.002732
1176.71	0.002532
1186.36	0.005922
1196	0.013002
1205.64	0.010662
1215.29	0.007902
1224.93	0.007472
1234.58	0.011282
1244.22	0.018302
1253.87	0.035322
1263.51	0.086042
1273.16	0.101412
1282.8	0.033242
1292.45	0.012292
1302.09	0.006642
1311.74	0.005032
1321.38	0.004212
1331.03	0.004082
1340.67	0.004512
1350.32	0.006102
1359.96	0.010612
1369.61	0.015652
1379.25	0.016232
1388.9	0.021012
1398.54	0.012112
1408.18	0.031422
1417.83	0.092482
1427.47	0.046732
1437.12	0.012732
1446.76	0.013682
1456.41	0.027512
1466.05	0.085042
1475.7	0.076982
1485.34	0.022632
1494.99	0.017882
1504.63	0.010832
1514.28	0.011022
1523.92	0.025702
1533.57	0.043122
1543.21	0.012602
1552.86	0.005042
1562.5	0.003872
1572.15	0.003772
1581.79	0.003602
1591.44	0.003382
1601.08	0.002372
1610.73	0.002382
1620.37	0.002172
1630.01	0.002382
1639.66	0.002482
1649.3	0.002172
1658.95	0.0017019
1668.59	0.0018278
1678.24	0.0017908
1687.88	0.002162
1697.53	0.0018028
1707.17	0.001932
1716.82	0.00145
1726.46	0.0016822
1736.11	0.0017986
1745.75	0.003182
1755.4	0.005802
1765.04	0.007482
1774.69	0.003522
1784.33	0.0016463
1793.98	0.0013775
1803.62	0.001705
1813.27	0.0011374
1822.91	0.0015145
1832.55	0.0014403
1842.2	0.0012629
1851.84	0.0015561
1861.49	0.0012279
1871.13	0.0015533
1880.78	0.0017039
1890.42	0.0013949
1900.07	0.0013218
1909.71	0.0013002
1919.36	0.001494
1929	0.0013586
1938.65	0.0015721
1948.29	0.001942
1957.94	0.002512
1967.58	0.003012
1977.23	0.003552
1986.87	0.003402
1996.52	0.002602
2006.16	0.002182
2015.81	0.002212
2025.45	0.002172
2035.1	0.001952
2044.74	0.0016038
2054.38	0.0014009
2064.03	0.0014202
2073.67	0.0015546
2083.32	0.0012441
2092.96	0.001225
2102.61	0.001407
2112.25	0.0015804
2121.9	0.0017348
2131.54	0.0016795
2141.19	0.0016923
2150.83	0.0017877
2160.48	0.0016293
2170.12	0.001852
2179.77	0.0016352
2189.41	0.001912
2199.06	0.0014361
2208.7	0.0015103
2218.35	0.002212
2227.99	0.006372
2237.64	0.010752
2247.28	0.004112
2256.92	0.0013212
2266.57	0.0017517
2276.21	0.0012766
2285.86	0.0014942
2295.5	0.0013305
2305.15	0.0012754
2314.79	0.0013084
2324.44	0.0012985
2334.08	0.0015023
2343.73	0.0015807
2353.37	0.0013796
2363.02	0.0014714
2372.66	0.0015462
2382.31	0.0012583
2391.95	0.0017663
2401.6	0.0015504
2411.24	0.0016154
2420.89	0.0014988
2430.53	0.0014293
2440.18	0.0012818
2449.82	0.0015987
2459.47	0.002042
2469.11	0.002012
2478.75	0.002062
2488.4	0.002972
2498.04	0.002742
2507.69	0.002702
2517.33	0.002702
2526.98	0.002442
2536.62	0.002632
2546.27	0.002422
2555.91	0.002002
2565.56	0.0016832
2575.2	0.0017172
2584.85	0.0016218
2594.49	0.0016138
2604.14	0.001484
2613.78	0.001465
2623.43	0.0015572
2633.07	0.0017774
2642.72	0.0013806
2652.36	0.0015655
2662.01	0.0016182
2671.65	0.0017481
2681.29	0.0014465
2690.94	0.0014774
2700.58	0.0016256
2710.23	0.0012569
2719.87	0.002352
2729.52	0.002222
2739.16	0.002232
2748.81	0.0016322
2758.45	0.0016625
2768.1	0.0018205
2777.74	0.0014919
2787.39	0.0017019
2797.03	0.0018284
2806.68	0.002542
2816.32	0.003452
2825.97	0.004972
2835.61	0.004872
2845.26	0.004282
2854.9	0.006572
2864.55	0.008512
2874.19	0.005282
2883.84	0.004972
2893.48	0.006492
2903.12	0.007472
2912.77	0.006562
2922.41	0.007942
2932.06	0.010652
2941.7	0.012412
2951.35	0.020532
2960.99	0.016912
2970.64	0.010872
2980.28	0.009382
2989.93	0.006992
2999.57	0.006462
3009.22	0.007202
3018.86	0.008132
3028.51	0.007722
3038.15	0.005362
3047.8	0.004762
3057.44	0.004172
3067.09	0.004392
3076.73	0.003962
3086.38	0.003992
3096.02	0.003372
3105.67	0.002472
3115.31	0.002742
3124.95	0.002352
3134.6	0.002332
3144.24	0.0017402
3153.89	0.0010048
3163.53	0.0009667
3173.18	0.0011514
3182.82	0.001962
3192.47	0.00087869
3202.11	0.0007888
3211.76	0.0010415
3221.4	0.00093063
3231.05	0.002052
3240.69	0.0009959
3250.34	0.001468
3259.98	0.0009576
3269.63	0.0009511
3279.27	0.0012406
3288.92	0.0013733
3298.56	0.000535
3308.21	0.00093902
3317.85	0.0012006
3327.49	0.00090143
3337.14	0.0011636
3346.78	0.0011564
3356.43	0.000687
3366.07	0.00087986
3375.72	0.0010146
3385.36	0.000594
3395.01	0.0010615
3404.65	0.0008234
3414.3	0.0018177
3423.94	0.0015705
3433.59	0.0018104
3443.23	0.0013026
3452.88	0.0016577
3462.52	0.0012344
3472.17	0.0011741
3481.81	0.0011599
3491.46	0.0010842
3501.1	0.0013188
3510.75	0.0017042
3520.39	0.0014257
3530.04	0.000713
3539.68	0.00092155
3549.32	0.0009176
3558.97	0.000532
3568.61	0.000823
3578.26	0.000706
3587.9	0.0013277
3597.55	0.0010387
3607.19	0.00088278
3616.84	0.000643
3626.48	0.0011573
3636.13	0.000741
3645.77	0.0011713
3655.42	0.00069
3665.06	0.0014324
3674.71	0.0007695
3684.35	0.0009601
3694	0.00083253
3703.64	0.0013693
3713.29	0.0012411
3722.93	0.0010204
3732.58	0.00089342
3742.22	0.000798
3751.86	0.000557
3761.51	0.0007641
3771.15	0.00093102
3780.8	0.0015591
3790.44	0.0007
3800.09	0.0010445
3809.73	0.0008271
3819.38	0.001188
3829.02	0.0010711
3838.67	0.001309
3848.31	0.0012368
3857.96	0.0008003
3867.6	0.0011715
3877.25	0.0012423
3886.89	0.0012311
3896.54	0.0008191
3906.18	0.0013569
3915.83	0.0009627
3925.47	0.00092858
3935.12	0.0010672
3944.76	0.0015082
3954.41	0.0013414
3964.05	0.0010367
3973.69	0.0011013
3983.34	0.000717
3992.98	0.0011555
