Infrared Spectrum: 3,5-Dichloro-4-hydroxybenzoic acid
Formula: C 7 H 4 Cl 2 O 3
CAS: 3336-41-2
State: gas
Origin: EPA-IR VAPOR PHASE LIBRARY
1/CM	ABSORBANCE
549.9	0.00843
559.547	0.00454
569.193	0.00395
578.84	0.004
588.486	0.00671
598.133	0.01246
607.779	0.01265
617.426	0.00695
627.072	0.00429
636.719	0.0034346
646.365	0.0032398
656.012	0.0030657
665.658	0.0032655
675.305	0.0036511
684.951	0.00501
694.598	0.0102
704.245	0.02172
713.891	0.03698
723.538	0.01988
733.184	0.00957
742.831	0.01272
752.477	0.04048
762.124	0.09906
771.77	0.07095
781.417	0.05796
791.063	0.08333
800.71	0.0727
810.356	0.02187
820.003	0.01274
829.649	0.02004
839.296	0.01764
848.943	0.00848
858.589	0.0034525
868.236	0.00272296
877.882	0.00270456
887.529	0.0027997
897.175	0.0030134
906.822	0.0029979
916.468	0.0033467
926.115	0.0033161
935.761	0.0035003
945.408	0.00431
955.054	0.00486
964.701	0.00528
974.347	0.00482
983.994	0.00393
993.64	0.00386
1003.29	0.00392
1012.93	0.00392
1022.58	0.00393
1032.23	0.00461
1041.87	0.00706
1051.52	0.01269
1061.17	0.01663
1070.81	0.0157
1080.46	0.01311
1090.11	0.01983
1099.75	0.03048
1109.4	0.03121
1119.05	0.02096
1128.69	0.02049
1138.34	0.02892
1147.99	0.04004
1157.63	0.05266
1167.28	0.07174
1176.92	0.09027
1186.57	0.07113
1196.22	0.02225
1205.86	0.01273
1215.51	0.01908
1225.16	0.0399
1234.8	0.07206
1244.45	0.07105
1254.1	0.04153
1263.74	0.05015
1273.39	0.04705
1283.04	0.02061
1292.68	0.01069
1302.33	0.01378
1311.98	0.02896
1321.62	0.07083
1331.27	0.0717
1340.92	0.03397
1350.56	0.00801
1360.21	0.00414
1369.86	0.00399
1379.5	0.00436
1389.15	0.00472
1398.79	0.00484
1408.44	0.00602
1418.09	0.01203
1427.73	0.03056
1437.38	0.07283
1447.03	0.105
1456.67	0.11547
1466.32	0.10571
1475.97	0.0803
1485.61	0.04974
1495.26	0.02249
1504.91	0.0121
1514.55	0.00697
1524.2	0.00581
1533.85	0.00513
1543.49	0.00484
1553.14	0.00684
1562.79	0.01442
1572.43	0.02918
1582.08	0.03476
1591.73	0.02166
1601.37	0.00907
1611.02	0.00473
1620.67	0.0036708
1630.31	0.0036091
1639.96	0.00431
1649.6	0.00516
1659.25	0.00426
1668.9	0.0029094
1678.54	0.002585
1688.19	0.002457
1697.84	0.002451
1707.48	0.002447
1717.13	0.00234
1726.78	0.002152
1736.42	0.00219
1746.07	0.002303
1755.72	0.002589
1765.36	0.0033158
1775.01	0.0039
1784.66	0.0034459
1794.3	0.002449
1803.95	0.002146
1813.6	0.002373
1823.24	0.0032839
1832.89	0.00482
1842.54	0.0048
1852.18	0.003294
1861.83	0.0028736
1871.47	0.0028789
1881.12	0.0030911
1890.77	0.0038
1900.41	0.00423
1910.06	0.0036606
1919.71	0.0026202
1929.35	0.002183
1939	0.002084
1948.65	0.002014
1958.29	0.001996
1967.94	0.001904
1977.59	0.00188
1987.23	0.00186
1996.88	0.001881
2006.53	0.001893
2016.17	0.001957
2025.82	0.001875
2035.47	0.001874
2045.11	0.001901
2054.76	0.001967
2064.41	0.00207
2074.05	0.002123
2083.7	0.002037
2093.35	0.002032
2102.99	0.002106
2112.64	0.001972
2122.28	0.00174
2131.93	0.00158
2141.58	0.00155
2151.22	0.00153
2160.87	0.00154
2170.52	0.0015
2180.16	0.00153
2189.81	0.00154
2199.46	0.00149
2209.1	0.00151
2218.75	0.00162
2228.4	0.001796
2238.04	0.002038
2247.69	0.00203
2257.34	0.001941
2266.98	0.001979
2276.63	0.002102
2286.28	0.002315
2295.92	0.00243
2305.57	0.002368
2315.22	0.002183
2324.86	0.001985
2334.51	0.001846
2344.16	0.00167
2353.8	0.00159
2363.45	0.0016
2373.09	0.00167
2382.74	0.001848
2392.39	0.002048
2402.03	0.002186
2411.68	0.002417
2421.33	0.002358
2430.97	0.001888
2440.62	0.001731
2450.27	0.001738
2459.91	0.001798
2469.56	0.001913
2479.21	0.002191
2488.85	0.0026486
2498.5	0.0031802
2508.15	0.003188
2517.79	0.002485
2527.44	0.002033
2537.09	0.001908
2546.73	0.001791
2556.38	0.001866
2566.03	0.001849
2575.67	0.00156
2585.32	0.00124
2594.96	0.00114
2604.61	0.00109
2614.26	0.00115
2623.9	0.00116
2633.55	0.00132
2643.2	0.00159
2652.84	0.0016
2662.49	0.00141
2672.14	0.00113
2681.78	0.00112
2691.43	0.00113
2701.08	0.00118
2710.72	0.00126
2720.37	0.00111
2730.02	0.00109
2739.66	0.00099
2749.31	0.00095
2758.96	0.00082
2768.6	0.0008
2778.25	0.00079
2787.9	0.00084
2797.54	0.00084
2807.19	0.00078
2816.84	0.00066
2826.48	0.00062
2836.13	0.00066
2845.77	0.00065
2855.42	0.00056
2865.07	0.00039
2874.71	0.00033
2884.36	0.00037
2894.01	0.00041
2903.65	0.00058
2913.3	0.00042
2922.95	0.00044
2932.59	0.00029
2942.24	0.0002
2951.89	0.00012
2961.53	0
2971.18	0.00011
2980.83	0.00015
2990.47	0.00036
3000.12	0.00058
3009.77	0.00093
3019.41	0.00102
3029.06	0.00136
3038.71	0.00127
3048.35	0.00119
3058	0.00157
3067.64	0.0034327
3077.29	0.00777
3086.94	0.0091
3096.58	0.00545
3106.23	0.00148
3115.88	0.0005
3125.52	0.00033
3135.17	0.0005
3144.82	0.00069
3154.46	0.00102
3164.11	0.00088
3173.76	0.00075
3183.4	0.00033
3193.05	0.00047
3202.7	0.00063
3212.34	0.00072
3221.99	0.00063
3231.64	0.00062
3241.28	0.00061
3250.93	0.00076
3260.58	0.00075
3270.22	0.00084
3279.87	0.001719
3289.52	0.002217
3299.16	0.00146
3308.81	0.00106
3318.45	0.00087
3328.1	0.00084
3337.75	0.00086
3347.39	0.00072
3357.04	0.00097
3366.69	0.00096
3376.33	0.00102
3385.98	0.00106
3395.63	0.00089
3405.27	0.00102
3414.92	0.00095
3424.57	0.00103
3434.21	0.00107
3443.86	0.0011
3453.51	0.0011
3463.15	0.00116
3472.8	0.00135
3482.45	0.0015
3492.09	0.00137
3501.74	0.00169
3511.39	0.001861
3521.03	0.00197
3530.68	0.0028426
3540.33	0.00493
3549.97	0.01537
3559.62	0.07614
3569.26	0.1301
3578.91	0.08803
3588.56	0.02154
3598.2	0.00699
3607.85	0.00372
3617.5	0.00280548
3627.14	0.002307
3636.79	0.002063
3646.44	0.001973
3656.08	0.001837
3665.73	0.001761
3675.38	0.00176
3685.02	0.001795
3694.67	0.00163
3704.32	0.00163
3713.96	0.0015
3723.61	0.00141
3733.26	0.00143
3742.9	0.00135
3752.55	0.00149
3762.2	0.00158
3771.84	0.00142
3781.49	0.00161
3791.13	0.00163
3800.78	0.00159
3810.43	0.00158
3820.07	0.00169
3829.72	0.001849
3839.37	0.0026135
3849.01	0.0029808
3858.66	0.0026886
3868.31	0.001961
3877.95	0.002034
3887.6	0.001959
3897.25	0.001994
3906.89	0.002088
3916.54	0.002157
3926.19	0.001958
3935.83	0.001826
3945.48	0.00176
3955.13	0.001776
3964.77	0.001782
3974.42	0.001937
3984.07	0.001963
3993.71	0.00169
