Infrared Spectrum: 3,5-Dibromo-4-hydroxybenzoic acid
Formula: C 7 H 4 Br 2 O 3
CAS: 3337-62-0
State: gas
Origin: EPA-IR VAPOR PHASE LIBRARY
1/CM	ABSORBANCE
549.8	0.008738
559.445	0.008168
569.09	0.011858
578.734	0.020068
588.379	0.024808
598.024	0.020288
607.669	0.014598
617.313	0.026548
626.958	0.057058
636.603	0.033308
646.248	0.005428
655.893	0.002598
665.537	0.001818
675.182	0.001628
684.827	0.001608
694.472	0.001598
704.116	0.003178
713.761	0.007688
723.406	0.014768
733.051	0.033038
742.695	0.020488
752.34	0.023818
761.985	0.036798
771.63	0.018568
781.275	0.008368
790.919	0.005458
800.564	0.003868
810.209	0.003258
819.854	0.003818
829.498	0.005488
839.143	0.005058
848.788	0.002838
858.433	0.001738
868.078	0.001858
877.722	0.002578
887.367	0.003608
897.012	0.006928
906.657	0.007898
916.301	0.004228
925.946	0.001718
935.591	0.0013076
945.236	0.0012905
954.88	0.0012639
964.525	0.0012798
974.17	0.001548
983.815	0.001778
993.46	0.001558
1003.1	0.001578
1012.75	0.002068
1022.39	0.001568
1032.04	0.001798
1041.68	0.003328
1051.33	0.005608
1060.97	0.005558
1070.62	0.006598
1080.26	0.011058
1089.91	0.031708
1099.55	0.075878
1109.2	0.052168
1118.84	0.015218
1128.49	0.015728
1138.13	0.028818
1147.78	0.041228
1157.42	0.054958
1167.07	0.083318
1176.71	0.079378
1186.36	0.102088
1196	0.066578
1205.64	0.032458
1215.29	0.021068
1224.93	0.017748
1234.58	0.034808
1244.22	0.041028
1253.87	0.017058
1263.51	0.017178
1273.16	0.028448
1282.8	0.037228
1292.45	0.033678
1302.09	0.038078
1311.74	0.043318
1321.38	0.068678
1331.03	0.079698
1340.67	0.043248
1350.32	0.024838
1359.96	0.022048
1369.61	0.033238
1379.25	0.031308
1388.9	0.024848
1398.54	0.024508
1408.18	0.023798
1417.83	0.008748
1427.47	0.004638
1437.12	0.004898
1446.76	0.006378
1456.41	0.011698
1466.05	0.025988
1475.7	0.037218
1485.34	0.012768
1494.99	0.004458
1504.63	0.003448
1514.28	0.003148
1523.92	0.003038
1533.57	0.003128
1543.21	0.004198
1552.86	0.009998
1562.5	0.017008
1572.15	0.011618
1581.79	0.016258
1591.44	0.019368
1601.08	0.008318
1610.73	0.003578
1620.37	0.002538
1630.01	0.002518
1639.66	0.002508
1649.3	0.001978
1658.95	0.002088
1668.59	0.002408
1678.24	0.002268
1687.88	0.002338
1697.53	0.003258
1707.17	0.008328
1716.82	0.011408
1726.46	0.008008
1736.11	0.009848
1745.75	0.026038
1755.4	0.133658
1765.04	0.208558
1774.69	0.033828
1784.33	0.008448
1793.98	0.006808
1803.62	0.009298
1813.27	0.012928
1822.91	0.006168
1832.55	0.002148
1842.2	0.001658
1851.84	0.001618
1861.49	0.001438
1871.13	0.0013411
1880.78	0.002058
1890.42	0.001418
1900.07	0.0008912
1909.71	0.0008962
1919.36	0.0009307
1929	0.0009445
1938.65	0.0010869
1948.29	0.0010469
1957.94	0.0007556
1967.58	0.0007808
1977.23	0.0008213
1986.87	0.0007459
1996.52	0.0007544
2006.16	0.0007193
2015.81	0.0007918
2025.45	0.0009015
2035.1	0.0008274
2044.74	0.0007486
2054.38	0.0007071
2064.03	0.0007984
2073.67	0.0006009
2083.32	0.0006294
2092.96	0.0005834
2102.61	0.0006489
2112.25	0.0006641
2121.9	0.0004957
2131.54	0.000518
2141.19	0.0005867
2150.83	0.0007102
2160.48	0.0007703
2170.12	0.0007052
2179.77	0.0008155
2189.41	0.0009686
2199.06	0.0011175
2208.7	0.0010691
2218.35	0.0010408
2227.99	0.0011844
2237.64	0.0009335
2247.28	0.0006419
2256.92	0.000567
2266.57	0.0006091
2276.21	0.0006195
2285.86	0.0006989
2295.5	0.0008651
2305.15	0.0010147
2314.79	0.0013277
2324.44	0.001518
2334.08	0.001648
2343.73	0.001568
2353.37	0.001558
2363.02	0.001948
2372.66	0.001628
2382.31	0.0011035
2391.95	0.0008588
2401.6	0.0008178
2411.24	0.0008127
2420.89	0.0008554
2430.53	0.0008914
2440.18	0.0008745
2449.82	0.0009389
2459.47	0.0009735
2469.11	0.0010804
2478.75	0.0010985
2488.4	0.0009917
2498.04	0.0009305
2507.69	0.0010882
2517.33	0.0012686
2526.98	0.0010526
2536.62	0.0007798
2546.27	0.0008716
2555.91	0.0008112
2565.56	0.0008449
2575.2	0.0007644
2584.85	0.0005504
2594.49	0.0004548
2604.14	0.00046726
2613.78	0.0005466
2623.43	0.0005332
2633.07	0.0005207
2642.72	0.0008359
2652.36	0.0008805
2662.01	0.0007117
2671.65	0.0005768
2681.29	0.0003853
2690.94	0.00043635
2700.58	0.00044505
2710.23	0.00048673
2719.87	0.0005216
2729.52	0.0006069
2739.16	0.0006808
2748.81	0.0007529
2758.45	0.0006859
2768.1	0.0006687
2777.74	0.0005396
2787.39	0.0004884
2797.03	0.00039391
2806.68	0.00048479
2816.32	0.000287
2825.97	0.0003287
2835.61	0.00047625
2845.26	0.000399043
2854.9	0.0006337
2864.55	0.0007645
2874.19	0.0006322
2883.84	0.00043569
2893.48	0.0005036
2903.12	0.00040811
2912.77	0.00045774
2922.41	0.0005289
2932.06	0.00038922
2941.7	0.00040806
2951.35	0.0006139
2960.99	0.0005003
2970.64	0.0003655
2980.28	0.00041611
2989.93	0.000259
2999.57	0.00041739
3009.22	0.0003501
3018.86	0.0003772
3028.51	0.00039428
3038.15	0.0005729
3047.8	0.00048982
3057.44	0.00046769
3067.09	0.0006931
3076.73	0.001408
3086.38	0.002718
3096.02	0.002028
3105.67	0.001121
3115.31	0.0008497
3124.95	0.0007574
3134.6	0.0007184
3144.24	0.0005881
3153.89	0.0007095
3163.53	0.00039084
3173.18	0.00039507
3182.82	0.0005475
3192.47	0.0003451
3202.11	0.00045533
3211.76	0.00044569
3221.4	0.000309
3231.05	0.0003208
3240.69	0.0003409
3250.34	0.0003296
3259.98	0.0009366
3269.63	0.0009983
3279.27	0.0009061
3288.92	0.0003792
3298.56	0.00041155
3308.21	0.000202
3317.85	0.0003294
3327.49	0.0003674
3337.14	0.0005501
3346.78	0.0006073
3356.43	0.0006023
3366.07	0.00045324
3375.72	0.00039392
3385.36	0.0005966
3395.01	0.0005724
3404.65	0.0008309
3414.3	0.0006072
3423.94	0.000407706
3433.59	0.0005508
3443.23	0.0006205
3452.88	0.00044745
3462.52	0.0006779
3472.17	0.0010686
3481.81	0.0011045
3491.46	0.0013927
3501.1	0.002638
3510.75	0.004478
3520.39	0.014398
3530.04	0.072258
3539.68	0.052858
3549.32	0.017858
3558.97	0.005788
3568.61	0.009118
3578.26	0.054678
3587.9	0.063608
3597.55	0.006788
3607.19	0.001698
3616.84	0.0011718
3626.48	0.000871
3636.13	0.0006985
3645.77	0.0005156
3655.42	0.0005334
3665.06	0.0005855
3674.71	0.0005026
3684.35	0.0005107
3694	0.0007027
3703.64	0.0005124
3713.29	0.000278
3722.93	0.000169
3732.58	0.00021
3742.22	0.0003687
3751.86	0.00022
3761.51	0
3771.15	0.0003462
3780.8	0.000134
3790.44	0.0005097
3800.09	0.00063
3809.73	0.0004164
3819.38	0.000271
3829.02	0.000158
3838.67	9.3e-05
3848.31	0.000155
3857.96	0.000204
3867.6	0.000257
3877.25	0.000316
3886.89	0.000274
3896.54	0.0003197
3906.18	0.000157
3915.83	0.00024
3925.47	0.000257
3935.12	0.0003158
3944.76	0.0003018
3954.41	0.000242
3964.05	0.0003965
3973.69	0.00040887
3983.34	0.00041969
3992.98	0.000279
