Infrared Spectrum: CIS OCIMENE
Formula: C10 H16
CAS: 3338-55-4
Class: COBLENTZ
Instrument: Not specified, most likely a prism, grating, or hybrid spectrometer.
Sampling: TRANSMISSION
Resolution: 4
Origin: INTERNATIONAL FLAVORS & FRAGRANCES, INC.
MICROMETERS	TRANSMITTANCE
2.023	0.887
2.05986	0.891
2.09673	0.892
2.13359	0.883
2.17046	0.883
2.20732	0.877
2.24418	0.8617
2.28105	0.8335
2.31791	0.8326
2.35478	0.8577
2.39164	0.8708
2.4285	0.8621
2.46537	0.8729
2.50223	0.878
2.5391	0.88
2.57596	0.882
2.61282	0.887
2.64969	0.892
2.68655	0.904
2.72341	0.905
2.76028	0.905
2.79714	0.9029
2.83401	0.894
2.87087	0.892
2.90773	0.89
2.9446	0.89
2.98146	0.8929
3.01833	0.8931
3.05519	0.8871
3.09205	0.879
3.12892	0.8591
3.16578	0.8094
3.20265	0.564
3.23951	0.6488
3.27637	0.459
3.31324	0.33
3.3501	0.1333
3.38697	0.1743
3.42383	0.0882
3.46069	0.2197
3.49756	0.3669
3.53442	0.7575
3.57129	0.8405
3.60815	0.8228
3.64501	0.8014
3.68188	0.8748
3.71874	0.8959
3.75561	0.903
3.79247	0.904
3.82933	0.906
3.8662	0.908
3.90306	0.91
3.93993	0.911
3.97679	0.911
4.01365	0.9082
4.05052	0.9061
4.08738	0.9039
4.12424	0.908
4.16111	0.9051
4.19797	0.9001
4.23484	0.908
4.2717	0.914
4.30856	0.922
4.34543	0.926
4.38229	0.926
4.41916	0.927
4.45602	0.927
4.49288	0.926
4.52975	0.926
4.56661	0.926
4.60348	0.926
4.64034	0.928
4.6772	0.928
4.71407	0.9308
4.75093	0.9319
4.7878	0.926
4.82466	0.927
4.86152	0.929
4.89839	0.931
4.93525	0.931
4.97212	0.922
5.00898	0.914
5.04584	0.899
5.08271	0.9146
5.11957	0.9229
5.15644	0.9263
5.1933	0.927
5.23016	0.926
5.26703	0.9202
5.30389	0.9173
5.34075	0.914
5.37762	0.9067
5.41448	0.8819
5.45135	0.8116
5.48821	0.7566
5.52507	0.8094
5.56194	0.8741
5.5988	0.8844
5.63567	0.8868
5.67253	0.879
5.70939	0.882
5.74626	0.8862
5.78312	0.8856
5.81999	0.8766
5.85685	0.8534
5.89371	0.8201
5.93058	0.7639
5.96744	0.7892
6.00431	0.7753
6.04117	0.6181
6.07803	0.7542
6.1149	0.8213
6.15176	0.8259
6.18863	0.7278
6.22549	0.5611
6.26235	0.6434
6.29922	0.7962
6.33608	0.843
6.37295	0.8507
6.40981	0.863
6.44667	0.862
6.48354	0.858
6.5204	0.8503
6.55727	0.8459
6.59413	0.8366
6.63099	0.8275
6.66786	0.8045
6.70472	0.7745
6.74158	0.7246
6.77845	0.6353
6.81531	0.4643
6.85218	0.3493
6.88904	0.2559
6.9259	0.1892
6.96277	0.2685
6.99963	0.3787
7.0365	0.4268
7.07336	0.6266
7.11022	0.6866
7.14709	0.694
7.18395	0.5998
7.22082	0.3647
7.25768	0.243
7.29454	0.6138
7.33141	0.7471
7.36827	0.7639
7.40514	0.7307
7.442	0.775
7.47886	0.8295
7.51573	0.8394
7.55259	0.838
7.58946	0.8286
7.62632	0.821
7.66318	0.8413
7.70005	0.848
7.73691	0.8433
7.77378	0.836
7.81064	0.8389
7.8475	0.8517
7.88437	0.8571
7.92123	0.857
7.95809	0.8386
7.99496	0.8197
8.03182	0.808
8.06869	0.812
8.10555	0.819
8.14241	0.821
8.17928	0.8053
8.21614	0.793
8.25301	0.793
8.28987	0.8038
8.32673	0.8202
8.3636	0.8341
8.40046	0.8429
8.43733	0.849
8.47419	0.851
8.51105	0.852
8.54792	0.8424
8.58478	0.8236
8.62165	0.8
8.65851	0.7985
8.69537	0.8357
8.73224	0.857
8.7691	0.8737
8.80597	0.8746
8.84283	0.8659
8.87969	0.8425
8.91656	0.7963
8.95342	0.6907
8.99029	0.5324
9.02715	0.3481
9.06401	0.3639
9.10088	0.517
9.13774	0.574
9.1746	0.567
9.21147	0.634
9.24833	0.7393
9.2852	0.7802
9.32206	0.8085
9.35892	0.8261
9.39579	0.8369
9.43265	0.8493
9.46952	0.856
9.50638	0.855
9.54324	0.8477
9.58011	0.8366
9.61697	0.7962
9.65384	0.7572
9.6907	0.758
9.72756	0.757
9.76443	0.775
9.80129	0.7922
9.83816	0.807
9.87502	0.806
9.91188	0.802
9.94875	0.794
9.98561	0.771
10.0225	0.6964
10.0593	0.5891
10.0962	0.3466
10.1331	0.1928
10.1699	0.2503
10.2068	0.4979
10.2437	0.6601
10.2805	0.7366
10.3174	0.782
10.3543	0.8007
10.3911	0.8137
10.428	0.816
10.4648	0.7999
10.5017	0.788
10.5386	0.8151
10.5754	0.823
10.6123	0.8191
10.6492	0.7962
10.686	0.7614
10.7229	0.7071
10.7598	0.663
10.7966	0.6448
10.8335	0.644
10.8703	0.6314
10.9072	0.601
10.9441	0.5308
10.9809	0.4107
11.0178	0.2587
11.0547	0.1482
11.0915	0.0673
11.1284	0.047
11.1653	0.1107
11.2021	0.2955
11.239	0.5098
11.2758	0.622
11.3127	0.7089
11.3496	0.7491
11.3864	0.7727
11.4233	0.779
11.4602	0.7726
11.497	0.7508
11.5339	0.7137
11.5708	0.6567
11.6076	0.6208
11.6445	0.593
11.6814	0.592
11.7182	0.6148
11.7551	0.6474
11.7919	0.6728
11.8288	0.6878
11.8657	0.6936
11.9025	0.692
11.9394	0.6797
11.9763	0.6628
12.0131	0.624
12.05	0.5916
12.0869	0.5743
12.1237	0.5806
12.1606	0.6209
12.1974	0.6636
12.2343	0.7021
12.2712	0.7326
12.308	0.7609
12.3449	0.7848
12.3818	0.798
12.4186	0.8075
12.4555	0.813
12.4924	0.815
12.5292	0.813
12.5661	0.812
12.603	0.807
12.6398	0.8024
12.6767	0.7936
12.7135	0.7868
12.7504	0.782
12.7873	0.7801
12.8241	0.781
12.861	0.784
12.8979	0.7885
12.9347	0.7996
12.9716	0.8082
13.0085	0.816
13.0453	0.816
13.0822	0.814
13.119	0.8079
13.1559	0.7965
13.1928	0.7832
13.2296	0.7659
13.2665	0.754
13.3034	0.7453
13.3402	0.745
13.3771	0.7524
13.414	0.7778
13.4508	0.8055
13.4877	0.8299
13.5246	0.8418
13.5614	0.8533
13.5983	0.859
13.6351	0.863
13.672	0.865
13.7089	0.866
13.7457	0.865
13.7826	0.864
13.8195	0.862
13.8563	0.858
13.8932	0.8556
13.9301	0.85
13.9669	0.8449
14.0038	0.838
14.0406	0.8302
14.0775	0.826
14.1144	0.818
14.1512	0.8023
14.1881	0.7918
14.225	0.7779
14.2618	0.7632
14.2987	0.7525
14.3356	0.7434
14.3724	0.736
14.4093	0.729
14.4461	0.722
14.483	0.722
14.5199	0.7258
14.5567	0.7396
14.5936	0.7504
14.6305	0.7616
14.6673	0.771
14.7042	0.773
14.7411	0.778
14.7779	0.78
14.8148	0.7795
14.8517	0.7804
14.8885	0.7798
14.9254	0.7791
14.9622	0.7838
