Infrared Spectrum: 3-Phthalimidopropionic acid
Formula: C 11 H 9 N O 4
CAS: 3339-73-9
State: gas
Origin: EPA-IR VAPOR PHASE LIBRARY
1/CM	ABSORBANCE
549.8	0.004413
559.446	0.004063
569.092	0.003593
578.738	0.003633
588.384	0.004593
598.03	0.005373
607.676	0.003813
617.322	0.002743
626.968	0.002823
636.614	0.002473
646.26	0.001913
655.906	0.001663
665.552	0.0013645
675.198	0.0014429
684.844	0.0014211
694.49	0.002133
704.136	0.005353
713.782	0.013943
723.428	0.010853
733.073	0.003453
742.719	0.001773
752.365	0.001252
762.011	0.0010676
771.657	0.0013262
781.303	0.001863
790.949	0.001753
800.595	0.0008928
810.241	0.0008863
819.887	0.0008127
829.533	0.0007861
839.179	0.0007492
848.825	0.0008505
858.471	0.0014571
868.117	0.002663
877.763	0.002723
887.409	0.002263
897.055	0.001673
906.701	0.0014587
916.347	0.0013893
925.993	0.0013881
935.639	0.001573
945.285	0.002203
954.931	0.003093
964.577	0.004093
974.223	0.004773
983.869	0.005553
993.515	0.006653
1003.16	0.007143
1012.81	0.005573
1022.45	0.003533
1032.1	0.002753
1041.74	0.002013
1051.39	0.002183
1061.04	0.003043
1070.68	0.004383
1080.33	0.005833
1089.97	0.006783
1099.62	0.007503
1109.27	0.010013
1118.91	0.014373
1128.56	0.016023
1138.2	0.013933
1147.85	0.013183
1157.5	0.012533
1167.14	0.010653
1176.79	0.008913
1186.43	0.007373
1196.08	0.005103
1205.73	0.003773
1215.37	0.003563
1225.02	0.003503
1234.66	0.003293
1244.31	0.003173
1253.96	0.003203
1263.6	0.003203
1273.25	0.003363
1282.89	0.003763
1292.54	0.004533
1302.19	0.005483
1311.83	0.006133
1321.48	0.007053
1331.12	0.007763
1340.77	0.009153
1350.42	0.014603
1360.06	0.024923
1369.71	0.033413
1379.35	0.029513
1389	0.022673
1398.65	0.017043
1408.29	0.009813
1417.94	0.005833
1427.58	0.004003
1437.23	0.004743
1446.88	0.007343
1456.52	0.005063
1466.17	0.003743
1475.81	0.002713
1485.46	0.001763
1495.11	0.0014084
1504.75	0.0010861
1514.4	0.0010468
1524.04	0.0010578
1533.69	0.000872
1543.34	0.0007515
1552.98	0.0008402
1562.63	0.0009006
1572.27	0.0010552
1581.92	0.0011408
1591.57	0.001441
1601.21	0.001703
1610.86	0.001973
1620.5	0.001553
1630.15	0.0011344
1639.79	0.0011597
1649.44	0.0011853
1659.09	0.0011582
1668.73	0.001493
1678.38	0.001903
1688.02	0.002723
1697.67	0.004153
1707.32	0.006953
1716.96	0.014823
1726.61	0.045853
1736.25	0.075743
1745.9	0.045173
1755.55	0.022923
1765.19	0.022253
1774.84	0.028023
1784.48	0.034513
1794.13	0.024113
1803.78	0.011103
1813.42	0.006263
1823.07	0.003783
1832.71	0.002573
1842.36	0.002003
1852.01	0.001513
1861.65	0.0012368
1871.3	0.0011648
1880.94	0.0011081
1890.59	0.0009402
1900.24	0.0008717
1909.88	0.0008742
1919.53	0.0008714
1929.17	0.00087
1938.82	0.0009075
1948.47	0.0007869
1958.11	0.0006873
1967.76	0.0008096
1977.4	0.0007447
1987.05	0.00054646
1996.7	0.000475623
2006.34	0.00046438
2015.99	0.0004475
2025.63	0.0004207
2035.28	0.000476753
2044.93	0.00049685
2054.57	0.000476133
2064.22	0.0004685
2073.86	0.00047003
2083.51	0.0004909
2093.16	0.0004613
2102.8	0.0004307
2112.45	0.0004179
2122.09	0.0003856
2131.74	0.000474895
2141.39	0.0004626
2151.03	0.0004507
2160.68	0.00046908
2170.32	0.000474857
2179.97	0.000445
2189.62	0.000435
2199.26	0.0004187
2208.91	0.0004258
2218.55	0.0004325
2228.2	0.000453
2237.85	0.0004592
2247.49	0.00048447
2257.14	0.00054138
2266.78	0.000478534
2276.43	0.0004473
2286.08	0.0004241
2295.72	0.0004385
2305.37	0.00046828
2315.01	0.00051825
2324.66	0.00049682
2334.31	0.0004368
2343.95	0.0004192
2353.6	0.0004123
2363.24	0.0003853
2372.89	0.0004401
2382.53	0.0004204
2392.18	0.0004407
2401.83	0.0004277
2411.47	0.0004105
2421.12	0.0004455
2430.76	0.0004345
2440.41	0.00050069
2450.06	0.000480205
2459.7	0.000475598
2469.35	0.000474543
2478.99	0.0004599
2488.64	0.0004324
2498.29	0.0004342
2507.93	0.0004395
2517.58	0.0004
2527.22	0.000362
2536.87	0.0003737
2546.52	0.000325
2556.16	0.000271
2565.81	0.0004322
2575.45	0.000281
2585.1	0.000357
2594.75	0.000316
2604.39	0.000363
2614.04	0.0003795
2623.68	0.000332
2633.33	0.000322
2642.98	0.000315
2652.62	0.0003842
2662.27	0.000364
2671.91	0.000346
2681.56	0.0004339
2691.21	0.000381
2700.85	0.0004489
2710.5	0.0004192
2720.14	0.000269
2729.79	0.000263
2739.44	0.000223
2749.08	0.000361
2758.73	0.00037
2768.37	0.000369
2778.02	0.000368
2787.67	0.000393
2797.31	0.0004016
2806.96	0.000305
2816.6	0.000289
2826.25	0.000366
2835.9	0.000336
2845.54	0.0003751
2855.19	0.0004144
2864.83	0.000477237
2874.48	0.0003936
2884.13	0.00051797
2893.77	0.0005842
2903.42	0.0005011
2913.06	0.0006478
2922.71	0.0007876
2932.36	0.0010621
2942	0.001583
2951.65	0.002243
2961.29	0.002193
2970.94	0.001353
2980.59	0.000832
2990.23	0.0007461
2999.88	0.0007077
3009.52	0.00049677
3019.17	0.0004437
3028.82	0.0005148
3038.46	0.0007145
3048.11	0.0009305
3057.75	0.001359
3067.4	0.00133
3077.04	0.001523
3086.69	0.002153
3096.34	0.0013714
3105.98	0.00050603
3115.63	0.000358
3125.27	0.000202
3134.92	0.000227
3144.57	0.000167
3154.21	0.00021
3163.86	1.2e-05
3173.5	0.000245
3183.15	0.000126
3192.8	0.000191
3202.44	0.000217
3212.09	0.000122
3221.73	0.000203
3231.38	8.9e-05
3241.03	0.000142
3250.67	0.000144
3260.32	9.6e-05
3269.96	0.000172
3279.61	0.000264
3289.26	0.000198
3298.9	0.000226
3308.55	0.000179
3318.19	9.6e-05
3327.84	0.000172
3337.49	0.000216
3347.13	0.000252
3356.78	0.000239
3366.42	0.000306
3376.07	0.000253
3385.72	0.000295
3395.36	0.000157
3405.01	0.000241
3414.65	0.000274
3424.3	0.000137
3433.95	0.000259
3443.59	0.000218
3453.24	0.000246
3462.88	0.0004477
3472.53	0.00052533
3482.18	0.00049931
3491.82	0.0007025
3501.47	0.0010919
3511.11	0.00103
3520.76	0.0008449
3530.41	0.0007747
3540.05	0.0007781
3549.7	0.0009491
3559.34	0.001933
3568.99	0.007763
3578.64	0.010523
3588.28	0.002633
3597.93	0.0011073
3607.57	0.0007294
3617.22	0.0004028
3626.87	0.0003822
3636.51	0.000297
3646.16	0.000284
3655.8	0.000336
3665.45	0.000242
3675.1	0.000258
3684.74	0.000177
3694.39	0.000292
3704.03	0.000276
3713.68	0.000176
3723.33	0.000219
3732.97	0.000183
3742.62	0.000309
3752.26	0.000208
3761.91	0.000285
3771.56	0.000214
3781.2	0.000192
3790.85	0.000263
3800.49	0.000182
3810.14	0.00028
3819.78	0.000321
3829.43	0.00028
3839.08	0.000204
3848.72	0.000159
3858.37	0.000189
3868.01	0.000174
3877.66	0.000202
3887.31	9.4e-05
3896.95	0.00011
3906.6	0.000215
3916.24	0.000129
3925.89	0.000214
3935.54	0.000269
3945.18	0.000222
3954.83	0.000291
3964.47	0.000201
3974.12	0.000234
3983.77	0.0003736
3993.41	0.000285
