Infrared Spectrum: Pyridine, 4-phenoxy-, 1-oxide
Formula: C11 H9 N O2
CAS: 33399-53-0
State: SOLID (SPLIT MULL), FLUOROLUBE FOR 3800-1330 CM^-^1, NUJOL FOR 1330-400 CM^-^1
Class: COBLENTZ III
Instrument: BECKMAN IR-9 (GRATING)
Instrument parameters: ORDER CHANGES: 670, 1200, 2000 CM^-^1
Sampling: TRANSMISSION
Resolution: 2
Origin: DOW CHEMICAL COMPANY
1/CM	TRANSMITTANCE
403	0.4737
412	0.487
421	0.5571
430	0.6389
439	0.7093
448	0.7477
457	0.7635
466	0.651
475	0.8088
484	0.7872
493	0.8193
502	0.8234
511	0.8137
520	0.5648
529	0.7859
538	0.7881
547	0.8481
556	0.8541
565	0.8583
574	0.862
583	0.866
592	0.8734
601	0.872
610	0.8553
619	0.8753
628	0.8849
637	0.8874
646	0.8902
655	0.8865
664	0.8041
673	0.8928
682	0.8964
691	0.8637
700	0.6353
709	0.7937
718	0.8231
727	0.7849
736	0.7834
745	0.5414
754	0.7973
763	0.8133
772	0.7859
781	0.3749
790	0.6336
799	0.7977
808	0.7979
817	0.6524
826	0.3576
835	0.5692
844	0.3801
853	0.6944
862	0.7996
871	0.8359
880	0.7515
889	0.6977
898	0.8352
907	0.8441
916	0.8441
925	0.7557
934	0.7737
943	0.7967
952	0.8244
961	0.7571
970	0.8286
979	0.8207
988	0.8019
997	0.8294
1006	0.8146
1015	0.813
1024	0.7743
1033	0.478
1042	0.8179
1051	0.8313
1060	0.8292
1069	0.8115
1078	0.7312
1087	0.7899
1096	0.797
1105	0.7628
1114	0.7843
1123	0.7675
1132	0.7628
1141	0.7519
1150	0.7118
1159	0.5982
1168	0.4493
1177	0.5406
1186	0.6366
1195	0.3704
1204	0.4973
1213	0.5138
1222	0.3416
1231	0.25
1240	0.1047
1249	0.5842
1258	0.7635
1267	0.4415
1276	0.154
1285	0.6033
1294	0.7123
1303	0.8064
1312	0.7217
1321	0.775
1330	0.8101
1339	0.7746
1348	0.7683
1357	0.804
1366	0.8213
1375	0.8252
1384	0.8214
1393	0.8101
1402	0.7987
1411	0.7861
1420	0.7696
1429	0.7399
1438	0.6921
1447	0.6146
1456	0.4867
1465	0.4605
1474	0.0927
1483	0.2476
1492	0.5676
1501	0.7663
1510	0.8906
1519	0.9118
1528	0.919
1537	0.9126
1546	0.8939
1555	0.8932
1564	0.8529
1573	0.8306
1582	0.7179
1591	0.7028
1600	0.8147
1609	0.8873
1618	0.8383
1627	0.7203
1636	0.884
1645	0.8897
1654	0.884
1663	0.8764
1672	0.8789
1681	0.8783
1690	0.8752
1699	0.8756
1708	0.877
1717	0.877
1726	0.8748
1735	0.8713
1744	0.8674
1753	0.8661
1762	0.8599
1771	0.8501
1780	0.8495
1789	0.8493
1798	0.8488
1807	0.8482
1816	0.8472
1825	0.8461
1834	0.8445
1843	0.8417
1852	0.8394
1861	0.8423
1870	0.8417
1879	0.8377
1888	0.8349
1897	0.8335
1906	0.823
1915	0.8094
1924	0.8149
1933	0.833
1942	0.8324
1951	0.8292
1960	0.8192
1969	0.8122
1978	0.8096
1987	0.8092
1996	0.8021
2005	0.8014
2014	0.8004
2023	0.7992
2032	0.8011
2041	0.7986
2050	0.7954
2059	0.793
2068	0.796
2077	0.798
2086	0.7984
2095	0.7972
2104	0.7952
2113	0.7928
2122	0.7903
2131	0.7877
2140	0.7851
2149	0.7824
2158	0.7798
2167	0.7774
2176	0.775
2185	0.7725
2194	0.7701
2203	0.7675
2212	0.7649
2221	0.7623
2230	0.7598
2239	0.7572
2248	0.7546
2257	0.7516
2266	0.7486
2275	0.7456
2284	0.7424
2293	0.7389
2302	0.7355
2311	0.7321
2320	0.7288
2329	0.7257
2338	0.7227
2347	0.7197
2356	0.7167
2365	0.7148
2374	0.7145
2383	0.7202
2392	0.7224
2401	0.7235
2410	0.7245
2419	0.7255
2428	0.7257
2437	0.7252
2446	0.724
2455	0.7226
2464	0.7209
2473	0.719
2482	0.7167
2491	0.713
2500	0.711
2509	0.7104
2518	0.7126
2527	0.7148
2536	0.7177
2545	0.7191
2554	0.7186
2563	0.7171
2572	0.715
2581	0.7128
2590	0.7109
2599	0.7089
2608	0.707
2617	0.705
2626	0.7031
2635	0.7011
2644	0.7007
2653	0.7003
2662	0.6992
2671	0.698
2680	0.6968
2689	0.6944
2698	0.6922
2707	0.6897
2716	0.6862
2725	0.6828
2734	0.6794
2743	0.6759
2752	0.6721
2761	0.6683
2770	0.6645
2779	0.6628
2788	0.6614
2797	0.6631
2806	0.6644
2815	0.6625
2824	0.6593
2833	0.6549
2842	0.6505
2851	0.6472
2860	0.6453
2869	0.6465
2878	0.6459
2887	0.6418
2896	0.6365
2905	0.6299
2914	0.6229
2923	0.6162
2932	0.6162
2941	0.6164
2950	0.6168
2959	0.6146
2968	0.6107
2977	0.6039
2986	0.5942
2995	0.5778
3004	0.5359
3013	0.4722
3022	0.5202
3031	0.5468
3040	0.5663
3049	0.557
3058	0.5639
3067	0.5819
3076	0.6255
3085	0.6237
3094	0.6198
3103	0.6203
3112	0.6202
3121	0.6048
3130	0.587
3139	0.6098
3148	0.6246
3157	0.6243
3166	0.6225
3175	0.6207
3184	0.6191
3193	0.6172
3202	0.6153
3211	0.6131
3220	0.611
3229	0.6092
3238	0.6076
3247	0.6058
3256	0.6042
3265	0.6023
3274	0.6005
3283	0.5986
3292	0.5968
3301	0.5949
3310	0.5936
3319	0.5921
3328	0.5907
3337	0.5893
3346	0.5879
3355	0.5863
3364	0.5847
3373	0.583
3382	0.5814
3391	0.5798
3400	0.5782
3409	0.5767
3418	0.5754
3427	0.5741
3436	0.5728
3445	0.5714
3454	0.5702
3463	0.5689
3472	0.5676
3481	0.5664
3490	0.5651
3499	0.5639
3508	0.5626
3517	0.5614
3526	0.5601
3535	0.5589
3544	0.5576
3553	0.5563
3562	0.5551
3571	0.5538
3580	0.5526
3589	0.5513
3598	0.5501
3607	0.5488
3616	0.5475
3625	0.5461
3634	0.5448
3643	0.5434
3652	0.5421
3661	0.5407
3670	0.5394
3679	0.5381
3688	0.5368
3697	0.5355
3706	0.5342
3715	0.5329
3724	0.5316
3733	0.5302
3742	0.529
3751	0.5269
3760	0.5249
3769	0.5234
3778	0.523
3787	0.5224
3796	0.5219
