Infrared Spectrum: 2-Chloro-5-fluorotoluene
Formula: C 7 H 6 Cl F
CAS: 33406-96-1
State: gas
Origin: EPA-IR VAPOR PHASE LIBRARY
1/CM	ABSORBANCE
549.8	0.006501
559.445	0.007521
569.09	0.006881
578.734	0.004061
588.379	0.002681
598.024	0.003581
607.669	0.004001
617.313	0.018761
626.958	0.061781
636.603	0.061021
646.248	0.009561
655.893	0.003151
665.537	0.002511
675.182	0.002951
684.827	0.003431
694.472	0.003271
704.116	0.002391
713.761	0.001981
723.406	0.003971
733.051	0.003671
742.695	0.001696
752.34	0.002301
761.985	0.002611
771.63	0.002121
781.275	0.004661
790.919	0.014161
800.564	0.028531
810.209	0.035341
819.854	0.019081
829.498	0.007421
839.143	0.006451
848.788	0.017111
858.433	0.031461
868.078	0.029621
877.722	0.017861
887.367	0.006781
897.012	0.004651
906.657	0.002531
916.301	0.002111
925.946	0.003371
935.591	0.007171
945.236	0.011301
954.88	0.010461
964.525	0.005991
974.17	0.005051
983.815	0.006721
993.46	0.011721
1003.1	0.013221
1012.75	0.009201
1022.39	0.004011
1032.04	0.006321
1041.68	0.015701
1051.33	0.043801
1060.97	0.047151
1070.62	0.015241
1080.26	0.007361
1089.91	0.004721
1099.55	0.013971
1109.2	0.038921
1118.84	0.041081
1128.49	0.014001
1138.13	0.015871
1147.78	0.057691
1157.42	0.059331
1167.07	0.016461
1176.71	0.005451
1186.36	0.007241
1196	0.007931
1205.64	0.006401
1215.29	0.012381
1224.93	0.036921
1234.58	0.053631
1244.22	0.036271
1253.87	0.026131
1263.51	0.046361
1273.16	0.061851
1282.8	0.055151
1292.45	0.031371
1302.09	0.007621
1311.74	0.005131
1321.38	0.004261
1331.03	0.003751
1340.67	0.003771
1350.32	0.004401
1359.96	0.005871
1369.61	0.008241
1379.25	0.010411
1388.9	0.011151
1398.54	0.019981
1408.18	0.028941
1417.83	0.029311
1427.47	0.022971
1437.12	0.018531
1446.76	0.018111
1456.41	0.028111
1466.05	0.085861
1475.7	0.150951
1485.34	0.124001
1494.99	0.052381
1504.63	0.030371
1514.28	0.016531
1523.92	0.014001
1533.57	0.013941
1543.21	0.014081
1552.86	0.014911
1562.5	0.020211
1572.15	0.029251
1581.79	0.034671
1591.44	0.032011
1601.08	0.032781
1610.73	0.035921
1620.37	0.027531
1630.01	0.011201
1639.66	0.005151
1649.3	0.003991
1658.95	0.003671
1668.59	0.004161
1678.24	0.003801
1687.88	0.003741
1697.53	0.003211
1707.17	0.003421
1716.82	0.004601
1726.46	0.005521
1736.11	0.004981
1745.75	0.003471
1755.4	0.002551
1765.04	0.002311
1774.69	0.002261
1784.33	0.002161
1793.98	0.002051
1803.62	0.001901
1813.27	0.002081
1822.91	0.001961
1832.55	0.002211
1842.2	0.002501
1851.84	0.003951
1861.49	0.005731
1871.13	0.005371
1880.78	0.003751
1890.42	0.002241
1900.07	0.001753
1909.71	0.002111
1919.36	0.001971
1929	0.001991
1938.65	0.0015768
1948.29	0.0015081
1957.94	0.002001
1967.58	0.001831
1977.23	0.0014435
1986.87	0.00166
1996.52	0.0016432
2006.16	0.0016089
2015.81	0.0016743
2025.45	0.0014484
2035.1	0.0010771
2044.74	0.0014387
2054.38	0.0014782
2064.03	0.0015507
2073.67	0.001831
2083.32	0.001831
2092.96	0.0016445
2102.61	0.0017173
2112.25	0.001791
2121.9	0.0012754
2131.54	0.0017457
2141.19	0.0014525
2150.83	0.0013018
2160.48	0.0013369
2170.12	0.0016413
2179.77	0.0015365
2189.41	0.001769
2199.06	0.0017292
2208.7	0.001901
2218.35	0.002031
2227.99	0.001981
2237.64	0.0015287
2247.28	0.0014958
2256.92	0.0013968
2266.57	0.0013229
2276.21	0.0013655
2285.86	0.0011224
2295.5	0.0012308
2305.15	0.0016168
2314.79	0.0014651
2324.44	0.0014844
2334.08	0.0014055
2343.73	0.0013802
2353.37	0.0016143
2363.02	0.0012155
2372.66	0.0017378
2382.31	0.001941
2391.95	0.002301
2401.6	0.002121
2411.24	0.002201
2420.89	0.002351
2430.53	0.002311
2440.18	0.001901
2449.82	0.0017767
2459.47	0.001319
2469.11	0.0014667
2478.75	0.0015128
2488.4	0.0016272
2498.04	0.0017304
2507.69	0.002061
2517.33	0.002051
2526.98	0.0015253
2536.62	0.0016772
2546.27	0.002041
2555.91	0.001647
2565.56	0.0015416
2575.2	0.0011862
2584.85	0.0015249
2594.49	0.0013139
2604.14	0.0011225
2613.78	0.0013632
2623.43	0.0013087
2633.07	0.0016022
2642.72	0.0014167
2652.36	0.0016236
2662.01	0.0012571
2671.65	0.0010864
2681.29	0.0015485
2690.94	0.0011364
2700.58	0.0012643
2710.23	0.0010742
2719.87	0.001295
2729.52	0.0017524
2739.16	0.0016682
2748.81	0.001801
2758.45	0.001911
2768.1	0.0016189
2777.74	0.0016757
2787.39	0.001871
2797.03	0.0017553
2806.68	0.001961
2816.32	0.002261
2825.97	0.001971
2835.61	0.002611
2845.26	0.002941
2854.9	0.004381
2864.55	0.005631
2874.19	0.006431
2883.84	0.005631
2893.48	0.005151
2903.12	0.005261
2912.77	0.006501
2922.41	0.010601
2932.06	0.013981
2941.7	0.015251
2951.35	0.012931
2960.99	0.010891
2970.64	0.010121
2980.28	0.010521
2989.93	0.010451
2999.57	0.008891
3009.22	0.005631
3018.86	0.004321
3028.51	0.005161
3038.15	0.005301
3047.8	0.006191
3057.44	0.005321
3067.09	0.004801
3076.73	0.006081
3086.38	0.005111
3096.02	0.004591
3105.67	0.003501
3115.31	0.002291
3124.95	0.001781
3134.6	0.0016775
3144.24	0.0016777
3153.89	0.001791
3163.53	0.0011267
3173.18	0.0010922
3182.82	0.0014301
3192.47	0.002041
3202.11	0.0013175
3211.76	0.0016672
3221.4	0.00082774
3231.05	0.0017792
3240.69	0.0015609
3250.34	0.0008386
3259.98	0.0014266
3269.63	0.00083862
3279.27	0.000526
3288.92	0.0011927
3298.56	0.001752
3308.21	0.001004
3317.85	0.00081488
3327.49	0.0010235
3337.14	0.0009196
3346.78	0.0011076
3356.43	0.0009637
3366.07	0.002061
3375.72	0.0016175
3385.36	0.0015608
3395.01	0.0010146
3404.65	0.0010881
3414.3	0.001871
3423.94	0.0009463
3433.59	0.0015687
3443.23	0.001821
3452.88	0.0012424
3462.52	0.0016972
3472.17	0.0017693
3481.81	0.0010727
3491.46	0.0017008
3501.1	0.0015168
3510.75	0.0011167
3520.39	0.0010196
3530.04	0.0013579
3539.68	0.0011803
3549.32	0.002001
3558.97	0.0014568
3568.61	0.0015568
3578.26	0.0016949
3587.9	0.002091
3597.55	0.0012481
3607.19	0.0016412
3616.84	0.000459
3626.48	0.00084513
3636.13	0.00079941
3645.77	0.001077
3655.42	0.0012733
3665.06	0.001514
3674.71	5.5e-05
3684.35	0.0014737
3694	0.0012352
3703.64	0.0014526
3713.29	0.0012917
3722.93	0.001717
3732.58	0.0014008
3742.22	0.0007517
3751.86	0.0009543
3761.51	0.001229
3771.15	0.002141
3780.8	0.001871
3790.44	0.0011884
3800.09	0.0014588
3809.73	0.0011313
3819.38	0.0016303
3829.02	0.0011587
3838.67	0.0015133
3848.31	0.0011551
3857.96	0.0015192
3867.6	0.0007336
3877.25	0.001951
3886.89	0.0015021
3896.54	0.0013399
3906.18	0.0015624
3915.83	0.000989
3925.47	0.0010608
3935.12	0.002131
3944.76	0.0011619
3954.41	0.000506
3964.05	0.0007454
3973.69	0.0012658
3983.34	0.00077898
3992.98	0.000554
