Infrared Spectrum: THIOPURINE, 8-METHYL-
Formula: C6 H6 N4 S
CAS: 33426-53-8
State: SOLID (SPLIT MULL)
Class: COBLENTZ III
Instrument: BECKMAN IR-9 (GRATING)
Instrument parameters: ORDER CHANGES: 670, 1200, 2000 CM^-^1
Sampling: TRANSMISSION
Resolution: 2
Origin: DOW CHEMICAL COMPANY
1/CM	TRANSMITTANCE
3816	0.4534
3807	0.4548
3798	0.4566
3789	0.4584
3780	0.4602
3771	0.4624
3762	0.4649
3753	0.4673
3744	0.4698
3735	0.4721
3726	0.4744
3717	0.4769
3708	0.4794
3699	0.4815
3690	0.4832
3681	0.4848
3672	0.4857
3663	0.4865
3654	0.4869
3645	0.4873
3636	0.4876
3627	0.4879
3618	0.4883
3609	0.489
3600	0.49
3591	0.492
3582	0.4976
3573	0.499
3564	0.4993
3555	0.4996
3546	0.5002
3537	0.5012
3528	0.5024
3519	0.5035
3510	0.5046
3501	0.5057
3492	0.507
3483	0.5083
3474	0.5097
3465	0.511
3456	0.5124
3447	0.5137
3438	0.5151
3429	0.5168
3420	0.5185
3411	0.5203
3402	0.522
3393	0.5238
3384	0.5255
3375	0.5274
3366	0.5293
3357	0.531
3348	0.533
3339	0.5349
3330	0.5371
3321	0.5395
3312	0.5421
3303	0.5446
3294	0.5473
3285	0.5504
3276	0.5535
3267	0.5567
3258	0.5604
3249	0.5624
3240	0.5641
3231	0.5669
3222	0.5695
3213	0.5723
3204	0.5753
3195	0.5769
3186	0.5784
3177	0.5791
3168	0.5791
3159	0.5749
3150	0.5657
3141	0.5529
3132	0.5589
3123	0.5736
3114	0.5832
3105	0.5855
3096	0.5829
3087	0.5662
3078	0.5289
3069	0.491
3060	0.4849
3051	0.4932
3042	0.499
3033	0.496
3024	0.4864
3015	0.4925
3006	0.5214
2997	0.5408
2988	0.546
2979	0.5444
2970	0.5279
2961	0.484
2952	0.4691
2943	0.465
2934	0.4601
2925	0.4826
2916	0.5181
2907	0.511
2898	0.5041
2889	0.5068
2880	0.5137
2871	0.5036
2862	0.4768
2853	0.4637
2844	0.4604
2835	0.4423
2826	0.4328
2817	0.4239
2808	0.42
2799	0.4352
2790	0.4524
2781	0.4687
2772	0.473
2763	0.4591
2754	0.4395
2745	0.437
2736	0.4414
2727	0.4325
2718	0.4149
2709	0.4194
2700	0.4226
2691	0.4144
2682	0.3948
2673	0.3758
2664	0.3668
2655	0.3652
2646	0.3639
2637	0.363
2628	0.3628
2619	0.3629
2610	0.363
2601	0.3662
2592	0.3712
2583	0.375
2574	0.3786
2565	0.3834
2556	0.3927
2547	0.3938
2538	0.393
2529	0.3953
2520	0.3988
2511	0.4056
2502	0.4136
2493	0.4193
2484	0.4227
2475	0.4251
2466	0.4259
2457	0.4257
2448	0.4245
2439	0.4292
2430	0.4353
2421	0.4423
2412	0.4486
2403	0.455
2394	0.4612
2385	0.467
2376	0.4728
2367	0.4784
2358	0.484
2349	0.4895
2340	0.4966
2331	0.5043
2322	0.5117
2313	0.5185
2304	0.5254
2295	0.5322
2286	0.5392
2277	0.5462
2268	0.5533
2259	0.5604
2250	0.5675
2241	0.5746
2232	0.5818
2223	0.5892
2214	0.5978
2205	0.6062
2196	0.6141
2187	0.6212
2178	0.6284
2169	0.6355
2160	0.6425
2151	0.6496
2142	0.6568
2133	0.6643
2124	0.6718
2115	0.6784
2106	0.6847
2097	0.691
2088	0.6975
2079	0.704
2070	0.7103
2061	0.7151
2052	0.7169
2043	0.7199
2034	0.7251
2025	0.7314
2016	0.7375
2007	0.7432
1998	0.7482
1989	0.753
1980	0.7586
1971	0.7619
1962	0.765
1953	0.7682
1944	0.7718
1935	0.7751
1926	0.7754
1917	0.7751
1908	0.7825
1899	0.7843
1890	0.7857
1881	0.7865
1872	0.7698
1863	0.7658
1854	0.781
1845	0.7878
1836	0.7905
1827	0.786
1818	0.7888
1809	0.7945
1800	0.7976
1791	0.7953
1782	0.7951
1773	0.7958
1764	0.7968
1755	0.7974
1746	0.7978
1737	0.7965
1728	0.7921
1719	0.7849
1710	0.7891
1701	0.7884
1692	0.784
1683	0.7844
1674	0.7945
1665	0.8024
1656	0.8068
1647	0.8198
1638	0.8247
1629	0.7858
1620	0.5712
1611	0.6737
1602	0.7881
1593	0.8261
1584	0.8451
1575	0.6921
1566	0.407
1557	0.6998
1548	0.77
1539	0.7721
1530	0.7138
1521	0.5772
1512	0.3655
1503	0.5017
1494	0.6295
1485	0.6896
1476	0.739
1467	0.7822
1458	0.7841
1449	0.7342
1440	0.7305
1431	0.2613
1422	0.5083
1413	0.4519
1404	0.5337
1395	0.7005
1386	0.7793
1377	0.779
1368	0.2916
1359	0.2162
1350	0.3152
1341	0.4954
1332	0.6358
1323	0.1346
1314	0.4716
1305	0.4623
1296	0.6269
1287	0.6132
1278	0.3439
1269	0.2549
1260	0.6123
1251	0.7175
1242	0.7492
1233	0.7624
1224	0.7562
1215	0.8018
1206	0.7925
1197	0.6395
1188	0.7071
1179	0.8111
1170	0.8216
1161	0.8231
1152	0.8246
1143	0.827
1134	0.8299
1125	0.8334
1116	0.8292
1107	0.5636
1098	0.8245
1089	0.8297
1080	0.8262
1071	0.8243
1062	0.8233
1053	0.8232
1044	0.8251
1035	0.8189
1026	0.8176
1017	0.8187
1008	0.8007
999	0.6775
990	0.5923
981	0.6537
972	0.6894
963	0.3882
954	0.323
945	0.6575
936	0.7447
927	0.7515
918	0.4095
909	0.7395
900	0.7641
891	0.7328
882	0.6768
873	0.5365
864	0.457
855	0.581
846	0.6169
837	0.3135
828	0.6756
819	0.7621
810	0.7896
801	0.7675
792	0.8286
783	0.8456
774	0.8494
765	0.8531
756	0.8557
747	0.8536
738	0.8443
729	0.8278
720	0.7998
711	0.858
702	0.882
693	0.8718
684	0.6368
675	0.8696
666	0.8786
657	0.8516
648	0.6545
639	0.8825
630	0.8787
621	0.8403
612	0.5868
603	0.872
594	0.8742
585	0.8701
576	0.8689
567	0.8682
558	0.8657
549	0.857
540	0.6386
531	0.8425
522	0.8364
513	0.826
504	0.8165
495	0.8128
486	0.813
477	0.8118
468	0.8021
459	0.7818
450	0.7553
441	0.7238
432	0.6805
423	0.6179
414	0.5164
405	0.4759
