Infrared Spectrum: DIBENZO[b,e][1,4]DIOXIN, 1,3,6,8-TETRACHLORO-
Formula: C12 H4 Cl4 O2
CAS: 33423-92-6
State: SOLID (OIL MULL)
Class: COBLENTZ
Instrument: PERKIN-ELMER 521 (GRATING)
Instrument parameters: GRATING CHANGES AT 2000, 630, FILTERS AT 3150, 2500, 2000, 1150, 700, 410 CM^-^1
Sampling: TRANSMISSION
Resolution: 4
Origin: DOW CORNING CORP.
1/CM	TRANSMITTANCE
229.56	0.636
238.644	0.668
247.729	0.692
256.813	0.726
265.897	0.765
274.982	0.78
284.066	0.802
293.15	0.825
302.235	0.841
311.319	0.85
320.404	0.851
329.488	0.854
338.572	0.854
347.657	0.852
356.741	0.846
365.825	0.847
374.91	0.863
383.994	0.844
393.078	0.839
402.163	0.835
411.247	0.828
420.331	0.835
429.416	0.839
438.5	0.839
447.585	0.833
456.669	0.8139
465.753	0.837
474.838	0.837
483.922	0.839
493.006	0.84
502.091	0.841
511.175	0.843
520.259	0.84
529.344	0.837
538.428	0.841
547.512	0.839
556.597	0.839
565.681	0.826
574.766	0.805
583.85	0.843
592.934	0.854
602.019	0.862
611.103	0.871
620.187	0.882
629.272	0.891
638.356	0.907
647.44	0.915
656.525	0.911
665.609	0.907
674.693	0.923
683.778	0.911
692.862	0.892
701.947	0.8094
711.031	0.886
720.115	0.861
729.2	0.889
738.284	0.905
747.368	0.915
756.453	0.907
765.537	0.925
774.621	0.925
783.706	0.861
792.79	0.891
801.874	0.885
810.959	0.865
820.043	0.7411
829.127	0.7596
838.212	0.708
847.296	0.6769
856.381	0.674
865.465	0.942
874.549	0.934
883.634	0.935
892.718	0.944
901.802	0.945
910.887	0.937
919.971	0.929
929.055	0.903
938.14	0.741
947.224	0.914
956.308	0.899
965.393	0.8161
974.477	0.3583
983.562	0.4775
992.646	0.867
1001.73	0.895
1010.81	0.893
1019.9	0.874
1028.98	0.874
1038.07	0.878
1047.15	0.869
1056.24	0.859
1065.32	0.854
1074.41	0.784
1083.49	0.7429
1092.57	0.82
1101.66	0.846
1110.74	0.861
1119.83	0.873
1128.91	0.867
1138	0.867
1147.08	0.87
1156.16	0.858
1165.25	0.816
1174.33	0.874
1183.42	0.828
1192.5	0.569
1201.59	0.874
1210.67	0.881
1219.75	0.897
1228.84	0.88
1237.92	0.874
1247.01	0.861
1256.09	0.833
1265.18	0.839
1274.26	0.832
1283.35	0.779
1292.43	0.573
1301.51	0.415
1310.6	0.825
1319.68	0.839
1328.77	0.856
1337.85	0.858
1346.94	0.847
1356.02	0.805
1365.1	0.73
1374.19	0.604
1383.27	0.764
1392.36	0.746
1401.44	0.603
1410.53	0.416
1419.61	0.4005
1428.69	0.698
1437.78	0.633
1446.86	0.497
1455.95	0.332
1465.03	0.156
1474.12	0.08
1483.2	0.333
1492.29	0.625
1501.37	0.846
1510.45	0.869
1519.54	0.882
1528.62	0.865
1537.71	0.841
1546.79	0.856
1555.88	0.813
1564.96	0.618
1574.04	0.4
1583.13	0.866
1592.21	0.856
1601.3	0.798
1610.38	0.742
1619.47	0.7979
1628.55	0.891
1637.64	0.903
1646.72	0.905
1655.8	0.903
1664.89	0.897
1673.97	0.901
1683.06	0.901
1692.14	0.882
1701.23	0.882
1710.31	0.892
1719.39	0.904
1728.48	0.911
1737.56	0.912
1746.65	0.911
1755.73	0.914
1764.82	0.912
1773.9	0.911
1782.98	0.912
1792.07	0.912
1801.15	0.911
1810.24	0.911
1819.32	0.911
1828.41	0.911
1837.49	0.911
1846.58	0.911
1855.66	0.908
1864.74	0.905
1873.83	0.901
1882.91	0.903
1892	0.904
1901.08	0.897
1910.17	0.895
1919.25	0.895
1928.33	0.895
1937.42	0.899
1946.5	0.899
1955.59	0.899
1964.67	0.899
1973.76	0.895
1982.84	0.897
1991.93	0.901
2001.01	0.903
2010.09	0.899
2019.18	0.896
2028.26	0.895
2037.35	0.895
2046.43	0.893
2055.52	0.892
2064.6	0.892
2073.68	0.8965
2082.77	0.897
2091.85	0.896
2100.94	0.895
2110.02	0.892
2119.11	0.895
2128.19	0.8924
2137.27	0.8859
2146.36	0.881
2155.44	0.884
2164.53	0.885
2173.61	0.884
2182.7	0.885
2191.78	0.885
2200.87	0.8844
2209.95	0.881
2219.03	0.881
2228.12	0.882
2237.2	0.882
2246.29	0.881
2255.37	0.88
2264.46	0.878
2273.54	0.881
2282.62	0.882
2291.71	0.881
2300.79	0.877
2309.88	0.8793
2318.96	0.88
2328.05	0.881
2337.13	0.881
2346.21	0.88
2355.3	0.878
2364.38	0.877
2373.47	0.8738
2382.55	0.87
2391.64	0.866
2400.72	0.8636
2409.81	0.8582
2418.89	0.8644
2427.97	0.8686
2437.06	0.8663
2446.14	0.867
2455.23	0.8629
2464.31	0.8594
2473.4	0.863
2482.48	0.8588
2491.56	0.8587
2500.65	0.859
2509.73	0.859
2518.82	0.855
2527.9	0.854
2536.99	0.852
2546.07	0.851
2555.16	0.851
2564.24	0.8472
2573.32	0.8382
2582.41	0.833
2591.49	0.836
2600.58	0.835
2609.66	0.836
2618.75	0.833
2627.83	0.832
2636.91	0.8272
2646	0.822
2655.08	0.824
2664.17	0.824
2673.25	0.8224
2682.34	0.822
2691.42	0.82
2700.5	0.8207
2709.59	0.8172
2718.67	0.8173
2727.76	0.821
2736.84	0.822
2745.93	0.8237
2755.01	0.821
2764.1	0.818
2773.18	0.8123
2782.26	0.8024
2791.35	0.7892
2800.43	0.7756
2809.52	0.7573
2818.6	0.7209
2827.69	0.6765
2836.77	0.5434
2845.85	0.3049
2854.94	0.1261
2864.02	0.1798
2873.11	0.1991
2882.19	0.2695
2891.28	0.2222
2900.36	0.1401
2909.44	0.0847
2918.53	0.0303
2927.61	0.0199
2936.7	0.0461
2945.78	0.0913
2954.87	0.093
2963.95	0.1403
2973.04	0.2871
2982.12	0.5177
2991.2	0.6396
3000.29	0.7127
3009.37	0.7425
3018.46	0.753
3027.54	0.7659
3036.63	0.771
3045.71	0.781
3054.79	0.784
3063.88	0.7735
3072.96	0.719
3082.05	0.715
3091.13	0.7263
3100.22	0.7763
3109.3	0.801
3118.39	0.8025
3127.47	0.79
3136.55	0.788
3145.64	0.79
3154.72	0.791
3163.81	0.792
3172.89	0.792
3181.98	0.791
3191.06	0.792
3200.14	0.792
3209.23	0.794
3218.31	0.794
3227.4	0.794
3236.48	0.792
3245.57	0.792
3254.65	0.791
3263.73	0.79
3272.82	0.7879
3281.9	0.787
3290.99	0.784
3300.07	0.7834
3309.16	0.783
3318.24	0.782
3327.33	0.78
3336.41	0.779
3345.49	0.777
3354.58	0.777
3363.66	0.776
3372.75	0.776
3381.83	0.776
3390.92	0.7767
3400	0.7792
3409.08	0.7793
3418.17	0.777
3427.25	0.777
3436.34	0.777
3445.42	0.777
3454.51	0.777
3463.59	0.779
3472.68	0.779
3481.76	0.779
3490.84	0.7792
3499.93	0.78
3509.01	0.78
3518.1	0.78
3527.18	0.782
3536.27	0.782
3545.35	0.783
3554.43	0.783
3563.52	0.783
3572.6	0.783
3581.69	0.783
3590.77	0.783
3599.86	0.782
3608.94	0.78
3618.02	0.7805
3627.11	0.782
3636.19	0.782
3645.28	0.78
3654.36	0.7784
3663.45	0.7786
3672.53	0.7793
3681.62	0.78
3690.7	0.78
3699.78	0.78
3708.87	0.779
3717.95	0.7762
3727.04	0.776
3736.12	0.776
3745.21	0.776
3754.29	0.7752
3763.37	0.775
3772.46	0.773
3781.54	0.773
3790.63	0.773
3799.71	0.773
