Infrared Spectrum: P-BROMO-A-HYDROXY ACETOPHENONE
Formula: C8 H7 Br O2
CAS: 3343-45-1
State: SOLID (MULL)
Class: COBLENTZ
Instrument: Not specified, most likely a prism, grating, or hybrid spectrometer.
Sampling: TRANSMISSION
Resolution: 4
MICROMETERS	TRANSMITTANCE
2	0.479
2.03573	0.485
2.07147	0.488
2.1072	0.499
2.14294	0.507
2.17867	0.514
2.2144	0.523
2.25014	0.527
2.28587	0.534
2.32161	0.541
2.35734	0.548
2.39307	0.553
2.42881	0.563
2.46454	0.567
2.50028	0.583
2.53601	0.591
2.57174	0.598
2.60748	0.612
2.64321	0.618
2.67895	0.626
2.71468	0.637
2.75041	0.642
2.78615	0.651
2.82188	0.651
2.85762	0.569
2.89335	0.19
2.92908	0.099
2.96482	0.141
3.00055	0.341
3.03629	0.471
3.07202	0.527
3.10775	0.549
3.14349	0.569
3.17922	0.576
3.21495	0.569
3.25069	0.567
3.28642	0.56
3.32216	0.469
3.35789	0.197
3.39362	0.082
3.42936	0.077
3.46509	0.169
3.50083	0.276
3.53656	0.56
3.57229	0.605
3.60803	0.66
3.64376	0.679
3.6795	0.676
3.71523	0.681
3.75096	0.677
3.7867	0.688
3.82243	0.684
3.85817	0.681
3.8939	0.691
3.92963	0.698
3.96537	0.705
4.0011	0.712
4.03684	0.719
4.07257	0.728
4.1083	0.73
4.14404	0.735
4.17977	0.739
4.21551	0.739
4.25124	0.77
4.28697	0.767
4.32271	0.753
4.35844	0.749
4.39418	0.751
4.42991	0.763
4.46564	0.761
4.50138	0.76
4.53711	0.756
4.57285	0.768
4.60858	0.777
4.64431	0.781
4.68005	0.786
4.71578	0.781
4.75152	0.781
4.78725	0.775
4.82298	0.786
4.85872	0.789
4.89445	0.791
4.93019	0.781
4.96592	0.791
5.00165	0.791
5.03739	0.796
5.07312	0.788
5.10886	0.788
5.14459	0.788
5.18032	0.772
5.21606	0.77
5.25179	0.796
5.28753	0.805
5.32326	0.809
5.35899	0.809
5.39473	0.814
5.43046	0.812
5.4662	0.809
5.50193	0.798
5.53766	0.791
5.5734	0.802
5.60913	0.8
5.64486	0.795
5.6806	0.786
5.71633	0.781
5.75207	0.779
5.7878	0.761
5.82353	0.718
5.85927	0.614
5.895	0.117
5.93074	0.052
5.96647	0.119
6.0022	0.364
6.03794	0.481
6.07367	0.591
6.10941	0.688
6.14514	0.718
6.18087	0.74
6.21661	0.718
6.25234	0.504
6.28808	0.129
6.32381	0.401
6.35954	0.434
6.39528	0.567
6.43101	0.672
6.46675	0.704
6.50248	0.74
6.53821	0.754
6.57395	0.761
6.60968	0.777
6.64542	0.763
6.68115	0.705
6.71688	0.6
6.75262	0.633
6.78835	0.528
6.82409	0.397
6.85982	0.373
6.89555	0.38
6.93129	0.439
6.96702	0.544
7.00276	0.59
7.03849	0.453
7.07422	0.185
7.10996	0.362
7.14569	0.471
7.18143	0.509
7.21716	0.562
7.25289	0.506
7.28863	0.57
7.32436	0.63
7.3601	0.676
7.39583	0.69
7.43156	0.697
7.4673	0.684
7.50303	0.679
7.53877	0.651
7.5745	0.598
7.61023	0.535
7.64597	0.472
7.6817	0.329
7.71744	0.364
7.75317	0.443
7.7889	0.493
7.82464	0.378
7.86037	0.455
7.8961	0.576
7.93184	0.598
7.96757	0.555
8.00331	0.446
8.03904	0.301
8.07477	0.267
8.11051	0.14
8.14624	0.171
8.18198	0.323
8.21771	0.399
8.25344	0.488
8.28918	0.565
8.32491	0.611
8.36065	0.639
8.39638	0.654
8.43211	0.633
8.46785	0.576
8.50358	0.647
8.53932	0.663
8.57505	0.67
8.61078	0.679
8.64652	0.676
8.68225	0.679
8.71799	0.684
8.75372	0.681
8.78945	0.672
8.82519	0.674
8.86092	0.677
8.89666	0.602
8.93239	0.478
8.96812	0.323
9.00386	0.122
9.03959	0.245
9.07533	0.273
9.11106	0.432
9.14679	0.572
9.18253	0.605
9.21826	0.623
9.254	0.556
9.28973	0.366
9.32546	0.131
9.3612	0.229
9.39693	0.469
9.43267	0.618
9.4684	0.672
9.50413	0.684
9.53987	0.707
9.5756	0.707
9.61134	0.714
9.64707	0.737
9.6828	0.74
9.71854	0.751
9.75427	0.733
9.79001	0.737
9.82574	0.749
9.86147	0.742
9.89721	0.444
9.93294	0.614
9.96868	0.661
10.0044	0.623
10.0401	0.453
10.0759	0.401
10.1116	0.443
10.1473	0.364
10.1831	0.147
10.2188	0.103
10.2545	0.21
10.2903	0.357
10.326	0.523
10.3617	0.604
10.3975	0.654
10.4332	0.705
10.469	0.712
10.5047	0.693
10.5404	0.702
10.5762	0.723
10.6119	0.754
10.6476	0.768
10.6834	0.767
10.7191	0.779
10.7548	0.775
10.7906	0.774
10.8263	0.775
10.862	0.777
10.8978	0.772
10.9335	0.761
10.9692	0.765
11.005	0.777
11.0407	0.784
11.0764	0.786
11.1122	0.796
11.1479	0.796
11.1836	0.798
11.2194	0.8
11.2551	0.793
11.2908	0.795
11.3266	0.798
11.3623	0.795
11.398	0.798
11.4338	0.8
11.4695	0.798
11.5052	0.805
11.541	0.805
11.5767	0.807
11.6124	0.807
11.6482	0.805
11.6839	0.803
11.7196	0.798
11.7554	0.791
11.7911	0.779
11.8268	0.768
11.8626	0.76
11.8983	0.747
11.934	0.732
11.9698	0.684
12.0055	0.632
12.0412	0.511
12.077	0.197
12.1127	0.101
12.1484	0.094
12.1842	0.243
12.2199	0.395
12.2556	0.499
12.2914	0.555
12.3271	0.579
12.3629	0.548
12.3986	0.458
12.4343	0.429
12.4701	0.499
12.5058	0.597
12.5415	0.663
12.5773	0.704
12.613	0.733
12.6487	0.749
12.6845	0.756
12.7202	0.767
12.7559	0.777
12.7917	0.781
12.8274	0.782
12.8631	0.781
12.8989	0.768
12.9346	0.749
12.9703	0.737
13.0061	0.746
13.0418	0.765
13.0775	0.774
13.1133	0.779
13.149	0.772
13.1847	0.774
13.2205	0.768
13.2562	0.772
13.2919	0.768
13.3277	0.767
13.3634	0.772
13.3991	0.756
13.4349	0.747
13.4706	0.746
13.5063	0.735
13.5421	0.735
13.5778	0.726
13.6135	0.73
13.6493	0.737
13.685	0.735
13.7207	0.732
13.7565	0.726
13.7922	0.718
13.8279	0.711
13.8637	0.709
13.8994	0.712
13.9351	0.726
13.9709	0.725
14.0066	0.716
14.0423	0.698
14.0781	0.654
14.1138	0.616
14.1495	0.66
14.1853	0.691
14.221	0.684
14.2568	0.658
14.2925	0.665
14.3282	0.681
14.364	0.7
14.3997	0.7
14.4354	0.702
14.4712	0.693
14.5069	0.691
14.5426	0.691
14.5784	0.684
14.6141	0.684
14.6498	0.688
14.6856	0.677
14.7213	0.674
14.757	0.663
14.7928	0.665
14.8285	0.656
14.8642	0.647
14.9	0.644
14.9357	0.639
14.9714	0.64
15.0072	0.63
15.0429	0.616
15.0786	0.611
15.1144	0.604
15.1501	0.593
15.1858	0.586
15.2216	0.576
15.2573	0.57
15.293	0.56
15.3288	0.548
15.3645	0.544
15.4002	0.528
15.436	0.516
15.4717	0.506
