Infrared Spectrum: 1,12-Dibromododecane
Formula: C 12 H 24 Br 2
CAS: 3344-70-5
State: gas
Instrument: HP-GC/MS/IRD
Origin: NIST Mass Spectrometry Data Center
1/CM	ABSORBANCE
550	0.001566
562	0.0012555
574	0.0014895
586	0.0004365
598	7.65e-05
610	8.1e-05
622	0.000306
634	0.001071
646	0.002241
658	0.0018045
670	0.000486
682	0.0002385
694	0.0002925
706	0.0006435
718	0.0012015
730	0.0012375
742	0.001089
754	0.000864
766	0.0006795
778	0.0005805
790	0.000549
802	0.000477
814	0.0003915
826	0.0004005
838	0.0003825
850	0.000369
862	0.000378
874	0.0004455
886	0.000387
898	0.0004095
910	0.0003915
922	0.0003465
934	0.000342
946	0.000333
958	0.0003285
970	0.0003285
982	0.000369
994	0.000369
1006	0.0003825
1018	0.0004005
1030	0.000396
1042	0.0003465
1054	0.0002745
1066	0.000207
1078	0.0001215
1090	9e-05
1102	9.45e-05
1114	9.45e-05
1126	9e-05
1138	0.000117
1150	0.000135
1162	0.0002475
1174	0.000333
1186	0.000648
1198	0.0012195
1210	0.0023715
1222	0.003339
1234	0.0035595
1246	0.004248
1258	0.0049725
1270	0.004275
1282	0.003294
1294	0.0027405
1306	0.002106
1318	0.001485
1330	0.0011475
1342	0.0015255
1354	0.001854
1366	0.001368
1378	0.000765
1390	0.0004635
1402	0.000414
1414	0.0006255
1426	0.0012555
1438	0.0030375
1450	0.0039375
1462	0.004149
1474	0.002115
1486	0.000765
1498	0.000432
1510	0.0003735
1522	0.0002565
1534	0.0001845
1546	0.0001845
1558	0.0001845
1570	0.0001035
1582	5.4e-05
1594	6.3e-05
1606	4.95e-05
1618	4.95e-05
1630	5.85e-05
1642	8.1e-05
1654	0.0001125
1666	9e-05
1678	9e-05
1690	6.3e-05
1702	0.0001305
1714	0.0001215
1726	5.85e-05
1738	8.1e-05
1750	7.65e-05
1762	4.95e-05
1774	9.45e-05
1786	9e-05
1798	7.65e-05
1810	8.1e-05
1822	6.3e-05
1834	8.1e-05
1846	9e-05
1858	8.1e-05
1870	7.2e-05
1882	4.5e-05
1894	7.2e-05
1906	4.5e-05
1918	7.2e-05
1930	7.65e-05
1942	7.65e-05
1954	5.4e-05
1966	5.85e-05
1978	5.85e-05
1990	8.1e-05
2002	0.0001035
2014	0.0001035
2026	0.000108
2038	0.000135
2050	0.0001215
2062	9.9e-05
2074	9e-05
2086	9e-05
2098	9.9e-05
2110	9e-05
2122	9.45e-05
2134	9e-05
2146	8.1e-05
2158	9.9e-05
2170	0.000108
2182	0.0001215
2194	9.9e-05
2206	9.9e-05
2218	0.0001035
2230	9.45e-05
2242	9e-05
2254	9.45e-05
2266	0.000117
2278	0.000108
2290	9.45e-05
2302	9e-05
2314	8.55e-05
2326	0.0001125
2338	0.000108
2350	0.0001125
2362	0.0001395
2374	9e-05
2386	9.45e-05
2398	7.2e-05
2410	7.2e-05
2422	8.1e-05
2434	8.1e-05
2446	5.85e-05
2458	5.85e-05
2470	7.2e-05
2482	9e-05
2494	0.0001035
2506	9.9e-05
2518	0.000108
2530	0.0001395
2542	0.000144
2554	0.0001485
2566	0.0001395
2578	0.0001485
2590	0.000207
2602	0.0002115
2614	0.0002205
2626	0.000306
2638	0.0003465
2650	0.000414
2662	0.0004905
2674	0.0005175
2686	0.000558
2698	0.0005625
2710	0.000495
2722	0.000468
2734	0.000423
2746	0.000486
2758	0.0005625
2770	0.000621
2782	0.000738
2794	0.0009585
2806	0.001251
2818	0.001728
2830	0.0025785
2842	0.0046035
2854	0.01071
2866	0.0172755
2878	0.01035
2890	0.0083025
2902	0.010899
2914	0.017442
2926	0.034488
2938	0.0438075
2950	0.024075
2962	0.0114705
2974	0.008388
2986	0.0043695
2998	0.0029295
3010	0.00351
3022	0.0023355
3034	0.001224
3046	0.0008235
3058	0.0006435
3070	0.000522
3082	0.0004185
3094	0.0003465
3106	0.0003015
3118	0.0003105
3130	0.000279
3142	0.0002475
3154	0.0002565
3166	0.0002475
3178	0.000189
3190	0.000207
3202	0.0001845
3214	0.000144
3226	0.0001575
3238	0.000117
3250	9.9e-05
3262	0.0001395
3274	0.0001125
3286	0.0001485
3298	7.2e-05
3310	0.0001035
3322	8.55e-05
3334	8.55e-05
3346	6.3e-05
3358	7.65e-05
3370	3.6e-05
3382	5.4e-05
3394	6.75e-05
3406	4.95e-05
3418	6.3e-05
3430	9e-06
3442	1.35e-05
3454	7.65e-05
3466	6.75e-05
3478	4.5e-05
3490	0
3502	3.6e-05
3514	2.7e-05
3526	2.25e-05
3538	0
3550	6.75e-05
3562	7.2e-05
3574	4.5e-06
3586	9.45e-05
3598	5.85e-05
3610	9.45e-05
3622	0.000108
3634	0.0001215
3646	0.000135
3658	5.4e-05
3670	6.3e-05
3682	9.9e-05
3694	5.85e-05
3706	8.1e-05
3718	6.3e-05
3730	0.000108
3742	0.0001305
3754	0.000108
3766	6.75e-05
3778	3.15e-05
3790	2.25e-05
3802	3.15e-05
3814	8.55e-05
3826	3.6e-05
3838	9e-05
