Infrared Spectrum: ISOPROPOXYACETIC ACID
Formula: C5 H10 O3
CAS: 33445-07-7
State: LIQUID
Class: COBLENTZ
Instrument: Not specified, most likely a prism, grating, or hybrid spectrometer.
Sampling: TRANSMISSION
Path length: 0.0015 CM
Resolution: 4
Origin: WYANDOTTE CHEMICALS CORP., WYANDOTTE, MICHIGAN, USA
MICROMETERS	TRANSMITTANCE
2.012	0.973
2.0491	0.973
2.08621	0.975
2.12331	0.984
2.16042	0.979
2.19752	0.972
2.23463	0.967
2.27173	0.982
2.30884	0.986
2.34594	0.97
2.38304	0.967
2.42015	0.978
2.45725	0.976
2.49436	0.996
2.53146	0.998
2.56857	0.99
2.60567	0.99
2.64278	0.995
2.67988	0.968
2.71698	0.878
2.75409	0.795
2.79119	0.726
2.8283	0.667
2.8654	0.631
2.90251	0.602
2.93961	0.585
2.97672	0.546
3.01382	0.492
3.05093	0.417
3.08803	0.361
3.12513	0.329
3.16224	0.305
3.19934	0.296
3.23645	0.299
3.27355	0.298
3.31066	0.288
3.34776	0.133
3.38487	0.24
3.42197	0.256
3.45907	0.301
3.49618	0.397
3.53328	0.478
3.57039	0.546
3.60749	0.565
3.6446	0.58
3.6817	0.607
3.71881	0.61
3.75591	0.6
3.79301	0.611
3.83012	0.638
3.86722	0.647
3.90433	0.636
3.94143	0.642
3.97854	0.672
4.01564	0.714
4.05275	0.74
4.08985	0.762
4.12695	0.791
4.16406	0.809
4.20116	0.829
4.23827	0.84
4.27537	0.855
4.31248	0.878
4.34958	0.889
4.38669	0.892
4.42379	0.891
4.46089	0.905
4.498	0.9
4.5351	0.909
4.57221	0.911
4.60931	0.919
4.64642	0.928
4.68352	0.93
4.72063	0.927
4.75773	0.922
4.79484	0.92
4.83194	0.922
4.86904	0.919
4.90615	0.909
4.94325	0.911
4.98036	0.906
5.01746	0.909
5.05457	0.908
5.09167	0.906
5.12878	0.908
5.16588	0.902
5.20298	0.905
5.24009	0.903
5.27719	0.895
5.3143	0.897
5.3514	0.889
5.38851	0.878
5.42561	0.868
5.46272	0.855
5.49982	0.821
5.53692	0.762
5.57403	0.67
5.61113	0.451
5.64824	0.257
5.68534	0.1
5.72245	0.083
5.75955	0.066
5.79666	0.102
5.83376	0.211
5.87086	0.322
5.90797	0.434
5.94507	0.523
5.98218	0.588
6.01928	0.631
6.05639	0.658
6.09349	0.686
6.1306	0.711
6.1677	0.746
6.2048	0.773
6.24191	0.799
6.27901	0.816
6.31612	0.824
6.35322	0.827
6.39033	0.841
6.42743	0.838
6.46454	0.829
6.50164	0.849
6.53874	0.841
6.57585	0.822
6.61295	0.829
6.65006	0.813
6.68716	0.765
6.72427	0.7
6.76137	0.501
6.79848	0.496
6.83558	0.486
6.87269	0.45
6.90979	0.423
6.94689	0.391
6.984	0.423
7.0211	0.478
7.05821	0.51
7.09531	0.515
7.13242	0.479
7.16952	0.357
7.20663	0.291
7.24373	0.279
7.28083	0.316
7.31794	0.431
7.35504	0.456
7.39215	0.468
7.42925	0.475
7.46636	0.454
7.50346	0.484
7.54057	0.518
7.57767	0.549
7.61477	0.572
7.65188	0.566
7.68898	0.54
7.72609	0.513
7.76319	0.473
7.8003	0.423
7.8374	0.392
7.87451	0.386
7.91161	0.349
7.94871	0.302
7.98582	0.263
8.02292	0.262
8.06003	0.259
8.09713	0.253
8.13424	0.248
8.17134	0.24
8.20845	0.242
8.24555	0.248
8.28265	0.26
8.31976	0.277
8.35686	0.302
8.39397	0.293
8.43107	0.226
8.46818	0.186
8.50528	0.226
8.54239	0.313
8.57949	0.349
8.6166	0.327
8.6537	0.268
8.6908	0.173
8.72791	0.113
8.76501	0.088
8.80212	0.068
8.83922	0.068
8.87633	0.068
8.91343	0.077
8.95054	0.076
8.98764	0.086
9.02474	0.121
9.06185	0.192
9.09895	0.276
9.13606	0.366
9.17316	0.442
9.21027	0.503
9.24737	0.543
9.28448	0.591
9.32158	0.621
9.35868	0.652
9.39579	0.681
9.43289	0.715
9.47	0.725
9.5071	0.74
9.54421	0.74
9.58131	0.742
9.61842	0.742
9.65552	0.74
9.69262	0.736
9.72973	0.726
9.76683	0.715
9.80394	0.709
9.84104	0.729
9.87815	0.748
9.91525	0.77
9.95236	0.776
9.98946	0.79
10.0266	0.795
10.0637	0.79
10.1008	0.79
10.1379	0.79
10.175	0.796
10.2121	0.791
10.2492	0.788
10.2863	0.785
10.3234	0.771
10.3605	0.765
10.3976	0.76
10.4347	0.751
10.4718	0.736
10.5089	0.714
10.546	0.686
10.5831	0.653
10.6202	0.6
10.6573	0.565
10.6944	0.566
10.7315	0.552
10.7687	0.529
10.8058	0.524
10.8429	0.527
10.88	0.512
10.9171	0.484
10.9542	0.439
10.9913	0.409
11.0284	0.427
11.0655	0.504
11.1026	0.552
11.1397	0.59
11.1768	0.604
11.2139	0.611
11.251	0.6
11.2881	0.613
11.3252	0.614
11.3623	0.616
11.3994	0.621
11.4365	0.614
11.4736	0.624
11.5107	0.635
11.5478	0.639
11.585	0.649
11.6221	0.652
11.6592	0.65
11.6963	0.658
11.7334	0.656
11.7705	0.652
11.8076	0.65
11.8447	0.649
11.8818	0.642
11.9189	0.622
11.956	0.588
11.9931	0.569
12.0302	0.521
12.0673	0.531
12.1044	0.568
12.1415	0.588
12.1786	0.602
12.2157	0.608
12.2528	0.611
12.2899	0.607
12.327	0.602
12.3641	0.6
12.4013	0.572
12.4384	0.548
12.4755	0.524
12.5126	0.52
12.5497	0.529
12.5868	0.549
12.6239	0.574
12.661	0.597
12.6981	0.619
12.7352	0.639
12.7723	0.655
12.8094	0.652
12.8465	0.659
12.8836	0.675
12.9207	0.673
12.9578	0.677
12.9949	0.677
13.032	0.686
13.0691	0.694
13.1062	0.692
13.1433	0.692
13.1804	0.698
13.2175	0.701
13.2547	0.703
13.2918	0.712
13.3289	0.717
13.366	0.718
13.4031	0.72
13.4402	0.718
13.4773	0.732
13.5144	0.725
13.5515	0.723
13.5886	0.725
13.6257	0.723
13.6628	0.717
13.6999	0.729
13.737	0.729
13.7741	0.723
13.8112	0.728
13.8483	0.729
13.8854	0.723
13.9225	0.722
13.9596	0.728
13.9967	0.723
14.0338	0.725
14.071	0.723
14.1081	0.715
14.1452	0.72
14.1823	0.712
14.2194	0.703
14.2565	0.698
14.2936	0.689
14.3307	0.678
14.3678	0.673
14.4049	0.656
14.442	0.655
14.4791	0.649
14.5162	0.638
14.5533	0.622
14.5904	0.628
14.6275	0.613
14.6646	0.607
14.7017	0.6
14.7388	0.594
14.7759	0.596
14.813	0.593
14.8501	0.585
14.8873	0.594
14.9244	0.593
14.9615	0.594
14.9986	0.59
15.0357	0.597
15.0728	0.605
15.1099	0.61
15.147	0.614
15.1841	0.616
15.2212	0.624
15.2583	0.622
15.2954	0.616
15.3325	0.628
15.3696	0.63
15.4067	0.627
15.4438	0.631
15.4809	0.631
15.518	0.635
15.5551	0.645
15.5922	0.642
15.6293	0.642
15.6664	0.641
15.7035	0.642
15.7407	0.633
15.7778	0.627
15.8149	0.631
15.852	0.63
15.8891	0.627
15.9262	0.628
15.9633	0.622
