Infrared Spectrum: Alpha-Cyclopropyl-Alpha,p-dimethylbenzyl alcohol
Formula: C12 H16 O
CAS: 33446-27-4
State: SOLUTION (10% CCl4 FOR 3800-1340, 10% CS2 FOR 1340-460 CM^-^1) VS SOLVENT
Boiling point: 132 C AT 12 mmHg
Class: COBLENTZ II
Instrument: DOW KBr FOREPRISM-GRATING
Instrument parameters: BLAZED AT 3.5, 12.0, 20.0 MICRON AND CHANGED AT 5.0, 7.5, 14.9 MICRON
Sampling: TRANSMISSION
Path length: 0.011 CM, 0.011 CM
Resolution: 2
Origin: DOW CHEMICAL COMPANY
1/CM	TRANSMITTANCE
3800	0.8482
3791	0.8475
3782	0.8487
3773	0.8494
3764	0.8502
3755	0.8508
3746	0.851
3737	0.8505
3728	0.8497
3719	0.8482
3710	0.8465
3701	0.8446
3692	0.8417
3683	0.8333
3674	0.8225
3665	0.8224
3656	0.8225
3647	0.8207
3638	0.7978
3629	0.7418
3620	0.611
3611	0.5199
3602	0.5259
3593	0.6017
3584	0.6758
3575	0.7051
3566	0.7055
3557	0.7028
3548	0.6992
3539	0.6941
3530	0.6821
3521	0.6548
3512	0.6332
3503	0.616
3494	0.5985
3485	0.586
3476	0.5812
3467	0.5812
3458	0.5891
3449	0.6002
3440	0.6102
3431	0.6221
3422	0.6349
3413	0.6455
3404	0.6561
3395	0.6671
3386	0.6784
3377	0.6892
3368	0.6999
3359	0.7103
3350	0.7208
3341	0.7319
3332	0.7438
3323	0.7543
3314	0.7637
3305	0.7714
3296	0.7782
3287	0.7848
3278	0.7893
3269	0.7936
3260	0.7978
3251	0.8021
3242	0.8062
3233	0.8104
3224	0.8143
3215	0.8174
3206	0.8193
3197	0.8206
3188	0.8218
3179	0.823
3170	0.8244
3161	0.8246
3152	0.8233
3143	0.8172
3134	0.8133
3125	0.8114
3116	0.8039
3107	0.7391
3098	0.6064
3089	0.5189
3080	0.5956
3071	0.6426
3062	0.6236
3053	0.6364
3044	0.6295
3035	0.4932
3026	0.394
3017	0.2924
3008	0.3061
2999	0.3688
2990	0.3587
2981	0.2934
2972	0.3682
2963	0.506
2954	0.5505
2945	0.5487
2936	0.4867
2927	0.4229
2918	0.5136
2909	0.6167
2900	0.6517
2891	0.658
2882	0.6531
2873	0.6016
2864	0.626
2855	0.7185
2846	0.7704
2837	0.7978
2828	0.8097
2819	0.8175
2810	0.8258
2801	0.8318
2792	0.838
2783	0.8414
2774	0.8447
2765	0.8465
2756	0.8462
2747	0.8411
2738	0.8247
2729	0.832
2720	0.8399
2711	0.8443
2702	0.8468
2693	0.8483
2684	0.8495
2675	0.8505
2666	0.8515
2657	0.8524
2648	0.8534
2639	0.8541
2630	0.8544
2621	0.8546
2612	0.8539
2603	0.8518
2594	0.8464
2585	0.8467
2576	0.8503
2567	0.8533
2558	0.8552
2549	0.8558
2540	0.8552
2531	0.8549
2522	0.8547
2513	0.8551
2504	0.8557
2495	0.8556
2486	0.8549
2477	0.8478
2468	0.8489
2459	0.8514
2450	0.8552
2441	0.8578
2432	0.8592
2423	0.8593
2414	0.8591
2405	0.8595
2396	0.8603
2387	0.8612
2378	0.8624
2369	0.8631
2360	0.8636
2351	0.8639
2342	0.8645
2333	0.8656
2324	0.8668
2315	0.8678
2306	0.871
2297	0.8756
2288	0.8767
2279	0.8771
2270	0.8775
2261	0.8784
2252	0.8791
2243	0.8798
2234	0.8802
2225	0.8804
2216	0.8809
2207	0.8815
2198	0.8827
2189	0.8846
2180	0.8906
2171	0.894
2162	0.8898
2153	0.8878
2144	0.8875
2135	0.8878
2126	0.8883
2117	0.8882
2108	0.884
2099	0.8795
2090	0.8821
2081	0.8784
2072	0.8671
2063	0.8696
2054	0.8771
2045	0.8833
2036	0.8864
2027	0.8878
2018	0.8881
2009	0.8878
2000	0.8871
1991	0.8862
1982	0.8844
1973	0.8794
1964	0.8799
1955	0.8809
1946	0.8753
1937	0.8695
1928	0.8654
1919	0.8599
1910	0.8227
1901	0.8371
1892	0.857
1883	0.8644
1874	0.872
1865	0.8765
1856	0.8765
1847	0.8791
1838	0.8801
1829	0.8768
1820	0.872
1811	0.8656
1802	0.8494
1793	0.855
1784	0.8727
1775	0.8773
1766	0.8699
1757	0.869
1748	0.8727
1739	0.8743
1730	0.8741
1721	0.8723
1712	0.8714
1703	0.8701
1694	0.8653
1685	0.8578
1676	0.8318
1667	0.8275
1658	0.8273
1649	0.8361
1640	0.8473
1631	0.8451
1622	0.8133
1613	0.7987
1604	0.8125
1595	0.8299
1586	0.854
1577	0.8671
1568	0.8787
1559	0.886
1550	0.8882
1541	0.8751
1532	0.841
1523	0.6986
1514	0.3853
1505	0.6871
1496	0.7698
1487	0.7764
1478	0.7554
1469	0.6765
1460	0.57
1451	0.5032
1442	0.5905
1433	0.6575
1424	0.6308
1415	0.6539
1406	0.6238
1397	0.6551
1388	0.6604
1379	0.5238
1370	0.4353
1361	0.5946
1352	0.6788
1343	0.6765
1334	0.6528
1325	0.5894
1316	0.5244
1307	0.513
1298	0.5998
1289	0.6455
1280	0.6639
1271	0.7226
1262	0.753
1253	0.7505
1244	0.7039
1235	0.6511
1226	0.6661
1217	0.6844
1208	0.6293
1199	0.6398
1190	0.5582
1181	0.4351
1172	0.3828
1163	0.4859
1154	0.6228
1145	0.6718
1136	0.6771
1127	0.5732
1118	0.5584
1109	0.4842
1100	0.4059
1091	0.4329
1082	0.502
1073	0.5256
1064	0.5135
1055	0.5671
1046	0.3759
1037	0.359
1028	0.5454
1019	0.1682
1010	0.7026
1001	0.7691
992	0.8184
983	0.8307
974	0.832
965	0.8148
956	0.7464
947	0.5705
938	0.5324
929	0.551
920	0.5291
911	0.6675
902	0.4637
893	0.4542
884	0.765
875	0.8282
866	0.8378
857	0.8321
848	0.7562
839	0.5631
830	0.5326
821	0.179
812	0.2158
803	0.5827
794	0.7528
785	0.8007
776	0.7437
767	0.828
758	0.8646
749	0.8751
740	0.876
731	0.8625
722	0.6611
713	0.8504
704	0.8661
695	0.8724
686	0.8692
677	0.8662
668	0.8301
659	0.804
650	0.8389
641	0.8397
632	0.8457
623	0.8496
614	0.8417
605	0.8378
596	0.8277
587	0.8039
578	0.6192
569	0.4643
560	0.6096
551	0.7081
542	0.7006
533	0.7378
524	0.7704
515	0.7619
506	0.7532
497	0.7806
488	0.8003
479	0.8149
470	0.8263
