Infrared Spectrum: Pyrimidine, 4,6-diamino-2-methyl-5-nitro-
Formula: C5 H7 N5 O2
CAS: 3346-21-2
State: SOLID (0.6 mg / 650 mg KBr DISC)
Class: COBLENTZ III
Instrument: PERKIN-ELMER 221 (GRATING)
Instrument parameters: FILTER AT 980 CM^-^1. GRATING 4000-1428 CM^-^1, NaCl PRISM 1428-650 CM^-^1
Resolution: 2
Origin: SOUTHERN RESEARCH INSTITUTE
1/CM	TRANSMITTANCE
610.2	0.5673
618.237	0.5824
626.274	0.6337
634.311	0.7088
642.348	0.7433
650.386	0.7743
658.423	0.7852
666.46	0.843
674.497	0.8621
682.534	0.863
690.571	0.8622
698.608	0.8636
706.645	0.8626
714.683	0.8617
722.72	0.8561
730.757	0.8448
738.794	0.8429
746.831	0.8325
754.868	0.8178
762.905	0.7985
770.942	0.7668
778.979	0.706
787.017	0.5334
795.054	0.3826
803.091	0.7241
811.128	0.7326
819.165	0.7369
827.202	0.7397
835.239	0.6731
843.276	0.6212
851.313	0.834
859.351	0.8342
867.388	0.826
875.425	0.8175
883.462	0.8078
891.499	0.7944
899.536	0.7778
907.573	0.7572
915.61	0.7496
923.648	0.7621
931.685	0.7663
939.722	0.7626
947.759	0.7572
955.796	0.7422
963.833	0.7197
971.87	0.682
979.907	0.7062
987.944	0.6276
995.982	0.5711
1004.02	0.4526
1012.06	0.6321
1020.09	0.7199
1028.13	0.6937
1036.17	0.6961
1044.2	0.7004
1052.24	0.6976
1060.28	0.6844
1068.32	0.6464
1076.35	0.5985
1084.39	0.4885
1092.43	0.5107
1100.46	0.651
1108.5	0.6696
1116.54	0.6531
1124.58	0.6423
1132.61	0.6189
1140.65	0.5976
1148.69	0.5869
1156.72	0.5591
1164.76	0.5437
1172.8	0.5355
1180.84	0.4244
1188.87	0.3793
1196.91	0.483
1204.95	0.5563
1212.98	0.5537
1221.02	0.542
1229.06	0.5181
1237.1	0.4878
1245.13	0.4477
1253.17	0.3696
1261.21	0.2893
1269.24	0.209
1277.28	0.1412
1285.32	0.1251
1293.35	0.2061
1301.39	0.334
1309.43	0.4526
1317.47	0.5503
1325.5	0.5772
1333.54	0.5804
1341.58	0.568
1349.61	0.5132
1357.65	0.4918
1365.69	0.5071
1373.73	0.4679
1381.76	0.4127
1389.8	0.3663
1397.84	0.4051
1405.87	0.504
1413.91	0.5432
1421.95	0.5954
1429.99	0.5962
1438.02	0.5935
1446.06	0.5801
1454.1	0.5364
1462.13	0.4982
1470.17	0.47
1478.21	0.4442
1486.25	0.3912
1494.28	0.3602
1502.32	0.3237
1510.36	0.2925
1518.39	0.2431
1526.43	0.1792
1534.47	0.1266
1542.51	0.1432
1550.54	0.1971
1558.58	0.2771
1566.62	0.318
1574.65	0.3468
1582.69	0.3653
1590.73	0.3628
1598.77	0.3351
1606.8	0.2817
1614.84	0.2022
1622.88	0.1219
1630.91	0.1361
1638.95	0.1828
1646.99	0.2723
1655.03	0.3745
1663.06	0.4248
1671.1	0.4316
1679.14	0.4781
1687.17	0.5641
1695.21	0.6177
1703.25	0.6614
1711.28	0.6965
1719.32	0.7374
1727.36	0.7757
1735.4	0.8067
1743.43	0.8378
1751.47	0.8656
1759.51	0.891
1767.54	0.9051
1775.58	0.9165
1783.62	0.9258
1791.66	0.9333
1799.69	0.9372
1807.73	0.9377
1815.77	0.937
1823.8	0.9403
1831.84	0.944
1839.88	0.9457
1847.92	0.9455
1855.95	0.9441
1863.99	0.9409
1872.03	0.9391
1880.06	0.9347
1888.1	0.9286
1896.14	0.9219
1904.18	0.916
1912.21	0.9106
1920.25	0.9054
1928.29	0.9007
1936.32	0.8966
1944.36	0.8924
1952.4	0.8875
1960.44	0.8827
1968.47	0.8782
1976.51	0.8737
1984.55	0.8692
1992.58	0.8654
2000.62	0.8616
2008.66	0.8577
2016.7	0.8538
2024.73	0.85
2032.77	0.8468
2040.81	0.8437
2048.84	0.8406
2056.88	0.8371
2064.92	0.8333
2072.96	0.8294
2080.99	0.8257
2089.03	0.8223
2097.07	0.8189
2105.1	0.8154
2113.14	0.8122
2121.18	0.809
2129.21	0.806
2137.25	0.8035
2145.29	0.8009
2153.33	0.7981
2161.36	0.7946
2169.4	0.7902
2177.44	0.7857
2185.47	0.7812
2193.51	0.7795
2201.55	0.7774
2209.59	0.7738
2217.62	0.7672
2225.66	0.7586
2233.7	0.7511
2241.73	0.7482
2249.77	0.7482
2257.81	0.7483
2265.85	0.7479
2273.88	0.7475
2281.92	0.7465
2289.96	0.7452
2297.99	0.7436
2306.03	0.741
2314.07	0.7345
2322.11	0.7278
2330.14	0.7228
2338.18	0.7198
2346.22	0.7126
2354.25	0.7021
2362.29	0.7017
2370.33	0.7014
2378.37	0.701
2386.4	0.7007
2394.44	0.7003
2402.48	0.6998
2410.51	0.6983
2418.55	0.6961
2426.59	0.6923
2434.63	0.6896
2442.66	0.6847
2450.7	0.6793
2458.74	0.6737
2466.77	0.6695
2474.81	0.6659
2482.85	0.6629
2490.89	0.6603
2498.92	0.658
2506.96	0.6553
2515	0.6518
2523.03	0.6468
2531.07	0.6404
2539.11	0.6337
2547.14	0.6282
2555.18	0.6248
2563.22	0.6217
2571.26	0.6113
2579.29	0.6014
2587.33	0.5959
2595.37	0.5921
2603.4	0.5895
2611.44	0.5881
2619.48	0.5865
2627.52	0.5857
2635.55	0.5873
2643.59	0.5885
2651.63	0.5843
2659.66	0.5758
2667.7	0.5642
2675.74	0.55
2683.78	0.5389
2691.81	0.5288
2699.85	0.5234
2707.89	0.5215
2715.92	0.5198
2723.96	0.5164
2732	0.513
2740.04	0.5089
2748.07	0.5034
2756.11	0.4953
2764.15	0.4726
2772.18	0.4615
2780.22	0.455
2788.26	0.4487
2796.3	0.4451
2804.33	0.4427
2812.37	0.4406
2820.41	0.4398
2828.44	0.4383
2836.48	0.4355
2844.52	0.4301
2852.56	0.4224
2860.59	0.414
2868.63	0.4049
2876.67	0.3961
2884.7	0.3885
2892.74	0.3819
2900.78	0.3754
2908.82	0.3696
2916.85	0.3643
2924.89	0.3604
2932.93	0.354
2940.96	0.3444
2949	0.3382
2957.04	0.3335
2965.07	0.3294
2973.11	0.3281
2981.15	0.3288
2989.19	0.3291
2997.22	0.3311
3005.26	0.3349
3013.3	0.3421
3021.33	0.3483
3029.37	0.3494
3037.41	0.3498
3045.45	0.3507
3053.48	0.3508
3061.52	0.3515
3069.56	0.3532
3077.59	0.355
3085.63	0.3574
3093.67	0.3637
3101.71	0.3775
3109.74	0.3895
3117.78	0.3976
3125.82	0.4027
3133.85	0.4097
3141.89	0.4195
3149.93	0.4406
3157.97	0.4659
3166	0.4876
3174.04	0.5132
3182.08	0.532
3190.11	0.5502
3198.15	0.5661
3206.19	0.5814
3214.23	0.5951
3222.26	0.5996
3230.3	0.5952
3238.34	0.5764
3246.37	0.5514
3254.41	0.5331
3262.45	0.5335
3270.49	0.5386
3278.52	0.5506
3286.56	0.5745
3294.6	0.6075
3302.63	0.6454
3310.67	0.6554
3318.71	0.6589
3326.75	0.6564
3334.78	0.6429
3342.82	0.6335
3350.86	0.611
3358.89	0.582
3366.93	0.5474
3374.97	0.4993
3383.01	0.4461
3391.04	0.4191
3399.08	0.3625
3407.12	0.2796
3415.15	0.2533
3423.19	0.2684
3431.23	0.3699
3439.26	0.5255
3447.3	0.6787
3455.34	0.7183
3463.38	0.7251
3471.41	0.7273
3479.45	0.7288
3487.49	0.7298
3495.52	0.7304
3503.56	0.7309
3511.6	0.7326
3519.64	0.7352
3527.67	0.7356
3535.71	0.7369
3543.75	0.7378
3551.78	0.7386
3559.82	0.7396
3567.86	0.7407
3575.9	0.7415
3583.93	0.742
3591.97	0.7423
3600.01	0.742
3608.04	0.7416
3616.08	0.7414
3624.12	0.7422
3632.16	0.7427
3640.19	0.7404
3648.23	0.7376
3656.27	0.7353
3664.3	0.7362
3672.34	0.7338
3680.38	0.7264
3688.42	0.7233
3696.45	0.7253
3704.49	0.7265
3712.53	0.726
3720.56	0.7252
3728.6	0.7227
3736.64	0.7186
3744.68	0.7154
3752.71	0.7156
3760.75	0.7166
3768.79	0.7169
3776.82	0.7162
3784.86	0.7155
3792.9	0.7155
3800.94	0.7117
3808.97	0.706
