Infrared Spectrum: N-ETHYL-2,2,4-TRIMETHYL-3-OXO-VALERAMIDE
Formula: C10 H19 N O2
CAS: 33471-69-1
State: SOLID (PELLET)
Melting point: 50-51 C
Class: COBLENTZ
Instrument: Not specified, most likely a prism, grating, or hybrid spectrometer.
Sampling: TRANSMISSION
Resolution: 4
Origin: TENNESSEE EASTMAN COMPANY, RESEARCH LABORATORIES
MICROMETERS	TRANSMITTANCE
2.013	0.815
2.0528	0.813
2.09259	0.81
2.13239	0.81
2.17219	0.813
2.21199	0.813
2.25178	0.811
2.29158	0.813
2.33138	0.816
2.37117	0.818
2.41097	0.82
2.45077	0.823
2.49056	0.825
2.53036	0.83
2.57016	0.828
2.60996	0.83
2.64975	0.831
2.68955	0.831
2.72935	0.813
2.76914	0.758
2.80894	0.712
2.84874	0.675
2.88854	0.625
2.92833	0.564
2.96813	0.171
3.00793	0.455
3.04772	0.688
3.08752	0.75
3.12732	0.801
3.16711	0.808
3.20691	0.828
3.24671	0.831
3.28651	0.79
3.3263	0.525
3.3661	0.612
3.4059	0.635
3.44569	0.67
3.48549	0.843
3.52529	0.85
3.56509	0.846
3.60488	0.873
3.64468	0.878
3.68448	0.878
3.72427	0.881
3.76407	0.88
3.80387	0.88
3.84366	0.886
3.88346	0.886
3.92326	0.886
3.96306	0.89
4.00285	0.891
4.04265	0.891
4.08245	0.893
4.12224	0.893
4.16204	0.893
4.20184	0.895
4.24164	0.9
4.28143	0.9
4.32123	0.895
4.36103	0.895
4.40082	0.896
4.44062	0.898
4.48042	0.898
4.52021	0.898
4.56001	0.898
4.59981	0.898
4.63961	0.898
4.6794	0.898
4.7192	0.898
4.759	0.896
4.79879	0.896
4.83859	0.895
4.87839	0.891
4.91819	0.891
4.95798	0.891
4.99778	0.893
5.03758	0.891
5.07737	0.888
5.11717	0.885
5.15697	0.883
5.19676	0.881
5.23656	0.883
5.27636	0.88
5.31616	0.878
5.35595	0.875
5.39575	0.873
5.43555	0.865
5.47534	0.861
5.51514	0.858
5.55494	0.848
5.59474	0.833
5.63453	0.82
5.67433	0.798
5.71413	0.743
5.75392	0.605
5.79372	0.322
5.83352	0.356
5.87331	0.7
5.91311	0.753
5.95291	0.683
5.99271	0.632
6.0325	0.557
6.0723	0.361
6.1121	0.159
6.15189	0.109
6.19169	0.444
6.23149	0.544
6.27129	0.667
6.31108	0.722
6.35088	0.71
6.39068	0.682
6.43047	0.5
6.47027	0.143
6.51007	0.114
6.54986	0.427
6.58966	0.6
6.62946	0.7
6.66926	0.723
6.70905	0.67
6.74885	0.489
6.78865	0.329
6.82844	0.485
6.86824	0.522
6.90804	0.43
6.94784	0.612
6.98763	0.702
7.02743	0.753
7.06723	0.77
7.10702	0.765
7.14682	0.628
7.18662	0.569
7.22641	0.507
7.26621	0.599
7.30601	0.64
7.34581	0.545
7.3856	0.587
7.4254	0.542
7.4652	0.622
7.50499	0.682
7.54479	0.703
7.58459	0.697
7.62439	0.658
7.66418	0.504
7.70398	0.517
7.74378	0.672
7.78357	0.68
7.82337	0.537
7.86317	0.6
7.90296	0.703
7.94276	0.765
7.98256	0.797
8.02236	0.808
8.06215	0.816
8.10195	0.82
8.14175	0.798
8.18154	0.762
8.22134	0.767
8.26114	0.785
8.30094	0.785
8.34073	0.745
8.38053	0.627
8.42033	0.552
8.46012	0.575
8.49992	0.645
8.53972	0.76
8.57951	0.808
8.61931	0.815
8.65911	0.755
8.69891	0.579
8.7387	0.76
8.7785	0.826
8.8183	0.85
8.85809	0.855
8.89789	0.856
8.93769	0.86
8.97749	0.861
9.01728	0.858
9.05708	0.83
9.09688	0.748
9.13667	0.61
9.17647	0.773
9.21627	0.841
9.25606	0.858
9.29586	0.865
9.33566	0.865
9.37546	0.863
9.41525	0.85
9.45505	0.806
9.49485	0.692
9.53464	0.532
9.57444	0.294
9.61424	0.364
9.65404	0.617
9.69383	0.733
9.73363	0.813
9.77343	0.84
9.81322	0.856
9.85302	0.861
9.89282	0.861
9.93261	0.785
9.97241	0.519
10.0122	0.655
10.052	0.803
10.0918	0.86
10.1316	0.878
10.1714	0.891
10.2112	0.896
10.251	0.901
10.2908	0.903
10.3306	0.903
10.3704	0.903
10.4102	0.903
10.45	0.9
10.4898	0.86
10.5296	0.843
10.5694	0.851
10.6092	0.855
10.649	0.793
10.6888	0.74
10.7286	0.792
10.7684	0.846
10.8081	0.89
10.8479	0.913
10.8877	0.931
10.9275	0.935
10.9673	0.936
11.0071	0.933
11.0469	0.898
11.0867	0.891
11.1265	0.9
11.1663	0.9
11.2061	0.861
11.2459	0.755
11.2857	0.673
11.3255	0.76
11.3653	0.863
11.4051	0.905
11.4449	0.926
11.4847	0.93
11.5245	0.925
11.5643	0.821
11.6041	0.801
11.6439	0.876
11.6837	0.915
11.7235	0.94
11.7633	0.95
11.8031	0.953
11.8429	0.956
11.8827	0.956
11.9225	0.956
11.9623	0.958
12.0021	0.958
12.0419	0.958
12.0817	0.958
12.1215	0.96
12.1612	0.96
12.201	0.958
12.2408	0.958
12.2806	0.96
12.3204	0.96
12.3602	0.96
12.4	0.958
12.4398	0.958
12.4796	0.958
12.5194	0.96
12.5592	0.956
12.599	0.951
12.6388	0.93
12.6786	0.898
12.7184	0.878
12.7582	0.891
12.798	0.921
12.8378	0.936
12.8776	0.941
12.9174	0.941
12.9572	0.943
12.997	0.945
13.0368	0.945
13.0766	0.943
13.1164	0.943
13.1562	0.941
13.196	0.938
13.2358	0.928
13.2756	0.916
13.3154	0.915
13.3552	0.915
13.395	0.918
13.4348	0.918
13.4746	0.916
13.5143	0.913
13.5541	0.905
13.5939	0.886
13.6337	0.881
13.6735	0.88
13.7133	0.88
13.7531	0.883
13.7929	0.881
13.8327	0.883
13.8725	0.883
13.9123	0.883
13.9521	0.885
13.9919	0.886
14.0317	0.885
14.0715	0.883
14.1113	0.878
14.1511	0.876
14.1909	0.868
14.2307	0.858
14.2705	0.853
14.3103	0.845
14.3501	0.835
14.3899	0.828
14.4297	0.815
14.4695	0.803
14.5093	0.785
14.5491	0.772
14.5889	0.747
14.6287	0.717
14.6685	0.69
14.7083	0.653
14.7481	0.617
14.7879	0.595
14.8277	0.577
14.8674	0.57
14.9072	0.57
14.947	0.57
14.9868	0.59
15.0266	0.637
15.0664	0.667
15.1062	0.668
15.146	0.67
15.1858	0.668
15.2256	0.67
15.2654	0.66
15.3052	0.63
15.345	0.602
15.3848	0.575
15.4246	0.557
15.4644	0.552
15.5042	0.549
15.544	0.549
15.5838	0.549
15.6236	0.552
15.6634	0.559
15.7032	0.564
15.743	0.57
15.7828	0.57
15.8226	0.57
15.8624	0.572
15.9022	0.572
15.942	0.572
15.9818	0.572
