Infrared Spectrum: Benzenetricarboxylic acid, 1,2,4-, triphenyl ester
Formula: C27 H18 O6
CAS: 3348-09-2
State: SOLID (SPLIT MULL), FLUOROLUBE FOR 3800-1330 CM^-^1, NUJOL FOR 1330-450 CM^-^1
Melting point: 151 C
Class: COBLENTZ III
Instrument: DOW KBr FOREPRISM-GRATING
Instrument parameters: BLAZED AT 3.5, 12.0, 20.0 MICRON AND CHANGED AT 5.0, 7.5, 14.9 MICRON
Sampling: TRANSMISSION
Resolution: 2
Origin: DOW CHEMICAL COMPANY
1/CM	TRANSMITTANCE
457	0.8478
466	0.8456
475	0.8405
484	0.8148
493	0.7542
502	0.8162
511	0.856
520	0.8285
529	0.8393
538	0.8831
547	0.8921
556	0.8984
565	0.8965
574	0.9074
583	0.9092
592	0.9151
601	0.9189
610	0.8878
619	0.8908
628	0.9308
637	0.9294
646	0.9225
655	0.915
664	0.8856
673	0.8953
682	0.7278
691	0.6892
700	0.8884
709	0.8705
718	0.6697
727	0.7528
736	0.47
745	0.4105
754	0.8142
763	0.6889
772	0.8603
781	0.8782
790	0.8951
799	0.8889
808	0.8486
817	0.8765
826	0.8015
835	0.8642
844	0.8202
853	0.8028
862	0.8714
871	0.7703
880	0.8795
889	0.8721
898	0.8062
907	0.8554
916	0.6954
925	0.7392
934	0.8688
943	0.8758
952	0.8668
961	0.8658
970	0.865
979	0.8497
988	0.8752
997	0.7988
1006	0.8581
1015	0.8268
1024	0.7998
1033	0.8259
1042	0.6335
1051	0.7667
1060	0.7933
1069	0.7362
1078	0.8068
1087	0.7382
1096	0.5544
1105	0.5067
1114	0.825
1123	0.8309
1132	0.8142
1141	0.7671
1150	0.4721
1159	0.4644
1168	0.7511
1177	0.6469
1186	0.2978
1195	0.103
1204	0.4884
1213	0.3013
1222	0.0435
1231	0.3134
1240	0.4694
1249	0.4179
1258	0.7118
1267	0.6958
1276	0.5459
1285	0.1944
1294	0.3977
1303	0.6215
1312	0.6337
1321	0.7862
1330	0.7651
1339	0.7001
1348	0.7378
1357	0.7746
1366	0.8007
1375	0.8062
1384	0.8049
1393	0.781
1402	0.6901
1411	0.7881
1420	0.8135
1429	0.8208
1438	0.818
1447	0.798
1456	0.7549
1465	0.7768
1474	0.6804
1483	0.3662
1492	0.5441
1501	0.8299
1510	0.8578
1519	0.8675
1528	0.8667
1537	0.8654
1546	0.8615
1555	0.8525
1564	0.8228
1573	0.8033
1582	0.7078
1591	0.6867
1600	0.8393
1609	0.8563
1618	0.8604
1627	0.8589
1636	0.8542
1645	0.8449
1654	0.8311
1663	0.8148
1672	0.8038
1681	0.7896
1690	0.7575
1699	0.7471
1708	0.6925
1717	0.5884
1726	0.4467
1735	0.0875
1744	0.4425
1753	0.3152
1762	0.8061
1771	0.863
1780	0.8795
1789	0.8857
1798	0.8845
1807	0.8789
1816	0.8747
1825	0.8736
1834	0.875
1843	0.8747
1852	0.8692
1861	0.8732
1870	0.8701
1879	0.8651
1888	0.8658
1897	0.8662
1906	0.8644
1915	0.8632
1924	0.8593
1933	0.8548
1942	0.8478
1951	0.8503
1960	0.8492
1969	0.846
1978	0.8524
1987	0.8517
1996	0.85
2005	0.8538
2014	0.8521
2023	0.8507
2032	0.8493
2041	0.8487
2050	0.8481
2059	0.8445
2068	0.8409
2077	0.8378
2086	0.8354
2095	0.8325
2104	0.8302
2113	0.8278
2122	0.8257
2131	0.8238
2140	0.8215
2149	0.8191
2158	0.8165
2167	0.8136
2176	0.8107
2185	0.809
2194	0.8076
2203	0.806
2212	0.8005
2221	0.7951
2230	0.7897
2239	0.785
2248	0.7806
2257	0.7767
2266	0.7734
2275	0.77
2284	0.7669
2293	0.7639
2302	0.7625
2311	0.7641
2320	0.7672
2329	0.7695
2338	0.7688
2347	0.7678
2356	0.7688
2365	0.7667
2374	0.7658
2383	0.768
2392	0.7701
2401	0.7711
2410	0.7715
2419	0.7721
2428	0.7724
2437	0.7722
2446	0.7718
2455	0.7712
2464	0.7706
2473	0.77
2482	0.7695
2491	0.7697
2500	0.7704
2509	0.7701
2518	0.7699
2527	0.7693
2536	0.7687
2545	0.768
2554	0.7672
2563	0.7667
2572	0.7657
2581	0.7646
2590	0.7639
2599	0.7636
2608	0.7633
2617	0.7631
2626	0.7621
2635	0.7603
2644	0.7585
2653	0.7567
2662	0.755
2671	0.7532
2680	0.7518
2689	0.7504
2698	0.7491
2707	0.7475
2716	0.7461
2725	0.7445
2734	0.7428
2743	0.7414
2752	0.7401
2761	0.7387
2770	0.7371
2779	0.7351
2788	0.7331
2797	0.7311
2806	0.7287
2815	0.726
2824	0.7234
2833	0.7199
2842	0.7169
2851	0.7149
2860	0.7144
2869	0.7134
2878	0.7101
2887	0.7065
2896	0.7031
2905	0.699
2914	0.6954
2923	0.6931
2932	0.6924
2941	0.6925
2950	0.6936
2959	0.6954
2968	0.6965
2977	0.6954
2986	0.6924
2995	0.6876
3004	0.6815
3013	0.6747
3022	0.6678
3031	0.664
3040	0.6381
3049	0.6386
3058	0.6586
3067	0.6606
3076	0.6665
3085	0.6855
3094	0.6915
3103	0.6915
3112	0.6912
3121	0.6908
3130	0.6901
3139	0.6889
3148	0.6875
3157	0.686
3166	0.6844
3175	0.6828
3184	0.6815
3193	0.6801
3202	0.6787
3211	0.6768
3220	0.6751
3229	0.6733
3238	0.6717
3247	0.6701
3256	0.6688
3265	0.6674
3274	0.6661
3283	0.6647
3292	0.6634
3301	0.6619
3310	0.6603
3319	0.6586
3328	0.6568
3337	0.6551
3346	0.6534
3355	0.6515
3364	0.6498
3373	0.6484
3382	0.6471
3391	0.6458
3400	0.6442
3409	0.6419
3418	0.6399
3427	0.6353
3436	0.6345
3445	0.6343
3454	0.6344
3463	0.6344
3472	0.6343
3481	0.6341
3490	0.6337
3499	0.6332
3508	0.6328
3517	0.6323
3526	0.6319
3535	0.6312
3544	0.6306
3553	0.6299
3562	0.6289
3571	0.6277
3580	0.6266
3589	0.6254
3598	0.6237
3607	0.622
3616	0.6204
3625	0.6194
3634	0.6184
3643	0.6171
3652	0.6159
3661	0.6131
3670	0.6099
3679	0.6106
3688	0.6107
3697	0.6099
3706	0.608
3715	0.606
3724	0.6046
3733	0.6033
3742	0.6022
3751	0.6015
3760	0.6012
3769	0.6005
3778	0.5992
