Infrared Spectrum: 2,6-Dichlorobenzyl methyl ether
Formula: C 8 H 8 Cl 2 O
CAS: 33486-90-7
State: gas
Origin: EPA-IR VAPOR PHASE LIBRARY
1/CM	ABSORBANCE
549.9	0.000319
559.547	0.0004843
569.193	0.0004931
578.84	0.00057801
588.486	0.000413
598.133	0.00057434
607.779	0.00059336
617.426	0.0009263
627.072	0.00173
636.719	0.0014826
646.365	0.0008364
656.012	0.0006937
665.658	0.0006907
675.305	0.0007436
684.951	0.0008556
694.598	0.0012992
704.245	0.0022
713.891	0.00539
723.538	0.00916
733.184	0.00604
742.831	0.0039
752.477	0.0088
762.124	0.0267
771.77	0.04679
781.417	0.02266
791.063	0.00594
800.71	0.00313
810.356	0.00284
820.003	0.00346
829.649	0.00395
839.296	0.00295
848.943	0.00202
858.589	0.0014961
868.236	0.0014132
877.882	0.0015194
887.529	0.00177
897.175	0.00277
906.822	0.00495
916.468	0.00508
926.115	0.00314
935.761	0.00332
945.408	0.00514
955.054	0.00656
964.701	0.00599
974.347	0.00615
983.994	0.00893
993.64	0.00918
1003.29	0.00531
1012.93	0.00308
1022.58	0.00291
1032.23	0.00318
1041.87	0.00358
1051.52	0.004
1061.17	0.00509
1070.81	0.00742
1080.46	0.01148
1090.11	0.01973
1099.75	0.03741
1109.4	0.06057
1119.05	0.04984
1128.69	0.02053
1138.34	0.00947
1147.99	0.00826
1157.63	0.00911
1167.28	0.00921
1176.92	0.01122
1186.57	0.01863
1196.22	0.02437
1205.86	0.01643
1215.51	0.00651
1225.16	0.00435
1234.8	0.00446
1244.45	0.00412
1254.1	0.0032
1263.74	0.00215
1273.39	0.00158
1283.04	0.00159
1292.68	0.00198
1302.33	0.00213
1311.98	0.00175
1321.62	0.00158
1331.27	0.00162
1340.92	0.00178
1350.56	0.00256
1360.21	0.00435
1369.86	0.00704
1379.5	0.00915
1389.15	0.00734
1398.79	0.00418
1408.44	0.00455
1418.09	0.00768
1427.73	0.01948
1437.38	0.03117
1447.03	0.01768
1456.67	0.00765
1466.32	0.00702
1475.97	0.00601
1485.61	0.00478
1495.26	0.00392
1504.91	0.00271
1514.55	0.00186
1524.2	0.00179
1533.85	0.00206
1543.49	0.00363
1553.14	0.00987
1562.79	0.02119
1572.43	0.0197
1582.08	0.01025
1591.73	0.00478
1601.37	0.00252
1611.02	0.00193
1620.67	0.00159
1630.31	0.0014122
1639.96	0.0013221
1649.6	0.0013034
1659.25	0.00163
1668.9	0.0015375
1678.54	0.0010304
1688.19	0.0008188
1697.84	0.000703
1707.48	0.000729
1717.13	0.0006666
1726.78	0.0007554
1736.42	0.0007852
1746.07	0.0007041
1755.72	0.0007201
1765.36	0.0008533
1775.01	0.0012531
1784.66	0.0010857
1794.3	0.0007934
1803.95	0.00064633
1813.6	0.00063299
1823.24	0.0006669
1832.89	0.0007983
1842.54	0.0012006
1852.18	0.0014078
1861.83	0.0011239
1871.47	0.0007088
1881.12	0.00062959
1890.77	0.00063258
1900.41	0.0006846
1910.06	0.0009951
1919.71	0.0014471
1929.35	0.0014437
1939	0.0009561
1948.65	0.0006665
1958.29	0.00063833
1967.94	0.0007263
1977.59	0.0008061
1987.23	0.0008305
1996.88	0.0008899
2006.53	0.0009882
2016.17	0.0009969
2025.82	0.000961
2035.47	0.0009798
2045.11	0.0010867
2054.76	0.0012227
2064.41	0.0011579
2074.05	0.0010009
2083.7	0.0008826
2093.35	0.000798
2102.99	0.0007112
2112.64	0.0006708
2122.28	0.00060187
2131.93	0.00060151
2141.58	0.00064322
2151.22	0.00059322
2160.87	0.00057645
2170.52	0.00056639
2180.16	0.000556552
2189.81	0.00057924
2199.46	0.00057527
2209.1	0.00061986
2218.75	0.000549849
2228.4	0.0005308
2238.04	0.0005357
2247.69	0.0005058
2257.34	0.00054852
2266.98	0.0005296
2276.63	0.000609
2286.28	0.00063687
2295.92	0.00059368
2305.57	0.000694
2315.22	0.00064887
2324.86	0.00056896
2334.51	0.0005376
2344.16	0.00059709
2353.8	0.0006686
2363.45	0.00057554
2373.09	0.0005311
2382.74	0.0005893
2392.39	0.00060131
2402.03	0.0005304
2411.68	0.00057236
2421.33	0.000488
2430.97	0.0004878
2440.62	0.0005024
2450.27	0.00054627
2459.91	0.00054124
2469.56	0.0005275
2479.21	0.0005113
2488.85	0.0004911
2498.5	0.0005276
2508.15	0.0005096
2517.79	0.0004664
2527.44	0.0005352
2537.09	0.0004881
2546.73	0.0005172
2556.38	0.0004751
2566.03	0.0004944
2575.67	0.0006413
2585.32	0.0006525
2594.96	0.00074
2604.61	0.0006795
2614.26	0.00062585
2623.9	0.00060999
2633.55	0.000765
2643.2	0.0007967
2652.84	0.0007828
2662.49	0.0008188
2672.14	0.0007299
2681.78	0.0007237
2691.43	0.0007047
2701.08	0.0006524
2710.72	0.0006554
2720.37	0.0007749
2730.02	0.0008423
2739.66	0.0011243
2749.31	0.0010994
2758.96	0.0010791
2768.6	0.0012154
2778.25	0.0014505
2787.9	0.00189
2797.54	0.00296
2807.19	0.00533
2816.84	0.0088
2826.48	0.01139
2836.13	0.01038
2845.77	0.00667
2855.42	0.00536
2865.07	0.00616
2874.71	0.00851
2884.36	0.01106
2894.01	0.01222
2903.65	0.01338
2913.3	0.01325
2922.95	0.01526
2932.59	0.01775
2942.24	0.0149
2951.89	0.01048
2961.53	0.00829
2971.18	0.00713
2980.83	0.00775
2990.47	0.0107
3000.12	0.00999
3009.77	0.00484
3019.41	0.00248
3029.06	0.0019
3038.71	0.00164
3048.35	0.00171
3058	0.00272
3067.64	0.00349
3077.29	0.00352
3086.94	0.00286
3096.58	0.0014263
3106.23	0.0010937
3115.88	0.0009448
3125.52	0.0010365
3135.17	0.0010144
3144.82	0.0004518
3154.46	0.000263
3164.11	0.000366
3173.76	0.000182
3183.4	0.000193
3193.05	0.000114
3202.7	0.000184
3212.34	5.9e-05
3221.99	0.000106
3231.64	5.1e-05
3241.28	1.1e-05
3250.93	0.000158
3260.58	0.000222
3270.22	3e-05
3279.87	0.000117
3289.52	0.000227
3299.16	0.000124
3308.81	0.0001
3318.45	9.8e-05
3328.1	0.000267
3337.75	9e-06
3347.39	0.000277
3357.04	0.000365
3366.69	0.000282
3376.33	0.000258
3385.98	0.000192
3395.63	0.000125
3405.27	0.000243
3414.92	0.000301
3424.57	0.000284
3434.21	0.000186
3443.86	0.000385
3453.51	0.000377
3463.15	7.8e-05
3472.8	0.000281
3482.45	0.000381
3492.09	0.000328
3501.74	0.000261
3511.39	0.000201
3521.03	0.000274
3530.68	0.000446
3540.33	0.00043
3549.97	0.000315
3559.62	0.000299
3569.26	0.000293
3578.91	0.00037
3588.56	0.000176
3598.2	0.000316
3607.85	0.000306
3617.5	0.000348
3627.14	0.000306
3636.79	0.000256
3646.44	0.000193
3656.08	0.00039
3665.73	0.000387
3675.38	0.0004812
3685.02	0.000393
3694.67	0.000492
3704.32	0.000441
3713.96	0.000437
3723.61	0.000416
3733.26	0.000329
3742.9	0.000312
3752.55	0.0004652
3762.2	0.0004539
3771.84	0.000395
3781.49	0.000276
3791.13	0.0004796
3800.78	0.000388
3810.43	0.0004514
3820.07	0.000432
3829.72	0.000502
3839.37	0.0004537
3849.01	0.0004546
3858.66	0.00064247
3868.31	0.0005131
3877.95	0.0004678
3887.6	0.000558052
3897.25	0.000553374
3906.89	0.00054428
3916.54	0.00054524
3926.19	0.00060455
3935.83	0.000433
3945.48	0.0004667
3955.13	0.0005233
3964.77	0.0004952
3974.42	0.0004978
3984.07	0.0004719
3993.71	0.0004869
