Infrared Spectrum: Ethyl 2,4-dimethylbenzoate
Formula: C 11 H 14 O 2
CAS: 33499-42-2
State: gas
Origin: EPA-IR VAPOR PHASE LIBRARY
1/CM	ABSORBANCE
549.9	0.001429
559.547	0.001428
569.193	0.001258
578.84	0.001139
588.486	0.001395
598.133	0.0021943
607.779	0.0025323
617.426	0.001322
627.072	0.00115
636.719	0.00088
646.365	0.00089
656.012	0.001016
665.658	0.001184
675.305	0.001481
684.951	0.0027393
694.598	0.00453
704.245	0.00387
713.891	0.0028428
723.538	0.00351
733.184	0.0022044
742.831	0.0022284
752.477	0.0046
762.124	0.01157
771.77	0.01929
781.417	0.01249
791.063	0.00622
800.71	0.00461
810.356	0.00516
820.003	0.00754
829.649	0.00947
839.296	0.00694
848.943	0.00432
858.589	0.00401
868.236	0.00573
877.882	0.0051
887.529	0.003
897.175	0.002177
906.822	0.0020488
916.468	0.0022594
926.115	0.00296
935.761	0.00313
945.408	0.002702
955.054	0.0026426
964.701	0.0027745
974.347	0.00302
983.994	0.0034
993.64	0.00425
1003.29	0.00583
1012.93	0.00781
1022.58	0.00806
1032.23	0.0076
1041.87	0.00944
1051.52	0.01477
1061.17	0.03133
1070.81	0.07717
1080.46	0.12047
1090.11	0.09249
1099.75	0.05581
1109.4	0.02992
1119.05	0.02303
1128.69	0.02878
1138.34	0.04208
1147.99	0.05809
1157.63	0.04694
1167.28	0.02827
1176.92	0.01976
1186.57	0.01348
1196.22	0.01216
1205.86	0.01563
1215.51	0.02445
1225.16	0.04478
1234.8	0.05944
1244.45	0.08362
1254.1	0.16293
1263.74	0.14412
1273.39	0.0714
1283.04	0.07155
1292.68	0.04683
1302.33	0.02389
1311.98	0.01357
1321.62	0.00882
1331.27	0.00674
1340.92	0.00599
1350.56	0.0064
1360.21	0.01012
1369.86	0.0141
1379.5	0.0123
1389.15	0.01277
1398.79	0.01239
1408.44	0.01229
1418.09	0.01128
1427.73	0.01091
1437.38	0.01244
1447.03	0.01526
1456.67	0.01655
1466.32	0.01616
1475.97	0.01386
1485.61	0.0108
1495.26	0.00952
1504.91	0.00836
1514.55	0.00691
1524.2	0.00645
1533.85	0.00649
1543.49	0.0068
1553.14	0.00755
1562.79	0.00896
1572.43	0.00962
1582.08	0.00808
1591.73	0.00813
1601.37	0.01374
1611.02	0.02591
1620.67	0.02063
1630.31	0.00693
1639.96	0.00456
1649.6	0.00444
1659.25	0.00463
1668.9	0.00522
1678.54	0.00637
1688.19	0.00871
1697.84	0.01265
1707.48	0.02045
1717.13	0.04187
1726.78	0.09684
1736.42	0.13168
1746.07	0.07329
1755.72	0.02887
1765.36	0.01572
1775.01	0.00909
1784.66	0.00575
1794.3	0.00406
1803.95	0.00324
1813.6	0.0028047
1823.24	0.0026402
1832.89	0.0025196
1842.54	0.0022008
1852.18	0.0022033
1861.83	0.0023015
1871.47	0.0022832
1881.12	0.0022503
1890.77	0.0023194
1900.41	0.0024886
1910.06	0.0026647
1919.71	0.0025942
1929.35	0.0022722
1939	0.0023379
1948.65	0.0023037
1958.29	0.0020758
1967.94	0.001736
1977.59	0.001593
1987.23	0.001593
1996.88	0.001582
2006.53	0.001582
2016.17	0.001666
2025.82	0.00162
2035.47	0.001477
2045.11	0.001519
2054.76	0.001496
2064.41	0.001471
2074.05	0.001531
2083.7	0.00164
2093.35	0.001755
2102.99	0.001668
2112.64	0.001656
2122.28	0.001475
2131.93	0.001365
2141.58	0.001306
2151.22	0.001257
2160.87	0.001302
2170.52	0.001282
2180.16	0.001214
2189.81	0.00122
2199.46	0.001155
2209.1	0.001168
2218.75	0.00122
2228.4	0.00127
2238.04	0.001271
2247.69	0.001242
2257.34	0.001267
2266.98	0.00126
2276.63	0.001279
2286.28	0.001256
2295.92	0.001255
2305.57	0.001395
2315.22	0.001448
2324.86	0.001494
2334.51	0.001462
2344.16	0.001467
2353.8	0.001334
2363.45	0.00122
2373.09	0.001254
2382.74	0.001294
2392.39	0.00142
2402.03	0.00141
2411.68	0.001355
2421.33	0.001315
2430.97	0.001246
2440.62	0.001205
2450.27	0.001242
2459.91	0.001151
2469.56	0.001152
2479.21	0.001128
2488.85	0.001151
2498.5	0.00112
2508.15	0.00119
2517.79	0.001133
2527.44	0.001239
2537.09	0.001198
2546.73	0.001191
2556.38	0.001165
2566.03	0.001033
2575.67	0.001033
2585.32	0.000947
2594.96	0.00092
2604.61	0.0009
2614.26	0.000941
2623.9	0.000956
2633.55	0.00088
2643.2	0.00086
2652.84	0.00084
2662.49	0.00079
2672.14	0.0008
2681.78	0.00078
2691.43	0.00076
2701.08	0.00091
2710.72	0.000943
2720.37	0.00114
2730.02	0.001367
2739.66	0.001827
2749.31	0.0020175
2758.96	0.001768
2768.6	0.001508
2778.25	0.001471
2787.9	0.001507
2797.54	0.001611
2807.19	0.0018969
2816.84	0.0022845
2826.48	0.0027012
2836.13	0.00333
2845.77	0.00431
2855.42	0.00586
2865.07	0.00897
2874.71	0.0116
2884.36	0.01265
2894.01	0.01266
2903.65	0.01386
2913.3	0.01653
2922.95	0.02145
2932.59	0.03019
2942.24	0.03273
2951.89	0.02527
2961.53	0.02184
2971.18	0.02571
2980.83	0.03587
2990.47	0.03484
3000.12	0.02495
3009.77	0.02046
3019.41	0.01947
3029.06	0.01682
3038.71	0.01347
3048.35	0.01103
3058	0.00771
3067.64	0.00618
3077.29	0.00563
3086.94	0.00427
3096.58	0.00304
3106.23	0.0025378
3115.88	0.0023562
3125.52	0.001779
3135.17	0.001211
3144.82	0.00077
3154.46	0.00058
3164.11	0.00044
3173.76	0.00031
3183.4	0.00037
3193.05	0.00032
3202.7	0.00025
3212.34	0.00026
3221.99	0.00011
3231.64	0.00022
3241.28	0
3250.93	0.00036
3260.58	5e-05
3270.22	0.00017
3279.87	9e-05
3289.52	0.00019
3299.16	3e-05
3308.81	0.00011
3318.45	0.0002
3328.1	0.00022
3337.75	0.00028
3347.39	0.0004
3357.04	0.00028
3366.69	0.00031
3376.33	0.0003
3385.98	0.00037
3395.63	0.00035
3405.27	0.00043
3414.92	0.00075
3424.57	0.0007
3434.21	0.001051
3443.86	0.001343
3453.51	0.001306
3463.15	0.000971
3472.8	0.00082
3482.45	0.00062
3492.09	0.00075
3501.74	0.00071
3511.39	0.0005
3521.03	0.00062
3530.68	0.00048
3540.33	0.00049
3549.97	0.00068
3559.62	0.00076
3569.26	0.00049
3578.91	0.00081
3588.56	0.0007
3598.2	0.00067
3607.85	0.00075
3617.5	0.00074
3627.14	0.00074
3636.79	0.00072
3646.44	0.0008
3656.08	0.00082
3665.73	0.00068
3675.38	0.0009
3685.02	0.00078
3694.67	0.00085
3704.32	0.00078
3713.96	0.0009
3723.61	0.00083
3733.26	0.00078
3742.9	0.000945
3752.55	0.000976
3762.2	0.000933
3771.84	0.000931
3781.49	0.000972
3791.13	0.00091
3800.78	0.00098
3810.43	0.000962
3820.07	0.00092
3829.72	0.00105
3839.37	0.00099
3849.01	0.00089
3858.66	0.000947
3868.31	0.000969
3877.95	0.001007
3887.6	0.001055
3897.25	0.001008
3906.89	0.000998
3916.54	0.00104
3926.19	0.001083
3935.83	0.001007
3945.48	0.001093
3955.13	0.001096
3964.77	0.001102
3974.42	0.00106
3984.07	0.001084
3993.71	0.001152
