Infrared Spectrum: 3,5,7,9,10-PENTACHLORO-2,2,3,4,4,5,6,6,7,8,8,9,10,10-TETRADECAFLUORODECANOIC ACID
Formula: C10 H Cl5 F14 O2
CAS: 335-74-0
State: LIQUID
Class: COBLENTZ
Instrument: Not specified, most likely a prism, grating, or hybrid spectrometer.
Sampling: TRANSMISSION
Path length: CAPILLARY
Resolution: 4
Origin: WYANDOTTE CHEMICALS CORP., WYANDOTTE, MICHIGAN, USA
MICROMETERS	TRANSMITTANCE
2.031	0.956
2.06825	0.95
2.1055	0.956
2.14275	0.967
2.18	0.964
2.21725	0.968
2.2545	0.97
2.29175	0.97
2.32901	0.976
2.36626	0.978
2.40351	0.976
2.44076	0.982
2.47801	0.97
2.51526	0.967
2.55251	0.972
2.58976	0.978
2.62701	0.967
2.66426	0.962
2.70151	0.931
2.73876	0.922
2.77601	0.898
2.81326	0.832
2.85051	0.785
2.88777	0.763
2.92502	0.738
2.96227	0.704
2.99952	0.642
3.03677	0.511
3.07402	0.376
3.11127	0.304
3.14852	0.265
3.18577	0.247
3.22302	0.242
3.26027	0.244
3.29752	0.272
3.33477	0.332
3.37202	0.34
3.40927	0.342
3.44653	0.359
3.48378	0.396
3.52103	0.446
3.55828	0.5
3.59553	0.55
3.63278	0.6
3.67003	0.617
3.70728	0.608
3.74453	0.618
3.78178	0.66
3.81903	0.688
3.85628	0.693
3.89353	0.688
3.93078	0.678
3.96803	0.651
4.00529	0.682
4.04254	0.706
4.07979	0.73
4.11704	0.763
4.15429	0.783
4.19154	0.797
4.22879	0.811
4.26604	0.819
4.30329	0.838
4.34054	0.836
4.37779	0.849
4.41504	0.853
4.45229	0.863
4.48954	0.869
4.52679	0.875
4.56405	0.877
4.6013	0.9
4.63855	0.908
4.6758	0.914
4.71305	0.92
4.7503	0.925
4.78755	0.928
4.8248	0.928
4.86205	0.928
4.8993	0.928
4.93655	0.92
4.9738	0.925
5.01105	0.93
5.0483	0.922
5.08555	0.912
5.12281	0.914
5.16006	0.912
5.19731	0.914
5.23456	0.914
5.27181	0.909
5.30906	0.911
5.34631	0.902
5.38356	0.903
5.42081	0.889
5.45806	0.87
5.49531	0.839
5.53256	0.794
5.56981	0.597
5.60706	0.311
5.64431	0.068
5.68157	0.037
5.71882	0.087
5.75607	0.326
5.79332	0.51
5.83057	0.595
5.86782	0.653
5.90507	0.702
5.94232	0.727
5.97957	0.758
6.01682	0.777
6.05407	0.797
6.09132	0.8
6.12857	0.799
6.16582	0.802
6.20307	0.811
6.24033	0.828
6.27758	0.849
6.31483	0.855
6.35208	0.867
6.38933	0.85
6.42658	0.858
6.46383	0.846
6.50108	0.835
6.53833	0.85
6.57558	0.847
6.61283	0.852
6.65008	0.852
6.68733	0.821
6.72458	0.816
6.76183	0.813
6.79909	0.785
6.83634	0.734
6.87359	0.66
6.91084	0.547
6.94809	0.419
6.98534	0.396
7.02259	0.482
7.05984	0.567
7.09709	0.637
7.13434	0.685
7.17159	0.726
7.20884	0.746
7.24609	0.763
7.28334	0.779
7.32059	0.793
7.35785	0.794
7.3951	0.797
7.43235	0.783
7.4696	0.774
7.50685	0.762
7.5441	0.751
7.58135	0.726
7.6186	0.688
7.65585	0.64
7.6931	0.558
7.73035	0.44
7.7676	0.281
7.80485	0.186
7.8421	0.153
7.87935	0.155
7.91661	0.153
7.95386	0.152
7.99111	0.141
8.02836	0.116
8.06561	0.071
8.10286	0.059
8.14011	0.054
8.17736	0.041
8.21461	0.032
8.25186	0.029
8.28911	0.029
8.32636	0.027
8.36361	0.027
8.40086	0.024
8.43811	0.027
8.47537	0.026
8.51262	0.023
8.54987	0.029
8.58712	0.029
8.62437	0.031
8.66162	0.031
8.69887	0.037
8.73612	0.037
8.77337	0.037
8.81062	0.038
8.84787	0.032
8.88512	0.031
8.92237	0.034
8.95962	0.051
8.99687	0.093
9.03413	0.18
9.07138	0.244
9.10863	0.272
9.14588	0.279
9.18313	0.307
9.22038	0.363
9.25763	0.413
9.29488	0.451
9.33213	0.479
9.36938	0.479
9.40663	0.477
9.44388	0.432
9.48113	0.345
9.51838	0.253
9.55563	0.181
9.59289	0.178
9.63014	0.208
9.66739	0.276
9.70464	0.312
9.74189	0.304
9.77914	0.323
9.81639	0.395
9.85364	0.48
9.89089	0.547
9.92814	0.589
9.96539	0.595
10.0026	0.589
10.0399	0.564
10.0771	0.486
10.1144	0.362
10.1516	0.233
10.1889	0.125
10.2261	0.071
10.2634	0.043
10.3006	0.037
10.3379	0.038
10.3751	0.043
10.4124	0.046
10.4497	0.063
10.4869	0.077
10.5242	0.079
10.5614	0.091
10.5987	0.118
10.6359	0.136
10.6732	0.143
10.7104	0.171
10.7477	0.202
10.7849	0.222
10.8222	0.234
10.8594	0.23
10.8967	0.242
10.9339	0.253
10.9712	0.25
11.0084	0.237
11.0457	0.236
11.0829	0.253
11.1202	0.292
11.1574	0.304
11.1947	0.325
11.2319	0.339
11.2692	0.349
11.3064	0.374
11.3437	0.385
11.3809	0.395
11.4182	0.405
11.4554	0.409
11.4927	0.412
11.5299	0.424
11.5672	0.441
11.6044	0.455
11.6417	0.454
11.6789	0.46
11.7162	0.465
11.7534	0.46
11.7907	0.446
11.8279	0.412
11.8652	0.365
11.9024	0.335
11.9397	0.331
11.9769	0.335
12.0142	0.337
12.0514	0.334
12.0887	0.346
12.1259	0.368
12.1632	0.409
12.2004	0.432
12.2377	0.457
12.2749	0.468
12.3122	0.474
12.3494	0.479
12.3867	0.496
12.4239	0.517
12.4612	0.527
12.4984	0.541
12.5357	0.55
12.5729	0.556
12.6102	0.552
12.6474	0.548
12.6847	0.547
12.7219	0.538
12.7592	0.542
12.7964	0.528
12.8337	0.528
12.8709	0.533
12.9082	0.53
12.9454	0.536
12.9827	0.538
13.0199	0.541
13.0572	0.527
13.0944	0.52
13.1317	0.51
13.1689	0.5
13.2062	0.503
13.2435	0.499
13.2807	0.497
13.318	0.5
13.3552	0.506
13.3925	0.513
13.4297	0.52
13.467	0.538
13.5042	0.539
13.5415	0.539
13.5787	0.536
13.616	0.536
13.6532	0.544
13.6905	0.547
13.7277	0.547
13.765	0.553
13.8022	0.544
13.8395	0.539
13.8767	0.531
13.914	0.528
13.9512	0.514
13.9885	0.506
14.0257	0.5
14.063	0.497
14.1002	0.491
14.1375	0.48
14.1747	0.471
14.212	0.474
14.2492	0.469
14.2865	0.475
14.3237	0.477
14.361	0.468
14.3982	0.457
14.4355	0.441
14.4727	0.427
14.51	0.418
14.5472	0.415
14.5845	0.429
14.6217	0.435
14.659	0.444
14.6962	0.451
14.7335	0.452
14.7707	0.451
14.808	0.457
14.8452	0.455
14.8825	0.454
14.9197	0.452
14.957	0.454
14.9942	0.46
15.0315	0.472
15.0687	0.483
15.106	0.485
15.1432	0.48
15.1805	0.477
15.2177	0.482
15.255	0.493
15.2922	0.491
15.3295	0.491
15.3667	0.496
15.404	0.497
15.4412	0.503
15.4785	0.502
15.5157	0.511
15.553	0.511
15.5902	0.513
15.6275	0.522
15.6647	0.528
15.702	0.531
15.7392	0.528
15.7765	0.533
15.8137	0.534
15.851	0.545
15.8882	0.542
15.9255	0.547
15.9627	0.555
16	0.561
