Infrared Spectrum: 1,2,4,6,8,8-HEXACHLORO-1,1,2,3,3,4,5,5,6,7,7,8-DODECAFLUORO OCTANE
Formula: C8 Cl6 F12
CAS: 335-68-2
State: LIQUID
Class: COBLENTZ
Instrument: Not specified, most likely a prism, grating, or hybrid spectrometer.
Sampling: TRANSMISSION
Path length: 0.003 CM
Resolution: 4
Origin: WYANDOTTE CHEMICALS CORP., WYANDOTTE, MICHIGAN, USA
MICROMETERS	TRANSMITTANCE
2.012	0.936
2.04884	0.939
2.08569	0.938
2.12253	0.941
2.15937	0.942
2.19622	0.947
2.23306	0.949
2.2699	0.952
2.30675	0.952
2.34359	0.952
2.38043	0.961
2.41728	0.964
2.45412	0.963
2.49096	0.964
2.52781	0.964
2.56465	0.966
2.60149	0.963
2.63833	0.964
2.67518	0.972
2.71202	0.976
2.74886	0.976
2.78571	0.947
2.82255	0.936
2.85939	0.93
2.89624	0.933
2.93308	0.932
2.96992	0.932
3.00677	0.927
3.04361	0.932
3.08045	0.924
3.1173	0.916
3.15414	0.901
3.19098	0.896
3.22783	0.879
3.26467	0.861
3.30151	0.852
3.33836	0.847
3.3752	0.842
3.41204	0.833
3.44889	0.845
3.48573	0.855
3.52257	0.869
3.55942	0.881
3.59626	0.889
3.6331	0.896
3.66994	0.904
3.70679	0.906
3.74363	0.912
3.78047	0.918
3.81732	0.915
3.85416	0.922
3.891	0.921
3.92785	0.924
3.96469	0.93
4.00153	0.933
4.03838	0.921
4.07522	0.909
4.11206	0.912
4.14891	0.91
4.18575	0.907
4.22259	0.898
4.25944	0.899
4.29628	0.904
4.33312	0.901
4.36997	0.878
4.40681	0.872
4.44365	0.873
4.4805	0.879
4.51734	0.882
4.55418	0.899
4.59103	0.902
4.62787	0.902
4.66471	0.906
4.70155	0.918
4.7384	0.926
4.77524	0.929
4.81208	0.933
4.84893	0.929
4.88577	0.932
4.92261	0.935
4.95946	0.936
4.9963	0.936
5.03314	0.938
5.06999	0.938
5.10683	0.938
5.14367	0.939
5.18052	0.939
5.21736	0.938
5.2542	0.936
5.29105	0.933
5.32789	0.935
5.36473	0.93
5.40158	0.933
5.43842	0.922
5.47526	0.922
5.51211	0.918
5.54895	0.915
5.58579	0.91
5.62264	0.902
5.65948	0.907
5.69632	0.915
5.73316	0.916
5.77001	0.91
5.80685	0.899
5.84369	0.899
5.88054	0.875
5.91738	0.869
5.95422	0.858
5.99107	0.859
6.02791	0.853
6.06475	0.858
6.1016	0.862
6.13844	0.861
6.17528	0.867
6.21213	0.87
6.24897	0.867
6.28581	0.878
6.32266	0.875
6.3595	0.878
6.39634	0.875
6.43319	0.864
6.47003	0.845
6.50687	0.867
6.54372	0.859
6.58056	0.862
6.6174	0.853
6.65425	0.844
6.69109	0.847
6.72793	0.839
6.76477	0.827
6.80162	0.828
6.83846	0.79
6.8753	0.812
6.91215	0.822
6.94899	0.822
6.98583	0.824
7.02268	0.816
7.05952	0.815
7.09636	0.81
7.13321	0.815
7.17005	0.787
7.20689	0.731
7.24374	0.651
7.28058	0.708
7.31742	0.762
7.35427	0.785
7.39111	0.782
7.42795	0.778
7.4648	0.781
7.50164	0.782
7.53848	0.767
7.57533	0.751
7.61217	0.731
7.64901	0.696
7.68586	0.599
7.7227	0.5
7.75954	0.34
7.79638	0.121
7.83323	0.101
7.87007	0.121
7.90691	0.132
7.94376	0.129
7.9806	0.118
8.01744	0.107
8.05429	0.052
8.09113	0.032
8.12797	0.03
8.16482	0.03
8.20166	0.026
8.2385	0.024
8.27535	0.024
8.31219	0.023
8.34903	0.023
8.38588	0.023
8.42272	0.027
8.45956	0.024
8.49641	0.026
8.53325	0.029
8.57009	0.027
8.60694	0.029
8.64378	0.026
8.68062	0.024
8.71747	0.026
8.75431	0.029
8.79115	0.029
8.82799	0.029
8.86484	0.026
8.90168	0.029
8.93852	0.026
8.97537	0.027
9.01221	0.029
9.04905	0.029
9.0859	0.029
9.12274	0.035
9.15958	0.06
9.19643	0.106
9.23327	0.198
9.27011	0.251
9.30696	0.263
9.3438	0.258
9.38064	0.261
9.41749	0.223
9.45433	0.169
9.49117	0.092
9.52802	0.05
9.56486	0.05
9.6017	0.061
9.63855	0.098
9.67539	0.129
9.71223	0.124
9.74908	0.126
9.78592	0.161
9.82276	0.243
9.8596	0.342
9.89645	0.411
9.93329	0.436
9.97013	0.429
10.007	0.399
10.0438	0.346
10.0807	0.266
10.1175	0.161
10.1544	0.081
10.1912	0.038
10.228	0.029
10.2649	0.029
10.3017	0.024
10.3386	0.024
10.3754	0.026
10.4123	0.027
10.4491	0.027
10.4859	0.029
10.5228	0.035
10.5596	0.043
10.5965	0.057
10.6333	0.067
10.6702	0.078
10.707	0.072
10.7438	0.081
10.7807	0.098
10.8175	0.101
10.8544	0.097
10.8912	0.092
10.9281	0.058
10.9649	0.043
11.0017	0.033
11.0386	0.027
11.0754	0.026
11.1123	0.026
11.1491	0.03
11.186	0.032
11.2228	0.032
11.2596	0.044
11.2965	0.061
11.3333	0.089
11.3702	0.13
11.407	0.158
11.4439	0.178
11.4807	0.197
11.5175	0.203
11.5544	0.224
11.5912	0.24
11.6281	0.252
11.6649	0.272
11.7018	0.28
11.7386	0.298
11.7755	0.302
11.8123	0.295
11.8491	0.272
11.886	0.249
11.9228	0.214
11.9597	0.192
11.9965	0.141
12.0334	0.101
12.0702	0.069
12.107	0.072
12.1439	0.1
12.1807	0.158
12.2176	0.249
12.2544	0.306
12.2913	0.359
12.3281	0.359
12.3649	0.331
12.4018	0.288
12.4386	0.283
12.4755	0.311
12.5123	0.332
12.5492	0.351
12.586	0.416
12.6228	0.465
12.6597	0.499
12.6965	0.53
12.7334	0.546
12.7702	0.573
12.8071	0.582
12.8439	0.59
12.8807	0.588
12.9176	0.596
12.9544	0.6
12.9913	0.597
13.0281	0.573
13.065	0.517
13.1018	0.443
13.1387	0.397
13.1755	0.386
13.2123	0.362
13.2492	0.329
13.286	0.274
13.3229	0.231
13.3597	0.203
13.3966	0.198
13.4334	0.204
13.4702	0.211
13.5071	0.209
13.5439	0.198
13.5808	0.194
13.6176	0.206
13.6545	0.228
13.6913	0.24
13.7281	0.248
13.765	0.261
13.8018	0.294
13.8387	0.334
13.8755	0.357
13.9124	0.366
13.9492	0.362
13.986	0.315
14.0229	0.261
14.0597	0.231
14.0966	0.214
14.1334	0.214
14.1703	0.218
14.2071	0.238
14.2439	0.277
14.2808	0.309
14.3176	0.326
14.3545	0.337
14.3913	0.323
14.4282	0.312
14.465	0.298
14.5018	0.305
14.5387	0.312
14.5755	0.325
14.6124	0.34
14.6492	0.338
14.6861	0.351
14.7229	0.363
14.7598	0.38
14.7966	0.377
14.8334	0.362
14.8703	0.348
14.9071	0.335
14.944	0.337
14.9808	0.351
15.0177	0.391
15.0545	0.417
15.0913	0.403
15.1282	0.386
15.165	0.382
15.2019	0.392
15.2387	0.397
15.2756	0.403
15.3124	0.403
15.3492	0.403
15.3861	0.403
15.4229	0.416
15.4598	0.425
15.4966	0.431
15.5335	0.443
15.5703	0.453
15.6071	0.474
15.644	0.471
15.6808	0.491
15.7177	0.5
15.7545	0.508
15.7914	0.523
15.8282	0.531
15.865	0.554
15.9019	0.554
15.9387	0.562
15.9756	0.567
