Infrared Spectrum: 4-Methylchrysene
Formula: C 19 H 14
CAS: 3351-30-2
State: gas
Instrument: HP-GC/MS/IRD
Origin: NIST Mass Spectrometry Data Center
1/CM	ABSORBANCE
550	0.0004718
562	0.0003262
574	0.0002093
586	0.0003283
598	0.0004144
610	0.0001673
622	0.0001274
634	0.0001869
646	0.0002093
658	0.0002205
670	0.0002429
682	0.0007007
694	0.0002863
706	0.0001967
718	0.0003094
730	0.0006685
742	0.0033621
754	0.007
766	0.002408
778	0.000679
790	0.0009513
802	0.0010906
814	0.0026586
826	0.0028931
838	0.0006629
850	0.0004543
862	0.0006678
874	0.0005985
886	0.0002527
898	0.000147
910	3.99e-05
922	8.12e-05
934	8.4e-05
946	0.0001813
958	0.000224
970	0.0001372
982	7e-05
994	4.2e-05
1006	5.81e-05
1018	0.0002261
1030	0.0003717
1042	0.0003654
1054	2.38e-05
1066	2.66e-05
1078	2.59e-05
1090	0.0002205
1102	0.0001225
1114	3.36e-05
1126	2.17e-05
1138	0.000105
1150	0.0001449
1162	0.0001281
1174	0.0001337
1186	0.0001785
1198	0.0001603
1210	0.0002716
1222	0.0004235
1234	0.0002968
1246	0.0006307
1258	0.0006923
1270	0.0002688
1282	0.0002177
1294	0.0001155
1306	7.7e-05
1318	0.0001071
1330	7.28e-05
1342	7.49e-05
1354	9.73e-05
1366	6.3e-05
1378	0.0001666
1390	0.0001911
1402	0.0001449
1414	0.0002359
1426	0.0006818
1438	0.0006265
1450	0.0006118
1462	0.0010017
1474	0.0011263
1486	0.0010472
1498	0.0003969
1510	0.0004893
1522	0.0004592
1534	0.000133
1546	0.0001274
1558	0.0001113
1570	0.000203
1582	0.0002303
1594	0.0003402
1606	0.0003066
1618	0.0002688
1630	0.0001764
1642	0.0001771
1654	9.8e-05
1666	9.31e-05
1678	0.0002674
1690	0.0003948
1702	0.0002177
1714	0.0002457
1726	0.0001652
1738	0.0001596
1750	0.0001876
1762	0.000399
1774	0.0004186
1786	0.0002303
1798	0.0001344
1810	0.0001505
1822	0.0001561
1834	0.0001883
1846	0.0001659
1858	9.24e-05
1870	6.79e-05
1882	0.0001484
1894	0.0002422
1906	0.0003934
1918	0.0003871
1930	0.0002779
1942	0.0002548
1954	6.86e-05
1966	3.57e-05
1978	5.25e-05
1990	1.68e-05
2002	3.5e-06
2014	1.19e-05
2026	2.87e-05
2038	4.83e-05
2050	2.66e-05
2062	2.73e-05
2074	3.08e-05
2086	9.1e-06
2098	2.59e-05
2110	1.82e-05
2122	1.75e-05
2134	2.52e-05
2146	1.54e-05
2158	1.61e-05
2170	2.73e-05
2182	3.15e-05
2194	4.41e-05
2206	4.06e-05
2218	2.03e-05
2230	9.1e-06
2242	1.68e-05
2254	2.59e-05
2266	3.57e-05
2278	4.13e-05
2290	4.55e-05
2302	5.74e-05
2314	7.7e-05
2326	3.64e-05
2338	3.99e-05
2350	4.62e-05
2362	2.66e-05
2374	4.34e-05
2386	4.41e-05
2398	3.22e-05
2410	3.43e-05
2422	3.22e-05
2434	2.8e-05
2446	1.19e-05
2458	3.36e-05
2470	3.36e-05
2482	5.25e-05
2494	2.94e-05
2506	3.64e-05
2518	5.32e-05
2530	3.5e-05
2542	1.26e-05
2554	2.45e-05
2566	2.17e-05
2578	3.29e-05
2590	3.22e-05
2602	1.82e-05
2614	4.69e-05
2626	3.01e-05
2638	2.94e-05
2650	1.26e-05
2662	1.47e-05
2674	2.38e-05
2686	1.68e-05
2698	1.05e-05
2710	2.66e-05
2722	1.82e-05
2734	2.1e-05
2746	6.37e-05
2758	1.54e-05
2770	3.99e-05
2782	2.31e-05
2794	2.1e-05
2806	4.13e-05
2818	4.55e-05
2830	4.34e-05
2842	7.07e-05
2854	0.000119
2866	0.0001974
2878	0.0003934
2890	0.000623
2902	0.0005292
2914	0.0005131
2926	0.0006209
2938	0.0007434
2950	0.0008834
2962	0.0010745
2974	0.0016513
2986	0.0011823
2998	0.0008729
3010	0.0009275
3022	0.0012159
3034	0.0018424
3046	0.0027895
3058	0.0042791
3070	0.0033733
3082	0.002107
3094	0.0016317
3106	0.0007917
3118	0.0004312
3130	0.00028
3142	0.0002597
3154	0.0001645
3166	0.0001456
3178	0.0001064
3190	0.0001302
3202	0.0001204
3214	9.38e-05
3226	7.28e-05
3238	6.65e-05
3250	2.17e-05
3262	3.92e-05
3274	5.74e-05
3286	1.89e-05
3298	4.76e-05
3310	3.36e-05
3322	3.43e-05
3334	2.03e-05
3346	2.03e-05
3358	3.85e-05
3370	3.57e-05
3382	5.46e-05
3394	8.26e-05
3406	2.24e-05
3418	1.89e-05
3430	4.2e-05
3442	3.43e-05
3454	4.06e-05
3466	4.55e-05
3478	4.06e-05
3490	4.69e-05
3502	6.86e-05
3514	5.04e-05
3526	3.71e-05
3538	3.01e-05
3550	4.55e-05
3562	7.35e-05
3574	6.09e-05
3586	6.09e-05
3598	6.44e-05
3610	6.02e-05
3622	8.05e-05
3634	4.97e-05
3646	2.24e-05
3658	6.3e-05
3670	6.3e-05
3682	3.29e-05
3694	5.11e-05
3706	5.39e-05
3718	4.69e-05
3730	1.68e-05
3742	4.62e-05
3754	6.02e-05
3766	6.16e-05
3778	8.82e-05
3790	6.16e-05
3802	0.0001197
3814	8.4e-05
3826	3.08e-05
3838	4.69e-05
