Infrared Spectrum: 2-Methylchrysene
Formula: C 19 H 14
CAS: 3351-32-4
State: gas
Instrument: HP-GC/MS/IRD
Origin: NIST Mass Spectrometry Data Center
1/CM	ABSORBANCE
550	0.0016562
562	0.0005194
574	0.0001554
586	8.96e-05
598	0.0001456
610	9.1e-05
622	8.96e-05
634	0.0001162
646	0.0003458
658	0.0002534
670	0.0002324
682	0.0007952
694	0.0022666
706	0.0004536
718	0.0004802
730	0.0021406
742	0.0093394
754	0.0044338
766	0.0010304
778	0.0017668
790	0.008358
802	0.0128114
814	0.004809
826	0.000924
838	0.000539
850	0.000917
862	0.001918
874	0.0038192
886	0.0022134
898	0.0004942
910	0.0003612
922	0.0004928
934	0.0007756
946	0.0005502
958	0.0003878
970	0.0002422
982	0.0002702
994	0.000385
1006	0.0004914
1018	0.0006202
1030	0.000952
1042	0.0008344
1054	0.0003066
1066	0.0002072
1078	0.0002142
1090	0.0002198
1102	0.0002338
1114	0.0002072
1126	0.0002408
1138	0.0004116
1150	0.000623
1162	0.0003724
1174	0.0005278
1186	0.0005138
1198	0.000245
1210	0.0002268
1222	0.0003696
1234	0.000994
1246	0.0016562
1258	0.0022232
1270	0.001232
1282	0.0003626
1294	0.0004074
1306	0.000343
1318	0.0002842
1330	0.000385
1342	0.000336
1354	0.000392
1366	0.000322
1378	0.0003822
1390	0.0004648
1402	0.0005628
1414	0.0007406
1426	0.001918
1438	0.0014546
1450	0.0009086
1462	0.0010738
1474	0.0018466
1486	0.0016912
1498	0.0008442
1510	0.0014028
1522	0.0027216
1534	0.0013356
1546	0.0007574
1558	0.0005894
1570	0.0006384
1582	0.0009156
1594	0.0016618
1606	0.00175
1618	0.001512
1630	0.00161
1642	0.00063
1654	0.0003864
1666	0.0004382
1678	0.0008778
1690	0.0008596
1702	0.0003626
1714	0.0004116
1726	0.000819
1738	0.001001
1750	0.0012698
1762	0.0006706
1774	0.0004662
1786	0.0005236
1798	0.0003612
1810	0.0003864
1822	0.0004886
1834	0.000434
1846	0.0001652
1858	0.0001428
1870	0.0002338
1882	0.0005348
1894	0.0008064
1906	0.0008638
1918	0.0004634
1930	0.0003808
1942	0.0005796
1954	8.82e-05
1966	4.9e-05
1978	6.86e-05
1990	6.58e-05
2002	6.3e-05
2014	4.9e-05
2026	5.6e-05
2038	5.6e-05
2050	7.28e-05
2062	6.86e-05
2074	6.72e-05
2086	5.18e-05
2098	5.6e-05
2110	8.4e-05
2122	5.88e-05
2134	8.96e-05
2146	5.46e-05
2158	5.6e-05
2170	2.66e-05
2182	3.78e-05
2194	4.48e-05
2206	2.94e-05
2218	8.4e-06
2230	1.12e-05
2242	1.12e-05
2254	4.62e-05
2266	5.18e-05
2278	6.16e-05
2290	8.96e-05
2302	9.94e-05
2314	0.000126
2326	0.0001078
2338	9.8e-05
2350	8.12e-05
2362	5.46e-05
2374	6.86e-05
2386	8.82e-05
2398	7.56e-05
2410	7.98e-05
2422	7.14e-05
2434	7.84e-05
2446	0.0001036
2458	9.1e-05
2470	0.0001008
2482	5.74e-05
2494	0.0001022
2506	0.0001036
2518	6.72e-05
2530	9.38e-05
2542	9.66e-05
2554	9.52e-05
2566	8.4e-05
2578	7.14e-05
2590	5.04e-05
2602	7.84e-05
2614	7.84e-05
2626	4.06e-05
2638	4.9e-05
2650	7.98e-05
2662	4.62e-05
2674	7.28e-05
2686	4.06e-05
2698	5.04e-05
2710	6.44e-05
2722	9.52e-05
2734	0.0001568
2746	0.0002436
2758	0.0001358
2770	0.0001512
2782	0.0001218
2794	0.0001316
2806	0.0001624
2818	0.0002366
2830	0.0002688
2842	0.0004858
2854	0.000805
2866	0.0015302
2878	0.0021714
2890	0.0018312
2902	0.0016856
2914	0.0021294
2926	0.004186
2938	0.0040292
2950	0.0019264
2962	0.0017066
2974	0.0018494
2986	0.0019796
2998	0.0021028
3010	0.0032956
3022	0.0057666
3034	0.0060676
3046	0.0067648
3058	0.0076524
3070	0.0074816
3082	0.0061852
3094	0.0048482
3106	0.0025186
3118	0.0011718
3130	0.0005852
3142	0.0003766
3154	0.0002842
3166	0.0001932
3178	0.000133
3190	0.0001624
3202	0.0001988
3214	0.0001386
3226	0.0001246
3238	8.82e-05
3250	0.0001176
3262	8.54e-05
3274	8.12e-05
3286	0.000133
3298	7.56e-05
3310	0.0001008
3322	0.000105
3334	9.8e-05
3346	7e-05
3358	9.66e-05
3370	0.0001064
3382	0.0001008
3394	4.76e-05
3406	4.9e-05
3418	5.6e-05
3430	3.78e-05
3442	6.58e-05
3454	6.16e-05
3466	5.32e-05
3478	0.0001036
3490	8.96e-05
3502	8.82e-05
3514	8.4e-05
3526	6.72e-05
3538	0.0001344
3550	8.68e-05
3562	0.000161
3574	0.0001386
3586	0.0001078
3598	0.0001288
3610	0.0001386
3622	0.0001092
3634	0.0001344
3646	9.66e-05
3658	0.0001442
3670	0.0001358
3682	0.000147
3694	0.0001806
3706	0.0002184
3718	0.0002184
3730	0.000119
3742	0.0001218
3754	0.000126
3766	0.0001302
3778	0.0001918
3790	0.0001708
3802	0.0001344
3814	0.000147
3826	0.0002072
3838	0.0001778
