Infrared Spectrum: 1-Methylchrysene
Formula: C 19 H 14
CAS: 3351-28-8
State: gas
Instrument: HP-GC/MS/IRD
Origin: NIST Mass Spectrometry Data Center
1/CM	ABSORBANCE
550	0.0001807
562	0.0004784
574	0.0004446
586	0.0006851
598	0.000247
610	0.0001937
622	0.0001898
634	1.95e-05
646	2.86e-05
658	6.89e-05
670	0.0002808
682	0.0009815
694	0.0001898
706	0.0001352
718	0.0002951
730	0.0013533
742	0.0027885
754	0.0046969
766	0.013
778	0.0047515
790	0.0063882
802	0.003003
814	0.0036634
826	0.0019682
838	0.0008645
850	0.0014105
862	0.0017797
874	0.0004966
886	0.0003471
898	4.42e-05
910	8.32e-05
922	5.72e-05
934	0.0001157
946	0.0002379
958	0.0002288
970	4.03e-05
982	9.1e-05
994	6.76e-05
1006	0.0001716
1018	0.0002938
1030	0.0011154
1042	0.0002548
1054	9.88e-05
1066	0.000182
1078	0.000598
1090	0.0002587
1102	8.84e-05
1114	7.15e-05
1126	0.0002015
1138	8.97e-05
1150	0.0002821
1162	0.0002808
1174	0.0004004
1186	0.0005382
1198	0.0003289
1210	0.0002912
1222	0.0006435
1234	0.0008593
1246	0.0005278
1258	0.0010413
1270	0.0006812
1282	0.0004784
1294	0.0006084
1306	0.0002093
1318	0.0001794
1330	0.0001625
1342	0.0001989
1354	0.0002353
1366	0.0003211
1378	0.000494
1390	0.0005746
1402	0.0005538
1414	0.0008229
1426	0.0022204
1438	0.0023439
1450	0.0012324
1462	0.0013
1474	0.0010712
1486	0.001417
1498	0.0005369
1510	0.0007683
1522	0.0008879
1534	0.0004693
1546	0.0003744
1558	0.0003523
1570	0.0003107
1582	0.0006266
1594	0.0016042
1606	0.0014053
1618	0.0007956
1630	0.000377
1642	0.0002665
1654	0.0004147
1666	0.0003042
1678	0.0006955
1690	0.000572
1702	0.0003406
1714	0.0003926
1726	0.0005187
1738	0.0005174
1750	0.0004784
1762	0.0008983
1774	0.0007176
1786	0.000403
1798	0.0002548
1810	0.000286
1822	0.0002873
1834	0.0003003
1846	0.0003666
1858	0.000195
1870	0.0001456
1882	0.0003159
1894	0.0004953
1906	0.0006799
1918	0.0006838
1930	0.0004264
1942	0.0004693
1954	9.62e-05
1966	4.16e-05
1978	4.94e-05
1990	5.07e-05
2002	2.73e-05
2014	2.86e-05
2026	2.34e-05
2038	3.77e-05
2050	2.73e-05
2062	2.6e-05
2074	3.12e-05
2086	4.94e-05
2098	4.03e-05
2110	3.25e-05
2122	4.42e-05
2134	2.86e-05
2146	2.34e-05
2158	4.55e-05
2170	5.98e-05
2182	6.5e-05
2194	5.2e-05
2206	4.68e-05
2218	3.25e-05
2230	2.6e-05
2242	4.16e-05
2254	2.99e-05
2266	7.54e-05
2278	4.81e-05
2290	4.94e-05
2302	0.0001014
2314	9.75e-05
2326	6.5e-05
2338	7.28e-05
2350	8.71e-05
2362	9.75e-05
2374	9.88e-05
2386	7.28e-05
2398	4.03e-05
2410	5.59e-05
2422	4.81e-05
2434	6.5e-05
2446	8.32e-05
2458	7.41e-05
2470	5.2e-05
2482	4.55e-05
2494	5.2e-05
2506	6.63e-05
2518	5.85e-05
2530	7.67e-05
2542	4.94e-05
2554	2.86e-05
2566	6.24e-05
2578	4.03e-05
2590	4.42e-05
2602	3.25e-05
2614	4.42e-05
2626	2.47e-05
2638	3.51e-05
2650	3.51e-05
2662	1.95e-05
2674	1.43e-05
2686	2.21e-05
2698	1.82e-05
2710	5.2e-06
2722	3.38e-05
2734	7.15e-05
2746	0.0001508
2758	7.93e-05
2770	5.46e-05
2782	5.07e-05
2794	6.89e-05
2806	0.0001118
2818	0.0001326
2830	0.0001716
2842	0.000221
2854	0.0003562
2866	0.0007306
2878	0.0009841
2890	0.0009607
2902	0.0011232
2914	0.0012363
2926	0.0017459
2938	0.0023725
2950	0.0019357
2962	0.001833
2974	0.0020098
2986	0.0019136
2998	0.001443
3010	0.0016939
3022	0.0025571
3034	0.0032812
3046	0.0046163
3058	0.0062842
3070	0.0066118
3082	0.0050622
3094	0.004797
3106	0.0023296
3118	0.0010205
3130	0.0006578
3142	0.0003614
3154	0.0002392
3166	0.0001508
3178	0.0001963
3190	0.0001872
3202	0.0001664
3214	0.0001547
3226	0.0001131
3238	0.0001365
3250	7.54e-05
3262	0.0001066
3274	5.98e-05
3286	6.89e-05
3298	6.89e-05
3310	9.1e-05
3322	9.23e-05
3334	8.71e-05
3346	0.0001105
3358	1.82e-05
3370	7.28e-05
3382	7.8e-05
3394	8.19e-05
3406	7.93e-05
3418	0.0001313
3430	7.54e-05
3442	0.000143
3454	0.0001274
3466	0.0001092
3478	0.0001092
3490	0.0001235
3502	0.0001001
3514	0.0001222
3526	0.0001534
3538	0.0001794
3550	0.0001547
3562	0.0001846
3574	0.0001521
3586	0.0001417
3598	0.0001027
3610	0.0001495
3622	7.8e-05
3634	0.0001183
3646	0.000234
3658	0.0001573
3670	0.0001612
3682	0.0001911
3694	0.0001274
3706	0.0001118
3718	0.0001456
3730	0.000104
3742	0.0001742
3754	0.0001547
3766	0.0001638
3778	0.0001365
3790	0.0001443
3802	0.0001625
3814	0.0001495
3826	0.0002132
3838	0.0002028
