Infrared Spectrum: Cyclopentyl isothiocyanate
Formula: C 6 H 9 N S
CAS: 33522-03-1
State: gas
Origin: EPA-IR VAPOR PHASE LIBRARY
1/CM	ABSORBANCE
549.8	0.01591
559.445	0.01381
569.09	0.01107
578.734	0.00865
588.379	0.00638
598.024	0.00496
607.669	0.00443
617.313	0.00416
626.958	0.00407
636.603	0.00421
646.248	0.00445
655.893	0.00436
665.537	0.00483
675.182	0.00473
684.827	0.00474
694.472	0.00478
704.116	0.0051
713.761	0.00511
723.406	0.00553
733.051	0.00581
742.695	0.00622
752.34	0.00625
761.985	0.00632
771.63	0.00633
781.275	0.00615
790.919	0.00623
800.564	0.00599
810.209	0.00581
819.854	0.00567
829.498	0.00536
839.143	0.00529
848.788	0.00557
858.433	0.00649
868.078	0.00922
877.722	0.01129
887.367	0.01029
897.012	0.00821
906.657	0.00787
916.301	0.00792
925.946	0.00823
935.591	0.00942
945.236	0.00867
954.88	0.00624
964.525	0.00403
974.17	0.00307
983.815	0.00257
993.46	0.0024
1003.1	0.00232
1012.75	0.00377
1022.39	0.00485
1032.04	0.00481
1041.68	0.00443
1051.33	0.00514
1060.97	0.00545
1070.62	0.00572
1080.26	0.00493
1089.91	0.00409
1099.55	0.0035
1109.2	0.00242
1118.84	0.00299
1128.49	0.00365
1138.13	0.00361
1147.78	0.00444
1157.42	0.00475
1167.07	0.00601
1176.71	0.00825
1186.36	0.00883
1196	0.0079
1205.64	0.00697
1215.29	0.0064
1224.93	0.00529
1234.58	0.00495
1244.22	0.00511
1253.87	0.00526
1263.51	0.0058
1273.16	0.00667
1282.8	0.00878
1292.45	0.01368
1302.09	0.02291
1311.74	0.03081
1321.38	0.03626
1331.03	0.06061
1340.67	0.08546
1350.32	0.07441
1359.96	0.03816
1369.61	0.01523
1379.25	0.00796
1388.9	0.00528
1398.54	0.00411
1408.18	0.00382
1417.83	0.0042
1427.47	0.00581
1437.12	0.00874
1446.76	0.01178
1456.41	0.01231
1466.05	0.01074
1475.7	0.0095
1485.34	0.00759
1494.99	0.00484
1504.63	0.0031
1514.28	0.00222
1523.92	0.00173
1533.57	0.0014058
1543.21	0.0012973
1552.86	0.0012346
1562.5	0.0011707
1572.15	0.001175
1581.79	0.0010849
1591.44	0.0009341
1601.08	0.0010591
1610.73	0.0010915
1620.37	0.0011954
1630.01	0.001279
1639.66	0.0012726
1649.3	0.0014119
1658.95	0.00157
1668.59	0.00168
1678.24	0.00168
1687.88	0.00172
1697.53	0.00176
1707.17	0.00172
1716.82	0.00158
1726.46	0.0016
1736.11	0.00153
1745.75	0.00146
1755.4	0.0013341
1765.04	0.0013274
1774.69	0.0013049
1784.33	0.0012994
1793.98	0.0013468
1803.62	0.00147
1813.27	0.00161
1822.91	0.00185
1832.55	0.00205
1842.2	0.00236
1851.84	0.00268
1861.49	0.00326
1871.13	0.00424
1880.78	0.00568
1890.42	0.00776
1900.07	0.01049
1909.71	0.01403
1919.36	0.01878
1929	0.0242
1938.65	0.03017
1948.29	0.0376
1957.94	0.04737
1967.58	0.06015
1977.23	0.07677
1986.87	0.09921
1996.52	0.13081
2006.16	0.17774
2015.81	0.2454
2025.45	0.33275
2035.1	0.42715
2044.74	0.50274
2054.38	0.52123
2064.03	0.45972
2073.67	0.3699
2083.32	0.28094
2092.96	0.21171
2102.61	0.1748
2112.25	0.15659
2121.9	0.14758
2131.54	0.14568
2141.19	0.13802
2150.83	0.11523
2160.48	0.08747
2170.12	0.06399
2179.77	0.04736
2189.41	0.03677
2199.06	0.03097
2208.7	0.02817
2218.35	0.02656
2227.99	0.02487
2237.64	0.02164
2247.28	0.01677
2256.92	0.01216
2266.57	0.00907
2276.21	0.00711
2285.86	0.00578
2295.5	0.0048
2305.15	0.00406
2314.79	0.00344
2324.44	0.00301
2334.08	0.00279
2343.73	0.00242
2353.37	0.00241
2363.02	0.00231
2372.66	0.00223
2382.31	0.00223
2391.95	0.00224
2401.6	0.00215
2411.24	0.00217
2420.89	0.00205
2430.53	0.00205
2440.18	0.00203
2449.82	0.00192
2459.47	0.00195
2469.11	0.00208
2478.75	0.00203
2488.4	0.00206
2498.04	0.00209
2507.69	0.0021
2517.33	0.00211
2526.98	0.00225
2536.62	0.0025
2546.27	0.00269
2555.91	0.003
2565.56	0.00306
2575.2	0.00317
2584.85	0.00346
2594.49	0.00381
2604.14	0.00369
2613.78	0.00308
2623.43	0.00254
2633.07	0.00236
2642.72	0.00241
2652.36	0.00262
2662.01	0.00296
2671.65	0.00316
2681.29	0.00361
2690.94	0.00416
2700.58	0.00438
2710.23	0.00452
2719.87	0.00467
2729.52	0.00458
2739.16	0.00438
2748.81	0.00403
2758.45	0.00372
2768.1	0.00344
2777.74	0.00335
2787.39	0.00331
2797.03	0.00342
2806.68	0.00364
2816.32	0.00395
2825.97	0.00458
2835.61	0.00582
2845.26	0.00792
2854.9	0.01135
2864.55	0.01761
2874.19	0.0269
2883.84	0.03405
2893.48	0.03434
2903.12	0.03111
2912.77	0.03389
2922.41	0.04091
2932.06	0.05234
2941.7	0.06719
2951.35	0.08558
2960.99	0.10874
2970.64	0.13638
2980.28	0.12569
2989.93	0.07159
2999.57	0.0357
3009.22	0.02111
3018.86	0.01345
3028.51	0.00842
3038.15	0.00557
3047.8	0.00381
3057.44	0.003
3067.09	0.00253
3076.73	0.00186
3086.38	0.00153
3096.02	0.00143
3105.67	0.0011555
3115.31	0.0012124
3124.95	0.00085
3134.6	0.0008297
3144.24	0.0008576
3153.89	0.0007091
3163.53	0.000741
3173.18	0.0005214
3182.82	0.000297
3192.47	0.0006116
3202.11	0.00047488
3211.76	0.0003486
3221.4	0.000132
3231.05	0.0003823
3240.69	8e-05
3250.34	0.00013
3259.98	0.0004353
3269.63	0.0003326
3279.27	0.000257
3288.92	0.000298
3298.56	6.4e-05
3308.21	0.000219
3317.85	0.000142
3327.49	0.000318
3337.14	0.000295
3346.78	0.0003367
3356.43	0.0004098
3366.07	0.000293
3375.72	0.000157
3385.36	0.000197
3395.01	0.000198
3404.65	0.000258
3414.3	0.0003896
3423.94	0.000228
3433.59	0.000188
3443.23	0.000183
3452.88	0.000428253
3462.52	0.00025
3472.17	0.000319
3481.81	0.000294
3491.46	0.0003396
3501.1	0.000248
3510.75	0.00046461
3520.39	0.00047151
3530.04	0.0003782
3539.68	0.000427415
3549.32	0.000311
3558.97	0.0003845
3568.61	0.00047833
3578.26	0.0003643
3587.9	0.0004056
3597.55	0.0005471
3607.19	0.0003221
3616.84	0.00043298
3626.48	0.00027
3636.13	0.00051716
3645.77	0.00045866
3655.42	0.000298
3665.06	0.0003703
3674.71	0.00049754
3684.35	0.0005712
3694	0.00051909
3703.64	0.0003729
3713.29	0.00041231
3722.93	0.00047801
3732.58	0.0007252
3742.22	0.000695
3751.86	0.000656
3761.51	0.000548
3771.15	0.00045896
3780.8	0.0007529
3790.44	0.0007012
3800.09	0.0005508
3809.73	0.0007494
3819.38	0.0005975
3829.02	0.0005305
3838.67	0.0007584
3848.31	0.0007656
3857.96	0.0008999
3867.6	0.0010602
3877.25	0.0009002
3886.89	0.0010985
3896.54	0.0009711
3906.18	0.0007778
3915.83	0.0010295
3925.47	0.0009463
3935.12	0.0012451
3944.76	0.00143
3954.41	0.00149
3964.05	0.0013743
3973.69	0.00175
3983.34	0.00167
3992.98	0.00187
