Infrared Spectrum: Cycloocctyl isothiocyanate
Formula: C 9 H 17 N S
CAS: 33522-04-2
State: gas
Origin: EPA-IR VAPOR PHASE LIBRARY
1/CM	ABSORBANCE
549.8	0.007705
559.445	0.006915
569.09	0.005775
578.734	0.004535
588.379	0.003545
598.024	0.002965
607.669	0.002425
617.313	0.002105
626.958	0.001745
636.603	0.002025
646.248	0.002075
655.893	0.002435
665.537	0.002795
675.182	0.003335
684.827	0.004485
694.472	0.005435
704.116	0.005585
713.761	0.005875
723.406	0.006255
733.051	0.006465
742.695	0.005445
752.34	0.004705
761.985	0.005275
771.63	0.005455
781.275	0.005995
790.919	0.006205
800.564	0.005925
810.209	0.005215
819.854	0.003915
829.498	0.003905
839.143	0.004215
848.788	0.004625
858.433	0.004395
868.078	0.002925
877.722	0.002175
887.367	0.001995
897.012	0.002005
906.657	0.003425
916.301	0.004875
925.946	0.005715
935.591	0.005505
945.236	0.004605
954.88	0.004385
964.525	0.003965
974.17	0.003625
983.815	0.003615
993.46	0.003645
1003.1	0.004125
1012.75	0.004665
1022.39	0.005645
1032.04	0.005385
1041.68	0.004125
1051.33	0.003565
1060.97	0.003835
1070.62	0.004215
1080.26	0.004935
1089.91	0.005325
1099.55	0.004405
1109.2	0.004585
1118.84	0.004605
1128.49	0.004045
1138.13	0.003095
1147.78	0.002855
1157.42	0.002835
1167.07	0.002615
1176.71	0.002245
1186.36	0.001975
1196	0.002575
1205.64	0.002635
1215.29	0.002975
1224.93	0.004285
1234.58	0.005105
1244.22	0.005065
1253.87	0.005415
1263.51	0.006475
1273.16	0.007575
1282.8	0.010495
1292.45	0.015395
1302.09	0.023925
1311.74	0.026835
1321.38	0.025165
1331.03	0.024015
1340.67	0.018165
1350.32	0.018165
1359.96	0.023475
1369.61	0.023735
1379.25	0.014625
1388.9	0.005765
1398.54	0.003485
1408.18	0.002985
1417.83	0.003225
1427.47	0.004645
1437.12	0.010125
1446.76	0.020015
1456.41	0.022205
1466.05	0.019085
1475.7	0.017545
1485.34	0.010655
1494.99	0.004595
1504.63	0.002385
1514.28	0.001655
1523.92	0.0012486
1533.57	0.0011671
1543.21	0.0010598
1552.86	0.0009389
1562.5	0.0009485
1572.15	0.0010153
1581.79	0.0009092
1591.44	0.0008888
1601.08	0.0008564
1610.73	0.0009068
1620.37	0.0008478
1630.01	0.0009649
1639.66	0.0009465
1649.3	0.0009459
1658.95	0.0008893
1668.59	0.0009088
1678.24	0.0008629
1687.88	0.0008531
1697.53	0.0009179
1707.17	0.0008567
1716.82	0.0009239
1726.46	0.000905
1736.11	0.0009289
1745.75	0.00097
1755.4	0.0009117
1765.04	0.0009681
1774.69	0.0010743
1784.33	0.0010652
1793.98	0.0011414
1803.62	0.0011734
1813.27	0.0013248
1822.91	0.0013581
1832.55	0.001485
1842.2	0.001655
1851.84	0.001705
1861.49	0.002055
1871.13	0.002425
1880.78	0.003025
1890.42	0.003795
1900.07	0.004985
1909.71	0.006695
1919.36	0.009165
1929	0.012405
1938.65	0.016675
1948.29	0.022565
1957.94	0.030295
1967.58	0.040315
1977.23	0.053295
1986.87	0.070525
1996.52	0.094555
2006.16	0.127165
2015.81	0.167495
2025.45	0.210505
2035.1	0.246885
2044.74	0.267625
2054.38	0.264135
2064.03	0.228235
2073.67	0.177835
2083.32	0.144495
2092.96	0.135385
2102.61	0.134665
2112.25	0.126625
2121.9	0.106605
2131.54	0.084105
2141.19	0.068085
2150.83	0.058375
2160.48	0.051675
2170.12	0.045485
2179.77	0.038335
2189.41	0.030445
2199.06	0.022925
2208.7	0.017225
2218.35	0.012965
2227.99	0.010145
2237.64	0.008125
2247.28	0.006525
2256.92	0.005145
2266.57	0.004115
2276.21	0.003345
2285.86	0.002805
2295.5	0.002495
2305.15	0.002215
2314.79	0.002115
2324.44	0.001925
2334.08	0.001755
2343.73	0.001595
2353.37	0.001465
2363.02	0.0013365
2372.66	0.0012808
2382.31	0.0012338
2391.95	0.0012442
2401.6	0.001317
2411.24	0.0013149
2420.89	0.0012644
2430.53	0.0012582
2440.18	0.0012423
2449.82	0.0013016
2459.47	0.001185
2469.11	0.0012659
2478.75	0.001134
2488.4	0.0012031
2498.04	0.0012996
2507.69	0.001191
2517.33	0.0014209
2526.98	0.001575
2536.62	0.001675
2546.27	0.001955
2555.91	0.002235
2565.56	0.002455
2575.2	0.002595
2584.85	0.002705
2594.49	0.002555
2604.14	0.002425
2613.78	0.002325
2623.43	0.002295
2633.07	0.002525
2642.72	0.002635
2652.36	0.002705
2662.01	0.002865
2671.65	0.003295
2681.29	0.003865
2690.94	0.004235
2700.58	0.004555
2710.23	0.004325
2719.87	0.003895
2729.52	0.003565
2739.16	0.003365
2748.81	0.003205
2758.45	0.003135
2768.1	0.003145
2777.74	0.003435
2787.39	0.003575
2797.03	0.004045
2806.68	0.004665
2816.32	0.005135
2825.97	0.005855
2835.61	0.007255
2845.26	0.011885
2854.9	0.026985
2864.55	0.041565
2874.19	0.037305
2883.84	0.030035
2893.48	0.031725
2903.12	0.046445
2912.77	0.071735
2922.41	0.120005
2932.06	0.180785
2941.7	0.172295
2951.35	0.110205
2960.99	0.065365
2970.64	0.033895
2980.28	0.016245
2989.93	0.008395
2999.57	0.005255
3009.22	0.003675
3018.86	0.002865
3028.51	0.002275
3038.15	0.001835
3047.8	0.001535
3057.44	0.001555
3067.09	0.0013084
3076.73	0.0009486
3086.38	0.0009362
3096.02	0.0011597
3105.67	0.0008697
3115.31	0.0008695
3124.95	0.0008272
3134.6	0.0007475
3144.24	0.0005543
3153.89	0.0008436
3163.53	0.0006064
3173.18	0.00054133
3182.82	0.00048853
3192.47	0.00047172
3202.11	0.0003645
3211.76	0.00051727
3221.4	7.8e-05
3231.05	0.000261
3240.69	0.000342
3250.34	0.000258
3259.98	0.0003494
3269.63	0.000187
3279.27	9.4e-05
3288.92	0.000273
3298.56	0.000219
3308.21	0.000185
3317.85	0.000204
3327.49	4.6e-05
3337.14	7.3e-05
3346.78	0.000179
3356.43	0.0003775
3366.07	0.000225
3375.72	0.00014
3385.36	0.0003532
3395.01	0.000155
3404.65	0.000152
3414.3	0.000319
3423.94	0.000311
3433.59	0.000299
3443.23	0.000336
3452.88	0.000236
3462.52	0.000257
3472.17	0.00023
3481.81	0.000227
3491.46	2.6e-05
3501.1	9.6e-05
3510.75	4.8e-05
3520.39	0.000175
3530.04	4.5e-05
3539.68	8.4e-05
3549.32	0.000233
3558.97	9.4e-05
3568.61	2.8e-05
3578.26	6e-05
3587.9	8.9e-05
3597.55	0.000136
3607.19	0.000135
3616.84	0.000319
3626.48	0.000195
3636.13	0.000254
3645.77	0.000328
3655.42	0.000317
3665.06	0.0003505
3674.71	0.0004088
3684.35	0.000261
3694	0.000257
3703.64	0.000232
3713.29	0.000375
3722.93	0.0003875
3732.58	0.00022
3742.22	0.000452205
3751.86	0.0004231
3761.51	0.000258
3771.15	0.00051464
3780.8	0.0003881
3790.44	0.00049577
3800.09	0.0004308
3809.73	0.000302
3819.38	0.000151
3829.02	0.0004293
3838.67	0.0006508
3848.31	0.0004277
3857.96	0.0006268
3867.6	0.0005684
3877.25	0.0006049
3886.89	0.0005476
3896.54	0.0004139
3906.18	0.000416
3915.83	0.0006994
3925.47	0.0007707
3935.12	0.0008544
3944.76	0.0009481
3954.41	0.0010626
3964.05	0.000979
3973.69	0.0010329
3983.34	0.0010495
3992.98	0.0013956
