Infrared Spectrum: Diethylenetriamine, 4-[2-(dimethylamino)ethyl]-1,1,7,7-tetramethyl-
Formula: C12 H30 N4
CAS: 33527-91-2
State: SOLUTION (10% CCl4 FOR 3800-1330, 10% CS2 FOR 1330-400 CM^-^1)
Class: COBLENTZ III
Instrument: DOW KBr FOREPRISM-GRATING
Instrument parameters: BLAZED AT 3.5, 12.0, 20.0 MICRON AND CHANGED AT 5.0, 7.5, 14.9 MICRON
Sampling: TRANSMISSION
Path length: 0.011 CM, 0.012 CM
Resolution: 2
Origin: DOW CHEMICAL COMPANY
1/CM	TRANSMITTANCE
3796	0.8857
3787	0.8864
3778	0.8867
3769	0.8874
3760	0.8888
3751	0.8882
3742	0.8886
3733	0.8889
3724	0.8907
3715	0.8909
3706	0.8926
3697	0.8916
3688	0.8849
3679	0.8753
3670	0.8818
3661	0.8832
3652	0.8849
3643	0.8853
3634	0.8858
3625	0.8875
3616	0.8875
3607	0.8864
3598	0.8839
3589	0.8832
3580	0.8816
3571	0.8781
3562	0.8765
3553	0.8739
3544	0.8716
3535	0.8693
3526	0.863
3517	0.8581
3508	0.8534
3499	0.849
3490	0.8454
3481	0.8417
3472	0.8381
3463	0.8347
3454	0.8319
3445	0.829
3436	0.8261
3427	0.8233
3418	0.8212
3409	0.8199
3400	0.8186
3391	0.8176
3382	0.8174
3373	0.8173
3364	0.8172
3355	0.817
3346	0.817
3337	0.8189
3328	0.8179
3319	0.8181
3310	0.8202
3301	0.819
3292	0.8194
3283	0.8213
3274	0.8218
3265	0.8222
3256	0.8211
3247	0.8222
3238	0.8197
3229	0.817
3220	0.8133
3211	0.8114
3202	0.809
3193	0.8106
3184	0.8106
3175	0.8128
3166	0.815
3157	0.8175
3148	0.8169
3139	0.8186
3130	0.8188
3121	0.8186
3112	0.8186
3103	0.8205
3094	0.827
3085	0.821
3076	0.8226
3067	0.8188
3058	0.8158
3049	0.8101
3040	0.8061
3031	0.7804
3022	0.7523
3013	0.7145
3004	0.5375
2995	0.3108
2986	0.0536
2977	0.0479
2968	0.0489
2959	0.025
2950	0.0239
2941	0.0589
2932	0.0998
2923	0.1534
2914	0.1958
2905	0.2137
2896	0.2201
2887	0.2191
2878	0.2029
2869	0.1245
2860	0.0997
2851	0.0918
2842	0.0705
2833	0.0193
2824	0.0123
2815	0.0179
2806	0.0209
2797	0.0217
2788	0.0154
2779	0.0123
2770	0.0187
2761	0.0467
2752	0.0883
2743	0.2682
2734	0.3218
2725	0.3351
2716	0.3727
2707	0.4452
2698	0.512
2689	0.5384
2680	0.5898
2671	0.6504
2662	0.6952
2653	0.7223
2644	0.7413
2635	0.7612
2626	0.7825
2617	0.797
2608	0.8061
2599	0.814
2590	0.8213
2581	0.827
2572	0.8324
2563	0.8357
2554	0.8374
2545	0.8378
2536	0.8378
2527	0.8366
2518	0.8336
2509	0.8286
2500	0.8288
2491	0.8343
2482	0.8437
2473	0.8577
2464	0.8698
2455	0.8727
2446	0.8753
2437	0.875
2428	0.8759
2419	0.8775
2410	0.8802
2401	0.8822
2392	0.8826
2383	0.8855
2374	0.8892
2365	0.8836
2356	0.8854
2347	0.8849
2338	0.8795
2329	0.882
2320	0.8865
2311	0.8872
2302	0.8886
2293	0.8933
2284	0.8952
2275	0.8936
2266	0.8932
2257	0.8902
2248	0.889
2239	0.8888
2230	0.8877
2221	0.8865
2212	0.8872
2203	0.8878
2194	0.8884
2185	0.8872
2176	0.8889
2167	0.8874
2158	0.8871
2149	0.8865
2140	0.8857
2131	0.8845
2122	0.8821
2113	0.8817
2104	0.8798
2095	0.8779
2086	0.8784
2077	0.8794
2068	0.8803
2059	0.8811
2050	0.8834
2041	0.882
2032	0.8824
2023	0.8845
2014	0.8849
2005	0.8819
1996	0.8599
1987	0.883
1978	0.8813
1969	0.8837
1960	0.8874
1951	0.8863
1942	0.8837
1933	0.8818
1924	0.88
1915	0.879
1906	0.8797
1897	0.8796
1888	0.8781
1879	0.8798
1870	0.8821
1861	0.8832
1852	0.8844
1843	0.8844
1834	0.8829
1825	0.8827
1816	0.8845
1807	0.8838
1798	0.8858
1789	0.8875
1780	0.8879
1771	0.8856
1762	0.8846
1753	0.8835
1744	0.88
1735	0.8778
1726	0.877
1717	0.8765
1708	0.8736
1699	0.8516
1690	0.8026
1681	0.8113
1672	0.841
1663	0.8322
1654	0.8274
1645	0.8428
1636	0.85
1627	0.8555
1618	0.8569
1609	0.8586
1600	0.853
1591	0.8565
1582	0.8427
1573	0.8419
1564	0.8134
1555	0.8048
1546	0.8633
1537	0.8788
1528	0.8526
1519	0.8442
1510	0.823
1501	0.7857
1492	0.7244
1483	0.5525
1474	0.3356
1465	0.0651
1456	0.1256
1447	0.2189
1438	0.4096
1429	0.6365
1420	0.6817
1411	0.7436
1402	0.7553
1393	0.7562
1384	0.7321
1375	0.6836
1366	0.5864
1357	0.6202
1348	0.604
1339	0.5287
1330	0.5174
1321	0.5258
1312	0.4565
1303	0.3982
1294	0.3456
1285	0.3352
1276	0.4276
1267	0.3576
1258	0.4936
1249	0.6812
1240	0.7369
1231	0.7524
1222	0.7565
1213	0.7605
1204	0.747
1195	0.7129
1186	0.6742
1177	0.6085
1168	0.4608
1159	0.4435
1150	0.4408
1141	0.4224
1132	0.3545
1123	0.2605
1114	0.4483
1105	0.6805
1096	0.4952
1087	0.6645
1078	0.584
1069	0.5477
1060	0.5005
1051	0.4171
1042	0.1211
1033	0.0654
1024	0.2045
1015	0.4444
1006	0.7079
997	0.8075
988	0.8228
979	0.813
970	0.7976
961	0.7755
952	0.723
943	0.6364
934	0.6724
925	0.8156
916	0.8541
907	0.84
898	0.7995
889	0.7749
880	0.7558
871	0.6996
862	0.6519
853	0.6593
844	0.6765
835	0.6896
826	0.7338
817	0.7336
808	0.713
799	0.6751
790	0.6279
781	0.6801
772	0.7588
763	0.8247
754	0.8859
745	0.9286
736	0.9422
727	0.9519
718	0.9561
709	0.9573
700	0.9603
691	0.9613
682	0.9604
673	0.9657
664	0.9522
655	0.9148
646	0.9498
637	0.9483
628	0.9489
619	0.9473
610	0.9424
601	0.9325
592	0.9178
583	0.9035
574	0.8941
565	0.8922
556	0.8922
547	0.8915
538	0.8897
529	0.8872
520	0.8752
511	0.8557
502	0.8357
493	0.8157
484	0.797
475	0.7744
466	0.7478
457	0.7071
448	0.6519
439	0.5663
430	0.4479
421	0.2826
412	0.1948
