Infrared Spectrum: 2-ALLYL-6-t-BUTYLPHENOL
Formula: C13 H18 O
CAS: 3354-55-0
Class: COBLENTZ
Instrument: PERKIN-ELMER
Sampling: TRANSMISSION
Path length: CAPILLARY
Resolution: 4
Origin: ABBOTT LABORATORIES - WASHBURN
MICROMETERS	TRANSMITTANCE
2.473	0.9
2.50642	0.898
2.53984	0.9
2.57326	0.897
2.60668	0.8971
2.6401	0.897
2.67352	0.8979
2.70694	0.9013
2.74036	0.8857
2.77378	0.7709
2.8072	0.6241
2.84062	0.3448
2.87404	0.4364
2.90746	0.6789
2.94088	0.7998
2.9743	0.8547
3.00772	0.8679
3.04114	0.882
3.07456	0.882
3.10798	0.89
3.1414	0.8832
3.17482	0.885
3.20824	0.883
3.24166	0.8759
3.27508	0.7019
3.3085	0.697
3.34192	0.6274
3.37534	0.4134
3.40876	0.2241
3.44218	0.28
3.4756	0.3363
3.50902	0.4142
3.54244	0.6895
3.57586	0.783
3.60928	0.8569
3.6427	0.8829
3.67612	0.897
3.70954	0.898
3.74296	0.898
3.77638	0.901
3.8098	0.9
3.84322	0.9
3.87664	0.9099
3.91006	0.91
3.94348	0.91
3.97689	0.9082
4.01031	0.905
4.04373	0.9009
4.07715	0.9009
4.11057	0.9
4.14399	0.893
4.17741	0.892
4.21083	0.892
4.24425	0.887
4.27767	0.8929
4.31109	0.895
4.34451	0.893
4.37793	0.8921
4.41135	0.8871
4.44477	0.882
4.47819	0.883
4.51161	0.887
4.54503	0.89
4.57845	0.888
4.61187	0.883
4.64529	0.887
4.67871	0.882
4.71213	0.878
4.74555	0.878
4.77897	0.878
4.81239	0.878
4.84581	0.873
4.87923	0.8702
4.91265	0.87
4.94607	0.868
4.97949	0.8678
5.01291	0.87
5.04633	0.8652
5.07975	0.8552
5.11317	0.862
5.14659	0.868
5.18001	0.8672
5.21343	0.865
5.24685	0.8403
5.28027	0.83
5.31369	0.8393
5.34711	0.848
5.38053	0.8388
5.41395	0.8087
5.44737	0.7996
5.48079	0.8103
5.51421	0.825
5.54763	0.838
5.58105	0.838
5.61447	0.842
5.64789	0.8458
5.68131	0.8512
5.71473	0.855
5.74815	0.855
5.78157	0.855
5.81499	0.855
5.84841	0.85
5.88183	0.8475
5.91525	0.838
5.94867	0.8279
5.98209	0.827
6.01551	0.8282
6.04893	0.8268
6.08235	0.8202
6.11577	0.745
6.14919	0.5507
6.18261	0.7019
6.21603	0.7844
6.24945	0.7873
6.28287	0.7555
6.31629	0.7227
6.34971	0.7127
6.38313	0.7944
6.41655	0.818
6.44997	0.8343
6.48339	0.8373
6.51681	0.832
6.55023	0.828
6.58365	0.827
6.61707	0.8241
6.65049	0.807
6.68391	0.7835
6.71733	0.7458
6.75075	0.7171
6.78417	0.3881
6.81759	0.4745
6.85101	0.4769
6.88443	0.4607
6.91784	0.3204
6.95126	0.1426
6.98468	0.114
7.0181	0.1295
7.05152	0.1931
7.08494	0.4166
7.11836	0.5744
7.15178	0.6011
7.1852	0.6482
7.21862	0.655
7.25204	0.4967
7.28546	0.6973
7.31888	0.7399
7.3523	0.7055
7.38572	0.3551
7.41914	0.419
7.45256	0.604
7.48598	0.7007
7.5194	0.6266
7.55282	0.5167
7.58624	0.4392
7.61966	0.4976
7.65308	0.5711
7.6865	0.607
7.71992	0.5712
7.75334	0.551
7.78676	0.5534
7.82018	0.5407
7.8536	0.3811
7.88702	0.382
7.92044	0.4892
7.95386	0.4046
7.98728	0.3578
8.0207	0.3489
8.05412	0.2796
8.08754	0.3715
8.12096	0.5489
8.15438	0.5727
8.1878	0.563
8.22122	0.5776
8.25464	0.5231
8.28806	0.2672
8.32148	0.1713
8.3549	0.139
8.38832	0.1629
8.42174	0.21
8.45516	0.1913
8.48858	0.1986
8.522	0.25
8.55542	0.3009
8.58884	0.3522
8.62226	0.427
8.65568	0.4954
8.6891	0.5911
8.72252	0.6448
8.75594	0.6713
8.78936	0.6701
8.82278	0.4859
8.8562	0.416
8.88962	0.4528
8.92304	0.5561
8.95646	0.6018
8.98988	0.6598
9.0233	0.6851
9.05672	0.6733
9.09014	0.5913
9.12356	0.5503
9.15698	0.5504
9.1904	0.5373
9.22382	0.4569
9.25724	0.362
9.29066	0.4115
9.32408	0.5351
9.3575	0.6095
9.39092	0.6681
9.42434	0.7072
9.45776	0.7291
9.49118	0.7441
9.5246	0.7547
9.55802	0.7617
9.59144	0.7749
9.62486	0.7837
9.65828	0.792
9.6917	0.797
9.72512	0.7942
9.75854	0.7904
9.79196	0.7857
9.82538	0.7758
9.85879	0.7458
9.89221	0.7396
9.92563	0.7478
9.95905	0.732
9.99247	0.6448
10.0259	0.4645
10.0593	0.362
10.0927	0.3944
10.1262	0.4962
10.1596	0.5817
10.193	0.6673
10.2264	0.7144
10.2598	0.7414
10.2933	0.76
10.3267	0.7707
10.3601	0.774
10.3935	0.774
10.4269	0.7699
10.4604	0.7543
10.4938	0.7349
10.5272	0.73
10.5606	0.7302
10.594	0.7286
10.6275	0.7189
10.6609	0.7053
10.6943	0.6566
10.7277	0.6116
10.7611	0.4782
10.7946	0.4226
10.828	0.3391
10.8614	0.3179
10.8948	0.2896
10.9282	0.2866
10.9617	0.2998
10.9951	0.3675
11.0285	0.4273
11.0619	0.5019
11.0953	0.549
11.1288	0.595
11.1622	0.6364
11.1956	0.6824
11.229	0.7077
11.2624	0.7302
11.2959	0.7444
11.3293	0.745
11.3627	0.7383
11.3961	0.695
11.4295	0.5757
11.4629	0.5504
11.4964	0.5999
11.5298	0.6492
11.5632	0.7044
11.5966	0.7406
11.63	0.7623
11.6635	0.7702
11.6969	0.774
11.7303	0.774
11.7637	0.774
11.7971	0.774
11.8306	0.7691
11.864	0.7496
11.8974	0.6893
11.9308	0.5647
11.9642	0.5457
11.9977	0.5866
12.0311	0.6388
12.0645	0.6711
12.0979	0.6994
12.1313	0.7296
12.1648	0.7475
12.1982	0.7589
12.2316	0.76
12.265	0.759
12.2984	0.7596
12.3319	0.7628
12.3653	0.7579
12.3987	0.7512
12.4321	0.7409
12.4655	0.7332
12.499	0.7176
12.5324	0.636
12.5658	0.4251
12.5992	0.3614
12.6326	0.4476
12.6661	0.5448
12.6995	0.6011
12.7329	0.6053
12.7663	0.4553
12.7997	0.3501
12.8332	0.3379
12.8666	0.4269
12.9	0.5005
12.9334	0.5563
12.9668	0.5942
13.0003	0.6281
13.0337	0.6829
13.0671	0.6999
13.1005	0.7098
13.1339	0.712
13.1674	0.71
13.2008	0.6894
13.2342	0.652
13.2676	0.5636
13.301	0.387
13.3345	0.2378
13.3679	0.1322
13.4013	0.1072
13.4347	0.101
13.4681	0.1344
13.5016	0.2328
13.535	0.392
13.5684	0.4968
13.6018	0.5671
13.6352	0.6278
13.6687	0.6637
13.7021	0.693
13.7355	0.702
13.7689	0.7093
13.8023	0.7155
13.8358	0.722
13.8692	0.727
13.9026	0.73
13.936	0.732
13.9694	0.735
14.0029	0.732
14.0363	0.7321
14.0697	0.732
14.1031	0.73
14.1365	0.725
14.17	0.7203
14.2034	0.7123
14.2368	0.6978
14.2702	0.691
14.3036	0.6815
14.3371	0.6651
14.3705	0.6546
14.4039	0.6447
14.4373	0.6279
14.4707	0.6114
14.5042	0.5968
14.5376	0.588
14.571	0.5886
14.6044	0.5976
14.6378	0.6065
14.6713	0.6226
14.7047	0.6351
14.7381	0.6463
14.7715	0.652
14.8049	0.657
14.8384	0.659
14.8718	0.659
14.9052	0.661
14.9386	0.662
14.972	0.6617
15.0055	0.661
15.0389	0.661
15.0723	0.6619
15.1057	0.661
15.1391	0.661
15.1726	0.661
15.206	0.6589
15.2394	0.6589
15.2728	0.652
15.3062	0.6461
15.3397	0.6443
15.3731	0.644
15.4065	0.639
15.4399	0.634
