Infrared Spectrum: Alpha,Alpha,Alpha,2,4-PENTACHLOROACETANILIDE
Formula: C8 H4 Cl5 N O
CAS: 33560-54-2
State: SOLID (MINERAL OIL MULL)
Class: COBLENTZ
Instrument: Not specified, most likely a prism, grating, or hybrid spectrometer.
Sampling: TRANSMISSION
Resolution: 4
Origin: DOW CHEMICAL COMPANY
MICROMETERS	TRANSMITTANCE
2.033	0.377
2.073	0.387
2.113	0.4
2.153	0.412
2.193	0.42
2.233	0.424
2.27301	0.429
2.31301	0.442
2.35301	0.454
2.39301	0.464
2.43301	0.474
2.47301	0.487
2.51301	0.502
2.55301	0.507
2.59301	0.519
2.63301	0.527
2.67302	0.537
2.71302	0.552
2.75302	0.554
2.79302	0.56
2.83302	0.565
2.87302	0.57
2.91302	0.527
2.95302	0.442
2.99302	0.555
3.03302	0.567
3.07303	0.575
3.11303	0.582
3.15303	0.584
3.19303	0.564
3.23303	0.569
3.27303	0.554
3.31303	0.492
3.35303	0.247
3.39303	0.144
3.43303	0.284
3.47303	0.339
3.51304	0.707
3.55304	0.735
3.59304	0.742
3.63304	0.742
3.67304	0.738
3.71304	0.742
3.75304	0.752
3.79304	0.758
3.83304	0.765
3.87304	0.77
3.91305	0.773
3.95305	0.778
3.99305	0.783
4.03305	0.792
4.07305	0.793
4.11305	0.793
4.15305	0.8
4.19305	0.8
4.23305	0.805
4.27305	0.818
4.31305	0.82
4.35306	0.821
4.39306	0.826
4.43306	0.828
4.47306	0.831
4.51306	0.831
4.55306	0.836
4.59306	0.838
4.63306	0.841
4.67306	0.845
4.71306	0.851
4.75307	0.856
4.79307	0.856
4.83307	0.858
4.87307	0.868
4.91307	0.87
4.95307	0.875
4.99307	0.88
5.03307	0.883
5.07307	0.885
5.11307	0.888
5.15308	0.886
5.19308	0.886
5.23308	0.871
5.27308	0.895
5.31308	0.901
5.35308	0.903
5.39308	0.903
5.43308	0.905
5.47308	0.901
5.51308	0.903
5.55308	0.906
5.59309	0.911
5.63309	0.91
5.67309	0.901
5.71309	0.737
5.75309	0.505
5.79309	0.156
5.83309	0.612
5.87309	0.768
5.91309	0.813
5.95309	0.831
5.9931	0.858
6.0331	0.861
6.0731	0.866
6.1131	0.88
6.1531	0.866
6.1931	0.792
6.2331	0.658
6.2731	0.396
6.3131	0.376
6.3531	0.73
6.3931	0.78
6.43311	0.758
6.47311	0.665
6.51311	0.447
6.55311	0.287
6.59311	0.251
6.63311	0.332
6.67311	0.497
6.71311	0.628
6.75311	0.603
6.79311	0.415
6.83312	0.396
6.87312	0.595
6.91312	0.685
6.95312	0.76
6.99312	0.777
7.03312	0.826
7.07312	0.82
7.11312	0.755
7.15312	0.58
7.19312	0.432
7.23313	0.529
7.27313	0.67
7.31313	0.773
7.35313	0.826
7.39313	0.841
7.43313	0.851
7.47313	0.861
7.51313	0.85
7.55313	0.795
7.59313	0.673
7.63313	0.469
7.67314	0.608
7.71314	0.775
7.75314	0.825
7.79314	0.848
7.83314	0.856
7.87314	0.855
7.91314	0.855
7.95314	0.873
7.99314	0.841
8.03314	0.805
8.07315	0.82
8.11315	0.863
8.15315	0.875
8.19315	0.876
8.23315	0.878
8.27315	0.806
8.31315	0.692
8.35315	0.668
8.39315	0.763
8.43315	0.808
8.47315	0.833
8.51316	0.841
8.55316	0.848
8.59316	0.84
8.63316	0.825
8.67316	0.816
8.71316	0.81
8.75316	0.828
8.79316	0.858
8.83316	0.861
8.87316	0.861
8.91317	0.865
8.95317	0.843
8.99317	0.811
9.03317	0.747
9.07317	0.618
9.11317	0.717
9.15317	0.813
9.19317	0.838
9.23317	0.873
9.27317	0.883
9.31318	0.886
9.35318	0.888
9.39318	0.886
9.43318	0.788
9.47318	0.625
9.51318	0.777
9.55318	0.855
9.59318	0.87
9.63318	0.886
9.67318	0.89
9.71318	0.89
9.75319	0.89
9.79319	0.89
9.83319	0.893
9.87319	0.903
9.91319	0.908
9.95319	0.915
9.99319	0.92
10.0332	0.921
10.0732	0.923
10.1132	0.926
10.1532	0.931
10.1932	0.923
10.2332	0.926
10.2732	0.918
10.3132	0.881
10.3532	0.873
10.3932	0.9
10.4332	0.911
10.4732	0.873
10.5132	0.893
10.5532	0.928
10.5932	0.928
10.6332	0.933
10.6732	0.936
10.7132	0.938
10.7532	0.936
10.7932	0.933
10.8332	0.92
10.8732	0.911
10.9132	0.915
10.9532	0.925
10.9932	0.92
11.0332	0.908
11.0732	0.893
11.1132	0.861
11.1532	0.806
11.1932	0.753
11.2332	0.737
11.2732	0.71
11.3132	0.607
11.3532	0.499
11.3932	0.487
11.4332	0.472
11.4732	0.43
11.5132	0.677
11.5532	0.782
11.5932	0.851
11.6332	0.885
11.6732	0.896
11.7132	0.9
11.7532	0.895
11.7932	0.876
11.8332	0.848
11.8732	0.821
11.9132	0.793
11.9532	0.738
11.9932	0.603
12.0332	0.454
12.0732	0.274
12.1132	0.217
12.1532	0.342
12.1932	0.47
12.2332	0.522
12.2732	0.464
12.3132	0.349
12.3532	0.306
12.3932	0.302
12.4333	0.314
12.4733	0.306
12.5133	0.284
12.5533	0.331
12.5933	0.419
12.6333	0.525
12.6733	0.597
12.7133	0.655
12.7533	0.708
12.7933	0.757
12.8333	0.783
12.8733	0.801
12.9133	0.815
12.9533	0.821
12.9933	0.828
13.0333	0.83
13.0733	0.831
13.1133	0.836
13.1533	0.84
13.1933	0.84
13.2333	0.835
13.2733	0.831
13.3133	0.831
13.3533	0.831
13.3933	0.833
13.4333	0.831
13.4733	0.828
13.5133	0.821
13.5533	0.82
13.5933	0.815
13.6333	0.808
13.6733	0.798
13.7133	0.79
13.7533	0.782
13.7933	0.777
13.8333	0.772
13.8733	0.768
13.9133	0.752
13.9533	0.713
13.9933	0.63
14.0333	0.53
14.0733	0.515
14.1133	0.585
14.1533	0.637
14.1933	0.658
14.2333	0.658
14.2733	0.673
14.3133	0.697
14.3533	0.717
14.3933	0.722
14.4333	0.722
14.4733	0.718
14.5133	0.715
14.5533	0.71
14.5933	0.702
14.6333	0.69
14.6733	0.675
14.7133	0.662
14.7533	0.635
14.7933	0.6
14.8333	0.56
14.8733	0.517
14.9133	0.47
14.9533	0.404
14.9933	0.366
15.0333	0.351
15.0733	0.376
15.1133	0.419
15.1533	0.452
15.1933	0.484
15.2333	0.504
15.2733	0.51
15.3133	0.515
15.3533	0.519
15.3933	0.517
15.4333	0.512
15.4733	0.504
15.5133	0.494
15.5533	0.49
15.5933	0.487
15.6333	0.487
15.6733	0.482
15.7133	0.48
15.7533	0.475
15.7933	0.47
15.8333	0.465
15.8733	0.462
