Infrared Spectrum: Alpha,Alpha,Alpha,2,4,5-HEXACHLOROACETANILIDE
Formula: C8 H3 Cl6 N O
CAS: 33560-57-5
State: SOLID (MINERAL OIL MULL)
Class: COBLENTZ
Instrument: Not specified, most likely a prism, grating, or hybrid spectrometer.
Sampling: TRANSMISSION
Resolution: 4
Origin: DOW CHEMICAL COMPANY
MICROMETERS	TRANSMITTANCE
2.027	0.45
2.06711	0.463
2.10723	0.476
2.14734	0.485
2.18745	0.496
2.22757	0.504
2.26768	0.511
2.30779	0.516
2.3479	0.526
2.38802	0.538
2.42813	0.551
2.46824	0.557
2.50836	0.564
2.54847	0.569
2.58858	0.579
2.6287	0.589
2.66881	0.592
2.70892	0.597
2.74904	0.604
2.78915	0.61
2.82926	0.622
2.86937	0.632
2.90949	0.632
2.9496	0.561
2.98971	0.564
3.02983	0.629
3.06994	0.637
3.11005	0.65
3.15017	0.652
3.19028	0.642
3.23039	0.599
3.27051	0.604
3.31062	0.594
3.35073	0.407
3.39085	0.102
3.43096	0.167
3.47107	0.258
3.51118	0.476
3.5513	0.708
3.59141	0.736
3.63152	0.751
3.67164	0.743
3.71175	0.748
3.75186	0.756
3.79198	0.764
3.83209	0.769
3.8722	0.778
3.91232	0.791
3.95243	0.793
3.99254	0.799
4.03265	0.804
4.07277	0.807
4.11288	0.812
4.15299	0.819
4.19311	0.804
4.23322	0.807
4.27333	0.824
4.31345	0.832
4.35356	0.841
4.39367	0.844
4.43379	0.844
4.4739	0.844
4.51401	0.852
4.55412	0.855
4.59424	0.862
4.63435	0.864
4.67446	0.867
4.71458	0.869
4.75469	0.874
4.7948	0.872
4.83492	0.872
4.87503	0.877
4.91514	0.875
4.95526	0.884
4.99537	0.882
5.03548	0.892
5.07559	0.884
5.11571	0.882
5.15582	0.894
5.19593	0.894
5.23605	0.897
5.27616	0.902
5.31627	0.908
5.35639	0.91
5.3965	0.917
5.43661	0.913
5.47673	0.913
5.51684	0.923
5.55695	0.907
5.59706	0.918
5.63718	0.899
5.67729	0.864
5.7174	0.698
5.75752	0.438
5.79763	0.259
5.83774	0.495
5.87786	0.715
5.91797	0.786
5.95808	0.824
5.9982	0.842
6.03831	0.844
6.07842	0.87
6.11854	0.864
6.15865	0.862
6.19876	0.854
6.23887	0.748
6.27899	0.412
6.3191	0.245
6.35921	0.551
6.39933	0.726
6.43944	0.793
6.47955	0.784
6.51967	0.695
6.55978	0.422
6.59989	0.163
6.64001	0.311
6.68012	0.435
6.72023	0.599
6.76034	0.571
6.80046	0.461
6.84057	0.379
6.88068	0.384
6.9208	0.592
6.96091	0.751
7.00102	0.786
7.04114	0.826
7.08125	0.834
7.12136	0.832
7.16148	0.786
7.20159	0.678
7.2417	0.536
7.28181	0.259
7.32193	0.374
7.36204	0.639
7.40215	0.74
7.44227	0.776
7.48238	0.817
7.52249	0.829
7.56261	0.832
7.60272	0.836
7.64283	0.844
7.68295	0.847
7.72306	0.846
7.76317	0.802
7.80328	0.789
7.8434	0.819
7.88351	0.859
7.92362	0.869
7.96374	0.869
8.00385	0.842
8.04396	0.786
8.08408	0.802
8.12419	0.822
8.1643	0.846
8.20442	0.826
8.24453	0.816
8.28464	0.799
8.32476	0.632
8.36487	0.576
8.40498	0.748
8.44509	0.824
8.48521	0.85
8.52532	0.872
8.56543	0.875
8.60555	0.875
8.64566	0.879
8.68577	0.882
8.72589	0.865
8.766	0.794
8.80611	0.761
8.84623	0.801
8.88634	0.832
8.92645	0.85
8.96656	0.864
9.00668	0.875
9.04679	0.885
9.0869	0.902
9.12702	0.915
9.16713	0.925
9.20724	0.912
9.24736	0.794
9.28747	0.541
9.32758	0.49
9.3677	0.688
9.40781	0.834
9.44792	0.865
9.48803	0.882
9.52815	0.892
9.56826	0.902
9.60837	0.907
9.64849	0.915
9.6886	0.923
9.72871	0.927
9.76883	0.925
9.80894	0.928
9.84905	0.932
9.88917	0.932
9.92928	0.932
9.96939	0.938
10.0095	0.942
10.0496	0.945
10.0897	0.943
10.1298	0.95
10.17	0.951
10.2101	0.951
10.2502	0.938
10.2903	0.923
10.3304	0.943
10.3705	0.95
10.4106	0.951
10.4507	0.951
10.4909	0.95
10.531	0.94
10.5711	0.922
10.6112	0.899
10.6513	0.922
10.6914	0.932
10.7315	0.932
10.7717	0.93
10.8118	0.927
10.8519	0.925
10.892	0.918
10.9321	0.912
10.9722	0.9
11.0123	0.882
11.0524	0.824
11.0926	0.697
11.1327	0.721
11.1728	0.832
11.2129	0.846
11.253	0.812
11.2931	0.655
11.3332	0.539
11.3733	0.738
11.4135	0.802
11.4536	0.784
11.4937	0.791
11.5338	0.764
11.5739	0.705
11.614	0.63
11.6541	0.566
11.6943	0.456
11.7344	0.423
11.7745	0.546
11.8146	0.614
11.8547	0.607
11.8948	0.533
11.9349	0.528
11.975	0.6
12.0152	0.652
12.0553	0.688
12.0954	0.672
12.1355	0.61
12.1756	0.495
12.2157	0.403
12.2558	0.392
12.296	0.302
12.3361	0.215
12.3762	0.263
12.4163	0.412
12.4564	0.554
12.4965	0.645
12.5366	0.715
12.5767	0.751
12.6169	0.776
12.657	0.798
12.6971	0.807
12.7372	0.817
12.7773	0.827
12.8174	0.832
12.8575	0.839
12.8976	0.846
12.9378	0.849
12.9779	0.852
13.018	0.854
13.0581	0.852
13.0982	0.854
13.1383	0.857
13.1784	0.859
13.2186	0.86
13.2587	0.86
13.2988	0.862
13.3389	0.859
13.379	0.857
13.4191	0.855
13.4592	0.852
13.4993	0.849
13.5395	0.846
13.5796	0.842
13.6197	0.841
13.6598	0.839
13.6999	0.832
13.74	0.829
13.7801	0.817
13.8202	0.799
13.8604	0.741
13.9005	0.635
13.9406	0.572
13.9807	0.584
14.0208	0.63
14.0609	0.711
14.101	0.766
14.1412	0.784
14.1813	0.796
14.2214	0.801
14.2615	0.802
14.3016	0.796
14.3417	0.791
14.3818	0.781
14.4219	0.766
14.4621	0.738
14.5022	0.716
14.5423	0.715
14.5824	0.728
14.6225	0.726
14.6626	0.698
14.7027	0.649
14.7428	0.572
14.783	0.495
14.8231	0.433
14.8632	0.395
14.9033	0.374
14.9434	0.408
14.9835	0.5
15.0236	0.597
15.0638	0.627
15.1039	0.649
15.144	0.663
15.1841	0.675
15.2242	0.68
15.2643	0.682
15.3044	0.68
15.3445	0.677
15.3847	0.673
15.4248	0.67
15.4649	0.667
15.505	0.657
15.5451	0.649
15.5852	0.635
15.6253	0.622
15.6655	0.609
15.7056	0.602
15.7457	0.597
15.7858	0.592
15.8259	0.586
15.866	0.584
15.9061	0.592
