Infrared Spectrum: 2,2,2',4',5'-PENTACHLOROACETANILIDE
Formula: C8 H4 Cl5 N O
CAS: 33560-51-9
State: SOLID (MINERAL OIL MULL)
Class: COBLENTZ
Instrument: Not specified, most likely a prism, grating, or hybrid spectrometer.
Sampling: TRANSMISSION
Resolution: 4
Origin: DOW CHEMICAL COMPANY
MICROMETERS	TRANSMITTANCE
2.035	0.674
2.07412	0.679
2.11324	0.687
2.15235	0.695
2.19147	0.7
2.23059	0.703
2.26971	0.698
2.30883	0.697
2.34794	0.701
2.38706	0.71
2.42618	0.728
2.4653	0.739
2.50441	0.741
2.54353	0.741
2.58265	0.749
2.62177	0.762
2.66089	0.76
2.7	0.77
2.73912	0.771
2.77824	0.77
2.81736	0.773
2.85648	0.773
2.89559	0.768
2.93471	0.752
2.97383	0.697
3.01295	0.522
3.05206	0.208
3.09118	0.226
3.1303	0.501
3.16942	0.587
3.20854	0.592
3.24765	0.557
3.28677	0.543
3.32589	0.413
3.36501	0.281
3.40413	0.048
3.44324	0.097
3.48236	0.149
3.52148	0.493
3.5606	0.731
3.59971	0.775
3.63883	0.781
3.67795	0.793
3.71707	0.781
3.75619	0.811
3.7953	0.828
3.83442	0.837
3.87354	0.855
3.91266	0.868
3.95178	0.868
3.99089	0.872
4.03001	0.879
4.06913	0.876
4.10825	0.871
4.14737	0.881
4.18648	0.874
4.2256	0.872
4.26472	0.882
4.30384	0.899
4.34295	0.903
4.38207	0.905
4.42119	0.908
4.46031	0.908
4.49943	0.91
4.53854	0.91
4.57766	0.91
4.61678	0.912
4.6559	0.915
4.69502	0.92
4.73413	0.92
4.77325	0.923
4.81237	0.923
4.85149	0.925
4.8906	0.925
4.92972	0.925
4.96884	0.928
5.00796	0.931
5.04708	0.933
5.08619	0.933
5.12531	0.929
5.16443	0.929
5.20355	0.929
5.24267	0.929
5.28178	0.926
5.3209	0.931
5.36002	0.938
5.39914	0.938
5.43825	0.934
5.47737	0.929
5.51649	0.92
5.55561	0.91
5.59473	0.902
5.63384	0.89
5.67296	0.877
5.71208	0.838
5.7512	0.793
5.79032	0.765
5.82943	0.675
5.86855	0.459
5.90767	0.081
5.94679	0.218
5.98591	0.526
6.02502	0.574
6.06414	0.744
6.10326	0.802
6.14238	0.785
6.18149	0.785
6.22061	0.767
6.25973	0.587
6.29885	0.355
6.33797	0.263
6.37708	0.557
6.4162	0.731
6.45532	0.721
6.49444	0.532
6.53356	0.286
6.57267	0.26
6.61179	0.496
6.65091	0.641
6.69003	0.656
6.72914	0.532
6.76826	0.39
6.80738	0.208
6.8465	0.157
6.88562	0.426
6.92473	0.599
6.96385	0.741
7.00297	0.771
7.04209	0.788
7.08121	0.793
7.12032	0.791
7.15944	0.747
7.19856	0.6
7.23768	0.477
7.27679	0.353
7.31591	0.156
7.35503	0.462
7.39415	0.594
7.43327	0.612
7.47238	0.539
7.5115	0.571
7.55062	0.679
7.58974	0.7
7.62886	0.708
7.66797	0.719
7.70709	0.734
7.74621	0.749
7.78533	0.758
7.82445	0.76
7.86356	0.754
7.90268	0.713
7.9418	0.739
7.98092	0.726
8.02003	0.653
8.05915	0.737
8.09827	0.758
8.13739	0.721
8.17651	0.724
8.21562	0.827
8.25474	0.835
8.29386	0.828
8.33298	0.825
8.3721	0.776
8.41121	0.622
8.45033	0.322
8.48945	0.465
8.52857	0.697
8.56768	0.763
8.6068	0.799
8.64592	0.802
8.68504	0.785
8.72416	0.75
8.76327	0.732
8.80239	0.64
8.84151	0.561
8.88063	0.716
8.91975	0.768
8.95886	0.776
8.99798	0.773
9.0371	0.791
9.07622	0.815
9.11533	0.817
9.15445	0.771
9.19357	0.631
9.23269	0.304
9.27181	0.265
9.31092	0.659
9.35004	0.804
9.38916	0.832
9.42828	0.863
9.4674	0.876
9.50651	0.882
9.54563	0.889
9.58475	0.892
9.62387	0.895
9.66299	0.899
9.7021	0.902
9.74122	0.907
9.78034	0.907
9.81946	0.907
9.85857	0.912
9.89769	0.91
9.93681	0.912
9.97593	0.908
10.015	0.903
10.0542	0.903
10.0933	0.903
10.1324	0.881
10.1715	0.838
10.2106	0.745
10.2498	0.736
10.2889	0.851
10.328	0.902
10.3671	0.92
10.4062	0.931
10.4453	0.933
10.4845	0.933
10.5236	0.913
10.5627	0.889
10.6018	0.91
10.6409	0.925
10.68	0.928
10.7192	0.929
10.7583	0.934
10.7974	0.931
10.8365	0.929
10.8756	0.918
10.9148	0.912
10.9539	0.915
10.993	0.92
11.0321	0.913
11.0712	0.903
11.1103	0.899
11.1495	0.882
11.1886	0.863
11.2277	0.767
11.2668	0.514
11.3059	0.203
11.3451	0.486
11.3842	0.713
11.4233	0.773
11.4624	0.778
11.5015	0.713
11.5406	0.672
11.5798	0.776
11.6189	0.82
11.658	0.819
11.6971	0.806
11.7362	0.789
11.7754	0.77
11.8145	0.75
11.8536	0.731
11.8927	0.71
11.9318	0.682
11.9709	0.644
12.0101	0.542
12.0492	0.403
12.0883	0.236
12.1274	0.2
12.1665	0.286
12.2056	0.431
12.2448	0.53
12.2839	0.542
12.323	0.415
12.3621	0.236
12.4012	0.198
12.4404	0.428
12.4795	0.597
12.5186	0.698
12.5577	0.736
12.5968	0.754
12.6359	0.768
12.6751	0.778
12.7142	0.781
12.7533	0.78
12.7924	0.776
12.8315	0.773
12.8707	0.768
12.9098	0.763
12.9489	0.762
12.988	0.76
13.0271	0.75
13.0662	0.739
13.1054	0.711
13.1445	0.674
13.1836	0.636
13.2227	0.581
13.2618	0.55
13.3009	0.548
13.3401	0.579
13.3792	0.618
13.4183	0.657
13.4574	0.68
13.4965	0.692
13.5357	0.698
13.5748	0.7
13.6139	0.701
13.653	0.701
13.6921	0.697
13.7312	0.688
13.7704	0.679
13.8095	0.669
13.8486	0.661
13.8877	0.643
13.9268	0.602
13.966	0.542
14.0051	0.491
14.0442	0.478
14.0833	0.521
14.1224	0.581
14.1615	0.609
14.2007	0.61
14.2398	0.592
14.2789	0.561
14.318	0.513
14.3571	0.451
14.3962	0.4
14.4354	0.379
14.4745	0.412
14.5136	0.46
14.5527	0.483
14.5918	0.486
14.631	0.48
14.6701	0.456
14.7092	0.42
14.7483	0.359
14.7874	0.32
14.8265	0.281
14.8657	0.278
14.9048	0.293
14.9439	0.32
14.983	0.333
15.0221	0.33
15.0613	0.311
15.1004	0.283
15.1395	0.26
15.1786	0.232
15.2177	0.206
15.2568	0.18
15.296	0.159
15.3351	0.141
15.3742	0.13
15.4133	0.128
15.4524	0.13
15.4915	0.143
15.5307	0.162
15.5698	0.179
15.6089	0.2
15.648	0.211
15.6871	0.221
15.7263	0.231
15.7654	0.241
15.8045	0.244
15.8436	0.25
15.8827	0.239
15.9218	0.2
15.961	0.161
16.0001	0.203
