Infrared Spectrum: Alpha,Alpha,Alpha,2,3-PENTACHLOROACETANILIDE
Formula: C8 H4 Cl5 N O
CAS: 33560-53-1
State: SOLID (MINERAL OIL MULL)
Class: COBLENTZ
Instrument: Not specified, most likely a prism, grating, or hybrid spectrometer.
Sampling: TRANSMISSION
Resolution: 4
Origin: DOW CHEMICAL COMPANY
MICROMETERS	TRANSMITTANCE
2.027	0.518
2.06711	0.521
2.10723	0.529
2.14734	0.538
2.18745	0.546
2.22757	0.551
2.26768	0.556
2.30779	0.563
2.3479	0.574
2.38802	0.579
2.42813	0.589
2.46824	0.602
2.50836	0.612
2.54847	0.616
2.58858	0.629
2.6287	0.634
2.66881	0.641
2.70892	0.647
2.74903	0.651
2.78915	0.659
2.82926	0.662
2.86937	0.667
2.90949	0.666
2.9496	0.558
2.98971	0.588
3.02983	0.654
3.06994	0.662
3.11005	0.667
3.15017	0.669
3.19028	0.664
3.23039	0.656
3.2705	0.651
3.31062	0.624
3.35073	0.458
3.39084	0.21
3.43096	0.132
3.47107	0.284
3.51118	0.431
3.5513	0.749
3.59141	0.795
3.63152	0.8
3.67163	0.794
3.71175	0.795
3.75186	0.805
3.79197	0.812
3.83209	0.815
3.8722	0.82
3.91231	0.827
3.95243	0.833
3.99254	0.838
4.03265	0.842
4.07277	0.848
4.11288	0.85
4.15299	0.85
4.1931	0.845
4.23322	0.852
4.27333	0.862
4.31344	0.878
4.35356	0.873
4.39367	0.872
4.43378	0.878
4.4739	0.877
4.51401	0.878
4.55412	0.88
4.59424	0.888
4.63435	0.89
4.67446	0.892
4.71457	0.893
4.75469	0.9
4.7948	0.903
4.83491	0.906
4.87503	0.911
4.91514	0.915
4.95525	0.918
4.99537	0.92
5.03548	0.925
5.07559	0.921
5.1157	0.92
5.15582	0.941
5.19593	0.931
5.23604	0.948
5.27616	0.943
5.31627	0.943
5.35638	0.946
5.3965	0.953
5.43661	0.96
5.47672	0.965
5.51684	0.953
5.55695	0.923
5.59706	0.918
5.63717	0.921
5.67729	0.921
5.7174	0.757
5.75751	0.438
5.79763	0.3
5.83774	0.621
5.87785	0.769
5.91797	0.828
5.95808	0.855
5.99819	0.875
6.0383	0.88
6.07842	0.897
6.11853	0.918
6.15864	0.91
6.19876	0.867
6.23887	0.747
6.27898	0.41
6.3191	0.583
6.35921	0.784
6.39932	0.802
6.43944	0.813
6.47955	0.72
6.51966	0.475
6.55977	0.392
6.59989	0.566
6.64	0.71
6.68011	0.79
6.72023	0.79
6.76034	0.737
6.80045	0.576
6.84057	0.491
6.88068	0.406
6.92079	0.656
6.9609	0.797
7.00102	0.823
7.04113	0.607
7.08124	0.421
7.12136	0.551
7.16147	0.707
7.20158	0.752
7.2417	0.681
7.28181	0.734
7.32192	0.812
7.36204	0.862
7.40215	0.872
7.44226	0.877
7.48237	0.903
7.52249	0.895
7.5626	0.893
7.60271	0.835
7.64283	0.742
7.68294	0.765
7.72305	0.822
7.76317	0.853
7.80328	0.887
7.84339	0.9
7.8835	0.897
7.92362	0.901
7.96373	0.918
8.00384	0.933
8.04396	0.933
8.08407	0.933
8.12418	0.925
8.1643	0.888
8.20441	0.84
8.24452	0.818
8.28464	0.818
8.32475	0.86
8.36486	0.81
8.40497	0.624
8.44509	0.656
8.4852	0.823
8.52531	0.86
8.56543	0.873
8.60554	0.89
8.64565	0.906
8.68577	0.916
8.72588	0.921
8.76599	0.925
8.80611	0.928
8.84622	0.931
8.88633	0.935
8.92644	0.94
8.96656	0.941
9.00667	0.943
9.04678	0.943
9.0869	0.94
9.12701	0.941
9.16712	0.951
9.20724	0.965
9.24735	0.963
9.28746	0.965
9.32757	0.973
9.36769	0.973
9.4078	0.965
9.44791	0.936
9.48803	0.887
9.52814	0.767
9.56825	0.792
9.60837	0.92
9.64848	0.943
9.68859	0.951
9.72871	0.961
9.76882	0.965
9.80893	0.966
9.84904	0.965
9.88916	0.968
9.92927	0.98
9.96938	0.968
10.0095	0.966
10.0496	0.973
10.0897	0.955
10.1298	0.901
10.1699	0.838
10.2101	0.787
10.2502	0.825
10.2903	0.901
10.3304	0.938
10.3705	0.953
10.4106	0.971
10.4507	0.986
10.4909	0.991
10.531	0.996
10.5711	0.998
10.6112	0.998
10.6513	0.998
10.6914	0.991
10.7315	0.988
10.7716	0.985
10.8118	0.991
10.8519	0.988
10.892	0.968
10.9321	0.935
10.9722	0.86
11.0123	0.74
11.0524	0.559
11.0925	0.531
11.1327	0.666
11.1728	0.799
11.2129	0.853
11.253	0.892
11.2931	0.926
11.3332	0.936
11.3733	0.95
11.4135	0.955
11.4536	0.961
11.4937	0.95
11.5338	0.94
11.5739	0.94
11.614	0.943
11.6541	0.946
11.6942	0.948
11.7344	0.948
11.7745	0.935
11.8146	0.921
11.8547	0.897
11.8948	0.863
11.9349	0.8
11.975	0.735
12.0151	0.657
12.0553	0.646
12.0954	0.702
12.1355	0.76
12.1756	0.775
12.2157	0.754
12.2558	0.694
12.2959	0.574
12.3361	0.485
12.3762	0.473
12.4163	0.599
12.4564	0.629
12.4965	0.554
12.5366	0.504
12.5767	0.461
12.6168	0.335
12.657	0.284
12.6971	0.416
12.7372	0.591
12.7773	0.652
12.8174	0.666
12.8575	0.681
12.8976	0.737
12.9377	0.803
12.9779	0.838
13.018	0.855
13.0581	0.867
13.0982	0.87
13.1383	0.875
13.1784	0.877
13.2185	0.878
13.2587	0.878
13.2988	0.878
13.3389	0.878
13.379	0.873
13.4191	0.858
13.4592	0.838
13.4993	0.802
13.5394	0.777
13.5796	0.769
13.6197	0.762
13.6598	0.759
13.6999	0.765
13.74	0.782
13.7801	0.792
13.8202	0.795
13.8603	0.797
13.9005	0.8
13.9406	0.8
13.9807	0.8
14.0208	0.8
14.0609	0.789
14.101	0.76
14.1411	0.737
14.1813	0.71
14.2214	0.719
14.2615	0.729
14.3016	0.742
14.3417	0.747
14.3818	0.747
14.4219	0.742
14.462	0.73
14.5022	0.719
14.5423	0.715
14.5824	0.7
14.6225	0.687
14.6626	0.661
14.7027	0.629
14.7428	0.578
14.7829	0.516
14.8231	0.461
14.8632	0.405
14.9033	0.375
14.9434	0.377
14.9835	0.405
15.0236	0.45
15.0637	0.478
15.1039	0.498
15.144	0.513
15.1841	0.526
15.2242	0.536
15.2643	0.536
15.3044	0.533
15.3445	0.529
15.3846	0.529
15.4248	0.521
15.4649	0.518
15.505	0.511
15.5451	0.504
15.5852	0.501
15.6253	0.495
15.6654	0.488
15.7055	0.481
15.7457	0.48
15.7858	0.478
15.8259	0.473
15.866	0.471
15.9061	0.478
