Infrared Spectrum: 3-Acetoxy-1-acetyl-5-bromoindole
Formula: C 12 H 10 Br N O 3
CAS: 33588-54-4
State: gas
Origin: EPA-IR VAPOR PHASE LIBRARY
1/CM	ABSORBANCE
549.8	0.017738
559.445	0.006438
569.09	0.010018
578.734	0.008268
588.379	0.011688
598.024	0.020888
607.669	0.017788
617.313	0.009668
626.958	0.009028
636.603	0.014808
646.248	0.021298
655.893	0.015668
665.537	0.006418
675.182	0.005128
684.827	0.006238
694.472	0.011078
704.116	0.028058
713.761	0.037088
723.406	0.012748
733.051	0.005358
742.695	0.005488
752.34	0.008368
761.985	0.015818
771.63	0.026158
781.275	0.014718
790.919	0.010988
800.564	0.010978
810.209	0.031858
819.854	0.020888
829.498	0.009928
839.143	0.010318
848.788	0.011618
858.433	0.014588
868.078	0.023098
877.722	0.034908
887.367	0.040518
897.012	0.014178
906.657	0.008778
916.301	0.014288
925.946	0.062028
935.591	0.044028
945.236	0.012158
954.88	0.006828
964.525	0.008588
974.17	0.008378
983.815	0.011538
993.46	0.020538
1003.1	0.030128
1012.75	0.024268
1022.39	0.015398
1032.04	0.012718
1041.68	0.013488
1051.33	0.020438
1060.97	0.018198
1070.62	0.015308
1080.26	0.013808
1089.91	0.019018
1099.55	0.035118
1109.2	0.030738
1118.84	0.022118
1128.49	0.024468
1138.13	0.024888
1147.78	0.030418
1157.42	0.043168
1167.07	0.056908
1176.71	0.098348
1186.36	0.227478
1196	0.383088
1205.64	0.375878
1215.29	0.216358
1224.93	0.154068
1234.58	0.120998
1244.22	0.060038
1253.87	0.041918
1263.51	0.075568
1273.16	0.048698
1282.8	0.024018
1292.45	0.026598
1302.09	0.043178
1311.74	0.102648
1321.38	0.115728
1331.03	0.158808
1340.67	0.164348
1350.32	0.130158
1359.96	0.079438
1369.61	0.134608
1379.25	0.202978
1388.9	0.086108
1398.54	0.031998
1408.18	0.024778
1417.83	0.026698
1427.47	0.040088
1437.12	0.102678
1446.76	0.193798
1456.41	0.094528
1466.05	0.041688
1475.7	0.021918
1485.34	0.014458
1494.99	0.011388
1504.63	0.011208
1514.28	0.012498
1523.92	0.013488
1533.57	0.014708
1543.21	0.013258
1552.86	0.012708
1562.5	0.018168
1572.15	0.016008
1581.79	0.014668
1591.44	0.023688
1601.08	0.019918
1610.73	0.011428
1620.37	0.008078
1630.01	0.007818
1639.66	0.007428
1649.3	0.007658
1658.95	0.007188
1668.59	0.008848
1678.24	0.009508
1687.88	0.010608
1697.53	0.012938
1707.17	0.018828
1716.82	0.041988
1726.46	0.188008
1736.11	0.223698
1745.75	0.047988
1755.4	0.036858
1765.04	0.044578
1774.69	0.053508
1784.33	0.097438
1793.98	0.091628
1803.62	0.059168
1813.27	0.037608
1822.91	0.021028
1832.55	0.011498
1842.2	0.007818
1851.84	0.007098
1861.49	0.005998
1871.13	0.004348
1880.78	0.004318
1890.42	0.005178
1900.07	0.004708
1909.71	0.003768
1919.36	0.003538
1929	0.003248
1938.65	0.002948
1948.29	0.002968
1957.94	0.002688
1967.58	0.002598
1977.23	0.002818
1986.87	0.002538
1996.52	0.002298
2006.16	0.002408
2015.81	0.002318
2025.45	0.002438
2035.1	0.002438
2044.74	0.002678
2054.38	0.002918
2064.03	0.003278
2073.67	0.003768
2083.32	0.003788
2092.96	0.003068
2102.61	0.002448
2112.25	0.001998
2121.9	0.0016466
2131.54	0.0015937
2141.19	0.001677
2150.83	0.0015419
2160.48	0.0015879
2170.12	0.0014178
2179.77	0.001363
2189.41	0.0013009
2199.06	0.0016632
2208.7	0.0015562
2218.35	0.0015641
2227.99	0.0014967
2237.64	0.0014622
2247.28	0.001727
2256.92	0.0017416
2266.57	0.0017925
2276.21	0.0016331
2285.86	0.0016132
2295.5	0.0015346
2305.15	0.0017978
2314.79	0.001697
2324.44	0.0017188
2334.08	0.0016158
2343.73	0.0016162
2353.37	0.0014682
2363.02	0.002138
2372.66	0.0018101
2382.31	0.002098
2391.95	0.002198
2401.6	0.001958
2411.24	0.0017918
2420.89	0.0018236
2430.53	0.0017073
2440.18	0.0018184
2449.82	0.0018241
2459.47	0.0016398
2469.11	0.0015421
2478.75	0.0014398
2488.4	0.0015462
2498.04	0.0013949
2507.69	0.001529
2517.33	0.0016216
2526.98	0.0017945
2536.62	0.001938
2546.27	0.0018017
2555.91	0.001918
2565.56	0.0014974
2575.2	0.002098
2584.85	0.002048
2594.49	0.0016731
2604.14	0.0013083
2613.78	0.0014999
2623.43	0.0011023
2633.07	0.0011179
2642.72	0.0014859
2652.36	0.0015996
2662.01	0.0017912
2671.65	0.0016692
2681.29	0.0016048
2690.94	0.001868
2700.58	0.0016155
2710.23	0.0016578
2719.87	0.0017389
2729.52	0.0015656
2739.16	0.0012547
2748.81	0.0015119
2758.45	0.0016844
2768.1	0.0013826
2777.74	0.0014593
2787.39	0.001472
2797.03	0.001948
2806.68	0.001948
2816.32	0.0017101
2825.97	0.0015959
2835.61	0.0012219
2845.26	0.0015311
2854.9	0.002018
2864.55	0.002158
2874.19	0.0018067
2883.84	0.0016756
2893.48	0.0015309
2903.12	0.0016989
2912.77	0.0017624
2922.41	0.0016519
2932.06	0.002178
2941.7	0.003328
2951.35	0.003828
2960.99	0.002678
2970.64	0.002468
2980.28	0.002868
2989.93	0.003708
2999.57	0.002938
3009.22	0.002798
3018.86	0.004428
3028.51	0.005278
3038.15	0.004018
3047.8	0.002668
3057.44	0.002248
3067.09	0.002568
3076.73	0.002898
3086.38	0.002988
3096.02	0.002068
3105.67	0.002208
3115.31	0.003188
3124.95	0.002848
3134.6	0.002418
3144.24	0.002758
3153.89	0.002848
3163.53	0.002308
3173.18	0.003138
3182.82	0.003078
3192.47	0.004008
3202.11	0.004408
3211.76	0.002158
3221.4	0.0013058
3231.05	0.0010003
3240.69	0.0009417
3250.34	0.000984
3259.98	0.0009951
3269.63	0.0007764
3279.27	0.000839583
3288.92	0.0007968
3298.56	0.00086464
3308.21	0.0010446
3317.85	0.00035
3327.49	0.00059
3337.14	0.000736
3346.78	0.00089005
3356.43	0.000615
3366.07	0.001174
3375.72	0.000703
3385.36	0.000844458
3395.01	0.000435
3404.65	0.00048
3414.3	0.000425
3423.94	0.0013308
3433.59	0.002088
3443.23	0.003548
3452.88	0.002848
3462.52	0.0014371
3472.17	0.0010924
3481.81	0.0007441
3491.46	0.000393
3501.1	0.0011917
3510.75	0.000581
3520.39	0.00092447
3530.04	0.0014454
3539.68	0.0014881
3549.32	0.00091536
3558.97	0.00088148
3568.61	0.0012369
3578.26	0.0009967
3587.9	0.0012584
3597.55	0.0012427
3607.19	0.0013571
3616.84	0.000689
3626.48	0.000665
3636.13	0.000588
3645.77	0.000508
3655.42	0.000607
3665.06	0.000607
3674.71	0.0009714
3684.35	0.00090825
3694	0.0010298
3703.64	0.000825
3713.29	0.0007826
3722.93	0.000312
3732.58	0.000324
3742.22	0.000839753
3751.86	0.000274
3761.51	0.000708
3771.15	0.00088594
3780.8	0.000508
3790.44	0.000356
3800.09	0.0011806
3809.73	0.0010288
3819.38	0.000688
3829.02	0.000259
3838.67	0.0014314
3848.31	0.0008252
3857.96	0.0008113
3867.6	0.000815
3877.25	0.000411
3886.89	0.0007844
3896.54	0.0010773
3906.18	0.0011024
3915.83	0.000547
3925.47	0.000316
3935.12	0.000603
3944.76	0.000727
3954.41	0.001388
3964.05	0.0016103
3973.69	0.0011766
3983.34	0.000725
3992.98	0.0011946
