Infrared Spectrum: Ethyl heptafluorobutyrylacetate
Formula: C 8 H 7 F 7 O 3
CAS: 336-62-9
State: gas
Origin: EPA-IR VAPOR PHASE LIBRARY
1/CM	ABSORBANCE
549.8	0.009707
559.445	0.008077
569.09	0.007987
578.734	0.009217
588.379	0.011097
598.024	0.012017
607.669	0.012847
617.313	0.011377
626.958	0.011097
636.603	0.012517
646.248	0.013157
655.893	0.012997
665.537	0.012457
675.182	0.011797
684.827	0.010647
694.472	0.009247
704.116	0.008967
713.761	0.012737
723.406	0.013387
733.051	0.015177
742.695	0.031197
752.34	0.037387
761.985	0.012047
771.63	0.006287
781.275	0.007407
790.919	0.009677
800.564	0.011537
810.209	0.015987
819.854	0.022357
829.498	0.020767
839.143	0.017027
848.788	0.015187
858.433	0.016607
868.078	0.023507
877.722	0.030367
887.367	0.024237
897.012	0.022697
906.657	0.021827
916.301	0.021447
925.946	0.025787
935.591	0.041547
945.236	0.045647
954.88	0.045107
964.525	0.032967
974.17	0.025607
983.815	0.018307
993.46	0.014317
1003.1	0.018187
1012.75	0.031617
1022.39	0.050837
1032.04	0.056947
1041.68	0.046007
1051.33	0.034987
1060.97	0.030637
1070.62	0.032577
1080.26	0.029627
1089.91	0.034327
1099.55	0.044327
1109.2	0.055567
1118.84	0.099867
1128.49	0.127507
1138.13	0.083617
1147.78	0.074017
1157.42	0.082287
1167.07	0.090067
1176.71	0.111487
1186.36	0.140747
1196	0.169737
1205.64	0.233637
1215.29	0.308697
1224.93	0.374157
1234.58	0.427147
1244.22	0.367457
1253.87	0.229687
1263.51	0.145347
1273.16	0.105787
1282.8	0.079937
1292.45	0.060427
1302.09	0.053267
1311.74	0.057187
1321.38	0.068927
1331.03	0.083567
1340.67	0.088837
1350.32	0.060827
1359.96	0.036097
1369.61	0.036767
1379.25	0.034237
1388.9	0.036377
1398.54	0.034127
1408.18	0.027947
1417.83	0.026647
1427.47	0.022347
1437.12	0.014777
1446.76	0.012467
1456.41	0.011797
1466.05	0.012987
1475.7	0.013947
1485.34	0.009837
1494.99	0.006937
1504.63	0.005727
1514.28	0.005097
1523.92	0.004747
1533.57	0.004657
1543.21	0.004347
1552.86	0.004287
1562.5	0.004387
1572.15	0.004337
1581.79	0.004417
1591.44	0.004677
1601.08	0.005467
1610.73	0.006667
1620.37	0.009667
1630.01	0.016507
1639.66	0.028607
1649.3	0.036777
1658.95	0.032747
1668.59	0.033577
1678.24	0.046587
1687.88	0.047247
1697.53	0.037057
1707.17	0.042727
1716.82	0.043927
1726.46	0.030407
1736.11	0.028097
1745.75	0.046187
1755.4	0.081827
1765.04	0.088797
1774.69	0.076317
1784.33	0.047097
1793.98	0.022827
1803.62	0.012577
1813.27	0.008127
1822.91	0.005937
1832.55	0.004627
1842.2	0.003877
1851.84	0.003277
1861.49	0.002887
1871.13	0.002607
1880.78	0.002477
1890.42	0.002187
1900.07	0.002097
1909.71	0.002007
1919.36	0.001867
1929	0.001787
1938.65	0.001717
1948.29	0.001757
1957.94	0.001777
1967.58	0.001817
1977.23	0.001847
1986.87	0.001767
1996.52	0.001567
2006.16	0.001487
2015.81	0.001477
2025.45	0.001417
2035.1	0.001457
2044.74	0.001577
2054.38	0.001567
2064.03	0.001657
2073.67	0.001887
2083.32	0.002377
2092.96	0.003307
2102.61	0.004167
2112.25	0.004297
2121.9	0.006807
2131.54	0.014757
2141.19	0.039887
2150.83	0.102247
2160.48	0.116467
2170.12	0.036927
2179.77	0.011177
2189.41	0.006197
2199.06	0.004257
2208.7	0.003267
2218.35	0.002737
2227.99	0.002337
2237.64	0.002117
2247.28	0.002117
2256.92	0.001977
2266.57	0.002177
2276.21	0.002387
2285.86	0.002607
2295.5	0.003037
2305.15	0.004057
2314.79	0.004967
2324.44	0.005517
2334.08	0.005387
2343.73	0.004957
2353.37	0.005487
2363.02	0.007007
2372.66	0.006017
2382.31	0.003717
2391.95	0.002767
2401.6	0.002737
2411.24	0.002837
2420.89	0.002847
2430.53	0.002747
2440.18	0.002777
2449.82	0.002737
2459.47	0.002747
2469.11	0.002687
2478.75	0.002407
2488.4	0.002187
2498.04	0.002007
2507.69	0.002007
2517.33	0.001987
2526.98	0.001787
2536.62	0.002007
2546.27	0.001927
2555.91	0.002007
2565.56	0.002017
2575.2	0.001987
2584.85	0.002007
2594.49	0.001887
2604.14	0.001947
2613.78	0.002087
2623.43	0.001997
2633.07	0.001847
2642.72	0.001867
2652.36	0.001907
2662.01	0.001767
2671.65	0.001697
2681.29	0.001927
2690.94	0.001877
2700.58	0.001987
2710.23	0.002177
2719.87	0.002147
2729.52	0.002467
2739.16	0.002467
2748.81	0.002577
2758.45	0.002627
2768.1	0.002757
2777.74	0.002947
2787.39	0.002947
2797.03	0.003117
2806.68	0.003287
2816.32	0.003487
2825.97	0.003967
2835.61	0.004307
2845.26	0.004777
2854.9	0.005537
2864.55	0.006327
2874.19	0.007517
2883.84	0.008947
2893.48	0.009497
2903.12	0.010207
2912.77	0.011207
2922.41	0.011767
2932.06	0.012667
2941.7	0.016147
2951.35	0.017167
2960.99	0.015077
2970.64	0.017337
2980.28	0.023037
2989.93	0.029807
2999.57	0.021587
3009.22	0.016287
3018.86	0.011727
3028.51	0.008487
3038.15	0.006577
3047.8	0.005567
3057.44	0.005207
3067.09	0.005387
3076.73	0.005167
3086.38	0.004717
3096.02	0.005017
3105.67	0.005657
3115.31	0.005867
3124.95	0.004887
3134.6	0.004667
3144.24	0.004157
3153.89	0.003947
3163.53	0.003777
3173.18	0.003947
3182.82	0.003957
3192.47	0.003657
3202.11	0.003517
3211.76	0.003437
3221.4	0.003347
3231.05	0.003287
3240.69	0.003337
3250.34	0.002867
3259.98	0.002927
3269.63	0.002797
3279.27	0.002817
3288.92	0.002427
3298.56	0.002647
3308.21	0.002707
3317.85	0.002457
3327.49	0.002207
3337.14	0.002267
3346.78	0.002277
3356.43	0.002447
3366.07	0.002307
3375.72	0.002467
3385.36	0.002227
3395.01	0.002087
3404.65	0.002047
3414.3	0.001707
3423.94	0.001357
3433.59	0.001487
3443.23	0.001357
3452.88	0.001197
3462.52	0.0010446
3472.17	0.001177
3481.81	0.001277
3491.46	0.001597
3501.1	0.001897
3510.75	0.001927
3520.39	0.001907
3530.04	0.001547
3539.68	0.001177
3549.32	0.0010387
3558.97	0.0008678
3568.61	0.0006147
3578.26	0.000709
3587.9	0.0003421
3597.55	0.0003216
3607.19	0.0002516
3616.84	0.0005986
3626.48	0.0007286
3636.13	0.0010301
3645.77	0.001307
3655.42	0.001197
3665.06	0.001167
3674.71	0.001167
3684.35	0.0010244
3694	0.0008223
3703.64	0.0006778
3713.29	0.0002826
3722.93	0.00020197
3732.58	0.0003473
3742.22	7.87e-05
3751.86	7.34e-05
3761.51	0.00012857
3771.15	0.0002358
3780.8	0.00016019
3790.44	0.0003656
3800.09	0.00033
3809.73	0.0003793
3819.38	0.0004029
3829.02	0.0002275
3838.67	0.0003239
3848.31	0.000326
3857.96	0.0001677
3867.6	0.0003386
3877.25	0.00020357
3886.89	0.0002751
3896.54	0.000297
3906.18	5.4e-05
3915.83	0.00018383
3925.47	0.00018007
3935.12	0.00021151
3944.76	2.84e-05
3954.41	0.000117276
3964.05	0.0003595
3973.69	0.0003953
3983.34	0.00012861
3992.98	0.00020294
