Infrared Spectrum: 1,1,2,2-TETRACHLORO-3,3,4,4-TETRAFLUORO CYCLOBUTANE
Formula: C4 Cl4 F4
CAS: 336-50-5
State: SOLUTION (10% CCl4 FOR 5000-1330, 10% CS2 FOR 1330-625 CM^-^1)
Class: COBLENTZ
Instrument: Not specified, most likely a prism, grating, or hybrid spectrometer.
Sampling: TRANSMISSION
Path length: 0.0122 CM, 0.0120 CM
Resolution: 4
Origin: DOW CHEMICAL COMPANY
MICROMETERS	TRANSMITTANCE
2.034	0.851
2.07518	0.842
2.11635	0.837
2.15753	0.834
2.1987	0.825
2.23988	0.822
2.28106	0.822
2.32223	0.822
2.36341	0.825
2.40459	0.827
2.44576	0.839
2.48694	0.854
2.52811	0.87
2.56929	0.858
2.61047	0.844
2.65164	0.852
2.69282	0.841
2.734	0.837
2.77517	0.832
2.81635	0.849
2.85752	0.859
2.8987	0.863
2.93988	0.858
2.98105	0.856
3.02223	0.858
3.0634	0.858
3.10458	0.854
3.14576	0.864
3.18693	0.873
3.22811	0.885
3.26929	0.883
3.31046	0.876
3.35164	0.882
3.39281	0.888
3.43399	0.878
3.47517	0.873
3.51634	0.866
3.55752	0.864
3.5987	0.863
3.63987	0.861
3.68105	0.861
3.72222	0.864
3.7634	0.861
3.80458	0.854
3.84575	0.854
3.88693	0.842
3.9281	0.844
3.96928	0.851
4.01046	0.846
4.05163	0.854
4.09281	0.849
4.13399	0.863
4.17516	0.875
4.21634	0.861
4.25751	0.854
4.29869	0.854
4.33987	0.866
4.38104	0.863
4.42222	0.861
4.4634	0.863
4.50457	0.863
4.54575	0.854
4.58692	0.854
4.6281	0.858
4.66928	0.861
4.71045	0.861
4.75163	0.859
4.7928	0.863
4.83398	0.864
4.87516	0.868
4.91633	0.873
4.95751	0.87
4.99869	0.871
5.03986	0.863
5.08104	0.863
5.12221	0.863
5.16339	0.871
5.20457	0.868
5.24574	0.871
5.28692	0.873
5.3281	0.871
5.36927	0.873
5.41045	0.873
5.45162	0.87
5.4928	0.871
5.53398	0.88
5.57515	0.871
5.61633	0.876
5.6575	0.883
5.69868	0.887
5.73986	0.883
5.78103	0.902
5.82221	0.905
5.86339	0.897
5.90456	0.883
5.94574	0.888
5.98691	0.897
6.02809	0.911
6.06927	0.888
6.11044	0.897
6.15162	0.907
6.1928	0.919
6.23397	0.936
6.27515	0.936
6.31632	0.941
6.3575	0.935
6.39868	0.928
6.43985	0.929
6.48103	0.923
6.5222	0.929
6.56338	0.928
6.60456	0.928
6.64573	0.921
6.68691	0.914
6.72809	0.914
6.76926	0.9
6.81044	0.9
6.85161	0.89
6.89279	0.907
6.93397	0.892
6.97514	0.89
7.01632	0.868
7.0575	0.846
7.09867	0.861
7.13985	0.817
7.18102	0.779
7.2222	0.758
7.26338	0.577
7.30455	0.196
7.34573	0.064
7.3869	0.511
7.42808	0.682
7.46926	0.781
7.51043	0.743
7.55161	0.639
7.59279	0.553
7.63396	0.635
7.67514	0.762
7.71631	0.789
7.75749	0.803
7.79867	0.801
7.83984	0.757
7.88102	0.664
7.9222	0.408
7.96337	0.129
8.00455	0.193
8.04572	0.418
8.0869	0.54
8.12808	0.446
8.16925	0.34
8.21043	0.326
8.2516	0.259
8.29278	0.076
8.33396	0.035
8.37513	0.256
8.41631	0.463
8.45749	0.533
8.49866	0.611
8.53984	0.697
8.58101	0.719
8.62219	0.709
8.66337	0.729
8.70454	0.784
8.74572	0.793
8.7869	0.788
8.82807	0.788
8.86925	0.784
8.91042	0.76
8.9516	0.721
8.99278	0.637
9.03395	0.519
9.07513	0.557
9.1163	0.632
9.15748	0.687
9.19866	0.733
9.23983	0.76
9.28101	0.772
9.32219	0.767
9.36336	0.764
9.40454	0.755
9.44571	0.748
9.48689	0.752
9.52807	0.753
9.56924	0.755
9.61042	0.758
9.6516	0.753
9.69277	0.75
9.73395	0.743
9.77512	0.741
9.8163	0.7
9.85748	0.641
9.89865	0.668
9.93983	0.77
9.981	0.803
10.0222	0.813
10.0634	0.823
10.1045	0.827
10.1457	0.823
10.1869	0.798
10.2281	0.752
10.2692	0.712
10.3104	0.752
10.3516	0.794
10.3928	0.805
10.4339	0.8
10.4751	0.781
10.5163	0.717
10.5575	0.605
10.5986	0.586
10.6398	0.705
10.681	0.729
10.7222	0.69
10.7634	0.651
10.8045	0.651
10.8457	0.69
10.8869	0.709
10.9281	0.702
10.9692	0.666
11.0104	0.584
11.0516	0.502
11.0928	0.41
11.1339	0.261
11.1751	0.136
11.2163	0.152
11.2575	0.292
11.2986	0.427
11.3398	0.523
11.381	0.582
11.4222	0.608
11.4633	0.6
11.5045	0.569
11.5457	0.574
11.5869	0.606
11.6281	0.61
11.6692	0.529
11.7104	0.362
11.7516	0.141
11.7928	0.022
11.8339	0.042
11.8751	0.181
11.9163	0.264
11.9575	0.186
11.9986	0.082
12.0398	0.054
12.081	0.251
12.1222	0.376
12.1633	0.435
12.2045	0.422
12.2457	0.316
12.2869	0.252
12.328	0.49
12.3692	0.627
12.4104	0.673
12.4516	0.704
12.4928	0.724
12.5339	0.733
12.5751	0.736
12.6163	0.717
12.6575	0.673
12.6986	0.622
12.7398	0.618
12.781	0.688
12.8222	0.733
12.8633	0.753
12.9045	0.757
12.9457	0.743
12.9869	0.729
13.028	0.733
13.0692	0.765
13.1104	0.793
13.1516	0.808
13.1927	0.813
13.2339	0.81
13.2751	0.801
13.3163	0.788
13.3575	0.772
13.3986	0.743
13.4398	0.7
13.481	0.682
13.5222	0.688
13.5633	0.671
13.6045	0.63
13.6457	0.639
13.6869	0.705
13.728	0.75
13.7692	0.77
13.8104	0.779
13.8516	0.779
13.8927	0.777
13.9339	0.765
13.9751	0.743
14.0163	0.723
14.0574	0.712
14.0986	0.707
14.1398	0.702
14.181	0.699
14.2222	0.704
14.2633	0.729
14.3045	0.753
14.3457	0.777
14.3869	0.793
14.428	0.801
14.4692	0.803
14.5104	0.806
14.5516	0.81
14.5927	0.813
14.6339	0.815
14.6751	0.815
14.7163	0.815
14.7574	0.815
14.7986	0.817
14.8398	0.815
14.881	0.808
14.9221	0.803
14.9633	0.803
15.0045	0.803
15.0457	0.801
15.0869	0.801
15.128	0.801
15.1692	0.8
15.2104	0.793
15.2516	0.791
15.2927	0.789
15.3339	0.789
15.3751	0.784
15.4163	0.779
15.4574	0.776
15.4986	0.774
15.5398	0.772
15.581	0.77
15.6221	0.769
15.6633	0.769
15.7045	0.767
15.7457	0.764
15.7868	0.762
15.828	0.76
15.8692	0.753
