Infrared Spectrum: Methyl 3-morpholinopropionate
Formula: C 8 H 15 N O 3
CAS: 33611-43-7
State: gas
Origin: EPA-IR VAPOR PHASE LIBRARY
1/CM	ABSORBANCE
549.8	0.0009377
559.445	0.0009584
569.09	0.0010834
578.734	0.0011301
588.379	0.001863
598.024	0.002583
607.669	0.003993
617.313	0.006473
626.958	0.005563
636.603	0.003183
646.248	0.002503
655.893	0.002313
665.537	0.001843
675.182	0.001693
684.827	0.001673
694.472	0.002043
704.116	0.002193
713.761	0.002283
723.406	0.002253
733.051	0.002363
742.695	0.003013
752.34	0.003713
761.985	0.005773
771.63	0.007423
781.275	0.005413
790.919	0.004243
800.564	0.004203
810.209	0.004843
819.854	0.006173
829.498	0.008663
839.143	0.009493
848.788	0.010673
858.433	0.019103
868.078	0.019233
877.722	0.012863
887.367	0.010483
897.012	0.010813
906.657	0.011933
916.301	0.011923
925.946	0.010923
935.591	0.009083
945.236	0.006093
954.88	0.005883
964.525	0.006093
974.17	0.007793
983.815	0.010763
993.46	0.016883
1003.1	0.034673
1012.75	0.044803
1022.39	0.030323
1032.04	0.026233
1041.68	0.023553
1051.33	0.023143
1060.97	0.021963
1070.62	0.018013
1080.26	0.016043
1089.91	0.017583
1099.55	0.028783
1109.2	0.056873
1118.84	0.100863
1128.49	0.130453
1138.13	0.120933
1147.78	0.089073
1157.42	0.069253
1167.07	0.067253
1176.71	0.077433
1186.36	0.081543
1196	0.081913
1205.64	0.073593
1215.29	0.058603
1224.93	0.051973
1234.58	0.058203
1244.22	0.067873
1253.87	0.069853
1263.51	0.057353
1273.16	0.043953
1282.8	0.041823
1292.45	0.045733
1302.09	0.044823
1311.74	0.039113
1321.38	0.034743
1331.03	0.031323
1340.67	0.030303
1350.32	0.034613
1359.96	0.039153
1369.61	0.032733
1379.25	0.021783
1388.9	0.015173
1398.54	0.015183
1408.18	0.012693
1417.83	0.012053
1427.47	0.017993
1437.12	0.034063
1446.76	0.034283
1456.41	0.028303
1466.05	0.022143
1475.7	0.012883
1485.34	0.007143
1494.99	0.004833
1504.63	0.003933
1514.28	0.003223
1523.92	0.002973
1533.57	0.002853
1543.21	0.002633
1552.86	0.002483
1562.5	0.002433
1572.15	0.002333
1581.79	0.002243
1591.44	0.002203
1601.08	0.002083
1610.73	0.002013
1620.37	0.002013
1630.01	0.001913
1639.66	0.002033
1649.3	0.001963
1658.95	0.002123
1668.59	0.002543
1678.24	0.002903
1687.88	0.003903
1697.53	0.005773
1707.17	0.009513
1716.82	0.014723
1726.46	0.023133
1736.11	0.040083
1745.75	0.075723
1755.4	0.128703
1765.04	0.124683
1774.69	0.064023
1784.33	0.029713
1793.98	0.015563
1803.62	0.008763
1813.27	0.005413
1822.91	0.003473
1832.55	0.002383
1842.2	0.001993
1851.84	0.001833
1861.49	0.001733
1871.13	0.001733
1880.78	0.001733
1890.42	0.001863
1900.07	0.001913
1909.71	0.001853
1919.36	0.001993
1929	0.001963
1938.65	0.002023
1948.29	0.001993
1957.94	0.002163
1967.58	0.002613
1977.23	0.002823
1986.87	0.002723
1996.52	0.002473
2006.16	0.002223
2015.81	0.002093
2025.45	0.002123
2035.1	0.002173
2044.74	0.002153
2054.38	0.002153
2064.03	0.002223
2073.67	0.002173
2083.32	0.001823
2092.96	0.001623
2102.61	0.001393
2112.25	0.001213
2121.9	0.0011527
2131.54	0.0011303
2141.19	0.0010324
2150.83	0.0010185
2160.48	0.0010332
2170.12	0.0009402
2179.77	0.0009215
2189.41	0.0008146
2199.06	0.0008533
2208.7	0.0008913
2218.35	0.0008335
2227.99	0.0008947
2237.64	0.0008522
2247.28	0.0009577
2256.92	0.0009347
2266.57	0.0009792
2276.21	0.0010122
2285.86	0.001051
2295.5	0.0009938
2305.15	0.0009701
2314.79	0.0008984
2324.44	0.0008479
2334.08	0.0008675
2343.73	0.0008617
2353.37	0.0009257
2363.02	0.0008875
2372.66	0.0009257
2382.31	0.0009568
2391.95	0.0009486
2401.6	0.0008498
2411.24	0.0008357
2420.89	0.0009175
2430.53	0.0006866
2440.18	0.0008172
2449.82	0.0007751
2459.47	0.0007176
2469.11	0.0009436
2478.75	0.0009598
2488.4	0.0010137
2498.04	0.0009302
2507.69	0.0008675
2517.33	0.0008604
2526.98	0.0006501
2536.62	0.0007593
2546.27	0.0009135
2555.91	0.0009534
2565.56	0.001253
2575.2	0.001263
2584.85	0.001353
2594.49	0.001323
2604.14	0.001453
2613.78	0.001733
2623.43	0.001803
2633.07	0.002273
2642.72	0.003213
2652.36	0.004003
2662.01	0.004553
2671.65	0.005583
2681.29	0.007113
2690.94	0.008223
2700.58	0.007973
2710.23	0.007883
2719.87	0.008543
2729.52	0.010023
2739.16	0.011503
2748.81	0.013823
2758.45	0.016983
2768.1	0.019623
2777.74	0.022263
2787.39	0.028063
2797.03	0.041593
2806.68	0.059973
2816.32	0.062993
2825.97	0.052023
2835.61	0.041923
2845.26	0.042033
2854.9	0.057863
2864.55	0.066673
2874.19	0.045323
2883.84	0.031643
2893.48	0.032023
2903.12	0.036123
2912.77	0.038213
2922.41	0.043413
2932.06	0.050163
2941.7	0.057183
2951.35	0.067623
2960.99	0.088853
2970.64	0.094373
2980.28	0.053593
2989.93	0.024833
2999.57	0.016973
3009.22	0.012173
3018.86	0.009423
3028.51	0.007923
3038.15	0.006253
3047.8	0.004573
3057.44	0.003643
3067.09	0.003003
3076.73	0.002683
3086.38	0.002533
3096.02	0.002293
3105.67	0.002273
3115.31	0.001673
3124.95	0.001403
3134.6	0.001343
3144.24	0.0010308
3153.89	0.0009753
3163.53	0.0008814
3173.18	0.0007412
3182.82	0.0005809
3192.47	0.0005897
3202.11	0.0005162
3211.76	0.0003909
3221.4	0.0004566
3231.05	0.0006299
3240.69	0.000549
3250.34	0.0003679
3259.98	0.0001926
3269.63	0.0002108
3279.27	0.0002548
3288.92	9.9e-05
3298.56	0.0002892
3308.21	0.0001976
3317.85	0.0002025
3327.49	0.0001881
3337.14	0.00026331
3346.78	0.0002077
3356.43	0.0001795
3366.07	0.0002211
3375.72	0.00024196
3385.36	0.0001254
3395.01	0.000118
3404.65	0.0004883
3414.3	0.00029287
3423.94	0.0003442
3433.59	0.000417
3443.23	0.0004096
3452.88	0.0002957
3462.52	0.0006112
3472.17	0.0008242
3481.81	0.0010574
3491.46	0.001393
3501.1	0.001483
3510.75	0.001443
3520.39	0.0009036
3530.04	0.0006611
3539.68	0.0006567
3549.32	0.0004311
3558.97	0.00031335
3568.61	0.0003953
3578.26	0.0001459
3587.9	0.00025073
3597.55	0.0003685
3607.19	0.0001961
3616.84	0.000101
3626.48	0.000187
3636.13	0.0003151
3645.77	0.0001425
3655.42	0.0001384
3665.06	0.00028891
3674.71	0.00027511
3684.35	0.000121
3694	0.00029332
3703.64	0.0001788
3713.29	0.000189
3722.93	0.0003578
3732.58	0.00026094
3742.22	0.0002865
3751.86	0.00026669
3761.51	0.00029481
3771.15	0.0002047
3780.8	0.00021734
3790.44	1.1e-05
3800.09	0.0002167
3809.73	0.0004829
3819.38	0.0004746
3829.02	0.0003939
3838.67	0.0004342
3848.31	0.0003481
3857.96	0.0004167
3867.6	0.0004481
3877.25	0.0004764
3886.89	0.0005799
3896.54	0.0004509
3906.18	0.0003254
3915.83	0.0003761
3925.47	0.0005356
3935.12	0.0007396
3944.76	0.0006641
3954.41	0.0006868
3964.05	0.0007998
3973.69	0.0011094
3983.34	0.0008991
3992.98	0.0009359
