Infrared Spectrum: 4,4'-Diamino-p-terphenyl
Formula: C 18 H 16 N 2
CAS: 3365-85-3
State: gas
Origin: EPA-IR VAPOR PHASE LIBRARY
1/CM	ABSORBANCE
549.8	0.002262
559.445	0.001912
569.09	0.001932
578.734	0.002272
588.379	0.001882
598.024	0.002182
607.669	0.001932
617.313	0.002842
626.958	0.004992
636.603	0.004992
646.248	0.003422
655.893	0.004062
665.537	0.005092
675.182	0.004012
684.827	0.003672
694.472	0.003202
704.116	0.003022
713.761	0.002952
723.406	0.002112
733.051	0.001692
742.695	0.002202
752.34	0.002292
761.985	0.002012
771.63	0.002142
781.275	0.002612
790.919	0.003212
800.564	0.004962
810.209	0.007692
819.854	0.006702
829.498	0.003932
839.143	0.002572
848.788	0.002332
858.433	0.001752
868.078	0.001712
877.722	0.0012472
887.367	0.0013418
897.012	0.0014176
906.657	0.0013267
916.301	0.0010295
925.946	0.0012138
935.591	0.0008606
945.236	0.0013166
954.88	0.0011956
964.525	0.0012506
974.17	0.0012653
983.815	0.0010547
993.46	0.0012289
1003.1	0.002972
1012.75	0.002152
1022.39	0.0009832
1032.04	0.0010332
1041.68	0.0015564
1051.33	0.001752
1060.97	0.001742
1070.62	0.001204
1080.26	0.002082
1089.91	0.0015584
1099.55	0.0009129
1109.2	0.0011918
1118.84	0.0014228
1128.49	0.0015066
1138.13	0.001862
1147.78	0.0014823
1157.42	0.0008186
1167.07	0.0010958
1176.71	0.003492
1186.36	0.004662
1196	0.000381
1205.64	0.0009394
1215.29	0.0005126
1224.93	0.00061203
1234.58	0.001189
1244.22	0.002362
1253.87	0.003352
1263.51	0.007672
1273.16	0.013082
1282.8	0.005432
1292.45	0.002082
1302.09	0.0013257
1311.74	0.0011681
1321.38	0.0011659
1331.03	0.001088
1340.67	0.000969
1350.32	0.0009905
1359.96	0.0009227
1369.61	0.0009889
1379.25	0.0010981
1388.9	0.001072
1398.54	0.0010928
1408.18	0.0010758
1417.83	0.0010551
1427.47	0.0011924
1437.12	0.0010906
1446.76	0.0013966
1456.41	0.001962
1466.05	0.002402
1475.7	0.003202
1485.34	0.010672
1494.99	0.018302
1504.63	0.006642
1514.28	0.002762
1523.92	0.002722
1533.57	0.005302
1543.21	0.002582
1552.86	0.001642
1562.5	0.001612
1572.15	0.0015803
1581.79	0.001882
1591.44	0.002862
1601.08	0.004282
1610.73	0.006482
1620.37	0.011462
1630.01	0.010822
1639.66	0.005002
1649.3	0.002702
1658.95	0.001992
1668.59	0.0015675
1678.24	0.0013386
1687.88	0.0011189
1697.53	0.0010226
1707.17	0.0009854
1716.82	0.001084
1726.46	0.000987
1736.11	0.0009879
1745.75	0.0010967
1755.4	0.0010314
1765.04	0.0008643
1774.69	0.0008319
1784.33	0.000848
1793.98	0.0008574
1803.62	0.0008253
1813.27	0.0008973
1822.91	0.0008974
1832.55	0.0009395
1842.2	0.0007414
1851.84	0.0008563
1861.49	0.0009978
1871.13	0.0010971
1880.78	0.0012459
1890.42	0.0011482
1900.07	0.0010375
1909.71	0.0008885
1919.36	0.001026
1929	0.0007916
1938.65	0.000833
1948.29	0.0009284
1957.94	0.0008209
1967.58	0.0007959
1977.23	0.0008652
1986.87	0.0007522
1996.52	0.0007798
2006.16	0.0008345
2015.81	0.0009197
2025.45	0.0008812
2035.1	0.0008136
2044.74	0.000983
2054.38	0.0007937
2064.03	0.0009141
2073.67	0.00066082
2083.32	0.0008714
2092.96	0.0008511
2102.61	0.0008659
2112.25	0.0007624
2121.9	0.0008539
2131.54	0.0007403
2141.19	0.0007792
2150.83	0.0006554
2160.48	0.000844
2170.12	0.00064046
2179.77	0.0010175
2189.41	0.0008664
2199.06	0.0007443
2208.7	0.0007955
2218.35	0.0007685
2227.99	0.0007061
2237.64	0.00065882
2247.28	0.0007091
2256.92	0.0009557
2266.57	0.000748
2276.21	0.0008771
2285.86	0.0007899
2295.5	0.0007447
2305.15	0.0007755
2314.79	0.0008086
2324.44	0.00066182
2334.08	0.0009336
2343.73	0.0007126
2353.37	0.0008812
2363.02	0.00066887
2372.66	0.00065589
2382.31	0.0007273
2391.95	0.0007073
2401.6	0.00068883
2411.24	0.0008633
2420.89	0.0005784
2430.53	0.0008703
2440.18	0.0007178
2449.82	0.0007251
2459.47	0.0008782
2469.11	0.0006936
2478.75	0.0007923
2488.4	0.00067506
2498.04	0.0007462
2507.69	0.000591007
2517.33	0.0007491
2526.98	0.0007243
2536.62	0.0008177
2546.27	0.0007569
2555.91	0.0008944
2565.56	0.00065078
2575.2	0.0007757
2584.85	0.00068917
2594.49	0.0007731
2604.14	0.00068316
2613.78	0.0007501
2623.43	0.00062864
2633.07	0.0008392
2642.72	0.0008129
2652.36	0.00068236
2662.01	0.0008322
2671.65	0.0007554
2681.29	0.0008273
2690.94	0.00066549
2700.58	0.0007389
2710.23	0.0007266
2719.87	0.0008135
2729.52	0.0006993
2739.16	0.0005737
2748.81	0.0008968
2758.45	0.0007745
2768.1	0.00064013
2777.74	0.000514
2787.39	0.00067414
2797.03	0.0006585
2806.68	0.0005662
2816.32	0.000598476
2825.97	0.00062427
2835.61	0.0006427
2845.26	0.0007341
2854.9	0.0007158
2864.55	0.0007096
2874.19	0.00063896
2883.84	0.0009596
2893.48	0.0009094
2903.12	0.0011198
2912.77	0.0008926
2922.41	0.0009412
2932.06	0.0007752
2941.7	0.0007468
2951.35	0.0009729
2960.99	0.0009378
2970.64	0.0011301
2980.28	0.0011689
2989.93	0.0013746
2999.57	0.001912
3009.22	0.002252
3018.86	0.002982
3028.51	0.006512
3038.15	0.005092
3047.8	0.002732
3057.44	0.002672
3067.09	0.002502
3076.73	0.002162
3086.38	0.001672
3096.02	0.0013068
3105.67	0.0014246
3115.31	0.0009076
3124.95	0.0010859
3134.6	0.0010579
3144.24	0.000592663
3153.89	0.00068474
3163.53	0.0007539
3173.18	0.0008016
3182.82	0.0005464
3192.47	0.0007671
3202.11	0.0007108
3211.76	0.00066433
3221.4	0.0007074
3231.05	0.0007102
3240.69	0.00060893
3250.34	0.0007335
3259.98	0.0005468
3269.63	0.00066961
3279.27	0.000726
3288.92	0.00063803
3298.56	0.000596643
3308.21	0.00063456
3317.85	0.000809
3327.49	0.000793
3337.14	0.0007007
3346.78	0.0007233
3356.43	0.0008233
3366.07	0.00069021
3375.72	0.0008762
3385.36	0.0011516
3395.01	0.001732
3404.65	0.002132
3414.3	0.002022
3423.94	0.0015848
3433.59	0.0008679
3443.23	0.00093
3452.88	0.0007933
3462.52	0.0010768
3472.17	0.0009003
3481.81	0.0009087
3491.46	0.0011671
3501.1	0.0012201
3510.75	0.0008635
3520.39	0.0011503
3530.04	0.0008561
3539.68	0.0007254
3549.32	0.0007671
3558.97	0.0007823
3568.61	0.0009226
3578.26	0.0008923
3587.9	0.0008989
3597.55	0.000298
3607.19	0.0005409
3616.84	0.0005673
3626.48	0.0004951
3636.13	0.00062352
3645.77	0.00068247
3655.42	0.0007134
3665.06	0.0009443
3674.71	0.000478
3684.35	0.000447
3694	0.00064567
3703.64	0.0005564
3713.29	0.00068539
3722.93	0.0007617
3732.58	0.0010041
3742.22	0.0008701
3751.86	0.0007408
3761.51	0.0005541
3771.15	0.000464
3780.8	0.0007217
3790.44	0.0005202
3800.09	0.0007147
3809.73	0.0007576
3819.38	0.00065714
3829.02	0.0009165
3838.67	0.00068104
3848.31	0.0008955
3857.96	0.0008496
3867.6	0.0011001
3877.25	0.0009909
3886.89	0.0008133
3896.54	0.0007187
3906.18	0.00067333
3915.83	0.0008083
3925.47	0.0008507
3935.12	0.00064752
3944.76	0.0005024
3954.41	0.0007122
3964.05	0.0008767
3973.69	0.0006703
3983.34	0.0006835
3992.98	0.0007243
