Infrared Spectrum: Aniline, 2,5-dichloro-, hydrochloride
Formula: C6 H6 Cl3 N
CAS: 33663-41-1
State: SOLID (KBr DISC, 1% WT.)
Class: COBLENTZ III
Instrument: PERKIN-ELMER 157
Sampling: TRANSMISSION
Resolution: 2
Origin: BRITISH PETROLEUM CO. LTD., ENGLAND
1/CM	TRANSMITTANCE
668	0.879
677	0.8046
686	0.449
695	0.8453
704	0.6799
713	0.8013
722	0.7728
731	0.7609
740	0.7422
749	0.7156
758	0.7035
767	0.6887
776	0.6688
785	0.637
794	0.6093
803	0.5762
812	0.4862
821	0.226
830	0.5392
839	0.7037
848	0.6901
857	0.6562
866	0.5825
875	0.4345
884	0.2346
893	0.7879
902	0.7534
911	0.7266
920	0.7179
929	0.7034
938	0.6939
947	0.6801
956	0.6562
965	0.6656
974	0.6558
983	0.6382
992	0.6284
1001	0.6151
1010	0.6051
1019	0.5807
1028	0.5249
1037	0.4722
1046	0.2376
1055	0.5689
1064	0.5105
1073	0.4352
1082	0.3344
1091	0.1054
1100	0.0663
1109	0.4858
1118	0.5371
1127	0.4076
1136	0.3306
1145	0.2501
1154	0.2082
1163	0.6114
1172	0.6909
1181	0.6786
1190	0.6652
1199	0.6573
1208	0.6321
1217	0.6499
1226	0.6492
1235	0.623
1244	0.611
1253	0.5804
1262	0.4802
1271	0.5764
1280	0.5397
1289	0.6016
1298	0.5906
1307	0.5717
1316	0.5655
1325	0.5503
1334	0.5468
1343	0.5362
1352	0.5055
1361	0.4643
1370	0.3978
1379	0.3764
1388	0.335
1397	0.2674
1406	0.2511
1415	0.3933
1424	0.3653
1433	0.418
1442	0.3835
1451	0.2779
1460	0.198
1469	0.0717
1478	0.1793
1487	0.4321
1496	0.247
1505	0.2843
1514	0.4797
1523	0.471
1532	0.3976
1541	0.3149
1550	0.2266
1559	0.201
1568	0.285
1577	0.2416
1586	0.2714
1595	0.5228
1604	0.4489
1613	0.4989
1622	0.5185
1631	0.4838
1640	0.462
1649	0.5234
1658	0.5296
1667	0.5299
1676	0.5274
1685	0.5201
1694	0.5191
1703	0.5127
1712	0.5113
1721	0.508
1730	0.4906
1739	0.4638
1748	0.4236
1757	0.4883
1766	0.4797
1775	0.473
1784	0.4607
1793	0.4484
1802	0.4448
1811	0.4311
1820	0.4301
1829	0.4231
1838	0.4207
1847	0.42
1856	0.4191
1865	0.4081
1874	0.4012
1883	0.3807
1892	0.3658
1901	0.3349
1910	0.2891
1919	0.2946
1928	0.2605
1937	0.2361
1946	0.2392
1955	0.2399
1964	0.2325
1973	0.2233
1982	0.2118
1991	0.2121
2000	0.2762
2009	0.3628
2018	0.3617
2027	0.3616
2036	0.3878
2045	0.3996
2054	0.4133
2063	0.4217
2072	0.4174
2081	0.4023
2090	0.3954
2099	0.3876
2108	0.377
2117	0.3645
2126	0.3616
2135	0.3623
2144	0.3626
2153	0.3552
2162	0.3388
2171	0.3232
2180	0.31
2189	0.3057
2198	0.3179
2207	0.3242
2216	0.3258
2225	0.3208
2234	0.3092
2243	0.3
2252	0.2895
2261	0.2794
2270	0.2716
2279	0.2646
2288	0.2612
2297	0.2595
2306	0.2574
2315	0.2499
2324	0.2393
2333	0.2291
2342	0.2209
2351	0.213
2360	0.2026
2369	0.1945
2378	0.1918
2387	0.1906
2396	0.1877
2405	0.178
2414	0.1668
2423	0.161
2432	0.1557
2441	0.1459
2450	0.1341
2459	0.1211
2468	0.1097
2477	0.1001
2486	0.0846
2495	0.0687
2504	0.0561
2513	0.0425
2522	0.0395
2531	0.0381
2540	0.0323
2549	0.0275
2558	0.0269
2567	0.0264
2576	0.026
2585	0.0258
2594	0.0276
2603	0.0377
2612	0.05
2621	0.0634
2630	0.0721
2639	0.0713
2648	0.0657
2657	0.0553
2666	0.0434
2675	0.0389
2684	0.0381
2693	0.0372
2702	0.0356
2711	0.0241
2720	0.0165
2729	0.0136
2738	0.0134
2747	0.0133
2756	0.0132
2765	0.0132
2774	0.0133
2783	0.0136
2792	0.0141
2801	0.0148
2810	0.0154
2819	0.0162
2828	0.0171
2837	0.0181
2846	0.0202
2855	0.0227
2864	0.0262
2873	0.031
2882	0.0384
2891	0.0504
2900	0.0609
2909	0.072
2918	0.0831
2927	0.0924
2936	0.1002
2945	0.1099
2954	0.1212
2963	0.1323
2972	0.1415
2981	0.1479
2990	0.1526
2999	0.1554
3008	0.1564
3017	0.1564
3026	0.1556
3035	0.1664
3044	0.21
3053	0.2533
3062	0.2918
3071	0.3054
3080	0.3194
3089	0.3374
3098	0.3511
3107	0.3627
3116	0.3731
3125	0.3829
3134	0.4731
3143	0.4785
3152	0.4801
3161	0.4812
3170	0.4822
3179	0.4831
3188	0.4833
3197	0.482
3206	0.4826
3215	0.4818
3224	0.4806
3233	0.4784
3242	0.4761
3251	0.4732
3260	0.47
3269	0.4661
3278	0.4617
3287	0.4571
3296	0.4511
3305	0.4457
3314	0.4412
3323	0.4368
3332	0.4324
3341	0.427
3350	0.4214
3359	0.4157
3368	0.4065
3377	0.3972
3386	0.3889
3395	0.3819
3404	0.3783
3413	0.3782
3422	0.3784
3431	0.3788
3440	0.3797
3449	0.381
3458	0.3832
3467	0.3861
3476	0.3897
3485	0.3923
3494	0.3945
3503	0.3957
3512	0.3962
3521	0.3967
3530	0.397
3539	0.402
3548	0.4123
3557	0.415
3566	0.4156
3575	0.4163
3584	0.4171
3593	0.4177
3602	0.4181
3611	0.4187
3620	0.4189
3629	0.4191
3638	0.4191
3647	0.4191
3656	0.4189
3665	0.4184
3674	0.4177
3683	0.4168
3692	0.4148
3701	0.4123
3710	0.4081
3719	0.4028
3728	0.398
3737	0.3956
3746	0.3953
3755	0.3951
3764	0.3948
3773	0.3945
3782	0.3931
3791	0.3843
3800	0.3793
3809	0.3786
3818	0.3779
3827	0.3773
3836	0.3768
3845	0.3763
3854	0.3757
3863	0.3752
3872	0.3746
3881	0.374
3890	0.3733
3899	0.3726
3908	0.3719
3917	0.37
3926	0.3647
3935	0.3619
3944	0.3607
3953	0.3598
3962	0.3589
3971	0.3572
3980	0.3554
3989	0.3537
3998	0.3523
