Infrared Spectrum: p-CHLOROANILINE HYDROBROMIDE
Formula: C6 H6 N Cl  * H Br
CAS: 33663-37-5
State: SOLID (MINERAL OIL MULL)
Melting point: 243-247 C
Class: COBLENTZ
Instrument: Not specified, most likely a grating spectrometer.
Sampling: TRANSMISSION
Resolution: 4
Origin: STANDARD OIL OF OHIO
1/CM	TRANSMITTANCE
613.121	0.748
621.563	0.767
630.005	0.77
638.447	0.821
646.888	0.827
655.33	0.836
663.772	0.844
672.214	0.848
680.656	0.849
689.098	0.86
697.54	0.849
705.982	0.836
714.423	0.814
722.865	0.839
731.307	0.858
739.749	0.865
748.191	0.868
756.633	0.868
765.075	0.866
773.516	0.868
781.958	0.865
790.4	0.829
798.842	0.711
807.284	0.644
815.726	0.367
824.168	0.797
832.61	0.849
841.051	0.868
849.493	0.868
857.935	0.868
866.377	0.866
874.819	0.866
883.261	0.861
891.703	0.86
900.144	0.86
908.586	0.854
917.028	0.848
925.47	0.844
933.912	0.836
942.354	0.838
950.796	0.826
959.238	0.799
967.679	0.822
976.121	0.846
984.563	0.833
993.005	0.821
1001.45	0.79
1009.89	0.686
1018.33	0.745
1026.77	0.801
1035.21	0.787
1043.66	0.741
1052.1	0.666
1060.54	0.73
1068.98	0.765
1077.42	0.701
1085.87	0.463
1094.31	0.59
1102.75	0.715
1111.19	0.747
1119.63	0.787
1128.07	0.785
1136.52	0.782
1144.96	0.779
1153.4	0.77
1161.84	0.76
1170.28	0.733
1178.73	0.758
1187.17	0.748
1195.61	0.743
1204.05	0.784
1212.49	0.784
1220.94	0.784
1229.38	0.784
1237.82	0.78
1246.26	0.777
1254.7	0.768
1263.14	0.753
1271.59	0.736
1280.03	0.743
1288.47	0.745
1296.91	0.733
1305.35	0.755
1313.8	0.762
1322.24	0.757
1330.68	0.735
1339.12	0.715
1347.56	0.688
1356.01	0.664
1364.45	0.657
1372.89	0.686
1381.33	0.757
1389.77	0.762
1398.21	0.762
1406.66	0.763
1415.1	0.767
1423.54	0.657
1431.98	0.573
1440.42	0.453
1448.87	0.389
1457.31	0.392
1465.75	0.456
1474.19	0.389
1482.63	0.232
1491.08	0.448
1499.52	0.608
1507.96	0.741
1516.4	0.763
1524.84	0.757
1533.28	0.703
1541.73	0.612
1550.17	0.517
1558.61	0.654
1567.05	0.772
1575.49	0.806
1583.94	0.801
1592.38	0.784
1600.82	0.721
1609.26	0.669
1617.7	0.785
1626.15	0.789
1634.59	0.797
1643.03	0.795
1651.47	0.794
1659.91	0.794
1668.35	0.836
1676.8	0.839
1685.24	0.836
1693.68	0.829
1702.12	0.824
1710.56	0.819
1719.01	0.827
1727.45	0.833
1735.89	0.833
1744.33	0.833
1752.77	0.833
1761.21	0.831
1769.66	0.829
1778.1	0.827
1786.54	0.821
1794.98	0.816
1803.42	0.812
1811.87	0.807
1820.31	0.806
1828.75	0.804
1837.19	0.799
1845.63	0.794
1854.08	0.784
1862.52	0.768
1870.96	0.748
1879.4	0.728
1887.84	0.715
1896.28	0.696
1904.73	0.72
1913.17	0.765
1921.61	0.784
1930.05	0.797
1938.49	0.804
1946.94	0.806
1955.38	0.806
1963.82	0.806
1972.26	0.816
1980.7	0.819
1989.15	0.821
1997.59	0.824
2006.03	0.826
2014.47	0.826
2022.91	0.826
2031.35	0.826
2039.8	0.826
2048.24	0.824
2056.68	0.824
2065.12	0.822
2073.56	0.821
2082.01	0.817
2090.45	0.816
2098.89	0.814
2107.33	0.812
2115.77	0.811
2124.22	0.809
2132.66	0.809
2141.1	0.806
2149.54	0.802
2157.98	0.801
2166.42	0.797
2174.87	0.795
2183.31	0.792
2191.75	0.792
2200.19	0.792
2208.63	0.79
2217.08	0.792
2225.52	0.794
2233.96	0.795
2242.4	0.795
2250.84	0.795
2259.29	0.794
2267.73	0.792
2276.17	0.79
2284.61	0.787
2293.05	0.784
2301.49	0.78
2309.94	0.772
2318.38	0.77
2326.82	0.768
2335.26	0.768
2343.7	0.767
2352.15	0.765
2360.59	0.765
2369.03	0.763
2377.47	0.763
2385.91	0.762
2394.35	0.757
2402.8	0.753
2411.24	0.75
2419.68	0.743
2428.12	0.738
2436.56	0.733
2445.01	0.728
2453.45	0.721
2461.89	0.711
2470.33	0.698
2478.77	0.682
2487.22	0.669
2495.66	0.644
2504.1	0.608
2512.54	0.566
2520.98	0.494
2529.42	0.455
2537.87	0.48
2546.31	0.494
2554.75	0.485
2563.19	0.46
2571.63	0.433
2580.08	0.453
2588.52	0.495
2596.96	0.502
2605.4	0.502
2613.84	0.5
2622.29	0.495
2630.73	0.48
2639.17	0.475
2647.61	0.477
2656.05	0.477
2664.49	0.482
2672.94	0.483
2681.38	0.475
2689.82	0.47
2698.26	0.463
2706.7	0.443
2715.15	0.424
2723.59	0.414
2732.03	0.408
2740.47	0.396
2748.91	0.374
2757.36	0.349
2765.8	0.323
2774.24	0.296
2782.68	0.266
2791.12	0.241
2799.56	0.214
2808.01	0.188
2816.45	0.158
2824.89	0.129
2833.33	0.065
2841.77	0.013
2850.22	0.008
2858.66	0.01
2867.1	0.01
2875.54	0.01
2883.98	0.003
2892.43	0
2900.87	0
2909.31	0
2917.75	0
2926.19	0
2934.63	0.003
2943.08	0.003
2951.52	0.005
2959.96	0.013
2968.4	0.05
2976.84	0.104
2985.29	0.133
2993.73	0.158
3002.17	0.185
3010.61	0.205
3019.05	0.231
3027.49	0.246
3035.94	0.254
3044.38	0.263
3052.82	0.284
3061.26	0.35
3069.7	0.403
3078.15	0.436
3086.59	0.446
3095.03	0.448
3103.47	0.458
3111.91	0.495
3120.36	0.507
3128.8	0.527
3137.24	0.546
3145.68	0.561
3154.12	0.593
3162.56	0.617
3171.01	0.635
3179.45	0.661
3187.89	0.686
3196.33	0.706
3204.77	0.72
3213.22	0.733
3221.66	0.745
3230.1	0.747
3238.54	0.748
3246.98	0.752
3255.43	0.755
3263.87	0.757
3272.31	0.757
3280.75	0.757
3289.19	0.757
3297.63	0.755
3306.08	0.753
3314.52	0.752
3322.96	0.752
3331.4	0.752
3339.84	0.752
3348.29	0.752
3356.73	0.752
3365.17	0.752
3373.61	0.752
3382.05	0.752
3390.5	0.75
3398.94	0.75
3407.38	0.748
3415.82	0.748
3424.26	0.747
3432.7	0.747
3441.15	0.747
3449.59	0.745
3458.03	0.745
3466.47	0.745
3474.91	0.745
3483.36	0.745
3491.8	0.743
3500.24	0.743
3508.68	0.741
3517.12	0.741
3525.57	0.741
3534.01	0.741
3542.45	0.741
3550.89	0.74
3559.33	0.738
3567.77	0.738
3576.22	0.736
3584.66	0.735
3593.1	0.733
3601.54	0.733
3609.98	0.731
3618.43	0.731
3626.87	0.73
3635.31	0.73
3643.75	0.728
3652.19	0.726
3660.63	0.725
3669.08	0.723
3677.52	0.723
3685.96	0.723
3694.4	0.723
3702.84	0.721
3711.29	0.721
3719.73	0.72
3728.17	0.72
3736.61	0.718
3745.05	0.716
3753.5	0.716
3761.94	0.716
3770.38	0.715
3778.82	0.713
3787.26	0.713
3795.7	0.711
3804.15	0.708
3812.59	0.708
3821.03	0.706
3829.47	0.706
3837.91	0.704
3846.36	0.704
3854.8	0.703
3863.24	0.703
3871.68	0.701
3880.12	0.701
3888.57	0.701
3897.01	0.701
3905.45	0.699
3913.89	0.699
3922.33	0.698
3930.77	0.698
3939.22	0.698
