Infrared Spectrum: Nipecotamide, N,N-diethyl-
Formula: C10 H20 N2 O
CAS: 3367-95-1
State: SOLUTION (10% CCl4 FOR 3800-1330, 10% CS2 FOR 1330-400 CM^-^1)
Melting point: 120 C
Class: COBLENTZ III
Instrument: DOW KBr FOREPRISM-GRATING
Instrument parameters: BLAZED AT 3.5, 12.0, 20.0 MICRON AND CHANGED AT 5.0, 7.5, 14.9 MICRON
Sampling: TRANSMISSION
Path length: 0.011 CM, 0.011 CM
Resolution: 2
Origin: DOW CHEMICAL COMPANY
1/CM	TRANSMITTANCE
3802	0.9159
3793	0.9172
3784	0.9163
3775	0.9158
3766	0.917
3757	0.9169
3748	0.9169
3739	0.9173
3730	0.9177
3721	0.9171
3712	0.9165
3703	0.9155
3694	0.9084
3685	0.8975
3676	0.8866
3667	0.8969
3658	0.9058
3649	0.909
3640	0.9102
3631	0.9112
3622	0.9104
3613	0.9087
3604	0.9064
3595	0.9029
3586	0.8995
3577	0.8961
3568	0.8911
3559	0.8877
3550	0.8855
3541	0.883
3532	0.8797
3523	0.8743
3514	0.8708
3505	0.8676
3496	0.8646
3487	0.8615
3478	0.8583
3469	0.8548
3460	0.8515
3451	0.8496
3442	0.8487
3433	0.8481
3424	0.8483
3415	0.8492
3406	0.8502
3397	0.8495
3388	0.8487
3379	0.8469
3370	0.8436
3361	0.8344
3352	0.8249
3343	0.8141
3334	0.8003
3325	0.7964
3316	0.8019
3307	0.8079
3298	0.8128
3289	0.8153
3280	0.8151
3271	0.8119
3262	0.8103
3253	0.8148
3244	0.821
3235	0.8289
3226	0.8336
3217	0.8349
3208	0.8323
3199	0.8318
3190	0.8316
3181	0.832
3172	0.8328
3163	0.8348
3154	0.8355
3145	0.8356
3136	0.8379
3127	0.838
3118	0.8373
3109	0.833
3100	0.8315
3091	0.8308
3082	0.8227
3073	0.8214
3064	0.8121
3055	0.8029
3046	0.7906
3037	0.7731
3028	0.7113
3019	0.6385
3010	0.4641
3001	0.3278
2992	0.2257
2983	0.1169
2974	0.0968
2965	0.13
2956	0.0927
2947	0.0637
2938	0.0506
2929	0.0819
2920	0.1286
2911	0.1892
2902	0.2696
2893	0.3333
2884	0.3456
2875	0.3031
2866	0.3317
2857	0.3341
2848	0.4041
2839	0.4498
2830	0.4486
2821	0.4038
2812	0.4067
2803	0.4341
2794	0.469
2785	0.5162
2776	0.5607
2767	0.5801
2758	0.5968
2749	0.5947
2740	0.5996
2731	0.5977
2722	0.5883
2713	0.6298
2704	0.6488
2695	0.6549
2686	0.6618
2677	0.6738
2668	0.6856
2659	0.7
2650	0.712
2641	0.7246
2632	0.7375
2623	0.7452
2614	0.7513
2605	0.7561
2596	0.7578
2587	0.7586
2578	0.7649
2569	0.7712
2560	0.7774
2551	0.7823
2542	0.7846
2533	0.7852
2524	0.788
2515	0.7898
2506	0.7879
2497	0.7828
2488	0.7828
2479	0.7898
2470	0.7956
2461	0.8011
2452	0.8063
2443	0.81
2434	0.812
2425	0.8111
2416	0.8067
2407	0.8053
2398	0.8075
2389	0.8105
2380	0.815
2371	0.8172
2362	0.8145
2353	0.8225
2344	0.8307
2335	0.8346
2326	0.841
2317	0.8477
2308	0.8507
2299	0.8489
2290	0.8478
2281	0.8469
2272	0.8462
2263	0.8469
2254	0.8485
2245	0.8502
2236	0.8527
2227	0.8545
2218	0.8563
2209	0.8593
2200	0.8624
2191	0.8621
2182	0.8624
2173	0.8633
2164	0.8617
2155	0.8615
2146	0.8621
2137	0.8623
2128	0.8638
2119	0.8665
2110	0.8694
2101	0.8706
2092	0.8665
2083	0.8664
2074	0.8672
2065	0.868
2056	0.8704
2047	0.8705
2038	0.8712
2029	0.8709
2020	0.8693
2011	0.8671
2002	0.8658
1993	0.862
1984	0.8611
1975	0.8616
1966	0.8645
1957	0.8692
1948	0.8639
1939	0.8644
1930	0.8636
1921	0.863
1912	0.8628
1903	0.8645
1894	0.8639
1885	0.8607
1876	0.859
1867	0.8594
1858	0.8604
1849	0.8614
1840	0.8633
1831	0.8653
1822	0.8668
1813	0.8689
1804	0.866
1795	0.8626
1786	0.8594
1777	0.8556
1768	0.8488
1759	0.8425
1750	0.8359
1741	0.8279
1732	0.8202
1723	0.8093
1714	0.7997
1705	0.7892
1696	0.7742
1687	0.7341
1678	0.6497
1669	0.5248
1660	0.3364
1651	0.0343
1642	0.0054
1633	0.0017
1624	0.0663
1615	0.306
1606	0.451
1597	0.5077
1588	0.5639
1579	0.6333
1570	0.6439
1561	0.6527
1552	0.6706
1543	0.6829
1534	0.679
1525	0.6895
1516	0.6832
1507	0.6552
1498	0.6013
1489	0.3518
1480	0.1673
1471	0.213
1462	0.0792
1453	0.0937
1444	0.0857
1435	0.0751
1426	0.0957
1417	0.3466
1408	0.4507
1399	0.5669
1390	0.551
1381	0.1653
1372	0.4359
1363	0.2333
1354	0.4183
1345	0.4205
1336	0.5872
1327	0.4663
1318	0.3117
1309	0.4387
1300	0.4547
1291	0.4318
1282	0.3097
1273	0.3496
1264	0.4533
1255	0.3393
1246	0.1437
1237	0.1677
1228	0.1981
1219	0.12
1210	0.1222
1201	0.5225
1192	0.3628
1183	0.6694
1174	0.7115
1165	0.6623
1156	0.6972
1147	0.4367
1138	0.3704
1129	0.3018
1120	0.4232
1111	0.2586
1102	0.2826
1093	0.4695
1084	0.4825
1075	0.556
1066	0.6124
1057	0.7826
1048	0.7487
1039	0.6908
1030	0.7072
1021	0.6871
1012	0.7579
1003	0.7785
994	0.5147
985	0.4034
976	0.2819
967	0.6003
958	0.7311
949	0.6119
940	0.5659
931	0.7874
922	0.5396
913	0.7
904	0.7411
895	0.8439
886	0.8659
877	0.7025
868	0.7683
859	0.6689
850	0.7937
841	0.8804
832	0.9043
823	0.8327
814	0.8004
805	0.7057
796	0.8895
787	0.8658
778	0.8325
769	0.9309
760	0.9613
751	0.9612
742	0.9299
733	0.8772
724	0.9007
715	0.9382
706	0.9226
697	0.9735
688	0.9993
679	1.0037
670	0.9675
661	0.9873
652	0.8615
643	0.8361
634	0.8035
625	0.8753
616	0.9251
607	0.8592
598	0.7513
589	0.8907
580	0.9389
571	0.9031
562	0.9122
553	0.9133
544	0.8137
535	0.8594
526	0.8621
517	0.8303
508	0.8486
499	0.8525
490	0.8337
481	0.7942
472	0.7914
463	0.7807
454	0.7154
445	0.6086
436	0.6194
427	0.6257
418	0.6024
409	0.4677
400	0.2095
391	0.1705
