Infrared Spectrum: CARBANILIC ACID, n-NONYL ESTER
Formula: C16 H25 N O2
CAS: 33689-71-3
State: SOLID (1.9 mg / 100 mg KBr)
Melting point: 60-61 C
Class: COBLENTZ
Instrument: Not specified, most likely a grating spectrometer.
Sampling: TRANSMISSION
Resolution: 4
Origin: CITRUS EXPERIMENT STATION, UNIVERSITY OF FLORIDA (G. EDWARDS)
MICROMETERS	TRANSMITTANCE
2.046	0.807
2.07913	0.813
2.11226	0.815
2.14539	0.818
2.17852	0.819
2.21165	0.821
2.24478	0.822
2.27791	0.825
2.31104	0.834
2.34417	0.837
2.3773	0.837
2.41043	0.834
2.44356	0.838
2.47669	0.839
2.50982	0.842
2.54295	0.845
2.57608	0.847
2.60921	0.847
2.64234	0.849
2.67547	0.854
2.7086	0.859
2.74173	0.862
2.77486	0.863
2.80799	0.862
2.84112	0.859
2.87425	0.854
2.90738	0.846
2.94051	0.799
2.97364	0.61
3.00677	0.409
3.0399	0.662
3.07303	0.799
3.10616	0.818
3.13929	0.817
3.17242	0.814
3.20555	0.817
3.23868	0.81
3.27181	0.829
3.30494	0.829
3.33807	0.64
3.3712	0.548
3.40433	0.574
3.43746	0.692
3.47059	0.571
3.50372	0.833
3.53685	0.854
3.56998	0.867
3.60311	0.881
3.63624	0.886
3.66937	0.886
3.70251	0.889
3.73564	0.895
3.76877	0.897
3.8019	0.898
3.83503	0.902
3.86816	0.902
3.90129	0.903
3.93442	0.905
3.96755	0.903
4.00068	0.903
4.03381	0.909
4.06694	0.907
4.10007	0.911
4.1332	0.907
4.16633	0.898
4.19946	0.902
4.23259	0.906
4.26572	0.918
4.29885	0.919
4.33198	0.917
4.36511	0.919
4.39824	0.914
4.43137	0.911
4.4645	0.919
4.49763	0.918
4.53076	0.914
4.56389	0.921
4.59702	0.921
4.63015	0.922
4.66328	0.922
4.69641	0.922
4.72954	0.918
4.76267	0.921
4.7958	0.922
4.82893	0.919
4.86206	0.922
4.89519	0.922
4.92832	0.919
4.96145	0.922
4.99458	0.922
5.02771	0.921
5.06084	0.917
5.09397	0.905
5.1271	0.911
5.16023	0.919
5.19336	0.921
5.22649	0.918
5.25962	0.91
5.29275	0.905
5.32588	0.906
5.35901	0.913
5.39214	0.91
5.42527	0.909
5.4584	0.899
5.49153	0.885
5.52466	0.889
5.55779	0.889
5.59092	0.885
5.62405	0.877
5.65718	0.835
5.69031	0.783
5.72344	0.723
5.75657	0.638
5.7897	0.461
5.82283	0.349
5.85596	0.291
5.88909	0.481
5.92222	0.724
5.95535	0.754
5.98848	0.798
6.02161	0.855
6.05474	0.858
6.08787	0.845
6.121	0.819
6.15413	0.675
6.18726	0.614
6.22039	0.355
6.25352	0.554
6.28665	0.819
6.31978	0.823
6.35291	0.686
6.38604	0.493
6.41917	0.241
6.4523	0.473
6.48543	0.536
6.51856	0.74
6.55169	0.753
6.58482	0.692
6.61795	0.598
6.65108	0.672
6.68421	0.698
6.71734	0.704
6.75047	0.684
6.7836	0.698
6.81673	0.716
6.84986	0.679
6.88299	0.389
6.91612	0.479
6.94926	0.759
6.98239	0.814
7.01552	0.839
7.04865	0.85
7.08178	0.846
7.11491	0.83
7.14804	0.814
7.18117	0.822
7.2143	0.817
7.24743	0.833
7.28056	0.833
7.31369	0.839
7.34682	0.842
7.37995	0.835
7.41308	0.81
7.44621	0.74
7.47934	0.648
7.51247	0.644
7.5456	0.363
7.57873	0.499
7.61186	0.591
7.64499	0.568
7.67812	0.746
7.71125	0.813
7.74438	0.819
7.77751	0.814
7.81064	0.809
7.84377	0.771
7.8769	0.7
7.91003	0.62
7.94316	0.497
7.97629	0.488
8.00942	0.388
8.04255	0.129
8.07568	0.114
8.10881	0.236
8.14194	0.449
8.17507	0.574
8.2082	0.638
8.24133	0.698
8.27446	0.765
8.30759	0.801
8.34072	0.833
8.37385	0.843
8.40698	0.846
8.44011	0.799
8.47324	0.835
8.50637	0.871
8.5395	0.878
8.57263	0.873
8.60576	0.861
8.63889	0.893
8.67202	0.905
8.70515	0.91
8.73828	0.91
8.77141	0.899
8.80454	0.897
8.83767	0.887
8.8708	0.882
8.90393	0.889
8.93706	0.882
8.97019	0.873
9.00332	0.865
9.03645	0.857
9.06958	0.825
9.10271	0.735
9.13584	0.628
9.16897	0.571
9.2021	0.695
9.23523	0.759
9.26836	0.754
9.30149	0.707
9.33462	0.61
9.36775	0.5
9.40088	0.52
9.43401	0.476
9.46714	0.523
9.50027	0.655
9.5334	0.754
9.56653	0.803
9.59966	0.834
9.63279	0.825
9.66592	0.761
9.69905	0.699
9.73218	0.762
9.76531	0.779
9.79844	0.833
9.83157	0.873
9.8647	0.889
9.89783	0.89
9.93096	0.897
9.96409	0.887
9.99722	0.839
10.0304	0.831
10.0635	0.894
10.0966	0.909
10.1297	0.909
10.1629	0.91
10.196	0.913
10.2291	0.906
10.2623	0.898
10.2954	0.889
10.3285	0.878
10.3617	0.877
10.3948	0.909
10.4279	0.911
10.461	0.917
10.4942	0.921
10.5273	0.923
10.5604	0.926
10.5936	0.929
10.6267	0.921
10.6598	0.933
10.693	0.929
10.7261	0.923
10.7592	0.929
10.7923	0.923
10.8255	0.927
10.8586	0.929
10.8917	0.929
10.9249	0.922
10.958	0.914
10.9911	0.867
11.0243	0.867
11.0574	0.905
11.0905	0.919
11.1236	0.922
11.1568	0.922
11.1899	0.921
11.223	0.919
11.2562	0.925
11.2893	0.929
11.3224	0.931
11.3556	0.934
11.3887	0.934
11.4218	0.933
11.4549	0.933
11.4881	0.934
11.5212	0.934
11.5543	0.931
11.5875	0.931
11.6206	0.926
11.6537	0.919
11.6869	0.893
11.72	0.87
11.7531	0.857
11.7862	0.866
11.8194	0.869
11.8525	0.851
11.8856	0.861
11.9188	0.901
11.9519	0.91
11.985	0.921
12.0182	0.922
12.0513	0.922
12.0844	0.925
12.1176	0.922
12.1507	0.923
12.1838	0.929
12.2169	0.93
12.2501	0.935
12.2832	0.929
12.3163	0.933
12.3495	0.935
12.3826	0.937
12.4157	0.934
12.4489	0.935
12.482	0.934
12.5151	0.933
12.5482	0.925
12.5814	0.931
12.6145	0.923
12.6476	0.925
12.6808	0.923
12.7139	0.919
12.747	0.906
12.7802	0.883
12.8133	0.869
12.8464	0.862
12.8795	0.841
12.9127	0.798
12.9458	0.722
12.9789	0.719
13.0121	0.753
13.0452	0.759
13.0783	0.739
13.1115	0.732
13.1446	0.739
13.1777	0.728
13.2108	0.702
13.244	0.671
13.2771	0.63
13.3102	0.598
13.3434	0.602
13.3765	0.639
13.4096	0.718
13.4428	0.766
13.4759	0.794
13.509	0.833
13.5421	0.841
13.5753	0.85
13.6084	0.846
13.6415	0.846
13.6747	0.841
13.7078	0.827
13.7409	0.813
13.7741	0.806
13.8072	0.806
13.8403	0.806
13.8734	0.811
13.9066	0.81
13.9397	0.799
13.9728	0.79
14.006	0.782
14.0391	0.771
14.0722	0.759
14.1054	0.746
14.1385	0.736
14.1716	0.73
14.2047	0.719
14.2379	0.72
14.271	0.716
14.3041	0.718
14.3373	0.723
14.3704	0.732
14.4035	0.746
14.4367	0.762
14.4698	0.789
14.5029	0.802
14.536	0.814
14.5692	0.817
14.6023	0.826
14.6354	0.827
14.6686	0.833
14.7017	0.841
14.7348	0.842
14.768	0.858
14.8011	0.851
14.8342	0.858
14.8673	0.837
14.9005	0.823
14.9336	0.83
14.9667	0.865
14.9999	0.874
15.033	0.875
