Infrared Spectrum: Alpha,Alpha,Alpha,2,5-PENTACHLOROACETANILIDE
Formula: C8 H4 Cl5 N O
CAS: 33715-64-9
State: SOLID (MINERAL OIL MULL)
Class: COBLENTZ
Instrument: Not specified, most likely a prism, grating, or hybrid spectrometer.
Sampling: TRANSMISSION
Resolution: 4
Origin: DOW CHEMICAL COMPANY
MICROMETERS	TRANSMITTANCE
2.027	0.366
2.06715	0.366
2.10731	0.376
2.14746	0.386
2.18761	0.4
2.22777	0.406
2.26792	0.411
2.30808	0.418
2.34823	0.423
2.38838	0.431
2.42854	0.44
2.46869	0.455
2.50884	0.466
2.549	0.47
2.58915	0.476
2.62931	0.485
2.66946	0.495
2.70961	0.503
2.74977	0.513
2.78992	0.518
2.83007	0.526
2.87023	0.526
2.91038	0.521
2.95053	0.428
2.99069	0.428
3.03084	0.48
3.071	0.483
3.11115	0.483
3.1513	0.483
3.19146	0.448
3.23161	0.415
3.27176	0.438
3.31192	0.391
3.35207	0.245
3.39223	0.036
3.43238	0.098
3.47253	0.131
3.51269	0.476
3.55284	0.61
3.59299	0.623
3.63315	0.623
3.6733	0.613
3.71345	0.613
3.75361	0.62
3.79376	0.631
3.83392	0.638
3.87407	0.648
3.91422	0.65
3.95438	0.656
3.99453	0.668
4.03468	0.67
4.07484	0.673
4.11499	0.676
4.15515	0.681
4.1953	0.683
4.23545	0.685
4.27561	0.688
4.31576	0.7
4.35591	0.706
4.39607	0.708
4.43622	0.71
4.47638	0.716
4.51653	0.716
4.55668	0.718
4.59684	0.723
4.63699	0.728
4.67714	0.733
4.7173	0.735
4.75745	0.738
4.7976	0.743
4.83776	0.745
4.87791	0.748
4.91807	0.753
4.95822	0.755
4.99837	0.76
5.03853	0.765
5.07868	0.771
5.11883	0.773
5.15899	0.773
5.19914	0.773
5.2393	0.761
5.27945	0.766
5.3196	0.783
5.35976	0.783
5.39991	0.793
5.44006	0.795
5.48022	0.791
5.52037	0.793
5.56052	0.793
5.60068	0.778
5.64083	0.755
5.68099	0.738
5.72114	0.641
5.76129	0.435
5.80145	0.155
5.8416	0.35
5.88175	0.561
5.92191	0.643
5.96206	0.691
6.00222	0.728
6.04237	0.741
6.08252	0.741
6.12268	0.743
6.16283	0.76
6.20298	0.733
6.24314	0.606
6.28329	0.238
6.32344	0.22
6.3636	0.575
6.40375	0.631
6.44391	0.658
6.48406	0.63
6.52421	0.503
6.56437	0.378
6.60452	0.276
6.64467	0.303
6.68483	0.393
6.72498	0.485
6.76514	0.468
6.80529	0.365
6.84544	0.201
6.8856	0.233
6.92575	0.403
6.9659	0.553
7.00606	0.573
7.04621	0.456
7.08636	0.213
7.12652	0.353
7.16667	0.463
7.20683	0.465
7.24698	0.4
7.28713	0.455
7.32729	0.573
7.36744	0.646
7.40759	0.658
7.44775	0.668
7.4879	0.705
7.52806	0.713
7.56821	0.715
7.60836	0.72
7.64852	0.731
7.68867	0.725
7.72882	0.708
7.76898	0.628
7.80913	0.61
7.84929	0.56
7.88944	0.51
7.92959	0.643
7.96975	0.69
8.0099	0.703
8.05005	0.7
8.09021	0.715
8.13036	0.735
8.17051	0.74
8.21067	0.738
8.25082	0.718
8.29098	0.675
8.33113	0.571
8.37128	0.491
8.41144	0.513
8.45159	0.608
8.49174	0.655
8.5319	0.675
8.57205	0.685
8.61221	0.691
8.65236	0.695
8.69251	0.695
8.73267	0.695
8.77282	0.695
8.81297	0.693
8.85313	0.7
8.89328	0.713
8.93343	0.721
8.97359	0.728
9.01374	0.733
9.0539	0.723
9.09405	0.548
9.1342	0.433
9.17436	0.593
9.21451	0.675
9.25466	0.708
9.29482	0.726
9.33497	0.74
9.37513	0.75
9.41528	0.751
9.45543	0.751
9.49559	0.703
9.53574	0.486
9.57589	0.481
9.61605	0.68
9.6562	0.705
9.69635	0.716
9.73651	0.726
9.77666	0.74
9.81682	0.746
9.85697	0.751
9.89712	0.758
9.93728	0.763
9.97743	0.77
10.0176	0.773
10.0577	0.775
10.0979	0.778
10.138	0.778
10.1782	0.778
10.2184	0.776
10.2585	0.773
10.2987	0.751
10.3388	0.741
10.379	0.743
10.4191	0.763
10.4593	0.77
10.4994	0.765
10.5396	0.77
10.5797	0.778
10.6199	0.781
10.66	0.773
10.7002	0.751
10.7404	0.68
10.7805	0.516
10.8207	0.473
10.8608	0.586
10.901	0.661
10.9411	0.705
10.9813	0.731
11.0214	0.746
11.0616	0.755
11.1017	0.756
11.1419	0.76
11.182	0.76
11.2222	0.758
11.2623	0.75
11.3025	0.731
11.3427	0.655
11.3828	0.563
11.423	0.541
11.4631	0.558
11.5033	0.64
11.5434	0.705
11.5836	0.726
11.6237	0.733
11.6639	0.73
11.704	0.705
11.7442	0.663
11.7843	0.606
11.8245	0.533
11.8647	0.483
11.9048	0.421
11.945	0.361
11.9851	0.305
12.0253	0.286
12.0654	0.358
12.1056	0.458
12.1457	0.49
12.1859	0.433
12.226	0.296
12.2662	0.238
12.3063	0.251
12.3465	0.216
12.3867	0.166
12.4268	0.191
12.467	0.366
12.5071	0.488
12.5473	0.553
12.5874	0.563
12.6276	0.516
12.6677	0.47
12.7079	0.446
12.748	0.486
12.7882	0.571
12.8283	0.631
12.8685	0.651
12.9087	0.666
12.9488	0.676
12.989	0.685
13.0291	0.691
13.0693	0.698
13.1094	0.703
13.1496	0.708
13.1897	0.71
13.2299	0.711
13.27	0.71
13.3102	0.711
13.3503	0.71
13.3905	0.708
13.4306	0.705
13.4708	0.7
13.511	0.691
13.5511	0.683
13.5913	0.678
13.6314	0.673
13.6716	0.668
13.7117	0.665
13.7519	0.655
13.792	0.648
13.8322	0.641
13.8723	0.638
13.9125	0.64
13.9526	0.645
13.9928	0.655
14.033	0.656
14.0731	0.655
14.1133	0.635
14.1534	0.578
14.1936	0.515
14.2337	0.481
14.2739	0.49
14.314	0.546
14.3542	0.576
14.3943	0.593
14.4345	0.603
14.4746	0.608
14.5148	0.605
14.555	0.598
14.5951	0.581
14.6353	0.566
14.6754	0.541
14.7156	0.5
14.7557	0.448
14.7959	0.391
14.836	0.336
14.8762	0.29
14.9163	0.263
14.9565	0.265
14.9966	0.3
15.0368	0.345
15.0769	0.371
15.1171	0.395
15.1573	0.416
15.1974	0.426
15.2376	0.433
15.2777	0.44
15.3179	0.44
15.358	0.441
15.3982	0.441
15.4383	0.441
15.4785	0.438
15.5186	0.433
15.5588	0.43
15.5989	0.425
15.6391	0.418
15.6793	0.413
15.7194	0.406
15.7596	0.401
15.7997	0.398
15.8399	0.393
15.88	0.388
