Infrared Spectrum: 4-Methyl-1-naphthaldehyde
Formula: C 12 H 10 O
CAS: 33738-48-6
State: gas
Origin: EPA-IR VAPOR PHASE LIBRARY
1/CM	ABSORBANCE
549.8	0.0005815
559.445	0.0006377
569.09	0.0008673
578.734	0.0007518
588.379	0.0004138
598.024	0.0007877
607.669	0.002841
617.313	0.003881
626.958	0.002921
636.603	0.002581
646.248	0.001801
655.893	0.0008144
665.537	0.000608
675.182	0.0008702
684.827	0.001881
694.472	0.002571
704.116	0.001661
713.761	0.000848
723.406	0.001531
733.051	0.004591
742.695	0.018521
752.34	0.041741
761.985	0.037571
771.63	0.025221
781.275	0.009601
790.919	0.005941
800.564	0.007461
810.209	0.013481
819.854	0.021991
829.498	0.018721
839.143	0.007511
848.788	0.002201
858.433	0.001421
868.078	0.0008309
877.722	0.0007193
887.367	0.0010524
897.012	0.0010165
906.657	0.0008869
916.301	0.0008704
925.946	0.0011467
935.591	0.001431
945.236	0.002161
954.88	0.003511
964.525	0.004931
974.17	0.005401
983.815	0.004161
993.46	0.002211
1003.1	0.002131
1012.75	0.003081
1022.39	0.005371
1032.04	0.005121
1041.68	0.005591
1051.33	0.015061
1060.97	0.017421
1070.62	0.003741
1080.26	0.0008936
1089.91	0.0006406
1099.55	0.0010066
1109.2	0.0009658
1118.84	0.0008318
1128.49	0.001581
1138.13	0.004841
1147.78	0.007161
1157.42	0.009031
1167.07	0.008511
1176.71	0.003011
1186.36	0.001621
1196	0.002521
1205.64	0.015381
1215.29	0.023101
1224.93	0.010801
1234.58	0.006321
1244.22	0.003981
1253.87	0.001791
1263.51	0.001781
1273.16	0.002291
1282.8	0.001281
1292.45	0.0012538
1302.09	0.002081
1311.74	0.003321
1321.38	0.005341
1331.03	0.004871
1340.67	0.002691
1350.32	0.003281
1359.96	0.003731
1369.61	0.003651
1379.25	0.004981
1388.9	0.006031
1398.54	0.004681
1408.18	0.005641
1417.83	0.008151
1427.47	0.008811
1437.12	0.006441
1446.76	0.006061
1456.41	0.007991
1466.05	0.007211
1475.7	0.003331
1485.34	0.002651
1494.99	0.004461
1504.63	0.012301
1514.28	0.019691
1523.92	0.012561
1533.57	0.004371
1543.21	0.003231
1552.86	0.004691
1562.5	0.007911
1572.15	0.019311
1581.79	0.028691
1591.44	0.020231
1601.08	0.009361
1610.73	0.005751
1620.37	0.004711
1630.01	0.003911
1639.66	0.004531
1649.3	0.004051
1658.95	0.003671
1668.59	0.005221
1678.24	0.007161
1687.88	0.014771
1697.53	0.060781
1707.17	0.146721
1716.82	0.106781
1726.46	0.015921
1736.11	0.006781
1745.75	0.004881
1755.4	0.003701
1765.04	0.003431
1774.69	0.004141
1784.33	0.002931
1793.98	0.002131
1803.62	0.002051
1813.27	0.002721
1822.91	0.002961
1832.55	0.002241
1842.2	0.001951
1851.84	0.002141
1861.49	0.002661
1871.13	0.002301
1880.78	0.001481
1890.42	0.001271
1900.07	0.001501
1909.71	0.001781
1919.36	0.001721
1929	0.001721
1938.65	0.001841
1948.29	0.001511
1957.94	0.001311
1967.58	0.0011564
1977.23	0.0008956
1986.87	0.0006976
1996.52	0.0005875
2006.16	0.0005193
2015.81	0.0004306
2025.45	0.0005803
2035.1	0.0005523
2044.74	0.0005589
2054.38	0.0005169
2064.03	0.0005721
2073.67	0.0007348
2083.32	0.0006487
2092.96	0.0004885
2102.61	0.0004907
2112.25	0.0005133
2121.9	0.0004529
2131.54	0.0003981
2141.19	0.0004505
2150.83	0.0004316
2160.48	0.0004221
2170.12	0.0005507
2179.77	0.0004861
2189.41	0.0005878
2199.06	0.0006357
2208.7	0.0005521
2218.35	0.0005354
2227.99	0.0005084
2237.64	0.0005852
2247.28	0.000526
2256.92	0.0006692
2266.57	0.0007599
2276.21	0.0007714
2285.86	0.0005453
2295.5	0.0006033
2305.15	0.0007189
2314.79	0.0006789
2324.44	0.0007241
2334.08	0.0007142
2343.73	0.0006587
2353.37	0.0004772
2363.02	0.0004587
2372.66	0.0004986
2382.31	0.0006242
2391.95	0.000646
2401.6	0.0006288
2411.24	0.0005733
2420.89	0.0005334
2430.53	0.0006214
2440.18	0.0005173
2449.82	0.0005605
2459.47	0.0005519
2469.11	0.0006113
2478.75	0.000578
2488.4	0.0006103
2498.04	0.0005652
2507.69	0.0006832
2517.33	0.0006136
2526.98	0.0007846
2536.62	0.0007303
2546.27	0.000745
2555.91	0.000785
2565.56	0.0008057
2575.2	0.000783
2584.85	0.0006608
2594.49	0.0008048
2604.14	0.0007312
2613.78	0.0009554
2623.43	0.0010367
2633.07	0.001381
2642.72	0.001541
2652.36	0.001871
2662.01	0.001941
2671.65	0.002501
2681.29	0.003251
2690.94	0.005141
2700.58	0.009601
2710.23	0.020441
2719.87	0.026871
2729.52	0.019001
2739.16	0.011831
2748.81	0.009021
2758.45	0.007091
2768.1	0.006191
2777.74	0.005811
2787.39	0.005491
2797.03	0.005861
2806.68	0.006741
2816.32	0.007131
2825.97	0.008771
2835.61	0.010761
2845.26	0.010931
2854.9	0.008471
2864.55	0.006191
2874.19	0.006241
2883.84	0.005211
2893.48	0.004301
2903.12	0.004601
2912.77	0.005451
2922.41	0.006211
2932.06	0.008141
2941.7	0.008641
2951.35	0.007341
2960.99	0.007461
2970.64	0.007091
2980.28	0.008471
2989.93	0.008281
2999.57	0.006201
3009.22	0.005891
3018.86	0.006891
3028.51	0.009071
3038.15	0.012001
3047.8	0.011911
3057.44	0.010681
3067.09	0.011041
3076.73	0.014381
3086.38	0.016101
3096.02	0.011501
3105.67	0.006871
3115.31	0.003251
3124.95	0.001861
3134.6	0.001491
3144.24	0.0009319
3153.89	0.0007576
3163.53	0.000878
3173.18	0.0007616
3182.82	0.0007541
3192.47	0.0005932
3202.11	0.000697
3211.76	0.0006025
3221.4	0.0006081
3231.05	0.0005494
3240.69	0.0004248
3250.34	0.00031116
3259.98	0.000397
3269.63	0.00032386
3279.27	0.0003795
3288.92	0.0003442
3298.56	0.0004298
3308.21	0.000681
3317.85	0.0005072
3327.49	0.0005409
3337.14	0.00029523
3346.78	0.0002431
3356.43	0.0004054
3366.07	0.0005875
3375.72	0.0005698
3385.36	0.001321
3395.01	0.002131
3404.65	0.002061
3414.3	0.0011991
3423.94	0.0005385
3433.59	0.0004953
3443.23	0.0003991
3452.88	0.0004948
3462.52	0.0002319
3472.17	0.00035825
3481.81	0.0003897
3491.46	5.6e-05
3501.1	0.000262274
3510.75	0.000182
3520.39	0.0003995
3530.04	0.0001664
3539.68	0.000268108
3549.32	0.0003777
3558.97	0.00028535
3568.61	0.00027678
3578.26	0.000455
3587.9	0.00014
3597.55	0.00034987
3607.19	0.000198
3616.84	0.000144
3626.48	0.0004389
3636.13	0.00032711
3645.77	0.000211
3655.42	0.00028303
3665.06	0.00031612
3674.71	0.00031756
3684.35	0.000542
3694	0.00016
3703.64	0.0004152
3713.29	0.0001728
3722.93	0.0004281
3732.58	0.00030916
3742.22	0.0002436
3751.86	0.00025389
3761.51	0.00029929
3771.15	0.00029878
3780.8	0.000517
3790.44	0.0005329
3800.09	0.0004787
3809.73	0.0004302
3819.38	0.00067
3829.02	0.0005849
3838.67	0.0006488
3848.31	0.0007409
3857.96	0.0005877
3867.6	0.0005116
3877.25	0.00027596
3886.89	0.0002197
3896.54	0.0002527
3906.18	0.000262441
3915.83	0.0004825
3925.47	0.0005324
3935.12	0.00029937
3944.76	5.1e-05
3954.41	0.00029681
3964.05	0.00025408
3973.69	0.00064
3983.34	0.0002148
3992.98	9.9e-05
