Infrared Spectrum: 1,4-Di-tert-pentylbenzene
Formula: C 16 H 26
CAS: 3373-10-2
State: gas
Instrument: HP-GC/MS/IRD
Origin: NIST Mass Spectrometry Data Center
1/CM	ABSORBANCE
550	0.0005883
562	0.0007208
574	0.0021518
586	0.0042082
598	0.0016801
610	0.0004823
622	0.0003498
634	0.0001219
646	9.01e-05
658	9.54e-05
670	0
682	4.24e-05
694	0.0001325
706	0.0002385
718	0.0001802
730	9.01e-05
742	0.0001325
754	0.000212
766	0.0005406
778	0.001749
790	0.0014787
802	0.0010229
814	0.0020034
826	0.0054908
838	0.0030899
850	0.0007314
862	0.0003392
874	0.0001749
886	0.000159
898	0.0001961
910	0.0003286
922	0.0002491
934	0.0002385
946	0.0002173
958	0.0001484
970	0.0001908
982	0.0004346
994	0.0011872
1006	0.0039326
1018	0.0041817
1030	0.0010229
1042	0.0009434
1054	0.0011872
1066	0.0007155
1078	0.0004346
1090	0.0005671
1102	0.0005883
1114	0.0012455
1126	0.0024645
1138	0.0013621
1150	0.0008533
1162	0.0011554
1174	0.000795
1186	0.0005724
1198	0.000636
1210	0.0007632
1222	0.0013621
1234	0.0015317
1246	0.0017013
1258	0.0012137
1270	0.0009805
1282	0.001113
1294	0.0022684
1306	0.0040916
1318	0.0015953
1330	0.0016324
1342	0.0014098
1354	0.0021995
1366	0.004293
1378	0.0050191
1390	0.0065243
1402	0.0038478
1414	0.001855
1426	0.0013091
1438	0.0017066
1450	0.0034185
1462	0.0062222
1474	0.0069271
1486	0.0042082
1498	0.0039114
1510	0.0061586
1522	0.0029044
1534	0.0014893
1546	0.0006996
1558	0.0004134
1570	0.0004028
1582	0.0003127
1594	0.0002862
1606	0.0002809
1618	0.0001908
1630	0.0002491
1642	0.0003816
1654	0.0004081
1666	0.0002915
1678	0.0001643
1690	0.0001325
1702	8.48e-05
1714	7.95e-05
1726	0.000106
1738	0.0001113
1750	0.0001431
1762	0.0003233
1774	0.0004452
1786	0.0003604
1798	0.0001219
1810	8.48e-05
1822	8.48e-05
1834	5.3e-05
1846	7.42e-05
1858	0.000106
1870	0.0001325
1882	0.0001855
1894	0.0004134
1906	0.0003975
1918	0.000159
1930	7.42e-05
1942	5.3e-05
1954	3.18e-05
1966	3.18e-05
1978	4.24e-05
1990	1.59e-05
2002	2.65e-05
2014	3.71e-05
2026	2.12e-05
2038	2.65e-05
2050	5.3e-06
2062	5.3e-06
2074	1.59e-05
2086	1.06e-05
2098	2.12e-05
2110	3.71e-05
2122	1.59e-05
2134	1.06e-05
2146	2.12e-05
2158	5.3e-06
2170	0
2182	2.65e-05
2194	2.12e-05
2206	2.12e-05
2218	5.3e-06
2230	1.06e-05
2242	2.65e-05
2254	1.06e-05
2266	2.65e-05
2278	2.65e-05
2290	5.83e-05
2302	4.77e-05
2314	3.18e-05
2326	2.65e-05
2338	0
2350	1.06e-05
2362	0
2374	7.95e-05
2386	0.0001219
2398	9.54e-05
2410	7.95e-05
2422	6.36e-05
2434	7.42e-05
2446	9.01e-05
2458	5.3e-05
2470	3.18e-05
2482	3.18e-05
2494	2.65e-05
2506	5.83e-05
2518	6.89e-05
2530	0.000106
2542	9.54e-05
2554	0.0001007
2566	0.0001113
2578	0.0001272
2590	0.0001272
2602	0.0001537
2614	0.0002173
2626	0.0002491
2638	0.0002968
2650	0.0003074
2662	0.0003074
2674	0.0002491
2686	0.0002703
2698	0.0002809
2710	0.0003816
2722	0.0004982
2734	0.0006042
2746	0.000636
2758	0.0006095
2770	0.0007367
2782	0.0007155
2794	0.0008109
2806	0.0009805
2818	0.001325
2830	0.0017755
2842	0.0024963
2854	0.0046004
2866	0.010176
2878	0.0135044
2890	0.0156244
2902	0.0147923
2914	0.0192231
2926	0.0229914
2938	0.0230444
2950	0.0260866
2962	0.0409319
2974	0.0514471
2986	0.0224773
2998	0.0078546
3010	0.0042082
3022	0.003551
3034	0.0047276
3046	0.0041499
3058	0.0033973
3070	0.0030687
3082	0.0034026
3094	0.0034291
3106	0.002173
3118	0.0013992
3130	0.0010918
3142	0.0007632
3154	0.0005724
3166	0.0005088
3178	0.00053
3190	0.0004717
3202	0.0004982
3214	0.0004187
3226	0.0003763
3238	0.0003286
3250	0.0002491
3262	0.0002279
3274	0.0002014
3286	0.0001855
3298	0.0001484
3310	0.0001272
3322	0.0001378
3334	0.0001219
3346	0.0001325
3358	9.54e-05
3370	0.0001113
3382	8.48e-05
3394	8.48e-05
3406	5.3e-05
3418	6.36e-05
3430	8.48e-05
3442	6.36e-05
3454	5.3e-05
3466	4.77e-05
3478	8.48e-05
3490	6.89e-05
3502	3.71e-05
3514	1.59e-05
3526	3.71e-05
3538	9.01e-05
3550	4.77e-05
3562	3.71e-05
3574	5.83e-05
3586	1.06e-05
3598	4.77e-05
3610	2.65e-05
3622	0
3634	0
3646	2.65e-05
3658	6.36e-05
3670	7.42e-05
3682	0.0001007
3694	6.89e-05
3706	4.77e-05
3718	0.0001166
3730	3.71e-05
3742	4.24e-05
3754	1.59e-05
3766	7.42e-05
3778	4.77e-05
3790	0.0001007
3802	9.54e-05
3814	9.54e-05
3826	7.95e-05
3838	7.42e-05
