Infrared Spectrum: ETHANETHIOL, 2-(PROPYLAMINO)-, HYDROCHLORIDE
Formula: C5 H14 Cl N S
CAS: 33744-35-3
State: SOLID (SPLIT MULL), FLUOROLUBE FOR 3800-1330 CM^-^1, NUJOL FOR 1330-450 CM^-^1
Class: COBLENTZ III
Instrument: DOW KBr FOREPRISM-GRATING
Instrument parameters: BLAZED AT 3.5, 12.0, 20.0 MICRON AND CHANGED AT 5.0, 7.5, 14.9 MICRON
Sampling: TRANSMISSION
Resolution: 2
Origin: DOW CHEMICAL COMPANY
1/CM	TRANSMITTANCE
457	0.7854
466	0.7891
475	0.8008
484	0.8086
493	0.8218
502	0.829
511	0.8318
520	0.8357
529	0.8401
538	0.8451
547	0.8493
556	0.8525
565	0.8562
574	0.8606
583	0.8662
592	0.87
601	0.8723
610	0.8743
619	0.8758
628	0.8768
637	0.8757
646	0.8791
655	0.877
664	0.8671
673	0.8678
682	0.8657
691	0.8575
700	0.8398
709	0.7984
718	0.6751
727	0.6886
736	0.7319
745	0.7619
754	0.7192
763	0.6975
772	0.7467
781	0.8125
790	0.8344
799	0.8278
808	0.8278
817	0.828
826	0.8118
835	0.7911
844	0.7721
853	0.7695
862	0.803
871	0.8045
880	0.81
889	0.7947
898	0.7912
907	0.7984
916	0.7888
925	0.7956
934	0.7906
943	0.7831
952	0.773
961	0.7682
970	0.7685
979	0.7662
988	0.7499
997	0.7157
1006	0.6799
1015	0.6755
1024	0.7388
1033	0.7325
1042	0.7105
1051	0.7084
1060	0.733
1069	0.7615
1078	0.8033
1087	0.8149
1096	0.8143
1105	0.8044
1114	0.7853
1123	0.7645
1132	0.7478
1141	0.7468
1150	0.77
1159	0.7795
1168	0.7807
1177	0.7742
1186	0.7948
1195	0.7805
1204	0.7769
1213	0.7799
1222	0.7828
1231	0.7718
1240	0.7511
1249	0.7217
1258	0.7419
1267	0.7225
1276	0.7147
1285	0.7006
1294	0.6761
1303	0.6558
1312	0.6875
1321	0.6812
1330	0.6331
1339	0.5744
1348	0.5785
1357	0.6394
1366	0.6637
1375	0.6808
1384	0.6845
1393	0.6606
1402	0.6262
1411	0.6362
1420	0.6344
1429	0.6281
1438	0.6135
1447	0.5617
1456	0.4925
1465	0.5673
1474	0.6635
1483	0.7342
1492	0.8104
1501	0.814
1510	0.8121
1519	0.8115
1528	0.8133
1537	0.8134
1546	0.8118
1555	0.804
1564	0.7906
1573	0.7672
1582	0.7326
1591	0.7095
1600	0.7451
1609	0.79
1618	0.8075
1627	0.8103
1636	0.8119
1645	0.8136
1654	0.8151
1663	0.8247
1672	0.8306
1681	0.8352
1690	0.8378
1699	0.8397
1708	0.839
1717	0.8297
1726	0.8354
1735	0.8416
1744	0.8418
1753	0.8408
1762	0.8381
1771	0.8347
1780	0.8321
1789	0.8303
1798	0.8296
1807	0.8297
1816	0.8294
1825	0.8268
1834	0.8223
1843	0.8181
1852	0.8155
1861	0.8133
1870	0.8144
1879	0.8171
1888	0.8195
1897	0.8207
1906	0.8207
1915	0.821
1924	0.8213
1933	0.8215
1942	0.8215
1951	0.8239
1960	0.8207
1969	0.8155
1978	0.8126
1987	0.8124
1996	0.852
2005	0.8661
2014	0.864
2023	0.861
2032	0.8578
2041	0.8553
2050	0.8532
2059	0.8504
2068	0.8471
2077	0.8438
2086	0.8402
2095	0.8361
2104	0.8321
2113	0.8283
2122	0.8246
2131	0.8209
2140	0.8171
2149	0.8136
2158	0.8081
2167	0.8022
2176	0.7961
2185	0.7894
2194	0.7825
2203	0.7756
2212	0.7675
2221	0.7595
2230	0.7524
2239	0.7455
2248	0.738
2257	0.7304
2266	0.7228
2275	0.7138
2284	0.7048
2293	0.6955
2302	0.6844
2311	0.6726
2320	0.6565
2329	0.636
2338	0.6283
2347	0.623
2356	0.6201
2365	0.617
2374	0.6135
2383	0.6053
2392	0.5809
2401	0.5575
2410	0.5233
2419	0.466
2428	0.4604
2437	0.4989
2446	0.5919
2455	0.5992
2464	0.5929
2473	0.5742
2482	0.5527
2491	0.5351
2500	0.522
2509	0.5125
2518	0.5189
2527	0.5394
2536	0.5623
2545	0.5608
2554	0.5518
2563	0.5432
2572	0.5334
2581	0.5218
2590	0.5134
2599	0.5084
2608	0.5022
2617	0.4791
2626	0.4568
2635	0.4409
2644	0.4264
2653	0.4108
2662	0.3922
2671	0.3768
2680	0.3621
2689	0.3478
2698	0.333
2707	0.3175
2716	0.3043
2725	0.2964
2734	0.2904
2743	0.285
2752	0.2789
2761	0.2799
2770	0.2821
2779	0.2924
2788	0.3157
2797	0.3405
2806	0.3622
2815	0.3776
2824	0.3995
2833	0.4535
2842	0.4956
2851	0.5025
2860	0.496
2869	0.4766
2878	0.4345
2887	0.4673
2896	0.4507
2905	0.402
2914	0.3629
2923	0.3264
2932	0.3146
2941	0.3153
2950	0.3113
2959	0.2849
2968	0.2867
2977	0.3376
2986	0.4215
2995	0.4883
3004	0.5308
3013	0.5862
3022	0.635
3031	0.6771
3040	0.7174
3049	0.7464
3058	0.7696
3067	0.7851
3076	0.7968
3085	0.8071
3094	0.8165
3103	0.8234
3112	0.8274
3121	0.8297
3130	0.8294
3139	0.8283
3148	0.8266
3157	0.8236
3166	0.82
3175	0.8133
3184	0.8125
3193	0.8128
3202	0.8128
3211	0.8128
3220	0.8125
3229	0.8115
3238	0.8095
3247	0.8064
3256	0.8031
3265	0.799
3274	0.795
3283	0.7915
3292	0.7882
3301	0.7849
3310	0.7814
3319	0.778
3328	0.7745
3337	0.7711
3346	0.7687
3355	0.7661
3364	0.7636
3373	0.7611
3382	0.7595
3391	0.758
3400	0.7565
3409	0.7551
3418	0.7536
3427	0.7518
3436	0.7503
3445	0.7486
3454	0.7468
3463	0.7451
3472	0.744
3481	0.7433
3490	0.7425
3499	0.7418
3508	0.7411
3517	0.7406
3526	0.74
3535	0.7394
3544	0.739
3553	0.7388
3562	0.7378
3571	0.7274
3580	0.7364
3589	0.7333
3598	0.7286
3607	0.7297
3616	0.729
3625	0.7281
3634	0.7276
3643	0.7265
3652	0.7251
3661	0.7236
3670	0.7215
3679	0.7193
3688	0.7165
3697	0.7139
3706	0.7117
3715	0.7097
3724	0.7078
3733	0.7058
3742	0.7037
3751	0.7015
3760	0.6994
3769	0.6971
3778	0.6951
3787	0.6932
3796	0.6911
