Infrared Spectrum: o-ACETOTOLUIDINE, 4-tert-BUTYL-
Formula: C13 H19 N O
CAS: 337471-08-6
State: SOLID (MULL)
Class: COBLENTZ III
Instrument: BECKMAN IR-4 (HYBRID PRISM-GRATING)
Instrument parameters: NaCl PRISM
Sampling: TRANSMISSION
Resolution: 2
Origin: MONSANTO (J. FREEMAN)
1/CM	TRANSMITTANCE
3921.57	0.824
3912.78	0.825
3903.99	0.826
3895.2	0.8271
3886.42	0.8283
3877.63	0.8293
3868.84	0.8305
3860.05	0.8317
3851.26	0.8328
3842.47	0.8339
3833.69	0.8344
3824.9	0.8349
3816.11	0.8355
3807.32	0.8359
3798.53	0.8362
3789.74	0.8363
3780.96	0.8363
3772.17	0.8363
3763.38	0.8363
3754.59	0.836
3745.8	0.8357
3737.01	0.8353
3728.23	0.8349
3719.44	0.8345
3710.65	0.8337
3701.86	0.8328
3693.07	0.8321
3684.28	0.8311
3675.5	0.8303
3666.71	0.8295
3657.92	0.8287
3649.13	0.8277
3640.34	0.8267
3631.55	0.8258
3622.77	0.8245
3613.98	0.8231
3605.19	0.8215
3596.4	0.8189
3587.61	0.8158
3578.82	0.8133
3570.04	0.8122
3561.25	0.8114
3552.46	0.8112
3543.67	0.814
3534.88	0.8165
3526.09	0.8175
3517.31	0.8185
3508.52	0.8187
3499.73	0.8186
3490.94	0.8183
3482.15	0.8168
3473.36	0.8149
3464.58	0.813
3455.79	0.8112
3447	0.8085
3438.21	0.8058
3429.42	0.8029
3420.63	0.799
3411.85	0.7948
3403.06	0.7898
3394.27	0.7799
3385.48	0.767
3376.69	0.7501
3367.9	0.7333
3359.12	0.722
3350.33	0.7054
3341.54	0.6843
3332.75	0.6695
3323.96	0.6541
3315.17	0.6136
3306.39	0.5801
3297.6	0.5464
3288.81	0.5126
3280.02	0.4787
3271.23	0.4445
3262.44	0.4101
3253.66	0.3756
3244.87	0.3408
3236.08	0.3178
3227.29	0.3394
3218.5	0.4079
3209.71	0.4244
3200.93	0.4381
3192.14	0.452
3183.35	0.466
3174.56	0.4801
3165.77	0.4942
3156.98	0.5061
3148.2	0.5058
3139.41	0.5038
3130.62	0.5013
3121.83	0.4991
3113.04	0.4963
3104.25	0.4888
3095.47	0.4683
3086.68	0.4473
3077.89	0.4262
3069.1	0.4048
3060.31	0.3854
3051.52	0.3825
3042.74	0.3981
3033.95	0.4233
3025.16	0.4433
3016.37	0.4379
3007.58	0.3877
2998.79	0.3347
2990	0.2814
2981.22	0.2277
2972.43	0.1737
2963.64	0.1194
2954.85	0.0648
2946.06	0.0247
2937.27	0.0233
2928.49	0.0229
2919.7	0.0252
2910.91	0.0447
2902.12	0.0667
2893.33	0.0886
2884.54	0.1107
2875.76	0.1303
2866.97	0.1395
2858.18	0.1522
2849.39	0.4691
2840.6	0.6414
2831.81	0.7024
2823.03	0.7348
2814.24	0.7604
2805.45	0.7854
2796.66	0.8129
2787.87	0.8208
2779.08	0.8235
2770.3	0.8264
2761.51	0.8298
2752.72	0.8331
2743.93	0.8364
2735.14	0.8391
2726.35	0.8415
2717.57	0.8439
2708.78	0.8464
2699.99	0.8488
2691.2	0.8513
2682.41	0.8538
2673.62	0.8564
2664.84	0.859
2656.05	0.8616
2647.26	0.8644
2638.47	0.8669
2629.68	0.8697
2620.89	0.8725
2612.11	0.8754
2603.32	0.8783
2594.53	0.8813
2585.74	0.8841
2576.95	0.8868
2568.16	0.8895
2559.38	0.8922
2550.59	0.894
2541.8	0.8956
2533.01	0.8972
2524.22	0.8989
2515.43	0.9004
2506.65	0.9019
2497.86	0.9033
2489.07	0.9043
2480.28	0.9053
2471.49	0.9066
2462.7	0.9079
2453.92	0.9089
2445.13	0.9077
2436.34	0.9066
2427.55	0.9057
2418.76	0.9067
2409.97	0.9103
2401.19	0.9146
2392.4	0.9175
2383.61	0.916
2374.82	0.9146
2366.03	0.914
2357.24	0.9134
2348.46	0.9132
2339.67	0.914
2330.88	0.9149
2322.09	0.9157
2313.3	0.9165
2304.51	0.9174
2295.73	0.9184
2286.94	0.9195
2278.15	0.9205
2269.36	0.9215
2260.57	0.9225
2251.78	0.9237
2243	0.9243
2234.21	0.925
2225.42	0.9256
2216.63	0.9262
2207.84	0.9268
2199.05	0.9275
2190.27	0.9281
2181.48	0.9288
2172.69	0.9294
2163.9	0.9301
2155.11	0.9307
2146.32	0.9314
2137.54	0.9319
2128.75	0.9325
2119.96	0.9332
2111.17	0.9338
2102.38	0.9345
2093.59	0.9353
2084.81	0.9361
2076.02	0.9368
2067.23	0.9377
2058.44	0.9386
2049.65	0.9397
2040.86	0.9406
2032.07	0.9401
2023.29	0.939
2014.5	0.938
2005.71	0.939
1996.92	0.9404
1988.13	0.9416
1979.34	0.9425
1970.56	0.9428
1961.77	0.9428
1952.98	0.9416
1944.19	0.9397
1935.4	0.9371
1926.61	0.9339
1917.83	0.9317
1909.04	0.936
1900.25	0.9408
1891.46	0.9429
1882.67	0.9444
1873.88	0.9455
1865.1	0.9465
1856.31	0.9463
1847.52	0.9462
1838.73	0.9454
1829.94	0.9444
1821.15	0.9437
1812.37	0.9434
1803.58	0.9421
1794.79	0.9408
1786	0.9394
1777.21	0.9363
1768.42	0.9318
1759.64	0.9296
1750.85	0.9433
1742.06	0.9449
1733.27	0.9393
1724.48	0.93
1715.69	0.9174
1706.91	0.875
1698.12	0.8184
1689.33	0.7155
1680.54	0.5731
1671.75	0.3884
1662.96	0.2017
1654.18	0.0777
1645.39	0.1229
1636.6	0.3257
1627.81	0.5985
1619.02	0.5484
1610.23	0.5514
1601.45	0.4243
1592.66	0.2772
1583.87	0.4224
1575.08	0.5616
1566.29	0.4135
1557.5	0.2015
1548.72	0.2205
1539.93	0.2076
1531.14	0.2601
1522.35	0.3659
1513.56	0.3498
1504.77	0.3925
1495.99	0.5131
1487.2	0.52
1478.41	0.4081
1469.62	0.2927
1460.83	0.275
1452.04	0.3002
1443.26	0.4147
1434.47	0.5272
1425.68	0.6173
1416.89	0.625
1408.1	0.4456
1399.31	0.4775
1390.53	0.5078
1381.74	0.4003
1372.95	0.3921
1364.16	0.5722
1355.37	0.7593
1346.58	0.7839
1337.8	0.7839
1329.01	0.5426
1320.22	0.2107
1311.43	0.3653
1302.64	0.621
1293.85	0.5818
1285.07	0.663
1276.28	0.7633
1267.49	0.868
1258.7	0.9
1249.91	0.8756
1241.12	0.8585
1232.34	0.9064
1223.55	0.9213
1214.76	0.9136
1205.97	0.8112
1197.18	0.7479
1188.39	0.8376
1179.61	0.8963
1170.82	0.909
1162.03	0.9151
1153.24	0.9089
1144.45	0.8888
1135.66	0.6502
1126.87	0.8536
1118.09	0.9121
1109.3	0.9192
1100.51	0.9213
1091.72	0.9221
1082.93	0.9225
1074.14	0.9217
1065.36	0.9182
1056.57	0.8985
1047.78	0.8229
1038.99	0.7819
1030.2	0.8678
1021.41	0.7702
1012.63	0.8263
1003.84	0.8916
995.05	0.8396
986.261	0.9047
977.473	0.8617
968.685	0.7961
959.896	0.9174
951.108	0.8876
942.32	0.942
933.531	0.9373
924.743	0.9304
915.955	0.8451
907.166	0.9205
898.378	0.9504
889.59	0.9452
880.801	0.8798
872.013	0.9008
863.224	0.9473
854.436	0.9416
845.648	0.8963
836.859	0.8807
828.071	0.7214
819.283	0.8776
810.494	0.9285
801.706	0.9143
792.918	0.9219
784.129	0.9103
775.341	0.884
766.553	0.8494
757.764	0.8001
748.976	0.7284
740.188	0.6494
731.399	0.6111
722.611	0.5105
713.823	0.6545
705.034	0.8072
696.246	0.8607
687.457	0.7462
678.669	0.9138
669.881	0.9634
661.092	0.9844
652.304	1.0001
643.516	1.005
634.727	0.994
