Infrared Spectrum: 1,4-DIBENZOYL-BUTANE
Formula: C18 H18 O2
CAS: 3375-38-0
State: SOLID (1.0% IN KBr PELLET)
Class: COBLENTZ
Instrument: Not specified, most likely a prism, grating, or hybrid spectrometer.
Sampling: TRANSMISSION
Path length: 0.0355 CM THICK
Resolution: 4
Origin: ANDERSON PHYSICAL LABORATORY
1/CM	TRANSMITTANCE
675.482	0.693
683.883	0.2498
692.284	0.5657
700.684	0.8629
709.085	0.906
717.486	0.8041
725.887	0.4731
734.287	0.375
742.688	0.754
751.089	0.842
759.49	0.772
767.89	0.5439
776.291	0.8719
784.692	0.926
793.093	0.935
801.494	0.918
809.894	0.911
818.295	0.947
826.696	0.953
835.097	0.95
843.497	0.947
851.898	0.944
860.299	0.921
868.7	0.918
877.101	0.929
885.501	0.923
893.902	0.905
902.303	0.769
910.704	0.869
919.104	0.887
927.505	0.875
935.906	0.7741
944.307	0.813
952.707	0.78
961.108	0.6311
969.509	0.309
977.91	0.5749
986.311	0.792
994.711	0.819
1003.11	0.833
1011.51	0.6093
1019.91	0.93
1028.31	0.896
1036.72	0.8479
1045.12	0.87
1053.52	0.738
1061.92	0.6909
1070.32	0.872
1078.72	0.772
1087.12	0.833
1095.52	0.851
1103.92	0.833
1112.32	0.822
1120.72	0.825
1129.12	0.777
1137.52	0.796
1145.93	0.786
1154.33	0.729
1162.73	0.711
1171.13	0.661
1179.53	0.5079
1187.93	0.341
1196.33	0.251
1204.73	0.8039
1213.13	0.887
1221.53	0.852
1229.93	0.793
1238.33	0.706
1246.73	0.562
1255.14	0.3439
1263.54	0.215
1271.94	0.2779
1280.34	0.6218
1288.74	0.854
1297.14	0.873
1305.54	0.793
1313.94	0.708
1322.34	0.855
1330.74	0.888
1339.14	0.854
1347.54	0.806
1355.94	0.73
1364.35	0.5661
1372.75	0.2971
1381.15	0.3829
1389.55	0.676
1397.95	0.763
1406.35	0.801
1414.75	0.7589
1423.15	0.6071
1431.55	0.837
1439.95	0.843
1448.35	0.6331
1456.75	0.396
1465.15	0.744
1473.56	0.583
1481.96	0.843
1490.36	0.915
1498.76	0.893
1507.16	0.896
1515.56	0.897
1523.96	0.891
1532.36	0.881
1540.76	0.849
1549.16	0.834
1557.56	0.818
1565.96	0.804
1574.36	0.714
1582.77	0.527
1591.17	0.574
1599.57	0.443
1607.97	0.7079
1616.37	0.781
1624.77	0.766
1633.17	0.738
1641.57	0.679
1649.97	0.615
1658.37	0.569
1666.77	0.446
1675.17	0.2549
1683.57	0.1
1691.98	0.306
1700.38	0.532
1708.78	0.772
1717.18	0.855
1725.58	0.915
1733.98	0.926
1742.38	0.926
1750.78	0.923
1759.18	0.924
1767.58	0.92
1775.98	0.903
1784.38	0.896
1792.78	0.905
1801.19	0.908
1809.59	0.888
1817.99	0.881
1826.39	0.884
1834.79	0.888
1843.19	0.891
1851.59	0.894
1859.99	0.893
1868.39	0.891
1876.79	0.885
1885.19	0.873
1893.59	0.866
1901.99	0.849
1910.4	0.846
1918.8	0.849
1927.2	0.852
1935.6	0.857
1944	0.855
1952.4	0.845
1960.8	0.825
1969.2	0.798
1977.6	0.81
1986	0.822
1994.4	0.831
2002.8	0.8413
2011.2	0.845
2019.61	0.845
2028.01	0.843
2036.41	0.843
2044.81	0.842
2053.21	0.84
2061.61	0.839
2070.01	0.836
2078.41	0.836
2086.81	0.834
2095.21	0.8335
2103.61	0.8302
2112.01	0.827
2120.41	0.8227
2128.82	0.818
2137.22	0.8152
2145.62	0.813
2154.02	0.8085
2162.42	0.805
2170.82	0.803
2179.22	0.801
2187.62	0.798
2196.02	0.796
2204.42	0.7952
2212.82	0.795
2221.22	0.7927
2229.62	0.7895
2238.03	0.7846
2246.43	0.778
2254.83	0.7764
2263.23	0.775
2271.63	0.7724
2280.03	0.769
2288.43	0.7674
2296.83	0.7639
2305.23	0.7604
2313.63	0.757
2322.03	0.756
2330.43	0.7549
2338.83	0.754
2347.24	0.753
2355.64	0.751
2364.04	0.75
2372.44	0.748
2380.84	0.747
2389.24	0.7447
2397.64	0.7414
2406.04	0.7394
2414.44	0.738
2422.84	0.738
2431.24	0.7369
2439.64	0.7352
2448.04	0.7329
2456.45	0.7314
2464.85	0.7279
2473.25	0.727
2481.65	0.726
2490.05	0.724
2498.45	0.724
2506.85	0.723
2515.25	0.721
2523.65	0.7193
2532.05	0.717
2540.45	0.715
2548.85	0.7138
2557.25	0.709
2565.66	0.7068
2574.06	0.7052
2582.46	0.7027
2590.86	0.6983
2599.26	0.697
2607.66	0.696
2616.06	0.694
2624.46	0.6937
2632.86	0.693
2641.26	0.69
2649.66	0.6898
2658.06	0.6859
2666.46	0.6814
2674.87	0.681
2683.27	0.6757
2691.67	0.6713
2700.07	0.6678
2708.47	0.6643
2716.87	0.6636
2725.27	0.6606
2733.67	0.6588
2742.07	0.658
2750.47	0.654
2758.87	0.652
2767.27	0.6484
2775.67	0.648
2784.08	0.6426
2792.48	0.6377
2800.88	0.6281
2809.28	0.6223
2817.68	0.6186
2826.08	0.6126
2834.48	0.6011
2842.88	0.5844
2851.28	0.5427
2859.68	0.508
2868.08	0.4928
2876.48	0.49
2884.88	0.4913
2893.29	0.4948
2901.69	0.5016
2910.09	0.5057
2918.49	0.5016
2926.89	0.4738
2935.29	0.47
2943.69	0.47
2952.09	0.4954
2960.49	0.5362
2968.89	0.5662
2977.29	0.5767
2985.69	0.5815
2994.1	0.5836
3002.5	0.5803
3010.9	0.5754
3019.3	0.5653
3027.7	0.5558
3036.1	0.5533
3044.5	0.5501
3052.9	0.5407
3061.3	0.5372
3069.7	0.5373
3078.1	0.5389
3086.5	0.5424
3094.9	0.5463
3103.31	0.5591
3111.71	0.5734
3120.11	0.575
3128.51	0.575
3136.91	0.575
3145.31	0.575
3153.71	0.575
3162.11	0.574
3170.51	0.5713
3178.91	0.569
3187.31	0.568
3195.71	0.566
3204.11	0.566
3212.52	0.566
3220.92	0.5646
3229.32	0.563
3237.72	0.562
3246.12	0.5601
3254.52	0.5598
3262.92	0.5581
3271.32	0.5533
3279.72	0.551
3288.12	0.548
3296.52	0.547
3304.92	0.545
3313.32	0.5391
3321.73	0.5354
3330.13	0.5281
3338.53	0.521
3346.93	0.518
3355.33	0.518
3363.73	0.518
3372.13	0.518
3380.53	0.518
3388.93	0.518
3397.33	0.517
3405.73	0.517
3414.13	0.515
3422.53	0.514
3430.94	0.512
3439.34	0.5095
3447.74	0.506
3456.14	0.5028
3464.54	0.5
3472.94	0.499
3481.34	0.499
3489.74	0.4992
3498.14	0.5
3506.54	0.5
3514.94	0.499
3523.34	0.499
3531.74	0.499
3540.15	0.499
3548.55	0.497
3556.95	0.497
3565.35	0.497
3573.75	0.497
3582.15	0.496
3590.55	0.4963
3598.95	0.497
3607.35	0.497
3615.75	0.497
3624.15	0.4975
3632.55	0.499
3640.95	0.499
3649.36	0.499
3657.76	0.499
3666.16	0.499
3674.56	0.499
3682.96	0.499
3691.36	0.499
3699.76	0.499
3708.16	0.499
3716.56	0.5
3724.96	0.5
3733.36	0.5
3741.76	0.5
3750.16	0.5
3758.57	0.499
3766.97	0.497
3775.37	0.497
3783.77	0.497
3792.17	0.4954
3800.57	0.494
3808.97	0.493
3817.37	0.491
3825.77	0.491
3834.17	0.4904
3842.57	0.49
3850.97	0.4899
3859.37	0.488
3867.78	0.4859
3876.18	0.4842
3884.58	0.482
3892.98	0.4804
3901.38	0.476
3909.78	0.473
3918.18	0.472
3926.58	0.47
3934.98	0.47
3943.38	0.469
3951.78	0.467
3960.18	0.467
3968.58	0.467
3976.99	0.4662
3985.39	0.4658
