Infrared Spectrum: 3-Bromohexane
Formula: C 6 H 13 Br
CAS: 3377-87-5
State: gas
Instrument: HP-GC/MS/IRD
Origin: NIST Mass Spectrometry Data Center
1/CM	ABSORBANCE
550	0.0002327
562	6.24e-05
574	0.0001742
586	0.00026
598	0.000416
610	0.0007007
622	0.0006851
634	0.0004901
646	0.0003003
658	0.0001716
670	0.0002704
682	0.0002132
694	0.0002405
706	0.0002197
718	0.0002015
730	0.0002834
742	0.000494
754	0.000559
766	0.0005239
778	0.0005967
790	0.001027
802	0.0012077
814	0.0007449
826	0.0004108
838	0.0004355
850	0.0004823
862	0.0005798
874	0.0008593
886	0.0010205
898	0.0008554
910	0.0006513
922	0.0004381
934	0.0003224
946	0.0003419
958	0.0003835
970	0.0003692
982	0.0004056
994	0.0003263
1006	0.0002977
1018	0.0003432
1030	0.000338
1042	0.0004446
1054	0.000351
1066	0.0003705
1078	0.0004381
1090	0.0003406
1102	0.0003718
1114	0.0004836
1126	0.0007241
1138	0.000858
1150	0.0006175
1162	0.0003224
1174	0.0005304
1186	0.0014573
1198	0.0015639
1210	0.0006032
1222	0.0002665
1234	0.0003952
1246	0.0005018
1258	0.0006474
1270	0.0007332
1282	0.0011336
1294	0.0012077
1306	0.0009217
1318	0.0006591
1330	0.0004706
1342	0.0004693
1354	0.0005044
1366	0.0005434
1378	0.0009373
1390	0.0011427
1402	0.0006526
1414	0.0004459
1426	0.000702
1438	0.0011817
1450	0.0018083
1462	0.0022399
1474	0.0017459
1486	0.0008489
1498	0.0004472
1510	0.0003081
1522	0.0002652
1534	0.0002639
1546	0.0002574
1558	0.0002249
1570	0.0002249
1582	0.0001807
1594	0.0001716
1606	0.000143
1618	0.0001534
1630	0.0001677
1642	0.00013
1654	9.1e-05
1666	0.000104
1678	6.89e-05
1690	6.76e-05
1702	5.72e-05
1714	4.55e-05
1726	3.25e-05
1738	3.12e-05
1750	7.8e-06
1762	2.47e-05
1774	3.25e-05
1786	4.42e-05
1798	1.43e-05
1810	4.55e-05
1822	2.6e-05
1834	3.51e-05
1846	9.1e-06
1858	2.34e-05
1870	2.34e-05
1882	2.86e-05
1894	1.82e-05
1906	2.08e-05
1918	1.17e-05
1930	2.73e-05
1942	4.94e-05
1954	3.9e-05
1966	9.1e-06
1978	3.38e-05
1990	3.9e-05
2002	2.73e-05
2014	2.86e-05
2026	2.73e-05
2038	4.68e-05
2050	3.51e-05
2062	4.42e-05
2074	1.17e-05
2086	4.29e-05
2098	5.46e-05
2110	4.81e-05
2122	1.82e-05
2134	4.03e-05
2146	4.03e-05
2158	4.42e-05
2170	5.59e-05
2182	3.64e-05
2194	4.94e-05
2206	5.85e-05
2218	9.1e-05
2230	7.8e-05
2242	6.11e-05
2254	5.59e-05
2266	8.45e-05
2278	7.41e-05
2290	6.24e-05
2302	7.15e-05
2314	0.000117
2326	0.0001274
2338	0.0001313
2350	0.0001183
2362	0.0001352
2374	0.0001404
2386	9.88e-05
2398	0.0001092
2410	0.0001313
2422	0.0001456
2434	0.0001079
2446	0.0001144
2458	0.00013
2470	0.0001339
2482	0.0001066
2494	0.00013
2506	0.0001261
2518	0.0001391
2530	0.00013
2542	0.0001521
2554	0.0001404
2566	0.0001677
2578	0.0001963
2590	0.0002236
2602	0.000182
2614	0.0001703
2626	0.0001833
2638	0.0001599
2650	0.0001885
2662	0.0002067
2674	0.0002392
2686	0.0002561
2698	0.0002457
2710	0.0002782
2722	0.0002782
2734	0.0003588
2746	0.0003731
2758	0.0004004
2770	0.0004121
2782	0.0004914
2794	0.0005382
2806	0.0005941
2818	0.0007423
2830	0.0010491
2842	0.0016198
2854	0.0021177
2866	0.0027209
2878	0.0045383
2890	0.0056095
2902	0.0050596
2914	0.0048503
2926	0.0055302
2938	0.0076531
2950	0.009334
2962	0.0112983
2974	0.0128882
2986	0.0073996
2998	0.002847
3010	0.0014638
3022	0.0010634
3034	0.0008411
3046	0.0006825
3058	0.0006578
3070	0.0005733
3082	0.0004719
3094	0.000429
3106	0.000403
3118	0.0003549
3130	0.0003471
3142	0.0003653
3154	0.000364
3166	0.0003549
3178	0.0002327
3190	0.0002665
3202	0.0002535
3214	0.0002587
3226	0.0002392
3238	0.0001651
3250	0.0002171
3262	0.0001742
3274	0.0002132
3286	0.0002288
3298	0.0001898
3310	9.88e-05
3322	0.0001352
3334	0.0001976
3346	0.0001989
3358	0.0001027
3370	0.0001131
3382	0.0001664
3394	0.0001508
3406	0.0001248
3418	0.0001326
3430	9.1e-05
3442	0.0001118
3454	0.0001196
3466	0.0001027
3478	0.000182
3490	0.0001456
3502	9.88e-05
3514	9.23e-05
3526	9.23e-05
3538	9.1e-05
3550	8.97e-05
3562	9.88e-05
3574	0.0001781
3586	3.77e-05
3598	0.0001144
3610	0.0001118
3622	0.0001534
3634	7.54e-05
3646	0.0001235
3658	0.0001495
3670	0.0001508
3682	0.0001053
3694	0.0001677
3706	0.0001131
3718	0.0001651
3730	0.0001573
3742	0.0001664
3754	0.0002106
3766	0.0001924
3778	0.0002327
3790	0.0001716
3802	0.0002392
3814	0.0002613
3826	0.0002002
3838	0.0002145
