Infrared Spectrum: 6-Aminoundecane
Formula: C 11 H 25 N
CAS: 33788-00-0
State: gas
Instrument: HP-GC/MS/IRD
Origin: NIST Mass Spectrometry Data Center
1/CM	ABSORBANCE
550	0.001053
562	0.0013284
574	0.0013824
586	0.0015282
598	0.0016848
610	0.0018792
622	0.0021708
634	0.0026622
646	0.0027486
658	0.0026109
670	0.0025353
682	0.0028431
694	0.0034857
706	0.0045117
718	0.0032454
730	0.0024543
742	0.0031374
754	0.0063639
766	0.0083187
778	0.0043281
790	0.0020979
802	0.0015444
814	0.001296
826	0.0014769
838	0.0014067
850	0.0012096
862	0.0011664
874	0.0010476
886	0.0010341
898	0.0008883
910	0.0004779
922	0.0003348
934	0.0003591
946	0.0004779
958	0.0008208
970	0.0007857
982	0.0003942
994	0.0002808
1006	0.0002727
1018	0.0004131
1030	0.0002889
1042	0.0002187
1054	0.0004185
1066	0.0008451
1078	0.0012069
1090	0.0007398
1102	0.0005589
1114	0.000783
1126	0.0004941
1138	0.0003132
1150	0.0004347
1162	0.0006102
1174	0.0003888
1186	7.83e-05
1198	1.35e-05
1210	0
1222	8.91e-05
1234	0.0002565
1246	0.0009801
1258	0.001566
1270	0.0031833
1282	0.0060534
1294	0.0056079
1306	0.0027459
1318	0.0013554
1330	0.0015741
1342	0.0016578
1354	0.0009477
1366	0.0004077
1378	0.0002349
1390	0.0002025
1402	0.0003267
1414	0.0004698
1426	0.0009666
1438	0.0025272
1450	0.0058158
1462	0.0102006
1474	0.0086049
1486	0.0038853
1498	0.0016416
1510	0.0009018
1522	0.0007506
1534	0.0009045
1546	0.0011799
1558	0.0017793
1570	0.0031482
1582	0.0057888
1594	0.0078948
1606	0.0082809
1618	0.0123255
1630	0.0111699
1642	0.0046386
1654	0.0018684
1666	0.0009963
1678	0.0006345
1690	0.0005157
1702	0.0004914
1714	0.0005427
1726	0.00054
1738	0.0004212
1750	0.0003726
1762	0.0003213
1774	0.0002808
1786	0.0002943
1798	0.0003834
1810	0.0004671
1822	0.0003564
1834	0.0002511
1846	0.0002322
1858	0.0002457
1870	0.0002835
1882	0.0004131
1894	0.0006777
1906	0.0006237
1918	0.0003672
1930	0.0002943
1942	0.0002619
1954	0.000243
1966	0.0002295
1978	0.0002241
1990	0.0002268
2002	0.0002457
2014	0.000216
2026	0.0002538
2038	0.0002349
2050	0.0002511
2062	0.0002646
2074	0.0002646
2086	0.0002646
2098	0.0002808
2110	0.0002646
2122	0.0002646
2134	0.0002781
2146	0.0002538
2158	0.0002538
2170	0.0002538
2182	0.0002511
2194	0.0002511
2206	0.0002376
2218	0.0002592
2230	0.0002565
2242	0.0002673
2254	0.0002565
2266	0.0002133
2278	0.0002484
2290	0.0002646
2302	0.0002619
2314	0.0002835
2326	0.0002916
2338	0.0003159
2350	0.0002835
2362	0.0003051
2374	0.0002916
2386	0.00027
2398	0.0002835
2410	0.000297
2422	0.0002646
2434	0.0002619
2446	0.0002484
2458	0.0002646
2470	0.0002997
2482	0.0002943
2494	0.0002727
2506	0.0002808
2518	0.0002727
2530	0.0002835
2542	0.0002808
2554	0.0002916
2566	0.000324
2578	0.0003888
2590	0.0004023
2602	0.0003996
2614	0.0004077
2626	0.0004131
2638	0.000459
2650	0.0005373
2662	0.0006561
2674	0.0006372
2686	0.0006021
2698	0.000513
2710	0.000486
2722	0.000486
2734	0.0004671
2746	0.0005265
2758	0.0005913
2770	0.0006723
2782	0.0007695
2794	0.0009288
2806	0.0012123
2818	0.0016443
2830	0.0029646
2842	0.0056916
2854	0.0068823
2866	0.0082755
2878	0.0081459
2890	0.007479
2902	0.007614
2914	0.0088371
2926	0.0158436
2938	0.027
2950	0.0217674
2962	0.0068823
2974	0.0022626
2986	0.0014391
2998	0.0013986
3010	0.0021465
3022	0.0043902
3034	0.0056754
3046	0.0047925
3058	0.0041175
3070	0.0039339
3082	0.0028134
3094	0.001161
3106	0.0005751
3118	0.0004725
3130	0.0004374
3142	0.0004725
3154	0.0004779
3166	0.0004374
3178	0.0004671
3190	0.0004833
3202	0.0004941
3214	0.0004806
3226	0.0005049
3238	0.0004779
3250	0.000405
3262	0.0003051
3274	0.0003078
3286	0.0002835
3298	0.0003294
3310	0.0002565
3322	0.0003024
3334	0.0003213
3346	0.0002808
3358	0.0003429
3370	0.0003915
3382	0.0004725
3394	0.0008208
3406	0.0012852
3418	0.0009666
3430	0.0005346
3442	0.0004482
3454	0.0005292
3466	0.0006588
3478	0.0013014
3490	0.0018792
3502	0.0012879
3514	0.0006102
3526	0.0004806
3538	0.0004077
3550	0.0003294
3562	0.0002754
3574	0.0003105
3586	0.0002835
3598	0.0003024
3610	0.0002997
3622	0.0002565
3634	0.0002241
3646	0.0002943
3658	0.0003294
3670	0.0003294
3682	0.0003537
3694	0.0003078
3706	0.0003402
3718	0.0003321
3730	0.0003996
3742	0.0003699
3754	0.0003429
3766	0.0003213
3778	0.0003375
3790	0.000351
3802	0.0004023
3814	0.0004374
3826	0.0004023
3838	0.0004671
