Infrared Spectrum: 5-Chloro-1,3-phenylenediamine
Formula: C 6 H 7 Cl N 2
CAS: 33786-89-9
State: gas
Origin: EPA-IR VAPOR PHASE LIBRARY
1/CM	ABSORBANCE
549.8	0.0117341
559.445	0.0112641
569.09	0.0113241
578.734	0.0109341
588.379	0.0102141
598.024	0.0101341
607.669	0.0098141
617.313	0.0103841
626.958	0.0112041
636.603	0.0145141
646.248	0.0245241
655.893	0.0471541
665.537	0.0714541
675.182	0.0675541
684.827	0.0490441
694.472	0.0300141
704.116	0.0196241
713.761	0.0146941
723.406	0.0118841
733.051	0.0096441
742.695	0.0088241
752.34	0.0096741
761.985	0.0119441
771.63	0.0149141
781.275	0.0173241
790.919	0.0188941
800.564	0.0235641
810.209	0.0342941
819.854	0.0406541
829.498	0.0320641
839.143	0.0208441
848.788	0.0143141
858.433	0.0170741
868.078	0.0383741
877.722	0.0486441
887.367	0.0267541
897.012	0.0079941
906.657	0.0055941
916.301	0.0055441
925.946	0.0055041
935.591	0.0056041
945.236	0.0061041
954.88	0.0062541
964.525	0.0066741
974.17	0.0077141
983.815	0.0119941
993.46	0.0135841
1003.1	0.0095841
1012.75	0.0044841
1022.39	0.0040741
1032.04	0.0040241
1041.68	0.0040841
1051.33	0.0047541
1060.97	0.0063641
1070.62	0.0082041
1080.26	0.0114641
1089.91	0.0155041
1099.55	0.0168141
1109.2	0.0131641
1118.84	0.0083641
1128.49	0.0055641
1138.13	0.0039241
1147.78	0.0026841
1157.42	0.0041441
1167.07	0.0108441
1176.71	0.0315341
1186.36	0.0420941
1196	0.0309541
1205.64	0.0081641
1215.29	0.0029141
1224.93	0.0019441
1234.58	0.0015341
1244.22	0.0012341
1253.87	0.0011141
1263.51	0.0015941
1273.16	0.0024141
1282.8	0.0034141
1292.45	0.0048041
1302.09	0.0066341
1311.74	0.0073641
1321.38	0.0057741
1331.03	0.0038241
1340.67	0.0030241
1350.32	0.0030941
1359.96	0.0047641
1369.61	0.0055641
1379.25	0.0047441
1388.9	0.0049141
1398.54	0.0073941
1408.18	0.0092341
1417.83	0.0080641
1427.47	0.0064941
1437.12	0.0071741
1446.76	0.0131541
1456.41	0.0281941
1466.05	0.0426641
1475.7	0.0474441
1485.34	0.0363441
1494.99	0.0175941
1504.63	0.0115341
1514.28	0.0100441
1523.92	0.0092541
1533.57	0.0095841
1543.21	0.0117441
1552.86	0.0158541
1562.5	0.0250341
1572.15	0.0512541
1581.79	0.111864
1591.44	0.155874
1601.08	0.110204
1610.73	0.0925441
1620.37	0.126114
1630.01	0.137304
1639.66	0.0935741
1649.3	0.0432241
1658.95	0.0194341
1668.59	0.0113941
1678.24	0.0080041
1687.88	0.0062041
1697.53	0.0052941
1707.17	0.0044141
1716.82	0.0035041
1726.46	0.0033041
1736.11	0.0038041
1745.75	0.0039141
1755.4	0.0032941
1765.04	0.0024041
1774.69	0.0018441
1784.33	0.0015041
1793.98	0.0013541
1803.62	0.0011941
1813.27	0.0011641
1822.91	0.0011841
1832.55	0.0013341
1842.2	0.0015141
1851.84	0.0017241
1861.49	0.0017441
1871.13	0.0016641
1880.78	0.0014641
1890.42	0.0012141
1900.07	0.0011041
1909.71	0.0009901
1919.36	0.0010221
1929	0.0009266
1938.65	0.0009371
1948.29	0.0009946
1957.94	0.0010745
1967.58	0.0013441
1977.23	0.0016241
1986.87	0.0019241
1996.52	0.0018541
2006.16	0.0017141
2015.81	0.0013141
2025.45	0.0012741
2035.1	0.0012541
2044.74	0.0013041
2054.38	0.0015441
2064.03	0.0013241
2073.67	0.0011141
2083.32	0.0010693
2092.96	0.0010646
2102.61	0.0010597
2112.25	0.0011341
2121.9	0.0011641
2131.54	0.0011741
2141.19	0.0013341
2150.83	0.0014541
2160.48	0.0013041
2170.12	0.0012541
2179.77	0.0012341
2189.41	0.0012441
2199.06	0.0009773
2208.7	0.0008086
2218.35	0.0006534
2227.99	0.0004782
2237.64	0.0005496
2247.28	0.000634
2256.92	0.000747
2266.57	0.0008109
2276.21	0.0008981
2285.86	0.0008289
2295.5	0.0007838
2305.15	0.0007697
2314.79	0.000841
2324.44	0.0007159
2334.08	0.0005229
2343.73	0.0005638
2353.37	0.0006472
2363.02	0.0006715
2372.66	0.0008325
2382.31	0.0008435
2391.95	0.0007221
2401.6	0.0006793
2411.24	0.0006773
2420.89	0.0006718
2430.53	0.0006062
2440.18	0.0006932
2449.82	0.000699
2459.47	0.0008001
2469.11	0.0007704
2478.75	0.0007467
2488.4	0.0008128
2498.04	0.0009515
2507.69	0.001045
2517.33	0.0007747
2526.98	0.0004719
2536.62	0.0003685
2546.27	0.0003999
2555.91	0.0003692
2565.56	0.0003885
2575.2	0.0004411
2584.85	0.0004699
2594.49	0.000563
2604.14	0.0006009
2613.78	0.0006099
2623.43	0.0005664
2633.07	0.0005571
2642.72	0.0006126
2652.36	0.0006611
2662.01	0.0007432
2671.65	0.0007829
2681.29	0.000705
2690.94	0.0007938
2700.58	0.0007066
2710.23	0.0006988
2719.87	0.000706
2729.52	0.000934
2739.16	0.0011241
2748.81	0.0011441
2758.45	0.0011841
2768.1	0.0010841
2777.74	0.0011441
2787.39	0.0011241
2797.03	0.0008153
2806.68	0.0007435
2816.32	0.0006407
2825.97	0.0004137
2835.61	0.0003495
2845.26	0.0001895
2854.9	0.00013745
2864.55	0.0003009
2874.19	0.0003994
2883.84	0.000467
2893.48	0.0004431
2903.12	0.0004769
2912.77	0.0004908
2922.41	0.0005447
2932.06	0.000528
2941.7	0.0005627
2951.35	0.0005291
2960.99	0.0003474
2970.64	0.0003702
2980.28	0.0004716
2989.93	0.0006348
2999.57	0.0010491
3009.22	0.0022441
3018.86	0.0057341
3028.51	0.0076741
3038.15	0.0053241
3047.8	0.0028541
3057.44	0.0037841
3067.09	0.0045241
3076.73	0.0037741
3086.38	0.0022741
3096.02	0.0011641
3105.67	0.0005778
3115.31	0.0004489
3124.95	0.0003497
3134.6	0.000279
3144.24	9.582e-05
3153.89	0.0002665
3163.53	0.0004588
3173.18	0.0005027
3182.82	0.000725
3192.47	0.0008448
3202.11	0.0014141
3211.76	0.0019541
3221.4	0.0022341
3231.05	0.0020641
3240.69	0.0016741
3250.34	0.000979
3259.98	0.0006966
3269.63	0.0005675
3279.27	0.0006224
3288.92	0.0003518
3298.56	9.477e-05
3308.21	0.000389
3317.85	0.000242
3327.49	0.0003832
3337.14	0.0004068
3346.78	0.0003585
3356.43	0.0005865
3366.07	0.0008495
3375.72	0.0014441
3385.36	0.0029241
3395.01	0.0060941
3404.65	0.0110141
3414.3	0.0139641
3423.94	0.0122441
3433.59	0.0075441
3443.23	0.0035241
3452.88	0.0020941
3462.52	0.0022341
3472.17	0.0034641
3481.81	0.0059541
3491.46	0.0089041
3501.1	0.0094241
3510.75	0.0078741
3520.39	0.0054441
3530.04	0.0028341
3539.68	0.0012841
3549.32	0.0005112
3558.97	0.0004195
3568.61	0.0002944
3578.26	0.0003953
3587.9	0.0004238
3597.55	0.00012231
3607.19	0.0004314
3616.84	8.6908e-05
3626.48	0.0004124
3636.13	0.0003565
3645.77	0.00013058
3655.42	0.00014478
3665.06	0.0002034
3674.71	0.00016933
3684.35	0.0003016
3694	0.0003664
3703.64	0.0003392
3713.29	0.0003739
3722.93	0.000332
3732.58	0.0002125
3742.22	0.0003462
3751.86	0.0004232
3761.51	0.0003657
3771.15	0.0005362
3780.8	0.000224
3790.44	0.0001923
3800.09	0.0002738
3809.73	0.0003879
3819.38	0.0005216
3829.02	0.0006114
3838.67	0.0010841
3848.31	0.0013641
3857.96	0.0015941
3867.6	0.0010941
3877.25	0.0007204
3886.89	0.0006348
3896.54	0.0005123
3906.18	0.0005026
3915.83	0.000525
3925.47	0.0006863
3935.12	0.0011141
3944.76	0.0010169
3954.41	0.0009251
3964.05	0.0007511
3973.69	0.0004834
3983.34	0.0003667
3992.98	0.0005972
