Infrared Spectrum: 2-Furoic acid, 5-nitro-,anhydride
Formula: C10 H4 N2 O9
CAS: 33794-66-0
State: SOLID (NUJOL MULL)
Class: COBLENTZ III
Instrument: PERKIN-ELMER 21 (GRATING)
Instrument parameters: FILTER AT ABOUT 10 MICRONS
Resolution: 2
Origin: ABBOTT LABORATORIES
1/CM	TRANSMITTANCE
649	0.566
658	0.5896
667	0.6152
676	0.6341
685	0.6574
694	0.6694
703	0.6724
712	0.6617
721	0.6392
730	0.6512
739	0.5345
748	0.5114
757	0.3104
766	0.6577
775	0.7021
784	0.6997
793	0.6742
802	0.5865
811	0.2091
820	0.2497
829	0.5409
838	0.3984
847	0.7352
856	0.6753
865	0.6379
874	0.7451
883	0.7479
892	0.7393
901	0.7068
910	0.6503
919	0.6883
928	0.7014
937	0.6783
946	0.5715
955	0.6553
964	0.4473
973	0.6407
982	0.6658
991	0.6532
1000	0.6271
1009	0.5626
1018	0.3068
1027	0.421
1036	0.5871
1045	0.5208
1054	0.4091
1063	0.2382
1072	0.1608
1081	0.0847
1090	0.1186
1099	0.1058
1108	0.1925
1117	0.4187
1126	0.5899
1135	0.6641
1144	0.673
1153	0.6316
1162	0.4612
1171	0.1189
1180	0.3437
1189	0.675
1198	0.6849
1207	0.654
1216	0.5091
1225	0.214
1234	0.1191
1243	0.1255
1252	0.2138
1261	0.453
1270	0.587
1279	0.5736
1288	0.6764
1297	0.6573
1306	0.6104
1315	0.4552
1324	0.451
1333	0.3091
1342	0.0876
1351	0.1329
1360	0.3731
1369	0.4168
1378	0.5551
1387	0.5467
1396	0.6135
1405	0.6653
1414	0.6611
1423	0.5866
1432	0.5103
1441	0.4351
1450	0.3606
1459	0.377
1468	0.5028
1477	0.5072
1486	0.4479
1495	0.6056
1504	0.5881
1513	0.4239
1522	0.3678
1531	0.1403
1540	0.086
1549	0.5625
1558	0.6281
1567	0.5332
1576	0.3742
1585	0.7399
1594	0.7615
1603	0.763
1612	0.7534
1621	0.7442
1630	0.7368
1639	0.7316
1648	0.7302
1657	0.7354
1666	0.7395
1675	0.7309
1684	0.7231
1693	0.6907
1702	0.663
1711	0.6437
1720	0.4638
1729	0.2372
1738	0.3514
1747	0.4949
1756	0.3879
1765	0.276
1774	0.1652
1783	0.0803
1792	0.2445
1801	0.4718
1810	0.5421
1819	0.6019
1828	0.685
1837	0.7365
1846	0.7679
1855	0.7882
1864	0.7924
1873	0.7951
1882	0.802
1891	0.8078
1900	0.8022
1909	0.7962
1918	0.7941
1927	0.7977
1936	0.8024
1945	0.8054
1954	0.8007
1963	0.7929
1972	0.7899
1981	0.7965
1990	0.8049
1999	0.808
2008	0.8094
2017	0.8085
2026	0.8093
2035	0.8134
2044	0.8172
2053	0.8157
2062	0.8145
2071	0.813
2080	0.811
2089	0.8082
2098	0.8038
2107	0.7972
2116	0.7954
2125	0.7972
2134	0.8027
2143	0.8082
2152	0.8091
2161	0.8082
2170	0.807
2179	0.8069
2188	0.8083
2197	0.8097
2206	0.8103
2215	0.811
2224	0.8115
2233	0.8107
2242	0.8098
2251	0.8098
2260	0.8098
2269	0.8098
2278	0.8098
2287	0.8109
2296	0.8121
2305	0.8141
2314	0.8161
2323	0.8192
2332	0.8223
2341	0.8251
2350	0.8272
2359	0.8278
2368	0.8282
2377	0.8279
2386	0.8276
2395	0.8271
2404	0.8263
2413	0.8257
2422	0.8247
2431	0.8238
2440	0.8236
2449	0.8247
2458	0.8259
2467	0.8275
2476	0.8289
2485	0.8295
2494	0.8302
2503	0.8303
2512	0.8293
2521	0.8284
2530	0.8271
2539	0.8255
2548	0.8237
2557	0.8211
2566	0.8181
2575	0.8153
2584	0.8128
2593	0.8103
2602	0.8089
2611	0.8083
2620	0.8082
2629	0.8094
2638	0.8085
2647	0.8029
2656	0.7962
2665	0.7898
2674	0.7855
2683	0.7859
2692	0.7919
2701	0.7955
2710	0.7957
2719	0.7942
2728	0.7916
2737	0.7866
2746	0.7776
2755	0.7613
2764	0.7348
2773	0.6613
2782	0.4928
2791	0.3254
2800	0.2311
2809	0.2097
2818	0.2032
2827	0.1997
2836	0.1924
2845	0.1562
2854	0.1166
2863	0.087
2872	0.0872
2881	0.0908
2890	0.0994
2899	0.1125
2908	0.1245
2917	0.1843
2926	0.3282
2935	0.4726
2944	0.6143
2953	0.6569
2962	0.6762
2971	0.682
2980	0.6863
2989	0.6897
2998	0.6916
3007	0.6923
3016	0.6921
3025	0.6908
3034	0.6878
3043	0.6811
3052	0.6598
3061	0.6021
3070	0.5439
3079	0.5118
3088	0.5201
3097	0.5417
3106	0.5543
3115	0.5884
3124	0.6339
3133	0.6792
3142	0.7206
3151	0.7333
3160	0.7366
3169	0.7371
3178	0.7368
3187	0.734
3196	0.7315
3205	0.7294
3214	0.7278
3223	0.728
3232	0.7284
3241	0.7294
3250	0.7303
3259	0.731
3268	0.7301
3277	0.7288
3286	0.7272
3295	0.7249
3304	0.7233
3313	0.722
3322	0.7211
3331	0.7211
3340	0.7209
3349	0.7204
3358	0.7184
3367	0.7157
3376	0.7126
3385	0.7085
3394	0.707
3403	0.7065
3412	0.7061
3421	0.706
3430	0.7058
3439	0.7054
3448	0.7048
3457	0.7038
3466	0.7022
3475	0.7
3484	0.6985
3493	0.6981
3502	0.7
3511	0.7034
3520	0.7055
3529	0.707
3538	0.7082
3547	0.7088
3556	0.7093
3565	0.7096
3574	0.7099
3583	0.7101
3592	0.7098
3601	0.7093
3610	0.7087
3619	0.7081
3628	0.7072
3637	0.7063
3646	0.7055
3655	0.7045
3664	0.7037
3673	0.7029
3682	0.7018
3691	0.7008
3700	0.6998
3709	0.6988
3718	0.6977
3727	0.6967
3736	0.6956
3745	0.6944
3754	0.6933
3763	0.6921
3772	0.691
3781	0.6899
3790	0.6888
3799	0.6877
3808	0.6866
3817	0.6855
3826	0.6842
3835	0.683
3844	0.6816
3853	0.6803
3862	0.6789
3871	0.6777
3880	0.6763
3889	0.6751
3898	0.6738
3907	0.6725
3916	0.6712
3925	0.67
3934	0.6687
3943	0.6675
3952	0.6662
3961	0.665
3970	0.6637
3979	0.6625
3988	0.6612
3997	0.66
