Infrared Spectrum: D-(-)-N,Alpha-DIMETHYL-PHENYL ETHYLAMINE
Formula: C10 H15 N
CAS: 33817-09-3
State: LIQUID
Class: COBLENTZ
Instrument: Not specified, most likely a prism, grating, or hybrid spectrometer.
Sampling: TRANSMISSION
Path length: 0.003 CM
Resolution: 4
Origin: WYANDOTTE CHEMICALS CORP., WYANDOTTE, MICHIGAN, USA
MICROMETERS	TRANSMITTANCE
2.044	0.953
2.08384	0.95
2.12368	0.941
2.16352	0.943
2.20336	0.92
2.2432	0.926
2.28304	0.926
2.32288	0.931
2.36272	0.92
2.40256	0.905
2.4424	0.928
2.48224	0.935
2.52208	0.94
2.56192	0.953
2.60176	0.971
2.6416	0.971
2.68144	0.938
2.72128	0.908
2.76112	0.905
2.80096	0.853
2.8408	0.805
2.88064	0.768
2.92048	0.736
2.96032	0.696
3.00016	0.641
3.04	0.591
3.07984	0.65
3.11968	0.69
3.15952	0.715
3.19936	0.725
3.2392	0.493
3.27904	0.465
3.31888	0.513
3.35872	0.053
3.39856	0.116
3.4384	0.195
3.47824	0.24
3.51808	0.213
3.55792	0.385
3.59776	0.258
3.6376	0.71
3.67744	0.826
3.71728	0.861
3.75712	0.843
3.79696	0.838
3.8368	0.811
3.87664	0.878
3.91648	0.898
3.95632	0.918
3.99616	0.918
4.036	0.921
4.07584	0.931
4.11568	0.925
4.15552	0.925
4.19536	0.933
4.2352	0.938
4.27504	0.953
4.31488	0.953
4.35472	0.946
4.39456	0.936
4.4344	0.93
4.47424	0.931
4.51408	0.931
4.55392	0.941
4.59376	0.931
4.6336	0.933
4.67344	0.94
4.71328	0.933
4.75312	0.941
4.79296	0.931
4.8328	0.94
4.87264	0.943
4.91248	0.955
4.95232	0.943
4.99216	0.951
5.032	0.95
5.07184	0.93
5.11168	0.903
5.15152	0.861
5.19136	0.883
5.2312	0.923
5.27104	0.905
5.31088	0.883
5.35072	0.871
5.39056	0.911
5.4304	0.928
5.47024	0.91
5.51008	0.881
5.54993	0.875
5.58977	0.905
5.62961	0.91
5.66945	0.888
5.70929	0.876
5.74913	0.886
5.78897	0.896
5.82881	0.895
5.86865	0.883
5.90849	0.876
5.94833	0.845
5.98817	0.841
6.02801	0.833
6.06785	0.841
6.10769	0.851
6.14753	0.686
6.18737	0.615
6.22721	0.761
6.26705	0.818
6.30689	0.868
6.34673	0.871
6.38657	0.858
6.42641	0.866
6.46625	0.846
6.50609	0.846
6.54593	0.791
6.58577	0.661
6.62561	0.305
6.66545	0.323
6.70529	0.285
6.74513	0.383
6.78497	0.296
6.82481	0.11
6.86465	0.16
6.90449	0.295
6.94433	0.586
6.98417	0.651
7.02401	0.756
7.06385	0.788
7.10369	0.8
7.14353	0.771
7.18337	0.675
7.22321	0.401
7.26305	0.385
7.30289	0.636
7.34273	0.605
7.38257	0.44
7.42241	0.381
7.46225	0.571
7.50209	0.693
7.54193	0.73
7.58177	0.788
7.62161	0.821
7.66145	0.811
7.70129	0.771
7.74113	0.745
7.78097	0.768
7.82081	0.805
7.86065	0.821
7.90049	0.831
7.94033	0.836
7.98017	0.836
8.02001	0.82
8.05985	0.788
8.09969	0.73
8.13953	0.67
8.17937	0.658
8.21921	0.705
8.25905	0.71
8.29889	0.706
8.33873	0.726
8.37857	0.683
8.41841	0.615
8.45825	0.586
8.49809	0.563
8.53793	0.47
8.57777	0.33
8.61761	0.245
8.65745	0.325
8.69729	0.395
8.73713	0.403
8.77697	0.418
8.81681	0.421
8.85665	0.426
8.89649	0.443
8.93633	0.51
8.97617	0.583
9.01601	0.645
9.05585	0.648
9.09569	0.626
9.13553	0.565
9.17537	0.548
9.21521	0.55
9.25505	0.431
9.29489	0.401
9.33473	0.576
9.37457	0.633
9.41441	0.625
9.45425	0.621
9.49409	0.635
9.53393	0.678
9.57377	0.671
9.61361	0.616
9.65345	0.46
9.69329	0.626
9.73313	0.703
9.77297	0.755
9.81281	0.793
9.85265	0.803
9.89249	0.806
9.93233	0.815
9.97217	0.843
10.012	0.853
10.0519	0.846
10.0917	0.85
10.1315	0.846
10.1714	0.841
10.2112	0.848
10.2511	0.843
10.2909	0.843
10.3307	0.838
10.3706	0.845
10.4104	0.848
10.4503	0.848
10.4901	0.848
10.5299	0.838
10.5698	0.831
10.6096	0.816
10.6495	0.801
10.6893	0.8
10.7291	0.803
10.769	0.798
10.8088	0.795
10.8487	0.786
10.8885	0.751
10.9283	0.718
10.9682	0.691
11.008	0.73
11.0479	0.753
11.0877	0.761
11.1275	0.763
11.1674	0.76
11.2072	0.756
11.2471	0.748
11.2869	0.753
11.3267	0.766
11.3666	0.766
11.4064	0.761
11.4463	0.751
11.4861	0.74
11.5259	0.731
11.5658	0.711
11.6056	0.693
11.6455	0.675
11.6853	0.656
11.7251	0.643
11.765	0.623
11.8048	0.6
11.8447	0.605
11.8845	0.61
11.9243	0.618
11.9642	0.633
12.004	0.64
12.0439	0.646
12.0837	0.648
12.1235	0.65
12.1634	0.66
12.2032	0.67
12.2431	0.68
12.2829	0.666
12.3227	0.656
12.3626	0.65
12.4024	0.643
12.4423	0.626
12.4821	0.598
12.5219	0.555
12.5618	0.513
12.6016	0.485
12.6415	0.475
12.6813	0.505
12.7211	0.508
12.761	0.503
12.8008	0.488
12.8407	0.466
12.8805	0.445
12.9203	0.421
12.9602	0.38
13	0.356
13.0399	0.321
13.0797	0.288
13.1195	0.265
13.1594	0.236
13.1992	0.213
13.2391	0.195
13.2789	0.173
13.3187	0.151
13.3586	0.128
13.3984	0.103
13.4383	0.083
13.4781	0.08
13.5179	0.083
13.5578	0.096
13.5976	0.111
13.6375	0.143
13.6773	0.158
13.7171	0.196
13.757	0.223
13.7968	0.246
13.8367	0.273
13.8765	0.293
13.9163	0.31
13.9562	0.323
13.996	0.326
14.0359	0.32
14.0757	0.295
14.1155	0.251
14.1554	0.198
14.1952	0.138
14.2351	0.101
14.2749	0.083
14.3147	0.08
14.3546	0.103
14.3944	0.133
14.4343	0.201
14.4741	0.291
14.5139	0.38
14.5538	0.44
14.5936	0.475
14.6335	0.503
14.6733	0.52
14.7131	0.558
14.753	0.568
14.7928	0.588
14.8327	0.608
14.8725	0.618
14.9123	0.636
14.9522	0.65
14.992	0.665
15.0319	0.693
15.0717	0.703
15.1115	0.708
15.1514	0.715
15.1912	0.718
15.2311	0.723
15.2709	0.733
15.3107	0.738
15.3506	0.745
15.3904	0.748
15.4303	0.748
15.4701	0.751
15.5099	0.755
15.5498	0.758
15.5896	0.758
15.6295	0.751
15.6693	0.746
15.7091	0.738
15.749	0.738
15.7888	0.736
15.8287	0.735
15.8685	0.738
15.9083	0.741
15.9482	0.751
15.988	0.753
