Infrared Spectrum: 11-Heneicosanol
Formula: C 21 H 44 O
CAS: 3381-26-8
State: gas
Origin: EPA-IR VAPOR PHASE LIBRARY
1/CM	ABSORBANCE
549.8	0.00166
559.445	0.000728
569.09	0.00133
578.734	0.0004334
588.379	0.0008932
598.024	0.0006212
607.669	0.0007135
617.313	0.0015
626.958	0.00107
636.603	0.0007914
646.248	0.0008765
655.893	0.0008153
665.537	0.0009287
675.182	0.00108
684.827	0.00172
694.472	0.00272
704.116	0.00451
713.761	0.00783
723.406	0.00857
733.051	0.00734
742.695	0.00619
752.34	0.00504
761.985	0.00454
771.63	0.00405
781.275	0.00356
790.919	0.00346
800.564	0.00331
810.209	0.00359
819.854	0.00324
829.498	0.00346
839.143	0.00382
848.788	0.00392
858.433	0.0043
868.078	0.00465
877.722	0.00549
887.367	0.00592
897.012	0.00601
906.657	0.00601
916.301	0.00601
925.946	0.00672
935.591	0.00693
945.236	0.00825
954.88	0.01008
964.525	0.0115
974.17	0.0126
983.815	0.01223
993.46	0.01364
1003.1	0.01573
1012.75	0.01808
1022.39	0.01781
1032.04	0.01583
1041.68	0.0149
1051.33	0.01497
1060.97	0.01624
1070.62	0.01732
1080.26	0.01632
1089.91	0.01418
1099.55	0.01203
1109.2	0.01166
1118.84	0.01274
1128.49	0.01246
1138.13	0.00982
1147.78	0.00848
1157.42	0.00892
1167.07	0.00945
1176.71	0.0095
1186.36	0.0106
1196	0.01067
1205.64	0.01073
1215.29	0.01146
1224.93	0.01317
1234.58	0.01362
1244.22	0.01448
1253.87	0.0146
1263.51	0.01447
1273.16	0.01365
1282.8	0.01345
1292.45	0.01375
1302.09	0.01447
1311.74	0.01414
1321.38	0.01335
1331.03	0.01422
1340.67	0.01811
1350.32	0.0223
1359.96	0.02351
1369.61	0.02332
1379.25	0.02298
1388.9	0.01978
1398.54	0.01469
1408.18	0.01121
1417.83	0.01011
1427.47	0.0117
1437.12	0.01876
1446.76	0.02987
1456.41	0.04252
1466.05	0.04191
1475.7	0.02344
1485.34	0.01158
1494.99	0.007
1504.63	0.00501
1514.28	0.00383
1523.92	0.00293
1533.57	0.00255
1543.21	0.00212
1552.86	0.00189
1562.5	0.00174
1572.15	0.00156
1581.79	0.0014
1591.44	0.00129
1601.08	0.00122
1610.73	0.00115
1620.37	0.0009234
1630.01	0.00113
1639.66	0.0009141
1649.3	0.0007946
1658.95	0.0009225
1668.59	0.0008293
1678.24	0.0007402
1687.88	0.0005911
1697.53	0.0008513
1707.17	0.000552
1716.82	0.0006511
1726.46	0.000638
1736.11	0.0004934
1745.75	0.0005423
1755.4	0.0005002
1765.04	0.0004272
1774.69	0.0005595
1784.33	0.0003893
1793.98	0.0004239
1803.62	0.0006131
1813.27	0.0005664
1822.91	0.000341
1832.55	0.0005658
1842.2	0.0004256
1851.84	0.0006084
1861.49	0.0005576
1871.13	0.0005462
1880.78	0.0005351
1890.42	0.0004139
1900.07	0.0006173
1909.71	0.0005296
1919.36	0.0004687
1929	0.0004726
1938.65	0.0004349
1948.29	0.0004662
1957.94	0.0004804
1967.58	0.000542
1977.23	0.0004978
1986.87	0.0005464
1996.52	0.0006181
2006.16	0.0007278
2015.81	0.0008951
2025.45	0.00106
2035.1	0.00123
2044.74	0.00107
2054.38	0.00115
2064.03	0.0009488
2073.67	0.0009552
2083.32	0.0008862
2092.96	0.0006938
2102.61	0.0006525
2112.25	0.0008545
2121.9	0.0008286
2131.54	0.0007903
2141.19	0.0009241
2150.83	0.0008321
2160.48	0.0009935
2170.12	0.0008296
2179.77	0.0009358
2189.41	0.00087
2199.06	0.0008943
2208.7	0.0008698
2218.35	0.0007509
2227.99	0.0009065
2237.64	0.0008809
2247.28	0.00104
2256.92	0.00109
2266.57	0.00105
2276.21	0.00105
2285.86	0.00109
2295.5	0.00114
2305.15	0.00109
2314.79	0.0011
2324.44	0.00118
2334.08	0.00108
2343.73	0.00124
2353.37	0.00107
2363.02	0.00115
2372.66	0.00101
2382.31	0.00128
2391.95	0.0012
2401.6	0.00136
2411.24	0.00112
2420.89	0.00131
2430.53	0.00118
2440.18	0.00114
2449.82	0.0011
2459.47	0.00122
2469.11	0.00122
2478.75	0.00121
2488.4	0.0012
2498.04	0.00138
2507.69	0.00172
2517.33	0.00182
2526.98	0.00188
2536.62	0.00205
2546.27	0.00228
2555.91	0.00227
2565.56	0.00244
2575.2	0.0027
2584.85	0.00285
2594.49	0.0031
2604.14	0.0035
2613.78	0.00371
2623.43	0.00412
2633.07	0.00452
2642.72	0.00498
2652.36	0.00545
2662.01	0.00583
2671.65	0.00632
2681.29	0.00682
2690.94	0.00664
2700.58	0.00624
2710.23	0.00589
2719.87	0.00626
2729.52	0.00664
2739.16	0.00724
2748.81	0.00767
2758.45	0.00796
2768.1	0.00879
2777.74	0.00991
2787.39	0.01195
2797.03	0.0142
2806.68	0.01756
2816.32	0.02243
2825.97	0.03
2835.61	0.04324
2845.26	0.07587
2854.9	0.16031
2864.55	0.22831
2874.19	0.17203
2883.84	0.13656
2893.48	0.1279
2903.12	0.16896
2912.77	0.25615
2922.41	0.41762
2932.06	0.60861
2941.7	0.47104
2951.35	0.25875
2960.99	0.18753
2970.64	0.15718
2980.28	0.08093
2989.93	0.04585
2999.57	0.03012
3009.22	0.02194
3018.86	0.01673
3028.51	0.01318
3038.15	0.01075
3047.8	0.00912
3057.44	0.00753
3067.09	0.00648
3076.73	0.00546
3086.38	0.00524
3096.02	0.00481
3105.67	0.0042
3115.31	0.0036
3124.95	0.0036
3134.6	0.0033
3144.24	0.00312
3153.89	0.0027
3163.53	0.00284
3173.18	0.00266
3182.82	0.00232
3192.47	0.00207
3202.11	0.00196
3211.76	0.00164
3221.4	0.00165
3231.05	0.00145
3240.69	0.00112
3250.34	0.00103
3259.98	0.00116
3269.63	0.0008814
3279.27	0.0008121
3288.92	0.0009516
3298.56	0.0009118
3308.21	0.0007146
3317.85	0.0012
3327.49	0.0008469
3337.14	0.0007553
3346.78	0.00108
3356.43	0.0008608
3366.07	0.00117
3375.72	0.00112
3385.36	0.001
3395.01	0.00112
3404.65	0.00128
3414.3	0.00108
3423.94	0.00115
3433.59	0.00112
3443.23	0.00131
3452.88	0.0009197
3462.52	0.0009286
3472.17	0.0009591
3481.81	0.0007967
3491.46	0.0007064
3501.1	0.000601
3510.75	0.0007367
3520.39	0.0005627
3530.04	0.0007401
3539.68	0.0006322
3549.32	0.0005165
3558.97	0.0005178
3568.61	0.0007782
3578.26	0.0007704
3587.9	0.00101
3597.55	0.0012
3607.19	0.00131
3616.84	0.00249
3626.48	0.00379
3636.13	0.00503
3645.77	0.00819
3655.42	0.01044
3665.06	0.00554
3674.71	0.00272
3684.35	0.00194
3694	0.00166
3703.64	0.00154
3713.29	0.00145
3722.93	0.00132
3732.58	0.00157
3742.22	0.00129
3751.86	0.00119
3761.51	0.00142
3771.15	0.00129
3780.8	0.00142
3790.44	0.00128
3800.09	0.00149
3809.73	0.0013
3819.38	0.00129
3829.02	0.00157
3838.67	0.00161
3848.31	0.0017
3857.96	0.00172
3867.6	0.00166
3877.25	0.00134
3886.89	0.00156
3896.54	0.00114
3906.18	0.00148
3915.83	0.00142
3925.47	0.00152
3935.12	0.0016
3944.76	0.0012
3954.41	0.00169
3964.05	0.00127
3973.69	0.00161
3983.34	0.00173
3992.98	0.00155
