Infrared Spectrum: Isopropalin
Formula: C 15 H 23 N 3 O 4
CAS: 33820-53-0
State: gas
Instrument: HP-GC/MS/IRD
Origin: NIST Mass Spectrometry Data Center
1/CM	ABSORBANCE
550	0.0004896
562	7.2e-05
574	0.0002736
586	0.0003168
598	0.0004608
610	0.0007056
622	0.0007488
634	0.0011376
646	0.0018432
658	0.0011088
670	0.0004032
682	0.000648
694	0.00144
706	0.0064656
718	0.0220896
730	0.0071424
742	0.0036576
754	0.0028368
766	0.0025776
778	0.0030672
790	0.0043632
802	0.0030528
814	0.000864
826	0.0005184
838	0.0006048
850	0.001224
862	0.0020736
874	0.0041904
886	0.0100512
898	0.0054864
910	0.0061776
922	0.0054288
934	0.003816
946	0.0027504
958	0.002088
970	0.0039888
982	0.0040176
994	0.0015696
1006	0.00108
1018	0.0015552
1030	0.0020592
1042	0.0025056
1054	0.002592
1066	0.0036
1078	0.0061344
1090	0.0083952
1102	0.012672
1114	0.0111888
1126	0.005976
1138	0.0045648
1150	0.0070704
1162	0.0084672
1174	0.0067968
1186	0.004032
1198	0.0036144
1210	0.0054144
1222	0.0084816
1234	0.0123264
1246	0.0131328
1258	0.0131184
1270	0.0098784
1282	0.0092016
1294	0.0094176
1306	0.0107136
1318	0.015408
1330	0.0209952
1342	0.0325728
1354	0.0555264
1366	0.0380736
1378	0.0232416
1390	0.0215712
1402	0.0130176
1414	0.0087552
1426	0.007776
1438	0.0104976
1450	0.0165744
1462	0.0215424
1474	0.0234576
1486	0.0249552
1498	0.026136
1510	0.0274464
1522	0.0352368
1534	0.0644256
1546	0.136037
1558	0.0947952
1570	0.032328
1582	0.0185904
1594	0.0125568
1606	0.0098928
1618	0.0087984
1630	0.0055152
1642	0.0031824
1654	0.0020016
1666	0.00144
1678	0.0011232
1690	0.0009504
1702	0.0008496
1714	0.0006192
1726	0.0004608
1738	0.0003744
1750	0.0003888
1762	0.0005328
1774	0.0008928
1786	0.0011808
1798	0.0007488
1810	0.0004896
1822	0.000288
1834	0.0002016
1846	0.0001872
1858	0.0001584
1870	0.0001296
1882	0.0001152
1894	0.0001152
1906	8.64e-05
1918	4.32e-05
1930	4.32e-05
1942	5.76e-05
1954	4.32e-05
1966	1.44e-05
1978	4.32e-05
1990	4.32e-05
2002	8.64e-05
2014	8.64e-05
2026	7.2e-05
2038	7.2e-05
2050	8.64e-05
2062	7.2e-05
2074	8.64e-05
2086	5.76e-05
2098	4.32e-05
2110	4.32e-05
2122	4.32e-05
2134	4.32e-05
2146	4.32e-05
2158	5.76e-05
2170	4.32e-05
2182	7.2e-05
2194	7.2e-05
2206	7.2e-05
2218	5.76e-05
2230	8.64e-05
2242	0.000144
2254	0.0001584
2266	0.000144
2278	0.0001296
2290	0.0001296
2302	0.0001152
2314	0.0001296
2326	0.0001728
2338	0.000216
2350	0.0002016
2362	0.0001152
2374	0.0001584
2386	0.0002016
2398	0.000288
2410	0.0003024
2422	0.0002448
2434	0.000216
2446	0.0003024
2458	0.00036
2470	0.0004176
2482	0.00036
2494	0.0003024
2506	0.0002592
2518	0.0002304
2530	0.0002736
2542	0.0003456
2554	0.0003456
2566	0.0004608
2578	0.000576
2590	0.0006192
2602	0.0006192
2614	0.0006048
2626	0.0006192
2638	0.0006192
2650	0.0006624
2662	0.0007344
2674	0.0008496
2686	0.0009936
2698	0.0011232
2710	0.0013392
2722	0.0016272
2734	0.002016
2746	0.0022896
2758	0.0022752
2770	0.0023328
2782	0.0024336
2794	0.002664
2806	0.0031392
2818	0.004032
2830	0.0053856
2842	0.0079776
2854	0.0124992
2866	0.0170352
2878	0.025128
2890	0.0288
2902	0.022392
2914	0.0240912
2926	0.0265824
2938	0.0340416
2950	0.035424
2962	0.0417168
2974	0.0783072
2986	0.0333504
2998	0.0135072
3010	0.0067968
3022	0.0043056
3034	0.0032112
3046	0.0026928
3058	0.0023184
3070	0.0018288
3082	0.0016128
3094	0.0014832
3106	0.0013104
3118	0.0011664
3130	0.0010224
3142	0.0009072
3154	0.0008496
3166	0.0008352
3178	0.000792
3190	0.0007344
3202	0.0006912
3214	0.0005472
3226	0.000432
3238	0.00036
3250	0.0003024
3262	0.000216
3274	0.0002016
3286	0.0001152
3298	0.0001584
3310	0.0001152
3322	0.0001152
3334	0.0001152
3346	0.0001008
3358	0.0001728
3370	0.000144
3382	0.0001152
3394	0.0001008
3406	0.0001008
3418	4.32e-05
3430	0.0001152
3442	0.0001008
3454	8.64e-05
3466	7.2e-05
3478	0.0001008
3490	0.0001152
3502	2.88e-05
3514	8.64e-05
3526	7.2e-05
3538	8.64e-05
3550	7.2e-05
3562	4.32e-05
3574	5.76e-05
3586	2.88e-05
3598	5.76e-05
3610	0.0001872
3622	8.64e-05
3634	0.0001008
3646	7.2e-05
3658	0.0001008
3670	0.000144
3682	0.0001296
3694	0.0001152
3706	0.0001152
3718	0.0001296
3730	0.0001728
3742	0.0001584
3754	0.0002304
3766	0.000216
3778	0.0002016
3790	0.0002736
3802	0.0002736
3814	0.000288
3826	0.0002592
3838	0.000288
