Infrared Spectrum: 1-Bromo-3,7-dimethyloctane
Formula: C 10 H 21 Br
CAS: 3383-83-3
State: gas
Instrument: HP-GC/MS/IRD
Origin: NIST Mass Spectrometry Data Center
1/CM	ABSORBANCE
550	0.0006912
562	0.0007668
574	0.0010368
586	0.000432
598	4.68e-05
610	3.6e-05
622	0.0002268
634	0.0007596
646	0.0016452
658	0.0013608
670	0.000612
682	0.000288
694	8.64e-05
706	5.76e-05
718	0.0001116
730	0.00018
742	0.0002268
754	0.0003384
766	0.000324
778	0.0001224
790	9.36e-05
802	0.0001224
814	0.0001404
826	0.0002052
838	0.0002196
850	0.0003096
862	0.0004068
874	0.0005256
886	0.0004932
898	0.000306
910	0.0003024
922	0.0004104
934	0.0003996
946	0.0002772
958	0.00018
970	0.0001872
982	0.0001404
994	0.0001476
1006	0.0001872
1018	0.0002268
1030	0.0001944
1042	0.0001188
1054	0.0001872
1066	0.0001728
1078	0.000162
1090	8.64e-05
1102	0.0001476
1114	0.0002376
1126	0.0003096
1138	0.000504
1150	0.0008496
1162	0.0012852
1174	0.0013284
1186	0.0008352
1198	0.0010152
1210	0.0019656
1222	0.0026316
1234	0.0019908
1246	0.0021348
1258	0.0030384
1270	0.0031536
1282	0.0021852
1294	0.0016416
1306	0.0013644
1318	0.0013716
1330	0.001476
1342	0.001728
1354	0.0020448
1366	0.0026892
1378	0.003708
1390	0.0035928
1402	0.0012924
1414	0.0008928
1426	0.0012564
1438	0.0024876
1450	0.0037116
1462	0.0050292
1474	0.0040356
1486	0.001656
1498	0.000774
1510	0.0004464
1522	0.0002808
1534	0.0001692
1546	0.0001548
1558	0.0001188
1570	9.36e-05
1582	9.72e-05
1594	6.12e-05
1606	5.4e-05
1618	6.48e-05
1630	7.56e-05
1642	7.56e-05
1654	5.4e-05
1666	6.84e-05
1678	0.000108
1690	8.64e-05
1702	9.36e-05
1714	8.64e-05
1726	6.12e-05
1738	6.48e-05
1750	8.28e-05
1762	4.32e-05
1774	3.6e-05
1786	5.4e-05
1798	4.32e-05
1810	7.2e-05
1822	4.68e-05
1834	2.52e-05
1846	5.4e-05
1858	6.48e-05
1870	4.32e-05
1882	2.88e-05
1894	6.84e-05
1906	1.8e-05
1918	4.32e-05
1930	2.88e-05
1942	6.48e-05
1954	3.6e-05
1966	3.24e-05
1978	5.04e-05
1990	2.88e-05
2002	3.6e-05
2014	3.96e-05
2026	4.68e-05
2038	6.12e-05
2050	7.92e-05
2062	2.88e-05
2074	3.6e-05
2086	3.6e-05
2098	3.6e-05
2110	2.16e-05
2122	2.88e-05
2134	1.08e-05
2146	3.24e-05
2158	4.32e-05
2170	4.68e-05
2182	2.88e-05
2194	4.32e-05
2206	6.12e-05
2218	3.24e-05
2230	3.24e-05
2242	2.52e-05
2254	5.76e-05
2266	5.4e-05
2278	5.4e-05
2290	4.68e-05
2302	7.92e-05
2314	0.0001008
2326	8.64e-05
2338	5.76e-05
2350	7.92e-05
2362	7.2e-05
2374	9.36e-05
2386	8.64e-05
2398	8.64e-05
2410	9.36e-05
2422	0.0001224
2434	9.36e-05
2446	0.0001188
2458	0.0001044
2470	0.000108
2482	0.0001008
2494	0.000126
2506	0.0001224
2518	0.0001368
2530	0.0001548
2542	0.0001404
2554	0.0001692
2566	0.0002016
2578	0.000234
2590	0.0002556
2602	0.0002916
2614	0.0003384
2626	0.0003492
2638	0.0003708
2650	0.000378
2662	0.0004068
2674	0.0004032
2686	0.0004572
2698	0.0004932
2710	0.0005364
2722	0.0006228
2734	0.0007128
2746	0.0006984
2758	0.000666
2770	0.0007236
2782	0.0008388
2794	0.001044
2806	0.0012888
2818	0.001782
2830	0.0026568
2842	0.0045792
2854	0.0081468
2866	0.0107388
2878	0.0148356
2890	0.01476
2902	0.0164592
2914	0.0205632
2926	0.0256248
2938	0.0294696
2950	0.0247248
2962	0.0341532
2974	0.0260352
2986	0.00909
2998	0.0038844
3010	0.0029016
3022	0.0023832
3034	0.0013392
3046	0.0009828
3058	0.0008208
3070	0.0007704
3082	0.0006984
3094	0.00072
3106	0.0006336
3118	0.0005148
3130	0.0005004
3142	0.000486
3154	0.0004644
3166	0.000468
3178	0.00045
3190	0.000414
3202	0.0003168
3214	0.0002556
3226	0.0001944
3238	0.0001296
3250	0.0001224
3262	0.000108
3274	0.0001116
3286	0.000126
3298	0.0001152
3310	0.000126
3322	0.00018
3334	0.000162
3346	0.000144
3358	0.0001692
3370	9e-05
3382	0.0001188
3394	0.0001368
3406	0.0001044
3418	9.36e-05
3430	6.12e-05
3442	5.4e-05
3454	6.12e-05
3466	4.32e-05
3478	1.44e-05
3490	3.96e-05
3502	6.48e-05
3514	8.28e-05
3526	6.12e-05
3538	8.64e-05
3550	3.24e-05
3562	4.32e-05
3574	3.24e-05
3586	5.76e-05
3598	5.4e-05
3610	0.0001224
3622	0.0001008
3634	7.2e-05
3646	3.96e-05
3658	8.28e-05
3670	3.96e-05
3682	5.04e-05
3694	4.68e-05
3706	8.64e-05
3718	8.28e-05
3730	2.52e-05
3742	8.28e-05
3754	9.36e-05
3766	7.2e-05
3778	6.84e-05
3790	6.48e-05
3802	0.0001008
3814	0.0001044
3826	6.84e-05
3838	0.0001044
