Infrared Spectrum: ETHYL 4,6-DIMETHYL-2-PYRONE-5-CARBOXYLATE
Formula: C10 H12 O4
CAS: 3385-34-0
State: LIQUID
Class: COBLENTZ
Instrument: PERKIN-ELMER
Sampling: TRANSMISSION
Path length: CAPILLARY
Resolution: 4
Origin: ABBOTT LABORATORIES - WASHBURN
MICROMETERS	TRANSMITTANCE
2.036	0.853
2.07579	0.85
2.11557	0.85
2.15536	0.853
2.19514	0.856
2.23493	0.856
2.27472	0.853
2.3145	0.8449
2.35429	0.845
2.39407	0.8481
2.43386	0.851
2.47365	0.853
2.51343	0.851
2.55322	0.855
2.593	0.861
2.63279	0.8561
2.67258	0.858
2.71236	0.853
2.75215	0.843
2.79193	0.8399
2.83172	0.8361
2.8715	0.828
2.91129	0.825
2.95108	0.828
2.99086	0.835
3.03065	0.838
3.07043	0.8399
3.11022	0.838
3.15001	0.84
3.18979	0.841
3.22958	0.836
3.26936	0.8299
3.30915	0.8161
3.34894	0.7217
3.38872	0.7181
3.42851	0.7384
3.46829	0.7733
3.50808	0.7999
3.54787	0.8279
3.58765	0.843
3.62744	0.8481
3.66722	0.853
3.70701	0.855
3.7468	0.856
3.78658	0.856
3.82637	0.86
3.86615	0.86
3.90594	0.8609
3.94573	0.86
3.98551	0.855
4.0253	0.856
4.06508	0.858
4.10487	0.853
4.14465	0.848
4.18444	0.845
4.22423	0.8531
4.26401	0.86
4.3038	0.8548
4.34358	0.8458
4.38337	0.84
4.42316	0.846
4.46294	0.846
4.50273	0.845
4.54251	0.8501
4.5823	0.8549
4.62209	0.855
4.66187	0.856
4.70166	0.855
4.74144	0.858
4.78123	0.856
4.82102	0.858
4.8608	0.858
4.90059	0.858
4.94037	0.856
4.98016	0.856
5.01995	0.858
5.05973	0.855
5.09952	0.856
5.1393	0.85
5.17909	0.8491
5.21888	0.848
5.25866	0.846
5.29845	0.8446
5.33823	0.8411
5.37802	0.841
5.4178	0.843
5.45759	0.8334
5.49738	0.8188
5.53716	0.7923
5.57695	0.7306
5.61673	0.6342
5.65652	0.31
5.69631	0.1528
5.73609	0.11
5.77588	0.1159
5.81566	0.1158
5.85545	0.2067
5.89524	0.433
5.93502	0.6293
5.97481	0.6839
6.01459	0.7025
6.05438	0.674
6.09417	0.5927
6.13395	0.563
6.17374	0.6639
6.21352	0.7329
6.25331	0.765
6.2931	0.773
6.33288	0.7706
6.37267	0.7322
6.41245	0.5966
6.45224	0.4731
6.49203	0.5087
6.53181	0.6651
6.5716	0.7288
6.61138	0.7593
6.65117	0.775
6.69096	0.79
6.73074	0.7873
6.77053	0.7452
6.81031	0.7125
6.8501	0.676
6.88988	0.6525
6.92967	0.5688
6.96946	0.5738
7.00924	0.6318
7.04903	0.672
7.08881	0.6628
7.1286	0.5262
7.16839	0.3855
7.20817	0.4007
7.24796	0.4377
7.28774	0.4335
7.32753	0.5107
7.36732	0.6595
7.4071	0.7416
7.44689	0.7591
7.48667	0.7702
7.52646	0.775
7.56625	0.7628
7.60603	0.7086
7.64582	0.5363
7.6856	0.3501
7.72539	0.3629
7.76518	0.406
7.80496	0.4154
7.84475	0.4201
7.88453	0.3601
7.92432	0.3476
7.96411	0.3731
8.00389	0.4423
8.04368	0.6096
8.08346	0.6923
8.12325	0.7432
8.16303	0.7613
8.20282	0.77
8.24261	0.7548
8.28239	0.7359
8.32218	0.7435
8.36196	0.77
8.40175	0.7854
8.44154	0.791
8.48132	0.7853
8.52111	0.7605
8.56089	0.7041
8.60068	0.7002
8.64047	0.7101
8.68025	0.6997
8.72004	0.6314
8.75982	0.5976
8.79961	0.6298
8.8394	0.6868
8.87918	0.7155
8.91897	0.731
8.95875	0.7323
8.99854	0.7225
9.03833	0.7098
9.07811	0.683
9.1179	0.622
9.15768	0.5085
9.19747	0.3444
9.23726	0.2312
9.27704	0.1906
9.31683	0.2133
9.35661	0.3324
9.3964	0.4949
9.43618	0.6129
9.47597	0.6479
9.51576	0.6502
9.55554	0.6303
9.59533	0.6362
9.63511	0.6637
9.6749	0.678
9.71469	0.681
9.75447	0.6776
9.79426	0.6596
9.83404	0.6381
9.87383	0.63
9.91362	0.6369
9.9534	0.6618
9.99319	0.6974
10.033	0.7284
10.0728	0.7575
10.1125	0.7884
10.1523	0.8035
10.1921	0.8131
10.2319	0.8177
10.2717	0.818
10.3115	0.8104
10.3513	0.7913
10.391	0.7182
10.4308	0.6502
10.4706	0.6759
10.5104	0.7583
10.5502	0.7948
10.59	0.8175
10.6298	0.8308
10.6695	0.8373
10.7093	0.843
10.7491	0.847
10.7889	0.851
10.8287	0.855
10.8685	0.855
10.9083	0.855
10.9481	0.855
10.9878	0.853
11.0276	0.853
11.0674	0.853
11.1072	0.853
11.147	0.8497
11.1868	0.845
11.2266	0.84
11.2663	0.836
11.3061	0.828
11.3459	0.8102
11.3857	0.7921
11.4255	0.7565
11.4653	0.7109
11.5051	0.6663
11.5448	0.628
11.5846	0.5711
11.6244	0.5295
11.6642	0.501
11.704	0.4861
11.7438	0.4894
11.7836	0.5084
11.8233	0.5419
11.8631	0.5621
11.9029	0.5774
11.9427	0.5972
11.9825	0.6506
12.0223	0.7114
12.0621	0.7557
12.1018	0.7848
12.1416	0.8019
12.1814	0.8122
12.2212	0.8169
12.261	0.823
12.3008	0.826
12.3406	0.8258
12.3803	0.825
12.4201	0.825
12.4599	0.828
12.4997	0.8253
12.5395	0.8254
12.5793	0.823
12.6191	0.823
12.6588	0.8195
12.6986	0.8095
12.7384	0.7888
12.7782	0.7552
12.818	0.7038
12.8578	0.6445
12.8976	0.6187
12.9373	0.6383
12.9771	0.6915
13.0169	0.7311
13.0567	0.7669
13.0965	0.7882
13.1363	0.793
13.1761	0.8009
13.2158	0.8096
13.2556	0.811
13.2954	0.8104
13.3352	0.8119
13.375	0.811
13.4148	0.8093
13.4546	0.8097
13.4944	0.806
13.5341	0.803
13.5739	0.798
13.6137	0.795
13.6535	0.791
13.6933	0.791
13.7331	0.7922
13.7729	0.791
13.8126	0.793
13.8524	0.793
13.8922	0.79
13.932	0.785
13.9718	0.783
14.0116	0.78
14.0514	0.779
14.0911	0.7742
14.1309	0.7706
14.1707	0.77
14.2105	0.7651
14.2503	0.765
14.2901	0.761
14.3299	0.7552
14.3696	0.753
14.4094	0.7504
14.4492	0.748
14.489	0.7393
14.5288	0.7374
14.5686	0.7346
14.6084	0.723
14.6481	0.721
14.6879	0.7154
14.7277	0.7086
14.7675	0.7054
14.8073	0.6969
14.8471	0.69
14.8869	0.68
14.9266	0.6708
14.9664	0.66
15.0062	0.656
15.046	0.6413
15.0858	0.6352
15.1256	0.6303
15.1654	0.626
15.2051	0.6255
15.2449	0.623
15.2847	0.615
15.3245	0.61
15.3643	0.6059
15.4041	0.6001
