Infrared Spectrum: 2,5-Dichlorophenyl isothiocyanate
Formula: C 7 H 3 Cl 2 N S
CAS: 3386-42-3
State: gas
Origin: EPA-IR VAPOR PHASE LIBRARY
1/CM	ABSORBANCE
549.8	0.009791
559.445	0.012891
569.09	0.024191
578.734	0.037121
588.379	0.062281
598.024	0.034461
607.669	0.017541
617.313	0.014821
626.958	0.008521
636.603	0.005291
646.248	0.005701
655.893	0.006521
665.537	0.006871
675.182	0.010331
684.827	0.005751
694.472	0.001761
704.116	0.0014957
713.761	0.001478
723.406	0.002311
733.051	0.004741
742.695	0.006451
752.34	0.007311
761.985	0.017531
771.63	0.034111
781.275	0.040821
790.919	0.043731
800.564	0.037201
810.209	0.048201
819.854	0.016901
829.498	0.003761
839.143	0.002591
848.788	0.003151
858.433	0.012711
868.078	0.031461
877.722	0.016451
887.367	0.005331
897.012	0.005021
906.657	0.005241
916.301	0.004101
925.946	0.002721
935.591	0.002841
945.236	0.003751
954.88	0.006311
964.525	0.016331
974.17	0.027151
983.815	0.018811
993.46	0.008501
1003.1	0.004841
1012.75	0.003171
1022.39	0.002411
1032.04	0.002761
1041.68	0.003891
1051.33	0.009561
1060.97	0.021561
1070.62	0.016361
1080.26	0.018471
1089.91	0.077471
1099.55	0.069901
1109.2	0.016331
1118.84	0.013211
1128.49	0.016061
1138.13	0.015171
1147.78	0.006641
1157.42	0.002861
1167.07	0.002881
1176.71	0.002891
1186.36	0.0012063
1196	0.0009164
1205.64	0.0007361
1215.29	0.001711
1224.93	0.002981
1234.58	0.005311
1244.22	0.005531
1253.87	0.004241
1263.51	0.004261
1273.16	0.006201
1282.8	0.004731
1292.45	0.001801
1302.09	0.0014305
1311.74	0.0014927
1321.38	0.0012848
1331.03	0.001304
1340.67	0.001382
1350.32	0.002031
1359.96	0.003271
1369.61	0.007561
1379.25	0.014171
1388.9	0.020991
1398.54	0.023051
1408.18	0.010321
1417.83	0.006471
1427.47	0.014191
1437.12	0.027431
1446.76	0.021541
1456.41	0.028521
1466.05	0.094041
1475.7	0.113231
1485.34	0.029001
1494.99	0.009381
1504.63	0.009181
1514.28	0.009671
1523.92	0.006471
1533.57	0.005441
1543.21	0.008891
1552.86	0.021971
1562.5	0.048921
1572.15	0.092931
1581.79	0.115191
1591.44	0.037081
1601.08	0.011731
1610.73	0.008631
1620.37	0.006501
1630.01	0.003961
1639.66	0.002861
1649.3	0.002821
1658.95	0.002691
1668.59	0.002771
1678.24	0.002651
1687.88	0.002381
1697.53	0.002171
1707.17	0.002051
1716.82	0.002551
1726.46	0.003611
1736.11	0.005151
1745.75	0.005721
1755.4	0.004421
1765.04	0.003711
1774.69	0.003491
1784.33	0.003141
1793.98	0.003161
1803.62	0.003491
1813.27	0.003591
1822.91	0.003771
1832.55	0.004101
1842.2	0.004351
1851.84	0.004791
1861.49	0.006031
1871.13	0.008881
1880.78	0.011631
1890.42	0.011721
1900.07	0.013411
1909.71	0.018151
1919.36	0.025931
1929	0.039171
1938.65	0.056851
1948.29	0.073221
1957.94	0.086251
1967.58	0.104311
1977.23	0.137091
1986.87	0.184991
1996.52	0.244241
2006.16	0.312651
2015.81	0.392481
2025.45	0.500251
2035.1	0.598411
2044.74	0.599981
2054.38	0.471931
2064.03	0.337211
2073.67	0.298151
2083.32	0.299931
2092.96	0.277201
2102.61	0.238711
2112.25	0.210751
2121.9	0.185931
2131.54	0.152111
2141.19	0.102331
2150.83	0.060101
2160.48	0.039331
2170.12	0.031201
2179.77	0.025911
2189.41	0.021451
2199.06	0.019351
2208.7	0.018391
2218.35	0.015781
2227.99	0.013961
2237.64	0.013751
2247.28	0.013711
2256.92	0.011851
2266.57	0.007771
2276.21	0.005891
2285.86	0.005381
2295.5	0.005111
2305.15	0.004501
2314.79	0.003861
2324.44	0.003761
2334.08	0.003961
2343.73	0.003861
2353.37	0.003441
2363.02	0.003121
2372.66	0.003011
2382.31	0.002571
2391.95	0.002301
2401.6	0.002781
2411.24	0.003491
2420.89	0.003871
2430.53	0.004001
2440.18	0.004241
2449.82	0.004411
2459.47	0.004581
2469.11	0.004741
2478.75	0.005201
2488.4	0.005611
2498.04	0.005881
2507.69	0.006421
2517.33	0.006931
2526.98	0.006961
2536.62	0.006881
2546.27	0.007191
2555.91	0.007531
2565.56	0.007231
2575.2	0.006951
2584.85	0.007311
2594.49	0.007261
2604.14	0.005521
2613.78	0.003641
2623.43	0.002871
2633.07	0.002791
2642.72	0.002591
2652.36	0.002731
2662.01	0.002831
2671.65	0.002931
2681.29	0.002641
2690.94	0.002611
2700.58	0.003001
2710.23	0.003531
2719.87	0.003931
2729.52	0.003881
2739.16	0.003141
2748.81	0.002861
2758.45	0.002881
2768.1	0.003081
2777.74	0.003571
2787.39	0.004001
2797.03	0.004151
2806.68	0.004401
2816.32	0.004451
2825.97	0.004581
2835.61	0.003901
2845.26	0.003051
2854.9	0.002371
2864.55	0.001811
2874.19	0.001931
2883.84	0.001991
2893.48	0.001811
2903.12	0.001741
2912.77	0.001761
2922.41	0.001921
2932.06	0.001951
2941.7	0.001811
2951.35	0.0014672
2960.99	0.0014992
2970.64	0.001531
2980.28	0.001591
2989.93	0.001781
2999.57	0.001791
3009.22	0.002011
3018.86	0.001941
3028.51	0.001801
3038.15	0.001601
3047.8	0.001246
3057.44	0.001168
3067.09	0.001424
3076.73	0.001941
3086.38	0.001601
3096.02	0.001072
3105.67	0.0007975
3115.31	0.0004885
3124.95	0.000523495
3134.6	0.0004614
3144.24	0.0004454
3153.89	0.0004224
3163.53	0.000406
3173.18	0.000168
3182.82	0.000192
3192.47	0.000182
3202.11	0.000225
3211.76	0.000323
3221.4	0.00027
3231.05	0.000298
3240.69	0.000207
3250.34	0.000291
3259.98	0.000105
3269.63	0.000141
3279.27	0.000221
3288.92	0.000319
3298.56	0.000256
3308.21	0.000349
3317.85	0.000307
3327.49	0.000231
3337.14	0.000367
3346.78	0.000103
3356.43	0.000341
3366.07	0.000266
3375.72	0.000327
3385.36	0.000371
3395.01	0.000282
3404.65	0.0004305
3414.3	0.000289
3423.94	0.0004226
3433.59	0.000225
3443.23	0.0003
3452.88	0.000387
3462.52	0.000397
3472.17	0.000237
3481.81	0.000142
3491.46	0.0004676
3501.1	0.000381
3510.75	0.00055643
3520.39	0.000419
3530.04	0.000423
3539.68	0.00058821
3549.32	0.000402
3558.97	0.000397
3568.61	0.000274
3578.26	0.000353
3587.9	0.000365
3597.55	0.000332
3607.19	0.0004423
3616.84	0.0004899
3626.48	0.000357
3636.13	0.0005076
3645.77	0.00055275
3655.42	0.0006354
3665.06	0.000278
3674.71	0.00062011
3684.35	0.0007028
3694	0.0006575
3703.64	0.0006807
3713.29	0.000462
3722.93	0.0004494
3732.58	0.00057291
3742.22	0.00061665
3751.86	0.0007099
3761.51	0.0006422
3771.15	0.0007563
3780.8	0.0008651
3790.44	0.000706
3800.09	0.0008136
3809.73	0.0007876
3819.38	0.00060875
3829.02	0.0006964
3838.67	0.000838
3848.31	0.0008554
3857.96	0.0009596
3867.6	0.0009988
3877.25	0.0011047
3886.89	0.0012311
3896.54	0.0013237
3906.18	0.0012267
3915.83	0.0012477
3925.47	0.0014592
3935.12	0.0015096
3944.76	0.001711
3954.41	0.002041
3964.05	0.001831
3973.69	0.002051
3983.34	0.002041
3992.98	0.002311
