Infrared Spectrum: SABINENE
Formula: C10 H16
CAS: 3387-41-5
State: SOLUTION (20% CCl4 FOR 4000-1200, 20% CS2 FOR 1200-450 CM^-^1) VS SOLVENT
Class: COBLENTZ III
Instrument: CARY 90 (GRATING)
Instrument parameters: ORDER CHANGES: 3000, 2000, 1200 CM^-^1
Sampling: TRANSMISSION
Path length: 0.010 CM, AND 0.010 CM
Resolution: 2
Origin: WESTERN REGIONAL RES. USDA
1/CM	TRANSMITTANCE
3998	0.8915
3989	0.8918
3980	0.8921
3971	0.8924
3962	0.8928
3953	0.8931
3944	0.8935
3935	0.894
3926	0.8945
3917	0.8949
3908	0.8955
3899	0.896
3890	0.8966
3881	0.897
3872	0.8978
3863	0.8996
3854	0.9013
3845	0.903
3836	0.9047
3827	0.9063
3818	0.908
3809	0.9096
3800	0.9113
3791	0.9127
3782	0.9136
3773	0.9144
3764	0.9153
3755	0.9162
3746	0.9167
3737	0.9164
3728	0.9162
3719	0.916
3710	0.9158
3701	0.9157
3692	0.9163
3683	0.9168
3674	0.9173
3665	0.9165
3656	0.9156
3647	0.9146
3638	0.9136
3629	0.9116
3620	0.9097
3611	0.9078
3602	0.9061
3593	0.9081
3584	0.9105
3575	0.9128
3566	0.9149
3557	0.9163
3548	0.9175
3539	0.9173
3530	0.9171
3521	0.9167
3512	0.9147
3503	0.9125
3494	0.9104
3485	0.9092
3476	0.9082
3467	0.9067
3458	0.9052
3449	0.9037
3440	0.9042
3431	0.9049
3422	0.9057
3413	0.9063
3404	0.9071
3395	0.9078
3386	0.9086
3377	0.9097
3368	0.911
3359	0.9121
3350	0.913
3341	0.9136
3332	0.9143
3323	0.9149
3314	0.9156
3305	0.9146
3296	0.9124
3287	0.9101
3278	0.9083
3269	0.9065
3260	0.9047
3251	0.9028
3242	0.9005
3233	0.8975
3224	0.8937
3215	0.8899
3206	0.8875
3197	0.8864
3188	0.8871
3179	0.8882
3170	0.8878
3161	0.8871
3152	0.8865
3143	0.8862
3134	0.8852
3125	0.8805
3116	0.8707
3107	0.8507
3098	0.8039
3089	0.7491
3080	0.4818
3071	0.4482
3062	0.4869
3053	0.6525
3044	0.6901
3035	0.6299
3026	0.6451
3017	0.6785
3008	0.5519
2999	0.3952
2990	0.2942
2981	0.2941
2972	0.1684
2963	0.032
2954	0.0082
2945	0.0606
2936	0.0525
2927	0.0589
2918	0.1743
2909	0.2719
2900	0.2519
2891	0.2631
2882	0.2452
2873	0.083
2864	0.2122
2855	0.4162
2846	0.5684
2837	0.685
2828	0.7638
2819	0.7934
2810	0.8045
2801	0.8264
2792	0.8568
2783	0.8654
2774	0.866
2765	0.8628
2756	0.8596
2747	0.863
2738	0.8617
2729	0.8541
2720	0.85
2711	0.8533
2702	0.8593
2693	0.8631
2684	0.8668
2675	0.8703
2666	0.8737
2657	0.8768
2648	0.8795
2639	0.8806
2630	0.8781
2621	0.8713
2612	0.8636
2603	0.853
2594	0.8602
2585	0.8689
2576	0.8748
2567	0.88
2558	0.8831
2549	0.8854
2540	0.8868
2531	0.8864
2522	0.886
2513	0.8855
2504	0.8851
2495	0.8846
2486	0.8837
2477	0.8828
2468	0.8818
2459	0.881
2450	0.8802
2441	0.8798
2432	0.8795
2423	0.8791
2414	0.8788
2405	0.8783
2396	0.8784
2387	0.8786
2378	0.8789
2369	0.8791
2360	0.8793
2351	0.8793
2342	0.8793
2333	0.8793
2324	0.8793
2315	0.8792
2306	0.8791
2297	0.8791
2288	0.8789
2279	0.8783
2270	0.8778
2261	0.8766
2252	0.8752
2243	0.8735
2234	0.8728
2225	0.873
2216	0.8761
2207	0.8807
2198	0.8775
2189	0.8765
2180	0.8764
2171	0.8764
2162	0.8771
2153	0.8794
2144	0.8817
2135	0.8815
2126	0.8808
2117	0.88
2108	0.8789
2099	0.8773
2090	0.8751
2081	0.8728
2072	0.8625
2063	0.8461
2054	0.8421
2045	0.8464
2036	0.8563
2027	0.8618
2018	0.8621
2009	0.8621
2000	0.8624
1991	0.8627
1982	0.8614
1973	0.8598
1964	0.8597
1955	0.86
1946	0.8607
1937	0.8614
1928	0.8598
1919	0.8605
1910	0.8607
1901	0.8598
1892	0.8595
1883	0.8633
1874	0.8682
1865	0.8664
1856	0.8677
1847	0.8664
1838	0.865
1829	0.8637
1820	0.863
1811	0.8623
1802	0.8613
1793	0.8603
1784	0.857
1775	0.8496
1766	0.8386
1757	0.8191
1748	0.795
1739	0.8018
1730	0.8275
1721	0.8414
1712	0.8447
1703	0.8387
1694	0.8175
1685	0.7384
1676	0.6532
1667	0.4992
1658	0.1881
1649	0.2545
1640	0.5579
1631	0.6915
1622	0.7772
1613	0.8247
1604	0.8467
1595	0.8534
1586	0.8545
1577	0.8592
1568	0.8621
1559	0.8618
1550	0.8509
1541	0.8514
1532	0.8525
1523	0.8539
1514	0.8539
1505	0.8484
1496	0.8283
1487	0.7869
1478	0.6535
1469	0.2334
1460	0.3546
1451	0.5031
1442	0.4339
1433	0.6446
1424	0.776
1415	0.7656
1406	0.8203
1397	0.8118
1388	0.7115
1379	0.515
1370	0.6005
1361	0.501
1352	0.8167
1343	0.8178
1334	0.6312
1325	0.8224
1316	0.7725
1307	0.7986
1298	0.7506
1289	0.8383
1280	0.7378
1271	0.6297
1262	0.7561
1253	0.858
1244	0.715
1235	0.7993
1226	0.8638
1217	0.8635
1208	0.8175
1199	0.5617
1190	0.7872
1181	0.9261
1172	0.9349
1163	0.8158
1154	0.8403
1145	0.6787
1136	0.7786
1127	0.9055
1118	0.8746
1109	0.7695
1100	0.8783
1091	0.7508
1082	0.8745
1073	0.9051
1064	0.551
1055	0.9057
1046	0.8998
1037	0.8186
1028	0.502
1019	0.6965
1010	0.9159
1001	0.9175
992	0.7738
983	0.7469
974	0.7925
965	0.7751
956	0.7142
947	0.8471
938	0.8602
929	0.555
920	0.6373
911	0.729
902	0.8677
893	0.8698
884	0.5701
875	0.2333
866	0.0017
857	0.1933
848	0.6574
839	0.9028
830	0.9289
821	0.9254
812	0.8427
803	0.6411
794	0.8615
785	0.6731
776	0.8918
767	0.9516
758	0.9668
749	0.9657
740	0.9478
731	0.7138
722	0.949
713	0.967
704	0.9731
695	0.9814
686	0.982
677	0.9768
668	0.9707
659	0.9555
650	0.932
641	0.8802
632	0.7233
623	0.861
614	0.9418
605	0.9549
596	0.9582
587	0.8832
578	0.9483
569	0.8702
560	0.8303
551	0.9218
542	0.9224
533	0.9059
524	0.8795
515	0.8195
506	0.6775
497	0.8238
488	0.7635
479	0.8151
470	0.8007
