Infrared Spectrum: 9-(S)-Methyl-.delta.-5(10)-octalin-1,6-dione
Formula: C 11 H 14 O 2
CAS: 33878-99-8
State: gas
Origin: EPA-IR VAPOR PHASE LIBRARY
1/CM	ABSORBANCE
549.8	0.014959
559.445	0.015759
569.09	0.007439
578.734	0.003939
588.379	0.003899
598.024	0.006679
607.669	0.010769
617.313	0.010399
626.958	0.006269
636.603	0.005219
646.248	0.002859
655.893	0.002529
665.537	0.002609
675.182	0.002189
684.827	0.001929
694.472	0.001709
704.116	0.001939
713.761	0.002439
723.406	0.002229
733.051	0.001689
742.695	0.002749
752.34	0.005509
761.985	0.008049
771.63	0.007439
781.275	0.003269
790.919	0.002079
800.564	0.002859
810.209	0.005169
819.854	0.008579
829.498	0.010289
839.143	0.010809
848.788	0.014549
858.433	0.015229
868.078	0.014289
877.722	0.018359
887.367	0.014769
897.012	0.008319
906.657	0.006389
916.301	0.008099
925.946	0.015499
935.591	0.023819
945.236	0.021229
954.88	0.012679
964.525	0.007949
974.17	0.005129
983.815	0.005429
993.46	0.008219
1003.1	0.015579
1012.75	0.025279
1022.39	0.025919
1032.04	0.017699
1041.68	0.009129
1051.33	0.006809
1060.97	0.012589
1070.62	0.020509
1080.26	0.019249
1089.91	0.011149
1099.55	0.009369
1109.2	0.009609
1118.84	0.014559
1128.49	0.016509
1138.13	0.024239
1147.78	0.036129
1157.42	0.036259
1167.07	0.028199
1176.71	0.033319
1186.36	0.028459
1196	0.018629
1205.64	0.018919
1215.29	0.033539
1224.93	0.062949
1234.58	0.075659
1244.22	0.051419
1253.87	0.036109
1263.51	0.035349
1273.16	0.021849
1282.8	0.010939
1292.45	0.009939
1302.09	0.016699
1311.74	0.032479
1321.38	0.042489
1331.03	0.043649
1340.67	0.044029
1350.32	0.028539
1359.96	0.015279
1369.61	0.017559
1379.25	0.019169
1388.9	0.011229
1398.54	0.008189
1408.18	0.011609
1417.83	0.025369
1427.47	0.040329
1437.12	0.035739
1446.76	0.035859
1456.41	0.036179
1466.05	0.029339
1475.7	0.017399
1485.34	0.008609
1494.99	0.005169
1504.63	0.004099
1514.28	0.003709
1523.92	0.003699
1533.57	0.004299
1543.21	0.003659
1552.86	0.003349
1562.5	0.003359
1572.15	0.004109
1581.79	0.005969
1591.44	0.008699
1601.08	0.013279
1610.73	0.024579
1620.37	0.049299
1630.01	0.049449
1639.66	0.025719
1649.3	0.025659
1658.95	0.033599
1668.59	0.046069
1678.24	0.075479
1687.88	0.181169
1697.53	0.351729
1707.17	0.338659
1716.82	0.235509
1726.46	0.245289
1736.11	0.182619
1745.75	0.075969
1755.4	0.035929
1765.04	0.022699
1774.69	0.016129
1784.33	0.011669
1793.98	0.008439
1803.62	0.006129
1813.27	0.004779
1822.91	0.003819
1832.55	0.003559
1842.2	0.003299
1851.84	0.003099
1861.49	0.002969
1871.13	0.002679
1880.78	0.002529
1890.42	0.002219
1900.07	0.002169
1909.71	0.001879
1919.36	0.001719
1929	0.001559
1938.65	0.001569
1948.29	0.001299
1957.94	0.001519
1967.58	0.001509
1977.23	0.001519
1986.87	0.001259
1996.52	0.0011497
2006.16	0.0009967
2015.81	0.001098
2025.45	0.00107
2035.1	0.0011173
2044.74	0.0011392
2054.38	0.000955
2064.03	0.001229
2073.67	0.001469
2083.32	0.001449
2092.96	0.001399
2102.61	0.001339
2112.25	0.0011836
2121.9	0.001279
2131.54	0.001259
2141.19	0.001409
2150.83	0.001419
2160.48	0.001419
2170.12	0.001509
2179.77	0.001699
2189.41	0.001639
2199.06	0.0012054
2208.7	0.001329
2218.35	0.001469
2227.99	0.001329
2237.64	0.001319
2247.28	0.001309
2256.92	0.001279
2266.57	0.001349
2276.21	0.001359
2285.86	0.001299
2295.5	0.0011666
2305.15	0.001239
2314.79	0.001419
2324.44	0.0012014
2334.08	0.001206
2343.73	0.001479
2353.37	0.001409
2363.02	0.0011572
2372.66	0.0012002
2382.31	0.0011869
2391.95	0.001259
2401.6	0.0009296
2411.24	0.0009783
2420.89	0.0011111
2430.53	0.0009565
2440.18	0.001349
2449.82	0.001259
2459.47	0.001299
2469.11	0.0010534
2478.75	0.0010056
2488.4	0.0007222
2498.04	0.0010898
2507.69	0.0008611
2517.33	0.000959
2526.98	0.0008737
2536.62	0.0008389
2546.27	0.000867
2555.91	0.001459
2565.56	0.0011338
2575.2	0.0010321
2584.85	0.001174
2594.49	0.000844
2604.14	0.0011591
2613.78	0.0012041
2623.43	0.0010828
2633.07	0.001239
2642.72	0.001179
2652.36	0.001519
2662.01	0.001789
2671.65	0.001649
2681.29	0.001122
2690.94	0.001419
2700.58	0.001219
2710.23	0.0011118
2719.87	0.0011864
2729.52	0.0011427
2739.16	0.001509
2748.81	0.001739
2758.45	0.001739
2768.1	0.002029
2777.74	0.002429
2787.39	0.002729
2797.03	0.003349
2806.68	0.003309
2816.32	0.004189
2825.97	0.006139
2835.61	0.009059
2845.26	0.012599
2854.9	0.015949
2864.55	0.021079
2874.19	0.033639
2883.84	0.041879
2893.48	0.037919
2903.12	0.036869
2912.77	0.041359
2922.41	0.046299
2932.06	0.057269
2941.7	0.080769
2951.35	0.120329
2960.99	0.142289
2970.64	0.118729
2980.28	0.081159
2989.93	0.045369
2999.57	0.021299
3009.22	0.011209
3018.86	0.009839
3028.51	0.012549
3038.15	0.013209
3047.8	0.009179
3057.44	0.004639
3067.09	0.002979
3076.73	0.002619
3086.38	0.002009
3096.02	0.001869
3105.67	0.002149
3115.31	0.001143
3124.95	0.001599
3134.6	0.0010736
3144.24	0.001489
3153.89	0.001389
3163.53	0.0011476
3173.18	0.0011667
3182.82	0.0011095
3192.47	0.0011737
3202.11	0.0009617
3211.76	0.00025596
3221.4	0.0006901
3231.05	0.0008725
3240.69	0.0009493
3250.34	0.0005386
3259.98	0.0008572
3269.63	0.0007932
3279.27	0.0005757
3288.92	0.0006138
3298.56	0.0007924
3308.21	0.001299
3317.85	0.001239
3327.49	0.001549
3337.14	0.001759
3346.78	0.001819
3356.43	0.002889
3366.07	0.003839
3375.72	0.004959
3385.36	0.005579
3395.01	0.004049
3404.65	0.003089
3414.3	0.003159
3423.94	0.003609
3433.59	0.004969
3443.23	0.003929
3452.88	0.002929
3462.52	0.002209
3472.17	0.001309
3481.81	0.001219
3491.46	0.0009674
3501.1	0.000787
3510.75	0.0005055
3520.39	0.0004904
3530.04	0.00024236
3539.68	0.0007858
3549.32	0.0003284
3558.97	0.0005886
3568.61	0.0005539
3578.26	0.00025121
3587.9	0.0008941
3597.55	0.0003831
3607.19	0.00019951
3616.84	0.0008231
3626.48	0.000374
3636.13	0.0004867
3645.77	0.0004659
3655.42	0.0003794
3665.06	0.0004764
3674.71	0.0007817
3684.35	0.0005628
3694	0.0004037
3703.64	0.0002918
3713.29	0.0006726
3722.93	0.0005944
3732.58	0.0004331
3742.22	0.0001353
3751.86	0.0004073
3761.51	0.000826
3771.15	0.0007445
3780.8	0.0001651
3790.44	0.0008974
3800.09	8e-06
3809.73	0.0004681
3819.38	0.0006101
3829.02	0.0006425
3838.67	0.00030439
3848.31	0.0006533
3857.96	0.0005164
3867.6	0.0007414
3877.25	0.0007791
3886.89	0.0009977
3896.54	0.0009315
3906.18	0.0006036
3915.83	0.0005545
3925.47	0.0004235
3935.12	0.0009728
3944.76	0.0008292
3954.41	0.0006948
3964.05	0.0010493
3973.69	0.0008609
3983.34	0.0011149
3992.98	0.0008044
