Infrared Spectrum: 2-(2-Bromoethyl)-1,3-dioxane
Formula: C 6 H 11 Br O 2
CAS: 33884-43-4
State: gas
Origin: EPA-IR VAPOR PHASE LIBRARY
1/CM	ABSORBANCE
549.8	0.003114
559.445	0.004644
569.09	0.004534
578.734	0.008614
588.379	0.006334
598.024	0.002624
607.669	0.002684
617.313	0.003624
626.958	0.007254
636.603	0.005144
646.248	0.003074
655.893	0.003554
665.537	0.004344
675.182	0.003664
684.827	0.002704
694.472	0.002364
704.116	0.002484
713.761	0.003174
723.406	0.002834
733.051	0.002914
742.695	0.002014
752.34	0.001894
761.985	0.002374
771.63	0.003644
781.275	0.004264
790.919	0.002734
800.564	0.002304
810.209	0.002494
819.854	0.003914
829.498	0.003614
839.143	0.006134
848.788	0.008944
858.433	0.009354
868.078	0.010034
877.722	0.014414
887.367	0.014604
897.012	0.009674
906.657	0.008914
916.301	0.013354
925.946	0.014024
935.591	0.009384
945.236	0.009664
954.88	0.010084
964.525	0.009594
974.17	0.012834
983.815	0.015974
993.46	0.018784
1003.1	0.029644
1012.75	0.041714
1022.39	0.042554
1032.04	0.033164
1041.68	0.018874
1051.33	0.014264
1060.97	0.012314
1070.62	0.015364
1080.26	0.021114
1089.91	0.021574
1099.55	0.021834
1109.2	0.021494
1118.84	0.042414
1128.49	0.081334
1138.13	0.119294
1147.78	0.147404
1157.42	0.094254
1167.07	0.033024
1176.71	0.016064
1186.36	0.013284
1196	0.011594
1205.64	0.014584
1215.29	0.016594
1224.93	0.021114
1234.58	0.024794
1244.22	0.023884
1253.87	0.018504
1263.51	0.023164
1273.16	0.019844
1282.8	0.013644
1292.45	0.007884
1302.09	0.005244
1311.74	0.005554
1321.38	0.005984
1331.03	0.005214
1340.67	0.005654
1350.32	0.006124
1359.96	0.008344
1369.61	0.019564
1379.25	0.036934
1388.9	0.026974
1398.54	0.022864
1408.18	0.018764
1417.83	0.013084
1427.47	0.014124
1437.12	0.016614
1446.76	0.011754
1456.41	0.008024
1466.05	0.009134
1475.7	0.008874
1485.34	0.005754
1494.99	0.003154
1504.63	0.002284
1514.28	0.002254
1523.92	0.001744
1533.57	0.0013913
1543.21	0.0014564
1552.86	0.001684
1562.5	0.0013447
1572.15	0.0008169
1581.79	0.0015507
1591.44	0.0014677
1601.08	0.0013281
1610.73	0.0011717
1620.37	0.0010686
1630.01	0.0014398
1639.66	0.0010889
1649.3	0.0010939
1658.95	0.0012429
1668.59	0.0013286
1678.24	0.0012365
1687.88	0.0012063
1697.53	0.0009109
1707.17	0.0013099
1716.82	0.0012827
1726.46	0.001184
1736.11	0.0012198
1745.75	0.0012041
1755.4	0.0013682
1765.04	0.0014751
1774.69	0.0013716
1784.33	0.0013183
1793.98	0.0016668
1803.62	0.0016286
1813.27	0.001734
1822.91	0.00152
1832.55	0.0015346
1842.2	0.0015717
1851.84	0.0016323
1861.49	0.001824
1871.13	0.0016485
1880.78	0.0016609
1890.42	0.001646
1900.07	0.001854
1909.71	0.001954
1919.36	0.001944
1929	0.001794
1938.65	0.001994
1948.29	0.001784
1957.94	0.0016714
1967.58	0.001814
1977.23	0.001672
1986.87	0.001694
1996.52	0.001934
2006.16	0.001994
2015.81	0.001944
2025.45	0.0015795
2035.1	0.0016
2044.74	0.0011872
2054.38	0.0014444
2064.03	0.0016098
2073.67	0.0016274
2083.32	0.001421
2092.96	0.0014084
2102.61	0.0015236
2112.25	0.0012298
2121.9	0.0013056
2131.54	0.0014073
2141.19	0.0013735
2150.83	0.0012958
2160.48	0.0011394
2170.12	0.0013787
2179.77	0.0016569
2189.41	0.0014083
2199.06	0.0013146
2208.7	0.0013571
2218.35	0.0009913
2227.99	0.001211
2237.64	0.0012104
2247.28	0.0013259
2256.92	0.0008554
2266.57	0.0012863
2276.21	0.0011868
2285.86	0.0011485
2295.5	0.0012895
2305.15	0.0011297
2314.79	0.0009953
2324.44	0.0012337
2334.08	0.0011774
2343.73	0.0012294
2353.37	0.0010234
2363.02	0.0009661
2372.66	0.0012063
2382.31	0.0010517
2391.95	0.0010555
2401.6	0.0011872
2411.24	0.0011585
2420.89	0.0010143
2430.53	0.0009712
2440.18	0.0013625
2449.82	0.0008456
2459.47	0.0009927
2469.11	0.0007926
2478.75	0.0009453
2488.4	0.0007927
2498.04	0.000994
2507.69	0.0010986
2517.33	0.000643
2526.98	0.0011039
2536.62	0.0008526
2546.27	0.0011437
2555.91	0.0011912
2565.56	0.0015014
2575.2	0.0015062
2584.85	0.0016065
2594.49	0.0011134
2604.14	0.0011197
2613.78	0.0013996
2623.43	0.0016273
2633.07	0.002094
2642.72	0.002954
2652.36	0.003784
2662.01	0.004124
2671.65	0.003784
2681.29	0.003444
2690.94	0.003134
2700.58	0.004174
2710.23	0.004484
2719.87	0.005874
2729.52	0.006464
2739.16	0.006534
2748.81	0.005694
2758.45	0.005174
2768.1	0.004884
2777.74	0.004454
2787.39	0.004694
2797.03	0.005324
2806.68	0.006714
2816.32	0.007714
2825.97	0.011794
2835.61	0.021364
2845.26	0.042494
2854.9	0.067384
2864.55	0.050474
2874.19	0.025704
2883.84	0.013034
2893.48	0.008604
2903.12	0.007844
2912.77	0.010294
2922.41	0.016824
2932.06	0.028594
2941.7	0.023324
2951.35	0.024424
2960.99	0.039234
2970.64	0.045014
2980.28	0.060874
2989.93	0.042394
2999.57	0.014074
3009.22	0.005354
3018.86	0.003664
3028.51	0.002474
3038.15	0.002564
3047.8	0.001814
3057.44	0.0010332
3067.09	0.00072281
3076.73	0.0011258
3086.38	0.0008253
3096.02	0.0008404
3105.67	0.0009993
3115.31	0.0008637
3124.95	0.0010045
3134.6	0.00075572
3144.24	0.0008144
3153.89	0.00075577
3163.53	0.0006119
3173.18	0.0012304
3182.82	0.000471
3192.47	0.000648
3202.11	0.0008511
3211.76	0.0008971
3221.4	0.0013396
3231.05	0.000287
3240.69	0.0014069
3250.34	0.0011952
3259.98	0.000517
3269.63	0.00073125
3279.27	0.000473
3288.92	0.00075828
3298.56	0.0010057
3308.21	0.0011194
3317.85	0.000563
3327.49	0.00072551
3337.14	0.0010688
3346.78	0.000376
3356.43	0.0005
3366.07	0.000415
3375.72	0.0008187
3385.36	0.000486
3395.01	0.000413
3404.65	0.00074473
3414.3	0.0009118
3423.94	0.000225
3433.59	0.000677784
3443.23	0.0005754
3452.88	0.0007936
3462.52	0.0006299
3472.17	0.0006579
3481.81	0.000512
3491.46	0.0009211
3501.1	0.0012205
3510.75	0.00072135
3520.39	0.0011423
3530.04	0.0013786
3539.68	0.0007142
3549.32	0.000402
3558.97	0.0006529
3568.61	0.00037
3578.26	0.00069059
3587.9	0.000465
3597.55	0.000527
3607.19	0.0010305
3616.84	0.000436
3626.48	0.0006562
3636.13	0.0009301
3645.77	0.00069116
3655.42	0.0008099
3665.06	0.0006467
3674.71	0.00071347
3684.35	0.0007803
3694	0.00071986
3703.64	0.0009263
3713.29	0.0009883
3722.93	0.0006581
3732.58	0.00072497
3742.22	0.0008198
3751.86	0.0008422
3761.51	0.0009237
3771.15	0.0007541
3780.8	0.000198
3790.44	0.000524
3800.09	0.0008184
3809.73	0.0011088
3819.38	0.000532
3829.02	0.000526
3838.67	0.000104
3848.31	0.000312
3857.96	0.00062
3867.6	0.000407
3877.25	0.0013032
3886.89	0.0009828
3896.54	0.000973
3906.18	0.0010493
3915.83	0.0012949
3925.47	0.000296
3935.12	0.0010612
3944.76	0.0010835
3954.41	0.0011803
3964.05	0.0008783
3973.69	0.00075206
3983.34	0.0008584
3992.98	0.0006221
