Infrared Spectrum: 2-Thenoylacetonitrile
Formula: C 7 H 5 N O S
CAS: 33898-90-7
State: gas
Origin: EPA-IR VAPOR PHASE LIBRARY
1/CM	ABSORBANCE
549.8	0.003843
559.445	0.005583
569.09	0.006613
578.734	0.006073
588.379	0.004993
598.024	0.002963
607.669	0.002263
617.313	0.0016894
626.958	0.002053
636.603	0.002503
646.248	0.002313
655.893	0.003253
665.537	0.002863
675.182	0.003113
684.827	0.004303
694.472	0.005763
704.116	0.012153
713.761	0.023233
723.406	0.022173
733.051	0.012303
742.695	0.005023
752.34	0.005523
761.985	0.007083
771.63	0.004913
781.275	0.002653
790.919	0.002433
800.564	0.001813
810.209	0.0015317
819.854	0.002303
829.498	0.003133
839.143	0.004823
848.788	0.007123
858.433	0.007703
868.078	0.005423
877.722	0.003063
887.367	0.002613
897.012	0.003543
906.657	0.003143
916.301	0.004063
925.946	0.003293
935.591	0.002133
945.236	0.002033
954.88	0.002433
964.525	0.003353
974.17	0.004463
983.815	0.004543
993.46	0.002593
1003.1	0.002403
1012.75	0.002203
1022.39	0.002013
1032.04	0.002943
1041.68	0.004993
1051.33	0.005963
1060.97	0.007583
1070.62	0.006373
1080.26	0.003813
1089.91	0.004153
1099.55	0.0010085
1109.2	0.004093
1118.84	0.002953
1128.49	0.002683
1138.13	0.0015825
1147.78	0.004213
1157.42	0.006693
1167.07	0.007483
1176.71	0.007303
1186.36	0.007673
1196	0.007173
1205.64	0.008363
1215.29	0.011663
1224.93	0.011583
1234.58	0.012793
1244.22	0.018303
1253.87	0.022093
1263.51	0.026183
1273.16	0.021203
1282.8	0.012323
1292.45	0.007163
1302.09	0.005933
1311.74	0.006063
1321.38	0.005903
1331.03	0.004353
1340.67	0.005283
1350.32	0.012513
1359.96	0.014093
1369.61	0.006533
1379.25	0.003933
1388.9	0.005353
1398.54	0.011333
1408.18	0.027163
1417.83	0.029593
1427.47	0.012913
1437.12	0.005703
1446.76	0.003143
1456.41	0.002243
1466.05	0.0015018
1475.7	0.0017453
1485.34	0.002203
1494.99	0.003523
1504.63	0.007913
1514.28	0.011123
1523.92	0.007833
1533.57	0.003473
1543.21	0.002773
1552.86	0.002763
1562.5	0.002933
1572.15	0.002033
1581.79	0.001873
1591.44	0.0015635
1601.08	0.001883
1610.73	0.002743
1620.37	0.003203
1630.01	0.003203
1639.66	0.003223
1649.3	0.004093
1658.95	0.006183
1668.59	0.009523
1678.24	0.018983
1687.88	0.038093
1697.53	0.050373
1707.17	0.042303
1716.82	0.021393
1726.46	0.009213
1736.11	0.005353
1745.75	0.004163
1755.4	0.003293
1765.04	0.002603
1774.69	0.002243
1784.33	0.0017448
1793.98	0.001973
1803.62	0.002173
1813.27	0.002273
1822.91	0.002123
1832.55	0.002053
1842.2	0.001913
1851.84	0.001853
1861.49	0.0015661
1871.13	0.0014874
1880.78	0.0014394
1890.42	0.0014628
1900.07	0.0013049
1909.71	0.0010046
1919.36	0.001297
1929	0.000958
1938.65	0.0011246
1948.29	0.0012163
1957.94	0.0011991
1967.58	0.0013904
1977.23	0.0013663
1986.87	0.0011776
1996.52	0.0012752
2006.16	0.0011195
2015.81	0.0011149
2025.45	0.0011835
2035.1	0.0010537
2044.74	0.0010313
2054.38	0.0012472
2064.03	0.0010681
2073.67	0.0011365
2083.32	0.0012001
2092.96	0.0008969
2102.61	0.0014531
2112.25	0.0011527
2121.9	0.0010169
2131.54	0.0012023
2141.19	0.0012088
2150.83	0.0011583
2160.48	0.0011228
2170.12	0.0011253
2179.77	0.0012636
2189.41	0.0011815
2199.06	0.0010947
2208.7	0.001093
2218.35	0.0011494
2227.99	0.0011968
2237.64	0.0012968
2247.28	0.0012826
2256.92	0.001813
2266.57	0.001427
2276.21	0.0012861
2285.86	0.001108
2295.5	0.0011554
2305.15	0.0011615
2314.79	0.0010114
2324.44	0.0012479
2334.08	0.0012023
2343.73	0.0011758
2353.37	0.0011152
2363.02	0.0011472
2372.66	0.0009166
2382.31	0.0010713
2391.95	0.0012092
2401.6	0.0009241
2411.24	0.001038
2420.89	0.0011048
2430.53	0.0012803
2440.18	0.0012351
2449.82	0.00075862
2459.47	0.0013334
2469.11	0.0013362
2478.75	0.0011562
2488.4	0.0011173
2498.04	0.0011967
2507.69	0.0008685
2517.33	0.0011357
2526.98	0.0013638
2536.62	0.0009804
2546.27	0.0008746
2555.91	0.0009744
2565.56	0.0009647
2575.2	0.0011229
2584.85	0.0010971
2594.49	0.0011012
2604.14	0.0010461
2613.78	0.00079003
2623.43	0.0012375
2633.07	0.00119
2642.72	0.0012389
2652.36	0.001075
2662.01	0.0012847
2671.65	0.001593
2681.29	0.0011674
2690.94	0.0012403
2700.58	0.0013406
2710.23	0.0010929
2719.87	0.0012313
2729.52	0.0013661
2739.16	0.0008975
2748.81	0.0009247
2758.45	0.0012309
2768.1	0.0011782
2777.74	0.0009894
2787.39	0.0013275
2797.03	0.0010574
2806.68	0.0011025
2816.32	0.0010794
2825.97	0.0013063
2835.61	0.0012102
2845.26	0.000433
2854.9	0.0010609
2864.55	0.0012867
2874.19	0.0009034
2883.84	0.0010989
2893.48	0.0010147
2903.12	0.0013163
2912.77	0.0008879
2922.41	0.0009025
2932.06	0.0015844
2941.7	0.0012372
2951.35	0.0013247
2960.99	0.0011216
2970.64	0.0011331
2980.28	0.0010743
2989.93	0.0010358
2999.57	0.0014262
3009.22	0.0009774
3018.86	0.0007382
3028.51	0.0012793
3038.15	0.0014733
3047.8	0.00077816
3057.44	0.0012128
3067.09	0.0012125
3076.73	0.001863
3086.38	0.001913
3096.02	0.002453
3105.67	0.001803
3115.31	0.0013298
3124.95	0.0011324
3134.6	0.0016103
3144.24	0.0013714
3153.89	0.0010732
3163.53	0.00080528
3173.18	0.0006673
3182.82	0.000127
3192.47	0.0009381
3202.11	0.0009921
3211.76	0.0015115
3221.4	0.0009195
3231.05	0.0008991
3240.69	0.0012148
3250.34	0.0015611
3259.98	0.0008031
3269.63	0.0012706
3279.27	0.0011841
3288.92	0.0013621
3298.56	0.000563
3308.21	0.0009587
3317.85	0.0013201
3327.49	0.00080417
3337.14	0.0010768
3346.78	0.00121
3356.43	0.0008793
3366.07	0.001763
3375.72	0.0016812
3385.36	0.0015947
3395.01	0.0012235
3404.65	0.0014203
3414.3	0.0009291
3423.94	0.0011862
3433.59	0.0009338
3443.23	0.000559
3452.88	0.00085997
3462.52	0.0012222
3472.17	0.0006918
3481.81	0.000772764
3491.46	0.0013746
3501.1	0.00085026
3510.75	0.001793
3520.39	0.0011098
3530.04	0.0010074
3539.68	0.0010442
3549.32	0.0015375
3558.97	0.0010606
3568.61	0.0007159
3578.26	0.0008816
3587.9	0.001532
3597.55	0.00085192
3607.19	0.00075364
3616.84	0.0015628
3626.48	0.0010766
3636.13	0.0008781
3645.77	0.000625
3655.42	0.000966
3665.06	0.000414
3674.71	0.0006729
3684.35	0.0007186
3694	0.00082302
3703.64	0.0006956
3713.29	0.000378
3722.93	0.0010608
3732.58	0.0012822
3742.22	0.000209
3751.86	0.0009298
3761.51	0.00081511
3771.15	0.000554
3780.8	0.0015186
3790.44	0.0006
3800.09	0.000767673
3809.73	0.0009828
3819.38	0.000588
3829.02	0.0007979
3838.67	0.0012494
3848.31	0.0010622
3857.96	0.000345
3867.6	0.0012885
3877.25	0.000657
3886.89	0.0015844
3896.54	0.0015455
3906.18	0.00077971
3915.83	0.001288
3925.47	0.0011243
3935.12	0.0013265
3944.76	0.000579
3954.41	0.00011
3964.05	0.001963
3973.69	0.000565
3983.34	0.001388
3992.98	0.001401
