Infrared Spectrum: 4-Trifluoromethylbenzhydrazide
Formula: C 8 H 7 F 3 N 2 O
CAS: 339-59-3
State: gas
Origin: EPA-IR VAPOR PHASE LIBRARY
1/CM	ABSORBANCE
549.8	0.004685
559.445	0.004865
569.09	0.005395
578.734	0.005005
588.379	0.006425
598.024	0.006395
607.669	0.007135
617.313	0.005405
626.958	0.005175
636.603	0.004655
646.248	0.004515
655.893	0.004025
665.537	0.003855
675.182	0.004595
684.827	0.008285
694.472	0.010385
704.116	0.008735
713.761	0.007685
723.406	0.005355
733.051	0.004295
742.695	0.003965
752.34	0.004185
761.985	0.006705
771.63	0.010525
781.275	0.007875
790.919	0.005475
800.564	0.005195
810.209	0.005885
819.854	0.007305
829.498	0.009485
839.143	0.013035
848.788	0.018395
858.433	0.019425
868.078	0.012435
877.722	0.006815
887.367	0.006135
897.012	0.007825
906.657	0.012135
916.301	0.020195
925.946	0.034275
935.591	0.038395
945.236	0.022545
954.88	0.011205
964.525	0.007295
974.17	0.004505
983.815	0.004635
993.46	0.003855
1003.1	0.005525
1012.75	0.015865
1022.39	0.021505
1032.04	0.005125
1041.68	0.004805
1051.33	0.011455
1060.97	0.041135
1070.62	0.057585
1080.26	0.029075
1089.91	0.020025
1099.55	0.015585
1109.2	0.020505
1118.84	0.028265
1128.49	0.036845
1138.13	0.061715
1147.78	0.112435
1157.42	0.127155
1167.07	0.104705
1176.71	0.103965
1186.36	0.056445
1196	0.024985
1205.64	0.014295
1215.29	0.011325
1224.93	0.011285
1234.58	0.011765
1244.22	0.010225
1253.87	0.013555
1263.51	0.022165
1273.16	0.035395
1282.8	0.039485
1292.45	0.030695
1302.09	0.035645
1311.74	0.071535
1321.38	0.221215
1331.03	0.178405
1340.67	0.025725
1350.32	0.012045
1359.96	0.008895
1369.61	0.008015
1379.25	0.007375
1388.9	0.007495
1398.54	0.009265
1408.18	0.010615
1417.83	0.012075
1427.47	0.018235
1437.12	0.032035
1446.76	0.045655
1456.41	0.040935
1466.05	0.029095
1475.7	0.021525
1485.34	0.016795
1494.99	0.012665
1504.63	0.012045
1514.28	0.014695
1523.92	0.013775
1533.57	0.009295
1543.21	0.006665
1552.86	0.005905
1562.5	0.006865
1572.15	0.008255
1581.79	0.008275
1591.44	0.006975
1601.08	0.006615
1610.73	0.009055
1620.37	0.013375
1630.01	0.017735
1639.66	0.018195
1649.3	0.013295
1658.95	0.010015
1668.59	0.010705
1678.24	0.016015
1687.88	0.030645
1697.53	0.060705
1707.17	0.072845
1716.82	0.042355
1726.46	0.020185
1736.11	0.011325
1745.75	0.007005
1755.4	0.004835
1765.04	0.003955
1774.69	0.003415
1784.33	0.003285
1793.98	0.002915
1803.62	0.002705
1813.27	0.002395
1822.91	0.001865
1832.55	0.001565
1842.2	0.0012504
1851.84	0.001088
1861.49	0.001096
1871.13	0.0011599
1880.78	0.0010995
1890.42	0.0013055
1900.07	0.001745
1909.71	0.001905
1919.36	0.002005
1929	0.001915
1938.65	0.001845
1948.29	0.001635
1957.94	0.0013153
1967.58	0.0008792
1977.23	0.0008923
1986.87	0.0006812
1996.52	0.0006708
2006.16	0.0006295
2015.81	0.0006735
2025.45	0.0007849
2035.1	0.0006137
2044.74	0.0006326
2054.38	0.0006418
2064.03	0.0007662
2073.67	0.0007199
2083.32	0.0009119
2092.96	0.0010058
2102.61	0.0010782
2112.25	0.0006987
2121.9	0.0008241
2131.54	0.0006192
2141.19	0.000774
2150.83	0.0005828
2160.48	0.0006587
2170.12	0.0007035
2179.77	0.0006945
2189.41	0.00049378
2199.06	0.0007069
2208.7	0.0008515
2218.35	0.000831
2227.99	0.000794
2237.64	0.0007893
2247.28	0.0008438
2256.92	0.0008327
2266.57	0.0009653
2276.21	0.0009788
2285.86	0.0012553
2295.5	0.0011942
2305.15	0.0007569
2314.79	0.0009411
2324.44	0.0008894
2334.08	0.0007747
2343.73	0.0009906
2353.37	0.0009576
2363.02	0.0007132
2372.66	0.000724
2382.31	0.0006766
2391.95	0.0010752
2401.6	0.0007398
2411.24	0.0006524
2420.89	0.0007393
2430.53	0.0007605
2440.18	0.0007321
2449.82	0.0005157
2459.47	0.000743
2469.11	0.0007376
2478.75	0.0009203
2488.4	0.0008509
2498.04	0.0006969
2507.69	0.0006012
2517.33	0.0006972
2526.98	0.0006642
2536.62	0.000726
2546.27	0.0008913
2555.91	0.0008349
2565.56	0.000793
2575.2	0.0007404
2584.85	0.0006699
2594.49	0.0006935
2604.14	0.0006342
2613.78	0.000709
2623.43	0.0008714
2633.07	0.0010701
2642.72	0.0007544
2652.36	0.00088
2662.01	0.0006378
2671.65	0.00045071
2681.29	0.0006486
2690.94	0.0005244
2700.58	0.0005913
2710.23	0.000645
2719.87	0.0006505
2729.52	0.00063
2739.16	0.0008588
2748.81	0.000853
2758.45	0.0006798
2768.1	0.0007192
2777.74	0.0008493
2787.39	0.00043401
2797.03	0.0006322
2806.68	0.0007747
2816.32	0.000725
2825.97	0.0008778
2835.61	0.0009078
2845.26	0.0007509
2854.9	0.0005322
2864.55	0.0009934
2874.19	0.0006055
2883.84	0.0005946
2893.48	0.0008804
2903.12	0.0005239
2912.77	0.0008941
2922.41	0.0008946
2932.06	0.0010586
2941.7	0.0011747
2951.35	0.0008586
2960.99	0.0006939
2970.64	0.0008162
2980.28	0.001037
2989.93	0.0008086
2999.57	0.0005739
3009.22	0.0007485
3018.86	0.0010334
3028.51	0.001192
3038.15	0.0012186
3047.8	0.002195
3057.44	0.002255
3067.09	0.002065
3076.73	0.001595
3086.38	0.001885
3096.02	0.001655
3105.67	0.001615
3115.31	0.0012438
3124.95	0.001485
3134.6	0.0011609
3144.24	0.0010401
3153.89	0.0011352
3163.53	0.0008031
3173.18	0.0009773
3182.82	0.0008652
3192.47	0.0010982
3202.11	0.0010525
3211.76	0.0011417
3221.4	0.0010096
3231.05	0.001465
3240.69	0.0007394
3250.34	0.0011754
3259.98	0.0008611
3269.63	0.0009548
3279.27	0.0010291
3288.92	0.001465
3298.56	0.0011379
3308.21	0.0008538
3317.85	0.0010364
3327.49	0.0011844
3337.14	0.0011392
3346.78	0.0013599
3356.43	0.001615
3366.07	0.001695
3375.72	0.001745
3385.36	0.001925
3395.01	0.002085
3404.65	0.001715
3414.3	0.001785
3423.94	0.002215
3433.59	0.002905
3443.23	0.003935
3452.88	0.006135
3462.52	0.010095
3472.17	0.011975
3481.81	0.009285
3491.46	0.005375
3501.1	0.003175
3510.75	0.001735
3520.39	0.0011946
3530.04	0.0011424
3539.68	0.0008341
3549.32	0.0008886
3558.97	0.000585
3568.61	0.000723
3578.26	0.0007356
3587.9	0.0008412
3597.55	0.0006825
3607.19	0.0007851
3616.84	0.0009322
3626.48	0.0009088
3636.13	0.0005438
3645.77	0.0007204
3655.42	0.0008267
3665.06	0.0008428
3674.71	0.00045384
3684.35	0.0008535
3694	0.000786
3703.64	0.0003908
3713.29	0.0003784
3722.93	0.00042889
3732.58	0.0007258
3742.22	0.0005469
3751.86	0.00058
3761.51	0.0008342
3771.15	0.0005607
3780.8	0.0008073
3790.44	0.0008396
3800.09	0.0007033
3809.73	0.0006954
3819.38	0.00044005
3829.02	0.0005903
3838.67	0.0007278
3848.31	0.0005718
3857.96	0.000816
3867.6	0.000922
3877.25	0.0003325
3886.89	0.000518
3896.54	0.0006733
3906.18	0.0005784
3915.83	0.0007216
3925.47	0.0005721
3935.12	0.0008382
3944.76	0.0007683
3954.41	0.0003117
3964.05	0.000648
3973.69	0.000767
3983.34	0.0005637
3992.98	0.0008268
