Infrared Spectrum: 4-Methylphenoxyacetonitrile
Formula: C 9 H 9 N O
CAS: 33901-44-9
State: gas
Origin: EPA-IR VAPOR PHASE LIBRARY
1/CM	ABSORBANCE
549.8	0.004623
559.445	0.003453
569.09	0.003013
578.734	0.003343
588.379	0.003543
598.024	0.003393
607.669	0.003643
617.313	0.002793
626.958	0.002923
636.603	0.0011718
646.248	0.002363
655.893	0.002193
665.537	0.001823
675.182	0.002813
684.827	0.003473
694.472	0.003963
704.116	0.007383
713.761	0.009523
723.406	0.007653
733.051	0.005103
742.695	0.004703
752.34	0.004403
761.985	0.004243
771.63	0.003753
781.275	0.007043
790.919	0.014273
800.564	0.025313
810.209	0.035873
819.854	0.038283
829.498	0.030183
839.143	0.016993
848.788	0.009193
858.433	0.004993
868.078	0.005003
877.722	0.004873
887.367	0.007943
897.012	0.010433
906.657	0.011693
916.301	0.009593
925.946	0.007323
935.591	0.005663
945.236	0.005553
954.88	0.005603
964.525	0.004723
974.17	0.003813
983.815	0.004633
993.46	0.005833
1003.1	0.009213
1012.75	0.017293
1022.39	0.029503
1032.04	0.045063
1041.68	0.068493
1051.33	0.070293
1060.97	0.049983
1070.62	0.023023
1080.26	0.011893
1089.91	0.008243
1099.55	0.009473
1109.2	0.010163
1118.84	0.009283
1128.49	0.005963
1138.13	0.005523
1147.78	0.006213
1157.42	0.011543
1167.07	0.031193
1176.71	0.042263
1186.36	0.030533
1196	0.045813
1205.64	0.118743
1215.29	0.170943
1224.93	0.141943
1234.58	0.094243
1244.22	0.053833
1253.87	0.027403
1263.51	0.025993
1273.16	0.034813
1282.8	0.040423
1292.45	0.033173
1302.09	0.020243
1311.74	0.011643
1321.38	0.008423
1331.03	0.007503
1340.67	0.008363
1350.32	0.009973
1359.96	0.012933
1369.61	0.015353
1379.25	0.013553
1388.9	0.009013
1398.54	0.006483
1408.18	0.006303
1417.83	0.007483
1427.47	0.008983
1437.12	0.011353
1446.76	0.014913
1456.41	0.015423
1466.05	0.012333
1475.7	0.011143
1485.34	0.016983
1494.99	0.048903
1504.63	0.145623
1514.28	0.146823
1523.92	0.042853
1533.57	0.013353
1543.21	0.007983
1552.86	0.006203
1562.5	0.006043
1572.15	0.007573
1581.79	0.011403
1591.44	0.015683
1601.08	0.019163
1610.73	0.021243
1620.37	0.015003
1630.01	0.008243
1639.66	0.005763
1649.3	0.004233
1658.95	0.003183
1668.59	0.002363
1678.24	0.001953
1687.88	0.001973
1697.53	0.001783
1707.17	0.001833
1716.82	0.001713
1726.46	0.002083
1736.11	0.002043
1745.75	0.002673
1755.4	0.002903
1765.04	0.003143
1774.69	0.002333
1784.33	0.001953
1793.98	0.001843
1803.62	0.001543
1813.27	0.001833
1822.91	0.001853
1832.55	0.002273
1842.2	0.002223
1851.84	0.002933
1861.49	0.003713
1871.13	0.004513
1880.78	0.004463
1890.42	0.003853
1900.07	0.003373
1909.71	0.002783
1919.36	0.002783
1929	0.003153
1938.65	0.002613
1948.29	0.002083
1957.94	0.001743
1967.58	0.001883
1977.23	0.001983
1986.87	0.002013
1996.52	0.002313
2006.16	0.002603
2015.81	0.002433
2025.45	0.002823
2035.1	0.002843
2044.74	0.003353
2054.38	0.003483
2064.03	0.003713
2073.67	0.003953
2083.32	0.003993
2092.96	0.003523
2102.61	0.003413
2112.25	0.002893
2121.9	0.002163
2131.54	0.001493
2141.19	0.0014649
2150.83	0.0012851
2160.48	0.0011606
2170.12	0.0014591
2179.77	0.0014022
2189.41	0.0012829
2199.06	0.001513
2208.7	0.001693
2218.35	0.002213
2227.99	0.002583
2237.64	0.003503
2247.28	0.003813
2256.92	0.003463
2266.57	0.002923
2276.21	0.002493
2285.86	0.002053
2295.5	0.001953
2305.15	0.002353
2314.79	0.002143
2324.44	0.002233
2334.08	0.001843
2343.73	0.002113
2353.37	0.001583
2363.02	0.0012547
2372.66	0.001523
2382.31	0.0013871
2391.95	0.0014282
2401.6	0.0013512
2411.24	0.001633
2420.89	0.002273
2430.53	0.001733
2440.18	0.001793
2449.82	0.001603
2459.47	0.002023
2469.11	0.001743
2478.75	0.001893
2488.4	0.001533
2498.04	0.001633
2507.69	0.001773
2517.33	0.001683
2526.98	0.001833
2536.62	0.001643
2546.27	0.0014398
2555.91	0.001673
2565.56	0.001723
2575.2	0.001843
2584.85	0.002133
2594.49	0.001753
2604.14	0.0012889
2613.78	0.0011391
2623.43	0.0010147
2633.07	0.00123
2642.72	0.0011116
2652.36	0.0013123
2662.01	0.0011871
2671.65	0.0014324
2681.29	0.001673
2690.94	0.0010957
2700.58	0.001583
2710.23	0.001593
2719.87	0.001613
2729.52	0.001923
2739.16	0.001753
2748.81	0.001973
2758.45	0.001983
2768.1	0.001455
2777.74	0.001563
2787.39	0.002043
2797.03	0.001673
2806.68	0.001943
2816.32	0.002923
2825.97	0.002703
2835.61	0.003543
2845.26	0.004743
2854.9	0.007253
2864.55	0.011493
2874.19	0.017493
2883.84	0.017903
2893.48	0.014993
2903.12	0.014063
2912.77	0.017133
2922.41	0.026323
2932.06	0.038893
2941.7	0.033293
2951.35	0.017883
2960.99	0.011813
2970.64	0.011833
2980.28	0.015313
2989.93	0.014453
2999.57	0.013253
3009.22	0.014033
3018.86	0.015973
3028.51	0.022663
3038.15	0.029093
3047.8	0.021123
3057.44	0.013843
3067.09	0.012303
3076.73	0.009803
3086.38	0.007503
3096.02	0.006493
3105.67	0.006453
3115.31	0.004883
3124.95	0.004213
3134.6	0.002643
3144.24	0.002153
3153.89	0.0013495
3163.53	0.0013044
3173.18	0.0012174
3182.82	0.001321
3192.47	0.0013155
3202.11	0.001793
3211.76	0.001623
3221.4	0.0008701
3231.05	0.001503
3240.69	0.000996
3250.34	0.0013378
3259.98	0.001833
3269.63	0.0014263
3279.27	0.000623
3288.92	0.0009205
3298.56	0.000965
3308.21	0.0011958
3317.85	0.0007498
3327.49	0.0010636
3337.14	0.0012475
3346.78	0.0009992
3356.43	0.0010385
3366.07	0.0010972
3375.72	0.0006285
3385.36	0.0014751
3395.01	0.0011031
3404.65	0.00056308
3414.3	0.000348
3423.94	0.001683
3433.59	0.0009148
3443.23	0.0010401
3452.88	0.0007136
3462.52	0.0011587
3472.17	0.00052534
3481.81	0.0005701
3491.46	0.00058636
3501.1	0.00052522
3510.75	0.0008692
3520.39	0.0012485
3530.04	0.0013513
3539.68	0.0012022
3549.32	0.0004119
3558.97	0.0013204
3568.61	0.0007856
3578.26	0.0011262
3587.9	0.0006239
3597.55	0.0009596
3607.19	0.0009121
3616.84	0.0013552
3626.48	0.0010672
3636.13	0.0011617
3645.77	0.0007117
3655.42	0.0007621
3665.06	0.0011319
3674.71	0.001643
3684.35	0.0012119
3694	0.0014907
3703.64	0.001603
3713.29	0.0007666
3722.93	0.0009892
3732.58	0.0014229
3742.22	0.001194
3751.86	0.0007028
3761.51	0.0009511
3771.15	0.0012806
3780.8	0.0011605
3790.44	0.0008895
3800.09	0.0012995
3809.73	0.0012301
3819.38	0.0010726
3829.02	0.0006615
3838.67	0.0007483
3848.31	0.0010127
3857.96	0.00059104
3867.6	0.001933
3877.25	0.001743
3886.89	0.00048393
3896.54	0.000863
3906.18	0.0014404
3915.83	0.0012001
3925.47	0.0006904
3935.12	0.001543
3944.76	0.0014891
3954.41	0.0012538
3964.05	0.0007157
3973.69	0.0007912
3983.34	0.0014855
3992.98	0.001793
