Infrared Spectrum: CYCLOHEXANEMETHANOL, 4-METHYLENE-, ACETATE
Formula: C10 H16 O2
CAS: 33904-17-5
Boiling point: 54 C AT 0.4 mmHg
Class: COBLENTZ
Instrument: Not specified, most likely a prism, grating, or hybrid spectrometer.
Sampling: TRANSMISSION
Path length: SMEAR
Resolution: 4
Origin: TENNESSEE EASTMAN COMPANY, RESEARCH LABORATORIES
MICROMETERS	TRANSMITTANCE
2.014	0.923
2.05524	0.931
2.09647	0.931
2.13771	0.931
2.17895	0.931
2.22019	0.923
2.26142	0.9
2.30266	0.887
2.3439	0.887
2.38514	0.888
2.42637	0.902
2.46761	0.911
2.50885	0.911
2.55009	0.912
2.59132	0.912
2.63256	0.912
2.6738	0.917
2.71504	0.914
2.75627	0.899
2.79751	0.904
2.83875	0.902
2.87999	0.899
2.92122	0.897
2.96246	0.928
3.0037	0.931
3.04494	0.931
3.08617	0.935
3.12741	0.938
3.16865	0.935
3.20989	0.907
3.25112	0.765
3.29236	0.798
3.3336	0.584
3.37484	0.181
3.41607	0.099
3.45731	0.232
3.49855	0.246
3.53979	0.702
3.58102	0.842
3.62226	0.882
3.6635	0.88
3.70474	0.883
3.74597	0.912
3.78721	0.914
3.82845	0.911
3.86969	0.933
3.91092	0.943
3.95216	0.952
3.9934	0.952
4.03464	0.948
4.07587	0.935
4.11711	0.935
4.15835	0.95
4.19959	0.952
4.24082	0.95
4.28206	0.933
4.3233	0.931
4.36454	0.945
4.40577	0.947
4.44701	0.95
4.48825	0.95
4.52949	0.95
4.57072	0.947
4.61196	0.935
4.6532	0.928
4.69444	0.929
4.73567	0.941
4.77691	0.935
4.81815	0.931
4.85938	0.94
4.90062	0.94
4.94186	0.94
4.9831	0.941
5.02433	0.947
5.06557	0.943
5.10681	0.933
5.14805	0.931
5.18928	0.923
5.23052	0.924
5.27176	0.911
5.313	0.902
5.35423	0.899
5.39547	0.892
5.43671	0.873
5.47795	0.839
5.51918	0.805
5.56042	0.717
5.60166	0.629
5.6429	0.449
5.68413	0.129
5.72537	0.051
5.76661	0.076
5.80785	0.27
5.84908	0.464
5.89032	0.581
5.93156	0.656
5.9728	0.687
6.01403	0.659
6.05527	0.358
6.09651	0.692
6.13775	0.788
6.17898	0.813
6.22022	0.844
6.26146	0.861
6.3027	0.871
6.34393	0.859
6.38517	0.858
6.42641	0.837
6.46765	0.82
6.50888	0.822
6.55012	0.789
6.59136	0.791
6.6326	0.784
6.67383	0.767
6.71507	0.707
6.75631	0.528
6.79755	0.393
6.83878	0.316
6.88002	0.22
6.92126	0.258
6.9625	0.36
7.00373	0.517
7.04497	0.588
7.08621	0.564
7.12745	0.463
7.16868	0.297
7.20992	0.292
7.25116	0.278
7.2924	0.143
7.33363	0.16
7.37487	0.427
7.41611	0.649
7.45735	0.702
7.49858	0.705
7.53982	0.668
7.58106	0.67
7.62229	0.622
7.66353	0.598
7.70477	0.545
7.74601	0.434
7.78724	0.244
7.82848	0.186
7.86972	0.155
7.91096	0.105
7.95219	0.073
7.99343	0.058
8.03467	0.051
8.07591	0.051
8.11714	0.051
8.15838	0.068
8.19962	0.148
8.24086	0.235
8.28209	0.295
8.32333	0.348
8.36457	0.504
8.40581	0.642
8.44704	0.697
8.48828	0.719
8.52952	0.728
8.57076	0.731
8.61199	0.736
8.65323	0.736
8.69447	0.745
8.73571	0.757
8.77694	0.745
8.81818	0.745
8.85942	0.755
8.90066	0.743
8.94189	0.709
8.98313	0.685
9.02437	0.606
9.06561	0.565
9.10684	0.488
9.14808	0.574
9.18932	0.569
9.23056	0.473
9.27179	0.417
9.31303	0.413
9.35427	0.461
9.39551	0.446
9.43674	0.381
9.47798	0.261
9.51922	0.167
9.56046	0.105
9.60169	0.088
9.64293	0.109
9.68417	0.194
9.72541	0.29
9.76664	0.348
9.80788	0.398
9.84912	0.405
9.89036	0.396
9.93159	0.495
9.97283	0.562
10.0141	0.593
10.0553	0.589
10.0965	0.533
10.1378	0.437
10.179	0.381
10.2203	0.388
10.2615	0.499
10.3027	0.606
10.344	0.647
10.3852	0.659
10.4264	0.678
10.4677	0.69
10.5089	0.692
10.5502	0.671
10.5914	0.661
10.6326	0.7
10.6739	0.724
10.7151	0.755
10.7563	0.764
10.7976	0.735
10.8388	0.685
10.8801	0.622
10.9213	0.582
10.9625	0.552
11.0038	0.49
11.045	0.403
11.0862	0.3
11.1275	0.227
11.1687	0.176
11.21	0.148
11.2512	0.145
11.2924	0.206
11.3337	0.329
11.3749	0.473
11.4161	0.611
11.4574	0.699
11.4986	0.738
11.5399	0.764
11.5811	0.774
11.6223	0.77
11.6636	0.76
11.7048	0.728
11.746	0.709
11.7873	0.7
11.8285	0.723
11.8698	0.753
11.911	0.782
11.9522	0.805
11.9935	0.83
12.0347	0.841
12.0759	0.847
12.1172	0.847
12.1584	0.832
12.1997	0.803
12.2409	0.776
12.2821	0.745
12.3234	0.741
12.3646	0.753
12.4058	0.772
12.4471	0.774
12.4883	0.774
12.5296	0.77
12.5708	0.781
12.612	0.801
12.6533	0.829
12.6945	0.856
12.7357	0.88
12.777	0.888
12.8182	0.894
12.8595	0.895
12.9007	0.899
12.9419	0.897
12.9832	0.895
13.0244	0.88
13.0656	0.841
13.1069	0.823
13.1481	0.849
13.1894	0.873
13.2306	0.882
13.2718	0.89
13.3131	0.895
13.3543	0.9
13.3955	0.9
13.4368	0.902
13.478	0.902
13.5193	0.902
13.5605	0.902
13.6017	0.9
13.643	0.9
13.6842	0.899
13.7254	0.897
13.7667	0.894
13.8079	0.894
13.8492	0.892
13.8904	0.892
13.9316	0.89
13.9729	0.89
14.0141	0.887
14.0553	0.887
14.0966	0.885
14.1378	0.883
14.1791	0.883
14.2203	0.882
14.2615	0.876
14.3028	0.871
14.344	0.868
14.3852	0.863
14.4265	0.858
14.4677	0.851
14.509	0.846
14.5502	0.841
14.5914	0.834
14.6327	0.832
14.6739	0.829
14.7151	0.827
14.7564	0.825
14.7976	0.811
14.8389	0.801
14.8801	0.786
14.9213	0.767
14.9626	0.752
15.0038	0.736
15.045	0.735
15.0863	0.738
15.1275	0.743
15.1688	0.745
15.21	0.743
15.2512	0.741
15.2925	0.743
15.3337	0.745
15.3749	0.752
15.4162	0.75
15.4574	0.752
15.4987	0.75
15.5399	0.75
15.5811	0.743
15.6224	0.735
15.6636	0.712
15.7048	0.692
15.7461	0.682
15.7873	0.661
15.8286	0.658
15.8698	0.656
15.911	0.652
15.9523	0.654
15.9935	0.652
