Infrared Spectrum: S-(+)-S-Methyl-S-phenylsulphoxime
Formula: C 7 H 9 N O S
CAS: 33903-50-3
State: gas
Origin: EPA-IR VAPOR PHASE LIBRARY
1/CM	ABSORBANCE
549.8	0.020594
559.445	0.013934
569.09	0.011624
578.734	0.009864
588.379	0.008874
598.024	0.008324
607.669	0.008104
617.313	0.007434
626.958	0.007404
636.603	0.008634
646.248	0.010254
655.893	0.012594
665.537	0.018054
675.182	0.034604
684.827	0.062044
694.472	0.064524
704.116	0.051044
713.761	0.068454
723.406	0.118034
733.051	0.136534
742.695	0.090234
752.34	0.056234
761.985	0.038764
771.63	0.021124
781.275	0.013474
790.919	0.012624
800.564	0.011474
810.209	0.010584
819.854	0.010044
829.498	0.010924
839.143	0.012374
848.788	0.014164
858.433	0.017184
868.078	0.020184
877.722	0.023264
887.367	0.028474
897.012	0.036674
906.657	0.049634
916.301	0.070644
925.946	0.098124
935.591	0.121194
945.236	0.126834
954.88	0.123384
964.525	0.116064
974.17	0.114984
983.815	0.142474
993.46	0.146194
1003.1	0.107884
1012.75	0.066854
1022.39	0.044184
1032.04	0.035884
1041.68	0.029414
1051.33	0.028124
1060.97	0.035824
1070.62	0.056174
1080.26	0.083354
1089.91	0.077994
1099.55	0.053704
1109.2	0.080604
1118.84	0.139714
1128.49	0.142404
1138.13	0.084034
1147.78	0.039164
1157.42	0.017914
1167.07	0.013624
1176.71	0.010974
1186.36	0.009264
1196	0.009414
1205.64	0.013484
1215.29	0.021334
1224.93	0.041044
1234.58	0.104804
1244.22	0.243464
1253.87	0.324994
1263.51	0.237174
1273.16	0.081384
1282.8	0.028744
1292.45	0.022144
1302.09	0.026364
1311.74	0.032134
1321.38	0.027084
1331.03	0.013924
1340.67	0.006654
1350.32	0.005224
1359.96	0.005404
1369.61	0.006394
1379.25	0.007284
1388.9	0.007584
1398.54	0.010054
1408.18	0.015614
1417.83	0.017454
1427.47	0.018614
1437.12	0.028834
1446.76	0.031714
1456.41	0.021854
1466.05	0.012124
1475.7	0.013694
1485.34	0.011464
1494.99	0.004674
1504.63	0.003254
1514.28	0.002654
1523.92	0.002384
1533.57	0.002324
1543.21	0.002134
1552.86	0.001984
1562.5	0.002434
1572.15	0.002724
1581.79	0.003244
1591.44	0.003144
1601.08	0.002734
1610.73	0.002274
1620.37	0.001764
1630.01	0.001464
1639.66	0.001524
1649.3	0.001684
1658.95	0.001994
1668.59	0.002334
1678.24	0.002724
1687.88	0.002494
1697.53	0.001724
1707.17	0.0011485
1716.82	0.0011195
1726.46	0.001304
1736.11	0.001334
1745.75	0.001754
1755.4	0.002304
1765.04	0.003054
1774.69	0.003134
1784.33	0.002484
1793.98	0.003244
1803.62	0.005404
1813.27	0.005864
1822.91	0.003854
1832.55	0.002464
1842.2	0.002114
1851.84	0.001884
1861.49	0.001844
1871.13	0.002414
1880.78	0.003354
1890.42	0.004444
1900.07	0.005194
1909.71	0.005114
1919.36	0.003704
1929	0.002644
1938.65	0.002824
1948.29	0.004044
1957.94	0.005234
1967.58	0.005314
1977.23	0.004084
1986.87	0.002704
1996.52	0.002344
2006.16	0.002244
2015.81	0.002144
2025.45	0.002194
2035.1	0.002554
2044.74	0.002564
2054.38	0.002384
2064.03	0.002144
2073.67	0.001894
2083.32	0.001834
2092.96	0.001634
2102.61	0.001564
2112.25	0.001384
2121.9	0.001132
2131.54	0.0012406
2141.19	0.001181
2150.83	0.001434
2160.48	0.001744
2170.12	0.001824
2179.77	0.002164
2189.41	0.002354
2199.06	0.002434
2208.7	0.002084
2218.35	0.001864
2227.99	0.001694
2237.64	0.001954
2247.28	0.001954
2256.92	0.001894
2266.57	0.001854
2276.21	0.001674
2285.86	0.001344
2295.5	0.001093
2305.15	0.001344
2314.79	0.001904
2324.44	0.002234
2334.08	0.001784
2343.73	0.001574
2353.37	0.001344
2363.02	0.001444
2372.66	0.001454
2382.31	0.0012256
2391.95	0.0010441
2401.6	0.0010198
2411.24	0.0009145
2420.89	0.0008254
2430.53	0.000808
2440.18	0.0007291
2449.82	0.0006062
2459.47	0.0008167
2469.11	0.00088
2478.75	0.000924
2488.4	0.0011419
2498.04	0.0011921
2507.69	0.0012151
2517.33	0.0009042
2526.98	0.000654
2536.62	0.000581
2546.27	0.0007779
2555.91	0.0009619
2565.56	0.000939
2575.2	0.0010916
2584.85	0.0011636
2594.49	0.0012146
2604.14	0.001364
2613.78	0.0011862
2623.43	0.0010356
2633.07	0.0006669
2642.72	0.0005679
2652.36	0.0010362
2662.01	0.001217
2671.65	0.0009454
2681.29	0.0008221
2690.94	0.0008238
2700.58	0.0009258
2710.23	0.0009258
2719.87	0.0010585
2729.52	0.0008587
2739.16	0.0007626
2748.81	0.000724
2758.45	0.0007286
2768.1	0.0006208
2777.74	0.0004632
2787.39	0.0006355
2797.03	0.0006672
2806.68	0.0008031
2816.32	0.0009679
2825.97	0.0009695
2835.61	0.0008394
2845.26	0.00084
2854.9	0.001114
2864.55	0.0010548
2874.19	0.0012277
2883.84	0.001334
2893.48	0.001314
2903.12	0.001374
2912.77	0.001324
2922.41	0.002044
2932.06	0.002974
2941.7	0.003764
2951.35	0.002744
2960.99	0.001804
2970.64	0.001544
2980.28	0.001794
2989.93	0.002364
2999.57	0.004134
3009.22	0.006574
3018.86	0.008544
3028.51	0.008774
3038.15	0.008234
3047.8	0.010714
3057.44	0.021604
3067.09	0.047124
3076.73	0.051534
3086.38	0.028394
3096.02	0.013444
3105.67	0.005954
3115.31	0.003104
3124.95	0.002634
3134.6	0.002334
3144.24	0.002204
3153.89	0.002274
3163.53	0.002624
3173.18	0.001774
3182.82	0.001304
3192.47	0.0011316
3202.11	0.0008549
3211.76	0.000584
3221.4	0.0006407
3231.05	0.0005396
3240.69	0.000662
3250.34	0.0008937
3259.98	0.0007138
3269.63	0.0006259
3279.27	0.0009048
3288.92	0.0009429
3298.56	0.0006006
3308.21	0.0009967
3317.85	0.001394
3327.49	0.001884
3337.14	0.003374
3346.78	0.011584
3356.43	0.035284
3366.07	0.057234
3375.72	0.039044
3385.36	0.012404
3395.01	0.003554
3404.65	0.002404
3414.3	0.001674
3423.94	0.0009381
3433.59	0.0006217
3443.23	0.0007516
3452.88	0.0005844
3462.52	0.0004095
3472.17	0.0006509
3481.81	0.0004926
3491.46	0.0004228
3501.1	0.00030654
3510.75	0.00039063
3520.39	0.0002262
3530.04	0.000181
3539.68	0.0002694
3549.32	0.0002603
3558.97	0.00031156
3568.61	0.0004963
3578.26	0.0004634
3587.9	0.00036528
3597.55	0.00031761
3607.19	0.0004999
3616.84	0.0006157
3626.48	0.0006349
3636.13	0.00033068
3645.77	0.0005774
3655.42	0.0006532
3665.06	0.0008038
3674.71	0.0009324
3684.35	0.0010769
3694	0.0011879
3703.64	0.0010435
3713.29	0.0008414
3722.93	0.0007443
3732.58	0.0009046
3742.22	0.0008413
3751.86	0.0010079
3761.51	0.0010402
3771.15	0.0007431
3780.8	0.000767
3790.44	0.00034773
3800.09	0.0004946
3809.73	0.0005022
3819.38	0.00038552
3829.02	0.0005549
3838.67	0.00030881
3848.31	0
3857.96	0.0004155
3867.6	0.000723
3877.25	0.00035755
3886.89	0.00031509
3896.54	0.0005815
3906.18	0.000522
3915.83	0.0004719
3925.47	0.000611
3935.12	0.000483
3944.76	0.0006484
3954.41	0.0008424
3964.05	0.0009217
3973.69	0.0007036
3983.34	0.0008124
3992.98	0.000846
