Infrared Spectrum: 4-Nitrophenoxyacetonitrile
Formula: C 8 H 6 N 2 O 3
CAS: 33901-46-1
State: gas
Origin: EPA-IR VAPOR PHASE LIBRARY
1/CM	ABSORBANCE
549.8	0.001982
559.445	0.001802
569.09	0.002032
578.735	0.002782
588.38	0.002902
598.025	0.004492
607.67	0.009182
617.315	0.012592
626.96	0.007002
636.605	0.005062
646.251	0.004822
655.896	0.005152
665.541	0.006202
675.186	0.007152
684.831	0.008112
694.476	0.006672
704.121	0.004582
713.766	0.003122
723.411	0.002522
733.056	0.004202
742.701	0.008882
752.346	0.010652
761.991	0.006042
771.636	0.002702
781.281	0.002472
790.926	0.002232
800.571	0.002542
810.216	0.002962
819.861	0.005242
829.507	0.010592
839.152	0.021762
848.797	0.037582
858.442	0.050732
868.087	0.018592
877.732	0.006012
887.377	0.004722
897.022	0.005842
906.667	0.007242
916.312	0.006202
925.957	0.004082
935.602	0.003432
945.247	0.003772
954.892	0.003472
964.537	0.002842
974.182	0.002612
983.827	0.003092
993.472	0.004152
1003.12	0.007472
1012.76	0.012512
1022.41	0.018662
1032.05	0.033002
1041.7	0.046262
1051.34	0.038902
1060.99	0.018622
1070.63	0.007122
1080.28	0.004932
1089.92	0.006082
1099.57	0.010672
1109.21	0.022542
1118.86	0.016122
1128.5	0.004752
1138.15	0.003032
1147.79	0.004432
1157.44	0.011042
1167.08	0.028822
1176.73	0.029102
1186.37	0.015542
1196.02	0.016562
1205.66	0.040492
1215.31	0.077932
1224.95	0.096292
1234.6	0.080852
1244.24	0.063902
1253.89	0.042682
1263.53	0.034272
1273.18	0.036422
1282.82	0.021712
1292.47	0.026252
1302.11	0.025052
1311.76	0.015822
1321.4	0.021042
1331.05	0.035282
1340.69	0.084092
1350.34	0.112242
1359.98	0.065992
1369.63	0.035292
1379.27	0.018642
1388.92	0.010152
1398.56	0.006152
1408.21	0.004882
1417.85	0.005332
1427.5	0.006782
1437.14	0.008902
1446.79	0.012042
1456.43	0.013522
1466.08	0.012122
1475.73	0.015312
1485.37	0.037542
1495.02	0.084512
1504.66	0.047832
1514.31	0.024832
1523.95	0.041382
1533.6	0.072132
1543.24	0.090952
1552.89	0.068152
1562.53	0.031832
1572.18	0.021622
1581.82	0.034972
1591.47	0.065112
1601.11	0.061212
1610.76	0.042272
1620.4	0.028022
1630.05	0.011722
1639.69	0.005522
1649.34	0.004052
1658.98	0.003422
1668.63	0.002802
1678.27	0.002372
1687.92	0.001962
1697.56	0.001712
1707.21	0.001465
1716.85	0.0013875
1726.5	0.0014738
1736.14	0.0015006
1745.79	0.001662
1755.43	0.002042
1765.08	0.002192
1774.72	0.001732
1784.37	0.0015521
1794.01	0.0014568
1803.66	0.0014322
1813.3	0.0013056
1822.95	0.0012599
1832.59	0.0012262
1842.24	0.001078
1851.88	0.0010508
1861.53	0.001056
1871.17	0.0012732
1880.82	0.001692
1890.46	0.002092
1900.11	0.002282
1909.75	0.002242
1919.4	0.001962
1929.04	0.0014204
1938.69	0.0010867
1948.33	0.0010984
1957.98	0.0011941
1967.62	0.0011985
1977.27	0.0011775
1986.91	0.0013704
1996.56	0.001702
2006.2	0.001772
2015.85	0.001632
2025.49	0.0015109
2035.14	0.0014964
2044.78	0.001772
2054.43	0.002042
2064.07	0.002172
2073.72	0.002242
2083.36	0.002192
2093.01	0.001922
2102.65	0.0014949
2112.3	0.0011808
2121.94	0.0008631
2131.59	0.0007798
2141.23	0.0006643
2150.88	0.00065936
2160.52	0.0006706
2170.17	0.00057747
2179.81	0.00059479
2189.46	0.0006798
2199.1	0.0007279
2208.75	0.0008701
2218.39	0.0010285
2228.04	0.0014317
2237.68	0.002062
2247.33	0.002742
2256.97	0.002542
2266.62	0.001912
2276.26	0.0015417
2285.91	0.0012735
2295.55	0.0010686
2305.2	0.0009737
2314.84	0.0008807
2324.49	0.0007469
2334.13	0.0007124
2343.78	0.00075
2353.42	0.0007644
2363.07	0.0008416
2372.72	0.0010138
2382.36	0.0010488
2392.01	0.0010636
2401.65	0.0011091
2411.3	0.0010713
2420.94	0.0009987
2430.59	0.0011466
2440.23	0.0014287
2449.88	0.001812
2459.52	0.001862
2469.17	0.001491
2478.81	0.0012307
2488.46	0.0011515
2498.1	0.0010041
2507.75	0.0009472
2517.39	0.0009332
2527.04	0.0009181
2536.68	0.0010809
2546.33	0.0010164
2555.97	0.0010813
2565.62	0.0011127
2575.26	0.0012178
2584.91	0.0012498
2594.55	0.0013251
2604.2	0.0011768
2613.84	0.00109
2623.49	0.0009754
2633.13	0.0009088
2642.78	0.0008393
2652.42	0.0008495
2662.07	0.000787
2671.71	0.0008548
2681.36	0.0008474
2691	0.0009673
2700.65	0.0010677
2710.29	0.0009833
2719.94	0.0009416
2729.58	0.0008786
2739.23	0.00065149
2748.87	0.00055426
2758.52	0.00063036
2768.16	0.00058067
2777.81	0.00064845
2787.45	0.0007545
2797.1	0.0007583
2806.74	0.0007756
2816.39	0.0009112
2826.03	0.001015
2835.68	0.0012297
2845.32	0.0014976
2854.97	0.001852
2864.61	0.002562
2874.26	0.003382
2883.9	0.003862
2893.55	0.003172
2903.19	0.002562
2912.84	0.002562
2922.48	0.003202
2932.13	0.005412
2941.77	0.007732
2951.42	0.005162
2961.06	0.002462
2970.71	0.001632
2980.35	0.002012
2990	0.002862
2999.64	0.001157
3009.29	0.0005187
3018.93	0.000462
3028.58	0.0005097
3038.22	0.000379
3047.87	0.00055733
3057.51	0.0007879
3067.16	0.0011298
3076.8	0.002212
3086.45	0.004752
3096.09	0.004282
3105.74	0.001163
3115.38	0.000532
3125.03	0.0004784
3134.67	0.000276
3144.32	0.000224
3153.96	8.7e-05
3163.61	0.000136
3173.25	0.000317
3182.9	0.000176
3192.54	0.000208
3202.19	0.000349
3211.83	0.000358
3221.48	0.000328
3231.12	0.000381
3240.77	0.000232
3250.41	0.000311
3260.06	0.000162
3269.7	9e-05
3279.35	0.00027
3289	0.000244
3298.64	0.000234
3308.29	0.000228
3317.93	0.000111
3327.58	0.000259
3337.22	0.000347
3346.87	0.000261
3356.51	0.000234
3366.16	0.000243
3375.8	0.000245
3385.45	0.000228
3395.09	0.000291
3404.74	0.000287
3414.38	0.000274
3424.03	0.000268
3433.67	0.000247
3443.32	0.00034
3452.96	0.000189
3462.61	0.000407
3472.25	0.000274
3481.9	0.000289
3491.54	0.00032
3501.19	0.000324
3510.83	0.000267
3520.48	0.000358
3530.12	0.000232
3539.77	0.000212
3549.41	0.000203
3559.06	0.00031
3568.7	0.000234
3578.35	0.000333
3587.99	0.000442
3597.64	0.000354
3607.28	0.000424
3616.93	0.00021
3626.57	0.000241
3636.22	0.000375
3645.86	0.000319
3655.51	0.000412
3665.15	0.000313
3674.8	0.000415
3684.44	0.000259
3694.09	0.000454
3703.73	0.00038
3713.38	0.0004647
3723.02	0.000436
3732.67	0.000449
3742.31	0.000432
3751.96	0.000329
3761.6	0.000406
3771.25	0.000425
3780.89	0.000408
3790.54	0.000338
3800.18	0.00033
3809.83	0.000374
3819.47	0.000416
3829.12	0.000392
3838.76	0.000357
3848.41	0.000405
3858.05	0.000283
3867.7	0.0005104
3877.34	0.0005329
3886.99	0.000447
3896.63	0.000383
3906.28	0.000453
3915.92	0.0005243
3925.57	0.000477
3935.21	0.00060334
3944.86	0.000444
3954.5	0.0004842
3964.15	0.0005504
3973.79	0.00056025
3983.44	0.00062736
3993.08	0.0007617
