Infrared Spectrum: 3,4-Dimethoxyphenyl isothiocyanate
Formula: C 9 H 9 N O 2 S
CAS: 33904-04-0
State: gas
Origin: EPA-IR VAPOR PHASE LIBRARY
1/CM	ABSORBANCE
549.8	0.019563
559.445	0.016763
569.09	0.014983
578.734	0.014213
588.379	0.014683
598.024	0.015483
607.669	0.017023
617.313	0.015003
626.958	0.012153
636.603	0.011113
646.248	0.011563
655.893	0.010103
665.537	0.005713
675.182	0.002573
684.827	0.002063
694.472	0.002103
704.116	0.001943
713.761	0.002233
723.406	0.003673
733.051	0.006163
742.695	0.012323
752.34	0.020263
761.985	0.020453
771.63	0.012083
781.275	0.009173
790.919	0.014633
800.564	0.024883
810.209	0.030623
819.854	0.038233
829.498	0.057743
839.143	0.062733
848.788	0.036693
858.433	0.022623
868.078	0.019973
877.722	0.015183
887.367	0.008963
897.012	0.006593
906.657	0.006953
916.301	0.007053
925.946	0.006613
935.591	0.006433
945.236	0.007043
954.88	0.009563
964.525	0.016583
974.17	0.027663
983.815	0.026853
993.46	0.022533
1003.1	0.028813
1012.75	0.050493
1022.39	0.079803
1032.04	0.087873
1041.68	0.060453
1051.33	0.027173
1060.97	0.013073
1070.62	0.008823
1080.26	0.007423
1089.91	0.008753
1099.55	0.013843
1109.2	0.031243
1118.84	0.053583
1128.49	0.053763
1138.13	0.035673
1147.78	0.025143
1157.42	0.038803
1167.07	0.058573
1176.71	0.056273
1186.36	0.049943
1196	0.057633
1205.64	0.065353
1215.29	0.073963
1224.93	0.104473
1234.58	0.128613
1244.22	0.123673
1253.87	0.136323
1263.51	0.166853
1273.16	0.102823
1282.8	0.092243
1292.45	0.118443
1302.09	0.111623
1311.74	0.070503
1321.38	0.040233
1331.03	0.026103
1340.67	0.016793
1350.32	0.010953
1359.96	0.008463
1369.61	0.007493
1379.25	0.007533
1388.9	0.009833
1398.54	0.017563
1408.18	0.029013
1417.83	0.028643
1427.47	0.027673
1437.12	0.052543
1446.76	0.060903
1456.41	0.053573
1466.05	0.064493
1475.7	0.066663
1485.34	0.086983
1494.99	0.192073
1504.63	0.339493
1514.28	0.213913
1523.92	0.073483
1533.57	0.035843
1543.21	0.024673
1552.86	0.022063
1562.5	0.026153
1572.15	0.037093
1581.79	0.047433
1591.44	0.050373
1601.08	0.047643
1610.73	0.031503
1620.37	0.016273
1630.01	0.010803
1639.66	0.008533
1649.3	0.007293
1658.95	0.006513
1668.59	0.006023
1678.24	0.005553
1687.88	0.004963
1697.53	0.004653
1707.17	0.004523
1716.82	0.004513
1726.46	0.004573
1736.11	0.004643
1745.75	0.004773
1755.4	0.004503
1765.04	0.004343
1774.69	0.004323
1784.33	0.004383
1793.98	0.004813
1803.62	0.005613
1813.27	0.006413
1822.91	0.006393
1832.55	0.005953
1842.2	0.006063
1851.84	0.006643
1861.49	0.007053
1871.13	0.006993
1880.78	0.007403
1890.42	0.008223
1900.07	0.009963
1909.71	0.012973
1919.36	0.018033
1929	0.025423
1938.65	0.036043
1948.29	0.050133
1957.94	0.068463
1967.58	0.091463
1977.23	0.118233
1986.87	0.150423
1996.52	0.191553
2006.16	0.243113
2015.81	0.302783
2025.45	0.355103
2035.1	0.403283
2044.74	0.473713
2054.38	0.485983
2064.03	0.342083
2073.67	0.251653
2083.32	0.270233
2092.96	0.336333
2102.61	0.351763
2112.25	0.261403
2121.9	0.170543
2131.54	0.128653
2141.19	0.115913
2150.83	0.107713
2160.48	0.087383
2170.12	0.060263
2179.77	0.041613
2189.41	0.031953
2199.06	0.024563
2208.7	0.018403
2218.35	0.014643
2227.99	0.012073
2237.64	0.010373
2247.28	0.009563
2256.92	0.009583
2266.57	0.009363
2276.21	0.007893
2285.86	0.006133
2295.5	0.004703
2305.15	0.003703
2314.79	0.003373
2324.44	0.003283
2334.08	0.003403
2343.73	0.003453
2353.37	0.003673
2363.02	0.004063
2372.66	0.004383
2382.31	0.004563
2391.95	0.004953
2401.6	0.005213
2411.24	0.005173
2420.89	0.004983
2430.53	0.004953
2440.18	0.005003
2449.82	0.005043
2459.47	0.004803
2469.11	0.004643
2478.75	0.004563
2488.4	0.004573
2498.04	0.004583
2507.69	0.004843
2517.33	0.005193
2526.98	0.005473
2536.62	0.005913
2546.27	0.006373
2555.91	0.006963
2565.56	0.007303
2575.2	0.007253
2584.85	0.006353
2594.49	0.005383
2604.14	0.004363
2613.78	0.003903
2623.43	0.003733
2633.07	0.003633
2642.72	0.003643
2652.36	0.003533
2662.01	0.003763
2671.65	0.004153
2681.29	0.004683
2690.94	0.005243
2700.58	0.005893
2710.23	0.005953
2719.87	0.005333
2729.52	0.004283
2739.16	0.003683
2748.81	0.003243
2758.45	0.003473
2768.1	0.003503
2777.74	0.003613
2787.39	0.003873
2797.03	0.004753
2806.68	0.006383
2816.32	0.009483
2825.97	0.014903
2835.61	0.026843
2845.26	0.035773
2854.9	0.027073
2864.55	0.020703
2874.19	0.019303
2883.84	0.018783
2893.48	0.019983
2903.12	0.023283
2912.77	0.028423
2922.41	0.032983
2932.06	0.040303
2941.7	0.057673
2951.35	0.060283
2960.99	0.049743
2970.64	0.038823
2980.28	0.030143
2989.93	0.027653
2999.57	0.034303
3009.22	0.043993
3018.86	0.030163
3028.51	0.015543
3038.15	0.012343
3047.8	0.011173
3057.44	0.010853
3067.09	0.010403
3076.73	0.009223
3086.38	0.007713
3096.02	0.005823
3105.67	0.004673
3115.31	0.003733
3124.95	0.002923
3134.6	0.002193
3144.24	0.001703
3153.89	0.001453
3163.53	0.001353
3173.18	0.0011573
3182.82	0.0009229
3192.47	0.000794
3202.11	0.0006992
3211.76	0.000581
3221.4	0.0003413
3231.05	0.0003477
3240.69	0.0001312
3250.34	0.0003936
3259.98	0.0001283
3269.63	0.0001421
3279.27	0.000346
3288.92	0.0001135
3298.56	0.0001537
3308.21	0.0003316
3317.85	7e-06
3327.49	0.00026635
3337.14	0.0001304
3346.78	0.0003406
3356.43	0.0003638
3366.07	0.0002916
3375.72	0.0003059
3385.36	0.0001621
3395.01	0.00023945
3404.65	0.0002939
3414.3	9.54e-05
3423.94	0.000175786
3433.59	0.00026508
3443.23	0.00018568
3452.88	0.00017125
3462.52	0.00018909
3472.17	0.00026101
3481.81	0.00024522
3491.46	0.0003418
3501.1	0.00018722
3510.75	0.00023412
3520.39	0.0004157
3530.04	0.00025104
3539.68	0.0004201
3549.32	0.0003274
3558.97	0.0003266
3568.61	0.00020349
3578.26	0.0003061
3587.9	0.0002958
3597.55	0.00027294
3607.19	0.0005718
3616.84	0.00026915
3626.48	0.0004123
3636.13	0.0002819
3645.77	0.0003756
3655.42	0.0002794
3665.06	0.0003657
3674.71	0.0004782
3684.35	0.000622
3694	0.0006414
3703.64	0.0006444
3713.29	0.0003916
3722.93	0.0005409
3732.58	0.0006585
3742.22	0.0005338
3751.86	0.000451
3761.51	0.0004762
3771.15	0.0006161
3780.8	0.00026558
3790.44	0.000509
3800.09	0.0006529
3809.73	0.0006787
3819.38	0.0005989
3829.02	0.0005857
3838.67	0.0007362
3848.31	0.0008886
3857.96	0.0008727
3867.6	0.0008722
3877.25	0.0011093
3886.89	0.001273
3896.54	0.0011427
3906.18	0.001183
3915.83	0.001473
3925.47	0.001593
3935.12	0.001423
3944.76	0.001613
3954.41	0.001973
3964.05	0.002313
3973.69	0.002123
3983.34	0.002273
3992.98	0.002463
