Infrared Spectrum: 7-Norbornyl t-butyl ether
Formula: C 11 H 20 O
CAS: 3391-07-9
State: gas
Origin: EPA-IR VAPOR PHASE LIBRARY
1/CM	ABSORBANCE
549.8	0.0004143
559.445	0.00085
569.09	0.0011551
578.734	0.0009923
588.379	0.0006171
598.024	0.0004381
607.669	0.00055314
617.313	0.000182
626.958	0.0004868
636.603	0.00047061
646.248	0.0004385
655.893	0.000466201
665.537	0.0004878
675.182	0.00046984
684.827	0.0003778
694.472	0.000435
704.116	0.000315
713.761	0.0007097
723.406	0.0005719
733.051	0.0006965
742.695	0.001155
752.34	0.001689
761.985	0.0010608
771.63	0.0011849
781.275	0.0008852
790.919	0.0008157
800.564	0.0007305
810.209	0.000843
819.854	0.0013522
829.498	0.001759
839.143	0.001769
848.788	0.0010666
858.433	0.0006363
868.078	0.0011831
877.722	0.002579
887.367	0.004909
897.012	0.007659
906.657	0.006829
916.301	0.003599
925.946	0.002819
935.591	0.002239
945.236	0.0014189
954.88	0.0010495
964.525	0.0007809
974.17	0.0007028
983.815	0.0008806
993.46	0.0011819
1003.1	0.0013261
1012.75	0.002039
1022.39	0.003029
1032.04	0.003179
1041.68	0.002949
1051.33	0.002769
1060.97	0.004019
1070.62	0.007969
1080.26	0.023189
1089.91	0.035729
1099.55	0.023179
1109.2	0.011599
1118.84	0.009599
1128.49	0.008439
1138.13	0.024099
1147.78	0.041229
1157.42	0.021399
1167.07	0.008039
1176.71	0.011409
1186.36	0.019019
1196	0.027289
1205.64	0.025679
1215.29	0.014779
1224.93	0.010049
1234.58	0.009499
1244.22	0.008219
1253.87	0.006609
1263.51	0.004129
1273.16	0.002159
1282.8	0.001719
1292.45	0.001809
1302.09	0.002299
1311.74	0.003619
1321.38	0.004379
1331.03	0.002779
1340.67	0.002859
1350.32	0.006079
1359.96	0.013429
1369.61	0.015259
1379.25	0.011339
1388.9	0.013309
1398.54	0.009389
1408.18	0.003039
1417.83	0.002079
1427.47	0.002129
1437.12	0.002879
1446.76	0.004939
1456.41	0.007759
1466.05	0.008819
1475.7	0.009429
1485.34	0.005959
1494.99	0.002309
1504.63	0.001569
1514.28	0.0011986
1523.92	0.0010209
1533.57	0.0009205
1543.21	0.0008215
1552.86	0.0007561
1562.5	0.0005671
1572.15	0.0007351
1581.79	0.0008152
1591.44	0.0006964
1601.08	0.0007391
1610.73	0.0005789
1620.37	0.0005811
1630.01	0.0006439
1639.66	0.0007494
1649.3	0.0009831
1658.95	0.0007966
1668.59	0.0007533
1678.24	0.0006495
1687.88	0.0006619
1697.53	0.000616
1707.17	0.00055391
1716.82	0.000754
1726.46	0.0006577
1736.11	0.0006544
1745.75	0.0006222
1755.4	0.00053549
1765.04	0.0007104
1774.69	0.0006873
1784.33	0.0007449
1793.98	0.0006757
1803.62	0.0007696
1813.27	0.0007142
1822.91	0.0007381
1832.55	0.0006597
1842.2	0.0005822
1851.84	0.00052961
1861.49	0.000575
1871.13	0.0006366
1880.78	0.0005834
1890.42	0.0006419
1900.07	0.0006193
1909.71	0.00051672
1919.36	0.0005666
1929	0.0006626
1938.65	0.00055425
1948.29	0.00051098
1957.94	0.00054559
1967.58	0.0006279
1977.23	0.0005977
1986.87	0.0006161
1996.52	0.0006244
2006.16	0.00055604
2015.81	0.0005611
2025.45	0.0005878
2035.1	0.0006431
2044.74	0.0006272
2054.38	0.0005822
2064.03	0.0006876
2073.67	0.0005879
2083.32	0.0006926
2092.96	0.0006577
2102.61	0.0008083
2112.25	0.0007989
2121.9	0.0007639
2131.54	0.0007178
2141.19	0.0007185
2150.83	0.0007565
2160.48	0.0008179
2170.12	0.0008556
2179.77	0.0008904
2189.41	0.0007955
2199.06	0.0006868
2208.7	0.0007263
2218.35	0.0007021
2227.99	0.0006641
2237.64	0.0007102
2247.28	0.0006726
2256.92	0.0006284
2266.57	0.000698
2276.21	0.0008256
2285.86	0.0007745
2295.5	0.0007749
2305.15	0.0007294
2314.79	0.000593
2324.44	0.0006347
2334.08	0.0006648
2343.73	0.0006194
2353.37	0.0006687
2363.02	0.00054639
2372.66	0.0006087
2382.31	0.0006849
2391.95	0.0006392
2401.6	0.0006239
2411.24	0.00068
2420.89	0.0006977
2430.53	0.0006045
2440.18	0.00051219
2449.82	0.0006993
2459.47	0.0005513
2469.11	0.0006435
2478.75	0.00048141
2488.4	0.000562
2498.04	0.0005952
2507.69	0.0004481
2517.33	0.0005739
2526.98	0.00054658
2536.62	0.00045038
2546.27	0.0005828
2555.91	0.0005682
2565.56	0.000681
2575.2	0.0006393
2584.85	0.0006785
2594.49	0.0007132
2604.14	0.0008138
2613.78	0.0007156
2623.43	0.0007419
2633.07	0.0006541
2642.72	0.0006423
2652.36	0.0006257
2662.01	0.0006993
2671.65	0.0008396
2681.29	0.0007005
2690.94	0.0007021
2700.58	0.0008425
2710.23	0.0011463
2719.87	0.0012443
2729.52	0.0013269
2739.16	0.0011908
2748.81	0.0011499
2758.45	0.0011173
2768.1	0.0011604
2777.74	0.0012615
2787.39	0.0012268
2797.03	0.0013053
2806.68	0.001444
2816.32	0.001769
2825.97	0.002099
2835.61	0.002459
2845.26	0.003459
2854.9	0.005609
2864.55	0.012779
2874.19	0.023539
2883.84	0.022859
2893.48	0.017199
2903.12	0.018039
2912.77	0.024119
2922.41	0.029789
2932.06	0.035819
2941.7	0.044089
2951.35	0.060659
2960.99	0.084269
2970.64	0.101459
2980.28	0.082919
2989.93	0.036159
2999.57	0.011559
3009.22	0.005289
3018.86	0.003259
3028.51	0.002169
3038.15	0.001689
3047.8	0.001749
3057.44	0.0012814
3067.09	0.0012815
3076.73	0.0013221
3086.38	0.0011903
3096.02	0.0014349
3105.67	0.001489
3115.31	0.001353
3124.95	0.0011426
3134.6	0.0010431
3144.24	0.0009222
3153.89	0.000793
3163.53	0.0007702
3173.18	0.0009223
3182.82	0.0007736
3192.47	0.0009236
3202.11	0.0007033
3211.76	0.0008335
3221.4	0.0009641
3231.05	0.0007128
3240.69	0.0007304
3250.34	0.0006353
3259.98	0.0003929
3269.63	0.000661
3279.27	0.0006395
3288.92	0.0006235
3298.56	0.0005966
3308.21	0.0007707
3317.85	0.000653
3327.49	0.0003817
3337.14	0.0006008
3346.78	0.0005776
3356.43	0.00046918
3366.07	0.0007527
3375.72	0.0005693
3385.36	0.0005702
3395.01	0.00050238
3404.65	0.000464701
3414.3	0.00045537
3423.94	0.0003783
3433.59	0.0004234
3443.23	0.0005832
3452.88	0.0006295
3462.52	0.0005832
3472.17	0.0003633
3481.81	0.00045786
3491.46	0.0003757
3501.1	0.000168
3510.75	0.0004098
3520.39	0.0004107
3530.04	0.00047143
3539.68	0.0004483
3549.32	0.0004017
3558.97	0.00048108
3568.61	0.0004968
3578.26	0.000229
3587.9	0.0004162
3597.55	0.00047254
3607.19	0.00049401
3616.84	0.00053432
3626.48	0.0004325
3636.13	0.0003739
3645.77	0.00053094
3655.42	0.00050958
3665.06	0.00045133
3674.71	0.0006059
3684.35	0.0006209
3694	0.0003951
3703.64	0.0004097
3713.29	0.0005802
3722.93	0.00047585
3732.58	0.0003735
3742.22	0.000467967
3751.86	0.00051229
3761.51	0.00050612
3771.15	0.0005882
3780.8	0.0003872
3790.44	0.00053054
3800.09	0.0004386
3809.73	0.000472
3819.38	0.0006243
3829.02	0.0003673
3838.67	0.00072
3848.31	0.00045389
3857.96	0.0006503
3867.6	0.000344
3877.25	0.0007299
3886.89	0.0006549
3896.54	0.0006838
3906.18	0.00049634
3915.83	0.0005767
3925.47	0.0003951
3935.12	0.000677
3944.76	0.0004362
3954.41	0.00048847
3964.05	0.000462243
3973.69	0.0006553
3983.34	0.0003907
3992.98	0.0004397
