Infrared Spectrum: 11-Tridecyn-1-ol
Formula: C13 H24 O
CAS: 33925-75-6
State: gas
Origin: EPA-IR VAPOR PHASE LIBRARY
1/CM	ABSORBANCE
549.8	0.0027092
559.445	0.00180053
569.09	0.00180163
578.734	0.0007
588.379	0.0019371
598.024	0.001558
607.669	0.0017883
617.313	0.001294
626.958	0.0019798
636.603	0.0021029
646.248	0.00183135
655.893	0.0017283
665.537	0.0022016
675.182	0.001034
684.827	0.0020426
694.472	0.00182276
704.116	0.001438
713.761	0.0024259
723.406	0.0025133
733.051	0.00189696
742.695	0.00183838
752.34	0.0022567
761.985	0.0024192
771.63	0.0020235
781.275	0.001578
790.919	0.0019457
800.564	0.0020093
810.209	0.001622
819.854	0.0021773
829.498	0.0021542
839.143	0.0020336
848.788	0.0022377
858.433	0.001604
868.078	0.001978
877.722	0.0020622
887.367	0.002299
897.012	0.0020898
906.657	0.0025367
916.301	0.0019014
925.946	0.00318
935.591	0.0018404
945.236	0.0025128
954.88	0.002709
964.525	0.0024453
974.17	0.0026378
983.815	0.0025252
993.46	0.00322
1003.1	0.00308
1012.75	0.00377
1022.39	0.00503
1032.04	0.00582
1041.68	0.00581
1051.33	0.00549
1060.97	0.0044
1070.62	0.00535
1080.26	0.0031
1089.91	0.00316
1099.55	0.00222
1109.2	0.00315
1118.84	0.0021238
1128.49	0.0032
1138.13	0.00347
1147.78	0.0023448
1157.42	0.00041
1167.07	0.001566
1176.71	0.00353
1186.36	0.0037
1196	0.0027742
1205.64	0.001365
1215.29	0.0023252
1224.93	0.0026742
1234.58	0.001251
1244.22	0.0026337
1253.87	0.0020156
1263.51	0.000843
1273.16	0.0022807
1282.8	0.001448
1292.45	0.001664
1302.09	0.0021576
1311.74	0.0022041
1321.38	0.0026118
1331.03	0.0027962
1340.67	0.00295
1350.32	0.00324
1359.96	0.00338
1369.61	0.0032
1379.25	0.00339
1388.9	0.00296
1398.54	0.0027791
1408.18	0.00287
1417.83	0.0026869
1427.47	0.00283
1437.12	0.00322
1446.76	0.00398
1456.41	0.00412
1466.05	0.00348
1475.7	0.00299
1485.34	0.00284
1494.99	0.0023848
1504.63	0.0022518
1514.28	0.0019077
1523.92	0.002344
1533.57	0.0020311
1543.21	0.0021984
1552.86	0.0022268
1562.5	0.00187971
1572.15	0.0020159
1581.79	0.0019689
1591.44	0.0019228
1601.08	0.0019336
1610.73	0.001561
1620.37	0.0019153
1630.01	0.001659
1639.66	0.0017079
1649.3	0.0017051
1658.95	0.001614
1668.59	0.0017048
1678.24	0.0017486
1687.88	0.001646
1697.53	0.00152
1707.17	0.00182516
1716.82	0.001651
1726.46	0.0019977
1736.11	0.001694
1745.75	0.0017231
1755.4	0.0017558
1765.04	0.00184834
1774.69	0.0017838
1784.33	0.0017829
1793.98	0.00185812
1803.62	0.0017657
1813.27	0.0020682
1822.91	0.0021159
1832.55	0.001671
1842.2	0.0018685
1851.84	0.0018187
1861.49	0.0019121
1871.13	0.0019399
1880.78	0.0020807
1890.42	0.0019698
1900.07	0.0019846
1909.71	0.00186762
1919.36	0.0019645
1929	0.0019621
1938.65	0.0022095
1948.29	0.0017242
1957.94	0.0019613
1967.58	0.0019525
1977.23	0.00188689
1986.87	0.00181093
1996.52	0.00179556
2006.16	0.001693
2015.81	0.0020071
2025.45	0.00184497
2035.1	0.0020549
2044.74	0.0019972
2054.38	0.00189985
2064.03	0.00168
2073.67	0.0017245
2083.32	0.0019033
2092.96	0.0017579
2102.61	0.0019747
2112.25	0.0019401
2121.9	0.0022387
2131.54	0.001955
2141.19	0.0021284
2150.83	0.001564
2160.48	0.00184175
2170.12	0.00186469
2179.77	0.0020632
2189.41	0.0020099
2199.06	0.00185846
2208.7	0.002158
2218.35	0.0017589
2227.99	0.002089
2237.64	0.0022081
2247.28	0.0017325
2256.92	0.0020248
2266.57	0.0020927
2276.21	0.0021836
2285.86	0.0023682
2295.5	0.00183205
2305.15	0.0019288
2314.79	0.0020844
2324.44	0.0022952
2334.08	0.00189562
2343.73	0.0018748
2353.37	0.0019306
2363.02	0.0017102
2372.66	0.0019796
2382.31	0.00182753
2391.95	0.0020885
2401.6	0.0020023
2411.24	0.00184936
2420.89	0.001763
2430.53	0.0020802
2440.18	0.0024274
2449.82	0.0021479
2459.47	0.001679
2469.11	0.0021253
2478.75	0.0019646
2488.4	0.0020751
2498.04	0.00184447
2507.69	0.0021014
2517.33	0.0019082
2526.98	0.0023375
2536.62	0.0019749
2546.27	0.0022137
2555.91	0.0022651
2565.56	0.00184967
2575.2	0.002142
2584.85	0.0021129
2594.49	0.0023705
2604.14	0.00186163
2613.78	0.0022051
2623.43	0.0020108
2633.07	0.0020868
2642.72	0.0023397
2652.36	0.0022566
2662.01	0.0020862
2671.65	0.002414
2681.29	0.0022151
2690.94	0.0021612
2700.58	0.0022162
2710.23	0.0024356
2719.87	0.0023458
2729.52	0.002383
2739.16	0.0024841
2748.81	0.0024242
2758.45	0.00295
2768.1	0.0025449
2777.74	0.0019541
2787.39	0.0021658
2797.03	0.0027155
2806.68	0.00294
2816.32	0.00295
2825.97	0.00395
2835.61	0.00431
2845.26	0.00588
2854.9	0.00957
2864.55	0.01237
2874.19	0.01107
2883.84	0.00878
2893.48	0.00879
2903.12	0.00982
2912.77	0.01429
2922.41	0.02109
2932.06	0.02964
2941.7	0.02752
2951.35	0.01605
2960.99	0.0086
2970.64	0.00558
2980.28	0.00418
2989.93	0.00329
2999.57	0.0035
3009.22	0.00309
3018.86	0.0027653
3028.51	0.00285
3038.15	0.0022444
3047.8	0.0024129
3057.44	0.00286
3067.09	0.0027022
3076.73	0.0023526
3086.38	0.0021755
3096.02	0.002109
3105.67	0.0023352
3115.31	0.001462
3124.95	0.00185032
3134.6	0.002123
3144.24	0.0024405
3153.89	0.00283
3163.53	0.00182102
3173.18	0.0023652
3182.82	0.001556
3192.47	0.0019843
3202.11	0.0020187
3211.76	0.0022579
3221.4	0.00184239
3231.05	0.0019947
3240.69	0.0019213
3250.34	0.0019995
3259.98	0.0020287
3269.63	0.001602
3279.27	0.0019659
3288.92	0.0017584
3298.56	0.0020235
3308.21	0.001534
3317.85	0.0022648
3327.49	0.001226
3337.14	0.0022108
3346.78	0.0019934
3356.43	0.0019539
3366.07	0.0022356
3375.72	0.0023246
3385.36	0.0020805
3395.01	0.001587
3404.65	0.0021215
3414.3	0.001685
3423.94	0.0019012
3433.59	0.0020136
3443.23	0.0017563
3452.88	0.0024054
3462.52	0.0020112
3472.17	0.0021731
3481.81	0.001259
3491.46	0.001474
3501.1	0.0020895
3510.75	0.002166
3520.39	0.0019518
3530.04	0.0020258
3539.68	0.00186697
3549.32	0.001548
3558.97	0.0022508
3568.61	0.001552
3578.26	0.0019472
3587.9	0.001563
3597.55	0.001437
3607.19	0.0020807
3616.84	0.0024009
3626.48	0.0019678
3636.13	0.0024326
3645.77	0.001684
3655.42	0.00301
3665.06	0.0026257
3674.71	0.0028
3684.35	0.0022066
3694	0.002043
3703.64	0.001699
3713.29	0.0022922
3722.93	0.001602
3732.58	0.0019437
3742.22	0.0022118
3751.86	0.0019711
3761.51	0.00184319
3771.15	0.00189318
3780.8	0.0023927
3790.44	0.0019059
3800.09	0.00161
3809.73	0.001972
3819.38	0.00180726
3829.02	0.0021268
3838.67	0.0022047
3848.31	0.00188478
3857.96	0.001532
3867.6	0.0019657
3877.25	0.002639
3886.89	0.0026404
3896.54	0.001577
3906.18	0.0027454
3915.83	0.0017784
3925.47	0.001517
3935.12	0.0021273
3944.76	0.001567
3954.41	0.0024819
3964.05	0.0020006
3973.69	0.0020593
3983.34	0.000973
3992.98	0.00171
