Infrared Spectrum: 5-Methyl-5-nonanol
Formula: C 10 H 22 O
CAS: 33933-78-7
State: gas
Instrument: HP-GC/MS/IRD
Origin: NIST Mass Spectrometry Data Center
1/CM	ABSORBANCE
550	0.0006777
562	0.0002673
574	0.0001998
586	0.0002484
598	0.0001755
610	0.0002079
622	0.0001323
634	0.0001026
646	9.18e-05
658	4.59e-05
670	5.67e-05
682	0.0001242
694	8.64e-05
706	0.0002862
718	0.0003645
730	0.0004941
742	0.0005265
754	0.0005049
766	0.0005886
778	0.0006318
790	0.0005994
802	0.0005022
814	0.0003348
826	0.0003159
838	0.0003078
850	0.000378
862	0.0004725
874	0.0006561
886	0.0009963
898	0.0017145
910	0.0021006
922	0.0014769
934	0.001215
946	0.0013959
958	0.001188
970	0.0007182
982	0.0005535
994	0.0006804
1006	0.0009828
1018	0.0016551
1030	0.0018414
1042	0.0015336
1054	0.0017955
1066	0.0020169
1078	0.0020682
1090	0.0018036
1102	0.0015822
1114	0.0017253
1126	0.0023382
1138	0.0029916
1150	0.0032589
1162	0.0030132
1174	0.0024057
1186	0.0019062
1198	0.0017253
1210	0.0018198
1222	0.0018549
1234	0.001971
1246	0.002052
1258	0.0021843
1270	0.0020493
1282	0.0018738
1294	0.0018738
1306	0.0018522
1318	0.0019575
1330	0.0021114
1342	0.0024138
1354	0.0022464
1366	0.0028026
1378	0.0041877
1390	0.0031671
1402	0.0015417
1414	0.0011259
1426	0.0011799
1438	0.0015957
1450	0.0024759
1462	0.003537
1474	0.002808
1486	0.0012663
1498	0.000675
1510	0.0005103
1522	0.0003888
1534	0.0003132
1546	0.0002376
1558	0.0002133
1570	0.0001512
1582	0.0001539
1594	0.0001323
1606	0.0001134
1618	0.0001323
1630	0.0001161
1642	9.99e-05
1654	0.0001107
1666	8.91e-05
1678	9.45e-05
1690	9.18e-05
1702	7.56e-05
1714	8.37e-05
1726	8.64e-05
1738	6.21e-05
1750	7.56e-05
1762	4.86e-05
1774	7.29e-05
1786	5.67e-05
1798	4.59e-05
1810	5.4e-05
1822	7.02e-05
1834	4.32e-05
1846	3.51e-05
1858	2.43e-05
1870	3.78e-05
1882	2.16e-05
1894	2.16e-05
1906	1.08e-05
1918	2.16e-05
1930	8.1e-06
1942	2.43e-05
1954	1.35e-05
1966	2.97e-05
1978	8.1e-06
1990	3.78e-05
2002	4.32e-05
2014	3.51e-05
2026	3.78e-05
2038	7.02e-05
2050	3.51e-05
2062	4.59e-05
2074	6.21e-05
2086	3.24e-05
2098	2.7e-05
2110	4.59e-05
2122	3.51e-05
2134	2.16e-05
2146	2.16e-05
2158	1.62e-05
2170	2.97e-05
2182	5.4e-05
2194	6.21e-05
2206	4.86e-05
2218	1.89e-05
2230	3.51e-05
2242	3.78e-05
2254	5.13e-05
2266	5.4e-05
2278	3.51e-05
2290	2.97e-05
2302	6.75e-05
2314	4.32e-05
2326	6.21e-05
2338	2.97e-05
2350	8.1e-05
2362	7.56e-05
2374	6.75e-05
2386	7.29e-05
2398	5.13e-05
2410	5.13e-05
2422	5.94e-05
2434	5.67e-05
2446	4.59e-05
2458	1.08e-05
2470	4.59e-05
2482	4.05e-05
2494	2.97e-05
2506	2.7e-05
2518	4.59e-05
2530	3.78e-05
2542	8.91e-05
2554	7.56e-05
2566	9.99e-05
2578	9.72e-05
2590	0.0001404
2602	0.0001485
2614	0.000135
2626	0.0001404
2638	0.0001512
2650	0.0002187
2662	0.0002592
2674	0.00027
2686	0.000243
2698	0.000297
2710	0.0002808
2722	0.0003483
2734	0.0004536
2746	0.000513
2758	0.000459
2770	0.0005454
2782	0.000648
2794	0.0008046
2806	0.0010773
2818	0.0013932
2830	0.0019656
2842	0.0031158
2854	0.0052407
2866	0.0089748
2878	0.0114021
2890	0.0101439
2902	0.0098145
2914	0.0130518
2926	0.0186354
2938	0.0266166
2950	0.0233226
2962	0.0235764
2974	0.0224073
2986	0.0105543
2998	0.0046197
3010	0.0025596
3022	0.0018117
3034	0.0013095
3046	0.000999
3058	0.0007938
3070	0.0006642
3082	0.0005994
3094	0.0005292
3106	0.0004995
3118	0.000405
3130	0.0003375
3142	0.0003078
3154	0.000324
3166	0.0002889
3178	0.0002673
3190	0.0002025
3202	0.0002592
3214	0.0001701
3226	0.0001431
3238	0.0001323
3250	8.64e-05
3262	2.7e-05
3274	6.75e-05
3286	8.37e-05
3298	7.02e-05
3310	2.97e-05
3322	7.29e-05
3334	9.72e-05
3346	8.91e-05
3358	7.02e-05
3370	0.0001134
3382	8.64e-05
3394	0.0001134
3406	0.0001242
3418	0.0001269
3430	6.21e-05
3442	0.0001188
3454	0.0001053
3466	9.45e-05
3478	5.13e-05
3490	6.75e-05
3502	8.91e-05
3514	0.0001053
3526	8.64e-05
3538	8.64e-05
3550	5.67e-05
3562	5.4e-05
3574	4.59e-05
3586	8.91e-05
3598	8.37e-05
3610	0.0001944
3622	0.0004347
3634	0.0010557
3646	0.0010476
3658	0.000405
3670	0.0001917
3682	0.0001539
3694	0.0001053
3706	0.0001161
3718	7.83e-05
3730	8.37e-05
3742	0.000135
3754	8.91e-05
3766	8.1e-05
3778	0.0001188
3790	8.91e-05
3802	0.0001593
3814	0.0001917
3826	0.0001782
3838	0.0001566
