Infrared Spectrum: BENZIMIDAZOLE, 4,6,7-TRICHLORO-2-(TRIFLUOROMETHYL)-
Formula: C8 H2 Cl3 F3 N2
CAS: 3393-59-7
State: SOLID (KBr DISC)
Class: COBLENTZ III
Instrument: UNICAM SP-200
Sampling: TRANSMISSION
Resolution: 2
Origin: FISONS LTD., VIA S.D.C. (DR. G. T. NEWBOLD)
1/CM	TRANSMITTANCE
654.558	0.83
666.141	0.828
677.725	0.802
689.308	0.789
700.891	0.799
712.474	0.789
724.058	0.773
735.641	0.748
747.224	0.554
758.808	0.785
770.391	0.725
781.974	0.772
793.557	0.751
805.141	0.72
816.724	0.604
828.307	0.631
839.891	0.699
851.474	0.687
863.057	0.657
874.64	0.582
886.224	0.658
897.807	0.687
909.39	0.707
920.974	0.716
932.557	0.722
944.14	0.722
955.723	0.71
967.307	0.674
978.89	0.614
990.473	0.4199
1002.06	0.53
1013.64	0.3491
1025.22	0.724
1036.81	0.733
1048.39	0.717
1059.97	0.707
1071.56	0.685
1083.14	0.659
1094.72	0.629
1106.31	0.588
1117.89	0.539
1129.47	0.474
1141.06	0.372
1152.64	0.2401
1164.22	0.074
1175.81	0.031
1187.39	0.0949
1198.97	0.067
1210.56	0.3019
1222.14	0.5899
1233.72	0.472
1245.31	0.18
1256.89	0.4149
1268.47	0.4202
1280.06	0.5228
1291.64	0.687
1303.22	0.634
1314.81	0.353
1326.39	0.3118
1337.97	0.7319
1349.55	0.766
1361.14	0.74
1372.72	0.659
1384.3	0.579
1395.89	0.419
1407.47	0.281
1419.05	0.6139
1430.64	0.665
1442.22	0.605
1453.8	0.4731
1465.39	0.145
1476.97	0.5969
1488.55	0.689
1500.14	0.733
1511.72	0.784
1523.3	0.802
1534.89	0.8
1546.47	0.725
1558.05	0.606
1569.64	0.663
1581.22	0.601
1592.8	0.682
1604.39	0.712
1615.97	0.727
1627.55	0.701
1639.14	0.734
1650.72	0.74
1662.3	0.736
1673.89	0.726
1685.47	0.731
1697.05	0.725
1708.64	0.712
1720.22	0.692
1731.8	0.709
1743.39	0.721
1754.97	0.725
1766.55	0.729
1778.14	0.727
1789.72	0.729
1801.3	0.74
1812.89	0.739
1824.47	0.738
1836.05	0.734
1847.64	0.739
1859.22	0.74
1870.8	0.743
1882.39	0.74
1893.97	0.739
1905.55	0.738
1917.14	0.736
1928.72	0.732
1940.3	0.734
1951.89	0.74
1963.47	0.741
1975.05	0.741
1986.64	0.741
1998.22	0.7399
2009.8	0.7392
2021.39	0.739
2032.97	0.739
2044.55	0.7384
2056.14	0.7341
2067.72	0.731
2079.3	0.729
2090.89	0.728
2102.47	0.723
2114.05	0.721
2125.63	0.721
2137.22	0.721
2148.8	0.7179
2160.38	0.713
2171.97	0.7087
2183.55	0.7061
2195.13	0.7048
2206.72	0.703
2218.3	0.7002
2229.88	0.6988
2241.47	0.6903
2253.05	0.6804
2264.63	0.6791
2276.22	0.6757
2287.8	0.6696
2299.38	0.6614
2310.97	0.652
2322.55	0.6507
2334.13	0.6462
2345.72	0.6348
2357.3	0.6299
2368.88	0.628
2380.47	0.6267
2392.05	0.624
2403.63	0.6185
2415.22	0.61
2426.8	0.5892
2438.38	0.5748
2449.97	0.5623
2461.55	0.5544
2473.13	0.5481
2484.72	0.5383
2496.3	0.5252
2507.88	0.5124
2519.47	0.501
2531.05	0.4889
2542.63	0.4728
2554.22	0.4615
2565.8	0.4563
2577.38	0.443
2588.97	0.439
2600.55	0.438
2612.13	0.4359
2623.72	0.4149
2635.3	0.3916
2646.88	0.371
2658.47	0.37
2670.05	0.3706
2681.63	0.3817
2693.22	0.387
2704.8	0.3723
2716.38	0.361
2727.97	0.36
2739.55	0.36
2751.13	0.3539
2762.72	0.35
2774.3	0.3525
2785.88	0.3702
2797.47	0.3911
2809.05	0.408
2820.63	0.3979
2832.22	0.3854
2843.8	0.3713
2855.38	0.36
2866.96	0.3634
2878.55	0.3735
2890.13	0.3983
2901.71	0.4006
2913.3	0.3842
2924.88	0.3763
2936.46	0.3801
2948.05	0.3999
2959.63	0.4274
2971.21	0.438
2982.8	0.4225
2994.38	0.4084
3005.96	0.3973
3017.55	0.3989
3029.13	0.4319
3040.71	0.4506
3052.3	0.4522
3063.88	0.4489
3075.46	0.446
3087.05	0.4515
3098.63	0.474
3110.21	0.4919
3121.8	0.5019
3133.38	0.509
3144.96	0.5232
3156.55	0.5502
3168.13	0.5756
3179.71	0.5979
3191.3	0.6033
3202.88	0.6124
3214.46	0.6184
3226.05	0.6288
3237.63	0.6395
3249.21	0.6476
3260.8	0.6536
3272.38	0.6591
3283.96	0.6634
3295.55	0.667
3307.13	0.669
3318.71	0.669
3330.3	0.669
3341.88	0.669
3353.46	0.669
3365.05	0.6687
3376.63	0.6638
3388.21	0.661
3399.8	0.6597
3411.38	0.6523
3422.96	0.6476
3434.55	0.645
3446.13	0.6438
3457.71	0.642
3469.3	0.6374
3480.88	0.6349
3492.46	0.635
3504.05	0.6356
3515.63	0.6379
3527.21	0.6392
3538.8	0.641
3550.38	0.642
3561.96	0.646
3573.55	0.6473
3585.13	0.649
3596.71	0.65
3608.3	0.655
3619.88	0.656
3631.46	0.657
3643.04	0.659
3654.63	0.6643
3666.21	0.666
3677.79	0.6698
3689.38	0.6712
3700.96	0.6794
3712.54	0.6806
3724.13	0.682
3735.71	0.682
3747.29	0.681
3758.88	0.68
3770.46	0.68
3782.04	0.68
3793.63	0.68
3805.21	0.6791
3816.79	0.6777
3828.38	0.674
3839.96	0.6723
3851.54	0.67
3863.13	0.67
3874.71	0.6695
3886.29	0.669
3897.88	0.6629
3909.46	0.662
3921.04	0.6637
3932.63	0.6678
3944.21	0.6648
3955.79	0.661
3967.38	0.661
3978.96	0.661
3990.54	0.6597
4002.13	0.6594
4013.71	0.6581
4025.29	0.6569
4036.88	0.6531
4048.46	0.651
4060.04	0.651
4071.63	0.65
4083.21	0.65
4094.79	0.65
4106.38	0.65
4117.96	0.649
4129.54	0.648
4141.13	0.648
4152.71	0.6458
4164.29	0.641
4175.88	0.6392
4187.46	0.639
4199.04	0.639
4210.63	0.6374
4222.21	0.636
4233.79	0.638
4245.38	0.6381
4256.96	0.635
4268.54	0.631
4280.13	0.631
4291.71	0.6315
4303.29	0.6368
4314.88	0.639
4326.46	0.6356
4338.04	0.634
4349.63	0.632
4361.21	0.631
4372.79	0.631
4384.38	0.632
4395.96	0.631
4407.54	0.63
4419.12	0.63
4430.71	0.629
4442.29	0.628
4453.87	0.629
4465.46	0.629
4477.04	0.628
4488.62	0.6254
4500.21	0.62
4511.79	0.619
4523.37	0.62
4534.96	0.62
4546.54	0.6173
4558.12	0.617
4569.71	0.6182
4581.29	0.62
4592.87	0.62
4604.46	0.6168
4616.04	0.61
4627.62	0.61
4639.21	0.61
4650.79	0.609
4662.37	0.609
4673.96	0.609
4685.54	0.609
4697.12	0.609
4708.71	0.608
4720.29	0.608
4731.87	0.6069
4743.46	0.6056
4755.04	0.604
4766.62	0.603
4778.21	0.602
4789.79	0.602
4801.37	0.602
4812.96	0.602
4824.54	0.602
4836.12	0.602
4847.71	0.602
4859.29	0.601
4870.87	0.6
4882.46	0.6
4894.04	0.6
4905.62	0.599
4917.21	0.599
4928.79	0.598
4940.37	0.595
4951.96	0.594
4963.54	0.594
4975.12	0.5969
4986.71	0.598
4998.29	0.598
