Infrared Spectrum: 4'-Nitrobenzanilide
Formula: C 13 H 10 N 2 O 3
CAS: 3393-96-2
State: gas
Origin: EPA-IR VAPOR PHASE LIBRARY
1/CM	ABSORBANCE
549.8	0.003389
559.445	0.002689
569.09	0.002459
578.734	0.003859
588.379	0.004619
598.024	0.002379
607.669	0.002129
617.313	0.001799
626.958	0.001429
636.603	0.001449
646.248	0.0012575
655.893	0.001919
665.537	0.002969
675.182	0.005219
684.827	0.008739
694.472	0.009759
704.116	0.009889
713.761	0.013099
723.406	0.011569
733.051	0.010679
742.695	0.015279
752.34	0.014179
761.985	0.007439
771.63	0.003849
781.275	0.002959
790.919	0.003069
800.564	0.003019
810.209	0.003479
819.854	0.006719
829.498	0.007839
839.143	0.008049
848.788	0.025529
858.433	0.014939
868.078	0.008689
877.722	0.005209
887.367	0.004169
897.012	0.003599
906.657	0.002819
916.301	0.002149
925.946	0.001589
935.591	0.001349
945.236	0.001419
954.88	0.0012506
964.525	0.001439
974.17	0.001539
983.815	0.001599
993.46	0.001919
1003.1	0.002819
1012.75	0.009259
1022.39	0.004019
1032.04	0.002959
1041.68	0.001999
1051.33	0.002389
1060.97	0.003119
1070.62	0.005449
1080.26	0.006619
1089.91	0.009849
1099.55	0.009029
1109.2	0.004959
1118.84	0.002879
1128.49	0.001769
1138.13	0.001389
1147.78	0.0012737
1157.42	0.001509
1167.07	0.001709
1176.71	0.002529
1186.36	0.002749
1196	0.003069
1205.64	0.005039
1215.29	0.008699
1224.93	0.019679
1234.58	0.030159
1244.22	0.029259
1253.87	0.015959
1263.51	0.010579
1273.16	0.011259
1282.8	0.015799
1292.45	0.021039
1302.09	0.031029
1311.74	0.036219
1321.38	0.033969
1331.03	0.027329
1340.67	0.041389
1350.32	0.051319
1359.96	0.029749
1369.61	0.015339
1379.25	0.010109
1388.9	0.008239
1398.54	0.006909
1408.18	0.007399
1417.83	0.010309
1427.47	0.022929
1437.12	0.048199
1446.76	0.027769
1456.41	0.011839
1466.05	0.011159
1475.7	0.016109
1485.34	0.023979
1494.99	0.041479
1504.63	0.062259
1514.28	0.080689
1523.92	0.078039
1533.57	0.056439
1543.21	0.054759
1552.86	0.035299
1562.5	0.018529
1572.15	0.013789
1581.79	0.017019
1591.44	0.026589
1601.08	0.039689
1610.73	0.023019
1620.37	0.010059
1630.01	0.005689
1639.66	0.004519
1649.3	0.004149
1658.95	0.004309
1668.59	0.005039
1678.24	0.006199
1687.88	0.010599
1697.53	0.026959
1707.17	0.048179
1716.82	0.042849
1726.46	0.020129
1736.11	0.009379
1745.75	0.005459
1755.4	0.003819
1765.04	0.003269
1774.69	0.003099
1784.33	0.002579
1793.98	0.002269
1803.62	0.001939
1813.27	0.001489
1822.91	0.001379
1832.55	0.0012957
1842.2	0.0012384
1851.84	0.001329
1861.49	0.0012436
1871.13	0.001349
1880.78	0.0010702
1890.42	0.0009821
1900.07	0.0010344
1909.71	0.001329
1919.36	0.001449
1929	0.001609
1938.65	0.001639
1948.29	0.001559
1957.94	0.001319
1967.58	0.0008915
1977.23	0.0008276
1986.87	0.0007122
1996.52	0.0006411
2006.16	0.0006701
2015.81	0.0006402
2025.45	0.0007177
2035.1	0.0006918
2044.74	0.0007309
2054.38	0.0007652
2064.03	0.0006851
2073.67	0.0006012
2083.32	0.0005881
2092.96	0.00064
2102.61	0.0006466
2112.25	0.000648
2121.9	0.0006305
2131.54	0.0007144
2141.19	0.0006257
2150.83	0.0006105
2160.48	0.0006354
2170.12	0.0006732
2179.77	0.0007323
2189.41	0.0006657
2199.06	0.000734
2208.7	0.0007019
2218.35	0.0005829
2227.99	0.0006273
2237.64	0.0005332
2247.28	0.000574
2256.92	0.0005544
2266.57	0.0005629
2276.21	0.0005948
2285.86	0.0006662
2295.5	0.0006517
2305.15	0.0006975
2314.79	0.000854
2324.44	0.0007732
2334.08	0.0007567
2343.73	0.0008293
2353.37	0.000813
2363.02	0.0007458
2372.66	0.0007194
2382.31	0.0007586
2391.95	0.0008458
2401.6	0.0007917
2411.24	0.0007812
2420.89	0.0008162
2430.53	0.0007547
2440.18	0.0007842
2449.82	0.0008486
2459.47	0.0007887
2469.11	0.0007708
2478.75	0.0006629
2488.4	0.0006979
2498.04	0.0005858
2507.69	0.0006484
2517.33	0.0006065
2526.98	0.000638
2536.62	0.000778
2546.27	0.0007629
2555.91	0.0006343
2565.56	0.0006373
2575.2	0.0006239
2584.85	0.000739
2594.49	0.0007633
2604.14	0.0007831
2613.78	0.0007363
2623.43	0.0006938
2633.07	0.000567
2642.72	0.0005788
2652.36	0.0005567
2662.01	0.0006056
2671.65	0.0006539
2681.29	0.0008158
2690.94	0.0008993
2700.58	0.0008331
2710.23	0.0008934
2719.87	0.0006639
2729.52	0.0005856
2739.16	0.0006689
2748.81	0.0006139
2758.45	0.000699
2768.1	0.0006656
2777.74	0.0006019
2787.39	0.0005485
2797.03	0.0005294
2806.68	0.0005628
2816.32	0.0007063
2825.97	0.0006058
2835.61	0.000778
2845.26	0.0008536
2854.9	0.000799
2864.55	0.0010459
2874.19	0.0012024
2883.84	0.0012521
2893.48	0.0011165
2903.12	0.0011679
2912.77	0.0009394
2922.41	0.0007711
2932.06	0.0008959
2941.7	0.0009744
2951.35	0.000923
2960.99	0.0007985
2970.64	0.0006437
2980.28	0.0006021
2989.93	0.0007884
2999.57	0.0008634
3009.22	0.001529
3018.86	0.002629
3028.51	0.004369
3038.15	0.004629
3047.8	0.003979
3057.44	0.005179
3067.09	0.008659
3076.73	0.006869
3086.38	0.004719
3096.02	0.003739
3105.67	0.002869
3115.31	0.002019
3124.95	0.0011039
3134.6	0.0007977
3144.24	0.0005233
3153.89	0.00033487
3163.53	0.0004048
3173.18	0.0002395
3182.82	0.000419
3192.47	0.0004265
3202.11	0.0004468
3211.76	0.000524
3221.4	0.0002775
3231.05	0.000484
3240.69	0.00029
3250.34	0.00032085
3259.98	0.00037799
3269.63	0.0004687
3279.27	0.0002634
3288.92	0.0004168
3298.56	0.0004994
3308.21	0.00033014
3317.85	0.0004889
3327.49	0.00034628
3337.14	0.0002508
3346.78	0.0004175
3356.43	0.0004958
3366.07	0.00033334
3375.72	0.0005755
3385.36	0.0007271
3395.01	0.0010519
3404.65	0.001899
3414.3	0.001899
3423.94	0.001379
3433.59	0.0012406
3443.23	0.001839
3452.88	0.002989
3462.52	0.003789
3472.17	0.002839
3481.81	0.0012525
3491.46	0.0006145
3501.1	0.0004442
3510.75	0.0005501
3520.39	0.0004439
3530.04	0.0003827
3539.68	0.0004382
3549.32	0.00036276
3558.97	0.0004338
3568.61	0.0002065
3578.26	0.0002544
3587.9	0.00034308
3597.55	0.000119
3607.19	0.000187
3616.84	0.0002787
3626.48	0.000276
3636.13	0.00038708
3645.77	0.00039004
3655.42	0.0004552
3665.06	0.0005047
3674.71	0.000133
3684.35	0.000192
3694	0.0005256
3703.64	0.0003282
3713.29	0.00034525
3722.93	0.00031888
3732.58	0.0004238
3742.22	0.00032204
3751.86	0.000147
3761.51	0.0002763
3771.15	0.0002837
3780.8	0.0002536
3790.44	0.0002082
3800.09	0.0004133
3809.73	0.0002642
3819.38	7.7e-05
3829.02	0.0002707
3838.67	0.0002223
3848.31	0.0002074
3857.96	0.00029334
3867.6	0.0007831
3877.25	4.4e-05
3886.89	0.000222
3896.54	0.0002366
3906.18	0.000305046
3915.83	0.00033922
3925.47	0.0002738
3935.12	0.0004769
3944.76	0.0004159
3954.41	0.000131
3964.05	0.0004225
3973.69	0.0005585
3983.34	0.00037167
3992.98	0.0002841
