Infrared Spectrum: BENZENE, 4-CHLORO-1-(DIMETHOXYMETHYL)-
Formula: C9 H11 Cl O2
CAS: 3395-81-1
State: LIQUID (NEAT)
Class: COBLENTZ III
Instrument: PERKIN-ELMER 521 (GRATING)
Instrument parameters: FILTERS AT 3150, 2500, 2000, 1150, 700, 410 AND GRATING CHANGES AT 2000, 630 CM^-^1
Sampling: TRANSMISSION
Path length: CAPILLARY, KBr CRYSTALS
Resolution: 4
Origin: STANDARD OIL OF OHIO
1/CM	TRANSMITTANCE
388.217	0.737
397.771	0.768
407.325	0.792
416.88	0.817
426.434	0.821
435.988	0.829
445.542	0.834
455.096	0.854
464.65	0.881
474.205	0.86
483.759	0.687
493.313	0.739
502.867	0.828
512.421	0.747
521.975	0.76
531.53	0.81
541.084	0.86
550.638	0.865
560.192	0.916
569.746	0.916
579.3	0.93
588.855	0.935
598.409	0.936
607.963	0.936
617.517	0.934
627.071	0.922
636.626	0.877
646.18	0.916
655.734	0.939
665.288	0.94
674.842	0.939
684.396	0.92
693.951	0.865
703.505	0.915
713.059	0.92
722.613	0.905
732.167	0.823
741.721	0.893
751.276	0.918
760.83	0.906
770.384	0.92
779.938	0.915
789.492	0.88
799.046	0.819
808.601	0.3439
818.155	0.379
827.709	0.529
837.263	0.707
846.817	0.843
856.372	0.854
865.926	0.785
875.48	0.801
885.034	0.687
894.588	0.714
904.142	0.73
913.697	0.467
923.251	0.7681
932.805	0.848
942.359	0.792
951.913	0.741
961.467	0.708
971.022	0.606
980.576	0.466
990.13	0.359
999.684	0.621
1009.24	0.706
1018.79	0.258
1028.35	0.707
1037.9	0.59
1047.45	0.3459
1057.01	0.147
1066.56	0.215
1076.12	0.276
1085.67	0.291
1095.23	0.182
1104.78	0.161
1114.33	0.233
1123.89	0.5131
1133.44	0.699
1143	0.763
1152.55	0.739
1162.11	0.727
1171.66	0.6799
1181.21	0.669
1190.77	0.485
1200.32	0.458
1209.88	0.34
1219.43	0.492
1228.98	0.736
1238.54	0.837
1248.09	0.861
1257.65	0.879
1267.2	0.873
1276.76	0.849
1286.31	0.853
1295.86	0.803
1305.42	0.784
1314.97	0.871
1324.53	0.855
1334.08	0.778
1343.63	0.556
1353.19	0.366
1362.74	0.445
1372.3	0.593
1381.85	0.755
1391.41	0.775
1400.96	0.659
1410.51	0.649
1420.07	0.823
1429.62	0.849
1439.18	0.708
1448.73	0.631
1458.28	0.681
1467.84	0.63
1477.39	0.688
1486.95	0.5419
1496.5	0.4521
1506.06	0.805
1515.61	0.889
1525.16	0.911
1534.72	0.915
1544.27	0.914
1553.83	0.912
1563.38	0.91
1572.93	0.894
1582.49	0.786
1592.04	0.843
1601.6	0.5689
1611.15	0.867
1620.71	0.916
1630.26	0.915
1639.81	0.905
1649.37	0.911
1658.92	0.926
1668.48	0.936
1678.03	0.941
1687.58	0.941
1697.14	0.943
1706.69	0.943
1716.25	0.939
1725.8	0.939
1735.36	0.946
1744.91	0.948
1754.46	0.949
1764.02	0.946
1773.57	0.949
1783.13	0.941
1792.68	0.931
1802.23	0.939
1811.79	0.948
1821.34	0.948
1830.9	0.952
1840.45	0.953
1850.01	0.955
1859.56	0.957
1869.11	0.958
1878.67	0.954
1888.22	0.951
1897.78	0.939
1907.33	0.924
1916.88	0.914
1926.44	0.926
1935.99	0.94
1945.55	0.941
1955.1	0.936
1964.66	0.935
1974.21	0.942
1983.76	0.949
1993.32	0.954
2002.87	0.9525
2012.43	0.948
2021.98	0.9465
2031.53	0.943
2041.09	0.944
2050.64	0.95
2060.2	0.948
2069.75	0.942
2079.31	0.9365
2088.86	0.94
2098.41	0.9515
2107.97	0.959
2117.52	0.9605
2127.08	0.96
2136.63	0.9585
2146.18	0.959
2155.74	0.959
2165.29	0.959
2174.85	0.959
2184.4	0.96
2193.96	0.965
2203.51	0.9675
2213.06	0.969
2222.62	0.9675
2232.17	0.966
2241.73	0.968
2251.28	0.965
2260.84	0.9605
2270.39	0.959
2279.94	0.957
2289.5	0.9635
2299.05	0.9645
2308.61	0.966
2318.16	0.969
2327.71	0.969
2337.27	0.969
2346.82	0.968
2356.38	0.9675
2365.93	0.969
2375.49	0.9675
2385.04	0.965
2394.59	0.966
2404.15	0.9675
2413.7	0.967
2423.26	0.968
2432.81	0.9705
2442.36	0.972
2451.92	0.97
2461.47	0.97
2471.03	0.9635
2480.58	0.969
2490.14	0.96
2499.69	0.959
2509.24	0.959
2518.8	0.9585
2528.35	0.96
2537.91	0.957
2547.46	0.953
2557.01	0.951
2566.57	0.949
2576.12	0.949
2585.68	0.946
2595.23	0.9475
2604.79	0.948
2614.34	0.947
2623.89	0.9475
2633.45	0.9425
2643	0.936
2652.56	0.928
2662.11	0.925
2671.66	0.928
2681.22	0.9375
2690.77	0.942
2700.33	0.9415
2709.88	0.941
2719.44	0.942
2728.99	0.9425
2738.54	0.941
2748.1	0.938
2757.65	0.932
2767.21	0.925
2776.76	0.9195
2786.31	0.913
2795.87	0.898
2805.42	0.872
2814.98	0.7996
2824.53	0.5969
2834.09	0.4675
2843.64	0.688
2853.19	0.7555
2862.75	0.7475
2872.3	0.6821
2881.86	0.61
2891.41	0.5685
2900.96	0.56
2910.52	0.57
2920.07	0.5955
2929.63	0.5276
2939.18	0.4615
2948.74	0.491
2958.29	0.4895
2967.84	0.6069
2977.4	0.676
2986.95	0.6281
2996.51	0.6125
3006.06	0.7135
3015.61	0.809
3025.17	0.85
3034.72	0.853
3044.28	0.863
3053.83	0.8565
3063.39	0.8615
3072.94	0.8665
3082.49	0.8835
3092.05	0.8905
3101.6	0.901
3111.16	0.916
3120.71	0.9225
3130.26	0.9335
3139.82	0.9335
3149.37	0.935
3158.93	0.9365
3168.48	0.94
3178.04	0.941
3187.59	0.943
3197.14	0.9465
3206.7	0.947
3216.25	0.9475
3225.81	0.948
3235.36	0.948
3244.91	0.951
3254.47	0.951
3264.02	0.9515
3273.58	0.951
3283.13	0.95
3292.69	0.949
3302.24	0.949
3311.79	0.948
3321.35	0.948
3330.9	0.948
3340.46	0.9475
3350.01	0.947
3359.56	0.947
3369.12	0.947
3378.67	0.947
3388.23	0.947
3397.78	0.9465
3407.34	0.946
3416.89	0.948
3426.44	0.947
3436	0.9465
3445.55	0.9465
3455.11	0.946
3464.66	0.946
3474.22	0.947
3483.77	0.946
3493.32	0.945
3502.88	0.945
3512.43	0.945
3521.99	0.946
3531.54	0.945
3541.09	0.946
3550.65	0.9455
3560.2	0.946
3569.76	0.9465
3579.31	0.9465
3588.87	0.947
3598.42	0.946
3607.97	0.947
3617.53	0.9475
3627.08	0.9475
3636.64	0.947
3646.19	0.947
3655.74	0.9455
3665.3	0.944
3674.85	0.9465
3684.41	0.947
3693.96	0.947
3703.52	0.946
3713.07	0.946
3722.62	0.9455
3732.18	0.9465
3741.73	0.948
3751.29	0.948
3760.84	0.947
3770.39	0.9455
3779.95	0.945
3789.5	0.945
3799.06	0.9465
3808.61	0.9465
3818.17	0.945
3827.72	0.946
3837.27	0.946
3846.83	0.9455
3856.38	0.9455
3865.94	0.943
3875.49	0.94
3885.04	0.9405
3894.6	0.94
3904.15	0.941
3913.71	0.941
3923.26	0.9405
3932.82	0.937
3942.37	0.936
3951.92	0.936
3961.48	0.934
3971.03	0.932
3980.59	0.932
3990.14	0.9305
3999.69	0.929
