Infrared Spectrum: BENZENE, 1-METHYL-4-(DIMETHOXYMETHYL)-
Formula: C10 H14 O2
CAS: 3395-83-3
State: LIQUID (NEAT)
Class: COBLENTZ III
Instrument: PERKIN-ELMER 180 (GRATING)
Instrument parameters: GRATING CHANGES AT 2000, 1000, 500, 250 CM^-^1
Sampling: TRANSMISSION
Path length: CAPILLARY, KBr PLATES
Resolution: 4
Origin: STANDARD OIL OF OHIO
1/CM	TRANSMITTANCE
303.942	0.17
313.278	0.244
322.614	0.295
331.95	0.345
341.286	0.405
350.623	0.468
359.959	0.5
369.295	0.567
378.631	0.641
387.967	0.691
397.303	0.723
406.639	0.74
415.975	0.758
425.311	0.75
434.648	0.757
443.984	0.758
453.32	0.79
462.656	0.833
471.992	0.84
481.328	0.821
490.664	0.771
500	0.774
509.336	0.813
518.673	0.81
528.009	0.825
537.345	0.803
546.681	0.845
556.017	0.858
565.353	0.82
574.689	0.885
584.025	0.89
593.361	0.89
602.698	0.902
612.034	0.901
621.37	0.901
630.706	0.893
640.042	0.86
649.378	0.813
658.714	0.89
668.05	0.902
677.387	0.905
686.723	0.901
696.059	0.9
705.395	0.896
714.731	0.89
724.067	0.897
733.403	0.9
742.739	0.894
752.075	0.862
761.412	0.858
770.748	0.804
780.084	0.3321
789.42	0.766
798.756	0.6121
808.092	0.2009
817.428	0.391
826.764	0.767
836.1	0.814
845.437	0.822
854.773	0.84
864.109	0.8
873.445	0.801
882.781	0.716
892.117	0.774
901.453	0.6991
910.789	0.3531
920.125	0.741
929.462	0.775
938.798	0.703
948.134	0.652
957.47	0.614
966.806	0.4521
976.142	0.35
985.478	0.436
994.814	0.387
1004.15	0.654
1013.49	0.67
1022.82	0.5529
1032.16	0.507
1041.49	0.175
1050.83	0.014
1060.17	0.0679
1069.5	0.183
1078.84	0.182
1088.18	0.263
1097.51	0.005
1106.85	0.092
1116.18	0.299
1125.52	0.596
1134.86	0.701
1144.19	0.712
1153.53	0.658
1162.86	0.689
1172.2	0.4195
1181.54	0.446
1190.87	0.319
1200.21	0.24
1209.54	0.46
1218.88	0.412
1228.22	0.7
1237.55	0.784
1246.89	0.815
1256.23	0.834
1265.56	0.825
1274.9	0.775
1284.23	0.772
1293.57	0.802
1302.91	0.648
1312.24	0.785
1321.58	0.79
1330.91	0.718
1340.25	0.4562
1349.59	0.238
1358.92	0.304
1368.26	0.5
1377.59	0.648
1386.93	0.786
1396.27	0.769
1405.6	0.673
1414.94	0.727
1424.28	0.715
1433.61	0.579
1442.95	0.469
1452.28	0.536
1461.62	0.544
1470.96	0.6689
1480.29	0.762
1489.63	0.792
1498.96	0.771
1508.3	0.5889
1517.64	0.773
1526.97	0.839
1536.31	0.855
1545.64	0.858
1554.98	0.864
1564.32	0.87
1573.65	0.86
1582.99	0.871
1592.33	0.869
1601.66	0.835
1611	0.7439
1620.33	0.7959
1629.67	0.874
1639.01	0.873
1648.34	0.869
1657.68	0.88
1667.01	0.892
1676.35	0.898
1685.69	0.881
1695.02	0.878
1704.36	0.854
1713.7	0.876
1723.03	0.865
1732.37	0.899
1741.7	0.9
1751.04	0.897
1760.38	0.902
1769.71	0.904
1779.05	0.909
1788.38	0.905
1797.72	0.891
1807.06	0.89
1816.39	0.902
1825.73	0.908
1835.06	0.913
1844.4	0.91
1853.74	0.908
1863.07	0.912
1872.41	0.912
1881.75	0.91
1891.08	0.901
1900.42	0.891
1909.75	0.871
1919.09	0.879
1928.43	0.899
1937.76	0.902
1947.1	0.9
1956.43	0.897
1965.77	0.903
1975.11	0.909
1984.44	0.917
1993.78	0.919
2003.11	0.9135
2012.45	0.907
2021.79	0.91
2031.12	0.905
2040.46	0.9145
2049.8	0.916
2059.13	0.913
2068.47	0.904
2077.8	0.9035
2087.14	0.906
2096.48	0.9116
2105.81	0.9221
2115.15	0.9266
2124.48	0.927
2133.82	0.9234
2143.16	0.9199
2152.49	0.921
2161.83	0.9231
2171.16	0.9266
2180.5	0.9272
2189.84	0.9292
2199.17	0.9291
2208.51	0.9332
2217.85	0.935
2227.18	0.934
2236.52	0.9381
2245.85	0.938
2255.19	0.938
2264.53	0.9364
2273.86	0.933
2283.2	0.93
2292.53	0.931
2301.87	0.9386
2311.21	0.9378
2320.54	0.9363
2329.88	0.9392
2339.21	0.9353
2348.55	0.949
2357.89	0.9353
2367.22	0.9282
2376.56	0.9344
2385.9	0.937
2395.23	0.9357
2404.57	0.935
2413.9	0.937
2423.24	0.9372
2432.58	0.938
2441.91	0.9377
2451.25	0.94
2460.58	0.942
2469.92	0.943
2479.26	0.939
2488.59	0.944
2497.93	0.942
2507.26	0.9392
2516.6	0.9383
2525.94	0.9372
2535.27	0.939
2544.61	0.9385
2553.95	0.94
2563.28	0.9392
2572.62	0.9299
2581.95	0.925
2591.29	0.925
2600.63	0.9306
2609.96	0.933
2619.3	0.9302
2628.63	0.9244
2637.97	0.9172
2647.31	0.91
2656.64	0.9052
2665.98	0.9043
2675.31	0.9142
2684.65	0.9223
2693.99	0.924
2703.32	0.9193
2712.66	0.9131
2722	0.9076
2731.33	0.9039
2740.67	0.9154
2750	0.9143
2759.34	0.9075
2768.68	0.8991
2778.01	0.8906
2787.35	0.8731
2796.68	0.8428
2806.02	0.7686
2815.36	0.6227
2824.69	0.335
2834.03	0.5415
2843.36	0.6837
2852.7	0.6532
2862.04	0.5785
2871.37	0.5014
2880.71	0.4526
2890.05	0.4237
2899.38	0.3985
2908.72	0.4034
2918.05	0.3569
2927.39	0.3206
2936.73	0.3108
2946.06	0.3155
2955.4	0.3984
2964.73	0.5096
2974.07	0.5191
2983.41	0.446
2992.74	0.4788
3002.08	0.5635
3011.41	0.634
3020.75	0.661
3030.09	0.6681
3039.42	0.7363
3048.76	0.75
3058.1	0.7853
3067.43	0.8203
3076.77	0.8621
3086.1	0.8669
3095.44	0.858
3104.78	0.9004
3114.11	0.9151
3123.45	0.9209
3132.78	0.9196
3142.12	0.9291
3151.46	0.9356
3160.79	0.94
3170.13	0.943
3179.46	0.9451
3188.8	0.947
3198.14	0.95
3207.47	0.9504
3216.81	0.946
3226.15	0.9494
3235.48	0.9497
3244.82	0.9516
3254.15	0.952
3263.49	0.949
3272.83	0.952
3282.16	0.949
3291.5	0.952
3300.83	0.951
3310.17	0.9538
3319.51	0.951
3328.84	0.9537
3338.18	0.952
3347.51	0.953
3356.85	0.953
3366.19	0.953
3375.52	0.9523
3384.86	0.954
3394.2	0.953
3403.53	0.9532
3412.87	0.9523
3422.2	0.952
3431.54	0.95
3440.88	0.95
3450.21	0.95
3459.55	0.95
3468.88	0.95
3478.22	0.95
3487.56	0.95
3496.89	0.95
3506.23	0.949
3515.56	0.949
3524.9	0.9498
3534.24	0.951
3543.57	0.951
3552.91	0.951
3562.25	0.951
3571.58	0.952
3580.92	0.952
3590.25	0.951
3599.59	0.951
3608.93	0.948
3618.26	0.9484
3627.6	0.9487
3636.93	0.952
3646.27	0.9497
3655.61	0.946
3664.94	0.944
3674.28	0.9388
3683.61	0.9513
3692.95	0.952
3702.29	0.952
3711.62	0.953
3720.96	0.953
3730.3	0.9473
3739.63	0.948
3748.97	0.9507
3758.3	0.9554
3767.64	0.9541
3776.98	0.953
3786.31	0.9577
3795.65	0.957
3804.98	0.9543
3814.32	0.9544
3823.66	0.954
3832.99	0.9516
3842.33	0.9499
3851.66	0.9596
3861	0.9529
3870.34	0.9513
3879.67	0.956
3889.01	0.9502
3898.35	0.9459
3907.68	0.9519
3917.02	0.9531
3926.35	0.9481
3935.69	0.947
3945.03	0.951
3954.36	0.95
3963.7	0.947
3973.03	0.946
3982.37	0.944
3991.71	0.942
4001.04	0.942
