Infrared Spectrum: 1,2-Dimethoxy-4,5-dinitrobenzene
Formula: C 8 H 8 N 2 O 6
CAS: 3395-03-7
State: gas
Origin: EPA-IR VAPOR PHASE LIBRARY
1/CM	ABSORBANCE
549.8	0.001969
559.445	0.0016322
569.09	0.0015402
578.734	0.002279
588.379	0.002039
598.024	0.003079
607.669	0.003429
617.313	0.003129
626.958	0.003439
636.603	0.002829
646.248	0.003379
655.893	0.005569
665.537	0.005979
675.182	0.003569
684.827	0.002159
694.472	0.002069
704.116	0.002099
713.761	0.002399
723.406	0.003379
733.051	0.004659
742.695	0.006379
752.34	0.007789
761.985	0.007549
771.63	0.010289
781.275	0.014719
790.919	0.011089
800.564	0.012359
810.209	0.012449
819.854	0.004209
829.498	0.003439
839.143	0.003189
848.788	0.005259
858.433	0.010939
868.078	0.011069
877.722	0.006579
887.367	0.005929
897.012	0.004149
906.657	0.003019
916.301	0.002219
925.946	0.002199
935.591	0.002739
945.236	0.002919
954.88	0.003889
964.525	0.005619
974.17	0.005779
983.815	0.004819
993.46	0.005589
1003.1	0.007639
1012.75	0.011979
1022.39	0.016449
1032.04	0.015219
1041.68	0.017549
1051.33	0.029339
1060.97	0.026309
1070.62	0.009269
1080.26	0.004459
1089.91	0.003429
1099.55	0.002969
1109.2	0.002539
1118.84	0.002449
1128.49	0.002939
1138.13	0.003469
1147.78	0.003539
1157.42	0.004829
1167.07	0.006699
1176.71	0.010799
1186.36	0.011259
1196	0.009399
1205.64	0.016749
1215.29	0.032049
1224.93	0.052469
1234.58	0.039839
1244.22	0.024609
1253.87	0.023459
1263.51	0.025819
1273.16	0.045159
1282.8	0.066629
1292.45	0.050689
1302.09	0.027269
1311.74	0.020099
1321.38	0.023419
1331.03	0.036109
1340.67	0.055209
1350.32	0.073529
1359.96	0.073909
1369.61	0.049319
1379.25	0.028449
1388.9	0.016789
1398.54	0.010959
1408.18	0.008539
1417.83	0.008379
1427.47	0.009279
1437.12	0.014059
1446.76	0.017339
1456.41	0.015259
1466.05	0.019849
1475.7	0.019979
1485.34	0.022869
1494.99	0.036979
1504.63	0.053939
1514.28	0.053139
1523.92	0.042739
1533.57	0.049929
1543.21	0.076129
1552.86	0.120069
1562.5	0.122359
1572.15	0.072809
1581.79	0.041949
1591.44	0.025129
1601.08	0.019429
1610.73	0.013969
1620.37	0.008769
1630.01	0.006559
1639.66	0.005399
1649.3	0.004429
1658.95	0.003949
1668.59	0.002939
1678.24	0.002669
1687.88	0.002309
1697.53	0.002509
1707.17	0.002269
1716.82	0.002209
1726.46	0.002099
1736.11	0.001959
1745.75	0.001879
1755.4	0.0017341
1765.04	0.0015719
1774.69	0.0016888
1784.33	0.0017877
1793.98	0.0018198
1803.62	0.0014851
1813.27	0.0017803
1822.91	0.0012875
1832.55	0.0014422
1842.2	0.0013181
1851.84	0.0016047
1861.49	0.0014855
1871.13	0.0013624
1880.78	0.0012568
1890.42	0.0012994
1900.07	0.0011584
1909.71	0.0012425
1919.36	0.0011787
1929	0.0013806
1938.65	0.0013164
1948.29	0.0011936
1957.94	0.001415
1967.58	0.0016312
1977.23	0.0016306
1986.87	0.001969
1996.52	0.002179
2006.16	0.001979
2015.81	0.002179
2025.45	0.002179
2035.1	0.001919
2044.74	0.001969
2054.38	0.001919
2064.03	0.00178
2073.67	0.001909
2083.32	0.0016946
2092.96	0.001323
2102.61	0.0014296
2112.25	0.0012368
2121.9	0.0011602
2131.54	0.0012325
2141.19	0.0012359
2150.83	0.0012398
2160.48	0.0013871
2170.12	0.0012589
2179.77	0.0011233
2189.41	0.0011564
2199.06	0.001203
2208.7	0.0011612
2218.35	0.0012569
2227.99	0.0012102
2237.64	0.0010876
2247.28	0.0013656
2256.92	0.0014397
2266.57	0.0015909
2276.21	0.001512
2285.86	0.0014273
2295.5	0.0014208
2305.15	0.0012263
2314.79	0.0014971
2324.44	0.001307
2334.08	0.0013123
2343.73	0.0014978
2353.37	0.0016099
2363.02	0.0014358
2372.66	0.0015821
2382.31	0.0012588
2391.95	0.0013746
2401.6	0.0014589
2411.24	0.0014525
2420.89	0.0013929
2430.53	0.0013637
2440.18	0.0012391
2449.82	0.0010138
2459.47	0.0012803
2469.11	0.0012999
2478.75	0.0011216
2488.4	0.0010995
2498.04	0.0009927
2507.69	0.0012131
2517.33	0.001394
2526.98	0.0013776
2536.62	0.0015163
2546.27	0.0013463
2555.91	0.001919
2565.56	0.0016873
2575.2	0.001849
2584.85	0.001999
2594.49	0.002069
2604.14	0.002259
2613.78	0.002299
2623.43	0.002369
2633.07	0.002499
2642.72	0.002029
2652.36	0.002419
2662.01	0.002369
2671.65	0.002039
2681.29	0.001979
2690.94	0.001939
2700.58	0.001939
2710.23	0.0014307
2719.87	0.0013562
2729.52	0.0016765
2739.16	0.0016335
2748.81	0.0016635
2758.45	0.0014034
2768.1	0.0017976
2777.74	0.0017169
2787.39	0.002219
2797.03	0.0017619
2806.68	0.001899
2816.32	0.002569
2825.97	0.003409
2835.61	0.003979
2845.26	0.005579
2854.9	0.008579
2864.55	0.008399
2874.19	0.006309
2883.84	0.005509
2893.48	0.005649
2903.12	0.005999
2912.77	0.006649
2922.41	0.007749
2932.06	0.008189
2941.7	0.012019
2951.35	0.014969
2960.99	0.011649
2970.64	0.011019
2980.28	0.009239
2989.93	0.006029
2999.57	0.005899
3009.22	0.006709
3018.86	0.009399
3028.51	0.007349
3038.15	0.003959
3047.8	0.003059
3057.44	0.002369
3067.09	0.002039
3076.73	0.002759
3086.38	0.002819
3096.02	0.002849
3105.67	0.002429
3115.31	0.001849
3124.95	0.002349
3134.6	0.0010988
3144.24	0.0013006
3153.89	0.0017282
3163.53	0.0013619
3173.18	0.0012218
3182.82	0.0011669
3192.47	0.0011154
3202.11	0.0012961
3211.76	0.0010488
3221.4	0.0012823
3231.05	0.0011274
3240.69	0.00086989
3250.34	0.0010497
3259.98	0.0009516
3269.63	0.000702
3279.27	0.0012529
3288.92	0.000558
3298.56	0.00065
3308.21	0.0010879
3317.85	0.0009603
3327.49	0.000671
3337.14	0.00034
3346.78	0.000659
3356.43	0.0007603
3366.07	0.0009813
3375.72	0.00061
3385.36	0.000656
3395.01	0.001229
3404.65	0.0010685
3414.3	0.0007938
3423.94	0.0009989
3433.59	0.0013158
3443.23	0.00032
3452.88	0.0013096
3462.52	0.0010746
3472.17	0.000557
3481.81	0.00087879
3491.46	0.00087665
3501.1	0.000506
3510.75	0.00084741
3520.39	0.000623
3530.04	0.000421
3539.68	0.0009455
3549.32	0.0007735
3558.97	0.00084932
3568.61	0.000996
3578.26	0.0007952
3587.9	0.0013811
3597.55	0.0010586
3607.19	0.000501
3616.84	0.000558
3626.48	0.0012499
3636.13	0.0011829
3645.77	0.0009629
3655.42	0.0011144
3665.06	0.0007332
3674.71	0.000612
3684.35	0.0010647
3694	0.000223
3703.64	0.0007361
3713.29	0.0009291
3722.93	0.0009436
3732.58	0.0007718
3742.22	0.000621
3751.86	0.000528
3761.51	0.000572
3771.15	0.000831603
3780.8	0.00085001
3790.44	0.000527
3800.09	0.000689
3809.73	0.0010472
3819.38	0.000496
3829.02	0.0009597
3838.67	0.0009984
3848.31	0.000685
3857.96	0.000414
3867.6	0.0007771
3877.25	0.0010756
3886.89	0.0013965
3896.54	0.001352
3906.18	0.00044
3915.83	0.000455
3925.47	0.0008425
3935.12	0.00046
3944.76	0.0014494
3954.41	0.0012708
3964.05	0.00023
3973.69	0.0010365
3983.34	0.0014197
3992.98	0.0007816
