Infrared Spectrum: 2-Methyl-2-decanol
Formula: C 11 H 24 O
CAS: 3396-02-9
State: gas
Instrument: HP-GC/MS/IRD
Origin: NIST Mass Spectrometry Data Center
1/CM	ABSORBANCE
550	0.0005382
562	0.000207
574	0.0001196
586	7.36e-05
598	3.68e-05
610	0.0001426
622	0.0001886
634	0.0002024
646	0.0001242
658	0.0002392
670	0.0002024
682	0.0002898
694	0.000345
706	0.000552
718	0.0007682
730	0.0007774
742	0.000805
754	0.0008096
766	0.000874
778	0.000621
790	0.0004968
802	0.000391
814	0.0004232
826	0.0004094
838	0.0004508
850	0.0005428
862	0.0007176
874	0.0010534
886	0.0016928
898	0.002737
910	0.0034684
922	0.0033534
934	0.0027324
946	0.0019274
958	0.0015318
970	0.001173
982	0.0008648
994	0.0006854
1006	0.0006762
1018	0.0007544
1030	0.0009108
1042	0.0009844
1054	0.001035
1066	0.001357
1078	0.0018538
1090	0.0024748
1102	0.0029256
1114	0.0032476
1126	0.003887
1138	0.0045218
1150	0.0048392
1162	0.0046414
1174	0.0038042
1186	0.0036846
1198	0.003979
1210	0.0040618
1222	0.0037306
1234	0.0034316
1246	0.0030452
1258	0.0027738
1270	0.0026266
1282	0.002668
1294	0.002714
1306	0.0027738
1318	0.002829
1330	0.0029164
1342	0.0032016
1354	0.003749
1366	0.005497
1378	0.0061686
1390	0.0044252
1402	0.0019918
1414	0.0013478
1426	0.0013984
1438	0.0020654
1450	0.0034316
1462	0.0047932
1474	0.0038088
1486	0.0018216
1498	0.0009108
1510	0.0006072
1522	0.0004094
1534	0.000322
1546	0.0002484
1558	0.0002162
1570	0.0002116
1582	0.0001886
1594	0.0001288
1606	0.000161
1618	0.0001288
1630	0.0001242
1642	0.000115
1654	0.0001288
1666	0.0001242
1678	0.0001288
1690	0.000115
1702	0.0001058
1714	8.74e-05
1726	8.74e-05
1738	8.74e-05
1750	6.9e-05
1762	6.44e-05
1774	7.36e-05
1786	7.82e-05
1798	7.82e-05
1810	8.28e-05
1822	7.82e-05
1834	6.9e-05
1846	7.36e-05
1858	6.44e-05
1870	3.68e-05
1882	5.52e-05
1894	3.22e-05
1906	1.38e-05
1918	3.22e-05
1930	2.76e-05
1942	4.6e-05
1954	9.2e-06
1966	3.68e-05
1978	2.3e-05
1990	3.22e-05
2002	3.68e-05
2014	5.06e-05
2026	6.44e-05
2038	7.82e-05
2050	5.98e-05
2062	5.52e-05
2074	5.52e-05
2086	4.6e-05
2098	4.6e-05
2110	2.3e-05
2122	3.68e-05
2134	3.68e-05
2146	1.84e-05
2158	5.52e-05
2170	4.6e-05
2182	0
2194	3.22e-05
2206	2.76e-05
2218	1.84e-05
2230	2.76e-05
2242	2.76e-05
2254	5.06e-05
2266	4.14e-05
2278	6.9e-05
2290	5.98e-05
2302	5.52e-05
2314	6.9e-05
2326	5.52e-05
2338	5.06e-05
2350	7.36e-05
2362	7.36e-05
2374	7.82e-05
2386	7.36e-05
2398	7.36e-05
2410	7.36e-05
2422	7.36e-05
2434	6.44e-05
2446	6.44e-05
2458	6.44e-05
2470	7.82e-05
2482	7.82e-05
2494	9.2e-05
2506	9.2e-05
2518	9.66e-05
2530	0.0001058
2542	0.0001656
2554	0.0001472
2566	0.0001748
2578	0.0001932
2590	0.0002116
2602	0.0002392
2614	0.0002714
2626	0.0003358
2638	0.000345
2650	0.0004002
2662	0.0004508
2674	0.0004922
2686	0.0005106
2698	0.0005152
2710	0.000506
2722	0.0005704
2734	0.0006578
2746	0.0006992
2758	0.0007406
2770	0.0008004
2782	0.0009752
2794	0.0012696
2806	0.0016238
2818	0.0022632
2830	0.0032338
2842	0.0055384
2854	0.011684
2866	0.0168176
2878	0.0151018
2890	0.0136344
2902	0.0160172
2914	0.0240396
2926	0.0392748
2938	0.0452042
2950	0.0314594
2962	0.0266616
2974	0.0277978
2986	0.0162932
2998	0.0065826
3010	0.00322
3022	0.0020332
3034	0.0014812
3046	0.00115
3058	0.0009752
3070	0.0008556
3082	0.0007498
3094	0.0006716
3106	0.0005888
3118	0.0005474
3130	0.0005244
3142	0.00046
3154	0.0004048
3166	0.0004002
3178	0.0004048
3190	0.0003588
3202	0.0004002
3214	0.0003266
3226	0.0002484
3238	0.0002484
3250	0.0002208
3262	0.0001794
3274	0.0001058
3286	9.2e-05
3298	8.28e-05
3310	0.0001288
3322	0.0001702
3334	0.0001242
3346	7.36e-05
3358	0.0001242
3370	0.000184
3382	0.0001426
3394	0.0001518
3406	0.000138
3418	0.0002208
3430	0.0001472
3442	0.0001288
3454	0.0001288
3466	8.28e-05
3478	0.000138
3490	8.28e-05
3502	9.2e-06
3514	6.9e-05
3526	5.98e-05
3538	3.22e-05
3550	3.68e-05
3562	5.52e-05
3574	5.52e-05
3586	2.76e-05
3598	0.0001656
3610	0.0002668
3622	0.0004876
3634	0.0013248
3646	0.0014628
3658	0.0006716
3670	0.0002944
3682	0.000184
3694	5.98e-05
3706	0.0001334
3718	9.2e-05
3730	7.82e-05
3742	6.44e-05
3754	3.22e-05
3766	0.0001058
3778	9.66e-05
3790	6.44e-05
3802	0.0001058
3814	0.0001058
3826	0.0001334
3838	0.0001702
