Infrared Spectrum: 2,4-DIAMINO-6-CHLORO-1,3,5-TRIAZINE
Formula: C3 H4 Cl N5
CAS: 3397-62-4
State: SOLID (0.86 mg / 300 mg KBr PELLET)
Class: COBLENTZ
Instrument: PERKIN-ELMER
Sampling: TRANSMISSION
Path length: 0.1 CM
Resolution: 4
Origin: STANDARD OIL OF OHIO
MICROMETERS	TRANSMITTANCE
2.034	0.959
2.06778	0.962
2.10157	0.964
2.13535	0.966
2.16914	0.966
2.20292	0.966
2.23671	0.962
2.27049	0.962
2.30428	0.964
2.33806	0.967
2.37184	0.969
2.40563	0.971
2.43941	0.972
2.4732	0.971
2.50698	0.967
2.54077	0.964
2.57455	0.962
2.60834	0.961
2.64212	0.962
2.6759	0.964
2.70969	0.962
2.74347	0.95
2.77726	0.871
2.81104	0.723
2.84483	0.494
2.87861	0.206
2.91239	0.242
2.94618	0.176
2.97996	0.125
3.01375	0.1
3.04753	0.164
3.08132	0.215
3.1151	0.123
3.14889	0.089
3.18267	0.096
3.21645	0.137
3.25024	0.298
3.28402	0.437
3.31781	0.55
3.35159	0.637
3.38538	0.693
3.41916	0.733
3.45295	0.774
3.48673	0.805
3.52051	0.815
3.5543	0.805
3.58808	0.805
3.62187	0.827
3.65565	0.833
3.68944	0.828
3.72322	0.84
3.75701	0.862
3.79079	0.872
3.82457	0.889
3.85836	0.898
3.89214	0.903
3.92593	0.903
3.95971	0.91
3.9935	0.918
4.02728	0.925
4.06106	0.932
4.09485	0.937
4.12863	0.938
4.16242	0.942
4.1962	0.942
4.22999	0.94
4.26377	0.938
4.29756	0.938
4.33134	0.937
4.36512	0.928
4.39891	0.915
4.43269	0.911
4.46648	0.91
4.50026	0.91
4.53405	0.913
4.56783	0.92
4.60162	0.927
4.6354	0.932
4.66918	0.935
4.70297	0.935
4.73675	0.93
4.77054	0.918
4.80432	0.91
4.83811	0.903
4.87189	0.898
4.90568	0.903
4.93946	0.91
4.97324	0.91
5.00703	0.922
5.04081	0.93
5.0746	0.937
5.10838	0.942
5.14217	0.942
5.17595	0.942
5.20973	0.942
5.24352	0.942
5.2773	0.942
5.31109	0.944
5.34487	0.945
5.37866	0.945
5.41244	0.942
5.44623	0.938
5.48001	0.938
5.51379	0.938
5.54758	0.938
5.58136	0.937
5.61515	0.93
5.64893	0.91
5.68272	0.896
5.7165	0.872
5.75029	0.835
5.78407	0.789
5.81785	0.752
5.85164	0.718
5.88542	0.654
5.91921	0.366
5.95299	0.088
5.98678	0.049
6.02056	0.044
6.05435	0.04
6.08813	0.028
6.12191	0.022
6.1557	0.023
6.18948	0.059
6.22327	0.169
6.25705	0.161
6.29084	0.064
6.32462	0.027
6.3584	0.025
6.39219	0.022
6.42597	0.023
6.45976	0.032
6.49354	0.038
6.52733	0.04
6.56111	0.033
6.5949	0.04
6.62868	0.105
6.66246	0.216
6.69625	0.289
6.73003	0.272
6.76382	0.21
6.7976	0.188
6.83139	0.174
6.86517	0.196
6.89896	0.279
6.93274	0.355
6.96652	0.427
7.00031	0.483
7.03409	0.522
7.06788	0.545
7.10166	0.561
7.13545	0.567
7.16923	0.571
7.20302	0.572
7.2368	0.574
7.27058	0.571
7.30437	0.559
7.33815	0.538
7.37194	0.52
7.40572	0.494
7.43951	0.466
7.47329	0.42
7.50707	0.352
7.54086	0.316
7.57464	0.296
7.60843	0.23
7.64221	0.142
7.676	0.089
7.70978	0.059
7.74357	0.105
7.77735	0.222
7.81113	0.315
7.84492	0.393
7.8787	0.467
7.91249	0.55
7.94627	0.618
7.98006	0.662
8.01384	0.681
8.04763	0.681
8.08141	0.681
8.11519	0.688
8.14898	0.693
8.18276	0.7
8.21655	0.705
8.25033	0.708
8.28412	0.711
8.3179	0.711
8.35169	0.711
8.38547	0.711
8.41925	0.71
8.45304	0.708
8.48682	0.705
8.52061	0.703
8.55439	0.705
8.58818	0.711
8.62196	0.716
8.65574	0.722
8.68953	0.722
8.72331	0.723
8.7571	0.725
8.79088	0.73
8.82467	0.733
8.85845	0.737
8.89224	0.742
8.92602	0.744
8.9598	0.749
8.99359	0.752
9.02737	0.754
9.06116	0.757
9.09494	0.762
9.12873	0.767
9.16251	0.769
9.1963	0.769
9.23008	0.767
9.26386	0.764
9.29765	0.762
9.33143	0.764
9.36522	0.767
9.399	0.769
9.43279	0.772
9.46657	0.779
9.50036	0.784
9.53414	0.789
9.56792	0.794
9.60171	0.801
9.63549	0.803
9.66928	0.805
9.70306	0.805
9.73685	0.805
9.77063	0.803
9.80441	0.798
9.8382	0.789
9.87198	0.789
9.90577	0.788
9.93955	0.786
9.97334	0.759
10.0071	0.644
10.0409	0.454
10.0747	0.281
10.1085	0.254
10.1423	0.35
10.176	0.45
10.2098	0.54
10.2436	0.62
10.2774	0.681
10.3112	0.718
10.345	0.738
10.3788	0.755
10.4125	0.767
10.4463	0.772
10.4801	0.779
10.5139	0.781
10.5477	0.783
10.5815	0.784
10.6152	0.784
10.649	0.784
10.6828	0.783
10.7166	0.772
10.7504	0.754
10.7842	0.713
10.8179	0.633
10.8517	0.547
10.8855	0.442
10.9193	0.313
10.9531	0.255
10.9869	0.315
11.0207	0.452
11.0544	0.564
11.0882	0.638
11.122	0.676
11.1558	0.693
11.1896	0.703
11.2234	0.706
11.2571	0.708
11.2909	0.711
11.3247	0.715
11.3585	0.72
11.3923	0.728
11.4261	0.74
11.4599	0.752
11.4936	0.761
11.5274	0.769
11.5612	0.776
11.595	0.781
11.6288	0.783
11.6626	0.783
11.6963	0.779
11.7301	0.774
11.7639	0.769
11.7977	0.769
11.8315	0.772
11.8653	0.779
11.899	0.788
11.9328	0.796
11.9666	0.801
12.0004	0.806
12.0342	0.81
12.068	0.81
12.1018	0.81
12.1355	0.808
12.1693	0.805
12.2031	0.8
12.2369	0.791
12.2707	0.781
12.3045	0.757
12.3382	0.705
12.372	0.608
12.4058	0.508
12.4396	0.357
12.4734	0.25
12.5072	0.183
12.541	0.174
12.5747	0.315
12.6085	0.488
12.6423	0.654
12.6761	0.735
12.7099	0.772
12.7437	0.783
12.7774	0.791
12.8112	0.796
12.845	0.8
12.8788	0.803
12.9126	0.803
12.9464	0.801
12.9801	0.801
13.0139	0.801
13.0477	0.8
13.0815	0.8
13.1153	0.798
13.1491	0.798
13.1829	0.798
13.2166	0.796
13.2504	0.794
13.2842	0.789
13.318	0.784
13.3518	0.777
13.3856	0.774
13.4193	0.769
13.4531	0.766
13.4869	0.766
13.5207	0.766
13.5545	0.764
13.5883	0.762
13.6221	0.759
13.6558	0.757
13.6896	0.752
13.7234	0.749
13.7572	0.744
13.791	0.738
13.8248	0.735
13.8585	0.732
13.8923	0.727
13.9261	0.722
13.9599	0.716
13.9937	0.713
14.0275	0.708
14.0613	0.703
14.095	0.7
14.1288	0.691
14.1626	0.684
14.1964	0.679
14.2302	0.674
14.264	0.667
14.2977	0.661
14.3315	0.654
14.3653	0.649
14.3991	0.644
14.4329	0.64
14.4667	0.638
14.5004	0.635
14.5342	0.633
14.568	0.633
14.6018	0.633
14.6356	0.633
14.6694	0.635
14.7032	0.637
14.7369	0.638
14.7707	0.642
14.8045	0.644
14.8383	0.647
14.8721	0.649
14.9059	0.649
14.9396	0.645
14.9734	0.642
15.0072	0.632
15.041	0.622
15.0748	0.601
15.1086	0.588
15.1424	0.584
15.1761	0.586
15.2099	0.593
15.2437	0.601
15.2775	0.608
15.3113	0.61
15.3451	0.61
15.3788	0.61
