Infrared Spectrum: PHOSPHORAMIDIC ACID, BENZYL-, DIPHENYL ESTER
Formula: C19 H18 N O3 P
CAS: 33985-75-0
State: SOLID (1 mg / 650 mg KBr DISC)
Class: COBLENTZ III
Instrument: PERKIN-ELMER 221 (GRATING)
Instrument parameters: FILTER AT 980 CM ^-^1, GRATING FOR 4000-1428 CM ^-^1, NaCl PRISM FOR 1428-650 CM^-^1
Sampling: TRANSMISSION
Resolution: 4
Origin: SOUTHERN RES. INSTITUTE
1/CM	TRANSMITTANCE
609.16	0.916
618.32	0.916
627.481	0.916
636.641	0.916
645.801	0.907
654.962	0.893
664.122	0.873
673.282	0.82
682.443	0.74
691.603	0.498
700.763	0.513
709.923	0.805
719.084	0.906
728.244	0.926
737.404	0.895
746.565	0.526
755.725	0.696
764.885	0.839
774.046	0.302
783.206	0.533
792.366	0.809
801.527	0.916
810.687	0.937
819.847	0.948
829.008	0.943
838.168	0.933
847.328	0.93
856.489	0.922
865.649	0.909
874.809	0.871
883.969	0.828
893.13	0.84
902.29	0.491
911.45	0.557
920.611	0.635
929.771	0.17
938.931	0.148
948.092	0.401
957.252	0.598
966.412	0.711
975.573	0.77
984.733	0.797
993.893	0.819
1003.05	0.668
1012.21	0.621
1021.37	0.861
1030.53	0.651
1039.69	0.88
1048.86	0.919
1058.02	0.895
1067.18	0.812
1076.34	0.704
1085.5	0.719
1094.66	0.839
1103.82	0.38
1112.98	0.403
1122.14	0.584
1131.3	0.749
1140.46	0.85
1149.62	0.853
1158.78	0.6
1167.94	0.569
1177.1	0.543
1186.26	0.27
1195.42	0.415
1204.58	0.565
1213.74	0.574
1222.9	0.546
1232.06	0.599
1241.22	0.408
1250.38	0.465
1259.54	0.607
1268.7	0.753
1277.86	0.842
1287.02	0.872
1296.18	0.884
1305.34	0.901
1314.5	0.908
1323.66	0.916
1332.82	0.949
1341.99	0.953
1351.15	0.954
1360.31	0.945
1369.47	0.922
1378.63	0.936
1387.79	0.935
1396.95	0.924
1406.11	0.929
1415.27	0.9
1424.43	0.923
1433.59	0.913
1442.75	0.903
1451.91	0.864
1461.07	0.558
1470.23	0.668
1479.39	0.756
1488.55	0.26
1497.71	0.533
1506.87	0.75
1516.03	0.886
1525.19	0.919
1534.35	0.945
1543.51	0.956
1552.67	0.958
1561.83	0.955
1570.99	0.938
1580.15	0.914
1589.31	0.854
1598.47	0.562
1607.63	0.742
1616.79	0.906
1625.96	0.917
1635.12	0.917
1644.28	0.917
1653.44	0.922
1662.6	0.918
1671.76	0.93
1680.92	0.94
1690.08	0.949
1699.24	0.96
1708.4	0.963
1717.56	0.964
1726.72	0.964
1735.88	0.961
1745.04	0.956
1754.2	0.96
1763.36	0.962
1772.52	0.964
1781.68	0.967
1790.84	0.968
1800	0.967
1809.16	0.965
1818.32	0.964
1827.48	0.969
1836.64	0.974
1845.8	0.973
1854.96	0.975
1864.12	0.977
1873.28	0.959
1882.44	0.949
1891.6	0.961
1900.76	0.964
1909.92	0.967
1919.09	0.967
1928.25	0.961
1937.41	0.958
1946.57	0.938
1955.73	0.922
1964.89	0.94
1974.05	0.936
1983.21	0.958
1992.37	0.961
2001.53	0.963
2010.69	0.964
2019.85	0.965
2029.01	0.966
2038.17	0.965
2047.33	0.964
2056.49	0.963
2065.65	0.962
2074.81	0.962
2083.97	0.961
2093.13	0.961
2102.29	0.961
2111.45	0.961
2120.61	0.961
2129.77	0.961
2138.93	0.96
2148.09	0.96
2157.25	0.959
2166.41	0.958
2175.57	0.958
2184.73	0.958
2193.89	0.958
2203.05	0.958
2212.22	0.958
2221.38	0.958
2230.54	0.958
2239.7	0.957
2248.86	0.956
2258.02	0.955
2267.18	0.954
2276.34	0.952
2285.5	0.948
2294.66	0.945
2303.82	0.939
2312.98	0.935
2322.14	0.932
2331.3	0.932
2340.46	0.932
2349.62	0.932
2358.78	0.932
2367.94	0.932
2377.1	0.932
2386.26	0.934
2395.42	0.935
2404.58	0.935
2413.74	0.933
2422.9	0.932
2432.06	0.932
2441.22	0.931
2450.38	0.93
2459.54	0.929
2468.7	0.929
2477.86	0.928
2487.02	0.927
2496.18	0.927
2505.35	0.926
2514.51	0.925
2523.67	0.924
2532.83	0.923
2541.99	0.923
2551.15	0.922
2560.31	0.922
2569.47	0.921
2578.63	0.92
2587.79	0.92
2596.95	0.92
2606.11	0.919
2615.27	0.919
2624.43	0.917
2633.59	0.916
2642.75	0.913
2651.91	0.909
2661.07	0.906
2670.23	0.903
2679.39	0.903
2688.55	0.903
2697.71	0.906
2706.87	0.906
2716.03	0.906
2725.19	0.906
2734.35	0.904
2743.51	0.903
2752.67	0.901
2761.83	0.899
2770.99	0.898
2780.15	0.899
2789.32	0.9
2798.48	0.897
2807.64	0.892
2816.8	0.887
2825.96	0.881
2835.12	0.877
2844.28	0.872
2853.44	0.854
2862.6	0.821
2871.76	0.78
2880.92	0.745
2890.08	0.757
2899.24	0.726
2908.4	0.785
2917.56	0.807
2926.72	0.803
2935.88	0.784
2945.04	0.813
2954.2	0.825
2963.36	0.853
2972.52	0.859
2981.68	0.865
2990.84	0.863
3000	0.855
3009.16	0.848
3018.32	0.838
3027.48	0.799
3036.64	0.783
3045.8	0.804
3054.96	0.777
3064.12	0.745
3073.28	0.755
3082.45	0.774
3091.61	0.763
3100.77	0.75
3109.93	0.734
3119.09	0.713
3128.25	0.685
3137.41	0.649
3146.57	0.602
3155.73	0.533
3164.89	0.457
3174.05	0.411
3183.21	0.448
3192.37	0.537
3201.53	0.6
3210.69	0.654
3219.85	0.694
3229.01	0.731
3238.17	0.746
3247.33	0.773
3256.49	0.785
3265.65	0.793
3274.81	0.8
3283.97	0.805
3293.13	0.811
3302.29	0.816
3311.45	0.817
3320.61	0.816
3329.77	0.814
3338.93	0.813
3348.09	0.811
3357.25	0.807
3366.41	0.803
3375.58	0.797
3384.74	0.787
3393.9	0.784
3403.06	0.781
3412.22	0.779
3421.38	0.778
3430.54	0.778
3439.7	0.779
3448.86	0.781
3458.02	0.781
3467.18	0.782
3476.34	0.784
3485.5	0.785
3494.66	0.787
3503.82	0.791
3512.98	0.794
3522.14	0.797
3531.3	0.801
3540.46	0.807
3549.62	0.812
3558.78	0.815
3567.94	0.818
3577.1	0.822
3586.26	0.826
3595.42	0.832
3604.58	0.841
3613.74	0.844
3622.9	0.848
3632.06	0.852
3641.22	0.856
3650.38	0.856
3659.55	0.852
3668.71	0.853
3677.87	0.856
3687.03	0.859
3696.19	0.861
3705.35	0.861
3714.51	0.859
3723.67	0.856
3732.83	0.851
3741.99	0.847
3751.15	0.851
3760.31	0.858
3769.47	0.862
3778.63	0.864
3787.79	0.863
3796.95	0.86
3806.11	0.857
3815.27	0.854
3824.43	0.853
3833.59	0.852
3842.75	0.851
3851.91	0.85
3861.07	0.85
3870.23	0.849
3879.39	0.849
3888.55	0.85
3897.71	0.851
3906.87	0.852
3916.03	0.852
3925.19	0.851
3934.35	0.851
3943.51	0.851
3952.68	0.851
3961.84	0.851
3971	0.85
3980.16	0.85
3989.32	0.85
