Infrared Spectrum: S-(-)-N,S-Dimethyl-S-phenylsulphoximine
Formula: C 8 H 11 N O S
CAS: 33993-53-2
State: gas
Origin: EPA-IR VAPOR PHASE LIBRARY
1/CM	ABSORBANCE
549.8	0.027888
559.445	0.017768
569.09	0.008988
578.734	0.004628
588.379	0.003618
598.024	0.002078
607.669	0.002898
617.313	0.002278
626.958	0.002748
636.603	0.003238
646.248	0.004898
655.893	0.009258
665.537	0.014098
675.182	0.023258
684.827	0.041848
694.472	0.042558
704.116	0.026268
713.761	0.030158
723.406	0.062878
733.051	0.101788
742.695	0.084488
752.34	0.041088
761.985	0.043848
771.63	0.057148
781.275	0.036008
790.919	0.012428
800.564	0.006458
810.209	0.005028
819.854	0.006618
829.498	0.010868
839.143	0.025368
848.788	0.035858
858.433	0.025688
868.078	0.011148
877.722	0.007028
887.367	0.006288
897.012	0.007268
906.657	0.007518
916.301	0.008948
925.946	0.012348
935.591	0.021038
945.236	0.034818
954.88	0.039018
964.525	0.044478
974.17	0.061068
983.815	0.044968
993.46	0.017578
1003.1	0.010678
1012.75	0.009318
1022.39	0.011208
1032.04	0.009988
1041.68	0.009048
1051.33	0.013298
1060.97	0.021278
1070.62	0.033278
1080.26	0.055608
1089.91	0.063218
1099.55	0.041808
1109.2	0.037528
1118.84	0.036038
1128.49	0.035768
1138.13	0.052848
1147.78	0.100348
1157.42	0.165628
1167.07	0.199468
1176.71	0.146138
1186.36	0.071788
1196	0.035608
1205.64	0.022548
1215.29	0.021308
1224.93	0.022468
1234.58	0.031308
1244.22	0.060958
1253.87	0.138768
1263.51	0.257948
1273.16	0.301278
1282.8	0.212208
1292.45	0.107408
1302.09	0.063458
1311.74	0.050858
1321.38	0.037858
1331.03	0.022898
1340.67	0.016018
1350.32	0.013918
1359.96	0.011968
1369.61	0.010798
1379.25	0.011018
1388.9	0.011508
1398.54	0.012908
1408.18	0.016368
1417.83	0.017678
1427.47	0.017398
1437.12	0.025228
1446.76	0.030638
1456.41	0.022058
1466.05	0.016428
1475.7	0.018218
1485.34	0.013808
1494.99	0.006788
1504.63	0.005338
1514.28	0.004748
1523.92	0.004478
1533.57	0.004818
1543.21	0.004598
1552.86	0.004528
1562.5	0.004348
1572.15	0.004768
1581.79	0.005098
1591.44	0.004108
1601.08	0.003528
1610.73	0.002998
1620.37	0.002518
1630.01	0.002068
1639.66	0.002058
1649.3	0.002158
1658.95	0.002708
1668.59	0.002928
1678.24	0.002478
1687.88	0.002308
1697.53	0.002108
1707.17	0.001718
1716.82	0.001608
1726.46	0.0013691
1736.11	0.0013685
1745.75	0.001618
1755.4	0.002198
1765.04	0.003078
1774.69	0.002908
1784.33	0.002438
1793.98	0.002938
1803.62	0.004238
1813.27	0.004808
1822.91	0.003708
1832.55	0.002958
1842.2	0.002238
1851.84	0.002138
1861.49	0.001928
1871.13	0.001918
1880.78	0.002488
1890.42	0.003678
1900.07	0.004378
1909.71	0.004198
1919.36	0.003278
1929	0.002708
1938.65	0.003298
1948.29	0.004698
1957.94	0.005288
1967.58	0.005018
1977.23	0.003918
1986.87	0.003148
1996.52	0.003358
2006.16	0.003748
2015.81	0.003778
2025.45	0.003238
2035.1	0.002578
2044.74	0.002348
2054.38	0.002048
2064.03	0.001678
2073.67	0.001818
2083.32	0.001998
2092.96	0.002708
2102.61	0.003208
2112.25	0.003738
2121.9	0.003518
2131.54	0.002708
2141.19	0.002078
2150.83	0.001698
2160.48	0.001598
2170.12	0.0013304
2179.77	0.0011998
2189.41	0.0011365
2199.06	0.0009519
2208.7	0.0009372
2218.35	0.0009507
2227.99	0.0011708
2237.64	0.0014
2247.28	0.001518
2256.92	0.001518
2266.57	0.001598
2276.21	0.001548
2285.86	0.0013406
2295.5	0.0009969
2305.15	0.0011784
2314.79	0.001658
2324.44	0.001968
2334.08	0.001658
2343.73	0.0013989
2353.37	0.0011149
2363.02	0.0011475
2372.66	0.0010498
2382.31	0.0011239
2391.95	0.0011795
2401.6	0.0012483
2411.24	0.0012272
2420.89	0.0012718
2430.53	0.0011674
2440.18	0.0011019
2449.82	0.0006442
2459.47	0.0008053
2469.11	0.0006841
2478.75	0.0006727
2488.4	0.00054464
2498.04	0.000802
2507.69	0.0009243
2517.33	0.0008751
2526.98	0.0009566
2536.62	0.0012838
2546.27	0.001145
2555.91	0.001147
2565.56	0.0012975
2575.2	0.001688
2584.85	0.0014553
2594.49	0.0010607
2604.14	0.001292
2613.78	0.0011754
2623.43	0.0010697
2633.07	0.000941
2642.72	0.0010487
2652.36	0.0010201
2662.01	0.0012397
2671.65	0.001232
2681.29	0.0011516
2690.94	0.0008512
2700.58	0.0009854
2710.23	0.0010838
2719.87	0.001598
2729.52	0.001458
2739.16	0.001658
2748.81	0.002078
2758.45	0.002288
2768.1	0.002988
2777.74	0.004138
2787.39	0.006508
2797.03	0.012328
2806.68	0.025208
2816.32	0.033298
2825.97	0.022668
2835.61	0.013028
2845.26	0.011438
2854.9	0.013088
2864.55	0.018968
2874.19	0.029928
2883.84	0.038188
2893.48	0.038438
2903.12	0.037418
2912.77	0.037888
2922.41	0.038188
2932.06	0.035798
2941.7	0.031728
2951.35	0.027388
2960.99	0.022058
2970.64	0.023188
2980.28	0.025618
2989.93	0.020458
2999.57	0.015688
3009.22	0.015418
3018.86	0.015458
3028.51	0.014248
3038.15	0.012558
3047.8	0.013418
3057.44	0.021588
3067.09	0.041668
3076.73	0.043648
3086.38	0.023118
3096.02	0.010498
3105.67	0.004288
3115.31	0.002838
3124.95	0.002428
3134.6	0.002168
3144.24	0.001818
3153.89	0.002068
3163.53	0.002168
3173.18	0.001648
3182.82	0.0009184
3192.47	0.0009466
3202.11	0.0008012
3211.76	0.0007155
3221.4	0.0004631
3231.05	0.0007372
3240.69	0.000368
3250.34	0.00052666
3259.98	0.0007722
3269.63	0.00059558
3279.27	0.0004883
3288.92	0.000146
3298.56	0.000163
3308.21	0.000311
3317.85	0.00058174
3327.49	0.000599
3337.14	0.000387
3346.78	0.0007458
3356.43	0.000285
3366.07	0.00050884
3375.72	0.00054323
3385.36	0.000284
3395.01	0.000338
3404.65	0.000356
3414.3	0.000319
3423.94	0.00052317
3433.59	0.000242
3443.23	0.000197
3452.88	0.000287
3462.52	0.0004433
3472.17	0.000449
3481.81	0.0004954
3491.46	0.000324
3501.1	0.000343
3510.75	0.000223
3520.39	0.000369
3530.04	0.000626
3539.68	0.0004683
3549.32	0.00054807
3558.97	0.000291
3568.61	0.00058667
3578.26	0.000264
3587.9	0.000152
3597.55	0.0005531
3607.19	0.000377
3616.84	0.0004914
3626.48	0.000242
3636.13	0.00053105
3645.77	0.0004313
3655.42	0.000378
3665.06	0.00059157
3674.71	0.000516451
3684.35	0.0006491
3694	0.0007551
3703.64	0.0008606
3713.29	0.0007044
3722.93	0.000325
3732.58	0.00050578
3742.22	0.0006466
3751.86	0.00059576
3761.51	0.000665
3771.15	0.0006923
3780.8	0.000513624
3790.44	0.00035
3800.09	0.000334
3809.73	0.0004535
3819.38	0.00038
3829.02	0.0004222
3838.67	0.0006589
3848.31	0.000298
3857.96	0.0006356
3867.6	0.0007122
3877.25	0.0004939
3886.89	0.0004572
3896.54	0.00055223
3906.18	0.0008517
3915.83	0.0006683
3925.47	0.000378
3935.12	0.0006601
3944.76	0.0006915
3954.41	0.000232
3964.05	0.0007224
3973.69	0.0008981
3983.34	0.0008506
3992.98	0.0007556
