Infrared Spectrum: Tebuthiuron
Formula: C 9 H 16 N 4 O S
CAS: 34014-18-1
State: gas
Instrument: HP-GC/MS/IRD
Origin: NIST Mass Spectrometry Data Center
1/CM	ABSORBANCE
550	0.0003492
562	0.0003318
574	0.0002892
586	0.0003876
598	0.0003162
610	0.000423
622	0.0003966
634	0.0004836
646	0.0003432
658	0.0004212
670	0.0003294
682	0.0003216
694	0.0003306
706	0.0002334
718	0.0001974
730	0.0002502
742	0.0004956
754	0.0005496
766	0.0003474
778	0.0002532
790	0.0001848
802	0.0001698
814	0.0001254
826	2.7e-05
838	7.68e-05
850	9.06e-05
862	5.16e-05
874	0.0001356
886	9.18e-05
898	8.28e-05
910	4.92e-05
922	6.6e-05
934	3.54e-05
946	3.78e-05
958	8.1e-05
970	1.98e-05
982	2.94e-05
994	5.88e-05
1006	0.0001542
1018	0.000285
1030	0.0003654
1042	0.0006114
1054	0.0013482
1066	0.0016038
1078	0.0011166
1090	0.0006672
1102	0.0003432
1114	0.00033
1126	0.0002208
1138	0.0004146
1150	0.000465
1162	0.0005334
1174	0.000645
1186	0.0008286
1198	0.0012408
1210	0.0014904
1222	0.0014076
1234	0.0013068
1246	0.0013026
1258	0.0010812
1270	0.000894
1282	0.000765
1294	0.0008118
1306	0.000921
1318	0.000861
1330	0.0006108
1342	0.000486
1354	0.0006354
1366	0.0010572
1378	0.0015684
1390	0.0014976
1402	0.001002
1414	0.0013704
1426	0.0010974
1438	0.0006672
1450	0.0008136
1462	0.001122
1474	0.0013068
1486	0.0016032
1498	0.0019626
1510	0.0035106
1522	0.005835
1534	0.0052254
1546	0.0029046
1558	0.0011682
1570	0.0006144
1582	0.0004254
1594	0.0002958
1606	0.0002898
1618	0.0002172
1630	0.000231
1642	0.000216
1654	0.0002028
1666	0.0002676
1678	0.0002994
1690	0.0001956
1702	0.0001584
1714	0.0001752
1726	0.0001428
1738	0.0001362
1750	0.0001122
1762	0.0001158
1774	0.000147
1786	8.28e-05
1798	0.0001092
1810	0.0001296
1822	0.0001212
1834	0.0001218
1846	0.0001074
1858	0.0001266
1870	0.0001158
1882	9.18e-05
1894	9.66e-05
1906	7.86e-05
1918	7.98e-05
1930	9.06e-05
1942	6.06e-05
1954	9.48e-05
1966	0.0001104
1978	5.46e-05
1990	8.52e-05
2002	7.08e-05
2014	8.22e-05
2026	8.34e-05
2038	0.0001044
2050	0.0001134
2062	9.54e-05
2074	8.82e-05
2086	9e-05
2098	8.52e-05
2110	6.72e-05
2122	8.04e-05
2134	9.06e-05
2146	5.7e-05
2158	8.22e-05
2170	4.98e-05
2182	9.6e-05
2194	4.62e-05
2206	9.6e-05
2218	0.0001428
2230	0.0001644
2242	0.000249
2254	0.0003414
2266	0.0003972
2278	0.0004572
2290	0.000405
2302	0.0003276
2314	0.0003036
2326	0.0001632
2338	0.0001332
2350	0.0001146
2362	4.86e-05
2374	1.2e-06
2386	3.72e-05
2398	3.42e-05
2410	4.44e-05
2422	5.82e-05
2434	5.34e-05
2446	4.68e-05
2458	5.22e-05
2470	2.82e-05
2482	9e-06
2494	2.52e-05
2506	4.08e-05
2518	4.14e-05
2530	2.7e-05
2542	2.04e-05
2554	3.96e-05
2566	6.96e-05
2578	1.98e-05
2590	5.04e-05
2602	5.76e-05
2614	5.28e-05
2626	3.84e-05
2638	2.22e-05
2650	4.98e-05
2662	5.52e-05
2674	4.08e-05
2686	7.38e-05
2698	7.26e-05
2710	8.28e-05
2722	0.0001056
2734	7.32e-05
2746	9.36e-05
2758	7.32e-05
2770	0.0001074
2782	0.0001356
2794	0.0001374
2806	0.0001998
2818	0.0002922
2830	0.0003156
2842	0.0003372
2854	0.0004212
2866	0.0007188
2878	0.0008964
2890	0.0009882
2902	0.0011532
2914	0.0013416
2926	0.0015186
2938	0.0017136
2950	0.0021198
2962	0.0031632
2974	0.003597
2986	0.0020148
2998	0.001071
3010	0.0005148
3022	0.0002898
3034	0.0001908
3046	0.0002046
3058	0.0001788
3070	0.0001482
3082	0.0001602
3094	0.000159
3106	6.96e-05
3118	9.9e-05
3130	0.0001254
3142	6.72e-05
3154	0.0001308
3166	3.96e-05
3178	0.0001032
3190	0.0001074
3202	0.0001236
3214	0.0001044
3226	0.0001302
3238	0.000123
3250	0.0001062
3262	7.5e-05
3274	2.28e-05
3286	0.0001344
3298	7.68e-05
3310	3.12e-05
3322	0.0001224
3334	0.0001374
3346	0.000105
3358	7.98e-05
3370	0.0001038
3382	0.0001488
3394	8.52e-05
3406	0.000177
3418	0.0002352
3430	0.0004008
3442	0.0004476
3454	0.0005244
3466	0.0005334
3478	0.000444
3490	0.0002772
3502	0.0001932
3514	0.0001788
3526	0.0001842
3538	0.000231
3550	0.0001134
3562	0.0001998
3574	0.0001362
3586	0.000147
3598	0.0001464
3610	0.000138
3622	0.0001656
3634	0.0002328
3646	0.0001512
3658	0.0001524
3670	0.0001416
3682	0.000186
3694	0.0001548
3706	0.0001872
3718	8.22e-05
3730	0.0001272
3742	0.0001542
3754	9.48e-05
3766	0.000147
3778	7.5e-05
3790	8.64e-05
3802	0.0001146
3814	6.84e-05
3826	4.92e-05
3838	0.0001338
