Infrared Spectrum: 3-Methyl-1-hexene
Formula: C 7 H 14
CAS: 3404-61-3
State: gas
Instrument: HP-GC/MS/IRD
Origin: NIST Mass Spectrometry Data Center
1/CM	ABSORBANCE
550	0.000369
562	0.000205
574	0.0001927
586	0.0001517
598	8.61e-05
610	0.0002378
622	0.0003772
634	0.0003649
646	0.0006683
658	0.0010537
670	0.0016974
682	0.0015293
694	0.0007749
706	0.0004469
718	0.00041
730	0.0006847
742	0.0008569
754	0.0006519
766	0.0002829
778	3.28e-05
790	0.0001107
802	0.0001394
814	0.0002952
826	0.0003813
838	0.0004879
850	0.0005945
862	0.0007544
874	0.0010168
886	0.0019557
898	0.005084
910	0.0095038
922	0.0090036
934	0.0041287
946	0.0022058
958	0.0015621
970	0.0018245
982	0.0034604
994	0.0044854
1006	0.0033251
1018	0.0017671
1030	0.0011972
1042	0.0008569
1054	0.0006355
1066	0.0005125
1078	0.0005002
1090	0.0006601
1102	0.0008569
1114	0.0008241
1126	0.0007995
1138	0.000779
1150	0.0005658
1162	0.000328
1174	0.0002132
1186	0.0001845
1198	0.0001148
1210	0.0001722
1222	0.0003034
1234	0.0003772
1246	0.0003485
1258	0.0002829
1270	0.0004305
1282	0.0006191
1294	0.0007954
1306	0.0009061
1318	0.0009922
1330	0.0009266
1342	0.0010414
1354	0.0013038
1366	0.0020582
1378	0.0028659
1390	0.002788
1402	0.0019803
1414	0.0022345
1426	0.0023821
1438	0.0026527
1450	0.0040139
1462	0.0049569
1474	0.0038581
1486	0.0020582
1498	0.0009348
1510	0.0005166
1522	0.0003526
1534	0.0002911
1546	0.0002706
1558	0.000369
1570	0.0004387
1582	0.0005084
1594	0.0005248
1606	0.0006765
1618	0.0013899
1630	0.0027347
1642	0.0031816
1654	0.0020336
1666	0.0007585
1678	0.0003854
1690	0.0002624
1702	0.0002214
1714	0.0001148
1726	4.51e-05
1738	8.61e-05
1750	7.38e-05
1762	4.51e-05
1774	4.92e-05
1786	5.33e-05
1798	0.0001517
1810	0.0003772
1822	0.0008241
1834	0.0008897
1846	0.0004838
1858	0.0001681
1870	6.56e-05
1882	4.1e-05
1894	2.87e-05
1906	2.87e-05
1918	2.87e-05
1930	8.2e-06
1942	8.2e-06
1954	2.05e-05
1966	3.69e-05
1978	4.92e-05
1990	9.02e-05
2002	4.1e-05
2014	1.23e-05
2026	3.28e-05
2038	1.23e-05
2050	8.2e-06
2062	4.1e-05
2074	2.05e-05
2086	0
2098	1.64e-05
2110	2.87e-05
2122	4.1e-05
2134	4.1e-05
2146	2.87e-05
2158	4.1e-05
2170	5.74e-05
2182	6.97e-05
2194	4.92e-05
2206	1.64e-05
2218	0
2230	4.1e-06
2242	2.05e-05
2254	1.64e-05
2266	4.51e-05
2278	3.69e-05
2290	4.51e-05
2302	7.79e-05
2314	9.43e-05
2326	8.2e-05
2338	0.000123
2350	0.0001025
2362	0.000123
2374	0.0001312
2386	0.0001107
2398	0.000123
2410	8.61e-05
2422	9.43e-05
2434	6.15e-05
2446	9.43e-05
2458	9.02e-05
2470	8.2e-05
2482	9.02e-05
2494	0.000123
2506	0.0001025
2518	0.0001517
2530	0.0001558
2542	0.0001886
2554	0.0001845
2566	0.0002173
2578	0.0002952
2590	0.0003116
2602	0.0003075
2614	0.0002706
2626	0.0002829
2638	0.0002993
2650	0.0002993
2662	0.0003362
2674	0.0003854
2686	0.0004264
2698	0.0004141
2710	0.0004428
2722	0.0005412
2734	0.0007257
2746	0.0008077
2758	0.0008077
2770	0.0007872
2782	0.0009348
2794	0.0011316
2806	0.0014227
2818	0.0019188
2830	0.0027634
2842	0.0048052
2854	0.0082287
2866	0.0128699
2878	0.0174906
2890	0.0180072
2902	0.0183557
2914	0.022714
2926	0.0270969
2938	0.0288271
2950	0.0301104
2962	0.0392616
2974	0.0380357
2986	0.0217587
2998	0.0100573
3010	0.006355
3022	0.004182
3034	0.0030914
3046	0.0028085
3058	0.003239
3070	0.0047232
3082	0.0064247
3094	0.005125
3106	0.0024026
3118	0.0012341
3130	0.000984
3142	0.00082
3154	0.000738
3166	0.0006683
3178	0.0005945
3190	0.0005125
3202	0.0003977
3214	0.0003075
3226	0.0002501
3238	0.0002788
3250	0.0001886
3262	0.0001845
3274	0.0001886
3286	0.0001353
3298	0.0001517
3310	0.0001763
3322	0.0001394
3334	0.000123
3346	7.79e-05
3358	0.000123
3370	0.000123
3382	6.97e-05
3394	2.87e-05
3406	0.0001066
3418	7.79e-05
3430	2.87e-05
3442	9.84e-05
3454	2.87e-05
3466	6.56e-05
3478	7.79e-05
3490	2.05e-05
3502	5.33e-05
3514	8.2e-05
3526	8.2e-05
3538	8.61e-05
3550	9.02e-05
3562	4.51e-05
3574	6.56e-05
3586	4.92e-05
3598	7.79e-05
3610	0.0001394
3622	4.51e-05
3634	0.0001517
3646	0.0001189
3658	0.0001558
3670	0.0001435
3682	0.0001435
3694	9.02e-05
3706	0.0001025
3718	0.0001394
3730	0.0001558
3742	0.0001927
3754	0.0002296
3766	0.0001804
3778	0.0001763
3790	0.0001394
3802	0.0001968
3814	0.0002009
3826	0.0001845
3838	0.0002009
