Infrared Spectrum: 2-Ethyl-3-methyl-1-pentene
Formula: C 8 H 16
CAS: 3404-67-9
State: gas
Instrument: HP-GC/MS/IRD
Origin: NIST Mass Spectrometry Data Center
1/CM	ABSORBANCE
550	0.0003552
562	0.0002328
574	2.4e-05
586	2.64e-05
598	1.44e-05
610	0.000108
622	0.0001224
634	0.0001536
646	1.68e-05
658	0.0001392
670	0.0001488
682	0.0002232
694	0.0002592
706	0.0002616
718	0.0004248
730	0.0005736
742	0.0005208
754	0.00054
766	0.0005496
778	0.0004896
790	0.0004824
802	0.0006696
814	0.0009696
826	0.00132
838	0.0013104
850	0.0009984
862	0.0006624
874	0.0005352
886	0.0005064
898	0.0004872
910	0.00042
922	0.0004392
934	0.0004968
946	0.0004872
958	0.000504
970	0.0004896
982	0.0005256
994	0.0004656
1006	0.000396
1018	0.0003024
1030	0.0003024
1042	0.000384
1054	0.00048
1066	0.0005472
1078	0.0007368
1090	0.0007944
1102	0.0008328
1114	0.0010608
1126	0.0009312
1138	0.000432
1150	0.0002688
1162	0.0003
1174	0.0003864
1186	0.0004992
1198	0.000516
1210	0.0004944
1222	0.0004968
1234	0.0005496
1246	0.0004776
1258	0.0004776
1270	0.000384
1282	0.0005232
1294	0.000636
1306	0.0007536
1318	0.0007608
1330	0.000828
1342	0.0010056
1354	0.0012288
1366	0.0016656
1378	0.0025008
1390	0.0024384
1402	0.001488
1414	0.0012192
1426	0.0015552
1438	0.0023232
1450	0.0030336
1462	0.003072
1474	0.0023256
1486	0.00138
1498	0.0008568
1510	0.0006432
1522	0.0005304
1534	0.0005088
1546	0.0004824
1558	0.0004344
1570	0.000396
1582	0.0003816
1594	0.0003504
1606	0.0003288
1618	0.0003072
1630	0.0003192
1642	0.0003504
1654	0.0003744
1666	0.0004536
1678	0.0003792
1690	0.0001992
1702	0.000156
1714	0.0001488
1726	0.0001176
1738	0.0001176
1750	9.12e-05
1762	7.44e-05
1774	8.16e-05
1786	8.16e-05
1798	9.84e-05
1810	8.88e-05
1822	9.84e-05
1834	7.2e-05
1846	8.16e-05
1858	8.4e-05
1870	8.16e-05
1882	7.2e-05
1894	6.72e-05
1906	6.48e-05
1918	6.96e-05
1930	4.32e-05
1942	7.92e-05
1954	7.2e-05
1966	7.44e-05
1978	6.24e-05
1990	7.44e-05
2002	2.16e-05
2014	4.08e-05
2026	8.16e-05
2038	5.76e-05
2050	6.72e-05
2062	4.32e-05
2074	5.04e-05
2086	1.68e-05
2098	3.84e-05
2110	1.92e-05
2122	1.92e-05
2134	2.4e-05
2146	2.64e-05
2158	4.8e-05
2170	3.6e-05
2182	5.04e-05
2194	5.52e-05
2206	3.6e-05
2218	3.36e-05
2230	2.16e-05
2242	3.36e-05
2254	4.32e-05
2266	3.12e-05
2278	4.32e-05
2290	2.64e-05
2302	1.2e-05
2314	6.96e-05
2326	5.76e-05
2338	6e-05
2350	6.72e-05
2362	7.68e-05
2374	8.4e-05
2386	6.48e-05
2398	8.64e-05
2410	8.64e-05
2422	9.6e-05
2434	8.4e-05
2446	0.0001032
2458	8.4e-05
2470	9.12e-05
2482	6e-05
2494	9.84e-05
2506	7.68e-05
2518	0.000108
2530	0.000108
2542	0.0001224
2554	0.0001392
2566	0.0001584
2578	0.0001368
2590	0.0001728
2602	0.0001608
2614	0.0001704
2626	0.0001776
2638	0.0002208
2650	0.0002424
2662	0.0002808
2674	0.0003072
2686	0.0003264
2698	0.0003504
2710	0.0003792
2722	0.0005256
2734	0.000744
2746	0.0008064
2758	0.0006864
2770	0.000648
2782	0.0007872
2794	0.001008
2806	0.0013104
2818	0.0017184
2830	0.0025344
2842	0.0043272
2854	0.0078768
2866	0.0115944
2878	0.0128472
2890	0.0123072
2902	0.0127656
2914	0.0174696
2926	0.0231816
2938	0.0228864
2950	0.0187104
2962	0.0188952
2974	0.0174072
2986	0.0109152
2998	0.0067248
3010	0.004428
3022	0.003372
3034	0.0028344
3046	0.0023544
3058	0.0018576
3070	0.0014664
3082	0.0011448
3094	0.0009312
3106	0.0007752
3118	0.0006816
3130	0.0005328
3142	0.0004632
3154	0.000396
3166	0.0003504
3178	0.0002952
3190	0.0002592
3202	0.0002424
3214	0.0002208
3226	0.0001824
3238	0.0001584
3250	0.0001728
3262	0.0001584
3274	0.00012
3286	0.0001344
3298	0.0001248
3310	9.36e-05
3322	9.6e-05
3334	0.0001248
3346	0.0001152
3358	0.00012
3370	9.84e-05
3382	8.88e-05
3394	0.0001032
3406	6.72e-05
3418	0.0001008
3430	4.08e-05
3442	6.96e-05
3454	5.04e-05
3466	7.2e-05
3478	3.6e-05
3490	1.92e-05
3502	2.16e-05
3514	2.4e-05
3526	7.44e-05
3538	6.48e-05
3550	4.32e-05
3562	3.36e-05
3574	1.2e-05
3586	4.56e-05
3598	4.32e-05
3610	4.8e-05
3622	7.44e-05
3634	5.28e-05
3646	4.56e-05
3658	4.32e-05
3670	9.12e-05
3682	6.72e-05
3694	2.4e-05
3706	7.92e-05
3718	5.28e-05
3730	3.12e-05
3742	3.36e-05
3754	8.64e-05
3766	5.76e-05
3778	9.36e-05
3790	2.16e-05
3802	2.64e-05
3814	7.44e-05
3826	8.16e-05
3838	0.0001008
