Infrared Spectrum: 3-Methyl-3-hexene (c,t)
Formula: C 7 H 14
CAS: 3404-65-7
State: gas
Instrument: HP-GC/MS/IRD
Origin: NIST Mass Spectrometry Data Center
1/CM	ABSORBANCE
550	0.0007644
562	0.0005838
574	0.0004998
586	0.000357
598	0.0001575
610	0.000147
622	0.000168
634	2.52e-05
646	0.0001974
658	0.0001344
670	8.4e-05
682	9.24e-05
694	0.0001008
706	0.0001722
718	0.0002373
730	0.0002709
742	0.0003801
754	0.0004431
766	0.0003444
778	0.0004116
790	0.0004893
802	0.000483
814	0.0006069
826	0.0006783
838	0.0009744
850	0.0014259
862	0.0012537
874	0.0008127
886	0.0006762
898	0.0006804
910	0.0004578
922	0.0003528
934	0.000294
946	0.0003612
958	0.0003948
970	0.0003612
982	0.0004116
994	0.0005229
1006	0.0006888
1018	0.0007224
1030	0.0006279
1042	0.000567
1054	0.0008106
1066	0.0010059
1078	0.0009849
1090	0.0006405
1102	0.000504
1114	0.0005796
1126	0.0006258
1138	0.0004242
1150	0.0002856
1162	0.0002877
1174	0.0003402
1186	0.0004536
1198	0.0005145
1210	0.0004662
1222	0.0003675
1234	0.0003045
1246	0.0003465
1258	0.0003759
1270	0.000399
1282	0.0004179
1294	0.0007056
1306	0.0010689
1318	0.0011907
1330	0.0009072
1342	0.0006846
1354	0.0007959
1366	0.0012033
1378	0.0017913
1390	0.0018816
1402	0.0013986
1414	0.0010857
1426	0.00126
1438	0.0017766
1450	0.0024675
1462	0.0027699
1474	0.0021777
1486	0.0013104
1498	0.0007854
1510	0.0006006
1522	0.0004809
1534	0.0004557
1546	0.0004242
1558	0.0003864
1570	0.0003318
1582	0.0002856
1594	0.0002772
1606	0.0002793
1618	0.000231
1630	0.0002646
1642	0.0002625
1654	0.0003696
1666	0.0004095
1678	0.000315
1690	0.0002499
1702	0.0001701
1714	0.0001491
1726	0.0001113
1738	9.66e-05
1750	8.82e-05
1762	8.19e-05
1774	7.35e-05
1786	5.88e-05
1798	7.77e-05
1810	6.72e-05
1822	8.19e-05
1834	0.0001071
1846	7.98e-05
1858	8.61e-05
1870	8.61e-05
1882	8.4e-05
1894	7.77e-05
1906	6.51e-05
1918	7.35e-05
1930	4.62e-05
1942	5.25e-05
1954	3.15e-05
1966	3.78e-05
1978	3.57e-05
1990	2.94e-05
2002	5.46e-05
2014	5.88e-05
2026	7.56e-05
2038	5.88e-05
2050	4.62e-05
2062	3.99e-05
2074	4.2e-05
2086	5.46e-05
2098	3.36e-05
2110	6.09e-05
2122	2.31e-05
2134	2.52e-05
2146	5.25e-05
2158	6.93e-05
2170	6.09e-05
2182	5.67e-05
2194	2.73e-05
2206	1.68e-05
2218	4.2e-05
2230	4.2e-05
2242	1.26e-05
2254	1.89e-05
2266	5.04e-05
2278	1.68e-05
2290	3.15e-05
2302	3.15e-05
2314	3.99e-05
2326	4.2e-05
2338	3.15e-05
2350	4.41e-05
2362	3.15e-05
2374	4.83e-05
2386	6.93e-05
2398	7.98e-05
2410	6.93e-05
2422	9.45e-05
2434	6.51e-05
2446	4.41e-05
2458	5.88e-05
2470	4.83e-05
2482	2.52e-05
2494	6.72e-05
2506	6.51e-05
2518	1.05e-05
2530	3.99e-05
2542	6.09e-05
2554	6.09e-05
2566	8.61e-05
2578	7.56e-05
2590	8.19e-05
2602	4.2e-05
2614	6.72e-05
2626	0.0001323
2638	0.0001071
2650	0.0001176
2662	6.72e-05
2674	9.24e-05
2686	0.0001197
2698	0.0001281
2710	0.0001722
2722	0.0003297
2734	0.0004368
2746	0.0004494
2758	0.0004704
2770	0.0004935
2782	0.0005859
2794	0.000693
2806	0.0009261
2818	0.0012432
2830	0.0019362
2842	0.0033117
2854	0.0053025
2866	0.0073416
2878	0.0097587
2890	0.0107184
2902	0.010269
2914	0.0106344
2926	0.0121863
2938	0.0141015
2950	0.014784
2962	0.0189861
2974	0.0205989
2986	0.0134757
2998	0.0075516
3010	0.0047712
3022	0.0033033
3034	0.0025137
3046	0.0019068
3058	0.0014973
3070	0.0011193
3082	0.0008841
3094	0.0007182
3106	0.0005859
3118	0.0005019
3130	0.0003969
3142	0.0003906
3154	0.0003696
3166	0.0002772
3178	0.0002247
3190	0.0002037
3202	0.0001197
3214	0.0001323
3226	0.000105
3238	9.03e-05
3250	9.24e-05
3262	9.87e-05
3274	4.41e-05
3286	1.68e-05
3298	4.83e-05
3310	2.94e-05
3322	5.46e-05
3334	0.0001239
3346	8.4e-05
3358	4.62e-05
3370	3.36e-05
3382	5.88e-05
3394	8.4e-05
3406	0.000105
3418	8.4e-05
3430	0.0001008
3442	9.45e-05
3454	5.88e-05
3466	0.0001218
3478	6.72e-05
3490	5.88e-05
3502	0.0001197
3514	0.0001218
3526	6.93e-05
3538	3.99e-05
3550	0.0001113
3562	7.14e-05
3574	0.0001176
3586	0.0001008
3598	0.0001449
3610	0.000147
3622	9.66e-05
3634	0.0001533
3646	0.0001302
3658	0.0001281
3670	0.0001659
3682	0.0001638
3694	0.0002058
3706	0.0002121
3718	9.45e-05
3730	5.46e-05
3742	0.0002163
3754	0.0001197
3766	0.0002226
3778	0.000168
3790	0.0001533
3802	0.0001575
3814	0.000126
3826	0.0001743
3838	0.0002079
