Infrared Spectrum: 3,3-Dimethyl-1-pentene
Formula: C 7 H 14
CAS: 3404-73-7
State: gas
Instrument: HP-GC/MS/IRD
Origin: NIST Mass Spectrometry Data Center
1/CM	ABSORBANCE
550	0.0004161
562	6.27e-05
574	4.56e-05
586	2.85e-05
598	0.0001482
610	0.0002394
622	0.0002451
634	0.0003078
646	0.0005187
658	0.0010602
670	0.0019836
682	0.0023883
694	0.0016587
706	0.0008892
718	0.0005472
730	0.0002907
742	0.0001881
754	0.0002622
766	0.0004731
778	0.0009063
790	0.0010887
802	0.0007467
814	0.0004332
826	0.0004503
838	0.0007638
850	0.0010431
862	0.0011628
874	0.001311
886	0.0023541
898	0.006384
910	0.0110409
922	0.0095019
934	0.0046626
946	0.002394
958	0.0019437
970	0.002052
982	0.0029925
994	0.0049419
1006	0.0062301
1018	0.0047766
1030	0.0026505
1042	0.0017784
1054	0.00171
1066	0.0017043
1078	0.0014421
1090	0.0009006
1102	0.0005814
1114	0.0004731
1126	0.0004617
1138	0.0006213
1150	0.0009006
1162	0.0014592
1174	0.0020178
1186	0.00228
1198	0.0019266
1210	0.0014022
1222	0.0009291
1234	0.0006213
1246	0.0004275
1258	0.0003534
1270	0.000342
1282	0.0004788
1294	0.0006042
1306	0.0005985
1318	0.0006156
1330	0.0007638
1342	0.0013566
1354	0.0029355
1366	0.0059793
1378	0.0066519
1390	0.0054549
1402	0.0039558
1414	0.003591
1426	0.0032604
1438	0.0031521
1450	0.0047595
1462	0.0066633
1474	0.0063555
1486	0.0039558
1498	0.00171
1510	0.000741
1522	0.0004389
1534	0.0003705
1546	0.0003762
1558	0.0004332
1570	0.0007353
1582	0.0009291
1594	0.0009861
1606	0.0011457
1618	0.0019722
1630	0.003591
1642	0.0040242
1654	0.002394
1666	0.0008322
1678	0.0004788
1690	0.000342
1702	0.0002052
1714	0.0002052
1726	0.0001824
1738	0.0001254
1750	0.0001197
1762	0.000114
1774	0.0001197
1786	0.0001539
1798	0.0002166
1810	0.000513
1822	0.0009861
1834	0.0010944
1846	0.0006669
1858	0.0002622
1870	0.0001596
1882	0.0001254
1894	0.0001425
1906	0.0001026
1918	7.98e-05
1930	0.0001026
1942	9.12e-05
1954	7.98e-05
1966	7.41e-05
1978	0.0001425
1990	0.0001482
2002	0.0001425
2014	7.98e-05
2026	9.12e-05
2038	6.84e-05
2050	5.13e-05
2062	6.27e-05
2074	9.69e-05
2086	6.84e-05
2098	8.55e-05
2110	4.56e-05
2122	2.85e-05
2134	3.42e-05
2146	0
2158	5.7e-06
2170	2.28e-05
2182	2.28e-05
2194	5.7e-06
2206	2.85e-05
2218	2.28e-05
2230	2.28e-05
2242	3.42e-05
2254	7.98e-05
2266	4.56e-05
2278	6.84e-05
2290	7.98e-05
2302	9.12e-05
2314	0.0001197
2326	7.98e-05
2338	5.7e-05
2350	7.98e-05
2362	5.7e-05
2374	9.69e-05
2386	0.0001539
2398	0.0001311
2410	0.0001425
2422	0.0001368
2434	9.69e-05
2446	6.84e-05
2458	9.69e-05
2470	9.12e-05
2482	6.27e-05
2494	9.69e-05
2506	0.0001197
2518	0.0001197
2530	0.0001653
2542	0.0001026
2554	0.0001596
2566	0.0001482
2578	0.0001539
2590	0.0001767
2602	0.0002166
2614	0.0003249
2626	0.0003534
2638	0.0003648
2650	0.000342
2662	0.0003876
2674	0.0003477
2686	0.0003705
2698	0.0004389
2710	0.0005073
2722	0.0006498
2734	0.0007638
2746	0.000798
2758	0.0008265
2770	0.0008892
2782	0.0010146
2794	0.001197
2806	0.0014079
2818	0.0017955
2830	0.002508
2842	0.0041667
2854	0.007581
2866	0.0121923
2878	0.0166041
2890	0.0185592
2902	0.0203946
2914	0.0240654
2926	0.0275994
2938	0.029811
2950	0.0356136
2962	0.0521607
2974	0.0549423
2986	0.0343482
2998	0.0148941
3010	0.0086754
3022	0.005472
3034	0.0034428
3046	0.0029412
3058	0.0033459
3070	0.0048963
3082	0.0066006
3094	0.0065265
3106	0.0036708
3118	0.0016188
3130	0.0011685
3142	0.0010431
3154	0.0009576
3166	0.0008778
3178	0.0007923
3190	0.0007809
3202	0.000741
3214	0.0006897
3226	0.0006384
3238	0.0005586
3250	0.0004731
3262	0.0003933
3274	0.0003363
3286	0.0002964
3298	0.0002451
3310	0.0002508
3322	0.0002736
3334	0.0002565
3346	0.0002394
3358	0.0001938
3370	0.0001938
3382	0.0001653
3394	0.0001539
3406	0.0001539
3418	0.0001539
3430	0.0001482
3442	0.0001254
3454	0.0001482
3466	9.69e-05
3478	7.41e-05
3490	9.69e-05
3502	6.84e-05
3514	0.0001026
3526	4.56e-05
3538	7.98e-05
3550	1.71e-05
3562	0.0001197
3574	8.55e-05
3586	9.12e-05
3598	3.42e-05
3610	6.84e-05
3622	7.41e-05
3634	7.98e-05
3646	3.99e-05
3658	9.12e-05
3670	0
3682	0.0001254
3694	0.000114
3706	8.55e-05
3718	8.55e-05
3730	6.27e-05
3742	9.69e-05
3754	1.14e-05
3766	0.0001254
3778	7.98e-05
3790	0.0001938
3802	0.0001311
3814	6.27e-05
3826	6.27e-05
3838	7.98e-05
