Infrared Spectrum: 5-Methyl-2-hexene (c,t)
Formula: C 7 H 14
CAS: 3404-62-4
State: gas
Instrument: HP-GC/MS/IRD
Origin: NIST Mass Spectrometry Data Center
1/CM	ABSORBANCE
550	0.0004394
562	2.08e-05
574	7.28e-05
586	0.0002158
598	0.0001872
610	0.0003796
622	0.0002548
634	0.0002886
646	0.000208
658	0.0003042
670	0.0004134
682	0.0003718
694	0.0004134
706	0.0004212
718	0.0003302
730	0.0004056
742	0.0004498
754	0.0004342
766	0.0004082
778	0.0004004
790	0.0004238
802	0.0004966
814	0.0005252
826	0.0004706
838	0.00052
850	0.000494
862	0.0005382
874	0.000728
886	0.0007098
898	0.000858
910	0.0012246
922	0.001703
934	0.0021996
946	0.0035152
958	0.0054132
970	0.005525
982	0.003367
994	0.0018018
1006	0.001261
1018	0.0011102
1030	0.0010712
1042	0.0010478
1054	0.0010426
1066	0.0009438
1078	0.0006968
1090	0.0006188
1102	0.0008008
1114	0.0007462
1126	0.0006448
1138	0.000637
1150	0.0007774
1162	0.001196
1174	0.001092
1186	0.0006656
1198	0.0004914
1210	0.000572
1222	0.00065
1234	0.0006526
1246	0.0005824
1258	0.0006838
1270	0.0008814
1282	0.000897
1294	0.000728
1306	0.0008268
1318	0.0008762
1330	0.0010374
1342	0.0013286
1354	0.0016068
1366	0.0022412
1378	0.0031044
1390	0.0028444
1402	0.0017628
1414	0.001261
1426	0.0015886
1438	0.0024154
1450	0.0032838
1462	0.0035958
1474	0.0030628
1486	0.0019344
1498	0.0011648
1510	0.0007566
1522	0.0006136
1534	0.0004966
1546	0.000468
1558	0.00039
1570	0.0003224
1582	0.0003276
1594	0.0003354
1606	0.0002964
1618	0.0003328
1630	0.0003042
1642	0.0003042
1654	0.0003614
1666	0.0003692
1678	0.0003926
1690	0.00039
1702	0.0004524
1714	0.0004238
1726	0.0003172
1738	0.0002652
1750	0.0002366
1762	0.0002262
1774	0.0002548
1786	0.000273
1798	0.0002496
1810	0.000208
1822	0.0002106
1834	0.0001898
1846	0.0001508
1858	0.0001456
1870	0.0001144
1882	0.00013
1894	0.00013
1906	0.0001248
1918	0.0001092
1930	0.0001196
1942	9.62e-05
1954	9.88e-05
1966	7.54e-05
1978	8.84e-05
1990	0.0001456
2002	0.0001326
2014	0.0001092
2026	8.84e-05
2038	3.9e-05
2050	5.98e-05
2062	5.46e-05
2074	5.2e-05
2086	4.94e-05
2098	4.68e-05
2110	7.8e-06
2122	2.08e-05
2134	1.04e-05
2146	3.38e-05
2158	3.9e-05
2170	5.2e-05
2182	7.02e-05
2194	7.02e-05
2206	4.94e-05
2218	4.68e-05
2230	5.2e-05
2242	3.64e-05
2254	5.46e-05
2266	5.2e-05
2278	0
2290	6.24e-05
2302	7.02e-05
2314	5.72e-05
2326	6.24e-05
2338	5.72e-05
2350	7.8e-05
2362	0.000143
2374	0.0001482
2386	0.000104
2398	0.0001248
2410	0.0001144
2422	0.0001404
2434	0.0001352
2446	0.0001352
2458	0.0001118
2470	0.0001066
2482	0.0001508
2494	0.0001196
2506	0.0002002
2518	0.0002002
2530	0.0001586
2542	0.0002106
2554	0.0002184
2566	0.0002262
2578	0.0002288
2590	0.0002418
2602	0.0002626
2614	0.0002808
2626	0.0003198
2638	0.0003094
2650	0.0003562
2662	0.0003588
2674	0.0003822
2686	0.0003536
2698	0.000416
2710	0.0004706
2722	0.0006188
2734	0.0007774
2746	0.0008476
2758	0.0007358
2770	0.00078
2782	0.0008138
2794	0.0009724
2806	0.001209
2818	0.0016796
2830	0.0026416
2842	0.0038584
2854	0.0052338
2866	0.0082888
2878	0.0110604
2890	0.0130572
2902	0.0151554
2914	0.0164892
2926	0.0176306
2938	0.0179478
2950	0.0199446
2962	0.026
2974	0.021502
2986	0.0101426
2998	0.0054964
3010	0.0049218
3022	0.004732
3034	0.0039286
3046	0.002691
3058	0.0018512
3070	0.00143
3082	0.001248
3094	0.0010608
3106	0.0009672
3118	0.0008398
3130	0.0006552
3142	0.0006708
3154	0.000598
3166	0.0005694
3178	0.000572
3190	0.000546
3202	0.00039
3214	0.0003432
3226	0.0003172
3238	0.0002756
3250	0.0002158
3262	0.0002392
3274	0.000234
3286	0.000182
3298	0.0001846
3310	0.000195
3322	0.000169
3334	0.0001404
3346	0.0001664
3358	0.0001326
3370	0.0001768
3382	0.0001222
3394	0.0001378
3406	0.0001508
3418	0.0001066
3430	5.2e-05
3442	8.84e-05
3454	8.32e-05
3466	8.32e-05
3478	1.82e-05
3490	0.0001118
3502	0.0001248
3514	6.76e-05
3526	5.2e-06
3538	0.0001066
3550	8.58e-05
3562	0.0001404
3574	6.76e-05
3586	8.58e-05
3598	5.2e-05
3610	2.6e-05
3622	9.62e-05
3634	0.0001196
3646	0.0001586
3658	0.000143
3670	0.00013
3682	9.36e-05
3694	6.76e-05
3706	0.0001378
3718	7.8e-05
3730	8.06e-05
3742	0.0001456
3754	0.0001456
3766	0.0002002
3778	0.0001066
3790	0.0001612
3802	0.0002132
3814	0.0002496
3826	0.0001924
3838	0.0002002
