Infrared Spectrum: 3,3-Dimethyl-1-hexene
Formula: C 8 H 16
CAS: 3404-77-1
State: gas
Instrument: HP-GC/MS/IRD
Origin: NIST Mass Spectrometry Data Center
1/CM	ABSORBANCE
550	0.0001333
562	5.89e-05
574	0.0001054
586	0.0001023
598	0.0001922
610	0.000155
622	0.0001426
634	0.000155
646	0.0001643
658	0.0004433
670	0.000744
682	0.001116
694	0.0008556
706	0.0004433
718	0.0003348
730	0.0003875
742	0.0004123
754	0.0003317
766	0.0002232
778	0.0001891
790	0.0002201
802	0.000155
814	0.0001922
826	0.0002232
838	0.0002914
850	0.0004402
862	0.0005394
874	0.0007037
886	0.0010571
898	0.0027528
910	0.0054219
922	0.0045291
934	0.0018631
946	0.0011904
958	0.0010478
970	0.00093
982	0.0011129
994	0.0019003
1006	0.00217
1018	0.0013268
1030	0.0008525
1042	0.0006727
1054	0.0004836
1066	0.0004309
1078	0.0004402
1090	0.0004278
1102	0.0003503
1114	0.0002356
1126	0.0002387
1138	0.0002945
1150	0.0004588
1162	0.0007502
1174	0.0010137
1186	0.0011284
1198	0.0010633
1210	0.0007874
1222	0.0004836
1234	0.000341
1246	0.0002728
1258	0.0002945
1270	0.0003038
1282	0.000279
1294	0.000279
1306	0.0002883
1318	0.0003038
1330	0.0003534
1342	0.000589
1354	0.0013888
1366	0.0025451
1378	0.0027342
1390	0.0021204
1402	0.0015314
1414	0.0017019
1426	0.0015562
1438	0.0014074
1450	0.0022382
1462	0.0032736
1474	0.0031372
1486	0.0018166
1498	0.0007936
1510	0.0004092
1522	0.0002883
1534	0.0002294
1546	0.0002077
1558	0.0002232
1570	0.0002883
1582	0.0003937
1594	0.0004836
1606	0.0005022
1618	0.0008835
1630	0.0015996
1642	0.0017546
1654	0.0009641
1666	0.0003627
1678	0.0002201
1690	0.0001798
1702	0.0001457
1714	9.92e-05
1726	8.99e-05
1738	7.13e-05
1750	4.96e-05
1762	6.51e-05
1774	8.37e-05
1786	8.68e-05
1798	9.61e-05
1810	0.0002325
1822	0.0004712
1834	0.0004929
1846	0.0002666
1858	9.61e-05
1870	7.13e-05
1882	6.51e-05
1894	5.27e-05
1906	3.72e-05
1918	4.65e-05
1930	7.13e-05
1942	3.41e-05
1954	4.34e-05
1966	5.27e-05
1978	6.51e-05
1990	5.89e-05
2002	7.13e-05
2014	2.79e-05
2026	3.72e-05
2038	1.86e-05
2050	3.41e-05
2062	4.03e-05
2074	3.1e-05
2086	4.03e-05
2098	1.55e-05
2110	2.79e-05
2122	2.79e-05
2134	4.96e-05
2146	2.17e-05
2158	2.17e-05
2170	1.55e-05
2182	1.86e-05
2194	2.48e-05
2206	2.79e-05
2218	2.17e-05
2230	3.1e-05
2242	1.55e-05
2254	1.24e-05
2266	3.72e-05
2278	4.03e-05
2290	5.27e-05
2302	2.79e-05
2314	6.82e-05
2326	6.2e-05
2338	9.92e-05
2350	6.82e-05
2362	8.99e-05
2374	5.89e-05
2386	4.65e-05
2398	5.58e-05
2410	6.51e-05
2422	6.51e-05
2434	4.03e-05
2446	2.79e-05
2458	1.55e-05
2470	3.1e-05
2482	2.79e-05
2494	4.03e-05
2506	4.34e-05
2518	5.27e-05
2530	4.96e-05
2542	8.37e-05
2554	8.37e-05
2566	6.51e-05
2578	8.68e-05
2590	0.0001023
2602	0.0001147
2614	0.0001364
2626	0.000155
2638	0.000186
2650	0.0001767
2662	0.0001674
2674	0.0001674
2686	0.0001798
2698	0.0002232
2710	0.0002542
2722	0.0003503
2734	0.0004278
2746	0.0004619
2758	0.0003999
2770	0.0004185
2782	0.0004836
2794	0.0006014
2806	0.0008277
2818	0.001116
2830	0.0016771
2842	0.002821
2854	0.0042718
2866	0.0063581
2878	0.0095728
2890	0.0108035
2902	0.0112158
2914	0.0118978
2926	0.0131068
2938	0.0159619
2950	0.0197377
2962	0.0292919
2974	0.0273203
2986	0.0125612
2998	0.0056451
3010	0.0039556
3022	0.0026288
3034	0.0017329
3046	0.0014384
3058	0.0014322
3070	0.0019871
3082	0.002976
3094	0.0029171
3106	0.0014291
3118	0.0006665
3130	0.0004898
3142	0.0004402
3154	0.0003906
3166	0.0003782
3178	0.0003472
3190	0.0003503
3202	0.0003317
3214	0.0002821
3226	0.0002325
3238	0.000186
3250	0.0001767
3262	0.000155
3274	0.0001922
3286	0.0001271
3298	9.92e-05
3310	0.0001178
3322	9.61e-05
3334	0.0001023
3346	9.61e-05
3358	8.68e-05
3370	9.61e-05
3382	7.44e-05
3394	8.06e-05
3406	5.27e-05
3418	6.2e-05
3430	4.03e-05
3442	4.65e-05
3454	2.17e-05
3466	5.89e-05
3478	2.17e-05
3490	3.72e-05
3502	3.1e-05
3514	6.2e-06
3526	2.17e-05
3538	3.1e-05
3550	2.79e-05
3562	3.1e-05
3574	5.89e-05
3586	5.89e-05
3598	1.24e-05
3610	1.86e-05
3622	5.58e-05
3634	3.72e-05
3646	6.82e-05
3658	5.58e-05
3670	5.58e-05
3682	5.58e-05
3694	2.17e-05
3706	5.58e-05
3718	8.06e-05
3730	6.2e-05
3742	5.58e-05
3754	6.82e-05
3766	8.06e-05
3778	5.89e-05
3790	7.13e-05
3802	9.61e-05
3814	9.92e-05
3826	5.89e-05
3838	7.13e-05
