Infrared Spectrum: 2,3-Dimethyl-1-pentene
Formula: C 7 H 14
CAS: 3404-72-6
State: gas
Instrument: HP-GC/MS/IRD
Origin: NIST Mass Spectrometry Data Center
1/CM	ABSORBANCE
550	0.0017575
562	0.0015577
574	0.0010841
586	0.0005513
598	0.0002479
610	0.0001924
622	0.000222
634	0.0001221
646	0.0001073
658	0.0001147
670	0.0002183
682	0.0001665
694	0.0002627
706	0.0003959
718	0.0003626
730	0.0002516
742	0.0003811
754	0.0003256
766	0.0003626
778	0.0003404
790	0.0003626
802	0.000481
814	0.0004773
826	0.0004514
838	0.0005106
850	0.0007326
862	0.0014985
874	0.0046028
886	0.0090687
898	0.0088763
910	0.0040034
922	0.001184
934	0.0008103
946	0.0007289
958	0.0007844
970	0.0008732
982	0.0008399
994	0.0008251
1006	0.0010138
1018	0.0010101
1030	0.0005846
1042	0.0003071
1054	0.0002405
1066	0.0004847
1078	0.0010545
1090	0.0013024
1102	0.0010434
1114	0.0005846
1126	0.0004773
1138	0.0004662
1150	0.0005476
1162	0.0005069
1174	0.0003293
1186	0.0003515
1198	0.0004033
1210	0.0005402
1222	0.0007992
1234	0.000925
1246	0.0008473
1258	0.0007252
1270	0.000777
1282	0.0008214
1294	0.0007585
1306	0.0007252
1318	0.0007696
1330	0.0008214
1342	0.0009953
1354	0.0016576
1366	0.0035076
1378	0.0053317
1390	0.0046213
1402	0.0025493
1414	0.0019573
1426	0.0025567
1438	0.0040034
1450	0.0059385
1462	0.0066008
1474	0.0045399
1486	0.0023088
1498	0.0011507
1510	0.00074
1522	0.0005439
1534	0.0004921
1546	0.0004736
1558	0.0005143
1570	0.0006142
1582	0.0007215
1594	0.0008399
1606	0.001073
1618	0.0017538
1630	0.0032523
1642	0.0044326
1654	0.0032893
1666	0.0014171
1678	0.0005476
1690	0.0003515
1702	0.0002664
1714	0.0002257
1726	0.0001924
1738	0.0001665
1750	0.0001702
1762	0.0002664
1774	0.0005328
1786	0.0007585
1798	0.0006216
1810	0.0003441
1822	0.0001443
1834	0.000111
1846	9.99e-05
1858	5.55e-05
1870	7.4e-05
1882	5.92e-05
1894	4.44e-05
1906	5.18e-05
1918	6.29e-05
1930	5.18e-05
1942	4.44e-05
1954	2.22e-05
1966	4.07e-05
1978	2.59e-05
1990	2.96e-05
2002	2.22e-05
2014	2.22e-05
2026	1.11e-05
2038	1.85e-05
2050	2.96e-05
2062	1.48e-05
2074	2.96e-05
2086	3.33e-05
2098	1.85e-05
2110	4.44e-05
2122	1.85e-05
2134	1.48e-05
2146	1.48e-05
2158	1.48e-05
2170	7.4e-06
2182	3.33e-05
2194	4.44e-05
2206	2.59e-05
2218	4.07e-05
2230	5.55e-05
2242	2.22e-05
2254	5.18e-05
2266	5.55e-05
2278	5.55e-05
2290	5.92e-05
2302	7.03e-05
2314	7.77e-05
2326	7.03e-05
2338	5.92e-05
2350	0.000111
2362	9.25e-05
2374	0.0001073
2386	0.0001147
2398	0.0001406
2410	0.0001258
2422	0.0001184
2434	0.0001221
2446	0.0001332
2458	0.0001258
2470	0.0001073
2482	0.0001258
2494	0.000111
2506	9.99e-05
2518	8.14e-05
2530	0.0001036
2542	0.0001554
2554	0.0001702
2566	0.0002109
2578	0.0002516
2590	0.0002294
2602	0.0002442
2614	0.0002479
2626	0.0002405
2638	0.0001998
2650	0.0002627
2662	0.0002368
2674	0.0002812
2686	0.0003182
2698	0.0003626
2710	0.0004144
2722	0.0005661
2734	0.0006993
2746	0.0007178
2758	0.0006845
2770	0.0007141
2782	0.000851
2794	0.0010138
2806	0.0012395
2818	0.0016021
2830	0.0020498
2842	0.0030599
2854	0.0056092
2866	0.0103674
2878	0.0150923
2890	0.0155326
2902	0.0139934
2914	0.0160358
2926	0.0218522
2938	0.024494
2950	0.02553
2962	0.0334147
2974	0.0355681
2986	0.023199
2998	0.0097532
3010	0.0050801
3022	0.0033744
3034	0.0027639
3046	0.0027824
3058	0.0036741
3070	0.0054094
3082	0.0061679
3094	0.004366
3106	0.0021127
3118	0.0011581
3130	0.0009324
3142	0.0007548
3154	0.000666
3166	0.0005883
3178	0.0005328
3190	0.0004403
3202	0.0003256
3214	0.0003367
3226	0.0002331
3238	0.0002183
3250	0.0001813
3262	0.0001554
3274	0.0001406
3286	9.25e-05
3298	8.51e-05
3310	8.51e-05
3322	2.59e-05
3334	5.92e-05
3346	6.29e-05
3358	8.14e-05
3370	0.0001184
3382	6.29e-05
3394	6.29e-05
3406	0.0001073
3418	0.0001332
3430	7.4e-05
3442	5.18e-05
3454	8.88e-05
3466	8.14e-05
3478	8.14e-05
3490	5.92e-05
3502	8.14e-05
3514	9.25e-05
3526	6.29e-05
3538	9.62e-05
3550	3.7e-05
3562	5.55e-05
3574	0.0001221
3586	5.92e-05
3598	5.55e-05
3610	7.77e-05
3622	2.96e-05
3634	6.66e-05
3646	5.92e-05
3658	9.25e-05
3670	8.88e-05
3682	4.07e-05
3694	7.4e-05
3706	4.07e-05
3718	5.18e-05
3730	4.07e-05
3742	2.59e-05
3754	0.0001184
3766	0.0001147
3778	7.4e-05
3790	0.0001184
3802	0.000111
3814	5.55e-05
3826	0.0001776
3838	0.000148
