Infrared Spectrum: 4-Methyl-2-heptene
Formula: C 8 H 16
CAS: 3404-56-6
State: gas
Instrument: HP-GC/MS/IRD
Origin: NIST Mass Spectrometry Data Center
1/CM	ABSORBANCE
550	0.0001634
562	0.0002014
574	3.42e-05
586	0.0001938
598	0.0001976
610	0.0002318
622	0.0001482
634	0.0001672
646	0.0001292
658	0.0001786
670	0.000171
682	0.0002736
694	0.0004864
706	0.0012046
718	0.001767
730	0.0014326
742	0.0010716
754	0.0008322
766	0.0004978
778	0.0003078
790	0.0002888
802	0.0002128
814	0.0002508
826	0.0003116
838	0.0003762
850	0.0003952
862	0.0004522
874	0.0005168
886	0.000646
898	0.0007448
910	0.0009158
922	0.0011628
934	0.0016226
946	0.0032262
958	0.0066918
970	0.0075278
982	0.0039064
994	0.001862
1006	0.0013186
1018	0.0011286
1030	0.001026
1042	0.0008512
1054	0.0006498
1066	0.0005776
1078	0.000532
1090	0.0006194
1102	0.0006992
1114	0.0006612
1126	0.0006004
1138	0.0005814
1150	0.0005662
1162	0.0004902
1174	0.0003496
1186	0.000342
1198	0.0003534
1210	0.0004826
1222	0.0005548
1234	0.0005472
1246	0.000494
1258	0.0006156
1270	0.0007638
1282	0.0007638
1294	0.000893
1306	0.0010146
1318	0.0010564
1330	0.0011096
1342	0.0013756
1354	0.0015808
1366	0.0022002
1378	0.0032186
1390	0.002945
1402	0.0018924
1414	0.001558
1426	0.001729
1438	0.0028196
1450	0.0046474
1462	0.0053846
1474	0.0038988
1486	0.0020064
1498	0.0011286
1510	0.0008512
1522	0.0006802
1534	0.00057
1546	0.0005016
1558	0.0004408
1570	0.0003876
1582	0.0003344
1594	0.0002964
1606	0.000285
1618	0.0002964
1630	0.0003002
1642	0.0003496
1654	0.0004332
1666	0.0004408
1678	0.000418
1690	0.0003192
1702	0.0002698
1714	0.000247
1726	0.0003154
1738	0.000418
1750	0.0004218
1762	0.0002698
1774	0.00019
1786	0.0001672
1798	0.0001444
1810	0.0001178
1822	0.0001634
1834	0.000152
1846	0.0001178
1858	9.5e-05
1870	8.36e-05
1882	7.6e-05
1894	3.8e-05
1906	4.94e-05
1918	3.04e-05
1930	4.18e-05
1942	1.9e-05
1954	3.42e-05
1966	3.8e-05
1978	5.7e-05
1990	0.0001102
2002	9.12e-05
2014	8.74e-05
2026	4.94e-05
2038	4.18e-05
2050	5.32e-05
2062	4.18e-05
2074	2.66e-05
2086	1.9e-05
2098	0
2110	3.8e-06
2122	2.66e-05
2134	1.14e-05
2146	7.6e-06
2158	1.9e-05
2170	3.8e-06
2182	2.66e-05
2194	2.66e-05
2206	6.46e-05
2218	4.18e-05
2230	3.8e-05
2242	3.8e-05
2254	3.42e-05
2266	4.56e-05
2278	5.32e-05
2290	5.7e-05
2302	7.6e-05
2314	5.7e-05
2326	6.08e-05
2338	8.36e-05
2350	7.98e-05
2362	9.88e-05
2374	0.0001368
2386	0.000114
2398	0.000114
2410	0.0001178
2422	0.0001026
2434	0.0001026
2446	9.12e-05
2458	6.84e-05
2470	9.12e-05
2482	8.36e-05
2494	9.5e-05
2506	9.12e-05
2518	0.0001178
2530	0.0001254
2542	0.0001368
2554	0.0001482
2566	0.0001748
2578	0.0001976
2590	0.000209
2602	0.0002508
2614	0.0002432
2626	0.0002394
2638	0.0002736
2650	0.0002546
2662	0.0003192
2674	0.0003458
2686	0.0003838
2698	0.0004218
2710	0.0004598
2722	0.0006308
2734	0.0008702
2746	0.0009614
2758	0.0008056
2770	0.0008132
2782	0.0009728
2794	0.0012122
2806	0.0014934
2818	0.0019456
2830	0.0027398
2842	0.0048222
2854	0.0086868
2866	0.0138738
2878	0.0179588
2890	0.0176054
2902	0.0180196
2914	0.0231116
2926	0.029051
2938	0.029602
2950	0.0277932
2962	0.0364116
2974	0.0333868
2986	0.0160892
2998	0.0088616
3010	0.007505
3022	0.006745
3034	0.0052212
3046	0.0036328
3058	0.002603
3070	0.0020254
3082	0.0017214
3094	0.0013756
3106	0.0011438
3118	0.000969
3130	0.0008854
3142	0.0007676
3154	0.0006916
3166	0.0005662
3178	0.0005092
3190	0.000456
3202	0.000399
3214	0.0003002
3226	0.000266
3238	0.000209
3250	0.0001558
3262	0.0001558
3274	0.0001178
3286	0.0001102
3298	0.0001444
3310	0.0001634
3322	0.0001368
3334	0.0001216
3346	0.0001368
3358	0.0001102
3370	0.0001178
3382	0.0001292
3394	9.12e-05
3406	0.0001178
3418	9.5e-05
3430	0.0001064
3442	0.0001102
3454	6.84e-05
3466	8.74e-05
3478	8.36e-05
3490	0.0001026
3502	7.98e-05
3514	5.7e-05
3526	8.74e-05
3538	5.32e-05
3550	6.46e-05
3562	6.08e-05
3574	6.46e-05
3586	9.12e-05
3598	3.42e-05
3610	6.84e-05
3622	7.6e-05
3634	9.88e-05
3646	7.98e-05
3658	0.0001406
3670	9.88e-05
3682	0.0001026
3694	0.0001216
3706	0.0001102
3718	0.0001292
3730	0.0001444
3742	0.0001596
3754	0.0001786
3766	0.0001558
3778	7.98e-05
3790	0.0001634
3802	0.0001368
3814	0.000133
3826	0.0001406
3838	0.000171
