Infrared Spectrum: 4-Methyl-2-hexene (c,t)
Formula: C 7 H 14
CAS: 3404-55-5
State: gas
Instrument: HP-GC/MS/IRD
Origin: NIST Mass Spectrometry Data Center
1/CM	ABSORBANCE
550	0.0003184
562	0.0002912
574	0.0002576
586	0.0003104
598	0.0001376
610	9.28e-05
622	3.04e-05
634	0.0001056
646	9.12e-05
658	1.6e-06
670	9.76e-05
682	4.96e-05
694	0.0001808
706	0.0003472
718	0.0004128
730	0.0003376
742	0.0001696
754	0.000176
766	0.0002944
778	0.0003088
790	0.0002624
802	0.0002144
814	0.0001568
826	8e-05
838	0.0001456
850	0.0001376
862	0.00016
874	0.000192
886	0.0002592
898	0.0003152
910	0.0004016
922	0.000536
934	0.000872
946	0.0018752
958	0.003056
970	0.0034064
982	0.0024576
994	0.001616
1006	0.0011584
1018	0.0008256
1030	0.000576
1042	0.0003024
1054	0.000232
1066	0.0002576
1078	0.000312
1090	0.0002928
1102	0.0003392
1114	0.0002048
1126	0.000184
1138	0.0002432
1150	0.0002864
1162	0.000312
1174	0.0002736
1186	0.00024
1198	0.0002576
1210	0.0003168
1222	0.0003152
1234	0.00032
1246	0.0003744
1258	0.0003328
1270	0.0003936
1282	0.0004416
1294	0.0005056
1306	0.0004944
1318	0.0004688
1330	0.0005248
1342	0.00064
1354	0.0007568
1366	0.0011072
1378	0.001576
1390	0.001488
1402	0.0008912
1414	0.0006368
1426	0.0008144
1438	0.0012976
1450	0.0020928
1462	0.0024304
1474	0.0017776
1486	0.0009088
1498	0.0005488
1510	0.0003808
1522	0.0003104
1534	0.0002656
1546	0.0002464
1558	0.0002608
1570	0.000184
1582	0.000208
1594	0.0001632
1606	0.000176
1618	0.0001696
1630	0.0001936
1642	0.000184
1654	0.0001968
1666	0.0002288
1678	0.0002144
1690	0.00016
1702	0.0001424
1714	0.0001696
1726	0.000184
1738	0.0002272
1750	0.0002336
1762	0.0001616
1774	0.0001344
1786	0.0001184
1798	0.0001216
1810	0.0001408
1822	0.0001248
1834	0.0001168
1846	0.0001296
1858	7.52e-05
1870	0.0001024
1882	9.44e-05
1894	7.36e-05
1906	7.04e-05
1918	6.24e-05
1930	6.72e-05
1942	8.16e-05
1954	5.12e-05
1966	7.52e-05
1978	9.44e-05
1990	0.0001008
2002	9.12e-05
2014	9.6e-05
2026	7.2e-05
2038	5.76e-05
2050	4.8e-05
2062	8.48e-05
2074	6.88e-05
2086	6.56e-05
2098	3.84e-05
2110	5.44e-05
2122	4.16e-05
2134	5.44e-05
2146	2.72e-05
2158	5.12e-05
2170	2.88e-05
2182	2.4e-05
2194	4.8e-05
2206	3.36e-05
2218	4e-05
2230	2.56e-05
2242	2.72e-05
2254	4.48e-05
2266	6.88e-05
2278	3.84e-05
2290	3.04e-05
2302	2.4e-05
2314	4e-05
2326	2.72e-05
2338	1.6e-06
2350	1.76e-05
2362	1.12e-05
2374	1.28e-05
2386	1.28e-05
2398	3.04e-05
2410	1.92e-05
2422	4.48e-05
2434	2.56e-05
2446	2.4e-05
2458	6.08e-05
2470	6.4e-05
2482	5.76e-05
2494	9.6e-06
2506	1.76e-05
2518	3.68e-05
2530	4.48e-05
2542	4.8e-05
2554	4.32e-05
2566	2.08e-05
2578	4e-05
2590	8.16e-05
2602	6.24e-05
2614	4.48e-05
2626	9.76e-05
2638	3.84e-05
2650	7.2e-05
2662	8.16e-05
2674	0.0001344
2686	0.0001216
2698	0.0001408
2710	0.0001744
2722	0.000256
2734	0.000352
2746	0.000376
2758	0.0002912
2770	0.0003344
2782	0.0003584
2794	0.0003888
2806	0.0005616
2818	0.0007136
2830	0.000992
2842	0.0015376
2854	0.003224
2866	0.005952
2878	0.007712
2890	0.0074928
2902	0.0069712
2914	0.0086896
2926	0.011592
2938	0.0118464
2950	0.0113616
2962	0.015048
2974	0.0150432
2986	0.0090752
2998	0.0044
3010	0.0031872
3022	0.0027504
3034	0.0023232
3046	0.0017584
3058	0.0013296
3070	0.0010544
3082	0.0008848
3094	0.0007168
3106	0.0006144
3118	0.0004624
3130	0.0004032
3142	0.0003872
3154	0.0003424
3166	0.0002848
3178	0.0002624
3190	0.0002176
3202	0.0001712
3214	0.0001712
3226	7.84e-05
3238	0.0001376
3250	0.0001424
3262	0.0001232
3274	4e-05
3286	3.36e-05
3298	5.28e-05
3310	9.44e-05
3322	9.44e-05
3334	7.04e-05
3346	0.0001328
3358	0.0001296
3370	5.12e-05
3382	0.0001792
3394	0.000104
3406	5.76e-05
3418	0.0001056
3430	8e-05
3442	0.0001296
3454	5.6e-05
3466	6.72e-05
3478	7.36e-05
3490	0.0001568
3502	0.0001248
3514	9.28e-05
3526	3.68e-05
3538	0.0001536
3550	0.0001024
3562	8.8e-05
3574	0.0001152
3586	3.36e-05
3598	7.36e-05
3610	0.0001168
3622	0.0001616
3634	3.52e-05
3646	9.28e-05
3658	0.0001184
3670	0.0001056
3682	0.0001088
3694	0.000128
3706	0.000168
3718	4.64e-05
3730	8.96e-05
3742	6.56e-05
3754	0.0001008
3766	9.12e-05
3778	8.16e-05
3790	4.8e-05
3802	5.6e-05
3814	9.6e-05
3826	5.12e-05
3838	0.0001504
