Infrared Spectrum: 4,4'-DISULFONYLCHLORIDE BIPHENYL
Formula: C12 H8 Cl2 O4 S2
CAS: 3406-84-6
Melting point: 208 C
Class: COBLENTZ
Instrument: Not specified, most likely a prism, grating, or hybrid spectrometer.
Sampling: TRANSMISSION
Resolution: 4
MICROMETERS	TRANSMITTANCE
1.84	0.758
1.8733	0.762
1.9066	0.769
1.9399	0.773
1.9732	0.781
2.0065	0.787
2.03979	0.79
2.07309	0.791
2.10639	0.795
2.13969	0.799
2.17299	0.805
2.20629	0.807
2.23959	0.801
2.27289	0.793
2.30619	0.794
2.33949	0.797
2.37278	0.805
2.40608	0.807
2.43938	0.811
2.47268	0.819
2.50598	0.83
2.53928	0.838
2.57258	0.841
2.60588	0.843
2.63918	0.849
2.67248	0.853
2.70578	0.857
2.73907	0.857
2.77237	0.855
2.80567	0.857
2.83897	0.853
2.87227	0.849
2.90557	0.843
2.93887	0.838
2.97217	0.837
3.00547	0.839
3.03877	0.842
3.07206	0.846
3.10536	0.843
3.13866	0.837
3.17196	0.835
3.20526	0.823
3.23856	0.802
3.27186	0.814
3.30516	0.787
3.33846	0.602
3.37176	0.142
3.40506	0.029
3.43835	0.072
3.47165	0.132
3.50495	0.256
3.53825	0.668
3.57155	0.81
3.60485	0.854
3.63815	0.863
3.67145	0.866
3.70475	0.877
3.73805	0.873
3.77134	0.882
3.80464	0.89
3.83794	0.895
3.87124	0.901
3.90454	0.911
3.93784	0.919
3.97114	0.923
4.00444	0.929
4.03774	0.931
4.07104	0.937
4.10434	0.938
4.13763	0.939
4.17093	0.937
4.20423	0.93
4.23753	0.93
4.27083	0.937
4.30413	0.943
4.33743	0.945
4.37073	0.945
4.40403	0.943
4.43733	0.942
4.47062	0.947
4.50392	0.949
4.53722	0.947
4.57052	0.947
4.60382	0.947
4.63712	0.949
4.67042	0.95
4.70372	0.951
4.73702	0.953
4.77032	0.953
4.80362	0.953
4.83691	0.954
4.87021	0.954
4.90351	0.953
4.93681	0.953
4.97011	0.954
5.00341	0.957
5.03671	0.955
5.07001	0.955
5.10331	0.953
5.13661	0.949
5.1699	0.943
5.2032	0.939
5.2365	0.951
5.2698	0.954
5.3031	0.953
5.3364	0.951
5.3697	0.953
5.403	0.957
5.4363	0.957
5.4696	0.953
5.5029	0.954
5.53619	0.945
5.56949	0.939
5.60279	0.947
5.63609	0.954
5.66939	0.953
5.70269	0.958
5.73599	0.955
5.76929	0.954
5.80259	0.959
5.83589	0.951
5.86918	0.951
5.90248	0.946
5.93578	0.942
5.96908	0.938
6.00238	0.939
6.03568	0.933
6.06898	0.93
6.10228	0.938
6.13558	0.943
6.16888	0.945
6.20218	0.945
6.23547	0.931
6.26877	0.691
6.30207	0.65
6.33537	0.898
6.36867	0.919
6.40197	0.902
6.43527	0.939
6.46857	0.943
6.50187	0.942
6.53517	0.942
6.56846	0.942
6.60176	0.938
6.63506	0.935
6.66836	0.923
6.70166	0.902
6.73496	0.85
6.76826	0.72
6.80156	0.491
6.83486	0.371
6.86816	0.42
6.90146	0.531
6.93475	0.655
6.96805	0.771
7.00135	0.85
7.03465	0.883
7.06795	0.893
7.10125	0.89
7.13455	0.85
7.16785	0.712
7.20115	0.594
7.23445	0.307
7.26774	0.074
7.30104	0.333
7.33434	0.618
7.36764	0.64
7.40094	0.759
7.43424	0.794
7.46754	0.822
7.50084	0.847
7.53414	0.851
7.56744	0.851
7.60074	0.855
7.63403	0.862
7.66733	0.869
7.70063	0.875
7.73393	0.882
7.76723	0.889
7.80053	0.883
7.83383	0.854
7.86713	0.845
7.90043	0.887
7.93373	0.895
7.96703	0.897
8.00032	0.901
8.03362	0.899
8.06692	0.899
8.10022	0.898
8.13352	0.897
8.16682	0.895
8.20012	0.886
8.23342	0.875
8.26672	0.855
8.30002	0.809
8.33331	0.66
8.36661	0.443
8.39991	0.469
8.43321	0.481
8.46651	0.275
8.49981	0.173
8.53311	0.18
8.56641	0.317
8.59971	0.499
8.63301	0.611
8.66631	0.647
8.6996	0.699
8.7329	0.761
8.7662	0.794
8.7995	0.834
8.8328	0.851
8.8661	0.861
8.8994	0.861
8.9327	0.863
8.966	0.858
8.9993	0.853
9.03259	0.849
9.06589	0.847
9.09919	0.854
9.13249	0.862
9.16579	0.855
9.19909	0.811
9.23239	0.575
9.26569	0.62
9.29899	0.807
9.33229	0.853
9.36559	0.87
9.39888	0.878
9.43218	0.885
9.46548	0.89
9.49878	0.894
9.53208	0.897
9.56538	0.898
9.59868	0.898
9.63198	0.899
9.66528	0.901
9.69858	0.902
9.73187	0.905
9.76517	0.907
9.79847	0.901
9.83177	0.893
9.86507	0.881
9.89837	0.889
9.93167	0.893
9.96497	0.851
9.99827	0.783
10.0316	0.829
10.0649	0.87
10.0982	0.894
10.1315	0.909
10.1648	0.914
10.1981	0.915
10.2314	0.915
10.2647	0.915
10.298	0.914
10.3313	0.913
10.3646	0.911
10.3979	0.91
10.4312	0.911
10.4645	0.917
10.4978	0.926
10.5311	0.929
10.5644	0.931
10.5976	0.933
10.6309	0.934
10.6642	0.934
10.6975	0.933
10.7308	0.937
10.7641	0.939
10.7974	0.942
10.8307	0.942
10.864	0.942
10.8973	0.943
10.9306	0.943
10.9639	0.946
10.9972	0.947
11.0305	0.947
11.0638	0.949
11.0971	0.949
11.1304	0.949
11.1637	0.947
11.197	0.946
11.2303	0.947
11.2636	0.949
11.2969	0.951
11.3302	0.954
11.3635	0.955
11.3968	0.958
11.4301	0.961
11.4634	0.962
11.4967	0.963
11.53	0.963
11.5633	0.963
11.5966	0.961
11.6299	0.958
11.6632	0.955
11.6965	0.953
11.7298	0.953
11.7631	0.95
11.7964	0.949
11.8297	0.949
11.863	0.946
11.8963	0.943
11.9296	0.941
11.9629	0.937
11.9962	0.931
12.0295	0.925
12.0628	0.914
12.0961	0.891
12.1294	0.841
12.1627	0.736
12.196	0.548
12.2293	0.373
12.2626	0.355
12.2959	0.567
12.3292	0.793
12.3625	0.841
12.3958	0.869
12.4291	0.874
12.4624	0.878
12.4957	0.879
12.529	0.879
12.5623	0.879
12.5956	0.879
12.6289	0.879
12.6622	0.879
12.6955	0.879
12.7288	0.879
12.7621	0.879
12.7954	0.881
12.8287	0.879
12.862	0.877
12.8953	0.875
12.9286	0.875
12.9619	0.875
12.9952	0.875
13.0285	0.875
13.0618	0.873
13.0951	0.87
13.1284	0.869
13.1617	0.869
13.195	0.869
13.2283	0.866
13.2616	0.865
13.2949	0.863
13.3282	0.863
13.3615	0.863
13.3948	0.862
13.4281	0.862
13.4614	0.858
13.4947	0.853
13.528	0.845
13.5613	0.837
13.5946	0.83
13.6279	0.821
13.6612	0.813
13.6945	0.805
13.7278	0.794
13.7611	0.773
13.7944	0.732
13.8277	0.668
13.861	0.608
13.8943	0.497
13.9276	0.352
13.9609	0.237
13.9942	0.165
14.0275	0.2
14.0608	0.285
14.0941	0.415
14.1273	0.571
14.1606	0.651
14.1939	0.655
14.2272	0.662
14.2605	0.703
14.2938	0.782
14.3271	0.827
14.3604	0.851
14.3937	0.867
14.427	0.879
14.4603	0.882
14.4936	0.886
14.5269	0.889
14.5602	0.887
14.5935	0.89
14.6268	0.89
14.6601	0.886
14.6934	0.889
14.7267	0.897
14.76	0.899
14.7933	0.902
14.8266	0.903
14.8599	0.903
14.8932	0.903
14.9265	0.901
14.9598	0.905
14.9931	0.918
15.0264	0.926
15.0597	0.921
15.093	0.921
15.1263	0.921
