Infrared Spectrum: Bis(phenylsulphonyl)methane
Formula: C 13 H 12 O 4 S 2
CAS: 3406-02-8
State: gas
Origin: EPA-IR VAPOR PHASE LIBRARY
1/CM	ABSORBANCE
549.9	0.00536
559.547	0.00142
569.193	0.0004266
578.84	0.0006398
588.486	0.0003886
598.133	0.0002886
607.779	0.0003563
617.426	0.000243
627.072	0.00021596
636.719	0.0002518
646.365	0.000214
656.012	0.0003075
665.658	0.0004813
675.305	0.0010376
684.951	0.00202
694.598	0.0009799
704.245	0.0006572
713.891	0.0007043
723.538	0.0011213
733.184	0.00245
742.831	0.00479
752.477	0.00225
762.124	0.00252
771.77	0.00276
781.417	0.00132
791.063	0.0007196
800.71	0.0006098
810.356	0.0009003
820.003	0.00303
829.649	0.00322
839.296	0.0010007
848.943	0.0003652
858.589	0.0002851
868.236	0.00023139
877.882	0.00020109
887.529	0.00015278
897.175	0.00020731
906.822	0.0002492
916.468	0.0002675
926.115	0.00022768
935.761	0.00016321
945.408	0.00018881
955.054	0.00015338
964.701	0.0001918
974.347	0.0002394
983.994	0.000295
993.64	0.0002606
1003.29	0.0003202
1012.93	0.0003767
1022.58	0.0003913
1032.23	0.0003447
1041.87	0.0003052
1051.52	0.0002602
1061.17	0.0004662
1070.81	0.0008498
1080.46	0.0023
1090.11	0.00136
1099.75	0.0006652
1109.4	0.0004344
1119.05	0.0004838
1128.69	0.0005264
1138.34	0.00132
1147.99	0.00379
1157.63	0.00511
1167.28	0.00396
1176.92	0.00257
1186.57	0.00126
1196.22	0.00145
1205.86	0.00192
1215.51	0.00154
1225.16	0.0006726
1234.8	0.000117
1244.45	8.61e-05
1254.1	0.00022921
1263.74	0.0002135
1273.39	0.0003237
1283.04	0.0002585
1292.68	0.0004039
1302.33	0.0004071
1311.98	0.000652
1321.62	0.0008545
1331.27	0.00162
1340.92	0.0025
1350.56	0.00584
1360.21	0.00616
1369.86	0.00344
1379.5	0.0010828
1389.15	0.0005284
1398.79	0.000301
1408.44	0.0003066
1418.09	0.00017547
1427.73	0.0002979
1437.38	0.0004935
1447.03	0.00118
1456.67	0.0005871
1466.32	0.0003128
1475.97	0.0003764
1485.61	0.0003467
1495.26	0.00021585
1504.91	0.00017615
1514.55	0.0002551
1524.2	0.00019844
1533.85	0.00016478
1543.49	0.00016857
1553.14	0.00013745
1562.79	0.0001279
1572.43	0.00023203
1582.08	0.0002884
1591.73	0.0002956
1601.37	0.00021613
1611.02	0.00017943
1620.67	0.00019173
1630.31	0.00018353
1639.96	0.0002566
1649.6	0.00023228
1659.25	0.00020346
1668.9	0.0001157
1678.54	0.000143244
1688.19	0.0001267
1697.84	6.62e-05
1707.48	0.000143769
1717.13	8.19e-05
1726.78	0.000146855
1736.42	8.37e-05
1746.07	0.00013835
1755.72	0.00017519
1765.36	0.00017712
1775.01	0.00017939
1784.66	0.00016155
1794.3	0.00021096
1803.95	0.0002457
1813.6	0.00020628
1823.24	0.00021736
1832.89	0.00018317
1842.54	9.22e-05
1852.18	0.00013043
1861.83	0.00013124
1871.47	0.0001535
1881.12	0.0001251
1890.77	0.00015931
1900.41	0.00021369
1910.06	0.00021528
1919.71	0.00018059
1929.35	0.0001267
1939	0.00017122
1948.65	0.00015291
1958.29	0.0002503
1967.94	0.00018673
1977.59	0.00020804
1987.23	0.0001016
1996.88	0.000143419
2006.53	9.44e-05
2016.17	0.0001205
2025.82	0.000116
2035.47	0.00013604
2045.11	8.26e-05
2054.76	0.0001146
2064.41	0.0001162
2074.05	0.0001085
2083.7	0.00015616
2093.35	8.74e-05
2102.99	0.0001152
2112.64	0.00018904
2122.28	0.000140437
2131.93	0.000139798
2141.58	0.00013133
2151.22	0.000147497
2160.87	0.000141667
2170.52	0.00018517
2180.16	0.00016341
2189.81	0.00013603
2199.46	0.00015363
2209.1	0.00018275
2218.75	0.000143898
2228.4	0.00018913
2238.04	0.0002661
2247.69	0.00017631
2257.34	0.000149109
2266.98	0.00017751
2276.63	0.00013468
2286.28	0.00018585
2295.92	0.00017258
2305.57	0.00016796
2315.22	0.00019112
2324.86	0.0002489
2334.51	0.00023883
2344.16	0.0002263
2353.8	0.00015302
2363.45	0.0002019
2373.09	0.00020142
2382.74	0.00020448
2392.39	0.00017268
2402.03	0.00020459
2411.68	0.00022337
2421.33	0.00019258
2430.97	0.00022692
2440.62	0.0002548
2450.27	0.00021632
2459.91	0.0002406
2469.56	0.0002218
2479.21	0.00018509
2488.85	0.0002452
2498.5	0.00021536
2508.15	0.00021663
2517.79	0.00023581
2527.44	0.0003208
2537.09	0.00027
2546.73	0.00023881
2556.38	0.00023268
2566.03	0.000248
2575.67	0.0002896
2585.32	0.000273
2594.96	0.0002584
2604.61	0.0002619
2614.26	0.0002777
2623.9	0.0002586
2633.55	0.0002418
2643.2	0.0002502
2652.84	0.00020977
2662.49	0.0002663
2672.14	0.0002509
2681.78	0.0003355
2691.43	0.0003125
2701.08	0.0002948
2710.72	0.00019682
2720.37	0.0002774
2730.02	0.0003018
2739.66	0.0002436
2749.31	0.0003037
2758.96	0.00021984
2768.6	0.000361
2778.25	0.0003259
2787.9	0.0002737
2797.54	0.0003571
2807.19	0.0003595
2816.84	0.0003041
2826.48	0.0003476
2836.13	0.0002867
2845.77	0.0002595
2855.42	0.0002758
2865.07	0.000358
2874.71	0.0003336
2884.36	0.0003327
2894.01	0.00023676
2903.65	0.0002892
2913.3	0.00036
2922.95	0.0003669
2932.59	0.0003399
2942.24	0.0004413
2951.89	0.0002899
2961.53	0.00023806
2971.18	0.0003588
2980.83	0.00021334
2990.47	0.000295
3000.12	0.0005007
3009.77	0.0003629
3019.41	0.0004619
3029.06	0.000369
3038.71	0.000501
3048.35	0.0004701
3058	0.0005699
3067.64	0.0008738
3077.29	0.00144
3086.94	0.0007589
3096.58	0.0005018
3106.23	0.000318
3115.88	0.0003896
3125.52	0.000281
3135.17	0.0002452
3144.82	0.0002664
3154.46	0.00015942
3164.11	0.0004103
3173.76	0.0001268
3183.4	0.0001697
3193.05	0.00020201
3202.7	0.0003745
3212.34	0.00015541
3221.99	0.0002499
3231.64	0.0004321
3241.28	0.00018579
3250.93	0.00016935
3260.58	6.83e-05
3270.22	0.000363
3279.87	0.0002849
3289.52	0.0003442
3299.16	0.0002602
3308.81	0.00023536
3318.45	0.0003407
3328.1	6.23e-05
3337.75	0.0003136
3347.39	0.00023062
3357.04	6.46e-05
3366.69	0.0002954
3376.33	0.0002585
3385.98	0.000183
3395.63	2.9e-05
3405.27	0.0001275
3414.92	8e-05
3424.57	0.0001317
3434.21	0.00016698
3443.86	0.00017423
3453.51	8.52e-05
3463.15	0.00023764
3472.8	0.0002111
3482.45	0.00013341
3492.09	0.00018669
3501.74	0.0001261
3511.39	7.1e-05
3521.03	0.00013541
3530.68	0.0001855
3540.33	0.00018191
3549.97	9.9e-05
3559.62	7.91e-05
3569.26	0.0003192
3578.91	0.000143484
3588.56	0.0003076
3598.2	0.00017121
3607.85	0.0002851
3617.5	0.000139868
3627.14	0.00019285
3636.79	0.0001004
3646.44	0.00021555
3656.08	0.00023554
3665.73	3.1e-05
3675.38	0.0003179
3685.02	0.0002273
3694.67	0.00023687
3704.32	0.00023351
3713.96	0.00013401
3723.61	0.0002565
3733.26	0.0002453
3742.9	0.0003305
3752.55	0.000256
3762.2	0.0002551
3771.84	0.0003097
3781.49	0.0003727
3791.13	0.00023863
3800.78	0.0001287
3810.43	0.0002452
3820.07	0.0002445
3829.72	0.0002471
3839.37	0.0002647
3849.01	0.000294
3858.66	0.0004131
3868.31	0.0002411
3877.95	0.0002418
3887.6	0.00021723
3897.25	0.00021841
3906.89	0.0002481
3916.54	0.00017404
3926.19	0.0003477
3935.83	0.0002675
3945.48	0.00019193
3955.13	0.0003654
3964.77	0.0003596
3974.42	0.0002843
3984.07	0.00022414
3993.71	0.00020969
