Infrared Spectrum: Orphenadrine hydrochloride
Formula: C 18 H 23 N O* H Cl
CAS: 341-69-5
State: gas
Origin: EPA-IR VAPOR PHASE LIBRARY
1/CM	ABSORBANCE
549.8	0.000281
559.445	0.00063143
569.09	0.000593294
578.734	0.00065794
588.379	0.000592714
598.024	0.0007046
607.669	0.0014871
617.313	0.002522
626.958	0.0015755
636.603	0.0011352
646.248	0.001622
655.893	0.001592
665.537	0.0011011
675.182	0.0013553
684.827	0.002422
694.472	0.005212
704.116	0.004592
713.761	0.003912
723.406	0.006662
733.051	0.005672
742.695	0.007172
752.34	0.008542
761.985	0.003502
771.63	0.001972
781.275	0.002032
790.919	0.0014569
800.564	0.0011263
810.209	0.001123
819.854	0.0010059
829.498	0.0009089
839.143	0.0012302
848.788	0.0013721
858.433	0.0015643
868.078	0.001812
877.722	0.002002
887.367	0.001752
897.012	0.0014639
906.657	0.001237
916.301	0.00128
925.946	0.0012565
935.591	0.0014436
945.236	0.001642
954.88	0.001842
964.525	0.002062
974.17	0.002112
983.815	0.002152
993.46	0.002192
1003.1	0.002872
1012.75	0.003882
1022.39	0.005602
1032.04	0.006882
1041.68	0.007962
1051.33	0.009762
1060.97	0.010292
1070.62	0.011172
1080.26	0.011072
1089.91	0.012392
1099.55	0.011582
1109.2	0.010712
1118.84	0.008562
1128.49	0.004572
1138.13	0.002802
1147.78	0.002702
1157.42	0.002592
1167.07	0.003232
1176.71	0.004282
1186.36	0.003782
1196	0.003112
1205.64	0.002582
1215.29	0.002182
1224.93	0.002292
1234.58	0.001932
1244.22	0.002612
1253.87	0.003602
1263.51	0.004262
1273.16	0.004572
1282.8	0.004782
1292.45	0.004412
1302.09	0.004162
1311.74	0.003742
1321.38	0.003532
1331.03	0.003512
1340.67	0.003442
1350.32	0.002862
1359.96	0.002522
1369.61	0.002372
1379.25	0.002162
1388.9	0.001942
1398.54	0.001682
1408.18	0.001712
1417.83	0.001762
1427.47	0.001982
1437.12	0.002882
1446.76	0.005192
1456.41	0.006272
1466.05	0.005702
1475.7	0.004492
1485.34	0.004582
1494.99	0.004722
1504.63	0.002102
1514.28	0.0014206
1523.92	0.0011424
1533.57	0.0009872
1543.21	0.0010895
1552.86	0.0010053
1562.5	0.0010839
1572.15	0.0010135
1581.79	0.0012931
1591.44	0.0015623
1601.08	0.002092
1610.73	0.0014788
1620.37	0.0011703
1630.01	0.0010039
1639.66	0.0009538
1649.3	0.0008345
1658.95	0.0009044
1668.59	0.000954
1678.24	0.0009218
1687.88	0.0009067
1697.53	0.0008864
1707.17	0.0009058
1716.82	0.0008262
1726.46	0.000828
1736.11	0.0008931
1745.75	0.000862
1755.4	0.0009628
1765.04	0.0008789
1774.69	0.0009166
1784.33	0.0009888
1793.98	0.001119
1803.62	0.0012476
1813.27	0.0011237
1822.91	0.0010191
1832.55	0.0009536
1842.2	0.0008736
1851.84	0.0007999
1861.49	0.0008164
1871.13	0.0009405
1880.78	0.0009606
1890.42	0.0010268
1900.07	0.001047
1909.71	0.0010011
1919.36	0.0010175
1929	0.0009508
1938.65	0.0011555
1948.29	0.0012599
1957.94	0.0010182
1967.58	0.0009471
1977.23	0.0008777
1986.87	0.0008002
1996.52	0.0007948
2006.16	0.000804
2015.81	0.0008058
2025.45	0.0007165
2035.1	0.0008308
2044.74	0.0008301
2054.38	0.000825
2064.03	0.0008612
2073.67	0.0008179
2083.32	0.0008184
2092.96	0.0008308
2102.61	0.0007623
2112.25	0.000727
2121.9	0.0008805
2131.54	0.0007398
2141.19	0.0007253
2150.83	0.0007234
2160.48	0.000777
2170.12	0.0007059
2179.77	0.0008196
2189.41	0.00065346
2199.06	0.00062257
2208.7	0.0006952
2218.35	0.00063653
2227.99	0.00065078
2237.64	0.0007563
2247.28	0.0007258
2256.92	0.0007594
2266.57	0.0006955
2276.21	0.0007163
2285.86	0.0008489
2295.5	0.00064977
2305.15	0.0007132
2314.79	0.0008034
2324.44	0.0008273
2334.08	0.00061629
2343.73	0.00065512
2353.37	0.0007492
2363.02	0.0005555
2372.66	0.0007245
2382.31	0.0007556
2391.95	0.00068935
2401.6	0.0007404
2411.24	0.0007941
2420.89	0.0007204
2430.53	0.00065222
2440.18	0.0007878
2449.82	0.0007054
2459.47	0.00068486
2469.11	0.0008187
2478.75	0.0008616
2488.4	0.0007715
2498.04	0.0008016
2507.69	0.0007906
2517.33	0.0007728
2526.98	0.0008722
2536.62	0.0007949
2546.27	0.0007057
2555.91	0.0008376
2565.56	0.000762
2575.2	0.0008617
2584.85	0.0009049
2594.49	0.0008335
2604.14	0.001131
2613.78	0.0010607
2623.43	0.0009988
2633.07	0.0009158
2642.72	0.0010743
2652.36	0.0010009
2662.01	0.0011323
2671.65	0.0012609
2681.29	0.0013525
2690.94	0.0014385
2700.58	0.001742
2710.23	0.001902
2719.87	0.002182
2729.52	0.002632
2739.16	0.003182
2748.81	0.003842
2758.45	0.005312
2768.1	0.008312
2777.74	0.010692
2787.39	0.009002
2797.03	0.007262
2806.68	0.006522
2816.32	0.007092
2825.97	0.007952
2835.61	0.006662
2845.26	0.006062
2854.9	0.006942
2864.55	0.007742
2874.19	0.007802
2883.84	0.007132
2893.48	0.006942
2903.12	0.007052
2912.77	0.006922
2922.41	0.007642
2932.06	0.008872
2941.7	0.010122
2951.35	0.010732
2960.99	0.009262
2970.64	0.008472
2980.28	0.008342
2989.93	0.004972
2999.57	0.003372
3009.22	0.003272
3018.86	0.004372
3028.51	0.005682
3038.15	0.005242
3047.8	0.004372
3057.44	0.005542
3067.09	0.008222
3076.73	0.006992
3086.38	0.004292
3096.02	0.002832
3105.67	0.002222
3115.31	0.001652
3124.95	0.0011911
3134.6	0.0009706
3144.24	0.0008946
3153.89	0.0010369
3163.53	0.0006949
3173.18	0.0007942
3182.82	0.0005813
3192.47	0.0009262
3202.11	0.0008049
3211.76	0.000727
3221.4	0.0009228
3231.05	0.0005324
3240.69	0.00035
3250.34	0.00068673
3259.98	0.000482
3269.63	0.0006949
3279.27	0.0007685
3288.92	0.000292
3298.56	0.0007711
3308.21	0.00063094
3317.85	0.0007326
3327.49	0.0007803
3337.14	0.0007657
3346.78	0.00067445
3356.43	0.0007527
3366.07	0.0007715
3375.72	0.00067478
3385.36	0.000427
3395.01	0.0008711
3404.65	0.000591544
3414.3	0.0005439
3423.94	0.00063118
3433.59	0.0008309
3443.23	0.00062875
3452.88	0.0007017
3462.52	0.000396
3472.17	0.0005449
3481.81	0.000448
3491.46	0.000401
3501.1	0.00061634
3510.75	0.00066362
3520.39	0.0009065
3530.04	0.000296
3539.68	0.0005018
3549.32	0.000448
3558.97	0.000305
3568.61	0.000456
3578.26	0.0007106
3587.9	0.000437
3597.55	0.00062231
3607.19	0.000611
3616.84	0.0004986
3626.48	0.00063865
3636.13	0.000603
3645.77	0.00068018
3655.42	0.000409
3665.06	0.000471
3674.71	0.000339
3684.35	0.000458
3694	0.000352
3703.64	0.000343
3713.29	0.000364
3722.93	0.00065702
3732.58	0.0007773
3742.22	0.000513
3751.86	0.00068996
3761.51	0.000195
3771.15	0.0005573
3780.8	0.000233
3790.44	0.000277
3800.09	0.000418
3809.73	0.000466
3819.38	0.000434
3829.02	0.0005805
3838.67	0.000431
3848.31	0.0008995
3857.96	0.0007302
3867.6	0.000293
3877.25	0.000239
3886.89	0.0006963
3896.54	0.0006671
3906.18	0.00062227
3915.83	0.00022
3925.47	0.00062003
3935.12	0.0007316
3944.76	0.000352
3954.41	0.00064992
3964.05	0.0005533
3973.69	0.00059024
3983.34	0.000597173
3992.98	0.000699
