Infrared Spectrum: 4-Chloro-3-hydroxybenzoic acid
Formula: C 7 H 5 Cl O 3
CAS: 34113-69-4
State: gas
Origin: EPA-IR VAPOR PHASE LIBRARY
1/CM	ABSORBANCE
549.8	0.003689
559.445	0.004659
569.09	0.005109
578.734	0.005799
588.379	0.005879
598.024	0.004789
607.669	0.003659
617.313	0.002379
626.958	0.001859
636.603	0.0014617
646.248	0.0015113
655.893	0.002079
665.537	0.002649
675.182	0.0014269
684.827	0.00109
694.472	0.0012308
704.116	0.001769
713.761	0.002009
723.406	0.007429
733.051	0.008939
742.695	0.003049
752.34	0.005919
761.985	0.009169
771.63	0.005519
781.275	0.002709
790.919	0.0012297
800.564	0.0012305
810.209	0.0012649
819.854	0.001639
829.498	0.0014347
839.143	0.0010493
848.788	0.0009083
858.433	0.0011537
868.078	0.0012357
877.722	0.0015202
887.367	0.002059
897.012	0.002569
906.657	0.002379
916.301	0.003379
925.946	0.004399
935.591	0.003359
945.236	0.001719
954.88	0.0011549
964.525	0.0013298
974.17	0.0010961
983.815	0.0011419
993.46	0.001272
1003.1	0.0012195
1012.75	0.001639
1022.39	0.001939
1032.04	0.003419
1041.68	0.005919
1051.33	0.006069
1060.97	0.004879
1070.62	0.010279
1080.26	0.015729
1089.91	0.013069
1099.55	0.006779
1109.2	0.003999
1118.84	0.004159
1128.49	0.005779
1138.13	0.008239
1147.78	0.014359
1157.42	0.019619
1167.07	0.015019
1176.71	0.010809
1186.36	0.010369
1196	0.012559
1205.64	0.012869
1215.29	0.007859
1224.93	0.004239
1234.58	0.003599
1244.22	0.005589
1253.87	0.006709
1263.51	0.005389
1273.16	0.004559
1282.8	0.005429
1292.45	0.006099
1302.09	0.007009
1311.74	0.009109
1321.38	0.010179
1331.03	0.009689
1340.67	0.010569
1350.32	0.009159
1359.96	0.006289
1369.61	0.006119
1379.25	0.004579
1388.9	0.002479
1398.54	0.002049
1408.18	0.002569
1417.83	0.003519
1427.47	0.005049
1437.12	0.006469
1446.76	0.006649
1456.41	0.004599
1466.05	0.003319
1475.7	0.005009
1485.34	0.006629
1494.99	0.004809
1504.63	0.002599
1514.28	0.001719
1523.92	0.001368
1533.57	0.0013161
1543.21	0.0015501
1552.86	0.001959
1562.5	0.003189
1572.15	0.005379
1581.79	0.007189
1591.44	0.006089
1601.08	0.004159
1610.73	0.002989
1620.37	0.001919
1630.01	0.0012404
1639.66	0.001178
1649.3	0.0010998
1658.95	0.0010915
1668.59	0.0011166
1678.24	0.0008905
1687.88	0.0011439
1697.53	0.0014377
1707.17	0.002199
1716.82	0.002659
1726.46	0.002719
1736.11	0.003489
1745.75	0.008929
1755.4	0.028879
1765.04	0.039389
1774.69	0.017719
1784.33	0.004809
1793.98	0.002469
1803.62	0.002309
1813.27	0.002439
1822.91	0.001909
1832.55	0.0011312
1842.2	0.0008988
1851.84	0.0008872
1861.49	0.0008706
1871.13	0.0009015
1880.78	0.0009587
1890.42	0.0009618
1900.07	0.0008976
1909.71	0.0007842
1919.36	0.0007657
1929	0.0007928
1938.65	0.0007438
1948.29	0.0007075
1957.94	0.000593172
1967.58	0.0007013
1977.23	0.00065125
1986.87	0.00065638
1996.52	0.00066741
2006.16	0.00066383
2015.81	0.0006814
2025.45	0.00066082
2035.1	0.0005625
2044.74	0.000594114
2054.38	0.00067118
2064.03	0.00063293
2073.67	0.00065782
2083.32	0.0007227
2092.96	0.00068269
2102.61	0.0005499
2112.25	0.00063351
2121.9	0.00065518
2131.54	0.00064586
2141.19	0.00062032
2150.83	0.00065899
2160.48	0.00066646
2170.12	0.00063208
2179.77	0.00065133
2189.41	0.00060478
2199.06	0.00062807
2208.7	0.00060507
2218.35	0.00061914
2227.99	0.00064564
2237.64	0.0005761
2247.28	0.00061122
2256.92	0.0006184
2266.57	0.00066693
2276.21	0.000593425
2285.86	0.00064107
2295.5	0.0006224
2305.15	0.0007035
2314.79	0.0005639
2324.44	0.0005571
2334.08	0.00058672
2343.73	0.0005777
2353.37	0.00060362
2363.02	0.000593956
2372.66	0.0006901
2382.31	0.00063612
2391.95	0.00065178
2401.6	0.000598277
2411.24	0.00061952
2420.89	0.000594967
2430.53	0.00062441
2440.18	0.0005965
2449.82	0.000594359
2459.47	0.00063798
2469.11	0.00058024
2478.75	0.00067468
2488.4	0.000709
2498.04	0.0006944
2507.69	0.00061914
2517.33	0.0005176
2526.98	0.0007218
2536.62	0.000598507
2546.27	0.00063006
2555.91	0.0005327
2565.56	0.00058696
2575.2	0.000592883
2584.85	0.0004962
2594.49	0.00065791
2604.14	0.000598715
2613.78	0.00058708
2623.43	0.00062402
2633.07	0.00060948
2642.72	0.0005508
2652.36	0.000523
2662.01	0.00065104
2671.65	0.0005527
2681.29	0.000411
2690.94	0.000502
2700.58	0.0005548
2710.23	0.00047
2719.87	0.000521
2729.52	0.000291
2739.16	0.0005669
2748.81	0.00047
2758.45	0.00048
2768.1	0.000435
2777.74	0.0005717
2787.39	0.000564
2797.03	0.00059981
2806.68	0.000461
2816.32	0.00047
2825.97	0.0005476
2835.61	0.000398
2845.26	0.0005338
2854.9	0.0005238
2864.55	0.000367
2874.19	0.0005472
2883.84	0.000413
2893.48	0.000467
2903.12	0.000345
2912.77	0.000415
2922.41	0.000421
2932.06	0.000457
2941.7	0.000372
2951.35	0.000433
2960.99	0.0005636
2970.64	0.000411
2980.28	0.00044
2989.93	0.0004998
2999.57	0.0004945
3009.22	0.000447
3018.86	0.000387
3028.51	0.000422
3038.15	0.000151
3047.8	0.00058767
3057.44	0.000484
3067.09	0.00060841
3076.73	0.0007246
3086.38	0.00065487
3096.02	0.0004959
3105.67	0.000548
3115.31	0.000422
3124.95	0.000456
3134.6	0.000427
3144.24	0.0005565
3153.89	0.000436
3163.53	0.000397
3173.18	0.000354
3182.82	0.000417
3192.47	0.000472
3202.11	0.000471
3211.76	0.0003
3221.4	0.000218
3231.05	0.000384
3240.69	0.000376
3250.34	0.000468
3259.98	0.0004992
3269.63	0.000322
3279.27	0.000315
3288.92	0.000333
3298.56	0.0005595
3308.21	0.000415
3317.85	0.000307
3327.49	0.00067578
3337.14	0.00063674
3346.78	0.000473
3356.43	0.00060383
3366.07	0.000274
3375.72	0.0005229
3385.36	0.000373
3395.01	0.0005374
3404.65	0.000489
3414.3	0.000354
3423.94	0.000438
3433.59	0.0004891
3443.23	0.000447
3452.88	0.000425
3462.52	0.0005218
3472.17	0.00041
3481.81	0.0005187
3491.46	0.0005056
3501.1	0.0007462
3510.75	0.00066029
3520.39	0.0007732
3530.04	0.0007033
3539.68	0.0007633
3549.32	0.0008999
3558.97	0.001669
3568.61	0.007999
3578.26	0.024819
3587.9	0.018269
3597.55	0.003259
3607.19	0.0010929
3616.84	0.0007783
3626.48	0.0007534
3636.13	0.0009067
3645.77	0.0010996
3655.42	0.0011297
3665.06	0.0008207
3674.71	0.0005705
3684.35	0.000478
3694	0.000443
3703.64	0.000491
3713.29	0.0004913
3722.93	0.000432
3732.58	0.0005422
3742.22	0.0005648
3751.86	0.0004979
3761.51	0.00032
3771.15	0.000181
3780.8	0.00036
3790.44	0.000437
3800.09	0.000423
3809.73	0.000307
3819.38	0.000391
3829.02	0.000589433
3838.67	0.0004923
3848.31	0.000453
3857.96	0.000431
3867.6	0.0005485
3877.25	0.000345
3886.89	0.000396
3896.54	0.000348
3906.18	2.1e-05
3915.83	0.000431
3925.47	0.000408
3935.12	0.000262
3944.76	0.0005659
3954.41	0.00043
3964.05	0.000481
3973.69	0.000345
3983.34	0.0005098
3992.98	0.000203
