Infrared Spectrum: o-(2-Benzothaizolyl)phenol
Formula: C 13 H 9 N O S
CAS: 3411-95-8
State: gas
Origin: EPA-IR VAPOR PHASE LIBRARY
1/CM	ABSORBANCE
551.7	0.00236
563.274	0.00294
574.848	0.00467
586.421	0.00476
597.995	0.0038
609.569	0.00409
621.143	0.00392
632.717	0.00391
644.291	0.00497
655.864	0.00781
667.438	0.00949
679.012	0.01195
690.586	0.02496
702.16	0.03918
713.734	0.02821
725.307	0.04067
736.881	0.04139
748.455	0.07978
760.029	0.05328
771.603	0.01187
783.177	0.00552
794.75	0.0048
806.324	0.00926
817.898	0.01588
829.472	0.00596
841.046	0.00368
852.619	0.00508
864.193	0.00472
875.767	0.00358
887.341	0.00227
898.915	0.0019
910.489	0.00213
922.062	0.00295
933.636	0.00484
945.21	0.00584
956.784	0.01362
968.358	0.04044
979.932	0.02308
991.505	0.00718
1003.08	0.00581
1014.65	0.00642
1026.23	0.00639
1037.8	0.00841
1049.37	0.00367
1060.95	0.00343
1072.52	0.00502
1084.1	0.00291
1095.67	0.00279
1107.24	0.00435
1118.82	0.01083
1130.39	0.00804
1141.97	0.01071
1153.54	0.03771
1165.11	0.01777
1176.69	0.01268
1188.26	0.02393
1199.83	0.0401
1211.41	0.05591
1222.98	0.03772
1234.56	0.03143
1246.13	0.03818
1257.7	0.03138
1269.28	0.03365
1280.85	0.02044
1292.42	0.01272
1304	0.02261
1315.57	0.02368
1327.15	0.00942
1338.72	0.00579
1350.29	0.00627
1361.87	0.00746
1373.44	0.0091
1385.02	0.01144
1396.59	0.01452
1408.16	0.01422
1419.74	0.01336
1431.31	0.02692
1442.88	0.04177
1454.46	0.0224
1466.03	0.04022
1477.61	0.07714
1489.18	0.09487
1500.75	0.06233
1512.33	0.02959
1523.9	0.01162
1535.48	0.00802
1547.05	0.0081
1558.62	0.01255
1570.2	0.02206
1581.77	0.03869
1593.34	0.03287
1604.92	0.02019
1616.49	0.03565
1628.07	0.02638
1639.64	0.00492
1651.21	0.00303
1662.79	0.00304
1674.36	0.00371
1685.93	0.00462
1697.51	0.00307
1709.08	0.00217
1720.66	0.00185
1732.23	0.00169
1743.8	0.00157
1755.38	0.0017
1766.95	0.00278
1778.53	0.00474
1790.1	0.00294
1801.67	0.00183
1813.25	0.00328
1824.82	0.00196
1836.39	0.0009931
1847.97	0.00133
1859.54	0.00249
1871.12	0.0022
1882.69	0.00162
1894.26	0.00333
1905.84	0.0029
1917.41	0.00162
1928.99	0.00446
1940.56	0.00442
1952.13	0.000934
1963.71	0.0006914
1975.28	0.000631
1986.85	0.000546
1998.43	0.0005662
2010	0.0005645
2021.58	0.0005423
2033.15	0.0005039
2044.72	0.0004937
2056.3	0.0005964
2067.87	0.0008275
2079.44	0.0009836
2091.02	0.0009449
2102.59	0.0007612
2114.17	0.0006786
2125.74	0.0007302
2137.31	0.0007491
2148.89	0.0006779
2160.46	0.0007137
2172.04	0.0006828
2183.61	0.0006405
2195.18	0.0007612
2206.76	0.0007007
2218.33	0.0005592
2229.9	0.000661
2241.48	0.0007451
2253.05	0.0008062
2264.63	0.00103
2276.2	0.00136
2287.77	0.00125
2299.35	0.00113
2310.92	0.00121
2322.5	0.00123
2334.07	0.00109
2345.64	0.0012
2357.22	0.00113
2368.79	0.00114
2380.36	0.00122
2391.94	0.00132
2403.51	0.00144
2415.09	0.00153
2426.66	0.00168
2438.23	0.00179
2449.81	0.00161
2461.38	0.00167
2472.96	0.00168
2484.53	0.00166
2496.1	0.00179
2507.68	0.00203
2519.25	0.00223
2530.82	0.00229
2542.4	0.00246
2553.97	0.00267
2565.55	0.00303
2577.12	0.0032
2588.69	0.00342
2600.27	0.00352
2611.84	0.0037
2623.41	0.00384
2634.99	0.00383
2646.56	0.00389
2658.14	0.00399
2669.71	0.004
2681.28	0.00415
2692.86	0.00441
2704.43	0.00456
2716.01	0.00489
2727.58	0.00524
2739.15	0.00579
2750.73	0.00615
2762.3	0.00639
2773.87	0.00653
2785.45	0.00627
2797.02	0.00605
2808.6	0.00598
2820.17	0.00615
2831.74	0.00644
2843.32	0.00693
2854.89	0.00756
2866.47	0.0079
2878.04	0.00797
2889.61	0.00803
2901.19	0.00841
2912.76	0.00891
2924.33	0.00923
2935.91	0.00946
2947.48	0.00962
2959.06	0.00961
2970.63	0.00983
2982.2	0.01053
2993.78	0.012
3005.35	0.01403
3016.92	0.01565
3028.5	0.01802
3040.07	0.02113
3051.65	0.02593
3063.22	0.03521
3074.79	0.04676
3086.37	0.03295
3097.94	0.02196
3109.52	0.01971
3121.09	0.01935
3132.66	0.01791
3144.24	0.01727
3155.81	0.01767
3167.38	0.01822
3178.96	0.019
3190.53	0.01905
3202.11	0.01873
3213.68	0.01842
3225.25	0.01839
3236.83	0.01759
3248.4	0.01675
3259.98	0.01607
3271.55	0.01556
3283.12	0.01481
3294.7	0.01392
3306.27	0.01271
3317.84	0.01171
3329.42	0.01081
3340.99	0.00988
3352.57	0.00914
3364.14	0.00827
3375.71	0.00748
3387.29	0.00661
3398.86	0.00585
3410.43	0.00516
3422.01	0.00458
3433.58	0.00402
3445.16	0.00366
3456.73	0.00312
3468.3	0.0028
3479.88	0.00233
3491.45	0.00209
3503.03	0.00175
3514.6	0.00147
3526.17	0.00138
3537.75	0.0011
3549.32	0.0008809
3560.89	0.0007485
3572.47	0.0008044
3584.04	0.0007818
3595.62	0.0006825
3607.19	0.0005216
3618.76	0.0004107
3630.34	0.0003586
3641.91	0.0004467
3653.49	0.0004197
3665.06	0.0002674
3676.63	0.0002389
3688.21	0.0002407
3699.78	0.0001738
3711.35	0.0001322
3722.93	0.0002394
3734.5	0.0002692
3746.08	0.0002034
3757.65	0.0002434
3769.22	0.0001957
3780.8	0.0002029
3792.37	0.000253
3803.94	0.0001963
3815.52	9.873e-05
3827.09	0.0002593
3838.67	0.0001442
3850.24	0.0002151
3861.81	0.0002864
3873.39	0.0002425
3884.96	0.0002582
3896.54	0.0003033
3908.11	0.0002411
3919.68	0.0003786
3931.26	0.0006064
3942.83	0.0004744
3954.4	0.0002903
3965.98	0.0003056
3977.55	0.0001724
3989.13	0.0002327
4000.7	0.0002892
