Infrared Spectrum: o-Ethylbenzonitrile
Formula: C 9 H 9 N
CAS: 34136-59-9
State: gas
Instrument: HP-GC/MS/IRD
Origin: NIST Mass Spectrometry Data Center
1/CM	ABSORBANCE
550	0.0007056
562	0.0007888
574	0.0002512
586	0.000296
598	0.0002704
610	0.0001728
622	8e-05
634	0.0001488
646	0.0002048
658	4.16e-05
670	0.0001792
682	0.0002864
694	0.0005168
706	0.0008208
718	0.0008816
730	0.0015664
742	0.0063296
754	0.0154928
766	0.008736
778	0.0025168
790	0.0009648
802	0.0007152
814	0.0005936
826	0.0004288
838	0.0002736
850	0.0003072
862	0.0003376
874	0.0003264
886	0.0002432
898	0.0002576
910	0.0002432
922	0.000352
934	0.0005392
946	0.0007776
958	0.0005136
970	0.0003824
982	0.0002352
994	0.000176
1006	0.0002032
1018	0.0003936
1030	0.0007136
1042	0.0010048
1054	0.001216
1066	0.0010272
1078	0.0005488
1090	0.0003504
1102	0.0003984
1114	0.000496
1126	0.0003712
1138	0.000176
1150	0.0002448
1162	0.0004928
1174	0.0003776
1186	0.0002208
1198	0.0002896
1210	0.0004048
1222	0.0002992
1234	0.000448
1246	0.0005168
1258	0.0004144
1270	0.000536
1282	0.000656
1294	0.0005984
1306	0.0006384
1318	0.0007872
1330	0.0007536
1342	0.0005472
1354	0.0004512
1366	0.0004768
1378	0.0006848
1390	0.000744
1402	0.0005152
1414	0.0005632
1426	0.000888
1438	0.0018928
1450	0.0029952
1462	0.0032048
1474	0.0037824
1486	0.0042368
1498	0.002224
1510	0.0007232
1522	0.000384
1534	0.0001888
1546	0.0001424
1558	0.0001168
1570	0.0002336
1582	0.0005056
1594	0.0011024
1606	0.0011168
1618	0.0008192
1630	0.0005904
1642	0.0002896
1654	0.0001008
1666	0.00012
1678	0.0001184
1690	0.0002704
1702	0.000336
1714	0.0002352
1726	0.0002096
1738	0.0001968
1750	9.12e-05
1762	4.64e-05
1774	7.2e-05
1786	0.0001088
1798	0.0002448
1810	0.0004528
1822	0.0003776
1834	0.000232
1846	0.0002736
1858	0.0002016
1870	7.04e-05
1882	0.00016
1894	0.0002592
1906	0.0002544
1918	0.000528
1930	0.000536
1942	0.0003088
1954	0.0004416
1966	0.0003248
1978	9.44e-05
1990	4.96e-05
2002	3.36e-05
2014	4e-05
2026	4.8e-05
2038	3.04e-05
2050	3.68e-05
2062	4.8e-06
2074	1.12e-05
2086	2.56e-05
2098	0
2110	2.56e-05
2122	4.64e-05
2134	4e-05
2146	3.36e-05
2158	2.72e-05
2170	8.32e-05
2182	9.92e-05
2194	0.0001584
2206	0.0004256
2218	0.0015408
2230	0.0023088
2242	0.001016
2254	0.0002096
2266	0.0001424
2278	0.0001824
2290	0.0001328
2302	0.0001456
2314	0.0001472
2326	0.0001632
2338	0.0002
2350	0.0001056
2362	5.12e-05
2374	8.48e-05
2386	0.000104
2398	9.12e-05
2410	7.36e-05
2422	8.16e-05
2434	0.0001104
2446	0.000112
2458	9.12e-05
2470	7.68e-05
2482	8.32e-05
2494	8e-05
2506	7.52e-05
2518	0.0001008
2530	8.96e-05
2542	7.2e-05
2554	9.44e-05
2566	0.0001168
2578	7.84e-05
2590	0.0001072
2602	9.92e-05
2614	0.0001456
2626	0.0001632
2638	0.0002016
2650	0.0001712
2662	0.0001872
2674	0.0001888
2686	0.0002064
2698	0.0002176
2710	0.0001968
2722	0.0001808
2734	0.0002304
2746	0.0002832
2758	0.0003328
2770	0.0003328
2782	0.0004256
2794	0.0003888
2806	0.0003936
2818	0.0004512
2830	0.0005664
2842	0.000736
2854	0.0009184
2866	0.0015376
2878	0.0030592
2890	0.0039904
2902	0.0034032
2914	0.0029312
2926	0.003328
2938	0.0050064
2950	0.005968
2962	0.0058448
2974	0.00952
2986	0.0095104
2998	0.0038432
3010	0.002
3022	0.0022304
3034	0.0027808
3046	0.0023392
3058	0.0024448
3070	0.004056
3082	0.0043616
3094	0.0024592
3106	0.001352
3118	0.0008704
3130	0.0006128
3142	0.0005552
3154	0.0004784
3166	0.0003776
3178	0.000336
3190	0.0002704
3202	0.0002688
3214	0.0001472
3226	0.0002048
3238	0.0001232
3250	0.0001056
3262	0.0001424
3274	0.0001536
3286	0.0001424
3298	0.00016
3310	0.0001088
3322	0.0001728
3334	0.000128
3346	0.0001456
3358	0.000128
3370	0.0001168
3382	0.0001632
3394	0.000168
3406	0.0001264
3418	0.0002544
3430	0.0001568
3442	0.0001536
3454	0.0001696
3466	0.0001776
3478	0.0001728
3490	0.0001536
3502	0.0001312
3514	0.000152
3526	0.0001072
3538	0.000128
3550	0.000144
3562	0.0001328
3574	0.0001264
3586	8.64e-05
3598	0.000152
3610	5.92e-05
3622	0.0001328
3634	0.0001744
3646	0.0001296
3658	0.0001632
3670	0.000128
3682	0.0001728
3694	0.000112
3706	0.0001536
3718	0.0001808
3730	0.0001632
3742	0.0001552
3754	0.0001456
3766	0.0001376
3778	0.0002112
3790	0.000208
3802	0.0001248
3814	0.0001632
3826	0.0001856
3838	0.0002512
