Infrared Spectrum: Imidazole-4-carboxamide, 5-(3'-methyl-1'-triazeno)-
Formula: C5 H8 N6 O
CAS: 3413-72-7
State: SOLID (0.8 mg / 650 mg KBr DISC)
Class: COBLENTZ III
Instrument: PERKIN-ELMER 21 (GRATING)
Instrument parameters: FILTER AT 2490, 980 CM^-^1. GRATING 4000-1428 CM^-^1. NaCl PRISM.
Sampling: TRANSMISSION
Resolution: 2
Origin: SOUTHERN RESEARCH INSTITUTE
1/CM	TRANSMITTANCE
629.23	0.734
638.245	0.8953
647.261	0.8951
656.276	0.8872
665.292	0.8658
674.307	0.8564
683.322	0.8257
692.338	0.6362
701.353	0.7775
710.368	0.7719
719.384	0.7104
728.399	0.7373
737.415	0.7327
746.43	0.6522
755.445	0.6286
764.461	0.6474
773.476	0.6335
782.491	0.295
791.507	0.5269
800.522	0.6825
809.538	0.7732
818.553	0.8089
827.568	0.8183
836.584	0.824
845.599	0.8757
854.614	0.872
863.63	0.866
872.645	0.8609
881.661	0.8534
890.676	0.7806
899.691	0.6939
908.707	0.8617
917.722	0.8712
926.737	0.8655
935.753	0.8572
944.768	0.8403
953.784	0.7744
962.799	0.8222
971.814	0.8037
980.83	0.7354
989.845	0.5708
998.86	0.8131
1007.88	0.8026
1016.89	0.7824
1025.91	0.7651
1034.92	0.7536
1043.94	0.7234
1052.95	0.7132
1061.97	0.6935
1070.98	0.6647
1080	0.6041
1089.01	0.4545
1098.03	0.5701
1107.05	0.5134
1116.06	0.5226
1125.08	0.6165
1134.09	0.6203
1143.11	0.6094
1152.12	0.5316
1161.14	0.498
1170.15	0.438
1179.17	0.5064
1188.18	0.5854
1197.2	0.5811
1206.21	0.5587
1215.23	0.5365
1224.24	0.5351
1233.26	0.5306
1242.28	0.5034
1251.29	0.4152
1260.31	0.4195
1269.32	0.5116
1278.34	0.4914
1287.35	0.4513
1296.37	0.3669
1305.38	0.4182
1314.4	0.3988
1323.41	0.3215
1332.43	0.3025
1341.44	0.1925
1350.46	0.1078
1359.48	0.0459
1368.49	0.0499
1377.51	0.1821
1386.52	0.48
1395.54	0.4904
1404.55	0.3405
1413.57	0.1906
1422.58	0.0416
1431.6	0.0659
1440.61	0.0769
1449.63	0.3579
1458.64	0.4431
1467.66	0.337
1476.68	0.6123
1485.69	0.6196
1494.71	0.576
1503.72	0.5821
1512.74	0.5719
1521.75	0.467
1530.77	0.3946
1539.78	0.2759
1548.8	0.3148
1557.81	0.4715
1566.83	0.4709
1575.84	0.4583
1584.86	0.3985
1593.88	0.2612
1602.89	0.0827
1611.91	0.0806
1620.92	0.1495
1629.94	0.1048
1638.95	0.2796
1647.97	0.2982
1656.98	0.2274
1666	0.0879
1675.01	0.0549
1684.03	0.1144
1693.04	0.2639
1702.06	0.6157
1711.08	0.691
1720.09	0.7811
1729.11	0.8494
1738.12	0.9268
1747.14	0.9594
1756.15	0.9681
1765.17	0.9699
1774.18	0.9718
1783.2	0.9729
1792.21	0.9729
1801.23	0.9725
1810.24	0.9717
1819.26	0.9704
1828.28	0.967
1837.29	0.9628
1846.31	0.9595
1855.32	0.9579
1864.34	0.9558
1873.35	0.9539
1882.37	0.9502
1891.38	0.9457
1900.4	0.9387
1909.41	0.9303
1918.43	0.9218
1927.44	0.9129
1936.46	0.9048
1945.48	0.8992
1954.49	0.8961
1963.51	0.8939
1972.52	0.8919
1981.54	0.8898
1990.55	0.8863
1999.57	0.8798
2008.58	0.8691
2017.6	0.8635
2026.61	0.8585
2035.63	0.8536
2044.64	0.8493
2053.66	0.8451
2062.68	0.8408
2071.69	0.8365
2080.71	0.8321
2089.72	0.8278
2098.74	0.8235
2107.75	0.8192
2116.77	0.8147
2125.78	0.8099
2134.8	0.8052
2143.81	0.8005
2152.83	0.796
2161.84	0.7917
2170.86	0.7873
2179.87	0.7834
2188.89	0.7789
2197.91	0.774
2206.92	0.769
2215.94	0.764
2224.95	0.759
2233.97	0.7539
2242.98	0.751
2252	0.7482
2261.01	0.7436
2270.03	0.7367
2279.04	0.729
2288.06	0.7193
2297.07	0.7092
2306.09	0.699
2315.11	0.6892
2324.12	0.6828
2333.14	0.6835
2342.15	0.6844
2351.17	0.6853
2360.18	0.6862
2369.2	0.6872
2378.21	0.6843
2387.23	0.6792
2396.24	0.6741
2405.26	0.6684
2414.27	0.6634
2423.29	0.6583
2432.31	0.6531
2441.32	0.6493
2450.34	0.6458
2459.35	0.6423
2468.37	0.6383
2477.38	0.6341
2486.4	0.6287
2495.41	0.6217
2504.43	0.6147
2513.44	0.6063
2522.46	0.5989
2531.47	0.5911
2540.49	0.5831
2549.51	0.5742
2558.52	0.5644
2567.54	0.5545
2576.55	0.5415
2585.57	0.5242
2594.58	0.5128
2603.6	0.5081
2612.61	0.5054
2621.63	0.5026
2630.64	0.4971
2639.66	0.4889
2648.67	0.4827
2657.69	0.4775
2666.71	0.4724
2675.72	0.4679
2684.74	0.4634
2693.75	0.4583
2702.77	0.4514
2711.78	0.443
2720.8	0.434
2729.81	0.4246
2738.83	0.4165
2747.84	0.4091
2756.86	0.4027
2765.87	0.3952
2774.89	0.3854
2783.91	0.3712
2792.92	0.3613
2801.94	0.3509
2810.95	0.3401
2819.97	0.3281
2828.98	0.3139
2838	0.2975
2847.01	0.28
2856.03	0.2656
2865.04	0.2594
2874.06	0.2573
2883.07	0.2558
2892.09	0.2523
2901.11	0.2459
2910.12	0.2363
2919.14	0.2253
2928.15	0.2127
2937.17	0.1968
2946.18	0.1869
2955.2	0.1805
2964.21	0.1746
2973.23	0.1693
2982.24	0.1641
2991.26	0.1595
3000.27	0.1558
3009.29	0.1439
3018.31	0.1289
3027.32	0.1266
3036.34	0.1278
3045.35	0.1314
3054.37	0.144
3063.38	0.1845
3072.4	0.1863
3081.41	0.1837
3090.43	0.1767
3099.44	0.1631
3108.46	0.1549
3117.47	0.1394
3126.49	0.1203
3135.5	0.1087
3144.52	0.1003
3153.54	0.0941
3162.55	0.0888
3171.57	0.085
3180.58	0.0818
3189.6	0.081
3198.61	0.0823
3207.63	0.0864
3216.64	0.0936
3225.66	0.1042
3234.67	0.1175
3243.69	0.1321
3252.7	0.1915
3261.72	0.2088
3270.74	0.2178
3279.75	0.2243
3288.77	0.2458
3297.78	0.2569
3306.8	0.2598
3315.81	0.2609
3324.83	0.2592
3333.84	0.2498
3342.86	0.2181
3351.87	0.1614
3360.89	0.1279
3369.9	0.1274
3378.92	0.1459
3387.94	0.2199
3396.95	0.2909
3405.97	0.3755
3414.98	0.4428
3424	0.5117
3433.01	0.5303
3442.03	0.5825
3451.04	0.6047
3460.06	0.6411
3469.07	0.6823
3478.09	0.6861
3487.1	0.6881
3496.12	0.689
3505.14	0.6893
3514.15	0.6902
3523.17	0.6912
3532.18	0.6918
3541.2	0.6918
3550.21	0.6918
3559.23	0.6915
3568.24	0.6911
3577.26	0.6907
3586.27	0.6903
3595.29	0.6897
3604.3	0.6891
3613.32	0.689
3622.34	0.6889
3631.35	0.6891
3640.37	0.6895
3649.38	0.6877
3658.4	0.6825
3667.41	0.6762
3676.43	0.6692
3685.44	0.6645
3694.46	0.6615
3703.47	0.6587
3712.49	0.6563
3721.5	0.653
3730.52	0.6458
3739.54	0.6439
3748.55	0.6428
3757.57	0.6418
3766.58	0.6409
3775.6	0.6394
3784.61	0.6358
3793.63	0.6286
3802.64	0.6188
3811.66	0.6077
3820.67	0.6032
3829.69	0.6004
3838.7	0.5977
3847.72	0.5956
3856.74	0.5941
3865.75	0.5926
3874.77	0.5909
3883.78	0.5893
3892.8	0.5874
3901.81	0.5854
3910.83	0.5836
3919.84	0.5812
3928.86	0.5771
3937.87	0.5719
3946.89	0.5681
3955.9	0.5651
3964.92	0.5639
3973.94	0.5631
3982.95	0.5602
3991.97	0.5554
4000.98	0.5504
4010	0.5455
