Infrared Spectrum: 4-ImidazoleCarboxamide, 5-(Ethyl-1-Triazeno)-
Formula: C6 H10 N6 O
CAS: 3413-73-8
State: SOLID (0.5 mg / 650 mg KBr DISC)
Class: COBLENTZ III
Instrument: PERKIN-ELMER 221 (GRATING)
Instrument parameters: FILTER AT 2490, 980 CM^-^1. GRATING 4000-1428 CM^-^1, NaCl PRISM 1428-650 CM^-^1
Sampling: TRANSMISSION
Resolution: 2
Origin: SOUTHERN RESEARCH INSTITUTE
1/CM	TRANSMITTANCE
597.06	0.5853
605.105	0.5838
613.149	0.6123
621.194	0.7538
629.238	0.8405
637.283	0.8394
645.327	0.8309
653.372	0.8189
661.416	0.7758
669.461	0.737
677.505	0.6997
685.55	0.7278
693.595	0.7831
701.639	0.8002
709.684	0.7932
717.728	0.7692
725.773	0.8146
733.817	0.835
741.862	0.8352
749.906	0.834
757.951	0.8294
765.995	0.8188
774.04	0.6464
782.084	0.8038
790.129	0.8116
798.174	0.8118
806.218	0.7941
814.263	0.7522
822.307	0.7544
830.352	0.7832
838.396	0.7686
846.441	0.7496
854.485	0.7205
862.53	0.6666
870.574	0.6057
878.619	0.4922
886.664	0.6218
894.708	0.7886
902.753	0.7702
910.797	0.7371
918.842	0.7857
926.886	0.7822
934.931	0.7508
942.975	0.7124
951.02	0.6633
959.064	0.6854
967.109	0.7338
975.153	0.7517
983.198	0.7578
991.243	0.7573
999.287	0.7549
1007.33	0.7503
1015.38	0.7359
1023.42	0.7135
1031.47	0.6673
1039.51	0.741
1047.55	0.7385
1055.6	0.7208
1063.64	0.6832
1071.69	0.6441
1079.73	0.4546
1087.78	0.5751
1095.82	0.6839
1103.87	0.6779
1111.91	0.6982
1119.96	0.7474
1128	0.7506
1136.04	0.7097
1144.09	0.6408
1152.13	0.3305
1160.18	0.561
1168.22	0.6607
1176.27	0.6621
1184.31	0.6893
1192.36	0.7231
1200.4	0.7145
1208.45	0.6957
1216.49	0.6563
1224.53	0.5971
1232.58	0.58
1240.62	0.5339
1248.67	0.4139
1256.71	0.4656
1264.76	0.5296
1272.8	0.6284
1280.85	0.6217
1288.89	0.5072
1296.94	0.4248
1304.98	0.2955
1313.02	0.3939
1321.07	0.4176
1329.11	0.313
1337.16	0.4622
1345.2	0.4551
1353.25	0.4245
1361.29	0.3579
1369.34	0.2011
1377.38	0.1484
1385.43	0.1116
1393.47	0.0898
1401.51	0.0537
1409.56	0.057
1417.6	0.0987
1425.65	0.2973
1433.69	0.4582
1441.74	0.5351
1449.78	0.6154
1457.83	0.6428
1465.87	0.6072
1473.92	0.59
1481.96	0.6041
1490	0.6699
1498.05	0.6741
1506.09	0.6718
1514.14	0.6656
1522.18	0.6198
1530.23	0.4538
1538.27	0.4392
1546.32	0.4755
1554.36	0.5001
1562.41	0.5407
1570.45	0.5456
1578.49	0.3716
1586.54	0.1792
1594.58	0.0429
1602.63	0.2488
1610.67	0.4349
1618.72	0.4319
1626.76	0.2317
1634.81	0.0312
1642.85	0.0234
1650.89	0.0284
1658.94	0.0459
1666.98	0.295
1675.03	0.5741
1683.07	0.7443
1691.12	0.7681
1699.16	0.8081
1707.21	0.8119
1715.25	0.8136
1723.3	0.8154
1731.34	0.8171
1739.38	0.817
1747.43	0.8167
1755.47	0.8157
1763.52	0.8148
1771.56	0.8139
1779.61	0.8131
1787.65	0.8088
1795.7	0.7978
1803.74	0.7873
1811.79	0.7798
1819.83	0.7784
1827.87	0.7778
1835.92	0.7773
1843.96	0.777
1852.01	0.7741
1860.05	0.7673
1868.1	0.7574
1876.14	0.7527
1884.19	0.7529
1892.23	0.7551
1900.28	0.7596
1908.32	0.7683
1916.36	0.7773
1924.41	0.7874
1932.45	0.7921
1940.5	0.796
1948.54	0.8001
1956.59	0.8042
1964.63	0.8084
1972.68	0.8127
1980.72	0.8167
1988.77	0.8197
1996.81	0.8225
2004.85	0.825
2012.9	0.8273
2020.94	0.8287
2028.99	0.83
2037.03	0.8314
2045.08	0.8327
2053.12	0.834
2061.17	0.8346
2069.21	0.835
2077.26	0.8355
2085.3	0.8352
2093.34	0.8347
2101.39	0.8333
2109.43	0.8313
2117.48	0.8286
2125.52	0.8255
2133.57	0.8225
2141.61	0.8199
2149.66	0.8173
2157.7	0.8148
2165.75	0.8113
2173.79	0.8068
2181.83	0.8018
2189.88	0.7953
2197.92	0.7888
2205.97	0.7822
2214.01	0.7762
2222.06	0.7709
2230.1	0.7661
2238.15	0.7615
2246.19	0.7567
2254.24	0.7507
2262.28	0.7433
2270.32	0.7349
2278.37	0.7245
2286.41	0.7137
2294.46	0.7007
2302.5	0.6849
2310.55	0.6678
2318.59	0.6401
2326.64	0.6211
2334.68	0.6132
2342.73	0.6103
2350.77	0.6072
2358.81	0.6042
2366.86	0.6011
2374.9	0.599
2382.95	0.5956
2390.99	0.5921
2399.04	0.5885
2407.08	0.5827
2415.13	0.5763
2423.17	0.5684
2431.22	0.5609
2439.26	0.5536
2447.3	0.5505
2455.35	0.5471
2463.39	0.5428
2471.44	0.5365
2479.48	0.5332
2487.53	0.5326
2495.57	0.5327
2503.62	0.53
2511.66	0.5256
2519.71	0.5194
2527.75	0.5137
2535.79	0.5086
2543.84	0.5038
2551.88	0.498
2559.93	0.4921
2567.97	0.4875
2576.02	0.4845
2584.06	0.4834
2592.11	0.4839
2600.15	0.4847
2608.2	0.4862
2616.24	0.4879
2624.28	0.4931
2632.33	0.4949
2640.37	0.4974
2648.42	0.5025
2656.46	0.5091
2664.51	0.5162
2672.55	0.524
2680.6	0.5329
2688.64	0.5345
2696.69	0.5342
2704.73	0.5334
2712.77	0.5308
2720.82	0.5269
2728.86	0.5221
2736.91	0.5193
2744.95	0.5181
2753	0.517
2761.04	0.5156
2769.09	0.5143
2777.13	0.5137
2785.18	0.5125
2793.22	0.5156
2801.26	0.5176
2809.31	0.5214
2817.35	0.5276
2825.4	0.5349
2833.44	0.5364
2841.49	0.5379
2849.53	0.5384
2857.58	0.5395
2865.62	0.5427
2873.67	0.5484
2881.71	0.5648
2889.75	0.5667
2897.8	0.5646
2905.84	0.5609
2913.89	0.5552
2921.93	0.5482
2929.98	0.5391
2938.02	0.5143
2946.07	0.5025
2954.11	0.4957
2962.16	0.4889
2970.2	0.4881
2978.24	0.4898
2986.29	0.4946
2994.33	0.5278
3002.38	0.5909
3010.42	0.5848
3018.47	0.5715
3026.51	0.5336
3034.56	0.5058
3042.6	0.4985
3050.65	0.4708
3058.69	0.4288
3066.73	0.3441
3074.78	0.2965
3082.82	0.3051
3090.87	0.4099
3098.91	0.509
3106.96	0.5444
3115	0.5497
3123.05	0.5473
3131.09	0.5371
3139.14	0.5135
3147.18	0.4934
3155.22	0.5225
3163.27	0.5232
3171.31	0.5149
3179.36	0.4979
3187.4	0.4809
3195.45	0.463
3203.49	0.4462
3211.54	0.4293
3219.58	0.4049
3227.63	0.363
3235.67	0.3193
3243.71	0.2657
3251.76	0.2249
3259.8	0.1633
3267.85	0.1028
3275.89	0.1012
3283.94	0.1266
3291.98	0.1698
3300.03	0.2401
3308.07	0.3007
3316.12	0.3187
3324.16	0.3457
3332.2	0.4571
3340.25	0.5267
3348.29	0.5488
3356.34	0.5502
3364.38	0.5474
3372.43	0.5417
3380.47	0.5352
3388.52	0.5289
3396.56	0.5246
3404.61	0.5232
3412.65	0.5222
3420.69	0.5217
3428.74	0.5213
3436.78	0.5213
3444.83	0.5208
3452.87	0.5195
3460.92	0.5153
3468.96	0.5045
3477.01	0.4695
3485.05	0.4113
3493.1	0.3886
3501.14	0.419
3509.18	0.5658
3517.23	0.6115
3525.27	0.6771
3533.32	0.726
3541.36	0.7347
3549.41	0.7409
3557.45	0.7458
3565.5	0.753
3573.54	0.7758
3581.58	0.7876
3589.63	0.799
3597.67	0.8103
3605.72	0.8209
3613.76	0.832
3621.81	0.8469
3629.85	0.8612
3637.9	0.8666
3645.94	0.8685
3653.99	0.8693
3662.03	0.8694
3670.07	0.8692
3678.12	0.8694
3686.16	0.8698
3694.21	0.87
3702.25	0.8695
3710.3	0.8691
3718.34	0.8687
3726.39	0.8686
3734.43	0.8685
3742.48	0.8689
3750.52	0.8729
3758.56	0.8704
3766.61	0.8709
3774.65	0.8711
3782.7	0.8709
3790.74	0.8671
3798.79	0.8629
3806.83	0.8641
