Infrared Spectrum: 4-ImidazoleCarboxamide, 5-(butyl-1-triazeno)-
Formula: C8 H14 N6 O
CAS: 3413-74-9
State: SOLID (0.8 MG / 650 mg KBr DISC
Class: COBLENTZ III
Instrument: PERKIN-ELMER 21 (GRATING)
Instrument parameters: FILTER CHANGE ABOUT 1025 CM^-^1
Sampling: TRANSMISSION
Resolution: 2
Origin: SOUTHERN RESEARCH INSTITUTE
1/CM	TRANSMITTANCE
602.273	0.5133
611.299	0.5106
620.325	0.5101
629.35	0.5117
638.376	0.513
647.402	0.5155
656.428	0.5212
665.453	0.5291
674.479	0.5323
683.505	0.5462
692.531	0.6087
701.556	0.6213
710.582	0.6315
719.608	0.6341
728.634	0.6417
737.66	0.6805
746.685	0.6835
755.711	0.6946
764.737	0.7018
773.763	0.6358
782.788	0.7268
791.814	0.741
800.84	0.743
809.866	0.7393
818.891	0.7277
827.917	0.7113
836.943	0.6892
845.969	0.663
854.995	0.6311
864.02	0.5593
873.046	0.4995
882.072	0.5419
891.098	0.5861
900.123	0.6426
909.149	0.7342
918.175	0.7301
927.201	0.6857
936.227	0.6575
945.252	0.644
954.278	0.555
963.304	0.5641
972.33	0.6671
981.355	0.6751
990.381	0.6763
999.407	0.6765
1008.43	0.6742
1017.46	0.7094
1026.48	0.7285
1035.51	0.724
1044.54	0.7051
1053.56	0.6846
1062.59	0.6543
1071.61	0.613
1080.64	0.4532
1089.66	0.3895
1098.69	0.5392
1107.72	0.505
1116.74	0.474
1125.77	0.624
1134.79	0.6011
1143.82	0.4178
1152.85	0.6098
1161.87	0.6211
1170.9	0.6049
1179.92	0.6162
1188.95	0.6612
1197.97	0.6533
1207	0.6148
1216.03	0.5498
1225.05	0.5297
1234.08	0.5294
1243.1	0.47
1252.13	0.3228
1261.15	0.4944
1270.18	0.4854
1279.21	0.5128
1288.23	0.412
1297.26	0.2778
1306.28	0.3485
1315.31	0.2812
1324.33	0.3035
1333.36	0.2272
1342.39	0.2832
1351.41	0.2432
1360.44	0.1782
1369.46	0.1312
1378.49	0.1433
1387.52	0.0361
1396.54	0.0381
1405.57	0.0945
1414.59	0.0271
1423.62	0.0461
1432.64	0.2035
1441.67	0.4054
1450.7	0.4041
1459.72	0.3772
1468.75	0.4586
1477.77	0.4225
1486.8	0.4239
1495.82	0.5793
1504.85	0.6304
1513.88	0.6317
1522.9	0.6175
1531.93	0.4937
1540.95	0.3498
1549.98	0.3645
1559	0.4744
1568.03	0.4841
1577.06	0.3612
1586.08	0.1453
1595.11	0.0345
1604.13	0.2317
1613.16	0.3158
1622.19	0.2176
1631.21	0.0496
1640.24	0.0172
1649.26	0.103
1658.29	0.1382
1667.31	0.325
1676.34	0.4975
1685.37	0.6701
1694.39	0.7735
1703.42	0.797
1712.44	0.8013
1721.47	0.8012
1730.49	0.7994
1739.52	0.7988
1748.55	0.8053
1757.57	0.8134
1766.6	0.8161
1775.62	0.8118
1784.65	0.8003
1793.67	0.7977
1802.7	0.7965
1811.73	0.7892
1820.75	0.7775
1829.78	0.7749
1838.8	0.774
1847.83	0.7725
1856.86	0.7643
1865.88	0.7556
1874.91	0.7518
1883.93	0.7535
1892.96	0.7618
1901.98	0.7728
1911.01	0.7892
1920.04	0.7976
1929.06	0.8039
1938.09	0.8113
1947.11	0.8166
1956.14	0.8214
1965.16	0.8264
1974.19	0.8303
1983.22	0.8343
1992.24	0.837
2001.27	0.8382
2010.29	0.8401
2019.32	0.8489
2028.34	0.8525
2037.37	0.8557
2046.4	0.8569
2055.42	0.8558
2064.45	0.854
2073.47	0.8522
2082.5	0.8504
2091.53	0.8499
2100.55	0.8505
2109.58	0.8523
2118.6	0.8543
2127.63	0.8539
2136.65	0.8526
2145.68	0.8501
2154.71	0.8472
2163.73	0.8441
2172.76	0.8412
2181.78	0.8388
2190.81	0.8372
2199.83	0.8326
2208.86	0.8239
2217.89	0.815
2226.91	0.807
2235.94	0.7985
2244.96	0.79
2253.99	0.7815
2263.01	0.7713
2272.04	0.7605
2281.07	0.749
2290.09	0.7375
2299.12	0.7237
2308.14	0.6939
2317.17	0.6707
2326.2	0.6596
2335.22	0.6526
2344.25	0.6461
2353.27	0.6394
2362.3	0.632
2371.32	0.6244
2380.35	0.616
2389.38	0.5967
2398.4	0.5717
2407.43	0.5547
2416.45	0.5433
2425.48	0.54
2434.5	0.5372
2443.53	0.5321
2452.56	0.5263
2461.58	0.52
2470.61	0.5135
2479.63	0.508
2488.66	0.5028
2497.68	0.4969
2506.71	0.4907
2515.74	0.4819
2524.76	0.4588
2533.79	0.4426
2542.81	0.4267
2551.84	0.4132
2560.87	0.4012
2569.89	0.3903
2578.92	0.3812
2587.94	0.3746
2596.97	0.3742
2605.99	0.3743
2615.02	0.3752
2624.05	0.3792
2633.07	0.3847
2642.1	0.3883
2651.12	0.3949
2660.15	0.4049
2669.17	0.422
2678.2	0.4378
2687.23	0.4372
2696.25	0.4275
2705.28	0.4171
2714.3	0.4052
2723.33	0.3967
2732.35	0.3936
2741.38	0.393
2750.41	0.3916
2759.43	0.3901
2768.46	0.3829
2777.48	0.3735
2786.51	0.3695
2795.54	0.3682
2804.56	0.3682
2813.59	0.3684
2822.61	0.3684
2831.64	0.3655
2840.66	0.3529
2849.69	0.3386
2858.72	0.338
2867.74	0.3564
2876.77	0.3764
2885.79	0.3872
2894.82	0.3813
2903.84	0.3702
2912.87	0.3391
2921.9	0.3098
2930.92	0.2906
2939.95	0.2765
2948.97	0.2697
2958	0.2665
2967.02	0.2968
2976.05	0.3564
2985.08	0.4191
2994.1	0.4677
3003.13	0.4762
3012.15	0.4541
3021.18	0.428
3030.21	0.4097
3039.23	0.3941
3048.26	0.3794
3057.28	0.3566
3066.31	0.3049
3075.33	0.2616
3084.36	0.2643
3093.39	0.3255
3102.41	0.3872
3111.44	0.4257
3120.46	0.4335
3129.49	0.4271
3138.51	0.4138
3147.54	0.3993
3156.57	0.3943
3165.59	0.3931
3174.62	0.3929
3183.64	0.386
3192.67	0.3761
3201.69	0.3643
3210.72	0.3458
3219.75	0.3196
3228.77	0.2815
3237.8	0.2518
3246.82	0.1963
3255.85	0.1523
3264.88	0.1087
3273.9	0.0838
3282.93	0.083
3291.95	0.0989
3300.98	0.1248
3310	0.1641
3319.03	0.2135
3328.06	0.2459
3337.08	0.3377
3346.11	0.3765
3355.13	0.4463
3364.16	0.4696
3373.18	0.4826
3382.21	0.4873
3391.24	0.4877
3400.26	0.4883
3409.29	0.4908
3418.31	0.4933
3427.34	0.4955
3436.36	0.4974
3445.39	0.4997
3454.42	0.501
3463.44	0.4964
3472.47	0.4765
3481.49	0.4431
3490.52	0.4026
3499.55	0.3865
3508.57	0.4666
3517.6	0.5804
3526.62	0.6351
3535.65	0.6748
3544.67	0.6957
3553.7	0.7129
3562.73	0.7285
3571.75	0.7465
3580.78	0.7617
3589.8	0.7752
3598.83	0.789
3607.85	0.8005
3616.88	0.8152
3625.91	0.8279
3634.93	0.8407
3643.96	0.8475
3652.98	0.8539
3662.01	0.8575
3671.04	0.8589
3680.06	0.8599
3689.09	0.8617
3698.11	0.8622
3707.14	0.8627
3716.16	0.8638
3725.19	0.8651
3734.22	0.8667
3743.24	0.8685
3752.27	0.8707
3761.29	0.8731
3770.32	0.8755
3779.34	0.8766
3788.37	0.8753
3797.4	0.8721
3806.42	0.8671
3815.45	0.8637
3824.47	0.8628
3833.5	0.8629
3842.52	0.8626
3851.55	0.8622
3860.58	0.8619
3869.6	0.8615
3878.63	0.8615
3887.65	0.8618
3896.68	0.8615
3905.71	0.8616
3914.73	0.8618
3923.76	0.8617
3932.78	0.8603
3941.81	0.8585
3950.83	0.8566
3959.86	0.8546
3968.89	0.8533
3977.91	0.8524
3986.94	0.8515
3995.96	0.8503
4004.99	0.8492
