Infrared Spectrum: Acetic acid, [3-(4-carbamoylimidazol-5-yl)-2-triazeno]-, ethyl ester
Formula: C8 H12 N6 O3
CAS: 3413-78-3
State: SOLID (0.7 mg / 650 mg KBr DISC)
Class: COBLENTZ III
Instrument: PERKIN-ELMER 221 (GRATING)
Instrument parameters: FILTER AT 2490, 980 CM^-^1. GRATING 4000-1428 CM^-^1, NaCl PRISM 1428-650 CM^-^1
Sampling: TRANSMISSION
Resolution: 2
Origin: SOUTHERN RESEARCH INSTITUTE
1/CM	TRANSMITTANCE
607.586	0.6533
616.624	0.6527
625.663	0.8054
634.701	0.8179
643.739	0.8232
652.777	0.8253
661.816	0.8243
670.854	0.7693
679.892	0.814
688.931	0.8209
697.969	0.8153
707.007	0.8092
716.045	0.814
725.084	0.8038
734.122	0.8374
743.16	0.9004
752.198	0.9143
761.237	0.9101
770.275	0.8257
779.313	0.8926
788.352	0.9119
797.39	0.9082
806.428	0.8775
815.466	0.9129
824.505	0.9114
833.543	0.9027
842.581	0.8798
851.62	0.829
860.658	0.7955
869.696	0.7792
878.734	0.7047
887.773	0.8108
896.811	0.8914
905.849	0.8937
914.887	0.8751
923.926	0.8414
932.964	0.7847
942.002	0.8045
951.041	0.8171
960.079	0.7291
969.117	0.7855
978.155	0.8126
987.194	0.7599
996.232	0.7765
1005.27	0.718
1014.31	0.6465
1023.35	0.7194
1032.39	0.7513
1041.42	0.7136
1050.46	0.6624
1059.5	0.6825
1068.54	0.7396
1077.58	0.7798
1086.61	0.7721
1095.65	0.7352
1104.69	0.5109
1113.73	0.4801
1122.77	0.6564
1131.81	0.711
1140.84	0.73
1149.88	0.7505
1158.92	0.7486
1167.96	0.7213
1177	0.6521
1186.04	0.5345
1195.07	0.3901
1204.11	0.1615
1213.15	0.3366
1222.19	0.5346
1231.23	0.5772
1240.27	0.5706
1249.3	0.7273
1258.34	0.7845
1267.38	0.7727
1276.42	0.7463
1285.46	0.7005
1294.5	0.7184
1303.53	0.7448
1312.57	0.7383
1321.61	0.6779
1330.65	0.4879
1339.69	0.3282
1348.72	0.3946
1357.76	0.2622
1366.8	0.1581
1375.84	0.257
1384.88	0.3324
1393.92	0.4175
1402.95	0.4859
1411.99	0.3052
1421.03	0.3179
1430.07	0.3754
1439.11	0.4395
1448.15	0.5552
1457.18	0.6816
1466.22	0.6088
1475.26	0.6382
1484.3	0.7653
1493.34	0.8261
1502.38	0.8177
1511.41	0.7852
1520.45	0.677
1529.49	0.6611
1538.53	0.4293
1547.57	0.5042
1556.61	0.6196
1565.64	0.6765
1574.68	0.5724
1583.72	0.2604
1592.76	0.4302
1601.8	0.6784
1610.83	0.6932
1619.87	0.6368
1628.91	0.3785
1637.95	0.0849
1646.99	0.1219
1656.03	0.3055
1665.06	0.4722
1674.1	0.6979
1683.14	0.814
1692.18	0.816
1701.22	0.81
1710.26	0.8023
1719.29	0.7479
1728.33	0.3503
1737.37	0.1274
1746.41	0.4544
1755.45	0.764
1764.49	0.8346
1773.52	0.8591
1782.56	0.8706
1791.6	0.875
1800.64	0.8733
1809.68	0.867
1818.72	0.8596
1827.75	0.8539
1836.79	0.8535
1845.83	0.8551
1854.87	0.8479
1863.91	0.8395
1872.94	0.8356
1881.98	0.8383
1891.02	0.8373
1900.06	0.8405
1909.1	0.8432
1918.14	0.8458
1927.17	0.8485
1936.21	0.8517
1945.25	0.8551
1954.29	0.86
1963.33	0.8647
1972.37	0.868
1981.4	0.8711
1990.44	0.8734
1999.48	0.8749
2008.52	0.8758
2017.56	0.8777
2026.6	0.8795
2035.63	0.8805
2044.67	0.8812
2053.71	0.8816
2062.75	0.881
2071.79	0.8805
2080.83	0.8801
2089.86	0.8797
2098.9	0.8788
2107.94	0.8782
2116.98	0.8774
2126.02	0.8763
2135.06	0.8764
2144.09	0.8767
2153.13	0.8758
2162.17	0.8748
2171.21	0.8738
2180.25	0.8723
2189.28	0.8707
2198.32	0.8679
2207.36	0.8633
2216.4	0.8577
2225.44	0.8521
2234.48	0.8465
2243.51	0.8407
2252.55	0.8345
2261.59	0.8283
2270.63	0.8221
2279.67	0.8154
2288.71	0.8083
2297.74	0.8002
2306.78	0.7921
2315.82	0.784
2324.86	0.7759
2333.9	0.7673
2342.94	0.7583
2351.97	0.7493
2361.01	0.7404
2370.05	0.7326
2379.09	0.7259
2388.13	0.7197
2397.17	0.7137
2406.2	0.7053
2415.24	0.6967
2424.28	0.6896
2433.32	0.6835
2442.36	0.6813
2451.39	0.681
2460.43	0.6805
2469.47	0.68
2478.51	0.6829
2487.55	0.6754
2496.59	0.667
2505.62	0.6651
2514.66	0.6611
2523.7	0.6547
2532.74	0.6482
2541.78	0.6418
2550.82	0.6353
2559.85	0.6301
2568.89	0.6251
2577.93	0.6167
2586.97	0.6084
2596.01	0.6051
2605.05	0.6022
2614.08	0.5998
2623.12	0.6027
2632.16	0.6057
2641.2	0.6132
2650.24	0.6264
2659.28	0.6318
2668.31	0.6352
2677.35	0.6419
2686.39	0.6479
2695.43	0.6524
2704.47	0.6523
2713.5	0.651
2722.54	0.6489
2731.58	0.6461
2740.62	0.6412
2749.66	0.6323
2758.7	0.6288
2767.73	0.6283
2776.77	0.6281
2785.81	0.6277
2794.85	0.6273
2803.89	0.6277
2812.93	0.6281
2821.96	0.629
2831	0.6303
2840.04	0.6323
2849.08	0.6339
2858.12	0.6353
2867.16	0.6437
2876.19	0.6523
2885.23	0.643
2894.27	0.6275
2903.31	0.6133
2912.35	0.6107
2921.39	0.6104
2930.42	0.6075
2939.46	0.6099
2948.5	0.6117
2957.54	0.6062
2966.58	0.5993
2975.61	0.5913
2984.65	0.5911
2993.69	0.5975
3002.73	0.5877
3011.77	0.5563
3020.81	0.4957
3029.84	0.4579
3038.88	0.5297
3047.92	0.6132
3056.96	0.6498
3066	0.652
3075.04	0.6503
3084.07	0.6452
3093.11	0.6379
3102.15	0.6277
3111.19	0.6136
3120.23	0.5913
3129.27	0.5613
3138.3	0.5244
3147.34	0.5271
3156.38	0.5212
3165.42	0.502
3174.46	0.4775
3183.5	0.4476
3192.53	0.3916
3201.57	0.3353
3210.61	0.3159
3219.65	0.3219
3228.69	0.3525
3237.73	0.4129
3246.76	0.4466
3255.8	0.5241
3264.84	0.5499
3273.88	0.5674
3282.92	0.5976
3291.95	0.6159
3300.99	0.6297
3310.03	0.6329
3319.07	0.6283
3328.11	0.5914
3337.15	0.519
3346.18	0.5033
3355.22	0.6316
3364.26	0.6649
3373.3	0.6653
3382.34	0.6637
3391.38	0.6607
3400.41	0.6546
3409.45	0.6329
3418.49	0.5988
3427.53	0.5443
3436.57	0.4782
3445.61	0.3441
3454.64	0.2252
3463.68	0.3195
3472.72	0.4091
3481.76	0.5733
3490.8	0.6539
3499.84	0.6841
3508.87	0.7137
3517.91	0.7343
3526.95	0.7467
3535.99	0.7648
3545.03	0.772
3554.06	0.7782
3563.1	0.7832
3572.14	0.7895
3581.18	0.7969
3590.22	0.8041
3599.26	0.8106
3608.29	0.8204
3617.33	0.8284
3626.37	0.8354
3635.41	0.8418
3644.45	0.8474
3653.49	0.8502
3662.52	0.8505
3671.56	0.8493
3680.6	0.8461
3689.64	0.8411
3698.68	0.8454
3707.72	0.8507
3716.75	0.8529
3725.79	0.8535
3734.83	0.8529
3743.87	0.852
3752.91	0.8512
3761.95	0.851
3770.98	0.8508
3780.02	0.8504
3789.06	0.85
3798.1	0.8492
3807.14	0.8483
3816.17	0.8471
3825.21	0.846
3834.25	0.845
3843.29	0.844
3852.33	0.8429
3861.37	0.8419
3870.4	0.8418
3879.44	0.8416
3888.48	0.8415
3897.52	0.8418
3906.56	0.8422
3915.6	0.8425
3924.63	0.8429
3933.67	0.8434
3942.71	0.8432
3951.75	0.8428
3960.79	0.8425
3969.83	0.8422
3978.86	0.8419
3987.9	0.8415
3996.94	0.8416
4005.98	0.842
