Infrared Spectrum: 2-Bromobenzaldoxime
Formula: C 7 H 6 Br N O
CAS: 34158-72-0
State: gas
Origin: EPA-IR VAPOR PHASE LIBRARY
1/CM	ABSORBANCE
549.9	0.00583
559.547	0.00623
569.193	0.00664
578.84	0.00726
588.486	0.00631
598.133	0.00551
607.779	0.00593
617.426	0.01252
627.072	0.02926
636.719	0.02634
646.365	0.01247
656.012	0.01103
665.658	0.01424
675.305	0.03296
684.951	0.04642
694.598	0.0301
704.245	0.01982
713.891	0.01807
723.538	0.02285
733.184	0.04286
742.831	0.08596
752.477	0.11242
762.124	0.05188
771.77	0.0208
781.417	0.01013
791.063	0.00687
800.71	0.00679
810.356	0.00734
820.003	0.00882
829.649	0.00979
839.296	0.01061
848.943	0.01891
858.589	0.05077
868.236	0.05789
877.882	0.03162
887.529	0.02445
897.175	0.02
906.822	0.02189
916.468	0.02779
926.115	0.03696
935.761	0.06794
945.408	0.13857
955.054	0.17434
964.701	0.08887
974.347	0.02204
983.994	0.01388
993.64	0.01082
1003.29	0.0113
1012.93	0.02395
1022.58	0.05901
1032.23	0.06067
1041.87	0.03642
1051.52	0.024
1061.17	0.01003
1070.81	0.00634
1080.46	0.00429
1090.11	0.00367
1099.75	0.00443
1109.4	0.00852
1119.05	0.01175
1128.69	0.00632
1138.34	0.00341
1147.99	0.00368
1157.63	0.00465
1167.28	0.00467
1176.92	0.00351
1186.57	0.00431
1196.22	0.01087
1205.86	0.0248
1215.51	0.02067
1225.16	0.0091
1234.8	0.01255
1244.45	0.03038
1254.1	0.07111
1263.74	0.07953
1273.39	0.06504
1283.04	0.04532
1292.68	0.01709
1302.33	0.01103
1311.98	0.00957
1321.62	0.00829
1331.27	0.00794
1340.92	0.00892
1350.56	0.00879
1360.21	0.00698
1369.86	0.00725
1379.5	0.01152
1389.15	0.02045
1398.79	0.02832
1408.44	0.02315
1418.09	0.01875
1427.73	0.02892
1437.38	0.04179
1447.03	0.02508
1456.67	0.01535
1466.32	0.03551
1475.97	0.03579
1485.61	0.01016
1495.26	0.00529
1504.91	0.00465
1514.55	0.00314
1524.2	0.0023077
1533.85	0.0020093
1543.49	0.00301
1553.14	0.00722
1562.79	0.01234
1572.43	0.01047
1582.08	0.01025
1591.73	0.01309
1601.37	0.00908
1611.02	0.00586
1620.67	0.00479
1630.31	0.0033
1639.96	0.0022631
1649.6	0.001801
1659.25	0.001614
1668.9	0.0018738
1678.54	0.0024484
1688.19	0.0033
1697.84	0.00339
1707.48	0.00286
1717.13	0.00254
1726.78	0.0021047
1736.42	0.00150802
1746.07	0.001199
1755.72	0.001114
1765.36	0.001162
1775.01	0.001335
1784.66	0.0019867
1794.3	0.00285
1803.95	0.00396
1813.6	0.0035
1823.24	0.00287
1832.89	0.00326
1842.54	0.00315
1852.18	0.0031
1861.83	0.00359
1871.47	0.00366
1881.12	0.00399
1890.77	0.00464
1900.41	0.00536
1910.06	0.00504
1919.71	0.00456
1929.35	0.00354
1939	0.00275
1948.65	0.00334
1958.29	0.00273
1967.94	0.001297
1977.59	0.000956
1987.23	0.0008
1996.88	0.000812
2006.53	0.000785
2016.17	0.000707
2025.82	0.000726
2035.47	0.000704
2045.11	0.000674
2054.76	0.000624
2064.41	0.000702
2074.05	0.000633
2083.7	0.000699
2093.35	0.000756
2102.99	0.00061
2112.64	0.00071
2122.28	0.000664
2131.93	0.000696
2141.58	0.000692
2151.22	0.000644
2160.87	0.000661
2170.52	0.00062
2180.16	0.000597
2189.81	0.00059
2199.46	0.000661
2209.1	0.000813
2218.75	0.000834
2228.4	0.000941
2238.04	0.001075
2247.69	0.001102
2257.34	0.001013
2266.98	0.001096
2276.63	0.0011
2286.28	0.001007
2295.92	0.00107
2305.57	0.001205
2315.22	0.0016816
2324.86	0.0019326
2334.51	0.00150549
2344.16	0.001142
2353.8	0.001187
2363.45	0.001292
2373.09	0.001177
2382.74	0.0009
2392.39	0.00067
2402.03	0.000662
2411.68	0.000516
2421.33	0.000571
2430.97	0.000582
2440.62	0.000642
2450.27	0.000611
2459.91	0.000624
2469.56	0.000744
2479.21	0.000829
2488.85	0.000967
2498.5	0.001197
2508.15	0.0015931
2517.79	0.001676
2527.44	0.00157516
2537.09	0.00156269
2546.73	0.0014559
2556.38	0.001463
2566.03	0.0014221
2575.67	0.001295
2585.32	0.001244
2594.96	0.001172
2604.61	0.001168
2614.26	0.001309
2623.9	0.00151557
2633.55	0.0017526
2643.2	0.0019046
2652.84	0.0018136
2662.49	0.001383
2672.14	0.00107
2681.78	0.00085
2691.43	0.000683
2701.08	0.000543
2710.72	0.00043
2720.37	0.00042
2730.02	0.00048
2739.66	0.000522
2749.31	0.000594
2758.96	0.00037
2768.6	0.00034
2778.25	0.00047
2787.9	0.00049
2797.54	0.000561
2807.19	0.00023
2816.84	0.00028
2826.48	0.0003
2836.13	0.00047
2845.77	0.00041
2855.42	0.00043
2865.07	0.000578
2874.71	0.0004
2884.36	0.00031
2894.01	0.00029
2903.65	0.00026
2913.3	0.00017
2922.95	0.0003
2932.59	0.000511
2942.24	0.000751
2951.89	0.001064
2961.53	0.0017881
2971.18	0.00288
2980.83	0.00432
2990.47	0.00405
3000.12	0.0023049
3009.77	0.0022968
3019.41	0.00304
3029.06	0.00369
3038.71	0.00421
3048.35	0.00639
3058	0.0141
3067.64	0.0229
3077.29	0.026
3086.94	0.01663
3096.58	0.00608
3106.23	0.00288
3115.88	0.00262
3125.52	0.0028
3135.17	0.0020354
3144.82	0.000633
3154.46	0.00038
3164.11	0.00024
3173.76	0.00029
3183.4	0.00031
3193.05	0.0003
3202.7	2e-05
3212.34	0.00018
3221.99	0.00015
3231.64	0.00036
3241.28	0.000786
3250.93	0.0018016
3260.58	0.00151265
3270.22	0.000695
3279.87	0.000579
3289.52	0.00035
3299.16	0.00019
3308.81	0.00023
3318.45	0.00032
3328.1	0.00031
3337.75	6e-05
3347.39	0.00013
3357.04	0.00037
3366.69	0.00018
3376.33	0.00028
3385.98	0.00025
3395.63	0.00041
3405.27	0.00036
3414.92	0.00016
3424.57	0.00042
3434.21	0.00045
3443.86	0.00026
3453.51	0.000574
3463.15	0.000616
3472.8	0.000566
3482.45	0.000547
3492.09	0.000545
3501.74	0.00085
3511.39	0.000719
3521.03	0.000834
3530.68	0.001093
3540.33	0.001231
3549.97	0.00155461
3559.62	0.0023254
3569.26	0.00328
3578.91	0.00409
3588.56	0.00489
3598.2	0.00659
3607.85	0.01198
3617.5	0.02774
3627.14	0.06977
3636.79	0.15403
3646.44	0.12619
3656.08	0.02051
3665.73	0.00521
3675.38	0.00395
3685.02	0.00408
3694.67	0.00433
3704.32	0.00364
3713.96	0.00289
3723.61	0.0021051
3733.26	0.00154972
3742.9	0.001194
3752.55	0.0014146
3762.2	0.00115
3771.84	0.001023
3781.49	0.000972
3791.13	0.000741
3800.78	0.000795
3810.43	0.000796
3820.07	0.000776
3829.72	0.000888
3839.37	0.000857
3849.01	0.000611
3858.66	0.000752
3868.31	0.000873
3877.95	0.000848
3887.6	0.000865
3897.25	0.000977
3906.89	0.001035
3916.54	0.001077
3926.19	0.0013965
3935.83	0.001335
3945.48	0.00122
3955.13	0.001216
3964.77	0.001209
3974.42	0.001277
3984.07	0.001361
3993.71	0.001219
