Infrared Spectrum: 4-CHLORO-17Alpha-METHYL-19-NORTESTOSTERONE
Formula: C19 H27 Cl O2
CAS: 3415-90-5
State: SOLID (OIL MULL)
Class: COBLENTZ III
Instrument: PERKIN-ELMER 21 (GRATING)
Instrument parameters: NaCl PRISM
Sampling: TRANSMISSION
Resolution: 2
Origin: SMITH KLINE & FRENCH LABS.
1/CM	TRANSMITTANCE
668	0.6857
677	0.6971
686	0.6833
695	0.673
704	0.7578
713	0.746
722	0.7169
731	0.7466
740	0.7901
749	0.8234
758	0.8285
767	0.8282
776	0.833
785	0.8225
794	0.7341
803	0.514
812	0.7533
821	0.7463
830	0.6348
839	0.6086
848	0.7057
857	0.7779
866	0.716
875	0.7005
884	0.7919
893	0.7631
902	0.5649
911	0.7525
920	0.6868
929	0.6147
938	0.649
947	0.5532
956	0.7074
965	0.6058
974	0.4465
983	0.679
992	0.6951
1001	0.5737
1010	0.3736
1019	0.661
1028	0.696
1037	0.5899
1046	0.6806
1055	0.6377
1064	0.6402
1073	0.564
1082	0.5611
1091	0.4698
1100	0.4457
1109	0.4411
1118	0.5435
1127	0.6523
1136	0.5352
1145	0.5507
1154	0.5447
1163	0.4612
1172	0.4436
1181	0.3028
1190	0.5145
1199	0.4401
1208	0.4923
1217	0.5213
1226	0.5316
1235	0.5949
1244	0.519
1253	0.5671
1262	0.5962
1271	0.4508
1280	0.3815
1289	0.3938
1298	0.4648
1307	0.461
1316	0.5324
1325	0.4821
1334	0.4568
1343	0.4109
1352	0.3339
1361	0.309
1370	0.191
1379	0.2555
1388	0.4776
1397	0.6033
1406	0.6238
1415	0.5242
1424	0.3708
1433	0.3413
1442	0.1667
1451	0.0887
1460	0.0844
1469	0.1795
1478	0.4559
1487	0.6557
1496	0.6967
1505	0.7354
1514	0.7512
1523	0.7488
1532	0.7353
1541	0.7176
1550	0.6793
1559	0.5972
1568	0.4776
1577	0.2737
1586	0.3382
1595	0.4864
1604	0.6442
1613	0.7013
1622	0.6841
1631	0.6465
1640	0.5888
1649	0.5542
1658	0.4657
1667	0.2033
1676	0.0723
1685	0.0667
1694	0.4864
1703	0.6759
1712	0.7608
1721	0.7949
1730	0.8082
1739	0.815
1748	0.8203
1757	0.8254
1766	0.8303
1775	0.834
1784	0.8365
1793	0.8427
1802	0.84
1811	0.839
1820	0.8376
1829	0.8361
1838	0.8343
1847	0.8311
1856	0.8286
1865	0.8265
1874	0.8247
1883	0.8229
1892	0.8211
1901	0.8188
1910	0.8166
1919	0.8144
1928	0.8121
1937	0.8099
1946	0.8079
1955	0.8046
1964	0.7993
1973	0.7946
1982	0.7922
1991	0.7901
2000	0.788
2009	0.7858
2018	0.7837
2027	0.7822
2036	0.7807
2045	0.7804
2054	0.7795
2063	0.7764
2072	0.7727
2081	0.7695
2090	0.7676
2099	0.7657
2108	0.7638
2117	0.762
2126	0.7601
2135	0.7582
2144	0.7567
2153	0.7552
2162	0.7538
2171	0.7524
2180	0.7511
2189	0.7498
2198	0.7478
2207	0.7459
2216	0.7439
2225	0.7417
2234	0.7396
2243	0.7374
2252	0.7352
2261	0.7331
2270	0.7309
2279	0.7286
2288	0.7263
2297	0.724
2306	0.7218
2315	0.7196
2324	0.7176
2333	0.7167
2342	0.7157
2351	0.714
2360	0.7121
2369	0.7108
2378	0.7098
2387	0.7093
2396	0.7105
2405	0.7112
2414	0.7108
2423	0.7078
2432	0.7039
2441	0.6998
2450	0.6951
2459	0.6903
2468	0.6858
2477	0.6816
2486	0.6786
2495	0.6758
2504	0.6736
2513	0.67
2522	0.6635
2531	0.6566
2540	0.6496
2549	0.6423
2558	0.6352
2567	0.6283
2576	0.6208
2585	0.6143
2594	0.6102
2603	0.6087
2612	0.6088
2621	0.6054
2630	0.6011
2639	0.598
2648	0.596
2657	0.5922
2666	0.5836
2675	0.5785
2684	0.5765
2693	0.5766
2702	0.5804
2711	0.581
2720	0.5788
2729	0.5618
2738	0.5378
2747	0.5126
2756	0.4787
2765	0.4514
2774	0.4304
2783	0.3427
2792	0.2474
2801	0.1475
2810	0.0684
2819	0.046
2828	0.0404
2837	0.0396
2846	0.0394
2855	0.0403
2864	0.0418
2873	0.0445
2882	0.0446
2891	0.0449
2900	0.046
2909	0.0476
2918	0.0501
2927	0.0533
2936	0.0994
2945	0.176
2954	0.2521
2963	0.306
2972	0.3649
2981	0.4004
2990	0.4379
2999	0.456
3008	0.47
3017	0.4819
3026	0.4907
3035	0.497
3044	0.5009
3053	0.5044
3062	0.5062
3071	0.5066
3080	0.5069
3089	0.5059
3098	0.5038
3107	0.5017
3116	0.4993
3125	0.497
3134	0.4947
3143	0.4932
3152	0.4927
3161	0.4927
3170	0.4927
3179	0.4928
3188	0.4929
3197	0.4931
3206	0.4903
3215	0.4825
3224	0.4746
3233	0.4681
3242	0.4624
3251	0.4571
3260	0.4519
3269	0.4464
3278	0.4407
3287	0.435
3296	0.4291
3305	0.4225
3314	0.416
3323	0.4091
3332	0.4018
3341	0.3916
3350	0.3806
3359	0.3684
3368	0.3535
3377	0.3401
3386	0.3286
3395	0.3194
3404	0.3128
3413	0.3094
3422	0.3082
3431	0.3083
3440	0.309
3449	0.3112
3458	0.3165
3467	0.3272
3476	0.3471
3485	0.39
3494	0.4337
3503	0.4746
3512	0.5179
3521	0.5363
3530	0.5433
3539	0.5464
3548	0.5479
3557	0.5482
3566	0.5472
3575	0.5459
3584	0.5443
3593	0.5431
3602	0.5431
3611	0.5431
3620	0.542
3629	0.5397
3638	0.5367
3647	0.5353
3656	0.5353
3665	0.5354
3674	0.5358
3683	0.5363
3692	0.5367
3701	0.5349
3710	0.5317
3719	0.5277
3728	0.524
3737	0.5203
3746	0.5171
3755	0.5141
3764	0.5124
3773	0.5113
3782	0.5102
3791	0.5095
3800	0.5087
3809	0.5078
3818	0.5068
3827	0.5056
3836	0.5033
3845	0.501
3854	0.4981
3863	0.4951
3872	0.492
3881	0.489
3890	0.4862
3899	0.4838
3908	0.4814
3917	0.479
3926	0.4766
3935	0.4743
3944	0.4718
3953	0.4695
3962	0.4672
3971	0.465
3980	0.4627
3989	0.4604
3998	0.4582
