Infrared Spectrum: Acetyl chloride, dichlorophosphinyl-
Formula: C2 H2 Cl3 O2 P
CAS: 34164-06-2
State: LIQUID (NEAT)
Class: COBLENTZ III
Instrument: PERKIN-ELMER 21 (GRATING)
Instrument parameters: FILTER CHANGE ABOUT 1090 CM^-^1
Path length: CAPILLARY
Resolution: 2
Origin: SOUTHERN RESEARCH INSTITUTE
1/CM	TRANSMITTANCE
598.05	0.4577
607.094	0.4594
616.138	0.4681
625.181	0.4943
634.225	0.5316
643.269	0.5587
652.313	0.5581
661.357	0.561
670.4	0.5739
679.444	0.5639
688.488	0.579
697.532	0.5931
706.576	0.6123
715.619	0.6281
724.663	0.613
733.707	0.5722
742.751	0.5167
751.795	0.527
760.838	0.5907
769.882	0.5596
778.926	0.4519
787.97	0.4961
797.014	0.5988
806.057	0.6533
815.101	0.5969
824.145	0.592
833.189	0.5608
842.233	0.5875
851.276	0.6221
860.32	0.5779
869.364	0.6014
878.408	0.6684
887.452	0.6769
896.495	0.6796
905.539	0.7066
914.583	0.7078
923.627	0.699
932.671	0.6813
941.714	0.6537
950.758	0.6135
959.802	0.537
968.846	0.4278
977.89	0.3469
986.933	0.3315
995.977	0.3163
1005.02	0.3628
1014.06	0.4479
1023.11	0.5505
1032.15	0.5872
1041.2	0.5114
1050.24	0.441
1059.28	0.5238
1068.33	0.6507
1077.37	0.7001
1086.42	0.7317
1095.46	0.7177
1104.5	0.7029
1113.55	0.6937
1122.59	0.6958
1131.63	0.6982
1140.68	0.6919
1149.72	0.6739
1158.77	0.6397
1167.81	0.6114
1176.85	0.5878
1185.9	0.6267
1194.94	0.6555
1203.98	0.647
1213.03	0.6035
1222.07	0.5702
1231.12	0.5582
1240.16	0.5435
1249.2	0.5001
1258.25	0.4207
1267.29	0.3365
1276.33	0.2459
1285.38	0.1615
1294.42	0.2388
1303.47	0.397
1312.51	0.5697
1321.55	0.6576
1330.6	0.6978
1339.64	0.7101
1348.69	0.7061
1357.73	0.6839
1366.77	0.6482
1375.82	0.6517
1384.86	0.6742
1393.9	0.6656
1402.95	0.6934
1411.99	0.7145
1421.04	0.7268
1430.08	0.74
1439.12	0.741
1448.17	0.7398
1457.21	0.7405
1466.25	0.7473
1475.3	0.7434
1484.34	0.7516
1493.39	0.7458
1502.43	0.7473
1511.47	0.7564
1520.52	0.7488
1529.56	0.746
1538.61	0.747
1547.65	0.748
1556.69	0.749
1565.74	0.7494
1574.78	0.7477
1583.82	0.7427
1592.87	0.7398
1601.91	0.7459
1610.96	0.7475
1620	0.747
1629.04	0.7419
1638.09	0.7409
1647.13	0.7425
1656.17	0.7421
1665.22	0.7402
1674.26	0.7368
1683.31	0.7323
1692.35	0.7215
1701.39	0.7076
1710.44	0.6946
1719.48	0.6767
1728.52	0.5962
1737.57	0.5516
1746.61	0.5234
1755.66	0.4422
1764.7	0.34
1773.74	0.283
1782.79	0.178
1791.83	0.1883
1800.88	0.374
1809.92	0.6052
1818.96	0.6574
1828.01	0.7069
1837.05	0.7216
1846.09	0.7233
1855.14	0.7285
1864.18	0.7394
1873.23	0.7431
1882.27	0.7534
1891.31	0.7491
1900.36	0.7504
1909.4	0.7513
1918.44	0.7509
1927.49	0.7499
1936.53	0.7498
1945.58	0.7509
1954.62	0.7529
1963.66	0.7562
1972.71	0.7589
1981.75	0.7573
1990.8	0.7532
1999.84	0.7484
2008.88	0.7572
2017.93	0.7635
2026.97	0.7626
2036.01	0.7654
2045.06	0.7666
2054.1	0.7697
2063.15	0.769
2072.19	0.7677
2081.23	0.77
2090.28	0.7673
2099.32	0.7626
2108.36	0.765
2117.41	0.7673
2126.45	0.7689
2135.5	0.7708
2144.54	0.7687
2153.58	0.7669
2162.63	0.7671
2171.67	0.7744
2180.71	0.7657
2189.76	0.7642
2198.8	0.7629
2207.85	0.7636
2216.89	0.7609
2225.93	0.7643
2234.98	0.7637
2244.02	0.7631
2253.07	0.7642
2262.11	0.7666
2271.15	0.7658
2280.2	0.7676
2289.24	0.7664
2298.28	0.767
2307.33	0.7686
2316.37	0.7697
2325.42	0.7665
2334.46	0.7651
2343.5	0.7665
2352.55	0.7654
2361.59	0.764
2370.63	0.7628
2379.68	0.7632
2388.72	0.7626
2397.77	0.7605
2406.81	0.7567
2415.85	0.7552
2424.9	0.7552
2433.94	0.756
2442.99	0.7539
2452.03	0.7499
2461.07	0.7485
2470.12	0.7485
2479.16	0.7486
2488.2	0.7486
2497.25	0.7477
2506.29	0.7437
2515.34	0.7428
2524.38	0.7439
2533.42	0.7434
2542.47	0.7402
2551.51	0.7388
2560.55	0.7376
2569.6	0.7367
2578.64	0.7409
2587.69	0.7419
2596.73	0.7423
2605.77	0.7417
2614.82	0.7419
2623.86	0.7444
2632.9	0.7467
2641.95	0.7425
2650.99	0.7432
2660.04	0.7466
2669.08	0.7502
2678.12	0.7534
2687.17	0.7522
2696.21	0.7501
2705.26	0.7567
2714.3	0.7571
2723.34	0.7562
2732.39	0.7537
2741.43	0.751
2750.47	0.7487
2759.52	0.7466
2768.56	0.7459
2777.61	0.7482
2786.65	0.7509
2795.69	0.7534
2804.74	0.7537
2813.78	0.7508
2822.82	0.7472
2831.87	0.7453
2840.91	0.7323
2849.96	0.7221
2859	0.715
2868.04	0.7056
2877.09	0.6928
2886.13	0.6788
2895.18	0.6552
2904.22	0.6154
2913.26	0.6116
2922.31	0.6164
2931.35	0.6251
2940.39	0.6351
2949.44	0.6405
2958.48	0.6422
2967.53	0.6415
2976.57	0.6528
2985.61	0.6629
2994.66	0.6824
3003.7	0.6961
3012.74	0.7075
3021.79	0.7191
3030.83	0.7195
3039.88	0.7204
3048.92	0.7246
3057.96	0.726
3067.01	0.7256
3076.05	0.7264
3085.09	0.7224
3094.14	0.7244
3103.18	0.7255
3112.23	0.7269
3121.27	0.7293
3130.31	0.7313
3139.36	0.7256
3148.4	0.7257
3157.45	0.7265
3166.49	0.7275
3175.53	0.7288
3184.58	0.7308
3193.62	0.7339
3202.66	0.737
3211.71	0.7382
3220.75	0.7368
3229.8	0.7353
3238.84	0.7325
3247.88	0.7324
3256.93	0.7423
3265.97	0.7445
3275.01	0.7432
3284.06	0.7426
3293.1	0.7436
3302.15	0.7448
3311.19	0.7499
3320.23	0.7549
3329.28	0.7555
3338.32	0.7557
3347.36	0.7553
3356.41	0.7547
3365.45	0.7531
3374.5	0.7552
3383.54	0.756
3392.58	0.755
3401.63	0.7571
3410.67	0.7661
3419.72	0.7687
3428.76	0.7692
3437.8	0.769
3446.85	0.7689
3455.89	0.7696
3464.93	0.7714
3473.98	0.7716
3483.02	0.7711
3492.07	0.7703
3501.11	0.7695
3510.15	0.7683
3519.2	0.7654
3528.24	0.7614
3537.28	0.7581
3546.33	0.7572
3555.37	0.7581
3564.42	0.7601
3573.46	0.7587
3582.5	0.7584
3591.55	0.7641
3600.59	0.7666
3609.64	0.7674
3618.68	0.768
3627.72	0.77
3636.77	0.7727
3645.81	0.7771
3654.85	0.7747
3663.9	0.777
3672.94	0.7844
3681.99	0.7906
3691.03	0.7839
3700.07	0.7836
3709.12	0.7915
3718.16	0.7898
3727.2	0.7808
3736.25	0.7754
3745.29	0.7761
3754.34	0.7777
3763.38	0.7808
3772.42	0.7841
3781.47	0.7826
3790.51	0.7811
3799.55	0.7778
3808.6	0.7799
3817.64	0.7856
3826.69	0.7856
3835.73	0.7856
3844.77	0.7923
3853.82	0.7947
3862.86	0.7938
3871.91	0.7923
3880.95	0.792
3889.99	0.7926
3899.04	0.7869
3908.08	0.7858
