Infrared Spectrum: 2,4-Dichloro-.omega.-nitrostyrene
Formula: C 8 H 5 Cl 2 N O 2
CAS: 34209-97-7
State: gas
Origin: EPA-IR VAPOR PHASE LIBRARY
1/CM	ABSORBANCE
549.8	0.003203
559.445	0.004153
569.09	0.004063
578.734	0.002493
588.379	0.0018239
598.024	0.001794
607.669	0.0016375
617.313	0.0012442
626.958	0.000474
636.603	0.0012069
646.248	0.0016807
655.893	0.0017633
665.537	0.0011646
675.182	0.002043
684.827	0.001883
694.472	0.002843
704.116	0.007123
713.761	0.008343
723.406	0.003473
733.051	0.003513
742.695	0.003243
752.34	0.003463
761.985	0.004313
771.63	0.010413
781.275	0.020073
790.919	0.025583
800.564	0.024983
810.209	0.021453
819.854	0.017353
829.498	0.008753
839.143	0.006343
848.788	0.006563
858.433	0.011043
868.078	0.017753
877.722	0.013303
887.367	0.006743
897.012	0.004603
906.657	0.004083
916.301	0.004843
925.946	0.006593
935.591	0.009973
945.236	0.015013
954.88	0.020553
964.525	0.024693
974.17	0.013533
983.815	0.005313
993.46	0.002983
1003.1	0.002663
1012.75	0.002873
1022.39	0.0017261
1032.04	0.002223
1041.68	0.005793
1051.33	0.013033
1060.97	0.012183
1070.62	0.007053
1080.26	0.003593
1089.91	0.007133
1099.55	0.024053
1109.2	0.025683
1118.84	0.010053
1128.49	0.005853
1138.13	0.008963
1147.78	0.009913
1157.42	0.006433
1167.07	0.003403
1176.71	0.004773
1186.36	0.005113
1196	0.005933
1205.64	0.005123
1215.29	0.001389
1224.93	0.001953
1234.58	0.003653
1244.22	0.002743
1253.87	0.002533
1263.51	0.005543
1273.16	0.004843
1282.8	0.003993
1292.45	0.004903
1302.09	0.005373
1311.74	0.007983
1321.38	0.014773
1331.03	0.036813
1340.67	0.080643
1350.32	0.075523
1359.96	0.040143
1369.61	0.024343
1379.25	0.018423
1388.9	0.014443
1398.54	0.009733
1408.18	0.006623
1417.83	0.006163
1427.47	0.008213
1437.12	0.009173
1446.76	0.009583
1456.41	0.013793
1466.05	0.031673
1475.7	0.037893
1485.34	0.017983
1494.99	0.012213
1504.63	0.014593
1514.28	0.020073
1523.92	0.030033
1533.57	0.044603
1543.21	0.074303
1552.86	0.075263
1562.5	0.043093
1572.15	0.039863
1581.79	0.046083
1591.44	0.036273
1601.08	0.012713
1610.73	0.007843
1620.37	0.008053
1630.01	0.010323
1639.66	0.015243
1649.3	0.012723
1658.95	0.006433
1668.59	0.004223
1678.24	0.003223
1687.88	0.002393
1697.53	0.002293
1707.17	0.001983
1716.82	0.001883
1726.46	0.0016216
1736.11	0.002263
1745.75	0.002283
1755.4	0.001973
1765.04	0.0017923
1774.69	0.0015999
1784.33	0.0016487
1793.98	0.0017235
1803.62	0.0016334
1813.27	0.0015558
1822.91	0.0016275
1832.55	0.0013453
1842.2	0.0014006
1851.84	0.0015285
1861.49	0.001305
1871.13	0.0014802
1880.78	0.0018151
1890.42	0.002253
1900.07	0.002283
1909.71	0.0018507
1919.36	0.0015512
1929	0.0014177
1938.65	0.0013014
1948.29	0.0011882
1957.94	0.0010975
1967.58	0.0014071
1977.23	0.0012614
1986.87	0.0010097
1996.52	0.0012319
2006.16	0.0010808
2015.81	0.001078
2025.45	0.0010484
2035.1	0.0012626
2044.74	0.0010894
2054.38	0.0010558
2064.03	0.0009661
2073.67	0.001073
2083.32	0.0010851
2092.96	0.0010614
2102.61	0.0010454
2112.25	0.0010856
2121.9	0.0012063
2131.54	0.0010067
2141.19	0.0010077
2150.83	0.0012762
2160.48	0.0009982
2170.12	0.0011376
2179.77	0.0008131
2189.41	0.00087754
2199.06	0.0012058
2208.7	0.0011524
2218.35	0.0010733
2227.99	0.0010911
2237.64	0.0013493
2247.28	0.0012283
2256.92	0.0012288
2266.57	0.001288
2276.21	0.0013137
2285.86	0.0012734
2295.5	0.0014635
2305.15	0.0014808
2314.79	0.0012808
2324.44	0.0014015
2334.08	0.0013825
2343.73	0.0012897
2353.37	0.001081
2363.02	0.0011327
2372.66	0.00090016
2382.31	0.0010931
2391.95	0.0011145
2401.6	0.0008206
2411.24	0.0010579
2420.89	0.0010453
2430.53	0.0013267
2440.18	0.0010053
2449.82	0.0010433
2459.47	0.0012745
2469.11	0.0009889
2478.75	0.0013799
2488.4	0.001117
2498.04	0.0013491
2507.69	0.0011031
2517.33	0.0013463
2526.98	0.0011526
2536.62	0.0016042
2546.27	0.0013101
2555.91	0.0013085
2565.56	0.001098
2575.2	0.0015985
2584.85	0.0013445
2594.49	0.0014038
2604.14	0.0011473
2613.78	0.0014023
2623.43	0.0014178
2633.07	0.0013671
2642.72	0.0014264
2652.36	0.0011933
2662.01	0.0013842
2671.65	0.0010934
2681.29	0.0015927
2690.94	0.0016846
2700.58	0.0012898
2710.23	0.0011512
2719.87	0.000618
2729.52	0.0013718
2739.16	0.0009798
2748.81	0.0013665
2758.45	0.0011952
2768.1	0.0009908
2777.74	0.0015171
2787.39	0.00092506
2797.03	0.0013256
2806.68	0.0011334
2816.32	0.0018574
2825.97	0.001893
2835.61	0.001993
2845.26	0.002033
2854.9	0.002043
2864.55	0.002323
2874.19	0.002793
2883.84	0.002963
2893.48	0.002513
2903.12	0.002623
2912.77	0.0016618
2922.41	0.001253
2932.06	0.001697
2941.7	0.0011994
2951.35	0.00092779
2960.99	0.0011465
2970.64	0.0016561
2980.28	0.0016689
2989.93	0.001296
2999.57	0.0016007
3009.22	0.0011997
3018.86	0.0011271
3028.51	0.0015648
3038.15	0.0017848
3047.8	0.0017941
3057.44	0.002873
3067.09	0.003743
3076.73	0.003053
3086.38	0.002353
3096.02	0.002213
3105.67	0.003153
3115.31	0.004363
3124.95	0.002883
3134.6	0.0011581
3144.24	0.0012588
3153.89	0.0017578
3163.53	0.001555
3173.18	0.0011264
3182.82	0.0011367
3192.47	0.0016031
3202.11	0.0013295
3211.76	0.000694
3221.4	0.00095136
3231.05	0.0017424
3240.69	0.0010881
3250.34	0.000803
3259.98	0.0017694
3269.63	0.00095789
3279.27	0.0015509
3288.92	0.0012734
3298.56	0.00088965
3308.21	0.0011478
3317.85	0.0012584
3327.49	0.0014048
3337.14	0.0008261
3346.78	0.0010499
3356.43	0.0010276
3366.07	0.0013077
3375.72	0.000476
3385.36	0.0011646
3395.01	0.00090013
3404.65	0.001027
3414.3	0.0012282
3423.94	0.0011137
3433.59	0.0011657
3443.23	0.0011735
3452.88	0.0008061
3462.52	0.000634
3472.17	0.0011365
3481.81	0.0010881
3491.46	0.000583
3501.1	0.0013434
3510.75	0.000475
3520.39	0.0011611
3530.04	0.0009815
3539.68	0.0009861
3549.32	0.0011118
3558.97	0.000863115
3568.61	0.000297
3578.26	0.000868113
3587.9	0.0008248
3597.55	0.000675
3607.19	0.0008349
3616.84	0.0010462
3626.48	0.0011995
3636.13	0.001507
3645.77	0.0011823
3655.42	0.0013336
3665.06	0.0014309
3674.71	0.0010512
3684.35	0.000871624
3694	0.000644
3703.64	0.00063
3713.29	0.0010088
3722.93	0.0011184
3732.58	0.0013089
3742.22	0.0011003
3751.86	0.0009739
3761.51	0.000754
3771.15	0.0007929
3780.8	0.000464
3790.44	0.0009752
3800.09	0.00094392
3809.73	0.000651
3819.38	0.0008357
3829.02	0.00092831
3838.67	0.00089305
3848.31	0.0010654
3857.96	0.0010404
3867.6	0.0013376
3877.25	0.00092524
3886.89	0.0008117
3896.54	0.0008042
3906.18	0.0008277
3915.83	0.000745
3925.47	0.0012307
3935.12	0.0007782
3944.76	0.0010518
3954.41	0.0012931
3964.05	0.0010961
3973.69	0.000396
3983.34	0.000868061
3992.98	0.00089314
