Infrared Spectrum: t-Butyl carbanilate
Formula: C 11 H 15 N O 2
CAS: 3422-01-3
State: gas
Origin: EPA-IR VAPOR PHASE LIBRARY
1/CM	ABSORBANCE
549.8	0.0068084
559.445	0.0057584
569.09	0.0043884
578.734	0.0035084
588.379	0.0029784
598.024	0.0027084
607.669	0.0020284
617.313	0.0027184
626.958	0.0023184
636.603	0.0030184
646.248	0.0037084
655.893	0.0047784
665.537	0.0063684
675.182	0.0099284
684.827	0.0163184
694.472	0.0159584
704.116	0.0116784
713.761	0.0095284
723.406	0.0110484
733.051	0.0180384
742.695	0.0282384
752.34	0.0283584
761.985	0.0211784
771.63	0.0171284
781.275	0.0112884
790.919	0.0070884
800.564	0.0058284
810.209	0.0065284
819.854	0.0102384
829.498	0.0113684
839.143	0.0055684
848.788	0.0035684
858.433	0.0030484
868.078	0.0037484
877.722	0.0050884
887.367	0.0085784
897.012	0.0092084
906.657	0.0057984
916.301	0.0046784
925.946	0.0035384
935.591	0.0028384
945.236	0.0026684
954.88	0.0029684
964.525	0.0035784
974.17	0.0045684
983.815	0.0068184
993.46	0.0097584
1003.1	0.0128884
1012.75	0.0239984
1022.39	0.0336784
1032.04	0.0204984
1041.68	0.0253584
1051.33	0.0320084
1060.97	0.0178984
1070.62	0.0158684
1080.26	0.0169284
1089.91	0.0130884
1099.55	0.0153584
1109.2	0.0179184
1118.84	0.0203584
1128.49	0.0310084
1138.13	0.0614584
1147.78	0.124568
1157.42	0.198648
1167.07	0.229338
1176.71	0.163218
1186.36	0.0857784
1196	0.0589084
1205.64	0.0671084
1215.29	0.0807084
1224.93	0.0544784
1234.58	0.0390884
1244.22	0.0397184
1253.87	0.0334984
1263.51	0.0249884
1273.16	0.0236084
1282.8	0.0282284
1292.45	0.0379584
1302.09	0.0556584
1311.74	0.0564584
1321.38	0.0517184
1331.03	0.0389984
1340.67	0.0377884
1350.32	0.0391584
1359.96	0.0331984
1369.61	0.0417284
1379.25	0.0342184
1388.9	0.0230584
1398.54	0.0261884
1408.18	0.0148084
1417.83	0.0184584
1427.47	0.0444284
1437.12	0.109298
1446.76	0.0575084
1456.41	0.0223284
1466.05	0.0238284
1475.7	0.0297184
1485.34	0.0395484
1494.99	0.0730884
1504.63	0.136098
1514.28	0.182508
1523.92	0.103188
1533.57	0.0414084
1543.21	0.0250784
1552.86	0.0192984
1562.5	0.0155084
1572.15	0.0142584
1581.79	0.0200584
1591.44	0.0391784
1601.08	0.0507084
1610.73	0.0331084
1620.37	0.0119184
1630.01	0.0073784
1639.66	0.0062384
1649.3	0.0054384
1658.95	0.0049084
1668.59	0.0049184
1678.24	0.0056184
1687.88	0.0067684
1697.53	0.0082684
1707.17	0.0107584
1716.82	0.0167384
1726.46	0.0403884
1736.11	0.0996384
1745.75	0.127808
1755.4	0.119558
1765.04	0.0637184
1774.69	0.0226284
1784.33	0.0112284
1793.98	0.0079684
1803.62	0.0060884
1813.27	0.0052284
1822.91	0.0047284
1832.55	0.0041184
1842.2	0.0037284
1851.84	0.0033084
1861.49	0.0029684
1871.13	0.0025284
1880.78	0.0019484
1890.42	0.0016684
1900.07	0.0015984
1909.71	0.0018584
1919.36	0.0021084
1929	0.0024884
1938.65	0.0025184
1948.29	0.0023884
1957.94	0.0017984
1967.58	0.0014484
1977.23	0.0014484
1986.87	0.0014284
1996.52	0.0012784
2006.16	0.0011684
2015.81	0.0010384
2025.45	0.0010584
2035.1	0.0011484
2044.74	0.0011384
2054.38	0.0010584
2064.03	0.0011584
2073.67	0.0011384
2083.32	0.0009776
2092.96	0.0009305
2102.61	0.000937
2112.25	0.0008635
2121.9	0.0007684
2131.54	0.0008535
2141.19	0.0009119
2150.83	0.0009672
2160.48	0.0010092
2170.12	0.0011784
2179.77	0.0013584
2189.41	0.0014384
2199.06	0.0014984
2208.7	0.0016284
2218.35	0.0015584
2227.99	0.0016184
2237.64	0.0017584
2247.28	0.0024484
2256.92	0.0033184
2266.57	0.0040384
2276.21	0.0044584
2285.86	0.0045784
2295.5	0.0044684
2305.15	0.0048484
2314.79	0.0057884
2324.44	0.0065484
2334.08	0.0061784
2343.73	0.0055884
2353.37	0.0060984
2363.02	0.0079184
2372.66	0.0063384
2382.31	0.0028684
2391.95	0.0011084
2401.6	0.0009138
2411.24	0.0009386
2420.89	0.0009061
2430.53	0.0007576
2440.18	0.0007496
2449.82	0.0008601
2459.47	0.0007777
2469.11	0.0007819
2478.75	0.0007622
2488.4	0.0009086
2498.04	0.0009953
2507.69	0.0009548
2517.33	0.0010384
2526.98	0.0010584
2536.62	0.0010384
2546.27	0.0010984
2555.91	0.0010007
2565.56	0.0008459
2575.2	0.0006616
2584.85	0.0008162
2594.49	0.0006409
2604.14	0.0006253
2613.78	0.0008201
2623.43	0.0008091
2633.07	0.0008593
2642.72	0.0008739
2652.36	0.0007989
2662.01	0.0007805
2671.65	0.0005438
2681.29	0.0006732
2690.94	0.0007133
2700.58	0.0007174
2710.23	0.0008144
2719.87	0.0009752
2729.52	0.0012084
2739.16	0.0009664
2748.81	0.0011084
2758.45	0.0010984
2768.1	0.0010379
2777.74	0.0010384
2787.39	0.0010242
2797.03	0.0011584
2806.68	0.0013284
2816.32	0.0012584
2825.97	0.0016284
2835.61	0.0016884
2845.26	0.0018684
2854.9	0.0025284
2864.55	0.0038084
2874.19	0.0054884
2883.84	0.0071584
2893.48	0.0085484
2903.12	0.0098484
2912.77	0.0114384
2922.41	0.0129484
2932.06	0.0177684
2941.7	0.0214884
2951.35	0.0182484
2960.99	0.0178184
2970.64	0.0279084
2980.28	0.0446984
2989.93	0.0425384
2999.57	0.0167984
3009.22	0.0139684
3018.86	0.0126784
3028.51	0.0119684
3038.15	0.0113684
3047.8	0.0096484
3057.44	0.0123484
3067.09	0.0164884
3076.73	0.0121384
3086.38	0.0090384
3096.02	0.0073284
3105.67	0.0057284
3115.31	0.0040684
3124.95	0.0024984
3134.6	0.0016584
3144.24	0.0014184
3153.89	0.0013184
3163.53	0.0010384
3173.18	0.0011584
3182.82	0.0009723
3192.47	0.0011784
3202.11	0.0010484
3211.76	0.0011684
3221.4	0.0009007
3231.05	0.0008702
3240.69	0.0008537
3250.34	0.0006234
3259.98	0.0006602
3269.63	0.0003117
3279.27	0.0002973
3288.92	0.0002363
3298.56	0.0004164
3308.21	0.0004721
3317.85	0.0004424
3327.49	0.0006765
3337.14	0.0005352
3346.78	0.0004985
3356.43	0.0007431
3366.07	0.0006294
3375.72	0.0006138
3385.36	0.0005707
3395.01	0.0006068
3404.65	0.0009772
3414.3	0.0011284
3423.94	0.0013384
3433.59	0.0025884
3443.23	0.0055084
3452.88	0.0102584
3462.52	0.0144884
3472.17	0.0122584
3481.81	0.0058984
3491.46	0.0026684
3501.1	0.0018784
3510.75	0.0010195
3520.39	0.0009634
3530.04	0.0006857
3539.68	0.0004167
3549.32	0.0006674
3558.97	0.0005
3568.61	0.0005186
3578.26	0.0003012
3587.9	0.0004438
3597.55	0.0004752
3607.19	0.0004149
3616.84	0.0004271
3626.48	0.0005067
3636.13	0.0002924
3645.77	0.0004092
3655.42	0.0003459
3665.06	0.0005341
3674.71	0.000325
3684.35	0.0004642
3694	0.0003587
3703.64	0.00042
3713.29	0.0004474
3722.93	0.0005596
3732.58	0.0007494
3742.22	0.0003909
3751.86	0.0002677
3761.51	0.0002469
3771.15	0.0003619
3780.8	0.0005498
3790.44	0.0002838
3800.09	0
3809.73	0.0002258
3819.38	0.000385
3829.02	0.0003145
3838.67	0.0002782
3848.31	0.0001934
3857.96	0.0004161
3867.6	0.0003797
3877.25	0.000429
3886.89	0.0004541
3896.54	0.0002587
3906.18	0.0004616
3915.83	0.000488
3925.47	0.0006569
3935.12	0.0004203
3944.76	0.0005686
3954.41	0.0005575
3964.05	0.0005583
3973.69	0.0004873
3983.34	0.0004003
3992.98	0.000398
