Infrared Spectrum: 2-Acetoxybenzaldehyde
Formula: C 9 H 8 O 3
CAS: 34231-78-2
State: gas
Origin: EPA-IR VAPOR PHASE LIBRARY
1/CM	ABSORBANCE
549.8	0.002091
559.445	0.0010695
569.09	0.00074923
578.735	0.0010716
588.38	0.001083
598.025	0.0015725
607.67	0.0015014
617.315	0.0013961
626.96	0.002921
636.605	0.004771
646.251	0.005571
655.896	0.005111
665.541	0.005081
675.186	0.007561
684.831	0.009181
694.476	0.006771
704.121	0.003541
713.766	0.002021
723.411	0.001691
733.056	0.002221
742.701	0.003421
752.346	0.006761
761.991	0.008691
771.636	0.009691
781.281	0.012311
790.926	0.014401
800.571	0.010881
810.216	0.005661
819.861	0.003431
829.507	0.003791
839.152	0.005541
848.797	0.009511
858.442	0.012291
868.087	0.009701
877.732	0.007581
887.377	0.008421
897.022	0.006981
906.667	0.006281
916.312	0.007221
925.957	0.005391
935.602	0.005641
945.247	0.006361
954.892	0.004691
964.537	0.003651
974.182	0.003961
983.827	0.005891
993.472	0.009641
1003.12	0.013701
1012.76	0.016571
1022.41	0.010261
1032.05	0.004971
1041.7	0.004141
1051.34	0.004741
1060.99	0.006161
1070.63	0.008851
1080.28	0.009691
1089.92	0.007431
1099.57	0.005671
1109.21	0.005901
1118.86	0.010061
1128.5	0.017191
1138.15	0.016951
1147.79	0.011211
1157.44	0.013781
1167.08	0.023641
1176.73	0.050121
1186.37	0.124131
1196.02	0.224431
1205.66	0.180471
1215.31	0.065581
1224.95	0.040291
1234.6	0.045141
1244.24	0.033511
1253.89	0.015331
1263.53	0.013621
1273.18	0.014121
1282.82	0.011241
1292.47	0.007721
1302.11	0.005871
1311.76	0.004921
1321.4	0.004481
1331.05	0.003961
1340.69	0.003711
1350.34	0.004891
1359.98	0.010261
1369.63	0.024411
1379.27	0.027921
1388.92	0.014521
1398.56	0.006161
1408.21	0.004401
1417.85	0.004441
1427.5	0.006371
1437.14	0.011551
1446.79	0.017361
1456.43	0.012561
1466.08	0.005681
1475.73	0.009891
1485.37	0.011721
1495.02	0.005981
1504.66	0.003461
1514.31	0.003171
1523.95	0.003281
1533.6	0.003161
1543.24	0.003121
1552.89	0.003121
1562.53	0.003921
1572.18	0.007711
1581.82	0.016281
1591.47	0.018801
1601.11	0.009711
1610.76	0.005001
1620.4	0.003321
1630.05	0.002471
1639.69	0.002321
1649.34	0.002691
1658.98	0.002861
1668.63	0.003451
1678.27	0.004621
1687.92	0.006441
1697.56	0.011111
1707.21	0.029121
1716.85	0.073641
1726.5	0.079931
1736.14	0.029481
1745.79	0.013241
1755.43	0.013371
1765.08	0.019761
1774.72	0.030701
1784.37	0.047251
1794.01	0.052281
1803.66	0.035011
1813.3	0.017381
1822.95	0.008291
1832.59	0.004461
1842.24	0.002931
1851.88	0.002421
1861.53	0.002401
1871.17	0.002181
1880.82	0.002071
1890.46	0.001871
1900.11	0.0016558
1909.75	0.0014351
1919.4	0.0014508
1929.04	0.0015699
1938.69	0.0016295
1948.33	0.0015534
1957.98	0.0013272
1967.62	0.0012092
1977.27	0.0012323
1986.91	0.0012296
1996.56	0.0010897
2006.2	0.0009952
2015.85	0.0011425
2025.49	0.0012048
2035.14	0.0014398
2044.78	0.0016854
2054.43	0.001545
2064.07	0.0012995
2073.72	0.0010796
2083.36	0.0010159
2093.01	0.0009696
2102.65	0.0008567
2112.3	0.000813
2121.94	0.000695586
2131.59	0.0006689
2141.23	0.0006471
2150.88	0.0006115
2160.52	0.000551
2170.17	0.000645
2179.81	0.000575
2189.46	0.000576
2199.1	0.000549
2208.75	0.000452
2218.39	0.00059
2228.04	0.00058
2237.68	0.0006446
2247.33	0.0006564
2256.97	0.000824
2266.62	0.00074092
2276.26	0.000562
2285.91	0.00045
2295.55	0.000463
2305.2	0.000483
2314.84	0.0006052
2324.49	0.0006708
2334.13	0.00070279
2343.78	0.0006675
2353.42	0.00068297
2363.07	0.0007697
2372.72	0.00074945
2382.36	0.000676
2392.01	0.000695755
2401.65	0.0006777
2411.3	0.0006151
2420.94	0.00071979
2430.59	0.0006721
2440.23	0.00068904
2449.88	0.0005992
2459.52	0.000594
2469.17	0.000551
2478.81	0.000557
2488.46	0.00048
2498.1	0.000439
2507.75	0.000537
2517.39	0.000524
2527.04	0.000448
2536.68	0.000481
2546.33	0.000468
2555.97	0.000533
2565.62	0.000654
2575.26	0.0006041
2584.91	0.0006021
2594.55	0.0006211
2604.2	0.00077043
2613.84	0.0008711
2623.49	0.00077822
2633.13	0.0006411
2642.78	0.0008551
2652.42	0.0009807
2662.07	0.001122
2671.71	0.0009197
2681.36	0.0009333
2691	0.0014761
2700.65	0.003281
2710.29	0.008951
2719.94	0.015291
2729.58	0.011361
2739.23	0.003781
2748.87	0.001791
2758.52	0.0014813
2768.16	0.002021
2777.81	0.003931
2787.45	0.007781
2797.1	0.011421
2806.74	0.013581
2816.39	0.011111
2826.03	0.007651
2835.68	0.005671
2845.32	0.002891
2854.97	0.0013892
2864.61	0.0010014
2874.26	0.0008617
2883.9	0.00075447
2893.55	0.00076008
2903.19	0.00075871
2912.84	0.00078888
2922.48	0.0008414
2932.13	0.0008544
2941.77	0.0009568
2951.42	0.0013414
2961.06	0.0009435
2970.71	0.0008166
2980.35	0.00073799
2990	0.000696067
2999.64	0.0009607
3009.29	0.0009756
3018.93	0.0014141
3028.58	0.002281
3038.22	0.002811
3047.87	0.002871
3057.51	0.002951
3067.16	0.003751
3076.8	0.004331
3086.45	0.003731
3096.09	0.002301
3105.74	0.0015688
3115.38	0.000946
3125.03	0.000463
3134.67	0.000431
3144.32	0.000415
3153.96	0.000435
3163.61	0.000226
3173.25	0.000275
3182.9	0.000206
3192.54	5.5e-05
3202.19	3e-05
3211.83	2.2e-05
3221.48	0.000218
3231.12	6.8e-05
3240.77	0.000251
3250.41	0.000216
3260.06	0.000194
3269.7	0.000224
3279.35	0.000198
3289	5.3e-05
3298.64	0.000164
3308.29	0.000202
3317.93	0.000211
3327.58	0.000116
3337.22	0.00018
3346.87	0.000152
3356.51	0.000172
3366.16	0.000245
3375.8	0.000351
3385.45	0.000263
3395.09	0.000327
3404.74	0.0006456
3414.38	0.0010306
3424.03	0.0016568
3433.67	0.0011911
3443.32	0.0006639
3452.96	0.000447
3462.61	0.0004
3472.25	0.000297
3481.9	0.0003
3491.54	0.000392
3501.19	0.000432
3510.83	0.000512
3520.48	0.00039
3530.12	0.0006466
3539.77	0.000549
3549.41	0.000676
3559.06	0.0008646
3568.7	0.000697566
3578.35	0.00071004
3587.99	0.000446
3597.64	0.000369
3607.28	0.000275
3616.93	0.000402
3626.57	0.000432
3636.22	0.000316
3645.86	0.000329
3655.51	0.00018
3665.15	0.000402
3674.8	0.000539
3684.44	0.000301
3694.09	0.000396
3703.73	0.000441
3713.38	0.000418
3723.02	0.000407
3732.67	0.000301
3742.31	0.000582
3751.96	0.0006045
3761.6	0.000427
3771.25	0.000487
3780.89	0.000447
3790.54	0.000529
3800.18	0.0006092
3809.83	0.000383
3819.47	0.000503
3829.12	0.000536
3838.76	0.0006399
3848.41	0.000516
3858.05	0.000304
3867.7	0.000488
3877.34	0.000526
3886.99	0.00037
3896.63	0.000373
3906.28	0.000421
3915.92	0.00042
3925.57	0.000354
3935.21	0.000454
3944.86	0.000481
3954.5	0.000535
3964.15	0.000494
3973.79	0.000481
3983.44	0.000525
3993.08	0.000228
