Infrared Spectrum: o,p'-DDE
Formula: C 14 H 8 Cl 4
CAS: 3424-82-6
State: gas
Instrument: HP-GC/MS/IRD
Origin: NIST Mass Spectrometry Data Center
1/CM	ABSORBANCE
550	0.000294
562	4.5e-05
574	0.000174
586	0.000294
598	0.000732
610	0.001266
622	0.00645
634	0.004641
646	0.001281
658	0.001017
670	0.001653
682	0.004362
694	0.00438
706	0.003861
718	0.004098
730	0.005919
742	0.011625
754	0.021579
766	0.003096
778	0.00243
790	0.005664
802	0.014658
814	0.009051
826	0.005604
838	0.00738
850	0.008151
862	0.02991
874	0.011295
886	0.003231
898	0.002094
910	0.001647
922	0.001317
934	0.001851
946	0.001695
958	0.001956
970	0.009468
982	0.010242
994	0.002328
1006	0.004047
1018	0.016374
1030	0.005574
1042	0.004398
1054	0.00735
1066	0.00777
1078	0.004434
1090	0.021999
1102	0.011061
1114	0.00315
1126	0.002838
1138	0.002079
1150	0.001512
1162	0.001251
1174	0.000858
1186	0.000594
1198	0.000192
1210	0.000276
1222	0.000654
1234	0.000351
1246	0.000972
1258	0.00141
1270	0.000558
1282	0.00039
1294	0.000579
1306	0.0006
1318	0.000594
1330	0.000534
1342	0.000516
1354	0.000606
1366	0.000675
1378	0.000993
1390	0.002058
1402	0.002625
1414	0.002427
1426	0.004182
1438	0.007734
1450	0.003384
1462	0.005892
1474	0.009939
1486	0.019272
1498	0.013944
1510	0.003399
1522	0.00168
1534	0.001686
1546	0.002088
1558	0.003192
1570	0.00468
1582	0.00804
1594	0.009774
1606	0.003543
1618	0.001959
1630	0.001338
1642	0.00099
1654	0.001041
1666	0.000597
1678	0.000543
1690	0.000738
1702	0.000441
1714	0.00042
1726	0.000561
1738	0.000369
1750	0.000369
1762	0.000633
1774	0.001098
1786	0.000603
1798	0.000774
1810	0.000492
1822	0.00033
1834	0.000558
1846	0.000324
1858	0.000276
1870	0.000402
1882	0.000795
1894	0.001143
1906	0.001047
1918	0.000846
1930	0.00045
1942	0.000729
1954	0.000555
1966	0.00021
1978	0.000135
1990	0.000126
2002	9.6e-05
2014	7.2e-05
2026	9.3e-05
2038	0.00012
2050	0.000117
2062	9e-05
2074	8.4e-05
2086	7.5e-05
2098	6e-05
2110	6.9e-05
2122	8.4e-05
2134	5.4e-05
2146	6e-05
2158	6.6e-05
2170	0
2182	4.5e-05
2194	5.1e-05
2206	4.8e-05
2218	7.5e-05
2230	9e-05
2242	9.3e-05
2254	0.000105
2266	0.000141
2278	0.000231
2290	0.000294
2302	0.000192
2314	0.000237
2326	0.00021
2338	7.8e-05
2350	6.9e-05
2362	7.5e-05
2374	8.4e-05
2386	0.000111
2398	0.00012
2410	0.000189
2422	0.000171
2434	0.000132
2446	0.000111
2458	0.000123
2470	0.00018
2482	0.000138
2494	0.000144
2506	0.000183
2518	0.000243
2530	0.000249
2542	0.000213
2554	0.000201
2566	0.000246
2578	0.00024
2590	0.000186
2602	0.00018
2614	0.000189
2626	0.00018
2638	0.000165
2650	0.000207
2662	0.000183
2674	0.000195
2686	0.000189
2698	0.000171
2710	0.000153
2722	0.000195
2734	0.000198
2746	0.000201
2758	0.000189
2770	0.000231
2782	0.000213
2794	0.000264
2806	0.000267
2818	0.000276
2830	0.000261
2842	0.000285
2854	0.000261
2866	0.00024
2878	0.000279
2890	0.00027
2902	0.000201
2914	0.000147
2926	0.000192
2938	0.000264
2950	0.000153
2962	0.000279
2974	0.000306
2986	0.000372
2998	0.000453
3010	0.000738
3022	0.0012
3034	0.001554
3046	0.001623
3058	0.00306
3070	0.005409
3082	0.005031
3094	0.003153
3106	0.00141
3118	0.000723
3130	0.00078
3142	0.000582
3154	0.000339
3166	0.000297
3178	0.000288
3190	0.000156
3202	0.000204
3214	0.000192
3226	0.000198
3238	0.000207
3250	0.000216
3262	0.000183
3274	0.000162
3286	8.4e-05
3298	0.000264
3310	0.000198
3322	0.000216
3334	9e-05
3346	0.000135
3358	0.000111
3370	8.4e-05
3382	0.000129
3394	7.5e-05
3406	0.000177
3418	0.000138
3430	8.1e-05
3442	0.000108
3454	6.6e-05
3466	0.000132
3478	5.7e-05
3490	9.6e-05
3502	5.7e-05
3514	8.7e-05
3526	0.00012
3538	6.9e-05
3550	6.9e-05
3562	5.1e-05
3574	0.000129
3586	7.5e-05
3598	8.4e-05
3610	6.3e-05
3622	5.4e-05
3634	0.000135
3646	0.000126
3658	0.000105
3670	6.3e-05
3682	0.000105
3694	0.000255
3706	0.000123
3718	0.000222
3730	7.8e-05
3742	9.3e-05
3754	0.000246
3766	0.000159
3778	0.000222
3790	0.000156
3802	0.000129
3814	0.000138
3826	0.000123
3838	4.8e-05
