Infrared Spectrum: 1-Chloropyrene
Formula: C 16 H 9 Cl
CAS: 34244-14-9
State: gas
Instrument: HP-GC/MS/IRD
Origin: NIST Mass Spectrometry Data Center
1/CM	ABSORBANCE
550	0.0001518
562	7.36e-05
574	0.0003542
586	0.0009154
598	0.0002415
610	4.6e-05
622	6.44e-05
634	0.0007452
646	0.0006371
658	0.0002116
670	0.0006118
682	0.0006164
694	0.0010074
706	0.0059961
718	0.0022655
730	0.0002852
742	0.001426
754	0.0035282
766	0.0007015
778	0.0003979
790	0.0004278
802	0.0005244
814	0.0027163
826	0.0077694
838	0.023
850	0.0085353
862	0.0007728
874	0.0002691
886	0.0001932
898	7.36e-05
910	2.3e-06
922	4.83e-05
934	7.36e-05
946	0.0001886
958	0.0005934
970	0.0012604
982	0.0001449
994	0.0001196
1006	0.0002553
1018	0.0017894
1030	0.0042665
1042	0.0005198
1054	0.0003657
1066	0.0009867
1078	0.0025737
1090	0.0026519
1102	0.000575
1114	0.0004646
1126	0.0011431
1138	0.001564
1150	0.003887
1162	0.0016169
1174	0.0022425
1186	0.0021252
1198	0.001817
1210	0.0010074
1222	0.0008533
1234	0.0007705
1246	0.0009384
1258	0.0004692
1270	0.0004968
1282	0.0005934
1294	0.0008993
1306	0.0009476
1318	0.0010396
1330	0.0003565
1342	0.0003266
1354	0.0004738
1366	0.0003381
1378	0.0003979
1390	0.0004301
1402	0.0008326
1414	0.0011063
1426	0.002668
1438	0.0021551
1450	0.0021643
1462	0.0016675
1474	0.00184
1486	0.0039606
1498	0.002139
1510	0.000621
1522	0.0002622
1534	0.0003818
1546	0.0004991
1558	0.0002944
1570	0.0007038
1582	0.0019573
1594	0.0028129
1606	0.0012581
1618	0.000644
1630	0.0005681
1642	0.0005244
1654	0.0006325
1666	0.0005359
1678	0.0003864
1690	0.0001978
1702	0.0001978
1714	0.0004301
1726	0.0003105
1738	0.0005083
1750	0.0004669
1762	0.0002921
1774	0.0007153
1786	0.0009522
1798	0.000713
1810	0.0001955
1822	9.43e-05
1834	0.0001541
1846	0.0003197
1858	0.0006693
1870	0.0008901
1882	0.0004186
1894	0.0003174
1906	0.0005405
1918	0.0010189
1930	0.0007452
1942	0.0001863
1954	6.67e-05
1966	5.75e-05
1978	3.91e-05
1990	3.68e-05
2002	4.83e-05
2014	4.14e-05
2026	3.22e-05
2038	3.45e-05
2050	5.06e-05
2062	3.68e-05
2074	5.06e-05
2086	2.76e-05
2098	5.75e-05
2110	6.21e-05
2122	4.83e-05
2134	3.45e-05
2146	3.91e-05
2158	4.83e-05
2170	5.06e-05
2182	2.3e-05
2194	4.6e-05
2206	5.29e-05
2218	5.75e-05
2230	7.82e-05
2242	5.52e-05
2254	2.3e-05
2266	4.14e-05
2278	8.05e-05
2290	7.36e-05
2302	6.67e-05
2314	9.43e-05
2326	6.67e-05
2338	8.74e-05
2350	7.36e-05
2362	7.59e-05
2374	8.28e-05
2386	8.05e-05
2398	2.99e-05
2410	5.75e-05
2422	5.29e-05
2434	5.29e-05
2446	8.05e-05
2458	5.06e-05
2470	5.98e-05
2482	3.68e-05
2494	4.6e-05
2506	5.29e-05
2518	8.05e-05
2530	5.29e-05
2542	5.98e-05
2554	8.28e-05
2566	5.06e-05
2578	4.83e-05
2590	5.52e-05
2602	7.59e-05
2614	5.29e-05
2626	5.06e-05
2638	5.52e-05
2650	6.44e-05
2662	6.9e-06
2674	3.68e-05
2686	4.83e-05
2698	1.84e-05
2710	2.53e-05
2722	3.68e-05
2734	2.53e-05
2746	2.99e-05
2758	9.2e-06
2770	1.61e-05
2782	2.3e-05
2794	1.38e-05
2806	4.6e-06
2818	6.9e-06
2830	2.53e-05
2842	4.83e-05
2854	3.91e-05
2866	7.82e-05
2878	9.89e-05
2890	5.98e-05
2902	9.89e-05
2914	6.67e-05
2926	8.74e-05
2938	0.0001932
2950	0.0002001
2962	0.0002507
2974	0.0003611
2986	0.0003542
2998	0.000414
3010	0.0006302
3022	0.001219
3034	0.0032959
3046	0.0097635
3058	0.009568
3070	0.0038111
3082	0.0025323
3094	0.0016928
3106	0.0010557
3118	0.000506
3130	0.0004071
3142	0.0002852
3154	0.0001518
3166	0.0001173
3178	8.97e-05
3190	0.0001035
3202	8.74e-05
3214	8.28e-05
3226	9.43e-05
3238	6.67e-05
3250	7.13e-05
3262	4.6e-05
3274	4.83e-05
3286	5.29e-05
3298	1.61e-05
3310	2.07e-05
3322	5.52e-05
3334	7.59e-05
3346	9.89e-05
3358	7.36e-05
3370	5.75e-05
3382	5.75e-05
3394	5.52e-05
3406	2.53e-05
3418	0.0001104
3430	8.51e-05
3442	9.66e-05
3454	0.0001012
3466	0.0001081
3478	0.0001265
3490	0.000138
3502	0.0001012
3514	0.0001633
3526	0.0001403
3538	0.0001495
3550	8.05e-05
3562	0.000138
3574	0.0001242
3586	0.0001702
3598	0.0001265
3610	0.000161
3622	0.0001518
3634	0.0001587
3646	0.0001104
3658	0.0001564
3670	0.0001679
3682	0.0001633
3694	0.0002093
3706	0.0001288
3718	0.0001173
3730	0.0001035
3742	0.0001702
3754	0.0001794
3766	0.0002369
3778	0.0002369
3790	0.0001794
3802	0.0002139
3814	0.0002346
3826	0.0001564
3838	0.0001932
