Infrared Spectrum: p-Methoxybenzamide
Formula: C 8 H 9 N O 2
CAS: 3424-93-9
State: gas
Origin: EPA-IR VAPOR PHASE LIBRARY
1/CM	ABSORBANCE
549.8	0.0017845
559.445	0.002617
569.09	0.004267
578.734	0.006067
588.379	0.006107
598.024	0.003907
607.669	0.002187
617.313	0.002527
626.958	0.002067
636.603	0.002537
646.248	0.002277
655.893	0.002697
665.537	0.002807
675.182	0.003297
684.827	0.003587
694.472	0.004317
704.116	0.003687
713.761	0.002607
723.406	0.002897
733.051	0.002497
742.695	0.003487
752.34	0.004597
761.985	0.006467
771.63	0.005187
781.275	0.003927
790.919	0.003537
800.564	0.004207
810.209	0.004517
819.854	0.004807
829.498	0.005437
839.143	0.007587
848.788	0.007027
858.433	0.004917
868.078	0.003017
877.722	0.002817
887.367	0.002657
897.012	0.002247
906.657	0.001977
916.301	0.002097
925.946	0.002437
935.591	0.0019462
945.236	0.002007
954.88	0.002237
964.525	0.002167
974.17	0.002317
983.815	0.002947
993.46	0.002617
1003.1	0.003157
1012.75	0.003727
1022.39	0.006417
1032.04	0.009507
1041.68	0.010077
1051.33	0.006217
1060.97	0.005297
1070.62	0.004547
1080.26	0.003427
1089.91	0.003277
1099.55	0.002787
1109.2	0.0018769
1118.84	0.003097
1128.49	0.0018039
1138.13	0.003067
1147.78	0.002607
1157.42	0.003627
1167.07	0.011917
1176.71	0.015687
1186.36	0.007137
1196	0.002867
1205.64	0.002507
1215.29	0.003027
1224.93	0.005347
1234.58	0.011427
1244.22	0.028457
1253.87	0.037477
1263.51	0.019997
1273.16	0.009557
1282.8	0.007507
1292.45	0.009147
1302.09	0.010977
1311.74	0.009907
1321.38	0.009777
1331.03	0.019257
1340.67	0.035617
1350.32	0.032187
1359.96	0.012827
1369.61	0.005567
1379.25	0.003917
1388.9	0.003157
1398.54	0.003067
1408.18	0.003717
1417.83	0.003377
1427.47	0.002477
1437.12	0.002797
1446.76	0.003717
1456.41	0.004307
1466.05	0.005157
1475.7	0.004857
1485.34	0.003647
1494.99	0.005597
1504.63	0.014267
1514.28	0.016767
1523.92	0.006437
1533.57	0.003177
1543.21	0.003297
1552.86	0.003707
1562.5	0.005657
1572.15	0.010717
1581.79	0.019097
1591.44	0.022007
1601.08	0.023337
1610.73	0.023457
1620.37	0.013667
1630.01	0.006117
1639.66	0.003897
1649.3	0.003457
1658.95	0.003427
1668.59	0.004327
1678.24	0.005667
1687.88	0.007187
1697.53	0.013127
1707.17	0.030097
1716.82	0.041237
1726.46	0.031377
1736.11	0.011387
1745.75	0.005667
1755.4	0.004877
1765.04	0.003567
1774.69	0.002277
1784.33	0.0013092
1793.98	0.0012934
1803.62	0.0011556
1813.27	0.00118
1822.91	0.0011592
1832.55	0.001172
1842.2	0.00106562
1851.84	0.00102572
1861.49	0.0010632
1871.13	0.0012096
1880.78	0.00106486
1890.42	0.0012468
1900.07	0.001158
1909.71	0.00105196
1919.36	0.0011008
1929	0.0011741
1938.65	0.0012233
1948.29	0.0012523
1957.94	0.00098349
1967.58	0.0011188
1977.23	0.0011052
1986.87	0.0010882
1996.52	0.00098318
2006.16	0.00101384
2015.81	0.0009511
2025.45	0.0011008
2035.1	0.00104128
2044.74	0.0012218
2054.38	0.0013145
2064.03	0.0013974
2073.67	0.0013574
2083.32	0.0011784
2092.96	0.0009424
2102.61	0.000813
2112.25	0.000719
2121.9	0.0009211
2131.54	0.000843
2141.19	0.000886
2150.83	0.000822
2160.48	0.000795
2170.12	0.000855
2179.77	0.0009075
2189.41	0.000969344
2199.06	0.000968486
2208.7	0.00105455
2218.35	0.0008923
2227.99	0.00085
2237.64	0.000807
2247.28	0.0008965
2256.92	0.0009024
2266.57	0.0010574
2276.21	0.0010898
2285.86	0.0011291
2295.5	0.000782
2305.15	0.000835
2314.79	0.0009496
2324.44	0.000658
2334.08	0.000789
2343.73	0.000613
2353.37	0.000549
2363.02	0.0010684
2372.66	0.000971131
2382.31	0.00097711
2391.95	0.000771
2401.6	0.0009462
2411.24	0.0011528
2420.89	0.0011651
2430.53	0.0009457
2440.18	0.0009109
2449.82	0.000783
2459.47	0.000857
2469.11	0.000902
2478.75	0.000816
2488.4	0.00104728
2498.04	0.000967965
2507.69	0.0008677
2517.33	0.0009336
2526.98	0.000976697
2536.62	0.000739
2546.27	0.0012142
2555.91	0.0010901
2565.56	0.0011201
2575.2	0.0011585
2584.85	0.0010476
2594.49	0.000869
2604.14	0.00100973
2613.78	0.000804
2623.43	0.00100645
2633.07	0.00105918
2642.72	0.000852
2652.36	0.00077
2662.01	0.0008954
2671.65	0.000683
2681.29	0.000625
2690.94	0.00095832
2700.58	0.000666
2710.23	0.000935
2719.87	0.00075
2729.52	0.0009227
2739.16	0.000854
2748.81	0.0008681
2758.45	0.000743
2768.1	0.000816
2777.74	0.0009634
2787.39	0.0009144
2797.03	0.001185
2806.68	0.0009327
2816.32	0.00102629
2825.97	0.0018743
2835.61	0.002277
2845.26	0.003677
2854.9	0.003077
2864.55	0.0017897
2874.19	0.0017098
2883.84	0.0012922
2893.48	0.0016014
2903.12	0.002087
2912.77	0.002687
2922.41	0.002857
2932.06	0.002237
2941.7	0.003737
2951.35	0.004577
2960.99	0.004437
2970.64	0.003397
2980.28	0.002777
2989.93	0.002497
2999.57	0.002837
3009.22	0.004437
3018.86	0.003777
3028.51	0.002407
3038.15	0.002387
3047.8	0.002497
3057.44	0.002127
3067.09	0.0017048
3076.73	0.002297
3086.38	0.002057
3096.02	0.0017211
3105.67	0.001541
3115.31	0.0013682
3124.95	0.0014596
3134.6	0.0009261
3144.24	0.0012485
3153.89	0.0009155
3163.53	0.0008934
3173.18	0.00105178
3182.82	0.0008834
3192.47	0.000855
3202.11	0.000666
3211.76	0.000813
3221.4	0.000571
3231.05	0.000638
3240.69	0.0009249
3250.34	0.000754
3259.98	0.000456
3269.63	0.000628
3279.27	0.000558
3288.92	0.0012101
3298.56	0.0010313
3308.21	0.0009427
3317.85	0.0008786
3327.49	0.000498
3337.14	0.000724
3346.78	0.000769
3356.43	0.000544
3366.07	0.000842
3375.72	0.0009203
3385.36	0.0013801
3395.01	0.0013089
3404.65	0.0017192
3414.3	0.002767
3423.94	0.003687
3433.59	0.004537
3443.23	0.003157
3452.88	0.0015963
3462.52	0.0013024
3472.17	0.000627
3481.81	0.0012399
3491.46	0.000853
3501.1	0.0013637
3510.75	0.0011527
3520.39	0.0016155
3530.04	0.002117
3539.68	0.003367
3549.32	0.003757
3558.97	0.002997
3568.61	0.0016207
3578.26	0.00100075
3587.9	0.000798
3597.55	0.000621
3607.19	0.000975324
3616.84	0.00100413
3626.48	0.000723
3636.13	0.000825
3645.77	0.000681
3655.42	0.000493
3665.06	0.000817
3674.71	0.000589
3684.35	0.0008786
3694	0.000571
3703.64	0.000856
3713.29	0.000759
3722.93	0.000262
3732.58	0.000761
3742.22	0.000518
3751.86	0.00081
3761.51	0.0009358
3771.15	0.000596
3780.8	0.00098684
3790.44	0.0009551
3800.09	0.000667
3809.73	0.000371
3819.38	0.000781
3829.02	0.000824
3838.67	0.0008977
3848.31	0.000302
3857.96	0.000773
3867.6	0.000544
3877.25	0.0011635
3886.89	0.000575
3896.54	0.0011718
3906.18	0.000537
3915.83	0.0007
3925.47	0.000718
3935.12	0.000583
3944.76	0.000585
3954.41	0.000784
3964.05	0.000362
3973.69	0.000811
3983.34	0.000577
3992.98	0.000396
