Infrared Spectrum: Phenylphosphoro dichloridite
Formula: C6 H5 Cl2 O P
CAS: 3426-89-9
State: SOLUTION (CCl4 FOR 2.0-7.5, CS2 FOR 7.5-15.8 MICRON)
Class: COBLENTZ III
Instrument: BAIRD (PRISM)
Instrument parameters: NaCl PRISM
Sampling: TRANSMISSION
Path length: 0.012 CM, AND 0.012 CM
Resolution: 2
Origin: DOW CHEMICAL COMPANY
1/CM	TRANSMITTANCE
631	0.5554
640	0.5584
649	0.5646
658	0.5757
667	0.5864
676	0.5652
685	0.3009
694	0.4318
703	0.6412
712	0.5333
721	0.6038
730	0.6484
739	0.6244
748	0.5151
757	0.0782
766	0.1626
775	0.5772
784	0.7001
793	0.7441
802	0.7558
811	0.7522
820	0.7231
829	0.7283
838	0.7256
847	0.659
856	0.578
865	0.5093
874	0.2798
883	0.3096
892	0.3699
901	0.1178
910	0.118
919	0
928	0.0357
937	0.1059
946	0.2923
955	0.4971
964	0.6216
973	0.6468
982	0.6202
991	0.5997
1000	0.5955
1009	0.5904
1018	0.5345
1027	0.2908
1036	0.6824
1045	0.7389
1054	0.7615
1063	0.7297
1072	0.5305
1081	0.7671
1090	0.7865
1099	0.7784
1108	0.7658
1117	0.7547
1126	0.7336
1135	0.7006
1144	0.6312
1153	0.4423
1162	0.0351
1171	0.1765
1180	0.1262
1189	0.0081
1198	0.1179
1207	0.4305
1216	0.5352
1225	0.6027
1234	0.6002
1243	0.6021
1252	0.6698
1261	0.7084
1270	0.7343
1279	0.7399
1288	0.7175
1297	0.7197
1306	0.7492
1315	0.7682
1324	0.7954
1333	0.8574
1342	0.8613
1351	0.8563
1360	0.8528
1369	0.8525
1378	0.8498
1387	0.8493
1396	0.8554
1405	0.8632
1414	0.868
1423	0.868
1432	0.8602
1441	0.8488
1450	0.8233
1459	0.7551
1468	0.7248
1477	0.6591
1486	0.3148
1495	0.1402
1504	0.452
1513	0.6085
1522	0.6019
1531	0.5776
1540	0.5312
1549	0.4623
1558	0.4512
1567	0.4839
1576	0.5017
1585	0.4343
1594	0.2345
1603	0.1967
1612	0.5087
1621	0.7542
1630	0.7928
1639	0.8158
1648	0.8344
1657	0.8571
1666	0.8684
1675	0.8728
1684	0.8738
1693	0.8725
1702	0.8698
1711	0.865
1720	0.86
1729	0.8548
1738	0.8708
1747	0.8848
1756	0.8846
1765	0.8849
1774	0.8846
1783	0.8762
1792	0.8797
1801	0.886
1810	0.8861
1819	0.8862
1828	0.8858
1837	0.881
1846	0.8743
1855	0.8674
1864	0.8581
1873	0.8546
1882	0.8542
1891	0.8561
1900	0.8727
1909	0.8758
1918	0.875
1927	0.8705
1936	0.8628
1945	0.8597
1954	0.8678
1963	0.8831
1972	0.8928
1981	0.8956
1990	0.8965
1999	0.8971
2008	0.8971
2017	0.8971
2026	0.8971
2035	0.897
2044	0.8968
2053	0.8967
2062	0.8965
2071	0.8964
2080	0.896
2089	0.8958
2098	0.8959
2107	0.8959
2116	0.8959
2125	0.896
2134	0.8954
2143	0.8949
2152	0.8941
2161	0.8928
2170	0.8915
2179	0.8899
2188	0.8885
2197	0.8878
2206	0.8875
2215	0.8857
2224	0.8828
2233	0.8806
2242	0.8787
2251	0.8767
2260	0.8746
2269	0.8724
2278	0.8702
2287	0.8686
2296	0.8684
2305	0.8682
2314	0.8681
2323	0.8686
2332	0.8696
2341	0.8709
2350	0.8721
2359	0.8738
2368	0.8756
2377	0.876
2386	0.8761
2395	0.8763
2404	0.8763
2413	0.8762
2422	0.8761
2431	0.876
2440	0.8759
2449	0.8759
2458	0.8758
2467	0.8758
2476	0.8757
2485	0.8757
2494	0.8757
2503	0.8758
2512	0.876
2521	0.8762
2530	0.8764
2539	0.8767
2548	0.8768
2557	0.8753
2566	0.873
2575	0.8708
2584	0.869
2593	0.8686
2602	0.8683
2611	0.8682
2620	0.8687
2629	0.8691
2638	0.8688
2647	0.8686
2656	0.8687
2665	0.8687
2674	0.8684
2683	0.8682
2692	0.8678
2701	0.8677
2710	0.8671
2719	0.8665
2728	0.866
2737	0.8655
2746	0.865
2755	0.8644
2764	0.8638
2773	0.8634
2782	0.8628
2791	0.8623
2800	0.8617
2809	0.8611
2818	0.8607
2827	0.8602
2836	0.8598
2845	0.8595
2854	0.8591
2863	0.8589
2872	0.8585
2881	0.8582
2890	0.858
2899	0.8575
2908	0.8573
2917	0.8571
2926	0.8568
2935	0.8566
2944	0.8564
2953	0.8562
2962	0.856
2971	0.8554
2980	0.8546
2989	0.8539
2998	0.8453
3007	0.8343
3016	0.8234
3025	0.8124
3034	0.8015
3043	0.7908
3052	0.7801
3061	0.7697
3070	0.7625
3079	0.7611
3088	0.7621
3097	0.7643
3106	0.7821
3115	0.805
3124	0.8303
3133	0.8453
3142	0.8565
3151	0.8654
3160	0.8742
3169	0.8801
3178	0.8843
3187	0.8882
3196	0.892
3205	0.8958
3214	0.8995
3223	0.9013
3232	0.9027
3241	0.9041
3250	0.9056
3259	0.907
3268	0.9085
3277	0.9097
3286	0.911
3295	0.9121
3304	0.9133
3313	0.9144
3322	0.9155
3331	0.9165
3340	0.9175
3349	0.9185
3358	0.9194
3367	0.9201
3376	0.9207
3385	0.9214
3394	0.922
3403	0.9227
3412	0.9234
3421	0.924
3430	0.9247
3439	0.9254
3448	0.926
3457	0.9267
3466	0.9275
3475	0.9283
3484	0.929
3493	0.9299
3502	0.9308
3511	0.9317
3520	0.9325
3529	0.9334
3538	0.9346
3547	0.936
3556	0.9374
3565	0.9382
3574	0.9386
3583	0.9388
3592	0.939
3601	0.9387
3610	0.9384
3619	0.938
3628	0.9375
3637	0.9371
3646	0.9366
3655	0.936
3664	0.9354
3673	0.9348
3682	0.9343
3691	0.9338
3700	0.9333
3709	0.9328
3718	0.9327
3727	0.9325
3736	0.9317
3745	0.9307
3754	0.9297
3763	0.9289
3772	0.9283
3781	0.9278
3790	0.9275
3799	0.9275
3808	0.9277
3817	0.9283
3826	0.9289
3835	0.9295
3844	0.9296
3853	0.9297
3862	0.9278
3871	0.9251
3880	0.9224
3889	0.9207
3898	0.9202
3907	0.9201
3916	0.92
3925	0.92
3934	0.92
3943	0.9202
3952	0.9207
3961	0.9214
3970	0.9225
3979	0.9238
3988	0.9251
3997	0.9265
