Infrared Spectrum: Glutarimide, 3-[2-(3,5-dimethyl-2-oxocyclohexyl)-2-hydroxyethyl]-, semicarbazone
Formula: C16 H26 N4 O4
CAS: 3428-71-5
State: SOLID (0.8 mg / 650 mg KBr DISC)
Class: COBLENTZ III
Instrument: PERKIN-ELMER 21 (GRATING)
Instrument parameters: FILTER CHANGE ABOUT 1070 CM^-^1
Sampling: TRANSMISSION
Resolution: 2
Origin: SOUTHERN RESEARCH INSTITUTE
1/CM	TRANSMITTANCE
639	0.5494
647.017	0.6589
655.035	0.7374
663.052	0.7309
671.069	0.7336
679.086	0.7147
687.104	0.7003
695.121	0.7086
703.138	0.7038
711.155	0.6954
719.173	0.68
727.19	0.637
735.207	0.676
743.224	0.7289
751.242	0.7094
759.259	0.6878
767.276	0.6432
775.293	0.6755
783.311	0.7403
791.328	0.7714
799.345	0.7633
807.362	0.7469
815.38	0.7278
823.397	0.7341
831.414	0.7247
839.432	0.6976
847.449	0.7412
855.466	0.7503
863.483	0.771
871.501	0.7764
879.518	0.7813
887.535	0.7308
895.552	0.7178
903.57	0.7774
911.587	0.7688
919.604	0.7252
927.621	0.7042
935.639	0.7703
943.656	0.7589
951.673	0.7124
959.69	0.7183
967.708	0.7496
975.725	0.7735
983.742	0.7647
991.759	0.7511
999.777	0.7336
1007.79	0.7197
1015.81	0.6736
1023.83	0.637
1031.85	0.6418
1039.86	0.6136
1047.88	0.6489
1055.9	0.6425
1063.91	0.5755
1071.93	0.3823
1079.95	0.3289
1087.97	0.4134
1095.98	0.4865
1104	0.5489
1112.02	0.612
1120.04	0.6467
1128.05	0.6424
1136.07	0.6108
1144.09	0.5068
1152.1	0.4204
1160.12	0.5753
1168.14	0.6322
1176.16	0.6991
1184.17	0.6906
1192.19	0.6935
1200.21	0.724
1208.23	0.7057
1216.24	0.6612
1224.26	0.5539
1232.28	0.4572
1240.29	0.4748
1248.31	0.4626
1256.33	0.3254
1264.35	0.2518
1272.36	0.3466
1280.38	0.3904
1288.4	0.4734
1296.42	0.5626
1304.43	0.6448
1312.45	0.6547
1320.47	0.6224
1328.48	0.6179
1336.5	0.6259
1344.52	0.6044
1352.54	0.5633
1360.55	0.5472
1368.57	0.5138
1376.59	0.4515
1384.61	0.4693
1392.62	0.5073
1400.64	0.5667
1408.66	0.5431
1416.67	0.4908
1424.69	0.4859
1432.71	0.4937
1440.73	0.4607
1448.74	0.379
1456.76	0.3338
1464.78	0.3705
1472.8	0.3762
1480.81	0.4198
1488.83	0.493
1496.85	0.6802
1504.86	0.7196
1512.88	0.7498
1520.9	0.7099
1528.92	0.6985
1536.93	0.6853
1544.95	0.682
1552.97	0.6709
1560.98	0.4957
1569	0.3583
1577.02	0.2954
1585.04	0.3463
1593.05	0.4998
1601.07	0.6277
1609.09	0.6187
1617.11	0.6012
1625.12	0.5538
1633.14	0.5379
1641.16	0.5001
1649.17	0.4575
1657.19	0.2756
1665.21	0.1697
1673.23	0.1179
1681.24	0.055
1689.26	0.0212
1697.28	0.0468
1705.3	0.1078
1713.31	0.1434
1721.33	0.2355
1729.35	0.2523
1737.36	0.4054
1745.38	0.4893
1753.4	0.6209
1761.42	0.6524
1769.43	0.7035
1777.45	0.7316
1785.47	0.7506
1793.49	0.7644
1801.5	0.7731
1809.52	0.7911
1817.54	0.8007
1825.55	0.8057
1833.57	0.816
1841.59	0.8255
1849.61	0.8331
1857.62	0.8385
1865.64	0.8416
1873.66	0.844
1881.68	0.8471
1889.69	0.8501
1897.71	0.8527
1905.73	0.8551
1913.74	0.8572
1921.76	0.859
1929.78	0.8604
1937.8	0.8614
1945.81	0.8612
1953.83	0.8634
1961.85	0.8656
1969.87	0.8669
1977.88	0.8661
1985.9	0.8641
1993.92	0.8663
2001.93	0.8664
2009.95	0.864
2017.97	0.8659
2025.99	0.8624
2034	0.861
2042.02	0.8615
2050.04	0.8617
2058.06	0.8714
2066.07	0.8661
2074.09	0.8699
2082.11	0.8681
2090.12	0.8663
2098.14	0.8692
2106.16	0.8708
2114.18	0.8682
2122.19	0.8683
2130.21	0.8714
2138.23	0.8717
2146.24	0.8704
2154.26	0.8687
2162.28	0.8692
2170.3	0.8672
2178.31	0.865
2186.33	0.863
2194.35	0.8609
2202.37	0.8595
2210.38	0.8609
2218.4	0.8642
2226.42	0.8671
2234.43	0.8675
2242.45	0.8667
2250.47	0.864
2258.49	0.8619
2266.5	0.868
2274.52	0.868
2282.54	0.8662
2290.56	0.8594
2298.57	0.8544
2306.59	0.8494
2314.61	0.8427
2322.62	0.8442
2330.64	0.8419
2338.66	0.8385
2346.68	0.8347
2354.69	0.8441
2362.71	0.8521
2370.73	0.8535
2378.75	0.8597
2386.76	0.8626
2394.78	0.8572
2402.8	0.8564
2410.81	0.856
2418.83	0.8554
2426.85	0.8532
2434.87	0.8456
2442.88	0.8465
2450.9	0.8498
2458.92	0.8502
2466.94	0.85
2474.95	0.8478
2482.97	0.8468
2490.99	0.8459
2499	0.8451
2507.02	0.8434
2515.04	0.8428
2523.06	0.844
2531.07	0.8417
2539.09	0.8363
2547.11	0.838
2555.13	0.8334
2563.14	0.8433
2571.16	0.8283
2579.18	0.827
2587.19	0.8326
2595.21	0.8269
2603.23	0.8267
2611.25	0.822
2619.26	0.82
2627.28	0.82
2635.3	0.8167
2643.32	0.8137
2651.33	0.8113
2659.35	0.809
2667.37	0.8069
2675.38	0.807
2683.4	0.8072
2691.42	0.7991
2699.44	0.7956
2707.45	0.7958
2715.47	0.7963
2723.49	0.7962
2731.5	0.7939
2739.52	0.7897
2747.54	0.789
2755.56	0.7894
2763.57	0.7756
2771.59	0.7571
2779.61	0.7357
2787.63	0.7173
2795.64	0.6983
2803.66	0.6732
2811.68	0.6454
2819.69	0.6055
2827.71	0.5864
2835.73	0.582
2843.75	0.5856
2851.76	0.5736
2859.78	0.5716
2867.8	0.5437
2875.82	0.5216
2883.83	0.5081
2891.85	0.4869
2899.87	0.4377
2907.88	0.4046
2915.9	0.4214
2923.92	0.4503
2931.94	0.4781
2939.95	0.494
2947.97	0.5118
2955.99	0.5447
2964.01	0.6023
2972.02	0.6349
2980.04	0.6401
2988.06	0.6397
2996.07	0.6295
3004.09	0.6286
3012.11	0.6145
3020.13	0.6064
3028.14	0.6
3036.16	0.5924
3044.18	0.583
3052.2	0.5755
3060.21	0.5677
3068.23	0.5599
3076.25	0.5514
3084.26	0.5418
3092.28	0.5306
3100.3	0.5181
3108.32	0.5043
3116.33	0.4869
3124.35	0.4723
3132.37	0.4592
3140.39	0.441
3148.4	0.4201
3156.42	0.4014
3164.44	0.395
3172.45	0.3791
3180.47	0.3708
3188.49	0.3744
3196.51	0.3685
3204.52	0.3676
3212.54	0.3608
3220.56	0.3601
3228.58	0.356
3236.59	0.3599
3244.61	0.3735
3252.63	0.3902
3260.64	0.4063
3268.66	0.4294
3276.68	0.4459
3284.7	0.4694
3292.71	0.483
3300.73	0.4933
3308.75	0.4982
3316.76	0.5021
3324.78	0.5051
3332.8	0.5074
3340.82	0.5094
3348.83	0.5214
3356.85	0.5255
3364.87	0.5238
3372.89	0.521
3380.9	0.5181
3388.92	0.5153
3396.94	0.4989
3404.95	0.4897
3412.97	0.4594
3420.99	0.3946
3429.01	0.3329
3437.02	0.304
3445.04	0.3419
3453.06	0.4083
3461.08	0.4258
3469.09	0.4376
3477.11	0.4424
3485.13	0.4403
3493.14	0.4555
3501.16	0.4685
3509.18	0.4693
3517.2	0.4746
3525.21	0.4874
3533.23	0.5079
3541.25	0.5346
3549.27	0.5571
3557.28	0.5975
3565.3	0.6373
3573.32	0.6598
3581.33	0.6885
3589.35	0.7173
3597.37	0.7455
3605.39	0.7654
3613.4	0.7732
3621.42	0.7882
3629.44	0.8025
3637.46	0.8041
3645.47	0.8194
3653.49	0.8053
3661.51	0.8067
3669.52	0.8114
3677.54	0.819
3685.56	0.8236
3693.58	0.8201
3701.59	0.8163
3709.61	0.8243
3717.63	0.8249
3725.65	0.8211
3733.66	0.8231
3741.68	0.8271
3749.7	0.8339
3757.71	0.8371
3765.73	0.8363
3773.75	0.8331
3781.77	0.8295
3789.78	0.8262
3797.8	0.8267
3805.82	0.8215
