Infrared Spectrum: 3-(2-AMINOETHYL)INDOLE HYDROCHLORIDE
Formula: C10 H12 N2  * H Cl
CAS: 343-94-2
State: SOLID (MINERAL OIL MULL)
Class: COBLENTZ
Instrument: Not specified, most likely a prism, grating, or hybrid spectrometer.
Sampling: TRANSMISSION
Resolution: 4
Origin: WYANDOTTE CHEMICALS CORP., WYANDOTTE, MICHIGAN, USA
MICROMETERS	TRANSMITTANCE
2.012	0.509
2.04915	0.501
2.0863	0.498
2.12346	0.496
2.16061	0.498
2.19776	0.5
2.23491	0.501
2.27206	0.504
2.30922	0.512
2.34637	0.523
2.38352	0.531
2.42067	0.552
2.45782	0.557
2.49497	0.566
2.53213	0.576
2.56928	0.585
2.60643	0.599
2.64358	0.609
2.68073	0.619
2.71789	0.633
2.75504	0.643
2.79219	0.655
2.82934	0.654
2.86649	0.665
2.90365	0.668
2.9408	0.661
2.97795	0.638
3.0151	0.456
3.05225	0.214
3.08941	0.314
3.12656	0.381
3.16371	0.419
3.20086	0.367
3.23801	0.253
3.27516	0.161
3.31232	0.087
3.34947	0.029
3.38662	0.015
3.42377	0.021
3.46092	0.018
3.49808	0.02
3.53523	0.095
3.57238	0.247
3.60953	0.344
3.64668	0.372
3.68384	0.352
3.72099	0.361
3.75814	0.417
3.79529	0.454
3.83244	0.442
3.8696	0.44
3.90675	0.482
3.9439	0.509
3.98105	0.5
4.0182	0.538
4.05535	0.559
4.09251	0.556
4.12966	0.537
4.16681	0.596
4.20396	0.605
4.24111	0.591
4.27827	0.596
4.31542	0.623
4.35257	0.655
4.38972	0.669
4.42687	0.682
4.46403	0.682
4.50118	0.682
4.53833	0.699
4.57548	0.7
4.61263	0.69
4.64979	0.7
4.68694	0.71
4.72409	0.727
4.76124	0.741
4.79839	0.739
4.83554	0.738
4.8727	0.742
4.90985	0.741
4.947	0.732
4.98415	0.721
5.0213	0.704
5.05846	0.679
5.09561	0.665
5.13276	0.694
5.16991	0.721
5.20706	0.73
5.24422	0.755
5.28137	0.744
5.31852	0.742
5.35567	0.769
5.39282	0.788
5.42998	0.788
5.46713	0.805
5.50428	0.805
5.54143	0.805
5.57858	0.799
5.61573	0.761
5.65289	0.799
5.69004	0.806
5.72719	0.813
5.76434	0.822
5.80149	0.822
5.83865	0.799
5.8758	0.808
5.91295	0.799
5.9501	0.783
5.98725	0.791
6.02441	0.8
6.06156	0.742
6.09871	0.789
6.13586	0.683
6.17301	0.395
6.21017	0.503
6.24732	0.451
6.28447	0.434
6.32162	0.584
6.35877	0.619
6.39592	0.618
6.43308	0.641
6.47023	0.69
6.50738	0.708
6.54453	0.666
6.58168	0.549
6.61884	0.246
6.65599	0.434
6.69314	0.501
6.73029	0.439
6.76744	0.191
6.8046	0.084
6.84175	0.13
6.8789	0.218
6.91605	0.319
6.9532	0.261
6.99036	0.353
7.02751	0.556
7.06466	0.647
7.10181	0.66
7.13896	0.665
7.17611	0.563
7.21327	0.261
7.25042	0.211
7.28757	0.408
7.32472	0.534
7.36187	0.409
7.39903	0.429
7.43618	0.398
7.47333	0.448
7.51048	0.57
7.54763	0.624
7.58479	0.605
7.62194	0.587
7.65909	0.623
7.69624	0.629
7.73339	0.632
7.77055	0.651
7.8077	0.686
7.84485	0.704
7.882	0.646
7.91915	0.598
7.9563	0.691
7.99346	0.708
8.03061	0.577
8.06776	0.327
8.10491	0.551
8.14206	0.59
8.17922	0.619
8.21637	0.657
8.25352	0.677
8.29067	0.707
8.32782	0.711
8.36498	0.733
8.40213	0.727
8.43928	0.714
8.47643	0.73
8.51358	0.739
8.55074	0.758
8.58789	0.785
8.62504	0.786
8.66219	0.775
8.69934	0.806
8.73649	0.838
8.77365	0.861
8.8108	0.811
8.84795	0.708
8.8851	0.73
8.92225	0.75
8.95941	0.665
8.99656	0.459
9.03371	0.317
9.07086	0.336
9.10801	0.39
9.14517	0.496
9.18232	0.587
9.21947	0.632
9.25662	0.661
9.29377	0.68
9.33093	0.704
9.36808	0.716
9.40523	0.683
9.44238	0.685
9.47953	0.732
9.51668	0.744
9.55384	0.752
9.59099	0.75
9.62814	0.752
9.66529	0.757
9.70244	0.758
9.7396	0.755
9.77675	0.725
9.8139	0.596
9.85105	0.545
9.8882	0.495
9.92536	0.686
9.96251	0.747
9.99966	0.788
10.0368	0.797
10.074	0.802
10.1111	0.813
10.1483	0.816
10.1854	0.816
10.2226	0.814
10.2597	0.811
10.2969	0.797
10.334	0.805
10.3712	0.814
10.4083	0.825
10.4455	0.823
10.4826	0.823
10.5198	0.803
10.5569	0.73
10.5941	0.774
10.6312	0.803
10.6684	0.741
10.7055	0.781
10.7427	0.802
10.7798	0.844
10.817	0.861
10.8542	0.867
10.8913	0.875
10.9285	0.892
10.9656	0.903
11.0028	0.909
11.0399	0.903
11.0771	0.914
11.1142	0.914
11.1514	0.908
11.1885	0.847
11.2257	0.685
11.2628	0.587
11.3	0.71
11.3371	0.816
11.3743	0.859
11.4114	0.771
11.4486	0.761
11.4857	0.838
11.5229	0.878
11.56	0.9
11.5972	0.912
11.6343	0.908
11.6715	0.898
11.7086	0.853
11.7458	0.752
11.783	0.73
11.8201	0.783
11.8573	0.838
11.8944	0.872
11.9316	0.898
11.9687	0.908
12.0059	0.914
12.043	0.914
12.0802	0.901
12.1173	0.884
12.1545	0.83
12.1916	0.714
12.2288	0.52
12.2659	0.51
12.3031	0.707
12.3402	0.834
12.3774	0.886
12.4145	0.908
12.4517	0.922
12.4888	0.926
12.526	0.931
12.5631	0.939
12.6003	0.929
12.6374	0.926
12.6746	0.929
12.7117	0.919
12.7489	0.92
12.7861	0.911
12.8232	0.906
12.8604	0.901
12.8975	0.889
12.9347	0.861
12.9718	0.778
13.009	0.615
13.0461	0.637
13.0833	0.805
13.1204	0.878
13.1576	0.838
13.1947	0.688
13.2319	0.644
13.269	0.651
13.3062	0.428
13.3433	0.211
13.3805	0.179
13.4176	0.165
13.4548	0.127
13.4919	0.228
13.5291	0.376
13.5662	0.507
13.6034	0.591
13.6405	0.646
13.6777	0.671
13.7148	0.7
13.752	0.713
13.7892	0.718
13.8263	0.725
13.8635	0.725
13.9006	0.742
13.9378	0.767
13.9749	0.799
14.0121	0.82
14.0492	0.83
14.0864	0.845
14.1235	0.852
14.1607	0.861
14.1978	0.861
14.235	0.855
14.2721	0.853
14.3093	0.845
14.3464	0.813
14.3836	0.786
14.4207	0.739
14.4579	0.738
14.495	0.755
14.5322	0.772
14.5693	0.757
14.6065	0.735
14.6436	0.699
14.6808	0.647
14.718	0.601
14.7551	0.562
14.7923	0.521
14.8294	0.507
14.8666	0.503
14.9037	0.509
14.9409	0.532
14.978	0.546
15.0152	0.534
15.0523	0.526
15.0895	0.552
15.1266	0.584
15.1638	0.605
15.2009	0.651
15.2381	0.672
15.2752	0.686
15.3124	0.694
15.3495	0.705
15.3867	0.707
15.4238	0.713
15.461	0.707
15.4981	0.699
15.5353	0.707
15.5724	0.707
15.6096	0.702
15.6467	0.691
15.6839	0.672
15.7211	0.66
15.7582	0.646
15.7954	0.651
15.8325	0.633
15.8697	0.619
15.9068	0.607
15.944	0.593
15.9811	0.568
