Infrared Spectrum: 3-ANTHRANILOYLALANINE
Formula: C10 H12 N2 O3
CAS: 343-65-7
State: SOLID (KBr PELLET)
Class: COBLENTZ
Instrument: Not specified, most likely a grating spectrometer.
Sampling: TRANSMISSION
Resolution: 4
Origin: CITRUS EXPERIMENT STATION, UNIVERSITY OF FLORIDA (G. EDWARDS)
MICROMETERS	TRANSMITTANCE
2.012	0.648
2.04816	0.641
2.08432	0.66
2.12049	0.66
2.15665	0.666
2.19281	0.675
2.22897	0.688
2.26513	0.693
2.3013	0.695
2.33746	0.711
2.37362	0.712
2.40978	0.719
2.44594	0.731
2.48211	0.739
2.51827	0.747
2.55443	0.768
2.59059	0.768
2.62675	0.781
2.66292	0.791
2.69908	0.788
2.73524	0.785
2.7714	0.772
2.80756	0.76
2.84373	0.719
2.87989	0.526
2.91605	0.419
2.95221	0.663
2.98837	0.527
3.02454	0.246
3.0607	0.256
3.09686	0.295
3.13302	0.278
3.16918	0.321
3.20534	0.387
3.24151	0.392
3.27767	0.384
3.31383	0.345
3.34999	0.292
3.38615	0.262
3.42232	0.299
3.45848	0.318
3.49464	0.32
3.5308	0.318
3.56696	0.349
3.60313	0.365
3.63929	0.364
3.67545	0.339
3.71161	0.382
3.74777	0.381
3.78394	0.359
3.8201	0.365
3.85626	0.385
3.89242	0.388
3.92858	0.391
3.96475	0.411
4.00091	0.451
4.03707	0.456
4.07323	0.473
4.10939	0.51
4.14556	0.536
4.18172	0.566
4.21788	0.629
4.25404	0.641
4.2902	0.65
4.32637	0.66
4.36253	0.663
4.39869	0.665
4.43485	0.689
4.47101	0.701
4.50718	0.724
4.54334	0.74
4.5795	0.75
4.61566	0.76
4.65182	0.776
4.68799	0.772
4.72415	0.786
4.76031	0.789
4.79647	0.786
4.83263	0.771
4.8688	0.771
4.90496	0.781
4.94112	0.781
4.97728	0.762
5.01344	0.756
5.04961	0.752
5.08577	0.754
5.12193	0.765
5.15809	0.791
5.19425	0.81
5.23042	0.83
5.26658	0.836
5.30274	0.836
5.3389	0.862
5.37506	0.873
5.41122	0.882
5.44739	0.871
5.48355	0.881
5.51971	0.87
5.55587	0.856
5.59203	0.849
5.6282	0.845
5.66436	0.839
5.70052	0.803
5.73668	0.782
5.77284	0.762
5.80901	0.717
5.84517	0.661
5.88133	0.602
5.91749	0.51
5.95365	0.442
5.98982	0.318
6.02598	0.123
6.06214	0.074
6.0983	0.107
6.13446	0.07
6.17063	0.043
6.20679	0.031
6.24295	0.033
6.27911	0.01
6.31527	0.013
6.35144	0.032
6.3876	0.073
6.42376	0.084
6.45992	0.117
6.49608	0.074
6.53225	0.07
6.56841	0.077
6.60457	0.105
6.64073	0.14
6.67689	0.147
6.71306	0.141
6.74922	0.23
6.78538	0.333
6.82154	0.361
6.8577	0.247
6.89387	0.312
6.93003	0.4
6.96619	0.45
7.00235	0.425
7.03851	0.387
7.07468	0.353
7.11084	0.163
7.147	0.059
7.18316	0.101
7.21932	0.206
7.25549	0.316
7.29165	0.385
7.32781	0.46
7.36397	0.442
7.40013	0.301
7.43629	0.08
7.47246	0.079
7.50862	0.176
7.54478	0.223
7.58094	0.332
7.6171	0.403
7.65327	0.429
7.68943	0.452
7.72559	0.469
7.76175	0.53
7.79791	0.553
7.83408	0.536
7.87024	0.487
7.9064	0.404
7.94256	0.251
7.97872	0.118
8.01489	0.103
8.05105	0.194
8.08721	0.332
8.12337	0.419
8.15953	0.462
8.1957	0.452
8.23186	0.356
8.26802	0.182
8.30418	0.131
8.34034	0.23
8.37651	0.35
8.41267	0.425
8.44883	0.48
8.48499	0.52
8.52115	0.497
8.55732	0.304
8.59348	0.2
8.62964	0.216
8.6658	0.262
8.70196	0.357
8.73813	0.417
8.77429	0.431
8.81045	0.393
8.84661	0.332
8.88277	0.356
8.91894	0.429
8.9551	0.471
8.99126	0.51
9.02742	0.538
9.06358	0.55
9.09975	0.553
9.13591	0.554
9.17207	0.521
9.20823	0.44
9.24439	0.298
9.28056	0.293
9.31672	0.359
9.35288	0.425
9.38904	0.483
9.4252	0.522
9.46137	0.541
9.49753	0.561
9.53369	0.576
9.56985	0.602
9.60601	0.614
9.64217	0.62
9.67834	0.596
9.7145	0.537
9.75066	0.51
9.78682	0.565
9.82298	0.607
9.85915	0.634
9.89531	0.644
9.93147	0.646
9.96763	0.613
10.0038	0.592
10.04	0.618
10.0761	0.653
10.1123	0.672
10.1484	0.685
10.1846	0.705
10.2208	0.713
10.2569	0.711
10.2931	0.693
10.3293	0.671
10.3654	0.561
10.4016	0.374
10.4377	0.268
10.4739	0.315
10.5101	0.416
10.5462	0.532
10.5824	0.566
10.6185	0.503
10.6547	0.571
10.6909	0.632
10.727	0.644
10.7632	0.606
10.7994	0.549
10.8355	0.536
10.8717	0.573
10.9078	0.621
10.944	0.646
10.9802	0.665
11.0163	0.673
11.0525	0.672
11.0887	0.676
11.1248	0.69
11.161	0.708
11.1971	0.719
11.2333	0.723
11.2695	0.724
11.3056	0.711
11.3418	0.682
11.3779	0.665
11.4141	0.701
11.4503	0.722
11.4864	0.729
11.5226	0.735
11.5588	0.735
11.5949	0.73
11.6311	0.742
11.6672	0.751
11.7034	0.756
11.7396	0.739
11.7757	0.713
11.8119	0.682
11.8481	0.704
11.8842	0.725
11.9204	0.73
11.9565	0.741
11.9927	0.756
12.0289	0.76
12.065	0.763
12.1012	0.758
12.1374	0.752
12.1735	0.76
12.2097	0.762
12.2458	0.768
12.282	0.762
12.3182	0.757
12.3543	0.746
12.3905	0.737
12.4266	0.71
12.4628	0.699
12.499	0.696
12.5351	0.717
12.5713	0.73
12.6075	0.733
12.6436	0.736
12.6798	0.736
12.7159	0.736
12.7521	0.735
12.7883	0.73
12.8244	0.724
12.8606	0.724
12.8968	0.719
12.9329	0.711
12.9691	0.688
13.0052	0.663
13.0414	0.631
13.0776	0.59
13.1137	0.512
13.1499	0.434
13.186	0.326
13.2222	0.252
13.2584	0.227
13.2945	0.195
13.3307	0.192
13.3669	0.223
13.403	0.3
13.4392	0.378
13.4753	0.439
13.5115	0.462
13.5477	0.478
13.5838	0.521
13.62	0.566
13.6562	0.609
13.6923	0.638
13.7285	0.653
13.7646	0.666
13.8008	0.671
13.837	0.66
13.8731	0.664
13.9093	0.661
13.9454	0.652
13.9816	0.641
14.0178	0.644
14.0539	0.641
14.0901	0.638
14.1263	0.637
14.1624	0.64
14.1986	0.642
14.2347	0.647
14.2709	0.65
14.3071	0.652
14.3432	0.65
14.3794	0.652
14.4156	0.641
14.4517	0.646
14.4879	0.636
14.524	0.624
14.5602	0.617
14.5964	0.596
14.6325	0.57
14.6687	0.549
14.7049	0.52
14.741	0.509
14.7772	0.501
14.8133	0.421
14.8495	0.422
14.8857	0.421
14.9218	0.411
14.958	0.427
14.9941	0.478
