Infrared Spectrum: Phenothiazine, 4-(trifluoromethyl)-
Formula: C13 H8 F3 N S
CAS: 343-21-5
State: SOLID (OIL MULL)
Class: COBLENTZ III
Instrument: PERKIN-ELMER 21 (GRATING)
Instrument parameters: NaCl PRISM
Sampling: TRANSMISSION
Resolution: 2
Origin: SMITH, KLINE & FRENCH LABS.
1/CM	TRANSMITTANCE
658	0.686
667	0.669
676	0.637
685	0.7065
694	0.5736
703	0.8036
712	0.6997
721	0.321
730	0.7854
739	0.724
748	0.218
757	0.5782
766	0.8341
775	0.7698
784	0.5826
793	0.4629
802	0.8011
811	0.8351
820	0.7674
829	0.8466
838	0.8429
847	0.823
856	0.719
865	0.7723
874	0.8214
883	0.8329
892	0.8275
901	0.821
910	0.7947
919	0.7498
928	0.5429
937	0.6272
946	0.806
955	0.8107
964	0.7167
973	0.8001
982	0.8009
991	0.7959
1000	0.7884
1009	0.775
1018	0.7489
1027	0.6891
1036	0.6848
1045	0.7029
1054	0.606
1063	0.6855
1072	0.5965
1081	0.5476
1090	0.3149
1099	0.1928
1108	0.1582
1117	0.1687
1126	0.2075
1135	0.2292
1144	0.3743
1153	0.4031
1162	0.3566
1171	0.2276
1180	0.5347
1189	0.3525
1198	0.329
1207	0.6087
1216	0.7559
1225	0.745
1234	0.5917
1243	0.6843
1252	0.6603
1261	0.616
1270	0.5884
1279	0.5904
1288	0.4556
1297	0.3104
1306	0.2024
1315	0.1862
1324	0.1327
1333	0.3792
1342	0.7113
1351	0.7803
1360	0.7399
1369	0.6594
1378	0.5169
1387	0.573
1396	0.5078
1405	0.4466
1414	0.6189
1423	0.7745
1432	0.6167
1441	0.349
1450	0.2024
1459	0.2793
1468	0.2506
1477	0.46
1486	0.3145
1495	0.6701
1504	0.7176
1513	0.7544
1522	0.8173
1531	0.8358
1540	0.8381
1549	0.8242
1558	0.7901
1567	0.7115
1576	0.6042
1585	0.7778
1594	0.695
1603	0.6116
1612	0.7653
1621	0.8618
1630	0.8674
1639	0.8748
1648	0.873
1657	0.8726
1666	0.86
1675	0.8444
1684	0.8376
1693	0.8513
1702	0.864
1711	0.8566
1720	0.858
1729	0.8566
1738	0.8467
1747	0.8399
1756	0.8375
1765	0.8284
1774	0.8177
1783	0.8025
1792	0.8131
1801	0.8266
1810	0.8261
1819	0.824
1828	0.8219
1837	0.817
1846	0.8054
1855	0.8035
1864	0.8119
1873	0.8076
1882	0.7965
1891	0.7881
1900	0.7889
1909	0.7966
1918	0.7911
1927	0.7814
1936	0.7892
1945	0.8004
1954	0.7995
1963	0.7987
1972	0.7968
1981	0.7934
1990	0.7904
1999	0.7889
2008	0.7874
2017	0.7857
2026	0.7841
2035	0.7825
2044	0.7814
2053	0.7806
2062	0.7801
2071	0.7799
2080	0.7796
2089	0.7784
2098	0.777
2107	0.7765
2116	0.769
2125	0.7691
2134	0.7687
2143	0.7678
2152	0.765
2161	0.7614
2170	0.7581
2179	0.755
2188	0.7525
2197	0.7504
2206	0.7483
2215	0.7467
2224	0.7458
2233	0.7448
2242	0.7444
2251	0.7443
2260	0.742
2269	0.7368
2278	0.7303
2287	0.7256
2296	0.7247
2305	0.7232
2314	0.722
2323	0.7218
2332	0.7215
2341	0.7213
2350	0.7209
2359	0.7206
2368	0.7202
2377	0.7186
2386	0.7165
2395	0.7139
2404	0.7113
2413	0.7093
2422	0.708
2431	0.7068
2440	0.7047
2449	0.7022
2458	0.7002
2467	0.6993
2476	0.6984
2485	0.6976
2494	0.6966
2503	0.6945
2512	0.6923
2521	0.6901
2530	0.6876
2539	0.6862
2548	0.6862
2557	0.6862
2566	0.6856
2575	0.6848
2584	0.6771
2593	0.6694
2602	0.6684
2611	0.6675
2620	0.6667
2629	0.6669
2638	0.6672
2647	0.6674
2656	0.6666
2665	0.6648
2674	0.66
2683	0.658
2692	0.657
2701	0.6563
2710	0.6559
2719	0.6591
2728	0.6624
2737	0.6627
2746	0.6624
2755	0.662
2764	0.66
2773	0.6574
2782	0.6509
2791	0.6306
2800	0.5949
2809	0.5582
2818	0.5123
2827	0.4236
2836	0.2686
2845	0.2075
2854	0.2219
2863	0.2316
2872	0.1961
2881	0.1413
2890	0.1133
2899	0.1069
2908	0.1068
2917	0.1106
2926	0.1159
2935	0.1422
2944	0.1903
2953	0.2382
2962	0.2857
2971	0.333
2980	0.381
2989	0.4255
2998	0.4473
3007	0.4601
3016	0.4694
3025	0.4759
3034	0.48
3043	0.4835
3052	0.487
3061	0.4911
3070	0.4954
3079	0.5
3088	0.5049
3097	0.5099
3106	0.5135
3115	0.513
3124	0.5109
3133	0.5089
3142	0.5075
3151	0.5063
3160	0.5058
3169	0.5055
3178	0.5052
3187	0.5045
3196	0.5032
3205	0.5019
3214	0.5002
3223	0.4985
3232	0.4941
3241	0.489
3250	0.4835
3259	0.4776
3268	0.4731
3277	0.4699
3286	0.4651
3295	0.4373
3304	0.4096
3313	0.382
3322	0.3715
3331	0.371
3340	0.371
3349	0.3711
3358	0.3716
3367	0.3955
3376	0.4387
3385	0.4816
3394	0.516
3403	0.517
3412	0.5171
3421	0.5168
3430	0.5164
3439	0.5116
3448	0.5076
3457	0.5062
3466	0.5048
3475	0.5041
3484	0.5036
3493	0.5031
3502	0.5021
3511	0.4996
3520	0.4971
3529	0.4945
3538	0.4919
3547	0.4893
3556	0.4866
3565	0.4839
3574	0.4813
3583	0.479
3592	0.4783
3601	0.4777
3610	0.477
3619	0.4763
3628	0.4751
3637	0.4736
3646	0.472
3655	0.4704
3664	0.4689
3673	0.4684
3682	0.4681
3691	0.4678
3700	0.4675
3709	0.4673
3718	0.4671
3727	0.467
3736	0.4669
3745	0.4667
3754	0.4656
3763	0.4634
3772	0.4612
3781	0.4586
3790	0.4548
3799	0.451
3808	0.4485
3817	0.4472
3826	0.446
3835	0.4447
3844	0.4434
3853	0.4422
3862	0.4416
3871	0.4415
3880	0.4415
3889	0.4414
3898	0.4414
3907	0.4414
3916	0.4413
3925	0.4404
3934	0.4388
3943	0.4373
3952	0.4357
3961	0.4341
3970	0.4324
3979	0.4307
3988	0.429
3997	0.4272
