Infrared Spectrum: 2-Amino-5-bromo-3-methylpyridine
Formula: C 6 H 7 Br N 2
CAS: 3430-21-5
State: gas
Origin: EPA-IR VAPOR PHASE LIBRARY
1/CM	ABSORBANCE
549.8	0.01207
559.445	0.00765
569.09	0.00703
578.734	0.00729
588.379	0.01036
598.024	0.01187
607.669	0.01367
617.313	0.01525
626.958	0.01609
636.603	0.01388
646.248	0.0093
655.893	0.00738
665.537	0.0079
675.182	0.00675
684.827	0.00672
694.472	0.00673
704.116	0.00848
713.761	0.00872
723.406	0.00968
733.051	0.01163
742.695	0.01542
752.34	0.01757
761.985	0.01456
771.63	0.00979
781.275	0.00584
790.919	0.0064
800.564	0.00611
810.209	0.00539
819.854	0.00769
829.498	0.00525
839.143	0.00588
848.788	0.00537
858.433	0.00501
868.078	0.00531
877.722	0.00801
887.367	0.0161
897.012	0.02969
906.657	0.02557
916.301	0.01085
925.946	0.00745
935.591	0.0059
945.236	0.00487
954.88	0.00367
964.525	0.00449
974.17	0.00385
983.815	0.00647
993.46	0.0093
1003.1	0.00766
1012.75	0.00436
1022.39	0.0045
1032.04	0.00821
1041.68	0.01053
1051.33	0.01112
1060.97	0.01039
1070.62	0.00511
1080.26	0.00451
1089.91	0.00353
1099.55	0.00673
1109.2	0.0047
1118.84	0.00224
1128.49	0.0038
1138.13	0.00287
1147.78	0.00256
1157.42	0.0012824
1167.07	0.00444
1176.71	0.0072
1186.36	0.01031
1196	0.00973
1205.64	0.00618
1215.29	0.00405
1224.93	0.00397
1234.58	0.00927
1244.22	0.01259
1253.87	0.00984
1263.51	0.00511
1273.16	0.00819
1282.8	0.01014
1292.45	0.01225
1302.09	0.01762
1311.74	0.01441
1321.38	0.00522
1331.03	0.00312
1340.67	0.00294
1350.32	0.00295
1359.96	0.0034
1369.61	0.00437
1379.25	0.00767
1388.9	0.01391
1398.54	0.0227
1408.18	0.02101
1417.83	0.02818
1427.47	0.06961
1437.12	0.09772
1446.76	0.09689
1456.41	0.08153
1466.05	0.06116
1475.7	0.04146
1485.34	0.01662
1494.99	0.00872
1504.63	0.00669
1514.28	0.00622
1523.92	0.00712
1533.57	0.00717
1543.21	0.00838
1552.86	0.0137
1562.5	0.02117
1572.15	0.02263
1581.79	0.01888
1591.44	0.02449
1601.08	0.05824
1610.73	0.08594
1620.37	0.05504
1630.01	0.022
1639.66	0.01059
1649.3	0.0066
1658.95	0.00502
1668.59	0.00373
1678.24	0.00267
1687.88	0.00243
1697.53	0.00206
1707.17	0.0025
1716.82	0.00236
1726.46	0.00192
1736.11	0.00178
1745.75	0.00168
1755.4	0.00179
1765.04	0.00187
1774.69	0.00204
1784.33	0.00236
1793.98	0.00247
1803.62	0.00288
1813.27	0.0027
1822.91	0.0028
1832.55	0.00251
1842.2	0.00202
1851.84	0.0014512
1861.49	0.0010181
1871.13	0.0010731
1880.78	0.0009812
1890.42	0.0013487
1900.07	0.001279
1909.71	0.00167
1919.36	0.00174
1929	0.00153
1938.65	0.0014979
1948.29	0.00183
1957.94	0.0014545
1967.58	0.0009998
1977.23	0.0014566
1986.87	0.0011036
1996.52	0.0012432
2006.16	0.0009911
2015.81	0.0012778
2025.45	0.0010396
2035.1	0.0009731
2044.74	0.0010159
2054.38	0.00157
2064.03	0.0013561
2073.67	0.0010097
2083.32	0.0012272
2092.96	0.0013437
2102.61	0.0007678
2112.25	0.0011831
2121.9	0.0009862
2131.54	0.0012733
2141.19	0.0011203
2150.83	0.0012657
2160.48	0.0014348
2170.12	0.0013926
2179.77	0.00152
2189.41	0.00192
2199.06	0.0014721
2208.7	0.0014671
2218.35	0.0012379
2227.99	0.0014942
2237.64	0.0013557
2247.28	0.0009698
2256.92	0.0011653
2266.57	0.0011624
2276.21	0.0011027
2285.86	0.0014244
2295.5	0.0012861
2305.15	0.0014046
2314.79	0.0012
2324.44	0.0014728
2334.08	0.0014017
2343.73	0.0012278
2353.37	0.001025
2363.02	0.0014989
2372.66	0.0012587
2382.31	0.0009892
2391.95	0.0012885
2401.6	0.0007737
2411.24	0.000833
2420.89	0.0006356
2430.53	0.0009168
2440.18	0.0011465
2449.82	0.0008926
2459.47	0.0011649
2469.11	0.0011198
2478.75	0.0011452
2488.4	0.0015
2498.04	0.0012616
2507.69	0.0011502
2517.33	0.000957
2526.98	0.0011073
2536.62	0.0013203
2546.27	0.0014308
2555.91	0.0013939
2565.56	0.0013794
2575.2	0.0012237
2584.85	0.0013929
2594.49	0.0011466
2604.14	0.0012677
2613.78	0.0009262
2623.43	0.0014364
2633.07	0.0009576
2642.72	0.0012156
2652.36	0.0008156
2662.01	0.0010331
2671.65	0.0012285
2681.29	0.0010895
2690.94	0.0012715
2700.58	0.0012499
2710.23	0.0009054
2719.87	0.0011652
2729.52	0.0009428
2739.16	0.00157
2748.81	0.0012921
2758.45	0.00162
2768.1	0.0007342
2777.74	0.0012634
2787.39	0.00152
2797.03	0.0014195
2806.68	0.00233
2816.32	0.00186
2825.97	0.00179
2835.61	0.00258
2845.26	0.00224
2854.9	0.00379
2864.55	0.00559
2874.19	0.00639
2883.84	0.00689
2893.48	0.00573
2903.12	0.00629
2912.77	0.00873
2922.41	0.01054
2932.06	0.01033
2941.7	0.01007
2951.35	0.00816
2960.99	0.00705
2970.64	0.00564
2980.28	0.00653
2989.93	0.00546
2999.57	0.00387
3009.22	0.00263
3018.86	0.00229
3028.51	0.00265
3038.15	0.0042
3047.8	0.00516
3057.44	0.00728
3067.09	0.00581
3076.73	0.00247
3086.38	0.00184
3096.02	0.00185
3105.67	0.00188
3115.31	0.0014368
3124.95	0.00176
3134.6	0.00195
3144.24	0.0006403
3153.89	0.00162
3163.53	0.00215
3173.18	0.00203
3182.82	0.0009301
3192.47	0.0011962
3202.11	0.0012694
3211.76	0.0010276
3221.4	0.0010003
3231.05	0.0009462
3240.69	0.0009048
3250.34	0.0004512
3259.98	0.0011045
3269.63	0.001199
3279.27	0.0013909
3288.92	0.0014273
3298.56	0.0007026
3308.21	0.0014724
3317.85	0.0008957
3327.49	0.0006369
3337.14	0.00155
3346.78	0.00156
3356.43	0.0012419
3366.07	0.0014547
3375.72	0.00215
3385.36	0.00198
3395.01	0.00347
3404.65	0.0101
3414.3	0.01781
3423.94	0.01505
3433.59	0.00767
3443.23	0.00405
3452.88	0.0014252
3462.52	0.00185
3472.17	0.00158
3481.81	0.00218
3491.46	0.00407
3501.1	0.00709
3510.75	0.01007
3520.39	0.0102
3530.04	0.00673
3539.68	0.00479
3549.32	0.00224
3558.97	0.0013133
3568.61	0.001491
3578.26	0.0007097
3587.9	0.00055986
3597.55	0.0007931
3607.19	0.000263
3616.84	0.0014112
3626.48	0.0008752
3636.13	0.000314
3645.77	0.0004623
3655.42	0.000315
3665.06	0.0008241
3674.71	0.000204
3684.35	0.0009474
3694	0.0012134
3703.64	0.0008017
3713.29	0.0008195
3722.93	0.001039
3732.58	0.0012567
3742.22	0.0013812
3751.86	0.00159
3761.51	0.0013468
3771.15	0.000978
3780.8	0.000212
3790.44	0.0014111
3800.09	0.0013417
3809.73	0.0013057
3819.38	0.0007063
3829.02	0.00099
3838.67	0.0011628
3848.31	0.0011771
3857.96	0.0013164
3867.6	0.00049031
3877.25	0.0008342
3886.89	0.00202
3896.54	0.0011318
3906.18	0.0010837
3915.83	0.00123
3925.47	0.0013538
3935.12	0.00208
3944.76	0.0011698
3954.41	0.00187
3964.05	0.0007258
3973.69	0.0014197
3983.34	0.00154
3992.98	0.0012659
