Infrared Spectrum: 3-AMINO-4-PICOLINE
Formula: C6 H8 N2
CAS: 3430-27-1
State: SOLUTION (7% IN CHCl3)
Class: COBLENTZ
Instrument: PERKIN-ELMER
Sampling: TRANSMISSION
Path length: 0.010 CM CELL
Resolution: 4
Origin: ABBOTT LABORATORIES - WASHBURN
MICROMETERS	TRANSMITTANCE
2.03	0.956
2.06561	0.971
2.10123	0.964
2.13684	0.96
2.17246	0.9531
2.20807	0.962
2.24369	0.964
2.2793	0.9531
2.31492	0.956
2.35053	0.9351
2.38615	0.942
2.42176	0.955
2.45738	0.9531
2.49299	0.9548
2.52861	0.9562
2.56422	0.962
2.59984	0.96
2.63545	0.949
2.67107	0.953
2.70668	1
2.7423	0.9727
2.77791	0.9329
2.81353	0.781
2.84914	0.73
2.88476	0.6708
2.92037	0.6551
2.95599	0.723
2.9916	0.7529
3.02722	0.7597
3.06283	0.724
3.09845	0.7339
3.13406	0.7825
3.16968	0.805
3.20529	0.7743
3.24091	0.76
3.27652	0.5289
3.31214	0.4149
3.34775	0.4472
3.38337	0.5548
3.41898	0.7082
3.4546	0.7681
3.49021	0.8398
3.52583	0.8809
3.56144	0.9149
3.59706	0.922
3.63267	0.928
3.66829	0.9311
3.7039	0.9351
3.73951	0.9351
3.77513	0.9399
3.81074	0.9331
3.84636	0.9191
3.88197	0.908
3.91759	0.8791
3.9532	0.863
3.98882	0.857
4.02443	0.8742
4.06005	0.9132
4.09566	0.9294
4.13128	0.9462
4.16689	0.955
4.20251	0.9599
4.23812	0.962
4.27374	0.965
4.30935	0.958
4.34497	0.951
4.38058	0.944
4.4162	0.9461
4.45181	0.947
4.48743	0.951
4.52304	0.946
4.55866	0.942
4.59427	0.94
4.62989	0.937
4.6655	0.937
4.70112	0.94
4.73673	0.9418
4.77235	0.9402
4.80796	0.944
4.84358	0.938
4.87919	0.9351
4.91481	0.942
4.95042	0.94
4.98604	0.937
5.02165	0.937
5.05727	0.9371
5.09288	0.9377
5.1285	0.9294
5.16411	0.928
5.19973	0.9204
5.23534	0.8999
5.27096	0.9039
5.30657	0.9249
5.34219	0.9215
5.3778	0.9193
5.41341	0.9288
5.44903	0.926
5.48464	0.9184
5.52026	0.9058
5.55587	0.9111
5.59149	0.9063
5.6271	0.902
5.66272	0.9095
5.69833	0.915
5.73395	0.9007
5.76956	0.892
5.80518	0.8992
5.84079	0.8936
5.87641	0.8781
5.91202	0.8489
5.94764	0.8283
5.98325	0.7908
6.01887	0.6337
6.05448	0.4593
6.0901	0.2132
6.12571	0.2747
6.16133	0.474
6.19694	0.375
6.23256	0.5863
6.26817	0.6894
6.30379	0.5659
6.3394	0.4188
6.37502	0.6409
6.41063	0.7967
6.44625	0.8326
6.48186	0.852
6.51748	0.8462
6.55309	0.8132
6.58871	0.5433
6.62432	0.3562
6.65994	0.6265
6.69555	0.7409
6.73117	0.7699
6.76678	0.7556
6.8024	0.6954
6.83801	0.5371
6.87363	0.462
6.90924	0.5992
6.94486	0.632
6.98047	0.3615
7.01609	0.3274
7.0517	0.708
7.08731	0.7936
7.12293	0.8326
7.15854	0.8466
7.19416	0.8185
7.22977	0.7408
7.26539	0.8161
7.301	0.8448
7.33662	0.857
7.37223	0.8602
7.40785	0.8548
7.44346	0.8384
7.47908	0.767
7.51469	0.4195
7.55031	0.5127
7.58592	0.7704
7.62154	0.7903
7.65715	0.7475
7.69277	0.6828
7.72838	0.5271
7.764	0.3362
7.79961	0.3623
7.83523	0.4636
7.87084	0.478
7.90646	0.4881
7.94207	0.4905
7.97769	0.4931
8.0133	0.5429
8.04892	0.5613
8.08453	0.5793
8.12015	0.594
8.15576	0.6305
8.19138	0.6638
8.22699	0.6976
8.26261	0.7321
8.29822	0.741
8.33384	0.6904
8.36945	0.6139
8.40507	0.7181
8.44068	0.7702
8.4763	0.7951
8.51191	0.799
8.54753	0.8039
8.58314	0.8114
8.61876	0.821
8.65437	0.8224
8.68999	0.821
8.7256	0.8161
8.76121	0.814
8.79683	0.8051
8.83244	0.793
8.86806	0.7629
8.90367	0.76
8.93929	0.764
8.9749	0.767
9.01052	0.7608
9.04613	0.7521
9.08175	0.748
9.11736	0.7377
9.15298	0.7275
9.18859	0.726
9.22421	0.7097
9.25982	0.6591
9.29544	0.5764
9.33105	0.525
9.36667	0.5845
9.40228	0.6729
9.4379	0.7597
9.47351	0.7736
9.50913	0.7574
9.54474	0.8021
9.58036	0.8419
9.61597	0.8557
9.65159	0.8255
9.6872	0.8121
9.72282	0.8575
9.75843	0.868
9.79405	0.868
9.82966	0.8648
9.86528	0.861
9.90089	0.861
9.93651	0.857
9.97212	0.854
10.0077	0.8486
10.0434	0.8417
10.079	0.8212
10.1146	0.8151
10.1502	0.8385
10.1858	0.8488
10.2214	0.8595
10.257	0.859
10.2927	0.8593
10.3283	0.863
10.3639	0.8651
10.3995	0.861
10.4351	0.8591
10.4707	0.8523
10.5063	0.8516
10.542	0.844
10.5776	0.845
10.6132	0.845
10.6488	0.8489
10.6844	0.852
10.72	0.859
10.7556	0.8505
10.7913	0.834
10.8269	0.8243
10.8625	0.8123
10.8981	0.8158
10.9337	0.8069
10.9693	0.7961
11.005	0.7792
11.0406	0.7404
11.0762	0.7072
11.1118	0.7056
11.1474	0.7403
11.183	0.7806
11.2186	0.794
11.2543	0.8054
11.2899	0.802
11.3255	0.8
11.3611	0.8026
11.3967	0.7999
11.4323	0.791
11.4679	0.7556
11.5036	0.722
11.5392	0.676
11.5748	0.6307
11.6104	0.5892
11.646	0.5814
11.6816	0.6374
11.7173	0.7022
11.7529	0.7409
11.7885	0.76
11.8241	0.7614
11.8597	0.7523
11.8953	0.7415
11.9309	0.7132
11.9666	0.6871
12.0022	0.6305
12.0378	0.5348
12.0734	0.4029
12.109	0.2868
12.1446	0.2251
12.1802	0.2535
12.2159	0.3657
12.2515	0.4605
12.2871	0.5613
12.3227	0.6391
12.3583	0.6803
12.3939	0.7086
12.4295	0.7394
12.4652	0.7534
12.5008	0.7586
12.5364	0.7799
12.572	0.7885
12.6076	0.7997
12.6432	0.812
12.6789	0.8202
12.7145	0.8313
12.7501	0.8386
12.7857	0.8491
12.8213	0.857
12.8569	0.8639
12.8925	0.8711
12.9282	0.8884
12.9638	0.8976
12.9994	0.9103
13.035	0.9201
13.0706	0.928
13.1062	0.926
13.1418	0.928
13.1775	0.9307
13.2131	0.9393
13.2487	0.944
13.2843	0.9483
13.3199	0.955
13.3555	0.9628
13.3912	0.971
13.4268	0.9772
13.4624	0.9855
13.498	0.9968
13.5336	1.012
13.5692	1.014
13.6048	1.014
13.6405	1.014
13.6761	1.014
13.7117	1.014
13.7473	1.014
13.7829	1.0068
13.8185	0.975
13.8541	0.9301
13.8898	0.8791
13.9254	0.8162
13.961	0.7585
13.9966	0.7139
14.0322	0.6626
14.0678	0.6519
14.1034	0.647
14.1391	0.642
14.1747	0.6431
14.2103	0.6377
14.2459	0.6404
14.2815	0.6395
14.3171	0.642
14.3528	0.6367
14.3884	0.629
14.424	0.6081
14.4596	0.629
14.4952	0.6392
14.5308	0.6513
14.5664	0.651
14.6021	0.6512
14.6377	0.6628
14.6733	0.6652
14.7089	0.672
14.7445	0.6791
14.7801	0.6825
14.8157	0.705
14.8514	0.7175
14.887	0.7509
14.9226	0.7601
14.9582	0.789
14.9938	0.7751
15.0294	0.7166
15.0651	0.4911
15.1007	0.405
15.1363	0.4132
15.1719	0.4528
15.2075	0.5048
15.2431	0.5364
15.2787	0.5669
15.3144	0.5903
15.35	0.6015
15.3856	0.609
15.4212	0.611
