Infrared Spectrum: 2-Pyrrolidinemethanol, 1-ethyl-
Formula: C7 H15 N O
CAS: 3433-34-9
State: LIQUID (NEAT)
Class: COBLENTZ III
Instrument: DOW KBr FOREPRISM-GRATING
Instrument parameters: BLAZED AT 3.5, 12.0, 20.0 MICRON AND CHANGED AT 5.0, 7.5, 14.9 MICRON
Sampling: TRANSMISSION
Path length: CAPILLARY
Resolution: 2
Origin: DOW CHEMICAL COMPANY
1/CM	TRANSMITTANCE
383	0.7405
392	0.7405
401	0.7408
410	0.7412
419	0.7411
428	0.74
437	0.7354
446	0.7301
455	0.7333
464	0.7311
473	0.7246
482	0.7175
491	0.7081
500	0.7041
509	0.7161
518	0.7281
527	0.7231
536	0.7208
545	0.7192
554	0.714
563	0.6994
572	0.6605
581	0.6436
590	0.6982
599	0.7155
608	0.7138
617	0.7172
626	0.7268
635	0.7345
644	0.7403
653	0.7399
662	0.7339
671	0.7468
680	0.7539
689	0.7581
698	0.7622
707	0.763
716	0.7642
725	0.7658
734	0.7645
743	0.7576
752	0.7496
761	0.7464
770	0.7525
779	0.7578
788	0.7594
797	0.7558
806	0.7397
815	0.7535
824	0.7536
833	0.7436
842	0.7382
851	0.7511
860	0.7587
869	0.7568
878	0.7518
887	0.7567
896	0.7391
905	0.7348
914	0.7547
923	0.7587
932	0.7238
941	0.7586
950	0.7391
959	0.6948
968	0.7435
977	0.7051
986	0.6675
995	0.6505
1004	0.6475
1013	0.6518
1022	0.5457
1031	0.3862
1040	0.2771
1049	0.2294
1058	0.3318
1067	0.4771
1076	0.5232
1085	0.4914
1094	0.4245
1103	0.4242
1112	0.4712
1121	0.5075
1130	0.5918
1139	0.5588
1148	0.5386
1157	0.578
1166	0.5774
1175	0.5344
1184	0.4683
1193	0.4388
1202	0.4422
1211	0.4725
1220	0.5581
1229	0.6218
1238	0.641
1247	0.6489
1256	0.664
1265	0.6557
1274	0.615
1283	0.5574
1292	0.5219
1301	0.5617
1310	0.5884
1319	0.6046
1328	0.6101
1337	0.6065
1346	0.5564
1355	0.551
1364	0.5819
1373	0.5467
1382	0.4362
1391	0.4253
1400	0.5646
1409	0.5757
1418	0.5971
1427	0.6055
1436	0.5885
1445	0.5065
1454	0.4376
1463	0.4766
1472	0.5338
1481	0.601
1490	0.7341
1499	0.7611
1508	0.7769
1517	0.7858
1526	0.7888
1535	0.7919
1544	0.7935
1553	0.7945
1562	0.7954
1571	0.7971
1580	0.7984
1589	0.7985
1598	0.7961
1607	0.7921
1616	0.7832
1625	0.7775
1634	0.773
1643	0.7712
1652	0.7643
1661	0.7653
1670	0.7707
1679	0.7803
1688	0.793
1697	0.8032
1706	0.8069
1715	0.8126
1724	0.8171
1733	0.8207
1742	0.8236
1751	0.8268
1760	0.8294
1769	0.8328
1778	0.836
1787	0.8389
1796	0.8417
1805	0.844
1814	0.8453
1823	0.8467
1832	0.848
1841	0.8492
1850	0.8505
1859	0.85
1868	0.85
1877	0.8512
1886	0.8518
1895	0.8517
1904	0.8509
1913	0.8493
1922	0.8473
1931	0.8449
1940	0.8428
1949	0.842
1958	0.8425
1967	0.8432
1976	0.8436
1985	0.8434
1994	0.8442
2003	0.8497
2012	0.8499
2021	0.8492
2030	0.8486
2039	0.8482
2048	0.8477
2057	0.8471
2066	0.8462
2075	0.8458
2084	0.8456
2093	0.8455
2102	0.8457
2111	0.846
2120	0.8462
2129	0.8459
2138	0.8453
2147	0.8446
2156	0.8441
2165	0.8435
2174	0.8431
2183	0.8425
2192	0.842
2201	0.8414
2210	0.8409
2219	0.8402
2228	0.8394
2237	0.8386
2246	0.838
2255	0.8377
2264	0.8375
2273	0.8368
2282	0.8361
2291	0.8365
2300	0.8375
2309	0.8399
2318	0.8442
2327	0.8498
2336	0.8462
2345	0.8402
2354	0.8356
2363	0.8327
2372	0.8303
2381	0.8282
2390	0.8261
2399	0.8235
2408	0.8209
2417	0.818
2426	0.8151
2435	0.8121
2444	0.809
2453	0.8057
2462	0.8022
2471	0.7985
2480	0.7947
2489	0.7905
2498	0.786
2507	0.7814
2516	0.7765
2525	0.7717
2534	0.7649
2543	0.7575
2552	0.749
2561	0.7404
2570	0.7314
2579	0.7221
2588	0.7125
2597	0.7028
2606	0.6937
2615	0.6848
2624	0.6746
2633	0.6638
2642	0.6551
2651	0.646
2660	0.634
2669	0.6215
2678	0.6091
2687	0.5964
2696	0.5795
2705	0.562
2714	0.5455
2723	0.5264
2732	0.5
2741	0.4733
2750	0.4375
2759	0.4002
2768	0.35
2777	0.2907
2786	0.2324
2795	0.1765
2804	0.1763
2813	0.19
2822	0.2101
2831	0.2901
2840	0.298
2849	0.2943
2858	0.2565
2867	0.2001
2876	0.1823
2885	0.2545
2894	0.245
2903	0.2202
2912	0.1969
2921	0.1871
2930	0.1608
2939	0.1471
2948	0.1389
2957	0.1044
2966	0.083
2975	0.1009
2984	0.286
2993	0.4806
3002	0.5492
3011	0.5664
3020	0.5696
3029	0.5662
3038	0.5595
3047	0.5494
3056	0.5393
3065	0.53
3074	0.5197
3083	0.5104
3092	0.5014
3101	0.4923
3110	0.4831
3119	0.4708
3128	0.4603
3137	0.4505
3146	0.4429
3155	0.4359
3164	0.4295
3173	0.4231
3182	0.4167
3191	0.4103
3200	0.4054
3209	0.4007
3218	0.3966
3227	0.393
3236	0.3894
3245	0.3859
3254	0.3824
3263	0.3788
3272	0.3752
3281	0.3716
3290	0.368
3299	0.3647
3308	0.3616
3317	0.3586
3326	0.3548
3335	0.351
3344	0.3472
3353	0.3439
3362	0.3416
3371	0.3403
3380	0.3394
3389	0.3397
3398	0.341
3407	0.3443
3416	0.3482
3425	0.355
3434	0.3666
3443	0.3839
3452	0.4086
3461	0.4303
3470	0.4489
3479	0.4688
3488	0.4999
3497	0.5407
3506	0.5696
3515	0.5973
3524	0.6291
3533	0.6669
3542	0.704
3551	0.7285
3560	0.7506
3569	0.7734
3578	0.7926
3587	0.81
3596	0.8223
3605	0.8324
3614	0.8418
3623	0.8513
3632	0.8593
3641	0.8655
3650	0.8693
3659	0.8715
3668	0.8734
3677	0.8764
3686	0.8878
3695	0.8909
3704	0.8925
3713	0.8941
3722	0.8949
3731	0.8956
3740	0.8955
3749	0.8952
3758	0.8948
3767	0.894
3776	0.8928
3785	0.8924
3794	0.8913
