Infrared Spectrum: 3,17Beta-DIACETOXYESTRA-1,3,5(10)-TRIENE
Formula: C22 H28 O4
CAS: 3434-88-6
State: SOLID (KBr DISC)
Class: COBLENTZ III
Instrument: BECKMAN IR-7
Sampling: TRANSMISSION
Resolution: 4
Origin: THE WORCESTER FOUNDATION FOR EXPERIMENTAL BIOLOGY, Neal L. McNiven
1/CM	TRANSMITTANCE
595.618	0.538
604.382	0.506
613.145	0.501
621.909	0.579
630.673	0.612
639.436	0.682
648.2	0.722
656.964	0.748
665.728	0.749
674.491	0.808
683.255	0.796
692.019	0.849
700.782	0.899
709.546	0.887
718.31	0.902
727.073	0.94
735.837	0.952
744.601	0.923
753.364	0.89
762.128	0.953
770.892	0.939
779.656	0.878
788.419	0.965
797.183	0.957
805.947	0.937
814.71	0.878
823.474	0.838
832.238	0.91
841.001	0.93
849.765	0.914
858.529	0.927
867.292	0.927
876.056	0.91
884.82	0.577
893.584	0.789
902.347	0.861
911.111	0.848
919.875	0.789
928.638	0.789
937.402	0.7711
946.166	0.577
954.929	0.7
963.693	0.782
972.457	0.815
981.22	0.788
989.984	0.745
998.748	0.659
1007.51	0.409
1016.28	0.336
1025.04	0.435
1033.8	0.295
1042.57	0.337
1051.33	0.481
1060.09	0.591
1068.86	0.666
1077.62	0.685
1086.38	0.699
1095.15	0.693
1103.91	0.709
1112.68	0.675
1121.44	0.661
1130.2	0.631
1138.97	0.654
1147.73	0.488
1156.49	0.641
1165.26	0.579
1174.02	0.277
1182.79	0.411
1191.55	0.042
1200.31	0.043
1209.08	0.149
1217.84	0.289
1226.6	0.297
1235.37	0.2811
1244.13	0.113
1252.89	0.142
1261.66	0.129
1270.42	0.283
1279.19	0.548
1287.95	0.556
1296.71	0.732
1305.48	0.779
1314.24	0.801
1323	0.81
1331.77	0.797
1340.53	0.767
1349.3	0.732
1358.06	0.498
1366.82	0.359
1375.59	0.2999
1384.35	0.499
1393.11	0.655
1401.88	0.705
1410.64	0.723
1419.41	0.678
1428.17	0.649
1436.93	0.654
1445.7	0.667
1454.46	0.681
1463.22	0.714
1471.99	0.702
1480.75	0.744
1489.51	0.4181
1498.28	0.6519
1507.04	0.765
1515.81	0.841
1524.57	0.878
1533.33	0.891
1542.1	0.893
1550.86	0.902
1559.62	0.9
1568.39	0.884
1577.15	0.831
1585.92	0.869
1594.68	0.866
1603.44	0.812
1612.21	0.754
1620.97	0.836
1629.73	0.865
1638.5	0.864
1647.26	0.865
1656.02	0.857
1664.79	0.854
1673.55	0.862
1682.32	0.859
1691.08	0.822
1699.84	0.808
1708.61	0.74
1717.37	0.613
1726.13	0.2
1734.9	0.197
1743.66	0.395
1752.43	0.43
1761.19	0.187
1769.95	0.2949
1778.72	0.649
1787.48	0.779
1796.24	0.831
1805.01	0.854
1813.77	0.883
1822.53	0.903
1831.3	0.919
1840.06	0.937
1848.83	0.946
1857.59	0.952
1866.35	0.955
1875.12	0.948
1883.88	0.941
1892.64	0.952
1901.41	0.962
1910.17	0.965
1918.94	0.964
1927.7	0.963
1936.46	0.962
1945.23	0.96
1953.99	0.957
1962.75	0.954
1971.52	0.957
1980.28	0.959
1989.05	0.962
1997.81	0.963
2006.57	0.963
2015.34	0.963
2024.1	0.963
2032.86	0.9625
2041.63	0.962
2050.39	0.9614
2059.15	0.961
2067.92	0.9602
2076.68	0.96
2085.45	0.96
2094.21	0.959
2102.97	0.957
2111.74	0.9569
2120.5	0.955
2129.26	0.955
2138.03	0.9537
2146.79	0.953
2155.56	0.952
2164.32	0.9515
2173.08	0.9504
2181.85	0.9494
2190.61	0.949
2199.37	0.949
2208.14	0.949
2216.9	0.948
2225.66	0.947
2234.43	0.946
2243.19	0.9449
2251.96	0.944
2260.72	0.943
2269.48	0.941
2278.25	0.941
2287.01	0.941
2295.77	0.94
2304.54	0.94
2313.3	0.9393
2322.07	0.94
2330.83	0.941
2339.59	0.943
2348.36	0.9449
2357.12	0.946
2365.88	0.945
2374.65	0.9439
2383.41	0.9418
2392.17	0.9365
2400.94	0.932
2409.7	0.931
2418.47	0.929
2427.23	0.928
2435.99	0.9274
2444.76	0.9263
2453.52	0.926
2462.28	0.926
2471.05	0.925
2479.81	0.923
2488.58	0.923
2497.34	0.921
2506.1	0.92
2514.87	0.92
2523.63	0.92
2532.39	0.919
2541.16	0.919
2549.92	0.9195
2558.68	0.9185
2567.45	0.915
2576.21	0.914
2584.98	0.9123
2593.74	0.9112
2602.5	0.91
2611.27	0.91
2620.03	0.909
2628.79	0.9059
2637.56	0.9017
2646.32	0.899
2655.09	0.898
2663.85	0.897
2672.61	0.897
2681.38	0.897
2690.14	0.896
2698.9	0.8944
2707.67	0.8923
2716.43	0.891
2725.2	0.8882
2733.96	0.8842
2742.72	0.883
2751.49	0.88
2760.25	0.878
2769.01	0.876
2777.78	0.8746
2786.54	0.8707
2795.3	0.8663
2804.07	0.8533
2812.83	0.8362
2821.6	0.808
2830.36	0.7654
2839.12	0.7019
2847.89	0.626
2856.65	0.5731
2865.41	0.5391
2874.18	0.476
2882.94	0.5751
2891.71	0.5871
2900.47	0.5439
2909.23	0.4735
2918	0.3817
2926.76	0.3994
2935.52	0.4002
2944.29	0.4135
2953.05	0.4712
2961.81	0.5559
2970.58	0.5555
2979.34	0.6111
2988.11	0.6511
2996.87	0.6932
3005.63	0.7474
3014.4	0.786
3023.16	0.7869
3031.92	0.7848
3040.69	0.7832
3049.45	0.7975
3058.22	0.8044
3066.98	0.8046
3075.74	0.803
3084.51	0.802
3093.27	0.802
3102.03	0.802
3110.8	0.801
3119.56	0.8
3128.32	0.799
3137.09	0.798
3145.85	0.7959
3154.62	0.7939
3163.38	0.7918
3172.14	0.7897
3180.91	0.7867
3189.67	0.783
3198.43	0.7806
3207.2	0.778
3215.96	0.775
3224.73	0.7724
3233.49	0.7693
3242.25	0.7652
3251.02	0.7612
3259.78	0.7562
3268.54	0.754
3277.31	0.751
3286.07	0.7469
3294.84	0.744
3303.6	0.7397
3312.36	0.736
3321.13	0.733
3329.89	0.728
3338.65	0.7255
3347.42	0.722
3356.18	0.7183
3364.94	0.7163
3373.71	0.7142
3382.47	0.7101
3391.24	0.7081
3400	0.706
3408.76	0.7039
3417.53	0.7019
3426.29	0.701
3435.05	0.701
3443.82	0.7013
3452.58	0.704
3461.35	0.7075
3470.11	0.7161
3478.87	0.7206
3487.64	0.7243
3496.4	0.7295
3505.16	0.7406
3513.93	0.7505
3522.69	0.7678
3531.45	0.777
3540.22	0.7831
3548.98	0.7871
3557.75	0.7928
3566.51	0.8068
3575.27	0.8113
3584.04	0.8209
3592.8	0.8299
3601.56	0.8325
3610.33	0.8336
3619.09	0.8357
3627.86	0.839
3636.62	0.8486
3645.38	0.852
3654.15	0.853
3662.91	0.855
3671.67	0.8559
3680.44	0.8507
3689.2	0.8458
3697.96	0.8497
3706.73	0.8617
3715.49	0.8644
3724.26	0.866
3733.02	0.867
3741.78	0.8676
3750.55	0.868
3759.31	0.868
3768.07	0.869
3776.84	0.869
3785.6	0.87
3794.37	0.87
3803.13	0.87
3811.89	0.87
3820.66	0.87
3829.42	0.87
3838.18	0.87
3846.95	0.87
3855.71	0.87
3864.48	0.87
3873.24	0.87
3882	0.87
3890.77	0.87
3899.53	0.87
3908.29	0.87
3917.06	0.87
3925.82	0.871
3934.58	0.871
3943.35	0.872
3952.11	0.872
3960.88	0.872
3969.64	0.872
