Infrared Spectrum: 2-(4-Biphenylyl)-2-propanol
Formula: C 15 H 16 O
CAS: 34352-74-4
State: gas
Origin: EPA-IR VAPOR PHASE LIBRARY
1/CM	ABSORBANCE
549.8	0.003876
559.445	0.005206
569.09	0.011106
578.735	0.013386
588.38	0.008136
598.025	0.004056
607.67	0.003226
617.315	0.002716
626.96	0.002246
636.605	0.002066
646.251	0.002386
655.896	0.003326
665.541	0.008376
675.186	0.012646
684.831	0.015966
694.476	0.027656
704.121	0.023726
713.766	0.013846
723.411	0.012366
733.056	0.017546
742.701	0.016416
752.346	0.017186
761.991	0.025236
771.636	0.017386
781.281	0.007356
790.926	0.003886
800.571	0.003626
810.216	0.005106
819.861	0.008396
829.507	0.017696
839.152	0.024416
848.797	0.018216
858.442	0.014496
868.087	0.009896
877.732	0.005606
887.377	0.004016
897.022	0.003966
906.667	0.004226
916.312	0.004786
925.957	0.006726
935.602	0.011046
945.247	0.017296
954.892	0.016426
964.537	0.009416
974.182	0.005316
983.827	0.004086
993.472	0.006166
1003.12	0.015206
1012.76	0.013696
1022.41	0.004786
1032.05	0.005666
1041.7	0.006866
1051.34	0.004586
1060.99	0.006266
1070.63	0.009306
1080.28	0.013716
1089.92	0.019876
1099.57	0.027286
1109.21	0.027016
1118.86	0.019466
1128.5	0.014246
1138.15	0.013416
1147.79	0.016446
1157.44	0.023136
1167.08	0.028366
1176.73	0.022606
1186.37	0.013326
1196.02	0.009266
1205.66	0.007786
1215.31	0.008506
1224.95	0.010956
1234.6	0.013546
1244.24	0.016876
1253.89	0.020776
1263.53	0.019226
1273.18	0.015886
1282.82	0.014546
1292.47	0.015346
1302.11	0.017436
1311.76	0.020676
1321.4	0.020816
1331.05	0.016186
1340.69	0.012646
1350.34	0.011806
1359.98	0.014926
1369.63	0.017546
1379.27	0.017516
1388.92	0.017856
1398.56	0.014366
1408.21	0.009816
1417.85	0.006666
1427.5	0.005746
1437.14	0.006656
1446.79	0.007616
1456.43	0.009006
1466.08	0.009316
1475.73	0.015316
1485.37	0.040606
1495.02	0.017316
1504.66	0.009026
1514.31	0.005176
1523.95	0.005526
1533.6	0.004356
1543.24	0.002816
1552.89	0.002596
1562.53	0.002796
1572.18	0.002946
1581.82	0.003456
1591.47	0.006716
1601.11	0.011286
1610.76	0.005196
1620.4	0.001976
1630.05	0.001726
1639.69	0.001666
1649.34	0.002016
1658.98	0.002456
1668.63	0.002686
1678.27	0.002166
1687.92	0.001276
1697.56	0.0011222
1707.21	0.0009954
1716.85	0.001286
1726.5	0.001226
1736.14	0.001546
1745.79	0.001716
1755.43	0.001386
1765.08	0.001506
1774.72	0.002266
1784.37	0.003096
1794.01	0.004056
1803.66	0.002406
1813.3	0.001656
1822.95	0.001207
1832.59	0.0007935
1842.24	0.000797
1851.88	0.0009056
1861.53	0.001326
1871.17	0.001876
1880.82	0.002476
1890.46	0.002626
1900.11	0.002126
1909.75	0.002206
1919.4	0.001906
1929.04	0.001906
1938.69	0.002166
1948.33	0.002246
1957.98	0.001946
1967.62	0.0006324
1977.27	0.0003787
1986.91	0.00031111
1996.56	0.000222371
2006.2	0.00029086
2015.85	0.00026802
2025.49	0.00029454
2035.14	0.00022769
2044.78	0.00023369
2054.43	0.0001594
2064.07	0.00016
2073.72	9.3e-05
2083.36	0.00011
2093.01	9e-05
2102.65	0.0001283
2112.3	0.0001613
2121.94	0.0001935
2131.59	0.0001802
2141.23	0.0001397
2150.88	0.0001218
2160.52	0.000107
2170.17	0.000111
2179.81	9.6e-05
2189.46	0.000146
2199.1	0.000185
2208.75	0.0001663
2218.39	0.00020819
2228.04	0.00023752
2237.68	0.00021117
2247.33	0.00023624
2256.97	0.00023162
2266.62	0.000218817
2276.26	0.00018
2285.91	0.0003454
2295.55	0.0003791
2305.2	0.0004168
2314.84	0.0006287
2324.49	0.0004646
2334.13	0.0003846
2343.78	0.0003169
2353.42	0.00025721
2363.07	0.00023236
2372.72	0.000221211
2382.36	0.0001877
2392.01	0.00024804
2401.65	0.000221794
2411.3	0.0001751
2420.94	0.00025379
2430.59	0.000220813
2440.23	4.7e-05
2449.88	2.2e-05
2459.52	0.000101
2469.17	0.00015
2478.81	0.0001256
2488.46	0.000131
2498.1	7e-05
2507.75	8e-05
2517.39	6.1e-05
2527.04	8.6e-05
2536.68	0.0001503
2546.33	0.00025696
2555.97	0.0001492
2565.62	0.00028128
2575.26	0.0001648
2584.91	0.000216828
2594.55	0.0003381
2604.2	0.0004289
2613.84	0.0004058
2623.49	0.0004041
2633.13	0.0003453
2642.78	0.0001354
2652.42	0.0001644
2662.07	0.000105
2671.71	9.4e-05
2681.36	3.4e-05
2691	0.0001641
2700.65	0.0001941
2710.29	0.0003236
2719.94	0.0003763
2729.58	0.00031094
2739.23	0.0003419
2748.87	0.00031418
2758.52	0.00027666
2768.16	0.0003886
2777.81	0.0003755
2787.45	0.0004433
2797.1	0.0004988
2806.74	0.0007877
2816.39	0.0008669
2826.03	0.0010169
2835.68	0.001496
2845.32	0.002076
2854.97	0.003086
2864.61	0.005176
2874.26	0.007716
2883.9	0.008196
2893.55	0.008166
2903.19	0.009056
2912.84	0.010636
2922.48	0.013236
2932.13	0.017956
2941.77	0.019226
2951.42	0.014356
2961.06	0.017066
2970.71	0.037336
2980.35	0.066706
2990	0.040946
2999.64	0.016586
3009.29	0.010206
3018.93	0.011906
3028.58	0.024736
3038.22	0.031076
3047.87	0.017226
3057.51	0.020606
3067.16	0.035006
3076.8	0.027346
3086.45	0.021246
3096.09	0.015246
3105.74	0.008866
3115.38	0.005136
3125.03	0.003326
3134.67	0.002396
3144.32	0.001646
3153.96	0.001226
3163.61	0.0008751
3173.25	0.0007649
3182.9	0.0005937
3192.54	0.000711
3202.19	0.0006595
3211.83	0.0007295
3221.48	0.0005876
3231.12	0.0005679
3240.77	0.0006562
3250.41	0.0005562
3260.06	0.00028275
3269.7	0.0003332
3279.35	0.00025515
3289	0.000215836
3298.64	0.00020804
3308.29	0.0002921
3317.93	0.00025633
3327.58	0.0003291
3337.22	0.0004664
3346.87	0.00024144
3356.51	0.0004175
3366.16	0.0003178
3375.8	0.0004689
3385.45	0.0004059
3395.09	0.0003199
3404.74	0.0004253
3414.38	0.0004482
3424.03	0.0003426
3433.67	0.000492
3443.32	0.0004734
3452.96	0.0005057
3462.61	0.0004461
3472.25	0.0003196
3481.9	0.00027952
3491.54	0.00031302
3501.19	0.00029511
3510.83	0.0003499
3520.48	0.0003666
3530.12	0.0003224
3539.77	0.00027672
3549.41	0.0004508
3559.06	0.0003977
3568.7	0.0006554
3578.35	0.0005302
3587.99	0.0005601
3597.64	0.0006303
3607.28	0.001226
3616.93	0.002306
3626.57	0.004686
3636.22	0.007526
3645.86	0.006816
3655.51	0.003466
3665.15	0.001726
3674.8	0.0011817
3684.44	0.0008413
3694.09	0.0006563
3703.73	0.0005838
3713.38	0.0006709
3723.02	0.0005188
3732.67	0.0006889
3742.31	0.0005374
3751.96	0.0004059
3761.6	0.00027035
3771.25	0.0005471
3780.89	0.00031075
3790.54	0.0002691
3800.18	0.0003192
3809.83	0.00031041
3819.47	0.0006169
3829.12	0.000505
3838.76	0.0005123
3848.41	0.0005173
3858.05	0.0004844
3867.7	0.0005608
3877.34	0.0005778
3886.99	0.0004516
3896.63	0.0006079
3906.28	0.000605
3915.92	0.0006085
3925.57	0.0005242
3935.21	0.0004774
3944.86	0.000389
3954.5	0.0001835
3964.15	0.00025604
3973.79	0.0003817
3983.44	0.00028987
3993.08	0.00027682
