Infrared Spectrum: p-CARBOXYACETOACETANILIDE
Formula: C11 H11 N O4
CAS: 34376-24-4
State: SOLID (KBr PRESSING)
Melting point: 194 C (DECOMPOSE)
Class: COBLENTZ
Instrument: Not specified, most likely a prism, grating, or hybrid spectrometer.
Sampling: TRANSMISSION
Resolution: 4
Origin: EASTMAN KODAK COMPANY, RESEARCH LABORATORIES, ROCHESTER, N.Y.
MICROMETERS	TRANSMITTANCE
2.133	0.619
2.17296	0.624
2.21293	0.632
2.25289	0.634
2.29285	0.63
2.33282	0.63
2.37278	0.639
2.41274	0.632
2.45271	0.644
2.49267	0.652
2.53263	0.657
2.5726	0.663
2.61256	0.66
2.65252	0.68
2.69249	0.678
2.73245	0.672
2.77242	0.67
2.81238	0.629
2.85234	0.574
2.89231	0.553
2.93227	0.538
2.97223	0.523
3.0122	0.481
3.05216	0.322
3.09212	0.286
3.13209	0.382
3.17205	0.388
3.21201	0.393
3.25198	0.326
3.29194	0.321
3.3319	0.322
3.37187	0.308
3.41183	0.319
3.45179	0.324
3.49176	0.327
3.53172	0.329
3.57168	0.336
3.61165	0.37
3.65161	0.416
3.69157	0.451
3.73154	0.431
3.7715	0.377
3.81147	0.392
3.85143	0.41
3.89139	0.425
3.93136	0.375
3.97132	0.387
4.01128	0.434
4.05125	0.481
4.09121	0.504
4.13117	0.532
4.17114	0.55
4.2111	0.574
4.25106	0.578
4.29103	0.589
4.33099	0.604
4.37095	0.632
4.41092	0.642
4.45088	0.649
4.49084	0.665
4.53081	0.685
4.57077	0.682
4.61073	0.677
4.6507	0.686
4.69066	0.69
4.73062	0.688
4.77059	0.691
4.81055	0.698
4.85051	0.7
4.89048	0.703
4.93044	0.711
4.97041	0.711
5.01037	0.728
5.05033	0.724
5.0903	0.724
5.13026	0.724
5.17022	0.718
5.21019	0.703
5.25015	0.708
5.29011	0.714
5.33008	0.711
5.37004	0.714
5.41	0.708
5.44997	0.713
5.48993	0.711
5.52989	0.705
5.56986	0.673
5.60982	0.66
5.64978	0.649
5.68975	0.652
5.72971	0.634
5.76967	0.593
5.80964	0.426
5.8496	0.113
5.88956	0.102
5.92953	0.102
5.96949	0.049
6.00945	0.049
6.04942	0.067
6.08938	0.199
6.12935	0.413
6.16931	0.454
6.20927	0.364
6.24924	0.062
6.2892	0.057
6.32916	0.278
6.36913	0.443
6.40909	0.492
6.44905	0.352
6.48902	0.082
6.52898	0.077
6.56894	0.143
6.60891	0.232
6.64887	0.321
6.68883	0.51
6.7288	0.504
6.76876	0.555
6.80872	0.581
6.84869	0.574
6.88865	0.565
6.92861	0.507
6.96858	0.367
7.00854	0.222
7.0485	0.067
7.08847	0.08
7.12843	0.09
7.1684	0.196
7.20836	0.294
7.24832	0.359
7.28829	0.369
7.32825	0.336
7.36821	0.24
7.40818	0.308
7.44814	0.337
7.4881	0.2
7.52807	0.156
7.56803	0.168
7.60799	0.143
7.64796	0.097
7.68792	0.113
7.72788	0.102
7.76785	0.06
7.80781	0.1
7.84777	0.161
7.88774	0.163
7.9277	0.191
7.96766	0.253
8.00763	0.332
8.04759	0.342
8.08755	0.314
8.12752	0.301
8.16748	0.354
8.20744	0.413
8.24741	0.454
8.28737	0.492
8.32734	0.533
8.3673	0.576
8.40726	0.581
8.44723	0.594
8.48719	0.57
8.52715	0.352
8.56712	0.168
8.60708	0.144
8.64704	0.189
8.68701	0.181
8.72697	0.228
8.76693	0.373
8.8069	0.469
8.84686	0.481
8.88682	0.423
8.92679	0.494
8.96675	0.505
9.00671	0.464
9.04668	0.533
9.08664	0.561
9.1266	0.584
9.16657	0.624
9.20653	0.642
9.24649	0.662
9.28646	0.672
9.32642	0.672
9.36639	0.675
9.40635	0.683
9.44631	0.685
9.48628	0.693
9.52624	0.685
9.5662	0.69
9.60617	0.68
9.64613	0.672
9.68609	0.672
9.72606	0.652
9.76602	0.626
9.80598	0.607
9.84595	0.599
9.88591	0.583
9.92587	0.579
9.96584	0.606
10.0058	0.604
10.0458	0.616
10.0857	0.644
10.1257	0.655
10.1657	0.663
10.2056	0.66
10.2456	0.649
10.2855	0.64
10.3255	0.622
10.3655	0.601
10.4054	0.578
10.4454	0.574
10.4854	0.571
10.5253	0.56
10.5653	0.535
10.6053	0.505
10.6452	0.49
10.6852	0.476
10.7251	0.466
10.7651	0.479
10.8051	0.484
10.845	0.487
10.885	0.515
10.925	0.532
10.9649	0.566
11.0049	0.588
11.0449	0.614
11.0848	0.626
11.1248	0.652
11.1647	0.686
11.2047	0.685
11.2447	0.686
11.2846	0.691
11.3246	0.703
11.3646	0.685
11.4045	0.66
11.4445	0.626
11.4844	0.611
11.5244	0.612
11.5644	0.607
11.6043	0.576
11.6443	0.532
11.6843	0.398
11.7242	0.342
11.7642	0.372
11.8042	0.476
11.8441	0.533
11.8841	0.581
11.924	0.616
11.964	0.635
12.004	0.634
12.0439	0.634
12.0839	0.622
12.1239	0.624
12.1638	0.634
12.2038	0.644
12.2438	0.652
12.2837	0.662
12.3237	0.688
12.3636	0.696
12.4036	0.698
12.4436	0.693
12.4835	0.68
12.5235	0.654
12.5635	0.644
12.6034	0.655
12.6434	0.663
12.6834	0.67
12.7233	0.65
12.7633	0.64
12.8032	0.621
12.8432	0.589
12.8832	0.502
12.9231	0.332
12.9631	0.21
13.0031	0.247
13.043	0.5
13.083	0.561
13.1229	0.607
13.1629	0.635
13.2029	0.639
13.2428	0.642
13.2828	0.626
13.3228	0.607
13.3627	0.584
13.4027	0.558
13.4427	0.512
13.4826	0.462
13.5226	0.449
13.5625	0.461
13.6025	0.474
13.6425	0.499
13.6824	0.532
13.7224	0.563
13.7624	0.568
13.8023	0.588
13.8423	0.579
13.8823	0.586
13.9222	0.588
13.9622	0.598
14.0021	0.607
14.0421	0.594
14.0821	0.589
14.122	0.579
14.162	0.571
14.202	0.568
14.2419	0.546
14.2819	0.538
14.3219	0.52
14.3618	0.507
14.4018	0.497
14.4417	0.5
14.4817	0.505
14.5217	0.512
14.5616	0.538
14.6016	0.576
14.6416	0.601
14.6815	0.622
14.7215	0.627
14.7615	0.642
14.8014	0.642
14.8414	0.65
14.8813	0.65
14.9213	0.644
14.9613	0.632
15.0012	0.568
15.0412	0.492
15.0812	0.51
15.1211	0.53
15.1611	0.556
15.201	0.581
15.241	0.596
15.281	0.601
15.3209	0.607
15.3609	0.602
15.4009	0.607
15.4408	0.612
15.4808	0.609
15.5208	0.596
15.5607	0.606
15.6007	0.607
15.6406	0.611
15.6806	0.609
15.7206	0.606
15.7605	0.609
15.8005	0.606
15.8405	0.591
15.8804	0.588
15.9204	0.602
15.9604	0.586
16.0003	0.581
