Infrared Spectrum: Pyrimidine, 4-methyl-
Formula: C5 H6 N2
CAS: 3438-46-8
State: LIQUID (NEAT)
Class: COBLENTZ III
Instrument: PERKIN-ELMER 221 (GRATING)
Instrument parameters: FILTER AT 980 CM^-^1. GRATING 4000-1428 CM^-^1, NaCl PRISM 1428-650 CM^-^1
Path length: 0.003 CM
Resolution: 2
Origin: SOUTHERN RESEARCH INSTITUTE
1/CM	TRANSMITTANCE
646.16	0.7547
654.19	0.7577
662.22	0.7537
670.25	0.395
678.28	0.2574
686.31	0.8196
694.34	0.8566
702.37	0.8642
710.4	0.8588
718.43	0.8262
726.46	0.7654
734.49	0.639
742.52	0.179
750.55	0.3109
758.58	0.814
766.61	0.8899
774.64	0.9048
782.67	0.9009
790.7	0.8899
798.73	0.843
806.76	0.7843
814.79	0.612
822.82	0.0365
830.851	0.1275
838.881	0.2119
846.911	0.436
854.941	0.781
862.971	0.8657
871.001	0.8845
879.031	0.8833
887.061	0.8941
895.091	0.9453
903.121	0.9429
911.151	0.9369
919.181	0.9272
927.211	0.9122
935.241	0.8891
943.271	0.8633
951.301	0.839
959.331	0.8296
967.361	0.7888
975.391	0.5108
983.421	0.3611
991.451	0.4714
999.481	0.2072
1007.51	0.6097
1015.54	0.7539
1023.57	0.7183
1031.6	0.5127
1039.63	0.337
1047.66	0.4622
1055.69	0.6413
1063.72	0.7341
1071.75	0.6147
1079.78	0.4072
1087.81	0.7931
1095.84	0.878
1103.87	0.894
1111.9	0.895
1119.93	0.8917
1127.96	0.8724
1135.99	0.8207
1144.02	0.7354
1152.05	0.6524
1160.08	0.5056
1168.11	0.7424
1176.14	0.7526
1184.17	0.7558
1192.2	0.8137
1200.23	0.8192
1208.26	0.8324
1216.29	0.8812
1224.32	0.8825
1232.35	0.8679
1240.38	0.8386
1248.41	0.7927
1256.44	0.7546
1264.47	0.8288
1272.5	0.8263
1280.53	0.8141
1288.56	0.7333
1296.59	0.3669
1304.62	0.0175
1312.65	0.3972
1320.68	0.5299
1328.71	0.5557
1336.74	0.6206
1344.77	0.6185
1352.8	0.5305
1360.83	0.3981
1368.86	0.3161
1376.89	0.0671
1384.92	0.0031
1392.95	0.0149
1400.98	0.2018
1409.01	0.3231
1417.04	0.3227
1425.07	0.1752
1433.1	0.1246
1441.13	0.0753
1449.16	0.0904
1457.19	0.1715
1465.22	0.1759
1473.25	0.0261
1481.28	0.1083
1489.31	0.3586
1497.34	0.431
1505.37	0.4516
1513.4	0.3721
1521.43	0.3094
1529.46	0.2724
1537.49	0.1158
1545.52	0.0109
1553.55	0.0055
1561.58	0.1228
1569.61	0.1339
1577.64	0.0001
1585.67	0.0003
1593.7	0.0001
1601.73	0.1839
1609.76	0.4945
1617.79	0.5964
1625.82	0.633
1633.85	0.7987
1641.88	0.8124
1649.91	0.8055
1657.94	0.7741
1665.97	0.7619
1674	0.8303
1682.03	0.9235
1690.06	0.9377
1698.09	0.9439
1706.12	0.9497
1714.15	0.9493
1722.18	0.9485
1730.21	0.9674
1738.24	0.9698
1746.27	0.9714
1754.3	0.9727
1762.33	0.9733
1770.36	0.9696
1778.39	0.9448
1786.42	0.9163
1794.45	0.9097
1802.48	0.9166
1810.51	0.9195
1818.54	0.92
1826.57	0.9278
1834.6	0.9413
1842.63	0.9706
1850.66	0.9719
1858.69	0.972
1866.72	0.9724
1874.75	0.9726
1882.78	0.9722
1890.81	0.9707
1898.84	0.9503
1906.87	0.9476
1914.9	0.9441
1922.93	0.9361
1930.96	0.9277
1938.99	0.9197
1947.02	0.9016
1955.05	0.8631
1963.08	0.864
1971.11	0.8692
1979.14	0.8735
1987.17	0.9021
1995.2	0.8834
2003.23	0.9162
2011.26	0.9359
2019.29	0.9511
2027.32	0.9688
2035.35	0.9736
2043.38	0.9744
2051.41	0.9744
2059.44	0.9717
2067.47	0.9533
2075.5	0.9276
2083.53	0.9679
2091.56	0.9739
2099.59	0.9744
2107.62	0.9739
2115.65	0.9711
2123.68	0.9549
2131.71	0.9383
2139.74	0.9383
2147.77	0.9322
2155.8	0.9277
2163.83	0.9383
2171.86	0.9518
2179.89	0.9531
2187.92	0.9544
2195.95	0.9557
2203.98	0.9561
2212.01	0.9563
2220.04	0.958
2228.07	0.9528
2236.1	0.9481
2244.13	0.9463
2252.16	0.9464
2260.19	0.9424
2268.22	0.9508
2276.25	0.9546
2284.28	0.9492
2292.31	0.9441
2300.34	0.9385
2308.37	0.9403
2316.4	0.9411
2324.43	0.9398
2332.46	0.9368
2340.49	0.929
2348.52	0.916
2356.55	0.9014
2364.58	0.8937
2372.61	0.8949
2380.64	0.9011
2388.67	0.9089
2396.7	0.9074
2404.73	0.8979
2412.76	0.9106
2420.79	0.9471
2428.82	0.9491
2436.85	0.9492
2444.88	0.9496
2452.91	0.9504
2460.95	0.9514
2468.98	0.9598
2477.01	0.9605
2485.04	0.9569
2493.07	0.9697
2501.1	0.963
2509.13	0.9555
2517.16	0.9508
2525.19	0.9481
2533.22	0.9463
2541.25	0.9455
2549.28	0.9451
2557.31	0.9461
2565.34	0.9464
2573.37	0.9462
2581.4	0.9449
2589.43	0.9445
2597.46	0.9454
2605.49	0.9396
2613.52	0.93
2621.55	0.9198
2629.58	0.9121
2637.61	0.9323
2645.64	0.9554
2653.67	0.9572
2661.7	0.9576
2669.73	0.9568
2677.76	0.9543
2685.79	0.952
2693.82	0.9514
2701.85	0.9506
2709.88	0.9486
2717.91	0.939
2725.94	0.9327
2733.97	0.9298
2742	0.9298
2750.03	0.9292
2758.06	0.9269
2766.09	0.9223
2774.12	0.9171
2782.15	0.9119
2790.18	0.9059
2798.21	0.8984
2806.24	0.8923
2814.27	0.8865
2822.3	0.8802
2830.33	0.8427
2838.36	0.8058
2846.39	0.7742
2854.42	0.7603
2862.45	0.7638
2870.48	0.7634
2878.51	0.7545
2886.54	0.7422
2894.57	0.7237
2902.6	0.7076
2910.63	0.654
2918.66	0.5366
2926.69	0.4653
2934.72	0.5049
2942.75	0.5022
2950.78	0.4906
2958.81	0.4411
2966.84	0.3994
2974.87	0.432
2982.9	0.4527
2990.93	0.4477
2998.96	0.431
3006.99	0.3957
3015.02	0.3026
3023.05	0.3087
3031.08	0.2801
3039.11	0.219
3047.14	0.2583
3055.17	0.4025
3063.2	0.5067
3071.23	0.5345
3079.26	0.5359
3087.29	0.6465
3095.32	0.6788
3103.35	0.7408
3111.38	0.7573
3119.41	0.7884
3127.44	0.7903
3135.47	0.7934
3143.5	0.8085
3151.53	0.8589
3159.56	0.8819
3167.59	0.8896
3175.62	0.8976
3183.65	0.9113
3191.68	0.9166
3199.71	0.919
3207.74	0.9217
3215.77	0.9242
3223.8	0.9262
3231.83	0.9272
3239.86	0.927
3247.89	0.9265
3255.92	0.9256
3263.95	0.9247
3271.98	0.9235
3280.01	0.9222
3288.04	0.9216
3296.07	0.9209
3304.1	0.9197
3312.13	0.9174
3320.16	0.9143
3328.19	0.911
3336.22	0.9068
3344.25	0.9026
3352.28	0.8982
3360.31	0.8942
3368.34	0.8906
3376.37	0.8871
3384.4	0.8846
3392.43	0.8822
3400.46	0.8801
3408.49	0.8788
3416.52	0.8796
3424.55	0.8814
3432.58	0.8837
3440.61	0.8867
3448.64	0.8901
3456.67	0.8935
3464.7	0.8968
3472.73	0.8995
3480.76	0.9022
3488.79	0.9049
3496.82	0.9076
3504.85	0.9096
3512.88	0.9114
3520.91	0.9136
3528.94	0.9165
3536.97	0.9198
3545	0.9256
3553.03	0.9275
3561.06	0.9272
3569.09	0.9306
3577.12	0.9351
3585.15	0.939
3593.18	0.9442
3601.21	0.9582
3609.24	0.9589
3617.27	0.9628
3625.3	0.9733
3633.33	0.9788
3641.36	0.9815
3649.39	0.9824
3657.42	0.9827
3665.45	0.9831
3673.48	0.9832
3681.51	0.9834
3689.54	0.9831
3697.57	0.9823
3705.6	0.9816
3713.63	0.9813
3721.66	0.9812
3729.69	0.9811
3737.72	0.9803
3745.75	0.9795
3753.78	0.9797
3761.81	0.9799
3769.84	0.9798
3777.87	0.9787
3785.9	0.9773
3793.93	0.9755
3801.96	0.9728
3809.99	0.9699
