Infrared Spectrum: BENZENE, CHLORO PENTAFLUORO-
Formula: C6 Cl F5
CAS: 344-07-0
State: SOLUTION (10% IN CCl4 FOR 3800-1400, 10% IN CS2 FOR 1400-650, AND 10% IN CCl4 FOR 650-250 CM^-^1) VERSUS SOLVENT
Class: COBLENTZ III
Instrument: PERKIN-ELMER 521 (GRATING)
Instrument parameters: FILTERS AT 3150, 2500, 2000, 1150, 700, 410; GRATING CHANGES AT 2000, 630 CM^-^1
Sampling: TRANSMISSION
Path length: 0.010, 0.010, AND 0.010 CM (CsBr CELL)
Resolution: 4
Origin: DOW CORNING CORP.
1/CM	TRANSMITTANCE
247.68	0.947
256.64	0.944
265.6	0.933
274.56	0.917
283.52	0.904
292.48	0.891
301.44	0.846
310.4	0.8409
319.36	0.914
328.32	0.923
337.281	0.928
346.241	0.931
355.201	0.898
364.161	0.924
373.121	0.937
382.081	0.938
391.041	0.93
400.001	0.933
408.961	0.933
417.921	0.93
426.881	0.928
435.841	0.926
444.801	0.909
453.761	0.895
462.721	0.891
471.681	0.884
480.641	0.869
489.601	0.881
498.561	0.893
507.521	0.886
516.482	0.879
525.442	0.895
534.402	0.897
543.362	0.898
552.322	0.897
561.282	0.898
570.242	0.905
579.202	0.914
588.162	0.917
597.122	0.924
606.082	0.921
615.042	0.902
624.002	0.884
632.962	0.891
641.922	0.926
650.882	0.917
659.842	0.907
668.802	0.897
677.762	0.888
686.722	0.877
695.683	0.893
704.643	0.893
713.603	0.8061
722.563	0.9
731.523	0.902
740.483	0.907
749.443	0.905
758.403	0.904
767.363	0.904
776.323	0.902
785.283	0.895
794.243	0.897
803.203	0.9
812.163	0.893
821.123	0.86
830.083	0.856
839.043	0.818
848.003	0.865
856.963	0.855
865.923	0.732
874.884	0.3395
883.844	0.024
892.804	0.6979
901.764	0.809
910.724	0.7709
919.684	0.87
928.644	0.874
937.604	0.874
946.564	0.87
955.524	0.855
964.484	0.7869
973.444	0.3752
982.404	0.001
991.364	0.1911
1000.32	0.3031
1009.28	0.04
1018.24	0.5821
1027.2	0.759
1036.16	0.828
1045.12	0.849
1054.08	0.7739
1063.04	0.808
1072	0.748
1080.96	0.774
1089.92	0.6991
1098.88	0.034
1107.84	0.5614
1116.8	0.853
1125.76	0.858
1134.73	0.879
1143.69	0.862
1152.65	0.799
1161.61	0.834
1170.57	0.884
1179.53	0.888
1188.49	0.881
1197.45	0.893
1206.41	0.893
1215.37	0.883
1224.33	0.891
1233.29	0.888
1242.25	0.848
1251.21	0.895
1260.17	0.891
1269.13	0.876
1278.09	0.883
1287.05	0.883
1296.01	0.881
1304.97	0.879
1313.93	0.877
1322.89	0.876
1331.85	0.853
1340.81	0.715
1349.77	0.87
1358.73	0.811
1367.69	0.867
1376.65	0.91
1385.61	0.909
1394.57	0.874
1403.53	0.863
1412.49	0.855
1421.45	0.823
1430.41	0.801
1439.37	0.617
1448.33	0.853
1457.29	0.792
1466.25	0.6751
1475.21	0.766
1484.17	0.542
1493.13	0.1668
1502.09	0.003
1511.05	0.003
1520.01	0.022
1528.97	0.1341
1537.93	0.457
1546.89	0.547
1555.85	0.7601
1564.81	0.813
1573.77	0.794
1582.73	0.856
1591.69	0.856
1600.65	0.851
1609.61	0.837
1618.57	0.821
1627.53	0.736
1636.49	0.738
1645.45	0.6403
1654.41	0.865
1663.37	0.872
1672.33	0.877
1681.29	0.8439
1690.25	0.858
1699.21	0.891
1708.17	0.895
1717.13	0.89
1726.09	0.888
1735.05	0.8549
1744.01	0.837
1752.97	0.886
1761.93	0.895
1770.89	0.905
1779.85	0.902
1788.81	0.91
1797.77	0.912
1806.73	0.909
1815.69	0.902
1824.65	0.905
1833.61	0.914
1842.57	0.914
1851.53	0.914
1860.49	0.912
1869.45	0.912
1878.41	0.91
1887.37	0.904
1896.33	0.91
1905.29	0.909
1914.25	0.91
1923.21	0.916
1932.17	0.916
1941.13	0.917
1950.09	0.916
1959.05	0.916
1968.01	0.916
1976.97	0.912
1985.93	0.914
1994.89	0.921
2003.85	0.922
2012.81	0.912
2021.77	0.901
2030.73	0.89
2039.69	0.8955
2048.65	0.909
2057.61	0.916
2066.57	0.921
2075.53	0.918
2084.49	0.91
2093.45	0.907
2102.41	0.905
2111.37	0.911
2120.33	0.914
2129.29	0.908
2138.25	0.907
2147.21	0.909
2156.17	0.91
2165.13	0.912
2174.09	0.912
2183.05	0.912
2192.01	0.909
2200.97	0.905
2209.93	0.909
2218.89	0.9105
2227.85	0.8981
2236.81	0.9
2245.77	0.912
2254.73	0.9095
2263.69	0.904
2272.65	0.912
2281.61	0.909
2290.57	0.908
2299.53	0.907
2308.49	0.907
2317.45	0.905
2326.41	0.906
2335.37	0.914
2344.33	0.912
2353.29	0.907
2362.25	0.906
2371.21	0.905
2380.17	0.9035
2389.13	0.893
2398.09	0.8675
2407.05	0.8739
2416.01	0.8765
2424.97	0.87
2433.93	0.885
2442.89	0.881
2451.85	0.8635
2460.81	0.884
2469.77	0.896
2478.73	0.902
2487.69	0.9
2496.65	0.893
2505.61	0.892
2514.57	0.891
2523.53	0.8905
2532.49	0.891
2541.45	0.892
2550.41	0.9
2559.37	0.892
2568.33	0.893
2577.29	0.887
2586.25	0.877
2595.21	0.866
2604.17	0.858
2613.13	0.8565
2622.09	0.87
2631.05	0.887
2640.01	0.89
2648.97	0.8845
2657.93	0.872
2666.89	0.869
2675.85	0.872
2684.81	0.8965
2693.77	0.9
2702.73	0.901
2711.69	0.904
2720.65	0.903
2729.61	0.9
2738.57	0.8975
2747.53	0.902
2756.49	0.902
2765.45	0.902
2774.41	0.903
2783.37	0.898
2792.33	0.899
2801.29	0.9
2810.25	0.9
2819.21	0.904
2828.17	0.902
2837.13	0.905
2846.09	0.9095
2855.05	0.914
2864.01	0.912
2872.97	0.907
2881.93	0.906
2890.89	0.907
2899.85	0.907
2908.82	0.912
2917.78	0.919
2926.74	0.914
2935.7	0.8875
2944.66	0.876
2953.62	0.886
2962.58	0.902
2971.54	0.8975
2980.5	0.897
2989.46	0.897
2998.42	0.897
3007.38	0.893
3016.34	0.89
3025.3	0.8785
3034.26	0.881
3043.22	0.886
3052.18	0.886
3061.14	0.888
3070.1	0.891
3079.06	0.891
3088.02	0.89
3096.98	0.89
3105.94	0.89
3114.9	0.89
3123.86	0.891
3132.82	0.892
3141.78	0.883
3150.74	0.8815
3159.7	0.891
3168.66	0.892
3177.62	0.895
3186.58	0.8975
3195.54	0.9
3204.5	0.902
3213.46	0.902
3222.42	0.904
3231.38	0.905
3240.34	0.904
3249.3	0.904
3258.26	0.9045
3267.22	0.907
3276.18	0.909
3285.14	0.909
3294.1	0.909
3303.06	0.91
3312.02	0.91
3320.98	0.91
3329.94	0.91
3338.9	0.909
3347.86	0.909
3356.82	0.907
3365.78	0.9095
3374.74	0.909
3383.7	0.909
3392.66	0.909
3401.62	0.9095
3410.58	0.909
3419.54	0.91
3428.5	0.91
3437.46	0.911
3446.42	0.91
3455.38	0.91
3464.34	0.909
3473.3	0.91
3482.26	0.912
3491.22	0.91
3500.18	0.912
3509.14	0.911
3518.1	0.914
3527.06	0.912
3536.02	0.912
3544.98	0.914
3553.94	0.916
3562.9	0.914
3571.86	0.912
3580.82	0.9165
3589.78	0.921
3598.74	0.917
3607.7	0.912
3616.66	0.914
3625.62	0.914
3634.58	0.916
3643.54	0.916
3652.5	0.915
3661.46	0.91
3670.42	0.926
3679.38	0.919
3688.34	0.917
3697.3	0.914
3706.26	0.9165
3715.22	0.917
3724.18	0.921
3733.14	0.933
3742.1	0.9296
3751.06	0.938
3760.02	0.916
3768.98	0.919
3777.94	0.917
3786.9	0.916
