Infrared Spectrum: Butanedioic acid, 2,3-dihydroxy-, dibutyl ester
Formula: C12 H22 O6
CAS: 344268-32-2
State: SOLUTION (10% CCl4 FOR 2.7-7.5, 10% CS2 FOR 7.5-26 MICRON) VS SOLVENT
Class: COBLENTZ III
Instrument: DOW KBr FOREPRISM-GRATING
Instrument parameters: BLAZED AT 3.5, 12.0, 20.0 MICRON AND CHANGED AT 5.0, 7.5, 14.9 MICRON
Sampling: TRANSMISSION
Path length: 0.011 CM, 0.011 CM
Resolution: 2
Origin: DOW CHEMICAL COMPANY
1/CM	TRANSMITTANCE
3798	0.8709
3789	0.8725
3780	0.8735
3771	0.8732
3762	0.8731
3753	0.8731
3744	0.8732
3735	0.8737
3726	0.8742
3717	0.8739
3708	0.8734
3699	0.8727
3690	0.8718
3681	0.8695
3672	0.8668
3663	0.8628
3654	0.8583
3645	0.8525
3636	0.845
3627	0.834
3618	0.8205
3609	0.8091
3600	0.8008
3591	0.7871
3582	0.7596
3573	0.6975
3564	0.6728
3555	0.6501
3546	0.5842
3537	0.4601
3528	0.3212
3519	0.2704
3510	0.2565
3501	0.2562
3492	0.2661
3483	0.2807
3474	0.2926
3465	0.3026
3456	0.3152
3447	0.3308
3438	0.3468
3429	0.3628
3420	0.3792
3411	0.3957
3402	0.4135
3393	0.4312
3384	0.4492
3375	0.4658
3366	0.4816
3357	0.497
3348	0.511
3339	0.525
3330	0.5375
3321	0.5498
3312	0.5621
3303	0.5716
3294	0.581
3285	0.5906
3276	0.6009
3267	0.611
3258	0.6199
3249	0.6278
3240	0.6358
3231	0.6432
3222	0.6507
3213	0.6582
3204	0.6644
3195	0.67
3186	0.6757
3177	0.681
3168	0.6864
3159	0.6918
3150	0.6974
3141	0.703
3132	0.7091
3123	0.7151
3114	0.7215
3105	0.7271
3096	0.7322
3087	0.7365
3078	0.739
3069	0.7403
3060	0.7414
3051	0.7414
3042	0.7408
3033	0.7398
3024	0.7362
3015	0.7288
3006	0.7094
2997	0.6538
2988	0.5542
2979	0.4054
2970	0.2566
2961	0.1077
2952	0.0315
2943	0.0963
2934	0.1718
2925	0.1184
2916	0.1661
2907	0.2423
2898	0.2801
2889	0.3143
2880	0.3668
2871	0.363
2862	0.1635
2853	0.3379
2844	0.516
2835	0.5416
2826	0.5846
2817	0.6741
2808	0.7149
2799	0.7304
2790	0.7424
2781	0.7521
2772	0.7601
2763	0.7678
2754	0.775
2745	0.7805
2736	0.7806
2727	0.7799
2718	0.7789
2709	0.7817
2700	0.7872
2691	0.791
2682	0.7941
2673	0.7971
2664	0.8
2655	0.8025
2646	0.8051
2637	0.8075
2628	0.8087
2619	0.8096
2610	0.8106
2601	0.8111
2592	0.8115
2583	0.8119
2574	0.8125
2565	0.813
2556	0.8147
2547	0.8165
2538	0.8184
2529	0.8203
2520	0.8224
2511	0.8252
2502	0.8281
2493	0.8309
2484	0.8337
2475	0.8359
2466	0.8381
2457	0.8402
2448	0.8418
2439	0.8431
2430	0.8444
2421	0.8456
2412	0.8468
2403	0.848
2394	0.8491
2385	0.8503
2376	0.8515
2367	0.8525
2358	0.8536
2349	0.8546
2340	0.8557
2331	0.8568
2322	0.8582
2313	0.8596
2304	0.8612
2295	0.8627
2286	0.8642
2277	0.8655
2268	0.867
2259	0.8684
2250	0.8698
2241	0.8706
2232	0.8713
2223	0.872
2214	0.8727
2205	0.8723
2196	0.8721
2187	0.8724
2178	0.8731
2169	0.8797
2160	0.8797
2151	0.8778
2142	0.8778
2133	0.8778
2124	0.8778
2115	0.8781
2106	0.8784
2097	0.8787
2088	0.879
2079	0.879
2070	0.8789
2061	0.8784
2052	0.8771
2043	0.8759
2034	0.8748
2025	0.8737
2016	0.8727
2007	0.8718
1998	0.8708
1989	0.8692
1980	0.8675
1971	0.8663
1962	0.865
1953	0.8639
1944	0.8628
1935	0.862
1926	0.8612
1917	0.8589
1908	0.856
1899	0.8528
1890	0.8503
1881	0.8485
1872	0.8468
1863	0.8436
1854	0.8402
1845	0.8361
1836	0.8312
1827	0.8263
1818	0.8199
1809	0.8097
1800	0.7961
1791	0.7699
1782	0.7318
1773	0.6489
1764	0.3538
1755	0.1135
1746	0.0105
1737	0.0019
1728	0.0018
1719	0.1172
1710	0.299
1701	0.4669
1692	0.5748
1683	0.6538
1674	0.7075
1665	0.7448
1656	0.7604
1647	0.7698
1638	0.7735
1629	0.776
1620	0.7792
1611	0.7874
1602	0.7967
1593	0.8058
1584	0.8118
1575	0.8178
1566	0.8217
1557	0.8265
1548	0.8297
1539	0.8309
1530	0.8271
1521	0.8186
1512	0.8064
1503	0.7917
1494	0.7771
1485	0.7378
1476	0.5416
1467	0.3206
1458	0.32
1449	0.4477
1440	0.5759
1431	0.5253
1422	0.5719
1413	0.5382
1404	0.5053
1395	0.4378
1386	0.3744
1377	0.3999
1368	0.5185
1359	0.5347
1350	0.5233
1341	0.5116
1332	0.4809
1323	0.3797
1314	0.3394
1305	0.2368
1296	0.1958
1287	0.1668
1278	0.1002
1269	0.0534
1260	0.0456
1251	0.0386
1242	0.0268
1233	0.0297
1224	0.0523
1215	0.06
1206	0.0772
1197	0.1123
1188	0.1169
1179	0.1642
1170	0.3945
1161	0.4882
1152	0.4892
1143	0.3274
1134	0.1679
1125	0.0412
1116	0.0341
1107	0.131
1098	0.2127
1089	0.0412
1080	0.0317
1071	0.1944
1062	0.3454
1053	0.408
1044	0.5956
1035	0.6262
1026	0.616
1017	0.5388
1008	0.5527
999	0.5933
990	0.6095
981	0.6352
972	0.6835
963	0.6048
954	0.4952
945	0.5042
936	0.477
927	0.6296
918	0.7243
909	0.733
900	0.7338
891	0.7061
882	0.6986
873	0.7205
864	0.7625
855	0.788
846	0.7739
837	0.6495
828	0.689
819	0.7178
810	0.7382
801	0.7586
792	0.7739
783	0.7772
774	0.7836
765	0.7871
756	0.7807
747	0.7465
738	0.665
729	0.7118
720	0.7243
711	0.6592
702	0.636
693	0.6441
684	0.6642
675	0.6925
666	0.7231
657	0.7507
648	0.7431
639	0.7339
630	0.7157
621	0.639
612	0.5421
603	0.4923
594	0.4852
585	0.5353
576	0.5925
567	0.6315
558	0.6536
549	0.6662
540	0.6731
531	0.665
522	0.645
513	0.6236
504	0.6116
495	0.6173
486	0.6223
477	0.6264
468	0.6296
459	0.6309
450	0.6226
441	0.6189
432	0.6095
423	0.6079
414	0.6058
405	0.6056
396	0.6125
