Infrared Spectrum: N-(2-Hydroxyethyl)-2-pyrrolidone
Formula: C 6 H 11 N O 2
CAS: 3445-11-2
State: gas
Instrument: HP-GC/MS/IRD
Origin: NIST Mass Spectrometry Data Center
1/CM	ABSORBANCE
550	0.0016986
562	0.0025181
574	0.0023542
586	0.0020562
598	0.0021009
610	0.0024734
622	0.0027863
634	0.0030694
646	0.0032333
658	0.0028757
670	0.001937
682	0.0009834
694	0.0005066
706	0.0004023
718	0.0002831
730	0.0003874
742	0.0001788
754	0.0001192
766	7.45e-05
778	0.0002086
790	0.0002533
802	0.0004172
814	0.0007152
826	0.0015645
838	0.0030396
850	0.0041869
862	0.0035909
874	0.0024138
886	0.0022648
898	0.0027118
910	0.0030545
922	0.0031737
934	0.0026671
946	0.0021456
958	0.0020413
970	0.0026522
982	0.0043657
994	0.0069434
1006	0.0087612
1018	0.0100575
1030	0.0135292
1042	0.0185654
1054	0.0212921
1066	0.0231248
1078	0.0226927
1090	0.0153768
1102	0.0081205
1114	0.0051256
1126	0.0044104
1138	0.0048723
1150	0.0061984
1162	0.008046
1174	0.0091635
1186	0.0090294
1198	0.0095211
1210	0.0110856
1222	0.012665
1234	0.0141699
1246	0.0183568
1258	0.0274607
1270	0.0389486
1282	0.0439699
1294	0.0340465
1306	0.0210835
1318	0.0169562
1330	0.0155854
1342	0.0139911
1354	0.0137676
1366	0.0127991
1378	0.0109515
1390	0.0139613
1402	0.0269392
1414	0.0421968
1426	0.0395148
1438	0.0257472
1450	0.0175224
1462	0.0152576
1474	0.0118157
1486	0.008493
1498	0.0079268
1510	0.0044551
1522	0.001937
1534	0.0013261
1546	0.0010281
1558	0.0009089
1570	0.0007897
1582	0.0007152
1594	0.0007301
1606	0.0007897
1618	0.0009834
1630	0.001341
1642	0.0020115
1654	0.0035313
1666	0.0066901
1678	0.0136633
1690	0.0304556
1702	0.0701194
1714	0.128334
1726	0.144604
1738	0.0889232
1750	0.0274607
1762	0.0093274
1774	0.0045743
1786	0.0025479
1798	0.0015645
1810	0.001043
1822	0.000745
1834	0.0005364
1846	0.0004321
1858	0.0003576
1870	0.0003576
1882	0.0003129
1894	0.0002831
1906	0.0002682
1918	0.0002533
1930	0.0002086
1942	0.0001341
1954	5.96e-05
1966	2.98e-05
1978	0
1990	2.98e-05
2002	4.47e-05
2014	0.0001043
2026	0.0001043
2038	7.45e-05
2050	8.94e-05
2062	7.45e-05
2074	7.45e-05
2086	4.47e-05
2098	5.96e-05
2110	5.96e-05
2122	0.0001341
2134	0.0001639
2146	0.0001788
2158	0.0001937
2170	0.0001192
2182	0.0001043
2194	7.45e-05
2206	4.47e-05
2218	2.98e-05
2230	5.96e-05
2242	8.94e-05
2254	0.0001043
2266	0.0001192
2278	0.0001341
2290	0.000149
2302	0.000149
2314	0.0001639
2326	0.0001639
2338	0.0002235
2350	0.0002086
2362	0.0001937
2374	0.0001639
2386	0.0001192
2398	7.45e-05
2410	0.0001192
2422	0.0001639
2434	0.0002533
2446	0.0002831
2458	0.0003129
2470	0.0002235
2482	0.0001937
2494	0.000149
2506	0.0001341
2518	0.0001192
2530	0.0001043
2542	0.0001192
2554	0.0001043
2566	0.0001043
2578	0.0001341
2590	0.0001043
2602	0.0001192
2614	0.0001639
2626	0.0002086
2638	0.0002682
2650	0.0003129
2662	0.0003874
2674	0.0005066
2686	0.0007152
2698	0.0008791
2710	0.0011324
2722	0.0012218
2734	0.0012218
2746	0.0013857
2758	0.0016092
2770	0.0019966
2782	0.0024585
2794	0.0030694
2806	0.0040975
2818	0.0055577
2830	0.0077331
2842	0.0114134
2854	0.0168817
2866	0.022797
2878	0.0275501
2890	0.0299192
2902	0.0302917
2914	0.0309473
2926	0.0310814
2938	0.0301278
2950	0.0295467
2962	0.0289656
2974	0.0282653
2986	0.0245701
2998	0.0144232
3010	0.0067199
3022	0.0031886
3034	0.0019966
3046	0.0014751
3058	0.0012069
3070	0.0010281
3082	0.0008642
3094	0.0006407
3106	0.0005066
3118	0.0003576
3130	0.000298
3142	0.0002384
3154	0.0002086
3166	0.000149
3178	0.0001192
3190	0.0001043
3202	0.0001192
3214	0.0001788
3226	0.0002384
3238	0.0003278
3250	0.0004768
3262	0.0005215
3274	0.0006258
3286	0.0006705
3298	0.0006705
3310	0.0006854
3322	0.0007152
3334	0.0006556
3346	0.0006705
3358	0.0007301
3370	0.0007897
3382	0.0010132
3394	0.0014453
3406	0.0020562
3418	0.0029353
3430	0.0044253
3442	0.0059302
3454	0.0066305
3466	0.0065262
3478	0.00596
3490	0.005215
3502	0.0043806
3514	0.003725
3526	0.0031886
3538	0.0028012
3550	0.002533
3562	0.0023542
3574	0.0021009
3586	0.0019519
3598	0.0018625
3610	0.001788
3622	0.0018029
3634	0.0017433
3646	0.002086
3658	0.0036952
3670	0.0047531
3682	0.0032184
3694	0.0015049
3706	0.0007748
3718	0.0004619
3730	0.0003874
3742	0.0003874
3754	0.0003576
3766	0.0002831
3778	0.0002384
3790	0.0002086
3802	0.0002831
3814	0.0002533
3826	0.0003129
3838	0.0002682
