Infrared Spectrum: N,N-Bis(2-cyanoethyl)formamide
Formula: C 7 H 9 N 3 O
CAS: 3445-84-9
State: gas
Origin: EPA-IR VAPOR PHASE LIBRARY
1/CM	ABSORBANCE
549.8	0.0008441
559.445	0.001187
569.09	0.002597
578.734	0.003087
588.379	0.001867
598.024	0.0011377
607.669	0.0007893
617.313	0.000778
626.958	0.0009735
636.603	0.001497
646.248	0.001507
655.893	0.0008842
665.537	0.0007701
675.182	0.0008901
684.827	0.0011077
694.472	0.001267
704.116	0.001337
713.761	0.0010199
723.406	0.0010044
733.051	0.0007437
742.695	0.0006731
752.34	0.0009521
761.985	0.001207
771.63	0.001487
781.275	0.001557
790.919	0.001497
800.564	0.001327
810.209	0.001477
819.854	0.002337
829.498	0.002617
839.143	0.002117
848.788	0.001537
858.433	0.001247
868.078	0.0010976
877.722	0.0009503
887.367	0.0010431
897.012	0.0010147
906.657	0.0008665
916.301	0.000788
925.946	0.0009499
935.591	0.001347
945.236	0.001517
954.88	0.001747
964.525	0.001777
974.17	0.001887
983.815	0.003377
993.46	0.005537
1003.1	0.007527
1012.75	0.009087
1022.39	0.012717
1032.04	0.018807
1041.68	0.017127
1051.33	0.007747
1060.97	0.002817
1070.62	0.001887
1080.26	0.001827
1089.91	0.001517
1099.55	0.0011553
1109.2	0.001457
1118.84	0.001777
1128.49	0.002527
1138.13	0.003717
1147.78	0.007817
1157.42	0.018587
1167.07	0.030787
1176.71	0.031087
1186.36	0.022697
1196	0.014107
1205.64	0.008757
1215.29	0.007167
1224.93	0.007487
1234.58	0.008277
1244.22	0.007767
1253.87	0.006937
1263.51	0.006727
1273.16	0.008027
1282.8	0.009397
1292.45	0.008327
1302.09	0.007427
1311.74	0.008857
1321.38	0.010537
1331.03	0.010327
1340.67	0.008847
1350.32	0.010407
1359.96	0.017087
1369.61	0.024677
1379.25	0.029787
1388.9	0.030587
1398.54	0.023367
1408.18	0.018017
1417.83	0.016837
1427.47	0.015817
1437.12	0.015097
1446.76	0.012387
1456.41	0.009037
1466.05	0.006567
1475.7	0.004097
1485.34	0.002427
1494.99	0.001787
1504.63	0.001497
1514.28	0.001247
1523.92	0.0011356
1533.57	0.0011124
1543.21	0.0009457
1552.86	0.0009183
1562.5	0.000889
1572.15	0.0008529
1581.79	0.00088
1591.44	0.0007685
1601.08	0.0008327
1610.73	0.0010425
1620.37	0.001227
1630.01	0.001307
1639.66	0.001637
1649.3	0.002237
1658.95	0.003357
1668.59	0.005547
1678.24	0.008387
1687.88	0.014087
1697.53	0.040477
1707.17	0.120207
1716.82	0.160227
1726.46	0.084457
1736.11	0.024617
1745.75	0.009267
1755.4	0.005217
1765.04	0.003647
1774.69	0.002947
1784.33	0.002457
1793.98	0.002007
1803.62	0.001727
1813.27	0.001447
1822.91	0.001207
1832.55	0.0011013
1842.2	0.0009018
1851.84	0.0008324
1861.49	0.0007484
1871.13	0.000756
1880.78	0.0007245
1890.42	0.0007483
1900.07	0.000704
1909.71	0.0005629
1919.36	0.0004974
1929	0.0005429
1938.65	0.00059
1948.29	0.0005856
1957.94	0.0006378
1967.58	0.000649
1977.23	0.0006444
1986.87	0.000672
1996.52	0.0006743
2006.16	0.0007329
2015.81	0.0007276
2025.45	0.0007424
2035.1	0.0006467
2044.74	0.000652
2054.38	0.0006141
2064.03	0.0005784
2073.67	0.0005008
2083.32	0.0004755
2092.96	0.0004533
2102.61	0.0004738
2112.25	0.0004618
2121.9	0.0004886
2131.54	0.0004645
2141.19	0.0004533
2150.83	0.0004172
2160.48	0.0004041
2170.12	0.0004861
2179.77	0.0005045
2189.41	0.0004831
2199.06	0.0005516
2208.7	0.000522
2218.35	0.0004987
2227.99	0.0005348
2237.64	0.0008207
2247.28	0.001397
2256.92	0.001407
2266.57	0.0008533
2276.21	0.000653
2285.86	0.000606
2295.5	0.0005644
2305.15	0.0005289
2314.79	0.0005639
2324.44	0.000539
2334.08	0.0005524
2343.73	0.000612
2353.37	0.000697
2363.02	0.0005976
2372.66	0.0005765
2382.31	0.0006624
2391.95	0.0005996
2401.6	0.000606
2411.24	0.0006598
2420.89	0.0005863
2430.53	0.0006574
2440.18	0.0006821
2449.82	0.0006786
2459.47	0.0006095
2469.11	0.0006491
2478.75	0.0005236
2488.4	0.0005274
2498.04	0.0004363
2507.69	0.0005022
2517.33	0.0004256
2526.98	0.0003437
2536.62	0.0004272
2546.27	0.0005144
2555.91	0.0005883
2565.56	0.00055
2575.2	0.0005391
2584.85	0.0005952
2594.49	0.0005991
2604.14	0.0005674
2613.78	0.0005391
2623.43	0.0004643
2633.07	0.0005537
2642.72	0.0006509
2652.36	0.0005535
2662.01	0.000632
2671.65	0.0006143
2681.29	0.0006832
2690.94	0.000776
2700.58	0.0009007
2710.23	0.0010632
2719.87	0.001197
2729.52	0.001237
2739.16	0.001377
2748.81	0.001687
2758.45	0.002397
2768.1	0.003387
2777.74	0.003687
2787.39	0.003287
2797.03	0.002787
2806.68	0.002687
2816.32	0.002707
2825.97	0.003087
2835.61	0.004567
2845.26	0.007647
2854.9	0.010867
2864.55	0.012627
2874.19	0.011917
2883.84	0.008857
2893.48	0.005817
2903.12	0.004367
2912.77	0.003947
2922.41	0.004397
2932.06	0.006427
2941.7	0.009827
2951.35	0.011617
2960.99	0.010007
2970.64	0.008297
2980.28	0.006717
2989.93	0.004587
2999.57	0.002747
3009.22	0.001607
3018.86	0.0011316
3028.51	0.000776
3038.15	0.0008262
3047.8	0.0007491
3057.44	0.0005948
3067.09	0.000569
3076.73	0.0006506
3086.38	0.0006244
3096.02	0.0006754
3105.67	0.0005327
3115.31	0.0006418
3124.95	0.0006192
3134.6	0.0005782
3144.24	0.0005144
3153.89	0.0005275
3163.53	0.0004235
3173.18	0.0004616
3182.82	0.0004634
3192.47	0.000394
3202.11	0.0003484
3211.76	0.0003554
3221.4	0.0003026
3231.05	0.0004246
3240.69	0.0004732
3250.34	0.0004873
3259.98	0.0004694
3269.63	0.00028486
3279.27	0.000191292
3288.92	0.00021124
3298.56	0.0004145
3308.21	0.0003695
3317.85	0.0003891
3327.49	0.0004194
3337.14	0.0001308
3346.78	0.0002962
3356.43	0.0004017
3366.07	0.0003375
3375.72	0.0004738
3385.36	0.0004069
3395.01	0.0010153
3404.65	0.001527
3414.3	0.001677
3423.94	0.0011855
3433.59	0.0007612
3443.23	0.0004948
3452.88	0.000388
3462.52	0.000349
3472.17	0.00024407
3481.81	0.00023946
3491.46	0.00017812
3501.1	0.00021791
3510.75	0.00019722
3520.39	0.0003417
3530.04	0.0001647
3539.68	0.00024967
3549.32	0.000368
3558.97	0.0003258
3568.61	0.00021923
3578.26	0.0003314
3587.9	0.00019715
3597.55	0.00026744
3607.19	0.00027386
3616.84	0.000316
3626.48	0.00020932
3636.13	5e-05
3645.77	0.000187666
3655.42	0.000242
3665.06	0.0003135
3674.71	0.00017715
3684.35	0.0003167
3694	0.0001731
3703.64	0.0001422
3713.29	7.7e-05
3722.93	0.00022718
3732.58	0.0004343
3742.22	0.0001756
3751.86	0.0003475
3761.51	0.0002962
3771.15	0.0001444
3780.8	0.000287
3790.44	0.00024613
3800.09	0.00021076
3809.73	0.0002122
3819.38	0.0001433
3829.02	0.0004002
3838.67	0.0001417
3848.31	0.00024748
3857.96	0.0002252
3867.6	0.0001097
3877.25	0.00020272
3886.89	0.000195611
3896.54	0.00026383
3906.18	0.0003627
3915.83	0.0002902
3925.47	0.00023924
3935.12	0.0002358
3944.76	0.0002884
3954.41	0.0003527
3964.05	0.0003099
3973.69	0.0003075
3983.34	0.00025311
3992.98	0.00026907
