Infrared Spectrum: Di-n-butyldichlorosilane
Formula: C 8 H 18 Cl 2 Si
CAS: 3449-28-3
State: gas
Origin: EPA-IR VAPOR PHASE LIBRARY
1/CM	ABSORBANCE
501.5	0.01268
513.074	0.00804
524.648	0.01012
536.222	0.02294
547.796	0.0393
559.37	0.02968
570.944	0.01298
582.518	0.00531
594.092	0.00309
605.666	0.00258
617.24	0.00288
628.814	0.00392
640.388	0.00547
651.962	0.0067
663.536	0.00911
675.11	0.01294
686.684	0.0161
698.258	0.01794
709.832	0.01988
721.406	0.01952
732.98	0.01691
744.554	0.01559
756.128	0.01408
767.702	0.01093
779.276	0.00846
790.85	0.00787
802.423	0.00509
813.997	0.00271
825.571	0.00214
837.145	0.00248
848.719	0.0035
860.293	0.00396
871.867	0.00571
883.441	0.00713
895.015	0.00457
906.589	0.00238
918.163	0.00155
929.737	0.00138
941.311	0.00164
952.885	0.00324
964.459	0.00545
976.033	0.00361
987.607	0.00397
999.181	0.00412
1010.76	0.00225
1022.33	0.00262
1033.9	0.00308
1045.48	0.00324
1057.05	0.0032
1068.63	0.00416
1080.2	0.00681
1091.77	0.00515
1103.35	0.00223
1114.92	0.00117
1126.49	0.0008751
1138.07	0.0008328
1149.64	0.0009761
1161.22	0.00144
1172.79	0.00306
1184.36	0.00452
1195.94	0.00732
1207.51	0.00484
1219.09	0.00188
1230.66	0.0008454
1242.23	0.0005978
1253.81	0.0005369
1265.38	0.00106
1276.96	0.00121
1288.53	0.00163
1300.1	0.00261
1311.68	0.00199
1323.25	0.00139
1334.83	0.00247
1346.4	0.00394
1357.97	0.00229
1369.55	0.00218
1381.12	0.00432
1392.7	0.00465
1404.27	0.00493
1415.84	0.00396
1427.42	0.00269
1438.99	0.0029
1450.57	0.0049
1462.14	0.00684
1473.71	0.00555
1485.29	0.00268
1496.86	0.00158
1508.44	0.00109
1520.01	0.0008275
1531.58	0.0006149
1543.16	0.0004343
1554.73	0.0003467
1566.31	0.0003065
1577.88	0.000279
1589.45	0.0002533
1601.03	0.0002836
1612.6	0.0002796
1624.18	0.0003065
1635.75	0.0002619
1647.32	0.0002057
1658.9	0.0002378
1670.47	0.0002173
1682.05	0.000168
1693.62	0.0001674
1705.19	0.0001394
1716.77	0.0001544
1728.34	0.0001586
1739.92	0.0001288
1751.49	0.0001449
1763.06	0.0001234
1774.64	0.0001308
1786.21	0.0001087
1797.79	0.0001139
1809.36	0.0001076
1820.93	0.0001126
1832.51	9.022e-05
1844.08	0.0001259
1855.66	0.000117
1867.23	0.0001256
1878.8	0.0001466
1890.38	0.000172
1901.95	0.0001475
1913.53	0.0001927
1925.1	0.0001811
1936.67	0.0002098
1948.25	0.0002203
1959.82	0.0001964
1971.4	0.0002279
1982.97	0.0002247
1994.54	0.000206
2006.12	0.0001963
2017.69	0.0001858
2029.27	0.0001977
2040.84	0.0001802
2052.41	0.0001728
2063.99	0.0002199
2075.56	0.000199
2087.14	0.0001771
2098.71	0.0001482
2110.28	0.0001456
2121.86	0.0001825
2133.43	0.0001681
2145.01	0.000155
2156.58	0.0001833
2168.15	0.0001852
2179.73	0.0001679
2191.3	0.0001945
2202.88	0.0001749
2214.45	0.0001683
2226.02	0.0001702
2237.6	0.0001688
2249.17	0.0001629
2260.74	0.0001396
2272.32	0.0001444
2283.89	0.0001235
2295.47	0.0001501
2307.04	0.0001626
2318.61	0.0001658
2330.19	0.0001569
2341.76	0.0001966
2353.34	0.0002291
2364.91	0.0002057
2376.48	0.0002369
2388.06	0.0002314
2399.63	0.0001955
2411.21	0.000206
2422.78	0.0002473
2434.35	0.0002448
2445.93	0.0001947
2457.5	0.0002001
2469.08	0.000191
2480.65	0.0001596
2492.22	0.0002156
2503.8	0.0002452
2515.37	0.0002173
2526.95	0.000273
2538.52	0.0002453
2550.09	0.0002453
2561.67	0.0002216
2573.24	0.0003025
2584.82	0.0003542
2596.39	0.0004576
2607.96	0.0005325
2619.54	0.0005072
2631.11	0.0005085
2642.69	0.0005466
2654.26	0.0006443
2665.83	0.0006411
2677.41	0.0006659
2688.98	0.0005979
2700.56	0.000601
2712.13	0.0006814
2723.7	0.0007972
2735.28	0.00102
2746.85	0.00127
2758.43	0.0013
2770	0.00138
2781.57	0.0017
2793.15	0.00216
2804.72	0.00254
2816.3	0.00291
2827.87	0.0036
2839.44	0.00483
2851.02	0.00752
2862.59	0.01522
2874.17	0.02524
2885.74	0.02802
2897.31	0.02123
2908.89	0.02146
2920.46	0.02899
2932.04	0.04548
2943.61	0.04793
2955.18	0.03536
2966.76	0.04705
2978.33	0.03341
2989.91	0.01293
3001.48	0.00725
3013.05	0.00488
3024.63	0.00362
3036.2	0.00269
3047.78	0.00212
3059.35	0.00173
3070.92	0.00155
3082.5	0.00144
3094.07	0.0013
3105.65	0.00119
3117.22	0.000998
3128.79	0.0009862
3140.37	0.000953
3151.94	0.0008332
3163.52	0.0008061
3175.09	0.0007374
3186.66	0.0006222
3198.24	0.0006072
3209.81	0.00049
3221.39	0.0004531
3232.96	0.0003472
3244.53	0.0002732
3256.11	0.0003087
3267.68	0.0002833
3279.26	0.0001986
3290.83	0.0002072
3302.4	0.0002268
3313.98	0.0002226
3325.55	0.0002188
3337.13	0.0001698
3348.7	0.0002224
3360.27	0.0001769
3371.85	0.0002048
3383.42	0.0002283
3395	0.0001951
3406.57	0.0001233
3418.14	0.0002348
3429.72	0.0001943
3441.29	0.0001582
3452.86	0.0002085
3464.44	0.0001361
3476.01	0.0001085
3487.59	0.00014
3499.16	0.0001666
3510.73	7e-05
3522.31	0.0001197
3533.88	0.0001339
3545.46	0.0001499
3557.03	0.0002064
3568.6	0.0002155
3580.18	0.0001822
3591.75	0.0002086
3603.33	0.0002615
3614.9	0.0002173
3626.47	0.0002362
3638.05	0.0002534
3649.62	0.0002812
3661.2	0.0002084
3672.77	0.0001713
3684.34	0.0001713
3695.92	0.0002151
3707.49	0.0001168
3719.07	0.0002401
3730.64	0.0002468
3742.21	0.0002555
3753.79	0.0002479
3765.36	0.0003252
3776.94	0.000278
3788.51	0.0003308
3800.08	0.0002259
3811.66	0.0002201
3823.23	0.0002044
3834.81	0.0002419
3846.38	0.0002575
3857.95	0.0001547
3869.53	0.0001649
3881.1	0.00019
3892.68	0.0002559
3904.25	0.0002262
3915.82	0.0002361
3927.4	0.0003014
3938.97	0.0003476
3950.55	0.0002527
3962.12	0.0002666
3973.69	0.0003133
3985.27	0.0003346
3996.84	0.000363
