Infrared Spectrum: 3,4'-Difluorobenzophenone
Formula: C 13 H 8 F 2 O
CAS: 345-71-1
State: gas
Origin: EPA-IR VAPOR PHASE LIBRARY
1/CM	ABSORBANCE
549.8	0.00361
559.445	0.00293
569.09	0.00278
578.734	0.00446
588.379	0.00964
598.024	0.0349
607.669	0.02257
617.313	0.00557
626.958	0.0035
636.603	0.0036
646.248	0.0033
655.893	0.00321
665.537	0.00544
675.182	0.00771
684.827	0.00635
694.472	0.00658
704.116	0.00955
713.761	0.00789
723.406	0.00432
733.051	0.00429
742.695	0.00939
752.34	0.03075
761.985	0.03162
771.63	0.01194
781.275	0.00927
790.919	0.01624
800.564	0.0185
810.209	0.01503
819.854	0.01781
829.498	0.01416
839.143	0.02655
848.788	0.05888
858.433	0.05124
868.078	0.02721
877.722	0.01253
887.367	0.01362
897.012	0.01118
906.657	0.00565
916.301	0.00344
925.946	0.00291
935.591	0.0033
945.236	0.00425
954.88	0.00634
964.525	0.0131
974.17	0.01248
983.815	0.00678
993.46	0.0055
1003.1	0.00528
1012.75	0.00636
1022.39	0.00278
1032.04	0.00225
1041.68	0.00257
1051.33	0.00294
1060.97	0.00337
1070.62	0.00284
1080.26	0.00388
1089.91	0.0065
1099.55	0.0084
1109.2	0.00946
1118.84	0.01148
1128.49	0.00999
1138.13	0.00776
1147.78	0.01882
1157.42	0.05567
1167.07	0.01556
1176.71	0.00716
1186.36	0.00868
1196	0.02158
1205.64	0.03789
1215.29	0.03822
1224.93	0.04116
1234.58	0.07488
1244.22	0.10437
1253.87	0.04547
1263.51	0.06351
1273.16	0.1202
1282.8	0.11323
1292.45	0.0919
1302.09	0.06471
1311.74	0.02751
1321.38	0.01801
1331.03	0.01041
1340.67	0.00659
1350.32	0.00548
1359.96	0.00493
1369.61	0.00418
1379.25	0.00432
1388.9	0.00541
1398.54	0.00848
1408.18	0.01346
1417.83	0.01302
1427.47	0.02307
1437.12	0.04474
1446.76	0.02411
1456.41	0.01059
1466.05	0.01322
1475.7	0.02061
1485.34	0.02415
1494.99	0.02422
1504.63	0.0386
1514.28	0.02383
1523.92	0.0099
1533.57	0.00743
1543.21	0.00711
1552.86	0.00781
1562.5	0.0111
1572.15	0.02325
1581.79	0.05209
1591.44	0.08617
1601.08	0.0858
1610.73	0.03941
1620.37	0.01536
1630.01	0.0091
1639.66	0.00809
1649.3	0.0093
1658.95	0.01276
1668.59	0.02782
1678.24	0.07079
1687.88	0.07244
1697.53	0.03053
1707.17	0.01349
1716.82	0.00833
1726.46	0.00679
1736.11	0.00538
1745.75	0.00403
1755.4	0.00351
1765.04	0.00374
1774.69	0.00454
1784.33	0.00375
1793.98	0.00327
1803.62	0.0028
1813.27	0.00249
1822.91	0.00232
1832.55	0.00213
1842.2	0.0019586
1851.84	0.0019111
1861.49	0.00257
1871.13	0.0028
1880.78	0.00242
1890.42	0.00264
1900.07	0.00296
1909.71	0.00309
1919.36	0.00249
1929	0.00246
1938.65	0.00251
1948.29	0.00216
1957.94	0.0020204
1967.58	0.0016726
1977.23	0.0015957
1986.87	0.0014628
1996.52	0.0013512
2006.16	0.0013983
2015.81	0.001454
2025.45	0.0017215
2035.1	0.0017257
2044.74	0.0019297
2054.38	0.0019138
2064.03	0.0017828
2073.67	0.0017367
2083.32	0.0017302
2092.96	0.0016431
2102.61	0.0015423
2112.25	0.00122179
2121.9	0.00119529
2131.54	0.00122086
2141.19	0.001023
2150.83	0.00118721
2160.48	0.0010634
2170.12	0.00112058
2179.77	0.0011178
2189.41	0.001018
2199.06	0.000921
2208.7	0.0010483
2218.35	0.00092
2227.99	0.0010409
2237.64	0.001094
2247.28	0.0015102
2256.92	0.0013221
2266.57	0.0012375
2276.21	0.0010971
2285.86	0.000948
2295.5	0.00113381
2305.15	0.00120349
2314.79	0.0015852
2324.44	0.0013031
2334.08	0.0012564
2343.73	0.0014144
2353.37	0.001018
2363.02	0.00086
2372.66	0.000991
2382.31	0.0013359
2391.95	0.0016822
2401.6	0.0015914
2411.24	0.001452
2420.89	0.0010761
2430.53	0.00122629
2440.18	0.001116
2449.82	0.0014398
2459.47	0.0016037
2469.11	0.0019579
2478.75	0.0018703
2488.4	0.0014428
2498.04	0.001401
2507.69	0.0012764
2517.33	0.0012471
2526.98	0.00122106
2536.62	0.0010905
2546.27	0.0012484
2555.91	0.0017396
2565.56	0.0016232
2575.2	0.0020397
2584.85	0.0015814
2594.49	0.0013261
2604.14	0.0013588
2613.78	0.0013142
2623.43	0.000928
2633.07	0.0011699
2642.72	0.000963
2652.36	0.0013653
2662.01	0.000679
2671.65	0.000892
2681.29	0.000893
2690.94	0.0013171
2700.58	0.000799
2710.23	0.000899
2719.87	0.000799
2729.52	0.0009
2739.16	0.00113931
2748.81	0.00116518
2758.45	0.000748
2768.1	0.0007
2777.74	0.000986
2787.39	0.000949
2797.03	0.00089
2806.68	0.000722
2816.32	0.000695
2825.97	0.000837
2835.61	0.000972
2845.26	0.000714
2854.9	0.000894
2864.55	0.000705
2874.19	0.000853
2883.84	0.000863
2893.48	0.0013
2903.12	0.0010805
2912.77	0.00096
2922.41	0.0013415
2932.06	0.000987
2941.7	0.000684
2951.35	0.000692
2960.99	0.00112338
2970.64	0.000575
2980.28	0.0010452
2989.93	0.00097
2999.57	0.00114256
3009.22	0.0015444
3018.86	0.0013631
3028.51	0.0017023
3038.15	0.00318
3047.8	0.00423
3057.44	0.00475
3067.09	0.00547
3076.73	0.00881
3086.38	0.00797
3096.02	0.00378
3105.67	0.00288
3115.31	0.001699
3124.95	0.0017051
3134.6	0.000995
3144.24	0.0013427
3153.89	0.001028
3163.53	0.0011097
3173.18	0.000928
3182.82	0.000947
3192.47	0.000686
3202.11	0.00099
3211.76	0.00114166
3221.4	0.000726
3231.05	0.000535
3240.69	0.000993
3250.34	0.000758
3259.98	0.000839
3269.63	0.000933
3279.27	0.0012977
3288.92	0.000954
3298.56	0.000454
3308.21	0.000811
3317.85	0.000912
3327.49	0.0013082
3337.14	0.0018645
3346.78	0.00224
3356.43	0.0017276
3366.07	0.0014934
3375.72	0.0010651
3385.36	0.000985
3395.01	0.00113791
3404.65	0.000929
3414.3	0.000905
3423.94	0.001013
3433.59	0.000889
3443.23	0.001009
3452.88	0.000867
3462.52	0.000709
3472.17	0.000849
3481.81	0.000927
3491.46	0.000917
3501.1	0.000899
3510.75	0.000939
3520.39	0.000541
3530.04	0.000405
3539.68	0.000803
3549.32	0.000236
3558.97	0.000838
3568.61	0.000134
3578.26	0.000901
3587.9	0.00120196
3597.55	0.001013
3607.19	0.000894
3616.84	0.000672
3626.48	0.00112645
3636.13	0.000823
3645.77	0.000835
3655.42	0.000777
3665.06	0.00113506
3674.71	0.0017716
3684.35	0.0013812
3694	0.00054
3703.64	0.0013444
3713.29	0.000592
3722.93	0.000784
3732.58	0.000919
3742.22	0.000694
3751.86	0.000667
3761.51	0.000492
3771.15	0.000567
3780.8	0.000567
3790.44	0.000755
3800.09	0.0012521
3809.73	0.000847
3819.38	0.00024
3829.02	0.000777
3838.67	0.000736
3848.31	0.000363
3857.96	0.0010508
3867.6	0.0012806
3877.25	0.000712
3886.89	0.000796
3896.54	0.000822
3906.18	0.000433
3915.83	0.000848
3925.47	0.00112364
3935.12	0.0010667
3944.76	0.000919
3954.41	0.000758
3964.05	0.00118607
3973.69	0.00118808
3983.34	0.0014302
3992.98	0.0001
