Infrared Spectrum: 5-Dimethylamino-1-naphthalenesulphonyl fluoride
Formula: C 12 H 12 F N O 2 S
CAS: 34523-28-9
State: gas
Origin: EPA-IR VAPOR PHASE LIBRARY
1/CM	ABSORBANCE
549.8	0.012102
559.445	0.008982
569.09	0.034932
578.734	0.075642
588.379	0.018402
598.024	0.008892
607.669	0.010882
617.313	0.030562
626.958	0.107412
636.603	0.052192
646.248	0.010842
655.893	0.004942
665.537	0.003892
675.182	0.006482
684.827	0.005482
694.472	0.003592
704.116	0.003322
713.761	0.004012
723.406	0.005432
733.051	0.008712
742.695	0.014752
752.34	0.037332
761.985	0.066622
771.63	0.052632
781.275	0.119652
790.919	0.128382
800.564	0.091932
810.209	0.088462
819.854	0.025762
829.498	0.014962
839.143	0.017372
848.788	0.007342
858.433	0.003932
868.078	0.002182
877.722	0.002612
887.367	0.002972
897.012	0.002752
906.657	0.003412
916.301	0.003292
925.946	0.005002
935.591	0.008932
945.236	0.017152
954.88	0.008852
964.525	0.004392
974.17	0.003022
983.815	0.002862
993.46	0.002742
1003.1	0.002412
1012.75	0.003622
1022.39	0.005862
1032.04	0.007342
1041.68	0.012122
1051.33	0.023872
1060.97	0.033722
1070.62	0.030282
1080.26	0.018212
1089.91	0.013372
1099.55	0.015152
1109.2	0.008682
1118.84	0.008702
1128.49	0.007092
1138.13	0.013112
1147.78	0.019602
1157.42	0.022762
1167.07	0.017112
1176.71	0.026752
1186.36	0.028652
1196	0.057352
1205.64	0.090292
1215.29	0.177062
1224.93	0.107832
1234.58	0.057552
1244.22	0.025572
1253.87	0.013892
1263.51	0.010542
1273.16	0.007862
1282.8	0.008542
1292.45	0.012272
1302.09	0.022952
1311.74	0.022422
1321.38	0.013102
1331.03	0.012622
1340.67	0.017172
1350.32	0.022922
1359.96	0.014992
1369.61	0.011162
1379.25	0.014302
1388.9	0.026132
1398.54	0.054062
1408.18	0.062242
1417.83	0.118162
1427.47	0.171162
1437.12	0.056562
1446.76	0.029852
1456.41	0.034352
1466.05	0.037392
1475.7	0.023802
1485.34	0.018192
1494.99	0.011782
1504.63	0.010742
1514.28	0.008602
1523.92	0.006752
1533.57	0.005662
1543.21	0.006452
1552.86	0.010022
1562.5	0.023462
1572.15	0.041522
1581.79	0.032932
1591.44	0.024132
1601.08	0.012732
1610.73	0.012762
1620.37	0.009242
1630.01	0.005172
1639.66	0.003592
1649.3	0.003292
1658.95	0.003162
1668.59	0.003382
1678.24	0.003352
1687.88	0.003172
1697.53	0.003542
1707.17	0.003692
1716.82	0.003812
1726.46	0.002832
1736.11	0.002552
1745.75	0.002642
1755.4	0.003312
1765.04	0.003282
1774.69	0.003252
1784.33	0.002802
1793.98	0.002332
1803.62	0.001972
1813.27	0.001812
1822.91	0.0016585
1832.55	0.0016991
1842.2	0.002292
1851.84	0.003232
1861.49	0.003972
1871.13	0.002942
1880.78	0.002272
1890.42	0.002142
1900.07	0.002222
1909.71	0.003102
1919.36	0.002982
1929	0.003192
1938.65	0.003182
1948.29	0.002502
1957.94	0.002622
1967.58	0.002332
1977.23	0.001902
1986.87	0.0014026
1996.52	0.0013316
2006.16	0.0015259
2015.81	0.0013444
2025.45	0.0013902
2035.1	0.0013521
2044.74	0.0014313
2054.38	0.0013511
2064.03	0.0014848
2073.67	0.0015113
2083.32	0.0016748
2092.96	0.001752
2102.61	0.001656
2112.25	0.001802
2121.9	0.0014631
2131.54	0.0014778
2141.19	0.0016012
2150.83	0.0016686
2160.48	0.0013709
2170.12	0.0014001
2179.77	0.0013301
2189.41	0.0013939
2199.06	0.0014355
2208.7	0.0013608
2218.35	0.0013211
2227.99	0.0012261
2237.64	0.0012744
2247.28	0.0013203
2256.92	0.0012845
2266.57	0.0012736
2276.21	0.0012853
2285.86	0.0012403
2295.5	0.0012323
2305.15	0.0015703
2314.79	0.0012658
2324.44	0.0012994
2334.08	0.0011104
2343.73	0.001113
2353.37	0.0011237
2363.02	0.0014879
2372.66	0.001572
2382.31	0.0014399
2391.95	0.001762
2401.6	0.001852
2411.24	0.0016279
2420.89	0.0016396
2430.53	0.0013991
2440.18	0.0013955
2449.82	0.0011841
2459.47	0.0012053
2469.11	0.0011875
2478.75	0.0012805
2488.4	0.0013825
2498.04	0.0013206
2507.69	0.0011994
2517.33	0.0013945
2526.98	0.0014544
2536.62	0.0015001
2546.27	0.001832
2555.91	0.0015932
2565.56	0.0014895
2575.2	0.001842
2584.85	0.001563
2594.49	0.0016241
2604.14	0.002532
2613.78	0.002382
2623.43	0.002832
2633.07	0.002642
2642.72	0.002312
2652.36	0.001842
2662.01	0.001822
2671.65	0.001544
2681.29	0.001712
2690.94	0.001802
2700.58	0.0014202
2710.23	0.001952
2719.87	0.002582
2729.52	0.002732
2739.16	0.002542
2748.81	0.003952
2758.45	0.005122
2768.1	0.008252
2777.74	0.013702
2787.39	0.022982
2797.03	0.033222
2806.68	0.025812
2816.32	0.016322
2825.97	0.017222
2835.61	0.030552
2845.26	0.034342
2854.9	0.022932
2864.55	0.020782
2874.19	0.021612
2883.84	0.019902
2893.48	0.017102
2903.12	0.017092
2912.77	0.015642
2922.41	0.015642
2932.06	0.018652
2941.7	0.030582
2951.35	0.042292
2960.99	0.024712
2970.64	0.013862
2980.28	0.016022
2989.93	0.025282
2999.57	0.015492
3009.22	0.008022
3018.86	0.006382
3028.51	0.006372
3038.15	0.006812
3047.8	0.007112
3057.44	0.009862
3067.09	0.010342
3076.73	0.010792
3086.38	0.013682
3096.02	0.009242
3105.67	0.004732
3115.31	0.003092
3124.95	0.002902
3134.6	0.001712
3144.24	0.001982
3153.89	0.002182
3163.53	0.0012392
3173.18	0.001952
3182.82	0.001922
3192.47	0.001822
3202.11	0.0010335
3211.76	0.001065
3221.4	0.0013109
3231.05	0.0006921
3240.69	0.0009047
3250.34	0.0011846
3259.98	0.0012811
3269.63	0.0009967
3279.27	0.0013384
3288.92	0.00074445
3298.56	0.0013113
3308.21	0.00078686
3317.85	0.0010344
3327.49	0.00072915
3337.14	0.0014143
3346.78	0.000527
3356.43	0.000607
3366.07	0.0009019
3375.72	0.0010232
3385.36	0.0006452
3395.01	0.0008893
3404.65	0.000194
3414.3	0.0009077
3423.94	0.0012566
3433.59	0.0012045
3443.23	0.0007845
3452.88	0.00075649
3462.52	0.0008773
3472.17	0.0010516
3481.81	0.00079003
3491.46	0.0012553
3501.1	0.0011374
3510.75	0.0006874
3520.39	0.0008757
3530.04	0.000535
3539.68	0.0012389
3549.32	0.00070557
3558.97	0.000276
3568.61	0.0008369
3578.26	0.000369
3587.9	0.00077749
3597.55	0.000516
3607.19	0.001046
3616.84	0.001057
3626.48	0.000551
3636.13	0.0015477
3645.77	0.0009539
3655.42	0.000497
3665.06	0.00079303
3674.71	0.000184
3684.35	0.000985
3694	0.0010524
3703.64	0.0011024
3713.29	0.000349
3722.93	0.00072201
3732.58	0.00079635
3742.22	0.000459
3751.86	0.0012638
3761.51	0.0008963
3771.15	0.0007016
3780.8	0.0006806
3790.44	0.0010817
3800.09	0.0010703
3809.73	0.001112
3819.38	0.000586
3829.02	0.00080993
3838.67	0.000974
3848.31	0.0009478
3857.96	0.0011421
3867.6	0.0014971
3877.25	0.0012622
3886.89	0.001782
3896.54	0.0010383
3906.18	0.0006905
3915.83	0.000973
3925.47	0.0008802
3935.12	0.0012387
3944.76	0.000126
3954.41	0.00041
3964.05	0.0008652
3973.69	0.0011908
3983.34	0.0010975
3992.98	0.0012607
