Infrared Spectrum: 1-Nonyne
Formula: C 9 H 16
CAS: 3452-09-3
State: gas
Instrument: HP-GC/MS/IRD
Origin: NIST Mass Spectrometry Data Center
1/CM	ABSORBANCE
550	0.0004444
562	0.0002948
574	0.0003256
586	0.000418
598	0.0011088
610	0.0035992
622	0.0115236
634	0.027588
646	0.0110484
658	0.0027236
670	0.0008448
682	0.0004488
694	0.0002816
706	0.0003564
718	0.000638
730	0.0006204
742	0.000418
754	0.000352
766	0.0002464
778	0.0001716
790	0.0002112
802	8.36e-05
814	2.64e-05
826	8.36e-05
838	0.0001012
850	0.00011
862	0.0001056
874	0.0001364
886	0.0001276
898	0.0001232
910	0.0001452
922	0.0001452
934	0.0001056
946	0.0001716
958	0.0001364
970	8.36e-05
982	6.6e-05
994	0.0001276
1006	0.0001848
1018	0.0002684
1030	0.0002244
1042	0.0001628
1054	0.0001144
1066	0.0001276
1078	8.36e-05
1090	0.00011
1102	0.0001364
1114	0.000198
1126	0.00011
1138	2.64e-05
1150	4.4e-06
1162	8.8e-05
1174	0.000176
1186	0.0001936
1198	0.0002816
1210	0.000418
1222	0.0009284
1234	0.0029744
1246	0.0065692
1258	0.0044396
1270	0.001606
1282	0.001078
1294	0.0010208
1306	0.0010956
1318	0.0013376
1330	0.001584
1342	0.0016324
1354	0.0014652
1366	0.0011968
1378	0.0012892
1390	0.0011616
1402	0.000792
1414	0.0008624
1426	0.0014828
1438	0.0029128
1450	0.0037224
1462	0.00407
1474	0.0029304
1486	0.0014168
1498	0.0007392
1510	0.0004532
1522	0.0003168
1534	0.0002376
1546	0.0001804
1558	0.0001408
1570	9.24e-05
1582	0.0001056
1594	7.04e-05
1606	7.48e-05
1618	5.72e-05
1630	5.28e-05
1642	4.84e-05
1654	0
1666	3.08e-05
1678	3.96e-05
1690	8.8e-06
1702	0
1714	2.64e-05
1726	2.64e-05
1738	2.2e-05
1750	1.32e-05
1762	1.32e-05
1774	3.52e-05
1786	3.52e-05
1798	2.64e-05
1810	0
1822	3.52e-05
1834	2.64e-05
1846	2.2e-05
1858	4.4e-05
1870	4.4e-05
1882	3.52e-05
1894	4.4e-05
1906	1.76e-05
1918	2.2e-05
1930	2.64e-05
1942	4.4e-05
1954	4.84e-05
1966	2.2e-05
1978	5.72e-05
1990	5.72e-05
2002	3.08e-05
2014	6.6e-05
2026	9.24e-05
2038	9.68e-05
2050	0.0001056
2062	0.0001056
2074	0.0001584
2086	0.000264
2098	0.0006116
2110	0.0011352
2122	0.0012804
2134	0.0005324
2146	0.000154
2158	7.04e-05
2170	7.04e-05
2182	5.28e-05
2194	2.64e-05
2206	6.16e-05
2218	2.64e-05
2230	1.32e-05
2242	3.96e-05
2254	4.4e-05
2266	5.72e-05
2278	3.96e-05
2290	5.28e-05
2302	6.6e-05
2314	5.72e-05
2326	5.28e-05
2338	3.96e-05
2350	6.6e-05
2362	6.16e-05
2374	6.6e-05
2386	7.04e-05
2398	5.72e-05
2410	5.28e-05
2422	6.6e-05
2434	4.84e-05
2446	7.48e-05
2458	5.72e-05
2470	7.92e-05
2482	6.6e-05
2494	7.48e-05
2506	7.48e-05
2518	0.0001012
2530	0.0001144
2542	0.0001232
2554	0.0001584
2566	0.0001672
2578	0.0001848
2590	0.0002024
2602	0.000242
2614	0.0002728
2626	0.0003212
2638	0.0003916
2650	0.0004532
2662	0.0005104
2674	0.0005544
2686	0.000594
2698	0.0005984
2710	0.0005104
2722	0.0005192
2734	0.0006204
2746	0.00066
2758	0.0007172
2770	0.0007436
2782	0.0008888
2794	0.0011396
2806	0.0014564
2818	0.0019712
2830	0.0029348
2842	0.005302
2854	0.0107492
2866	0.0158796
2878	0.0155408
2890	0.0129316
2902	0.0138116
2914	0.0217316
2926	0.0355828
2938	0.044
2950	0.035926
2962	0.0255816
2974	0.0180708
2986	0.0080476
2998	0.0040436
3010	0.0025784
3022	0.0018744
3034	0.0013948
3046	0.001122
3058	0.0008976
3070	0.0007788
3082	0.0006688
3094	0.0005896
3106	0.000528
3118	0.0004708
3130	0.0004268
3142	0.0003696
3154	0.0003476
3166	0.00033
3178	0.0003124
3190	0.000264
3202	0.000264
3214	0.0002244
3226	0.0002376
3238	0.0002596
3250	0.0003432
3262	0.0005412
3274	0.0008712
3286	0.0016676
3298	0.0029392
3310	0.0051612
3322	0.00858
3334	0.0086724
3346	0.0027016
3358	0.0012892
3370	0.0005764
3382	0.0003036
3394	0.000154
3406	0.0001452
3418	0.0001012
3430	9.24e-05
3442	8.8e-05
3454	8.36e-05
3466	3.52e-05
3478	7.04e-05
3490	8.8e-05
3502	2.64e-05
3514	1.76e-05
3526	2.64e-05
3538	3.96e-05
3550	7.48e-05
3562	1.76e-05
3574	3.52e-05
3586	6.16e-05
3598	7.48e-05
3610	8.8e-05
3622	8.8e-05
3634	6.16e-05
3646	7.48e-05
3658	7.04e-05
3670	6.6e-05
3682	9.24e-05
3694	8.36e-05
3706	4.84e-05
3718	0.0001056
3730	8.36e-05
3742	9.24e-05
3754	7.48e-05
3766	8.36e-05
3778	7.48e-05
3790	0.0001188
3802	8.36e-05
3814	7.04e-05
3826	8.36e-05
3838	0.0001144
