Infrared Spectrum: 3,5,5-Trimethyl-1-hexanol
Formula: C 9 H 20 O
CAS: 3452-97-9
State: gas
Instrument: HP-GC/MS/IRD
Origin: NIST Mass Spectrometry Data Center
1/CM	ABSORBANCE
550	0.00082
562	0.0005822
574	0.0004387
586	0.000369
598	0.0004592
610	0.0003649
622	0.0002583
634	0.0002296
646	0.0001845
658	0.0001968
670	0.0001394
682	0.0001353
694	8.2e-05
706	0.0001476
718	0.0001435
730	0.0001599
742	0.0002132
754	0.0001927
766	0.0001517
778	0.0001763
790	0.0001886
802	0.0002747
814	0.0003813
826	0.0004387
838	0.0005945
850	0.0006437
862	0.0006437
874	0.000656
886	0.0006109
898	0.0006191
910	0.0007134
922	0.0009143
934	0.001148
946	0.0016031
958	0.0023247
970	0.0028987
982	0.0030791
994	0.0035055
1006	0.0040262
1018	0.0046822
1030	0.0061623
1042	0.0082082
1054	0.0082451
1066	0.0055268
1078	0.0033415
1090	0.0025215
1102	0.0018327
1114	0.0016441
1126	0.0015621
1138	0.0014309
1150	0.0014022
1162	0.001517
1174	0.0018327
1186	0.0023493
1198	0.0027716
1210	0.0025625
1222	0.0023575
1234	0.0026527
1246	0.0026158
1258	0.001968
1270	0.0017548
1282	0.0017384
1294	0.001558
1306	0.0013899
1318	0.0013735
1330	0.0015334
1342	0.0021033
1354	0.0034481
1366	0.0058343
1378	0.0058097
1390	0.0048134
1402	0.0033579
1414	0.0017138
1426	0.0014227
1438	0.001886
1450	0.002706
1462	0.0042394
1474	0.0055514
1486	0.0040713
1498	0.0015088
1510	0.0006642
1522	0.0004141
1534	0.0002911
1546	0.0002337
1558	0.0002009
1570	0.0001435
1582	0.0001312
1594	0.0001558
1606	0.0001599
1618	0.0001066
1630	9.84e-05
1642	6.97e-05
1654	7.38e-05
1666	8.61e-05
1678	7.79e-05
1690	9.43e-05
1702	7.38e-05
1714	7.38e-05
1726	5.74e-05
1738	2.46e-05
1750	1.64e-05
1762	2.46e-05
1774	0
1786	1.23e-05
1798	2.87e-05
1810	3.28e-05
1822	5.33e-05
1834	4.51e-05
1846	4.92e-05
1858	6.97e-05
1870	7.79e-05
1882	7.38e-05
1894	7.38e-05
1906	7.38e-05
1918	5.74e-05
1930	9.43e-05
1942	5.74e-05
1954	6.15e-05
1966	7.79e-05
1978	9.02e-05
1990	8.61e-05
2002	8.61e-05
2014	9.84e-05
2026	0.0001025
2038	0.0001066
2050	9.02e-05
2062	9.84e-05
2074	7.79e-05
2086	6.56e-05
2098	4.92e-05
2110	6.56e-05
2122	6.56e-05
2134	3.69e-05
2146	5.74e-05
2158	6.15e-05
2170	6.97e-05
2182	5.33e-05
2194	3.69e-05
2206	3.69e-05
2218	8.61e-05
2230	5.74e-05
2242	5.33e-05
2254	3.69e-05
2266	5.33e-05
2278	7.38e-05
2290	6.56e-05
2302	9.43e-05
2314	5.74e-05
2326	6.56e-05
2338	1.64e-05
2350	6.15e-05
2362	4.92e-05
2374	6.15e-05
2386	7.38e-05
2398	6.56e-05
2410	8.2e-05
2422	9.43e-05
2434	6.97e-05
2446	6.15e-05
2458	4.1e-05
2470	5.74e-05
2482	4.1e-05
2494	4.92e-05
2506	4.51e-05
2518	5.33e-05
2530	5.33e-05
2542	7.38e-05
2554	0.0001148
2566	0.0001312
2578	0.0001107
2590	0.0001148
2602	9.84e-05
2614	0.0001435
2626	0.000164
2638	0.0001927
2650	0.0002214
2662	0.000287
2674	0.0003444
2686	0.0004141
2698	0.0004674
2710	0.0006027
2722	0.0006888
2734	0.00082
2746	0.0007995
2758	0.000861
2770	0.0008446
2782	0.0010004
2794	0.00123
2806	0.0014883
2818	0.0019926
2830	0.0028577
2842	0.0045592
2854	0.0071012
2866	0.0109716
2878	0.0155185
2890	0.0176095
2902	0.0206312
2914	0.0232224
2926	0.0234315
2938	0.0257357
2950	0.0328943
2962	0.041
2974	0.0265557
2986	0.0106395
2998	0.0044485
3010	0.0022304
3022	0.0013981
3034	0.0009225
3046	0.0007175
3058	0.0006027
3070	0.0005535
3082	0.0004756
3094	0.0004674
3106	0.0003772
3118	0.0003403
3130	0.0003854
3142	0.000328
3154	0.0003854
3166	0.0003485
3178	0.000369
3190	0.0002952
3202	0.0002829
3214	0.0002993
3226	0.0002214
3238	0.000164
3250	0.0001558
3262	0.0001353
3274	0.0001271
3286	5.33e-05
3298	0.000123
3310	6.56e-05
3322	0.0001312
3334	8.61e-05
3346	9.84e-05
3358	7.79e-05
3370	0.0001312
3382	6.56e-05
3394	0.0001189
3406	0.0001066
3418	0.0001394
3430	0.0001271
3442	0.0001681
3454	5.33e-05
3466	0.0001722
3478	0.0001517
3490	0.0001189
3502	0.0001107
3514	9.43e-05
3526	8.2e-05
3538	4.51e-05
3550	4.92e-05
3562	8.61e-05
3574	7.38e-05
3586	0.0001681
3598	0.0002173
3610	0.0001722
3622	0.0002911
3634	0.0003813
3646	0.0009799
3658	0.0020008
3670	0.0022591
3682	0.0012259
3694	0.0004592
3706	0.0002542
3718	0.0002091
3730	0.0001435
3742	0.0001558
3754	0.0001312
3766	0.0001722
3778	0.0001681
3790	0.0001353
3802	0.0002419
3814	0.0001599
3826	0.0001681
3838	0.0001886
