Infrared Spectrum: Diethylbenzoylmethyl phosphonate
Formula: C 12 H 17 O 4 P
CAS: 3453-00-7
State: gas
Origin: EPA-IR VAPOR PHASE LIBRARY
1/CM	ABSORBANCE
501.5	0.031112
513.074	0.031462
524.648	0.025512
536.222	0.018562
547.796	0.013802
559.37	0.012952
570.944	0.026122
582.518	0.049452
594.092	0.017822
605.666	0.007142
617.24	0.005372
628.814	0.004132
640.388	0.004712
651.962	0.007082
663.536	0.011192
675.11	0.016782
686.684	0.033112
698.258	0.025922
709.832	0.025872
721.406	0.034342
732.98	0.036972
744.554	0.031512
756.128	0.038822
767.702	0.060662
779.276	0.073422
790.85	0.053742
802.423	0.030992
813.997	0.026182
825.571	0.029522
837.145	0.025162
848.719	0.023382
860.293	0.026442
871.867	0.024732
883.441	0.016312
895.015	0.016242
906.589	0.021412
918.163	0.034482
929.737	0.066522
941.311	0.127002
952.885	0.159322
964.459	0.141802
976.033	0.102922
987.607	0.115342
999.181	0.151922
1010.76	0.130452
1022.33	0.199092
1033.9	0.295462
1045.48	0.263632
1057.05	0.224622
1068.63	0.178992
1080.2	0.105812
1091.77	0.083752
1103.35	0.073232
1114.92	0.051472
1126.49	0.046802
1138.07	0.038852
1149.64	0.036132
1161.22	0.035832
1172.79	0.038342
1184.36	0.049102
1195.94	0.052632
1207.51	0.046652
1219.09	0.033442
1230.66	0.034402
1242.23	0.043892
1253.81	0.084992
1265.38	0.201732
1276.96	0.220602
1288.53	0.143452
1300.1	0.078632
1311.68	0.048842
1323.25	0.029712
1334.83	0.019502
1346.4	0.014592
1357.97	0.012822
1369.55	0.017802
1381.12	0.021502
1392.7	0.033552
1404.27	0.034702
1415.84	0.020782
1427.42	0.014022
1438.99	0.018792
1450.57	0.028622
1462.14	0.013162
1473.71	0.009822
1485.29	0.009132
1496.86	0.008342
1508.44	0.005982
1520.01	0.005242
1531.58	0.004882
1543.16	0.004782
1554.73	0.005522
1566.31	0.008802
1577.88	0.014372
1589.45	0.015492
1601.03	0.019672
1612.6	0.014662
1624.18	0.010802
1635.75	0.007912
1647.32	0.008852
1658.9	0.012102
1670.47	0.018702
1682.05	0.046572
1693.62	0.126852
1705.19	0.099012
1716.77	0.032472
1728.34	0.014182
1739.92	0.009302
1751.49	0.007592
1763.06	0.006672
1774.64	0.005862
1786.21	0.005282
1797.79	0.006052
1809.36	0.006282
1820.93	0.005132
1832.51	0.004492
1844.08	0.004232
1855.66	0.003872
1867.23	0.003352
1878.8	0.003212
1890.38	0.003482
1901.95	0.003532
1913.53	0.003042
1925.1	0.002262
1936.67	0.002142
1948.25	0.002742
1959.82	0.003052
1971.4	0.002652
1982.97	0.001792
1994.54	0.001652
2006.12	0.001312
2017.69	0.0010434
2029.27	0.0008529
2040.84	0.0007555
2052.41	0.000708
2063.99	0.000722
2075.56	0.0006586
2087.14	0.0006015
2098.71	0.0006381
2110.28	0.0005908
2121.86	0.0005909
2133.43	0.0006086
2145.01	0.0005798
2156.58	0.0005457
2168.15	0.0005366
2179.73	0.0005768
2191.3	0.0005999
2202.88	0.0005301
2214.45	0.0005701
2226.02	0.0005717
2237.6	0.0005976
2249.17	0.000678
2260.74	0.0007661
2272.32	0.000772
2283.89	0.0007231
2295.47	0.0006004
2307.04	0.00071
2318.61	0.0010895
2330.19	0.0008894
2341.76	0.0010195
2353.34	0.0008674
2364.91	0.0007121
2376.48	0.0006947
2388.06	0.0007165
2399.63	0.000691
2411.21	0.0006707
2422.78	0.0006894
2434.35	0.0007633
2445.93	0.0008186
2457.5	0.000939
2469.08	0.0008789
2480.65	0.0007144
2492.22	0.0006195
2503.8	0.0006214
2515.37	0.0006599
2526.95	0.0007635
2538.52	0.0007635
2550.09	0.0007832
2561.67	0.000741
2573.24	0.0007615
2584.82	0.000885
2596.39	0.001034
2607.96	0.0009838
2619.54	0.0008494
2631.11	0.0007694
2642.69	0.0007594
2654.26	0.0007675
2665.83	0.0008228
2677.41	0.0008684
2688.98	0.0009194
2700.56	0.0009912
2712.13	0.001192
2723.7	0.001582
2735.28	0.001992
2746.85	0.001972
2758.43	0.002082
2770	0.002432
2781.57	0.002672
2793.15	0.002552
2804.72	0.002672
2816.3	0.002942
2827.87	0.003532
2839.44	0.004202
2851.02	0.005372
2862.59	0.007512
2874.17	0.011722
2885.74	0.015142
2897.31	0.017112
2908.89	0.023272
2920.46	0.026502
2932.04	0.033422
2943.61	0.044062
2955.18	0.032992
2966.76	0.035682
2978.33	0.053092
2989.91	0.064082
3001.48	0.043342
3013.05	0.027412
3024.63	0.019952
3036.2	0.017402
3047.78	0.015222
3059.35	0.018762
3070.92	0.029122
3082.5	0.019212
3094.07	0.013832
3105.65	0.008742
3117.22	0.005222
3128.79	0.003562
3140.37	0.003092
3151.94	0.003032
3163.52	0.002852
3175.09	0.002362
3186.66	0.002012
3198.24	0.001932
3209.81	0.001762
3221.39	0.001622
3232.96	0.001512
3244.53	0.001222
3256.11	0.001134
3267.68	0.0010331
3279.26	0.0009106
3290.83	0.0009162
3302.4	0.0007487
3313.98	0.0008448
3325.55	0.0007351
3337.13	0.0008522
3348.7	0.001079
3360.27	0.001572
3371.85	0.002252
3383.42	0.002072
3395	0.001332
3406.57	0.0008415
3418.14	0.0005913
3429.72	0.0003728
3441.29	0.000338
3452.86	0.0002924
3464.44	0.00027766
3476.01	0.00019271
3487.59	0.0001549
3499.16	0.00017632
3510.73	0.0001012
3522.31	5.1e-05
3533.88	0.0001121
3545.46	7.8e-05
3557.03	3.4e-05
3568.6	0.0001335
3580.18	4.5e-05
3591.75	6.3e-05
3603.33	5e-05
3614.9	0.0001195
3626.47	7e-05
3638.05	0.0001689
3649.62	0.00025326
3661.2	0.0003219
3672.77	0.00019975
3684.34	0.0001958
3695.92	0.0002959
3707.49	0.0003527
3719.07	0.0003696
3730.64	0.0003192
3742.21	0.0003475
3753.79	0.0003437
3765.36	0.0003173
3776.94	0.0003065
3788.51	0.0004276
3800.08	0.000325
3811.66	0.0003853
3823.23	0.0002915
3834.81	0.00019398
3846.38	0.0002685
3857.95	0.0002731
3869.53	0.0002762
3881.1	0.000303
3892.68	0.0002916
3904.25	0.0003417
3915.82	0.0003695
3927.4	0.0003882
3938.97	0.0004279
3950.55	0.0004649
3962.12	0.0005479
3973.69	0.0005704
3985.27	0.0005677
3996.84	0.0006662
