Infrared Spectrum: 5H-4,1-Benzoxazepine-2,5-dione,1,2-dihydro-1-methyl-,
Formula: C10 H9 N O3
CAS: 3455-21-8
State: SOLUTION 7% (CHCl3 FOR 2.5-12.5 microns)
Class: COBLENTZ
Instrument: PERKIN-ELMER 21 (GRATING)
Instrument parameters: FILTER AT ABOUT 10 MICRONS
Path length: 0.01 CM
Resolution: 2
Origin: ABBOTT LABORATORIES
1/CM	TRANSMITTANCE
800	0.9646
809	0.9318
818	0.9148
827	0.9097
836	0.9112
845	0.9148
854	0.8961
863	0.8671
872	0.8702
881	0.8851
890	0.8846
899	0.8811
908	0.8515
917	0.7255
926	0.8343
935	0.8666
944	0.8531
953	0.7896
962	0.8219
971	0.6945
980	0.827
989	0.8481
998	0.7928
1007	0.6098
1016	0.3923
1025	0.7703
1034	0.7707
1043	0.4363
1052	0.7654
1061	0.5632
1070	0.6972
1079	0.7606
1088	0.7263
1097	0.4453
1106	0.1266
1115	0.5186
1124	0.5192
1133	0.2088
1142	0.3162
1151	0.7094
1160	0.6907
1169	0.8151
1178	0.8141
1187	0.7619
1196	0.6953
1205	0.6752
1214	0.6555
1223	0.6359
1232	0.6167
1241	0.6048
1250	0.4355
1259	0.3024
1268	0.3707
1277	0.4888
1286	0.6569
1295	0.6534
1304	0.5999
1313	0.6842
1322	0.7045
1331	0.5874
1340	0.4898
1349	0.3144
1358	0.241
1367	0.1342
1376	0.0743
1385	0.4551
1394	0.6394
1403	0.6845
1412	0.4719
1421	0.6391
1430	0.4323
1439	0.2423
1448	0.1025
1457	0.199
1466	0.1409
1475	0.3071
1484	0.433
1493	0.6963
1502	0.7969
1511	0.8236
1520	0.8228
1529	0.8138
1538	0.7984
1547	0.7476
1556	0.7317
1565	0.6481
1574	0.6176
1583	0.5031
1592	0.2551
1601	0.1249
1610	0.6877
1619	0.693
1628	0.6502
1637	0.6036
1646	0.5129
1655	0.3075
1664	0.0713
1673	0.0228
1682	0.0238
1691	0.0756
1700	0.1462
1709	0.0776
1718	0.0243
1727	0.0394
1736	0.1748
1745	0.4721
1754	0.6495
1763	0.7529
1772	0.7878
1781	0.8281
1790	0.8365
1799	0.8418
1808	0.8429
1817	0.8538
1826	0.868
1835	0.8694
1844	0.873
1853	0.8835
1862	0.8883
1871	0.889
1880	0.8895
1889	0.8897
1898	0.8884
1907	0.8842
1916	0.877
1925	0.8798
1934	0.8865
1943	0.8876
1952	0.8836
1961	0.8948
1970	0.9048
1979	0.906
1988	0.9055
1997	0.9021
2006	0.8986
2015	0.8956
2024	0.8928
2033	0.894
2042	0.8957
2051	0.8955
2060	0.8947
2069	0.8963
2078	0.8982
2087	0.8976
2096	0.8968
2105	0.896
2114	0.8943
2123	0.897
2132	0.9001
2141	0.9033
2150	0.9066
2159	0.9073
2168	0.9064
2177	0.9047
2186	0.903
2195	0.9022
2204	0.9018
2213	0.9015
2222	0.9014
2231	0.9013
2240	0.9011
2249	0.9006
2258	0.9002
2267	0.8997
2276	0.8994
2285	0.8992
2294	0.8973
2303	0.898
2312	0.9009
2321	0.9038
2330	0.9043
2339	0.9071
2348	0.9116
2357	0.9096
2366	0.9038
2375	0.8906
2384	0.8813
2393	0.8767
2402	0.8715
2411	0.8703
2420	0.8698
2429	0.8727
2438	0.8772
2447	0.8817
2456	0.8861
2465	0.8899
2474	0.8933
2483	0.8952
2492	0.8962
2501	0.8959
2510	0.8957
2519	0.8956
2528	0.8956
2537	0.8956
2546	0.8957
2555	0.8958
2564	0.8959
2573	0.896
2582	0.8961
2591	0.8958
2600	0.8955
2609	0.8953
2618	0.8951
2627	0.8953
2636	0.8956
2645	0.8965
2654	0.8988
2663	0.9009
2672	0.9027
2681	0.9039
2690	0.902
2699	0.8968
2708	0.8932
2717	0.8955
2726	0.898
2735	0.8993
2744	0.9
2753	0.8989
2762	0.897
2771	0.8942
2780	0.8892
2789	0.8868
2798	0.8806
2807	0.87
2816	0.8615
2825	0.8547
2834	0.8519
2843	0.8461
2852	0.8391
2861	0.8281
2870	0.8178
2879	0.808
2888	0.7995
2897	0.7955
2906	0.7926
2915	0.7914
2924	0.7758
2933	0.7509
2942	0.7261
2951	0.7016
2960	0.6771
2969	0.67
2978	0.6807
2987	0.7109
2996	0.7409
3005	0.7707
3014	0.8164
3023	0.8248
3032	0.8328
3041	0.8405
3050	0.8484
3059	0.8564
3068	0.863
3077	0.8685
3086	0.8696
3095	0.8705
3104	0.8715
3113	0.8744
3122	0.8793
3131	0.8843
3140	0.8881
3149	0.8913
3158	0.8927
3167	0.893
3176	0.8928
3185	0.8918
3194	0.8907
3203	0.8886
3212	0.8858
3221	0.8824
3230	0.8781
3239	0.8722
3248	0.8683
3257	0.8658
3266	0.8633
3275	0.8611
3284	0.8601
3293	0.8592
3302	0.8583
3311	0.859
3320	0.8607
3329	0.8607
3338	0.8599
3347	0.8584
3356	0.8566
3365	0.8554
3374	0.8566
3383	0.8579
3392	0.8591
3401	0.8615
3410	0.8644
3419	0.8672
3428	0.8702
3437	0.8735
3446	0.8768
3455	0.8797
3464	0.8821
3473	0.8846
3482	0.887
3491	0.8885
3500	0.8895
3509	0.8906
3518	0.8911
3527	0.8911
3536	0.8911
3545	0.8911
3554	0.8911
3563	0.8917
3572	0.8927
3581	0.8936
3590	0.8945
3599	0.8955
3608	0.8971
3617	0.8988
3626	0.9005
3635	0.9021
3644	0.9038
3653	0.9042
3662	0.9044
3671	0.9045
3680	0.9047
3689	0.9049
3698	0.9049
3707	0.9049
3716	0.9048
3725	0.9048
3734	0.9047
3743	0.9047
3752	0.9047
3761	0.9046
3770	0.9047
3779	0.9051
3788	0.9055
3797	0.9059
3806	0.9063
3815	0.9067
3824	0.9076
3833	0.9085
3842	0.9095
3851	0.9095
3860	0.9087
3869	0.9077
3878	0.9066
3887	0.9055
3896	0.9044
3905	0.9038
3914	0.9035
3923	0.9033
3932	0.9033
3941	0.9033
3950	0.9033
3959	0.9033
3968	0.9033
3977	0.9033
3986	0.9033
3995	0.9033
