Infrared Spectrum: 3-PHENYLOXINDOLE
Formula: C14 H11 N O
CAS: 3456-79-9
State: SOLUTION (4.7% IN CHCl3)
Class: COBLENTZ
Instrument: PERKIN-ELMER
Sampling: TRANSMISSION
Path length: 0.010 CM CELL
Resolution: 4
Origin: ABBOTT LABORATORIES - WASHBURN
MICROMETERS	TRANSMITTANCE
2.023	0.9
2.06279	0.905
2.10257	0.901
2.14236	0.903
2.18214	0.905
2.22193	0.9066
2.26172	0.915
2.3015	0.916
2.34129	0.915
2.38107	0.918
2.42086	0.9197
2.46065	0.918
2.50043	0.92
2.54022	0.918
2.58001	0.9076
2.61979	0.916
2.65958	0.9159
2.69936	0.906
2.73915	0.911
2.77894	0.9178
2.81872	0.8928
2.85851	0.8655
2.89829	0.718
2.93808	0.7698
2.97787	0.7729
3.01765	0.717
3.05744	0.6542
3.09722	0.5902
3.13701	0.5909
3.1768	0.6303
3.21658	0.6556
3.25637	0.643
3.29615	0.631
3.33594	0.7201
3.37573	0.8163
3.41551	0.841
3.4553	0.8311
3.49509	0.8482
3.53487	0.8555
3.57466	0.876
3.61444	0.8881
3.65423	0.8931
3.69402	0.8998
3.7338	0.9
3.77359	0.905
3.81337	0.9051
3.85316	0.9079
3.89295	0.9112
3.93273	0.913
3.97252	0.916
4.0123	0.913
4.05209	0.911
4.09188	0.9162
4.13166	0.92
4.17145	0.925
4.21123	0.9279
4.25102	0.915
4.29081	0.9182
4.33059	0.9153
4.37038	0.925
4.41017	0.921
4.44995	0.925
4.48974	0.9229
4.52952	0.921
4.56931	0.9232
4.6091	0.92
4.64888	0.918
4.68867	0.9199
4.72845	0.916
4.76824	0.921
4.80803	0.921
4.84781	0.92
4.8876	0.9151
4.92738	0.92
4.96717	0.92
5.00696	0.918
5.04674	0.9081
5.08653	0.8983
5.12631	0.8908
5.1661	0.9034
5.20589	0.9008
5.24567	0.8883
5.28546	0.8938
5.32524	0.8905
5.36503	0.8905
5.40482	0.8871
5.4446	0.8849
5.48439	0.8565
5.52418	0.838
5.56396	0.8408
5.60375	0.8146
5.64353	0.7653
5.68332	0.6961
5.72311	0.4628
5.76289	0.1426
5.80268	0.0684
5.84246	0.0698
5.88225	0.265
5.92204	0.4576
5.96182	0.6529
6.00161	0.7495
6.04139	0.7769
6.08118	0.7245
6.12097	0.4856
6.16075	0.3684
6.20054	0.5827
6.24032	0.6816
6.28011	0.7957
6.3199	0.831
6.35968	0.8549
6.39947	0.8551
6.43926	0.8502
6.47904	0.845
6.51883	0.8366
6.55861	0.8217
6.5984	0.8127
6.63819	0.7705
6.67797	0.5776
6.71776	0.4884
6.75754	0.5041
6.79733	0.316
6.83712	0.6677
6.8769	0.665
6.91669	0.7987
6.95647	0.8143
6.99626	0.836
7.03605	0.8329
7.07583	0.7911
7.11562	0.781
7.1554	0.7925
7.19519	0.7724
7.23498	0.777
7.27476	0.8233
7.31455	0.8318
7.35434	0.8183
7.39412	0.8047
7.43391	0.7547
7.47369	0.689
7.51348	0.5715
7.55327	0.498
7.59305	0.5984
7.63284	0.7077
7.67262	0.6449
7.71241	0.643
7.7522	0.6646
7.79198	0.7259
7.83177	0.7876
7.87155	0.7657
7.91134	0.748
7.95113	0.7622
7.99091	0.7605
8.0307	0.7445
8.07048	0.7206
8.11027	0.6906
8.15006	0.6757
8.18984	0.6752
8.22963	0.681
8.26942	0.6795
8.3092	0.671
8.34899	0.67
8.38877	0.6978
8.42856	0.6839
8.46835	0.656
8.50813	0.7152
8.54792	0.7657
8.5877	0.7425
8.62749	0.7511
8.66728	0.783
8.70706	0.8304
8.74685	0.8375
8.78663	0.8466
8.82642	0.85
8.86621	0.85
8.90599	0.853
8.94578	0.8509
8.98556	0.843
9.02535	0.835
9.06514	0.7963
9.10492	0.6751
9.14471	0.7739
9.1845	0.8251
9.22428	0.835
9.26407	0.8071
9.30385	0.7832
9.34364	0.8322
9.38343	0.8749
9.42321	0.895
9.463	0.9065
9.50278	0.909
9.54257	0.9059
9.58236	0.906
9.62214	0.9
9.66193	0.8831
9.70171	0.8306
9.7415	0.8697
9.78129	0.8226
9.82107	0.7695
9.86086	0.8336
9.90064	0.851
9.94043	0.8383
9.98022	0.8472
10.02	0.855
10.0598	0.856
10.0996	0.8569
10.1394	0.856
10.1791	0.86
10.2189	0.853
10.2587	0.855
10.2985	0.856
10.3383	0.8559
10.3781	0.858
10.4179	0.858
10.4576	0.861
10.4974	0.855
10.5372	0.86
10.577	0.8553
10.6168	0.8375
10.6566	0.8076
10.6964	0.781
10.7362	0.7913
10.7759	0.8038
10.8157	0.8189
10.8555	0.831
10.8953	0.824
10.9351	0.7995
10.9749	0.786
11.0147	0.803
11.0544	0.8279
11.0942	0.8376
11.134	0.8396
11.1738	0.8385
11.2136	0.8366
11.2534	0.833
11.2932	0.8304
11.3329	0.813
11.3727	0.8056
11.4125	0.793
11.4523	0.795
11.4921	0.795
11.5319	0.8014
11.5717	0.8233
11.6114	0.833
11.6512	0.838
11.691	0.835
11.7308	0.841
11.7706	0.8413
11.8104	0.8357
11.8502	0.8122
11.8899	0.8004
11.9297	0.798
11.9695	0.819
12.0093	0.83
12.0491	0.833
12.0889	0.833
12.1287	0.83
12.1685	0.8341
12.2082	0.831
12.248	0.8348
12.2878	0.8401
12.3276	0.846
12.3674	0.85
12.4072	0.846
12.447	0.8546
12.4867	0.858
12.5265	0.8567
12.5663	0.855
12.6061	0.8519
12.6459	0.8441
12.6857	0.8356
12.7255	0.82
12.7652	0.8044
12.805	0.796
12.8448	0.7847
12.8846	0.7757
12.9244	0.761
12.9642	0.7531
13.004	0.748
13.0437	0.743
13.0835	0.745
13.1233	0.74
13.1631	0.741
13.2029	0.7337
13.2427	0.7303
13.2825	0.726
13.3222	0.723
13.362	0.718
13.4018	0.7121
13.4416	0.7106
13.4814	0.71
13.5212	0.7045
13.561	0.696
13.6008	0.695
13.6405	0.6948
13.6803	0.685
13.7201	0.6831
13.7599	0.676
13.7997	0.6733
13.8395	0.671
13.8793	0.67
13.919	0.671
13.9588	0.671
13.9986	0.671
14.0384	0.666
14.0782	0.6534
14.118	0.6283
14.1578	0.5889
14.1975	0.5613
14.2373	0.5259
14.2771	0.516
14.3169	0.506
14.3567	0.4881
14.3965	0.478
14.4363	0.476
14.476	0.4903
14.5158	0.5387
14.5556	0.5928
14.5954	0.6371
14.6352	0.6647
14.675	0.6869
14.7148	0.7068
14.7545	0.7153
14.7943	0.723
14.8341	0.726
14.8739	0.723
14.9137	0.7232
14.9535	0.726
14.9933	0.725
15.033	0.7183
15.0728	0.7151
15.1126	0.7034
15.1524	0.69
15.1922	0.696
15.232	0.696
15.2718	0.7055
15.3116	0.7324
15.3513	0.7431
