Infrared Spectrum: P-P'-DICHLORO-BENZIL
Formula: C14 H8 Cl2 O2
CAS: 3457-46-3
State: SOLID (1.0% IN KBr PELLET)
Class: COBLENTZ
Instrument: Not specified, most likely a prism, grating, or hybrid spectrometer.
Sampling: TRANSMISSION
Path length: 0.0355 CM
Resolution: 4
Origin: ANDERSON PHYSICAL LABORATORY
1/CM	TRANSMITTANCE
673.005	0.788
681.422	0.6892
689.838	0.7157
698.255	0.7991
706.671	0.8408
715.088	0.905
723.504	0.8291
731.921	0.5121
740.337	0.718
748.754	0.904
757.17	0.725
765.587	0.4422
774.003	0.9318
782.42	0.988
790.836	0.98
799.253	0.944
807.669	0.911
816.086	0.85
824.502	0.761
832.919	0.427
841.335	0.293
849.752	0.7839
858.168	0.845
866.585	0.904
875.001	0.832
883.418	0.4101
891.834	0.8979
900.251	0.985
908.667	0.95
917.084	0.899
925.5	0.902
933.917	0.893
942.333	0.889
950.75	0.892
959.166	0.881
967.583	0.835
975.999	0.875
984.416	0.893
992.832	0.889
1001.25	0.869
1009.67	0.823
1018.08	0.6228
1026.5	0.8708
1034.91	0.859
1043.33	0.844
1051.75	0.821
1060.16	0.797
1068.58	0.751
1077	0.628
1085.41	0.509
1093.83	0.394
1102.25	0.3799
1110.66	0.8059
1119.08	0.797
1127.5	0.862
1135.91	0.857
1144.33	0.875
1152.75	0.848
1161.16	0.797
1169.58	0.625
1178	0.313
1186.41	0.7028
1194.83	0.85
1203.24	0.7311
1211.66	0.409
1220.08	0.335
1228.49	0.791
1236.91	0.782
1245.33	0.91
1253.74	0.956
1262.16	0.958
1270.58	0.938
1278.99	0.853
1287.41	0.694
1295.83	0.758
1304.24	0.746
1312.66	0.632
1321.08	0.562
1329.49	0.7101
1337.91	0.836
1346.33	0.89
1354.74	0.902
1363.16	0.886
1371.57	0.88
1379.99	0.871
1388.41	0.85
1396.82	0.781
1405.24	0.58
1413.66	0.6581
1422.07	0.761
1430.49	0.737
1438.91	0.746
1447.32	0.799
1455.74	0.814
1464.16	0.803
1472.57	0.775
1480.99	0.742
1489.41	0.626
1497.82	0.6761
1506.24	0.814
1514.66	0.818
1523.07	0.79
1531.49	0.764
1539.9	0.742
1548.32	0.713
1556.74	0.665
1565.15	0.596
1573.57	0.4239
1581.99	0.344
1590.4	0.194
1598.82	0.4122
1607.24	0.557
1615.65	0.644
1624.07	0.67
1632.49	0.607
1640.9	0.568
1649.32	0.454
1657.74	0.2269
1666.15	0.091
1674.57	0.2121
1682.99	0.3551
1691.4	0.523
1699.82	0.629
1708.23	0.743
1716.65	0.788
1725.07	0.866
1733.48	0.892
1741.9	0.898
1750.32	0.901
1758.73	0.919
1767.15	0.928
1775.57	0.922
1783.98	0.901
1792.4	0.89
1800.82	0.917
1809.23	0.935
1817.65	0.931
1826.07	0.926
1834.48	0.923
1842.9	0.923
1851.32	0.923
1859.73	0.92
1868.15	0.919
1876.56	0.919
1884.98	0.916
1893.4	0.91
1901.81	0.895
1910.23	0.886
1918.65	0.871
1927.06	0.872
1935.48	0.889
1943.9	0.896
1952.31	0.902
1960.73	0.902
1969.15	0.902
1977.56	0.899
1985.98	0.899
1994.4	0.898
2002.81	0.896
2011.23	0.895
2019.65	0.893
2028.06	0.8925
2036.48	0.892
2044.89	0.89
2053.31	0.889
2061.73	0.8875
2070.14	0.8845
2078.56	0.884
2086.98	0.884
2095.39	0.883
2103.81	0.8802
2112.23	0.878
2120.64	0.8765
2129.06	0.8745
2137.48	0.8712
2145.89	0.868
2154.31	0.8657
2162.73	0.863
2171.14	0.862
2179.56	0.862
2187.98	0.86
2196.39	0.8595
2204.81	0.859
2213.22	0.857
2221.64	0.857
2230.06	0.856
2238.47	0.854
2246.89	0.8509
2255.31	0.8477
2263.72	0.847
2272.14	0.847
2280.56	0.8439
2288.97	0.8417
2297.39	0.839
2305.81	0.8328
2314.22	0.829
2322.64	0.829
2331.06	0.829
2339.47	0.827
2347.89	0.8238
2356.31	0.8177
2364.72	0.817
2373.14	0.8178
2381.55	0.8201
2389.97	0.8207
2398.39	0.8183
2406.8	0.8142
2415.22	0.8079
2423.64	0.8044
2432.05	0.803
2440.47	0.802
2448.89	0.8
2457.3	0.7997
2465.72	0.7964
2474.14	0.7932
2482.55	0.7909
2490.97	0.788
2499.39	0.7858
2507.8	0.7812
2516.22	0.7758
2524.64	0.7713
2533.05	0.7678
2541.47	0.7662
2549.88	0.764
2558.3	0.7607
2566.72	0.7552
2575.13	0.7485
2583.55	0.7418
2591.97	0.739
2600.38	0.7396
2608.8	0.7447
2617.22	0.746
2625.63	0.7467
2634.05	0.749
2642.47	0.749
2650.88	0.748
2659.3	0.748
2667.72	0.748
2676.13	0.746
2684.55	0.7448
2692.97	0.7426
2701.38	0.7394
2709.8	0.739
2718.21	0.737
2726.63	0.7377
2735.05	0.739
2743.46	0.739
2751.88	0.7387
2760.3	0.7349
2768.71	0.7318
2777.13	0.7301
2785.55	0.7279
2793.96	0.7232
2802.38	0.7197
2810.8	0.718
2819.21	0.715
2827.63	0.7112
2836.05	0.7034
2844.46	0.7001
2852.88	0.698
2861.3	0.698
2869.71	0.6974
2878.13	0.6952
2886.54	0.694
2894.96	0.694
2903.38	0.692
2911.79	0.6892
2920.21	0.686
2928.63	0.685
2937.04	0.683
2945.46	0.6802
2953.88	0.6768
2962.29	0.6736
2970.71	0.669
2979.13	0.665
2987.54	0.6637
2995.96	0.6586
3004.38	0.656
3012.79	0.6532
3021.21	0.6517
3029.63	0.6482
3038.04	0.6447
3046.46	0.6402
3054.87	0.6378
3063.29	0.6337
3071.71	0.627
3080.12	0.6232
3088.54	0.6127
3096.96	0.5994
3105.37	0.595
3113.79	0.5988
3122.21	0.6132
3130.62	0.6164
3139.04	0.6191
3147.46	0.6229
3155.87	0.625
3164.29	0.6254
3172.71	0.6274
3181.12	0.6261
3189.54	0.626
3197.96	0.6269
3206.37	0.6287
3214.79	0.631
3223.2	0.6288
3231.62	0.626
3240.04	0.6236
3248.45	0.622
3256.87	0.62
3265.29	0.62
3273.7	0.6193
3282.12	0.6161
3290.54	0.6096
3298.95	0.6045
3307.37	0.602
3315.79	0.601
3324.2	0.5988
3332.62	0.598
3341.04	0.598
3349.45	0.6009
3357.87	0.5988
3366.29	0.598
3374.7	0.5953
3383.12	0.593
3391.53	0.5915
3399.95	0.588
3408.37	0.5846
3416.78	0.5811
3425.2	0.5808
3433.62	0.578
3442.03	0.575
3450.45	0.574
3458.87	0.5735
3467.28	0.5715
3475.7	0.571
3484.12	0.571
3492.53	0.571
3500.95	0.571
3509.37	0.569
3517.78	0.569
3526.2	0.5675
3534.62	0.5655
3543.03	0.565
3551.45	0.565
3559.86	0.563
3568.28	0.563
3576.7	0.563
3585.11	0.566
3593.53	0.569
3601.95	0.569
3610.36	0.569
3618.78	0.572
3627.2	0.572
3635.61	0.569
3644.03	0.569
3652.45	0.572
3660.86	0.5755
3669.28	0.578
3677.7	0.58
3686.11	0.581
3694.53	0.5833
3702.95	0.586
3711.36	0.587
3719.78	0.586
3728.19	0.589
3736.61	0.589
3745.03	0.589
3753.44	0.589
3761.86	0.587
3770.28	0.5881
3778.69	0.5944
3787.11	0.5961
3795.53	0.5971
3803.94	0.5925
3812.36	0.593
3820.78	0.596
3829.19	0.5983
3837.61	0.601
3846.03	0.601
3854.44	0.5988
3862.86	0.5957
3871.28	0.5924
3879.69	0.59
3888.11	0.5889
3896.52	0.587
3904.94	0.5881
3913.36	0.5898
3921.77	0.592
3930.19	0.592
3938.61	0.592
3947.02	0.592
3955.44	0.5919
3963.86	0.589
3972.27	0.589
3980.69	0.5898
