Infrared Spectrum: t-Butyl cumyl peroxide
Formula: C 13 H 20 O 2
CAS: 3457-61-2
State: gas
Origin: EPA-IR VAPOR PHASE LIBRARY
1/CM	ABSORBANCE
549.9	0.00657
559.547	0.00485
569.193	0.00713
578.84	0.02131
588.486	0.0282
598.133	0.01636
607.779	0.00636
617.426	0.00344
627.072	0.00219
636.719	0.0015795
646.365	0.0017349
656.012	0.00272
665.658	0.00632
675.305	0.01318
684.951	0.02012
694.598	0.02021
704.245	0.0145
713.891	0.00762
723.538	0.00493
733.184	0.00693
742.831	0.01404
752.477	0.02337
762.124	0.01849
771.77	0.01176
781.417	0.00459
791.063	0.00256
800.71	0.0021562
810.356	0.0018358
820.003	0.0016684
829.649	0.0017839
839.296	0.0019007
848.943	0.0020323
858.589	0.00224
868.236	0.00264
877.882	0.00306
887.529	0.00385
897.175	0.00459
906.822	0.00478
916.468	0.00498
926.115	0.00542
935.761	0.00917
945.408	0.01456
955.054	0.01463
964.701	0.00803
974.347	0.00427
983.994	0.00311
993.64	0.0031
1003.29	0.00387
1012.93	0.00655
1022.58	0.00778
1032.23	0.00656
1041.87	0.00265
1051.52	0.00294
1061.17	0.00444
1070.81	0.00609
1080.46	0.00652
1090.11	0.00587
1099.75	0.00431
1109.4	0.00365
1119.05	0.0031
1128.69	0.00279
1138.34	0.00288
1147.99	0.00377
1157.63	0.00561
1167.28	0.01025
1176.92	0.0188
1186.57	0.02739
1196.22	0.03071
1205.86	0.03243
1215.51	0.03741
1225.16	0.03897
1234.8	0.04433
1244.45	0.05646
1254.1	0.09331
1263.74	0.09465
1273.39	0.03638
1283.04	0.01006
1292.68	0.00872
1302.33	0.01022
1311.98	0.00987
1321.62	0.01054
1331.27	0.01553
1340.92	0.02709
1350.56	0.04499
1360.21	0.05817
1369.86	0.05825
1379.5	0.03872
1389.15	0.02457
1398.79	0.01572
1408.44	0.01349
1418.09	0.01418
1427.73	0.01599
1437.38	0.01999
1447.03	0.02112
1456.67	0.01834
1466.32	0.01143
1475.97	0.00911
1485.61	0.00753
1495.26	0.00701
1504.91	0.00674
1514.55	0.00666
1524.2	0.00673
1533.85	0.00667
1543.49	0.00658
1553.14	0.00636
1562.79	0.00656
1572.43	0.00777
1582.08	0.00933
1591.73	0.01095
1601.37	0.01017
1611.02	0.00821
1620.67	0.00514
1630.31	0.00389
1639.96	0.00402
1649.6	0.00542
1659.25	0.00826
1668.9	0.01174
1678.54	0.02043
1688.19	0.04723
1697.84	0.10044
1707.48	0.11986
1717.13	0.09984
1726.78	0.06278
1736.42	0.05711
1746.07	0.05242
1755.72	0.04362
1765.36	0.02925
1775.01	0.01732
1784.66	0.01074
1794.3	0.00769
1803.95	0.00611
1813.6	0.00443
1823.24	0.00292
1832.89	0.00225
1842.54	0.0019503
1852.18	0.0016345
1861.83	0.0013129
1871.47	0.001431
1881.12	0.0018286
1890.77	0.0020629
1900.41	0.0019423
1910.06	0.001484
1919.71	0.0010966
1929.35	0.001007
1939	0.0013774
1948.65	0.0018912
1958.29	0.002065
1967.94	0.001929
1977.59	0.0014325
1987.23	0.001019
1996.88	0.000685
2006.53	0.000442
2016.17	0.000444
2025.82	0.000493
2035.47	0.000411
2045.11	0.000424
2054.76	0.000336
2064.41	0.000392
2074.05	0.000523
2083.7	0.000582
2093.35	0.000645
2102.99	0.000735
2112.64	0.000823
2122.28	0.00084
2131.93	0.00077
2141.58	0.000736
2151.22	0.000605
2160.87	0.00047
2170.52	0.000379
2180.16	0.000332
2189.81	0.000358
2199.46	0.000389
2209.1	0.000438
2218.75	0.000437
2228.4	0.000446
2238.04	0.000448
2247.69	0.000429
2257.34	0.000506
2266.98	0.000538
2276.63	0.000603
2286.28	0.000622
2295.92	0.000655
2305.57	0.000831
2315.22	0.0011085
2324.86	0.00121527
2334.51	0.00095
2344.16	0.000842
2353.8	0.000711
2363.45	0.000746
2373.09	0.000669
2382.74	0.00051
2392.39	0.000384
2402.03	0.000293
2411.68	0.000208
2421.33	0.000272
2430.97	0.000267
2440.62	0.000216
2450.27	0.00014
2459.91	0.000176
2469.56	0.00013
2479.21	0.00014
2488.85	0.00012
2498.5	0.000259
2508.15	0.00027
2517.79	0.000332
2527.44	0.000206
2537.09	0.00018
2546.73	0.000357
2556.38	0.000332
2566.03	0.000404
2575.67	0.000392
2585.32	0.000424
2594.96	0.000393
2604.61	0.000392
2614.26	0.000333
2623.9	0.000384
2633.55	0.00032
2643.2	0.000339
2652.84	0.0003
2662.49	0.000309
2672.14	0.000295
2681.78	0.00013
2691.43	0.000217
2701.08	0.000227
2710.72	0.000294
2720.37	0.000404
2730.02	0.000477
2739.66	0.000666
2749.31	0.000901
2758.96	0.000805
2768.6	0.0011136
2778.25	0.0012883
2787.9	0.0013212
2797.54	0.0013289
2807.19	0.001698
2816.84	0.0021485
2826.48	0.00296
2836.13	0.00424
2845.77	0.00596
2855.42	0.00812
2865.07	0.01113
2874.71	0.0132
2884.36	0.01459
2894.01	0.01787
2903.65	0.01697
2913.3	0.02407
2922.95	0.02973
2932.59	0.03089
2942.24	0.03038
2951.89	0.0331
2961.53	0.03084
2971.18	0.03611
2980.83	0.03505
2990.47	0.03403
3000.12	0.03228
3009.77	0.03147
3019.41	0.02986
3029.06	0.02802
3038.71	0.02605
3048.35	0.02379
3058	0.02309
3067.64	0.0259
3077.29	0.02544
3086.94	0.02017
3096.58	0.01538
3106.23	0.01002
3115.88	0.00573
3125.52	0.00322
3135.17	0.0020227
3144.82	0.0016125
3154.46	0.0014084
3164.11	0.0011404
3173.76	0.000841
3183.4	0.000514
3193.05	0.000276
3202.7	0.000332
3212.34	0.000316
3221.99	0.000237
3231.64	0.000305
3241.28	0.000217
3250.93	0.000183
3260.58	0.000239
3270.22	0.00022
3279.87	5e-05
3289.52	2e-05
3299.16	0.000272
3308.81	8e-05
3318.45	7e-05
3328.1	0.000171
3337.75	0.000288
3347.39	0.000213
3357.04	0.000557
3366.69	0.000576
3376.33	0.0015176
3385.98	0.0020734
3395.63	0.00219
3405.27	0.0018813
3414.92	0.0013663
3424.57	0.0012657
3434.21	0.0015866
3443.86	0.0016253
3453.51	0.0015684
3463.15	0.0015895
3472.8	0.0014022
3482.45	0.001052
3492.09	0.000781
3501.74	0.000641
3511.39	0.000558
3521.03	0.000462
3530.68	0.000515
3540.33	0.00037
3549.97	0.00041
3559.62	0.000637
3569.26	0.000518
3578.91	0.000468
3588.56	0.000466
3598.2	0.000438
3607.85	0.000588
3617.5	0.000597
3627.14	0.000401
3636.79	0.000499
3646.44	0.000678
3656.08	0.00072
3665.73	0.000675
3675.38	0.00057
3685.02	0.000477
3694.67	0.000617
3704.32	0.00059
3713.96	0.000703
3723.61	0.00064
3733.26	0.000652
3742.9	0.000739
3752.55	0.00054
3762.2	0.000502
3771.84	0.0006
3781.49	0.000779
3791.13	0.000822
3800.78	0.0007
3810.43	0.000631
3820.07	0.000634
3829.72	0.000601
3839.37	0.000433
3849.01	0.000679
3858.66	0.000565
3868.31	0.000375
3877.95	0.000593
3887.6	0.000549
3897.25	0.000518
3906.89	0.000588
3916.54	0.000595
3926.19	0.000555
3935.83	0.000589
3945.48	0.000678
3955.13	0.000659
3964.77	0.000758
3974.42	0.000702
3984.07	0.000628
3993.71	0.000722
