Infrared Spectrum: BENZOPHENONE, 4-HEXADECYLOXY-2-HYDROXY-
Formula: C29 H42 O3
CAS: 3457-17-8
State: SOLID (KBr PELLET)
Class: COBLENTZ
Instrument: Not specified, most likely a prism, grating, or hybrid spectrometer.
Sampling: TRANSMISSION
Resolution: 4
Origin: TENNESSEE EASTMAN COMPANY, RESEARCH LABORATORIES
MICROMETERS	TRANSMITTANCE
2.034	0.77
2.07501	0.768
2.11602	0.763
2.15703	0.763
2.19803	0.765
2.23904	0.766
2.28005	0.766
2.32106	0.77
2.36207	0.777
2.40308	0.78
2.44409	0.789
2.4851	0.794
2.5261	0.801
2.56711	0.804
2.60812	0.809
2.64913	0.818
2.69014	0.826
2.73115	0.828
2.77216	0.819
2.81317	0.794
2.85417	0.78
2.89518	0.771
2.93619	0.773
2.9772	0.804
3.01821	0.833
3.05922	0.847
3.10023	0.852
3.14124	0.855
3.18224	0.859
3.22325	0.838
3.26426	0.797
3.30527	0.816
3.34628	0.704
3.38729	0.207
3.4283	0.356
3.46931	0.312
3.51031	0.686
3.55132	0.843
3.59233	0.864
3.63334	0.883
3.67435	0.907
3.71536	0.914
3.75637	0.915
3.79738	0.919
3.83838	0.919
3.87939	0.929
3.9204	0.939
3.96141	0.939
4.00242	0.946
4.04343	0.946
4.08444	0.946
4.12544	0.946
4.16645	0.946
4.20746	0.946
4.24847	0.945
4.28948	0.945
4.33049	0.95
4.3715	0.95
4.41251	0.951
4.45351	0.95
4.49452	0.95
4.53553	0.951
4.57654	0.953
4.61755	0.953
4.65856	0.958
4.69957	0.955
4.74058	0.951
4.78158	0.95
4.82259	0.95
4.8636	0.951
4.90461	0.95
4.94562	0.948
4.98663	0.951
5.02764	0.951
5.06865	0.95
5.10965	0.948
5.15066	0.95
5.19167	0.948
5.23268	0.95
5.27369	0.95
5.3147	0.951
5.35571	0.957
5.39672	0.962
5.43772	0.962
5.47873	0.96
5.51974	0.96
5.56075	0.96
5.60176	0.96
5.64277	0.96
5.68378	0.958
5.72478	0.957
5.76579	0.948
5.8068	0.948
5.84781	0.931
5.88882	0.909
5.92983	0.903
5.97084	0.881
6.01185	0.814
6.05285	0.72
6.09386	0.305
6.13487	0.099
6.17588	0.207
6.21689	0.214
6.2579	0.19
6.29891	0.375
6.33992	0.319
6.38092	0.542
6.42193	0.612
6.46294	0.622
6.50395	0.624
6.54496	0.588
6.58597	0.516
6.62698	0.463
6.66799	0.547
6.70899	0.631
6.75	0.518
6.79101	0.471
6.83202	0.586
6.87303	0.586
6.91404	0.626
6.95505	0.648
6.99606	0.612
7.03706	0.602
7.07807	0.598
7.11908	0.632
7.16009	0.579
7.2011	0.447
7.24211	0.348
7.28312	0.421
7.32413	0.48
7.36513	0.295
7.40614	0.197
7.44715	0.42
7.48816	0.581
7.52917	0.665
7.57018	0.67
7.61119	0.622
7.65219	0.607
7.6932	0.591
7.73421	0.584
7.77522	0.499
7.81623	0.322
7.85724	0.173
7.89825	0.078
7.93926	0.228
7.98026	0.367
8.02127	0.514
8.06228	0.545
8.10329	0.406
8.1443	0.413
8.18531	0.574
8.22632	0.634
8.26733	0.6
8.30833	0.437
8.34934	0.406
8.39035	0.536
8.43136	0.569
8.47237	0.586
8.51338	0.588
8.55439	0.571
8.5954	0.643
8.6364	0.684
8.67741	0.723
8.71842	0.732
8.75943	0.732
8.80044	0.655
8.84145	0.516
8.88246	0.32
8.92347	0.469
8.96447	0.547
9.00548	0.636
9.04649	0.704
9.0875	0.727
9.12851	0.734
9.16952	0.74
9.21053	0.742
9.25153	0.706
9.29254	0.686
9.33355	0.72
9.37456	0.728
9.41557	0.734
9.45658	0.735
9.49759	0.735
9.5386	0.72
9.5796	0.691
9.62061	0.701
9.66162	0.677
9.70263	0.641
9.74364	0.607
9.78465	0.576
9.82566	0.66
9.86667	0.689
9.90767	0.691
9.94868	0.694
9.98969	0.708
10.0307	0.739
10.0717	0.742
10.1127	0.734
10.1537	0.672
10.1947	0.615
10.2357	0.639
10.2768	0.723
10.3178	0.751
10.3588	0.761
10.3998	0.765
10.4408	0.77
10.4818	0.773
10.5228	0.773
10.5638	0.771
10.6048	0.758
10.6458	0.703
10.6868	0.574
10.7278	0.519
10.7689	0.691
10.8099	0.72
10.8509	0.662
10.8919	0.612
10.9329	0.692
10.9739	0.732
11.0149	0.749
11.0559	0.765
11.0969	0.777
11.1379	0.78
11.1789	0.785
11.22	0.789
11.261	0.79
11.302	0.792
11.343	0.792
11.384	0.792
11.425	0.785
11.466	0.785
11.507	0.783
11.548	0.756
11.589	0.679
11.63	0.584
11.671	0.627
11.7121	0.684
11.7531	0.706
11.7941	0.722
11.8351	0.723
11.8761	0.722
11.9171	0.703
11.9581	0.641
11.9991	0.591
12.0401	0.667
12.0811	0.704
12.1221	0.711
12.1632	0.699
12.2042	0.658
12.2452	0.598
12.2862	0.516
12.3272	0.44
12.3682	0.437
12.4092	0.547
12.4502	0.627
12.4912	0.682
12.5322	0.708
12.5732	0.711
12.6143	0.653
12.6553	0.596
12.6963	0.559
12.7373	0.566
12.7783	0.608
12.8193	0.658
12.8603	0.689
12.9013	0.706
12.9423	0.72
12.9833	0.728
13.0243	0.739
13.0653	0.744
13.1064	0.744
13.1474	0.744
13.1884	0.742
13.2294	0.742
13.2704	0.742
13.3114	0.73
13.3524	0.675
13.3934	0.634
13.4344	0.655
13.4754	0.704
13.5164	0.739
13.5575	0.751
13.5985	0.753
13.6395	0.753
13.6805	0.756
13.7215	0.761
13.7625	0.759
13.8035	0.734
13.8445	0.701
13.8855	0.692
13.9265	0.72
13.9675	0.754
14.0085	0.768
14.0496	0.768
14.0906	0.763
14.1316	0.737
14.1726	0.701
14.2136	0.607
14.2546	0.454
14.2956	0.334
14.3366	0.301
14.3776	0.387
14.4186	0.536
14.4596	0.646
14.5007	0.701
14.5417	0.73
14.5827	0.744
14.6237	0.765
14.6647	0.78
14.7057	0.795
14.7467	0.804
14.7877	0.813
14.8287	0.814
14.8697	0.814
14.9107	0.816
14.9517	0.814
14.9928	0.806
15.0338	0.799
15.0748	0.799
15.1158	0.801
15.1568	0.801
15.1978	0.797
15.2388	0.79
15.2798	0.777
15.3208	0.756
15.3618	0.74
15.4028	0.728
15.4439	0.718
15.4849	0.711
15.5259	0.708
15.5669	0.701
15.6079	0.694
15.6489	0.68
15.6899	0.672
15.7309	0.66
15.7719	0.639
15.8129	0.61
15.8539	0.567
15.8949	0.528
15.936	0.504
15.977	0.49
