Infrared Spectrum: BENZOPHENONE, 2-HYDROXY-4-OCTADECYLOXY-
Formula: C31 H46 O3
CAS: 3457-13-4
State: SOLID (KBr PELLET)
Class: COBLENTZ
Instrument: Not specified, most likely a prism, grating, or hybrid spectrometer.
Sampling: TRANSMISSION
Resolution: 4
Origin: TENNESSEE EASTMAN COMPANY, RESEARCH LABORATORIES
MICROMETERS	TRANSMITTANCE
2.034	0.902
2.07497	0.911
2.11594	0.916
2.1569	0.919
2.19787	0.923
2.23884	0.923
2.27981	0.919
2.32077	0.919
2.36174	0.919
2.40271	0.919
2.44368	0.921
2.48465	0.925
2.52561	0.928
2.56658	0.928
2.60755	0.928
2.64852	0.933
2.68948	0.935
2.73045	0.935
2.77142	0.906
2.81239	0.858
2.85335	0.829
2.89432	0.807
2.93529	0.812
2.97626	0.85
3.01723	0.882
3.05819	0.901
3.09916	0.906
3.14013	0.919
3.1811	0.926
3.22206	0.93
3.26303	0.908
3.304	0.896
3.34497	0.717
3.38594	0.359
3.4269	0.321
3.46787	0.357
3.50884	0.599
3.54981	0.875
3.59077	0.894
3.63174	0.906
3.67271	0.914
3.71368	0.923
3.75465	0.923
3.79561	0.923
3.83658	0.923
3.87755	0.93
3.91852	0.935
3.95948	0.938
4.00045	0.942
4.04142	0.943
4.08239	0.943
4.12335	0.947
4.16432	0.947
4.20529	0.943
4.24626	0.945
4.28723	0.938
4.32819	0.935
4.36916	0.942
4.41013	0.95
4.4511	0.95
4.49206	0.95
4.53303	0.952
4.574	0.952
4.61497	0.952
4.65594	0.952
4.6969	0.952
4.73787	0.952
4.77884	0.952
4.81981	0.952
4.86077	0.952
4.90174	0.952
4.94271	0.952
4.98368	0.952
5.02465	0.954
5.06561	0.954
5.10658	0.95
5.14755	0.95
5.18852	0.952
5.22948	0.948
5.27045	0.948
5.31142	0.95
5.35239	0.952
5.39335	0.954
5.43432	0.954
5.47529	0.954
5.51626	0.954
5.55723	0.954
5.59819	0.952
5.63916	0.948
5.68013	0.948
5.7211	0.943
5.76206	0.933
5.80303	0.93
5.844	0.918
5.88497	0.913
5.92594	0.897
5.9669	0.863
6.00787	0.783
6.04884	0.65
6.08981	0.194
6.13077	0.374
6.17174	0.434
6.21271	0.442
6.25368	0.328
6.29465	0.454
6.33561	0.35
6.37658	0.679
6.41755	0.744
6.45852	0.771
6.49948	0.771
6.54045	0.689
6.58142	0.48
6.62239	0.579
6.66335	0.671
6.70432	0.701
6.74529	0.521
6.78626	0.56
6.82723	0.739
6.86819	0.744
6.90916	0.744
6.95013	0.759
6.9911	0.7
7.03206	0.732
7.07303	0.759
7.114	0.758
7.15497	0.781
7.19594	0.773
7.2369	0.732
7.27787	0.72
7.31884	0.679
7.35981	0.511
7.40077	0.402
7.44174	0.509
7.48271	0.652
7.52368	0.792
7.56465	0.775
7.60561	0.643
7.64658	0.471
7.68755	0.378
7.72852	0.25
7.76948	0.282
7.81045	0.524
7.85142	0.655
7.89239	0.718
7.93335	0.65
7.97432	0.632
8.01529	0.742
8.05626	0.831
8.09723	0.848
8.13819	0.787
8.17916	0.764
8.22013	0.819
8.2611	0.807
8.30206	0.713
8.34303	0.568
8.384	0.48
8.42497	0.526
8.46594	0.618
8.5069	0.439
8.54787	0.219
8.58884	0.529
8.62981	0.739
8.67077	0.809
8.71174	0.833
8.75271	0.807
8.79368	0.611
8.83465	0.499
8.87561	0.608
8.91658	0.717
8.95755	0.739
8.99852	0.783
9.03948	0.839
9.08045	0.862
9.12142	0.868
9.16239	0.873
9.20335	0.868
9.24432	0.839
9.28529	0.814
9.32626	0.856
9.36723	0.868
9.40819	0.87
9.44916	0.873
9.49013	0.875
9.5311	0.872
9.57206	0.85
9.61303	0.788
9.654	0.717
9.69497	0.729
9.73594	0.712
9.7769	0.705
9.81787	0.758
9.85884	0.722
9.89981	0.785
9.94077	0.834
9.98174	0.855
10.0227	0.882
10.0637	0.884
10.1046	0.884
10.1456	0.89
10.1866	0.89
10.2275	0.884
10.2685	0.892
10.3095	0.911
10.3505	0.904
10.3914	0.865
10.4324	0.88
10.4734	0.904
10.5143	0.914
10.5553	0.923
10.5963	0.921
10.6372	0.902
10.6782	0.879
10.7192	0.863
10.7601	0.863
10.8011	0.863
10.8421	0.865
10.883	0.875
10.924	0.884
10.965	0.865
11.0059	0.855
11.0469	0.894
11.0879	0.918
11.1288	0.93
11.1698	0.931
11.2108	0.938
11.2517	0.948
11.2927	0.957
11.3337	0.959
11.3746	0.959
11.4156	0.96
11.4566	0.96
11.4975	0.96
11.5385	0.96
11.5795	0.945
11.6205	0.919
11.6614	0.913
11.7024	0.911
11.7434	0.865
11.7843	0.715
11.8253	0.698
11.8663	0.773
11.9072	0.81
11.9482	0.834
11.9892	0.856
12.0301	0.86
12.0711	0.848
12.1121	0.805
12.153	0.807
12.194	0.829
12.235	0.839
12.2759	0.844
12.3169	0.846
12.3579	0.851
12.3988	0.85
12.4398	0.833
12.4808	0.802
12.5217	0.771
12.5627	0.735
12.6037	0.71
12.6446	0.686
12.6856	0.662
12.7266	0.642
12.7675	0.638
12.8085	0.684
12.8495	0.698
12.8905	0.708
12.9314	0.734
12.9724	0.754
13.0134	0.783
13.0543	0.8
13.0953	0.805
13.1363	0.809
13.1772	0.827
13.2182	0.848
13.2592	0.853
13.3001	0.856
13.3411	0.846
13.3821	0.817
13.423	0.804
13.464	0.809
13.505	0.834
13.5459	0.862
13.5869	0.889
13.6279	0.908
13.6688	0.911
13.7098	0.913
13.7508	0.911
13.7917	0.887
13.8327	0.802
13.8737	0.724
13.9146	0.683
13.9556	0.751
13.9966	0.826
14.0375	0.856
14.0785	0.862
14.1195	0.855
14.1605	0.834
14.2014	0.807
14.2424	0.78
14.2834	0.734
14.3243	0.674
14.3653	0.625
14.4063	0.543
14.4472	0.499
14.4882	0.528
14.5292	0.693
14.5701	0.787
14.6111	0.851
14.6521	0.89
14.693	0.914
14.734	0.933
14.775	0.948
14.8159	0.96
14.8569	0.967
14.8979	0.971
14.9388	0.967
14.9798	0.962
15.0208	0.96
15.0617	0.962
15.1027	0.962
15.1437	0.962
15.1846	0.959
15.2256	0.948
15.2666	0.925
15.3075	0.899
15.3485	0.863
15.3895	0.81
15.4305	0.766
15.4714	0.732
15.5124	0.725
15.5534	0.727
15.5943	0.739
15.6353	0.752
15.6763	0.766
15.7172	0.771
15.7582	0.771
15.7992	0.771
15.8401	0.766
15.8811	0.754
15.9221	0.734
15.963	0.724
16.004	0.722
