Infrared Spectrum: 4,4'-Dimethylbenzil
Formula: C 16 H 14 O 2
CAS: 3457-48-5
State: gas
Origin: EPA-IR VAPOR PHASE LIBRARY
1/CM	ABSORBANCE
501.5	0.003333
513.074	0.003143
524.648	0.001783
536.222	0.0008726
547.796	0.000778
559.37	0.0010619
570.944	0.001773
582.518	0.003853
594.092	0.017923
605.666	0.015133
617.24	0.004113
628.814	0.002863
640.388	0.002213
651.962	0.002103
663.536	0.003403
675.11	0.004213
686.684	0.007763
698.258	0.005203
709.832	0.006563
721.406	0.016623
732.98	0.026963
744.554	0.036643
756.128	0.021123
767.702	0.011443
779.276	0.011593
790.85	0.008963
802.423	0.008823
813.997	0.009973
825.571	0.017963
837.145	0.011843
848.719	0.007883
860.293	0.011243
871.867	0.023463
883.441	0.042603
895.015	0.013383
906.589	0.005313
918.163	0.003113
929.737	0.002663
941.311	0.002413
952.885	0.002843
964.459	0.002613
976.033	0.002373
987.607	0.002213
999.181	0.001813
1010.76	0.002713
1022.33	0.005303
1033.9	0.002283
1045.48	0.002853
1057.05	0.002343
1068.63	0.002043
1080.2	0.002043
1091.77	0.002253
1103.35	0.002533
1114.92	0.004843
1126.49	0.004223
1138.07	0.003723
1149.64	0.006643
1161.22	0.018523
1172.79	0.099553
1184.36	0.035143
1195.94	0.030863
1207.51	0.046423
1219.09	0.028013
1230.66	0.013833
1242.23	0.010323
1253.81	0.006523
1265.38	0.007033
1276.96	0.009453
1288.53	0.010803
1300.1	0.009913
1311.68	0.009443
1323.25	0.007173
1334.83	0.003403
1346.4	0.002843
1357.97	0.002643
1369.55	0.002483
1381.12	0.003143
1392.7	0.004043
1404.27	0.008243
1415.84	0.011083
1427.42	0.006393
1438.99	0.004503
1450.57	0.004193
1462.14	0.004063
1473.71	0.003883
1485.29	0.003593
1496.86	0.003763
1508.44	0.004223
1520.01	0.003773
1531.58	0.003833
1543.16	0.004363
1554.73	0.005593
1566.31	0.009313
1577.88	0.012163
1589.45	0.018943
1601.03	0.049883
1612.6	0.044453
1624.18	0.015823
1635.75	0.009833
1647.32	0.009903
1658.9	0.014173
1670.47	0.034713
1682.05	0.095583
1693.62	0.084023
1705.19	0.040333
1716.77	0.017803
1728.34	0.007443
1739.92	0.003653
1751.49	0.002353
1763.06	0.002053
1774.64	0.002383
1786.21	0.002463
1797.79	0.003053
1809.36	0.002633
1820.93	0.001453
1832.51	0.0011917
1844.08	0.0009452
1855.66	0.0007867
1867.23	0.0007242
1878.8	0.0007932
1890.38	0.000963
1901.95	0.001473
1913.53	0.001923
1925.1	0.001893
1936.67	0.0012947
1948.25	0.0009947
1959.82	0.0006931
1971.4	0.00068
1982.97	0.0006483
1994.54	0.0005883
2006.12	0.000608
2017.69	0.0006138
2029.27	0.0005842
2040.84	0.0006501
2052.41	0.0004693
2063.99	0.00042147
2075.56	0.00035556
2087.14	0.00036338
2098.71	0.0003629
2110.28	0.0003206
2121.86	0.000344388
2133.43	0.00036667
2145.01	0.000342263
2156.58	0.0003176
2168.15	0.00037018
2179.73	0.00035344
2191.3	0.00033458
2202.88	0.0002784
2214.45	0.000217
2226.02	0.000218
2237.6	0.0003047
2249.17	0.0003164
2260.74	0.00033706
2272.32	0.00033794
2283.89	0.000352537
2295.47	0.0005302
2307.04	0.0005638
2318.61	0.00039537
2330.19	0.00041546
2341.76	0.000350583
2353.34	0.00033823
2364.91	0.0003117
2376.48	0.00036844
2388.06	0.00043049
2399.63	0.0004713
2411.21	0.0004868
2422.78	0.0005149
2434.35	0.0005707
2445.93	0.000545
2457.5	0.0005595
2469.08	0.0006693
2480.65	0.0006552
2492.22	0.0006477
2503.8	0.0006135
2515.37	0.0006056
2526.95	0.0005885
2538.52	0.0005756
2550.09	0.0005944
2561.67	0.0007507
2573.24	0.0007545
2584.82	0.0008913
2596.39	0.0008164
2607.96	0.0006589
2619.54	0.0005984
2631.11	0.00044204
2642.69	0.00033401
2654.26	0.0002691
2665.83	0.0002919
2677.41	0.00033974
2688.98	0.00040648
2700.56	0.0004803
2712.13	0.0006084
2723.7	0.0007393
2735.28	0.0009819
2746.85	0.0010155
2758.43	0.0006601
2770	0.0006784
2781.57	0.0007722
2793.15	0.0008343
2804.72	0.0010214
2816.3	0.0012299
2827.87	0.0013339
2839.44	0.001673
2851.02	0.002343
2862.59	0.004123
2874.17	0.006423
2885.74	0.006603
2897.31	0.005983
2908.89	0.006113
2920.46	0.008693
2932.04	0.014883
2943.61	0.011423
2955.18	0.006073
2966.76	0.004753
2978.33	0.004673
2989.91	0.005883
3001.48	0.007973
3013.05	0.008463
3024.63	0.010333
3036.2	0.016953
3047.78	0.013293
3059.35	0.009133
3070.92	0.008713
3082.5	0.006293
3094.07	0.005163
3105.65	0.002883
3117.22	0.002313
3128.79	0.001773
3140.37	0.000976
3151.94	0.0006869
3163.52	0.0004555
3175.09	0.00038814
3186.66	0.00035987
3198.24	0.000346858
3209.81	0.0004253
3221.39	0.000345474
3232.96	0.0002624
3244.53	0.0002787
3256.11	0.0003191
3267.68	0.0002548
3279.26	0.000343155
3290.83	0.0003081
3302.4	0.0003674
3313.98	0.0004553
3325.55	0.0005963
3337.13	0.0008776
3348.7	0.001523
3360.27	0.001683
3371.85	0.0012037
3383.42	0.0008722
3395	0.0005599
3406.57	0.00037875
3418.14	0.0002439
3429.72	0.00019
3441.29	0.000142
3452.86	6.9e-05
3464.44	0.000159
3476.01	0.000168
3487.59	0.000151
3499.16	8.3e-05
3510.73	0.000109
3522.31	8.9e-05
3533.88	0.000132
3545.46	0.000123
3557.03	5.1e-05
3568.6	0.000122
3580.18	8.5e-05
3591.75	0.000105
3603.33	8.3e-05
3614.9	6.4e-05
3626.47	0.000147
3638.05	0.000234
3649.62	0.000112
3661.2	0.000245
3672.77	0.0003242
3684.34	0.0002557
3695.92	0.000149
3707.49	0.0002
3719.07	0.000174
3730.64	0.0002448
3742.21	0.000138
3753.79	0.000207
3765.36	0.000152
3776.94	0.000109
3788.51	0.000152
3800.08	0.00015
3811.66	0.000133
3823.23	0.000171
3834.81	0.0002
3846.38	0.0002555
3857.95	0.000224
3869.53	0.000247
3881.1	0.0002962
3892.68	0.0003003
3904.25	0.000201
3915.82	0.0002511
3927.4	0.000153
3938.97	0.000204
3950.55	0.000233
3962.12	0.000219
3973.69	0.000229
3985.27	0.000213
3996.84	0.000199
