Infrared Spectrum: D-(+)-MANNOSE
Formula: C6 H12 O6
CAS: 3458-28-4
State: SOLID (MINERAL OIL MULL)
Melting point: 128.5 C
Class: COBLENTZ
Instrument: Not specified, most likely a prism, grating, or hybrid spectrometer.
Sampling: TRANSMISSION
Resolution: 4
Origin: WYANDOTTE CHEMICALS CORP., WYANDOTTE, MICHIGAN, USA
MICROMETERS	TRANSMITTANCE
2.04	0.918
2.07979	0.922
2.11958	0.933
2.15937	0.93
2.19917	0.913
2.23896	0.908
2.27875	0.92
2.31854	0.925
2.35833	0.925
2.39812	0.918
2.43792	0.918
2.47771	0.927
2.5175	0.938
2.55729	0.95
2.59708	0.943
2.63687	0.953
2.67666	0.947
2.71646	0.922
2.75625	0.85
2.79604	0.549
2.83583	0.251
2.87562	0.147
2.91541	0.1
2.95521	0.092
2.995	0.057
3.03479	0.044
3.07458	0.115
3.11437	0.198
3.15416	0.205
3.19395	0.206
3.23375	0.362
3.27354	0.46
3.31333	0.447
3.35312	0.147
3.39291	0.044
3.4327	0.076
3.4725	0.137
3.51229	0.177
3.55208	0.559
3.59187	0.62
3.63166	0.652
3.67145	0.657
3.71124	0.673
3.75104	0.705
3.79083	0.736
3.83062	0.768
3.87041	0.789
3.9102	0.798
3.94999	0.811
3.98979	0.822
4.02958	0.837
4.06937	0.852
4.10916	0.869
4.14895	0.874
4.18874	0.885
4.22853	0.889
4.26833	0.894
4.30812	0.905
4.34791	0.933
4.3877	0.932
4.42749	0.918
4.46728	0.925
4.50708	0.932
4.54687	0.935
4.58666	0.938
4.62645	0.938
4.66624	0.932
4.70603	0.928
4.74582	0.935
4.78562	0.943
4.82541	0.942
4.8652	0.943
4.90499	0.948
4.94478	0.948
4.98457	0.951
5.02437	0.953
5.06416	0.942
5.10395	0.943
5.14374	0.942
5.18353	0.94
5.22332	0.942
5.26312	0.945
5.30291	0.947
5.3427	0.945
5.38249	0.945
5.42228	0.943
5.46207	0.942
5.50186	0.94
5.54166	0.938
5.58145	0.935
5.62124	0.93
5.66103	0.93
5.70082	0.928
5.74061	0.925
5.78041	0.92
5.8202	0.913
5.85999	0.908
5.89978	0.902
5.93957	0.892
5.97936	0.879
6.01915	0.864
6.05895	0.86
6.09874	0.864
6.13853	0.864
6.17832	0.862
6.21811	0.862
6.2579	0.86
6.2977	0.855
6.33749	0.85
6.37728	0.839
6.41707	0.834
6.45686	0.827
6.49665	0.819
6.53644	0.812
6.57624	0.801
6.61603	0.774
6.65582	0.736
6.69561	0.658
6.7354	0.557
6.77519	0.344
6.81499	0.266
6.85478	0.259
6.89457	0.349
6.93436	0.372
6.97415	0.384
7.01394	0.382
7.05373	0.425
7.09353	0.461
7.13332	0.433
7.17311	0.374
7.2129	0.238
7.25269	0.24
7.29248	0.215
7.33228	0.294
7.37207	0.327
7.41186	0.529
7.45165	0.586
7.49144	0.599
7.53123	0.62
7.57102	0.663
7.61082	0.675
7.65061	0.667
7.6904	0.589
7.73019	0.528
7.76998	0.415
7.80977	0.324
7.84957	0.299
7.88936	0.377
7.92915	0.435
7.96894	0.407
8.00873	0.45
8.04852	0.5
8.08831	0.521
8.12811	0.528
8.1679	0.498
8.20769	0.476
8.24748	0.408
8.28727	0.37
8.32706	0.389
8.36686	0.415
8.40665	0.521
8.44644	0.597
8.48623	0.642
8.52602	0.652
8.56581	0.662
8.6056	0.655
8.6454	0.639
8.68519	0.596
8.72498	0.485
8.76477	0.324
8.80456	0.235
8.84435	0.211
8.88415	0.213
8.92394	0.206
8.96373	0.139
9.00352	0.122
9.04331	0.182
9.0831	0.253
9.12289	0.329
9.16269	0.309
9.20248	0.198
9.24227	0.145
9.28206	0.082
9.32185	0.061
9.36164	0.064
9.40144	0.1
9.44123	0.135
9.48102	0.096
9.52081	0.054
9.5606	0.044
9.60039	0.046
9.64018	0.051
9.67998	0.086
9.71977	0.109
9.75956	0.097
9.79935	0.077
9.83914	0.074
9.87893	0.125
9.91873	0.231
9.95852	0.329
9.99831	0.423
10.0381	0.478
10.0779	0.518
10.1177	0.539
10.1575	0.546
10.1973	0.538
10.2371	0.48
10.2768	0.337
10.3166	0.236
10.3564	0.316
10.3962	0.382
10.436	0.304
10.4758	0.278
10.5156	0.442
10.5554	0.549
10.5952	0.612
10.635	0.647
10.6748	0.673
10.7146	0.69
10.7543	0.7
10.7941	0.706
10.8339	0.71
10.8737	0.7
10.9135	0.663
10.9533	0.538
10.9931	0.557
11.0329	0.683
11.0727	0.723
11.1125	0.738
11.1523	0.74
11.1921	0.73
11.2318	0.701
11.2716	0.634
11.3114	0.468
11.3512	0.513
11.391	0.609
11.4308	0.688
11.4706	0.718
11.5104	0.725
11.5502	0.73
11.59	0.73
11.6298	0.723
11.6696	0.716
11.7093	0.697
11.7491	0.67
11.7889	0.64
11.8287	0.564
11.8685	0.514
11.9083	0.549
11.9481	0.596
11.9879	0.591
12.0277	0.504
12.0675	0.382
12.1073	0.372
12.1471	0.458
12.1868	0.518
12.2266	0.543
12.2664	0.541
12.3062	0.468
12.346	0.37
12.3858	0.352
12.4256	0.382
12.4654	0.387
12.5052	0.397
12.545	0.418
12.5848	0.448
12.6246	0.486
12.6643	0.518
12.7041	0.539
12.7439	0.561
12.7837	0.579
12.8235	0.597
12.8633	0.605
12.9031	0.617
12.9429	0.625
12.9827	0.627
13.0225	0.635
13.0623	0.635
13.102	0.637
13.1418	0.639
13.1816	0.637
13.2214	0.634
13.2612	0.627
13.301	0.619
13.3408	0.617
13.3806	0.61
13.4204	0.6
13.4602	0.586
13.5	0.581
13.5398	0.571
13.5795	0.559
13.6193	0.546
13.6591	0.529
13.6989	0.516
13.7387	0.501
13.7785	0.49
13.8183	0.473
13.8581	0.456
13.8979	0.447
13.9377	0.437
13.9775	0.433
14.0173	0.428
14.057	0.423
14.0968	0.425
14.1366	0.425
14.1764	0.427
14.2162	0.433
14.256	0.442
14.2958	0.445
14.3356	0.448
14.3754	0.46
14.4152	0.468
14.455	0.476
14.4948	0.486
14.5345	0.491
14.5743	0.496
14.6141	0.498
14.6539	0.498
14.6937	0.496
14.7335	0.49
14.7733	0.485
14.8131	0.486
14.8529	0.495
14.8927	0.504
14.9325	0.511
14.9723	0.524
15.012	0.529
15.0518	0.539
15.0916	0.546
15.1314	0.549
15.1712	0.546
15.211	0.548
15.2508	0.552
15.2906	0.561
15.3304	0.571
15.3702	0.584
15.41	0.587
15.4498	0.589
15.4895	0.594
15.5293	0.599
15.5691	0.599
15.6089	0.6
15.6487	0.605
15.6885	0.605
15.7283	0.605
15.7681	0.605
15.8079	0.602
15.8477	0.599
15.8875	0.607
15.9272	0.61
15.967	0.61
