Infrared Spectrum: 5-Bromo-1-indanone
Formula: C 9 H 7 Br O
CAS: 34598-49-7
State: gas
Origin: EPA-IR VAPOR PHASE LIBRARY
1/CM	ABSORBANCE
549.8	0.003761
559.445	0.004941
569.09	0.006991
578.734	0.004941
588.379	0.004451
598.024	0.003431
607.669	0.002061
617.313	0.0010621
626.958	0.0011111
636.603	0.0010626
646.248	0.0016209
655.893	0.0014451
665.537	0.002191
675.182	0.002491
684.827	0.003121
694.472	0.002031
704.116	0.0015575
713.761	0.0012618
723.406	0.002001
733.051	0.006661
742.695	0.008051
752.34	0.002271
761.985	0.0014745
771.63	0.001871
781.275	0.002281
790.919	0.003951
800.564	0.010761
810.209	0.020341
819.854	0.018261
829.498	0.017131
839.143	0.013321
848.788	0.035071
858.433	0.047821
868.078	0.012521
877.722	0.009281
887.367	0.005041
897.012	0.002611
906.657	0.002221
916.301	0.002641
925.946	0.002671
935.591	0.002061
945.236	0.001981
954.88	0.001771
964.525	0.001851
974.17	0.002351
983.815	0.003811
993.46	0.003101
1003.1	0.006601
1012.75	0.016371
1022.39	0.035181
1032.04	0.021791
1041.68	0.013431
1051.33	0.028011
1060.97	0.026311
1070.62	0.009831
1080.26	0.003261
1089.91	0.005361
1099.55	0.006321
1109.2	0.006471
1118.84	0.007341
1128.49	0.003891
1138.13	0.002281
1147.78	0.001851
1157.42	0.007031
1167.07	0.012101
1176.71	0.004641
1186.36	0.014391
1196	0.041371
1205.64	0.009901
1215.29	0.002651
1224.93	0.005571
1234.58	0.015721
1244.22	0.018101
1253.87	0.014951
1263.51	0.020201
1273.16	0.009391
1282.8	0.009331
1292.45	0.015441
1302.09	0.044781
1311.74	0.048151
1321.38	0.013151
1331.03	0.005211
1340.67	0.003591
1350.32	0.003151
1359.96	0.003291
1369.61	0.003401
1379.25	0.003961
1388.9	0.005251
1398.54	0.007531
1408.18	0.012091
1417.83	0.013921
1427.47	0.008401
1437.12	0.008821
1446.76	0.011811
1456.41	0.010101
1466.05	0.009951
1475.7	0.005411
1485.34	0.002291
1494.99	0.002151
1504.63	0.002101
1514.28	0.002271
1523.92	0.002141
1533.57	0.002521
1543.21	0.003721
1552.86	0.008051
1562.5	0.022091
1572.15	0.038201
1581.79	0.054951
1591.44	0.084691
1601.08	0.074671
1610.73	0.022451
1620.37	0.008831
1630.01	0.006641
1639.66	0.006321
1649.3	0.005591
1658.95	0.004421
1668.59	0.003641
1678.24	0.004251
1687.88	0.006671
1697.53	0.011531
1707.17	0.014161
1716.82	0.023951
1726.46	0.073311
1736.11	0.231781
1745.75	0.222791
1755.4	0.061151
1765.04	0.020771
1774.69	0.009901
1784.33	0.006581
1793.98	0.004551
1803.62	0.003711
1813.27	0.003961
1822.91	0.004211
1832.55	0.003571
1842.2	0.002591
1851.84	0.002261
1861.49	0.0017162
1871.13	0.0016971
1880.78	0.001741
1890.42	0.001841
1900.07	0.002261
1909.71	0.002811
1919.36	0.002301
1929	0.001791
1938.65	0.0014626
1948.29	0.0012627
1957.94	0.0013353
1967.58	0.0012699
1977.23	0.0012842
1986.87	0.0010703
1996.52	0.0009213
2006.16	0.0010894
2015.81	0.0009507
2025.45	0.0010798
2035.1	0.0011706
2044.74	0.0014843
2054.38	0.0011717
2064.03	0.0009579
2073.67	0.00076496
2083.32	0.000526
2092.96	0.0009235
2102.61	0.0010497
2112.25	0.0011236
2121.9	0.0009438
2131.54	0.00077362
2141.19	0.0009824
2150.83	0.0008867
2160.48	0.0006338
2170.12	0.0009179
2179.77	0.00081406
2189.41	0.0008674
2199.06	0.0009395
2208.7	0.0012533
2218.35	0.0013071
2227.99	0.0013378
2237.64	0.0010417
2247.28	0.0010286
2256.92	0.0011474
2266.57	0.0012696
2276.21	0.0013777
2285.86	0.0011342
2295.5	0.0011757
2305.15	0.0011167
2314.79	0.001301
2324.44	0.0014102
2334.08	0.0015739
2343.73	0.0012495
2353.37	0.0013382
2363.02	0.001181
2372.66	0.000931
2382.31	0.0010905
2391.95	0.0009352
2401.6	0.0012735
2411.24	0.0006857
2420.89	0.0011373
2430.53	0.0010309
2440.18	0.0010218
2449.82	0.0009438
2459.47	0.0012152
2469.11	0.0008568
2478.75	0.0011975
2488.4	0.0011382
2498.04	0.0009045
2507.69	0.0010523
2517.33	0.0011152
2526.98	0.0012593
2536.62	0.00081549
2546.27	0.0010829
2555.91	0.0013905
2565.56	0.0013316
2575.2	0.0015148
2584.85	0.0012255
2594.49	0.0011459
2604.14	0.0010473
2613.78	0.0012349
2623.43	0.0009156
2633.07	0.0008646
2642.72	0.0008894
2652.36	0.0011482
2662.01	0.0011467
2671.65	0.0014349
2681.29	0.0010882
2690.94	0.0013023
2700.58	0.0015222
2710.23	0.0010828
2719.87	0.0012944
2729.52	0.0009097
2739.16	0.0009376
2748.81	0.0015345
2758.45	0.0014662
2768.1	0.0011874
2777.74	0.001395
2787.39	0.0009597
2797.03	0.0010842
2806.68	0.0014309
2816.32	0.002081
2825.97	0.001911
2835.61	0.001941
2845.26	0.002861
2854.9	0.003221
2864.55	0.004561
2874.19	0.004571
2883.84	0.004411
2893.48	0.002471
2903.12	0.002001
2912.77	0.002701
2922.41	0.004891
2932.06	0.013551
2941.7	0.024571
2951.35	0.016101
2960.99	0.009401
2970.64	0.009301
2980.28	0.005991
2989.93	0.002271
2999.57	0.0015577
3009.22	0.0016057
3018.86	0.001951
3028.51	0.002311
3038.15	0.002581
3047.8	0.003021
3057.44	0.003521
3067.09	0.003361
3076.73	0.004201
3086.38	0.003251
3096.02	0.002371
3105.67	0.0012898
3115.31	0.0009534
3124.95	0.001731
3134.6	0.0012805
3144.24	0.0013482
3153.89	0.0010966
3163.53	0.0012911
3173.18	0.000534
3182.82	0.00082048
3192.47	0.0011333
3202.11	0.00078517
3211.76	0.00074885
3221.4	0.0006351
3231.05	0.000554
3240.69	0.0006578
3250.34	0.0011421
3259.98	0.000535
3269.63	0.0009452
3279.27	0.000576
3288.92	0.0008887
3298.56	0.0006715
3308.21	0.000573
3317.85	0.0008687
3327.49	0.0012119
3337.14	0.0017092
3346.78	0.0013287
3356.43	0.0008747
3366.07	0.0009933
3375.72	0.00076174
3385.36	0.00071166
3395.01	0.0009217
3404.65	0.000720761
3414.3	0.00041
3423.94	0.0012168
3433.59	0.001791
3443.23	0.002631
3452.88	0.003551
3462.52	0.004731
3472.17	0.003381
3481.81	0.0016551
3491.46	0.002161
3501.1	0.0012433
3510.75	0.0013189
3520.39	0.0006566
3530.04	0.0009356
3539.68	0.0006234
3549.32	0.001064
3558.97	0.000635
3568.61	0.0011132
3578.26	0.0006421
3587.9	0.0010617
3597.55	0.0008816
3607.19	0.0006527
3616.84	0.00074292
3626.48	0.000606
3636.13	0.0006696
3645.77	0.0011525
3655.42	0.0016542
3665.06	0.0008575
3674.71	0.0010077
3684.35	0.00057
3694	0.000258
3703.64	0.0009753
3713.29	0.0008525
3722.93	0.000562
3732.58	0.0010728
3742.22	0.000612
3751.86	0.0012384
3761.51	0.0010548
3771.15	0.0011435
3780.8	0.0006586
3790.44	0.0010227
3800.09	0.0009131
3809.73	0.0013944
3819.38	0.0014901
3829.02	0.0015958
3838.67	0.0012278
3848.31	0.0009473
3857.96	0.0008509
3867.6	0.000302
3877.25	0.000538
3886.89	0.0013167
3896.54	0.0010594
3906.18	0.0014216
3915.83	0.0012042
3925.47	0.001599
3935.12	0.0006866
3944.76	0.0010272
3954.41	0.000619
3964.05	0.0009371
3973.69	0.00078157
3983.34	0.0009386
3992.98	0.0012626
