Infrared Spectrum: Dibenzyl carbonate
Formula: C 15 H 14 O 3
CAS: 3459-92-5
State: gas
Origin: EPA-IR VAPOR PHASE LIBRARY
1/CM	ABSORBANCE
549.8	0.00612
559.445	0.00746
569.09	0.01058
578.735	0.01232
588.38	0.00945
598.025	0.00903
607.67	0.00856
617.315	0.00732
626.96	0.00507
636.605	0.00463
646.251	0.00477
655.896	0.00597
665.541	0.01037
675.186	0.02121
684.831	0.03806
694.476	0.05874
704.121	0.04837
713.766	0.03915
723.411	0.03888
733.056	0.04492
742.701	0.05331
752.346	0.04176
761.991	0.02113
771.636	0.01231
781.281	0.01401
790.926	0.01948
800.571	0.01569
810.216	0.01198
819.861	0.01353
829.507	0.01135
839.152	0.00817
848.797	0.00654
858.442	0.00589
868.087	0.00662
877.732	0.00912
887.377	0.01337
897.022	0.02108
906.667	0.03379
916.312	0.0315
925.957	0.0313
935.602	0.04592
945.247	0.07382
954.892	0.09639
964.537	0.08046
974.182	0.05276
983.827	0.03455
993.472	0.02716
1003.12	0.02717
1012.76	0.02214
1022.41	0.01901
1032.05	0.01649
1041.7	0.00998
1051.34	0.00951
1060.99	0.01215
1070.63	0.01669
1080.28	0.01896
1089.92	0.0171
1099.57	0.01403
1109.21	0.01182
1118.86	0.00929
1128.5	0.00769
1138.15	0.00778
1147.79	0.0094
1157.44	0.01273
1167.08	0.01953
1176.73	0.04032
1186.37	0.05645
1196.02	0.07446
1205.66	0.10183
1215.31	0.12802
1224.95	0.20385
1234.6	0.38403
1244.24	0.5691
1253.89	0.53372
1263.53	0.47071
1273.18	0.28877
1282.82	0.14506
1292.47	0.07674
1302.11	0.04506
1311.76	0.03085
1321.4	0.02309
1331.05	0.01824
1340.69	0.01605
1350.34	0.01599
1359.98	0.0235
1369.63	0.03395
1379.27	0.04624
1388.92	0.06894
1398.56	0.02976
1408.21	0.01444
1417.85	0.0114
1427.5	0.01197
1437.14	0.01609
1446.79	0.02573
1456.43	0.03917
1466.08	0.0315
1475.73	0.0177
1485.37	0.01424
1495.02	0.02248
1504.66	0.01678
1514.31	0.0074
1523.95	0.0059
1533.6	0.0055
1543.24	0.00534
1552.89	0.00547
1562.53	0.00604
1572.18	0.00691
1581.82	0.00773
1591.47	0.00753
1601.11	0.00677
1610.76	0.00605
1620.4	0.00463
1630.05	0.00422
1639.69	0.00428
1649.34	0.00446
1658.98	0.00463
1668.63	0.00506
1678.27	0.00577
1687.92	0.00703
1697.56	0.00909
1707.21	0.01196
1716.85	0.01577
1726.5	0.02064
1736.14	0.03269
1745.79	0.0649
1755.43	0.14636
1765.08	0.18786
1774.72	0.11217
1784.37	0.09745
1794.01	0.06224
1803.66	0.02555
1813.3	0.01564
1822.95	0.01164
1832.59	0.00893
1842.24	0.00718
1851.88	0.00611
1861.53	0.00554
1871.17	0.00524
1880.82	0.00489
1890.46	0.00392
1900.11	0.00312
1909.75	0.00294
1919.4	0.00338
1929.04	0.0042
1938.69	0.00506
1948.33	0.00585
1957.98	0.00581
1967.62	0.00354
1977.27	0.00244
1986.91	0.0021895
1996.56	0.0019951
2006.2	0.0019737
2015.85	0.0019521
2025.49	0.0020216
2035.14	0.0021139
2044.78	0.0021495
2054.43	0.0021937
2064.07	0.0022105
2073.72	0.0021162
2083.36	0.0020712
2093.01	0.0019285
2102.65	0.0019276
2112.3	0.0019321
2121.94	0.00206
2131.59	0.0022382
2141.23	0.00231
2150.88	0.0024
2160.52	0.00245
2170.17	0.00237
2179.81	0.00238
2189.46	0.00235
2199.1	0.0022576
2208.75	0.0021873
2218.39	0.0020475
2228.04	0.0019007
2237.68	0.0019569
2247.33	0.0019321
2256.97	0.0019393
2266.62	0.0019999
2276.26	0.0018899
2285.91	0.0020002
2295.55	0.0021208
2305.2	0.0025
2314.84	0.00326
2324.49	0.0034
2334.13	0.00341
2343.78	0.00338
2353.42	0.00344
2363.07	0.00357
2372.72	0.00293
2382.36	0.0019085
2392.01	0.0013909
2401.65	0.0012437
2411.3	0.0012002
2420.94	0.001155
2430.59	0.001091
2440.23	0.0012059
2449.88	0.00127863
2459.52	0.00131428
2469.17	0.0014467
2478.81	0.0014544
2488.46	0.0014284
2498.1	0.00133199
2507.75	0.0011923
2517.39	0.001026
2527.04	0.000858
2536.68	0.000692
2546.33	0.000664
2555.97	0.000651
2565.62	0.000589
2575.26	0.000594
2584.91	0.000641
2594.55	0.000555
2604.2	0.000751
2613.84	0.000781
2623.49	0.000735
2633.13	0.000792
2642.78	0.00084
2652.42	0.000767
2662.07	0.000805
2671.71	0.000711
2681.36	0.00064
2691	0.000673
2700.65	0.000719
2710.29	0.000663
2719.94	0.00077
2729.58	0.000692
2739.23	0.000706
2748.87	0.000669
2758.52	0.00058
2768.16	0.000607
2777.81	0.000583
2787.45	0.000798
2797.1	0.00087
2806.74	0.00115
2816.39	0.0016291
2826.03	0.0019102
2835.68	0.0020538
2845.32	0.0020442
2854.97	0.0021464
2864.61	0.00255
2874.26	0.00357
2883.9	0.00573
2893.55	0.00858
2903.19	0.00925
2912.84	0.00743
2922.48	0.00624
2932.13	0.00703
2941.77	0.01078
2951.42	0.01984
2961.06	0.03031
2970.71	0.02475
2980.35	0.01563
2990	0.01188
2999.64	0.00969
3009.29	0.00994
3018.93	0.01458
3028.58	0.0255
3038.22	0.03699
3047.87	0.03234
3057.51	0.02651
3067.16	0.03723
3076.8	0.04028
3086.45	0.02358
3096.09	0.01765
3105.74	0.01288
3115.38	0.00836
3125.03	0.00384
3134.67	0.0015043
3144.32	0.000906
3153.96	0.000838
3163.61	0.000835
3173.25	0.000764
3182.9	0.000473
3192.54	0.00018
3202.19	0.0002
3211.83	0.00021
3221.48	0.00018
3231.12	0.00016
3240.77	2e-05
3250.41	0.0001
3260.06	0.00012
3269.7	5e-05
3279.35	0.00011
3289	0.00022
3298.64	0.00011
3308.29	0.00018
3317.93	0.00016
3327.58	0.00019
3337.22	0.00017
3346.87	0.00021
3356.51	0.00023
3366.16	0.00025
3375.8	0.00024
3385.45	0.000281
3395.09	0.000307
3404.74	0.000297
3414.38	0.00022
3424.03	0.000314
3433.67	0.00032
3443.32	0.00025
3452.96	0.000344
3462.61	0.00044
3472.25	0.000462
3481.9	0.000664
3491.54	0.000871
3501.19	0.00111
3510.83	0.001124
3520.48	0.000904
3530.12	0.000723
3539.77	0.000714
3549.41	0.000824
3559.06	0.000725
3568.7	0.000576
3578.35	0.000474
3587.99	0.000448
3597.64	0.000579
3607.28	0.000545
3616.93	0.000619
3626.57	0.000596
3636.22	0.000699
3645.86	0.000806
3655.51	0.000887
3665.15	0.000889
3674.8	0.000771
3684.44	0.000657
3694.09	0.000663
3703.73	0.000696
3713.38	0.000702
3723.02	0.000639
3732.67	0.00062
3742.31	0.000658
3751.96	0.000685
3761.6	0.000505
3771.25	0.000522
3780.89	0.000451
3790.54	0.000497
3800.18	0.000656
3809.83	0.000432
3819.47	0.000671
3829.12	0.000647
3838.76	0.000612
3848.41	0.000751
3858.05	0.000733
3867.7	0.000776
3877.34	0.000744
3886.99	0.000907
3896.63	0.000817
3906.28	0.000663
3915.92	0.000863
3925.57	0.000807
3935.21	0.000673
3944.86	0.00067
3954.5	0.000729
3964.15	0.000597
3973.79	0.000724
3983.44	0.000605
3993.08	0.000726
