Infrared Spectrum: 2-Trifluoromethylbenzyl alcohol
Formula: C 8 H 7 F 3 O
CAS: 346-06-5
State: gas
Origin: EPA-IR VAPOR PHASE LIBRARY
1/CM	ABSORBANCE
549.8	0.002887
559.445	0.003337
569.09	0.003877
578.734	0.005087
588.379	0.008037
598.024	0.013407
607.669	0.014147
617.313	0.009367
626.958	0.006127
636.603	0.005797
646.248	0.019327
655.893	0.032137
665.537	0.018237
675.182	0.005917
684.827	0.004487
694.472	0.004357
704.116	0.005867
713.761	0.010067
723.406	0.018537
733.051	0.024237
742.695	0.027027
752.34	0.050827
761.985	0.093517
771.63	0.064317
781.275	0.022377
790.919	0.007447
800.564	0.005297
810.209	0.005397
819.854	0.006167
829.498	0.006137
839.143	0.004867
848.788	0.003737
858.433	0.004377
868.078	0.004837
877.722	0.005407
887.367	0.004667
897.012	0.004537
906.657	0.005007
916.301	0.006877
925.946	0.008547
935.591	0.013507
945.236	0.021827
954.88	0.026457
964.525	0.021707
974.17	0.017567
983.815	0.018907
993.46	0.024507
1003.1	0.039627
1012.75	0.068887
1022.39	0.116847
1032.04	0.161107
1041.68	0.152627
1051.33	0.105347
1060.97	0.086637
1070.62	0.062647
1080.26	0.029877
1089.91	0.033607
1099.55	0.052317
1109.2	0.098217
1118.84	0.194477
1128.49	0.332527
1138.13	0.432367
1147.78	0.288817
1157.42	0.230627
1167.07	0.313017
1176.71	0.262407
1186.36	0.127357
1196	0.058837
1205.64	0.035137
1215.29	0.025787
1224.93	0.021577
1234.58	0.020727
1244.22	0.022157
1253.87	0.027677
1263.51	0.040417
1273.16	0.063077
1282.8	0.097427
1292.45	0.139147
1302.09	0.254327
1311.74	0.441547
1321.38	0.336167
1331.03	0.077467
1340.67	0.032137
1350.32	0.026777
1359.96	0.027837
1369.61	0.030517
1379.25	0.032547
1388.9	0.029767
1398.54	0.022277
1408.18	0.016477
1417.83	0.013047
1427.47	0.011927
1437.12	0.014657
1446.76	0.025717
1456.41	0.032167
1466.05	0.021767
1475.7	0.012067
1485.34	0.010907
1494.99	0.009997
1504.63	0.006557
1514.28	0.003947
1523.92	0.003297
1533.57	0.003037
1543.21	0.002337
1552.86	0.002457
1562.5	0.002787
1572.15	0.005397
1581.79	0.009057
1591.44	0.010297
1601.08	0.011887
1610.73	0.012567
1620.37	0.007837
1630.01	0.006367
1639.66	0.006727
1649.3	0.005477
1658.95	0.003407
1668.59	0.002307
1678.24	0.001847
1687.88	0.001647
1697.53	0.001827
1707.17	0.002677
1716.82	0.002787
1726.46	0.002357
1736.11	0.002227
1745.75	0.002037
1755.4	0.001687
1765.04	0.001307
1774.69	0.001167
1784.33	0.0011558
1793.98	0.001267
1803.62	0.001707
1813.27	0.002837
1822.91	0.003647
1832.55	0.002817
1842.2	0.002097
1851.84	0.002397
1861.49	0.002147
1871.13	0.001677
1880.78	0.001867
1890.42	0.002097
1900.07	0.002177
1909.71	0.002207
1919.36	0.002747
1929	0.003937
1938.65	0.003617
1948.29	0.002467
1957.94	0.003067
1967.58	0.003107
1977.23	0.001997
1986.87	0.0010498
1996.52	0.0009935
2006.16	0.0011543
2015.81	0.001167
2025.45	0.001347
2035.1	0.001477
2044.74	0.001527
2054.38	0.001567
2064.03	0.001727
2073.67	0.001687
2083.32	0.001257
2092.96	0.0010268
2102.61	0.0008257
2112.25	0.0007927
2121.9	0.0010477
2131.54	0.0009418
2141.19	0.000956
2150.83	0.0009038
2160.48	0.0008522
2170.12	0.0009082
2179.77	0.0011001
2189.41	0.00113
2199.06	0.001167
2208.7	0.001317
2218.35	0.001647
2227.99	0.001687
2237.64	0.001967
2247.28	0.001857
2256.92	0.002077
2266.57	0.001977
2276.21	0.001707
2285.86	0.001587
2295.5	0.001667
2305.15	0.001707
2314.79	0.001587
2324.44	0.001897
2334.08	0.002077
2343.73	0.002077
2353.37	0.001437
2363.02	0.001337
2372.66	0.001467
2382.31	0.0011341
2391.95	0.0011147
2401.6	0.0009577
2411.24	0.0009069
2420.89	0.0011072
2430.53	0.0010161
2440.18	0.0009182
2449.82	0.0010215
2459.47	0.0011065
2469.11	0.0009964
2478.75	0.0009706
2488.4	0.0011146
2498.04	0.0009446
2507.69	0.000955
2517.33	0.0008211
2526.98	0.0005936
2536.62	0.0007443
2546.27	0.0006486
2555.91	0.0006281
2565.56	0.0007351
2575.2	0.0007323
2584.85	0.0009805
2594.49	0.0009203
2604.14	0.0011473
2613.78	0.001317
2623.43	0.001487
2633.07	0.001287
2642.72	0.0008869
2652.36	0.0007413
2662.01	0.0009009
2671.65	0.000928
2681.29	0.0007249
2690.94	0.0009571
2700.58	0.0008209
2710.23	0.0008116
2719.87	0.0007218
2729.52	0.001177
2739.16	0.001287
2748.81	0.001267
2758.45	0.001567
2768.1	0.001507
2777.74	0.001537
2787.39	0.001807
2797.03	0.001947
2806.68	0.002127
2816.32	0.002337
2825.97	0.002497
2835.61	0.002777
2845.26	0.003427
2854.9	0.004287
2864.55	0.005677
2874.19	0.007237
2883.84	0.010087
2893.48	0.013947
2903.12	0.016827
2912.77	0.016687
2922.41	0.014997
2932.06	0.012257
2941.7	0.011827
2951.35	0.012417
2960.99	0.013107
2970.64	0.012807
2980.28	0.011757
2989.93	0.010057
2999.57	0.008297
3009.22	0.007677
3018.86	0.006767
3028.51	0.007237
3038.15	0.010137
3047.8	0.012007
3057.44	0.012317
3067.09	0.016287
3076.73	0.022607
3086.38	0.021547
3096.02	0.011757
3105.67	0.004687
3115.31	0.003317
3124.95	0.002097
3134.6	0.001757
3144.24	0.00097
3153.89	0.0010573
3163.53	0.001267
3173.18	0.001217
3182.82	0.0009481
3192.47	0.0006285
3202.11	0.0008311
3211.76	0.00020427
3221.4	0.0003543
3231.05	0.000344
3240.69	0.0004336
3250.34	5.1e-05
3259.98	0.0004285
3269.63	0.000631
3279.27	0.0004137
3288.92	0.000276
3298.56	0.0003809
3308.21	0.0003486
3317.85	0.0003623
3327.49	0.0003482
3337.14	0.0004899
3346.78	9.31e-05
3356.43	0.0006271
3366.07	0.0006822
3375.72	0.0003988
3385.36	0.0007165
3395.01	0.0008899
3404.65	0.0007779
3414.3	0.001082
3423.94	0.001157
3433.59	0.0007726
3443.23	0.0009763
3452.88	0.0006015
3462.52	0.0010009
3472.17	0.0009145
3481.81	0.0010055
3491.46	0.0009718
3501.1	0.0007692
3510.75	0.0010181
3520.39	0.0005696
3530.04	0.0009949
3539.68	0.001387
3549.32	0.001207
3558.97	0.0010911
3568.61	0.0010304
3578.26	0.001547
3587.9	0.001437
3597.55	0.001967
3607.19	0.002447
3616.84	0.003417
3626.48	0.004347
3636.13	0.007467
3645.77	0.013887
3655.42	0.022897
3665.06	0.025627
3674.71	0.019677
3684.35	0.012637
3694	0.007447
3703.64	0.005117
3713.29	0.003447
3722.93	0.002827
3732.58	0.002387
3742.22	0.002047
3751.86	0.001757
3761.51	0.001647
3771.15	0.001167
3780.8	0.001457
3790.44	0.0007949
3800.09	0.001407
3809.73	0.0010225
3819.38	0.001517
3829.02	0.001167
3838.67	0.001247
3848.31	0.001247
3857.96	0.001437
3867.6	0.001477
3877.25	0.001447
3886.89	0.001827
3896.54	0.001717
3906.18	0.001377
3915.83	0.0010895
3925.47	0.0009324
3935.12	0.0008031
3944.76	0.0008452
3954.41	0.0008443
3964.05	0.001177
3973.69	0.000576
3983.34	0.0008772
3992.98	0.0003155
