Infrared Spectrum: 4-Ethoxyphenyl isothiocyanate
Formula: C 9 H 9 N O S
CAS: 3460-49-9
State: gas
Origin: EPA-IR VAPOR PHASE LIBRARY
1/CM	ABSORBANCE
549.8	0.03355
559.445	0.02699
569.09	0.0198
578.734	0.01524
588.379	0.01305
598.024	0.01274
607.669	0.01474
617.313	0.01725
626.958	0.01812
636.603	0.01756
646.248	0.01597
655.893	0.01726
665.537	0.0175
675.182	0.01266
684.827	0.0069
694.472	0.00431
704.116	0.00348
713.761	0.00309
723.406	0.00271
733.051	0.00264
742.695	0.00313
752.34	0.00403
761.985	0.00449
771.63	0.00497
781.275	0.00661
790.919	0.00902
800.564	0.01336
810.209	0.02362
819.854	0.04511
829.498	0.06415
839.143	0.05437
848.788	0.03078
858.433	0.0167
868.078	0.01203
877.722	0.0111
887.367	0.01355
897.012	0.02435
906.657	0.03514
916.301	0.04115
925.946	0.04419
935.591	0.04583
945.236	0.04091
954.88	0.02552
964.525	0.01502
974.17	0.01016
983.815	0.00837
993.46	0.00841
1003.1	0.01043
1012.75	0.01541
1022.39	0.0267
1032.04	0.05131
1041.68	0.07681
1051.33	0.06487
1060.97	0.03559
1070.62	0.02367
1080.26	0.02369
1089.91	0.03528
1099.55	0.03745
1109.2	0.03544
1118.84	0.03089
1128.49	0.017
1138.13	0.01223
1147.78	0.01418
1157.42	0.03828
1167.07	0.07612
1176.71	0.02187
1186.36	0.01719
1196	0.02776
1205.64	0.05498
1215.29	0.08859
1224.93	0.18357
1234.58	0.3402
1244.22	0.33377
1253.87	0.18571
1263.51	0.111
1273.16	0.09085
1282.8	0.09109
1292.45	0.07875
1302.09	0.06405
1311.74	0.04203
1321.38	0.02008
1331.03	0.01231
1340.67	0.00967
1350.32	0.00867
1359.96	0.00943
1369.61	0.01199
1379.25	0.01565
1388.9	0.03089
1398.54	0.03922
1408.18	0.0186
1417.83	0.01339
1427.47	0.01532
1437.12	0.01765
1446.76	0.01926
1456.41	0.02131
1466.05	0.02597
1475.7	0.05995
1485.34	0.09848
1494.99	0.22446
1504.63	0.42897
1514.28	0.11948
1523.92	0.0446
1533.57	0.03086
1543.21	0.0212
1552.86	0.01861
1562.5	0.02024
1572.15	0.02594
1581.79	0.03026
1591.44	0.02744
1601.08	0.02732
1610.73	0.02472
1620.37	0.01446
1630.01	0.0101
1639.66	0.00806
1649.3	0.00624
1658.95	0.00504
1668.59	0.00429
1678.24	0.00396
1687.88	0.00381
1697.53	0.00392
1707.17	0.00437
1716.82	0.00471
1726.46	0.00482
1736.11	0.00554
1745.75	0.00555
1755.4	0.00481
1765.04	0.0049
1774.69	0.00535
1784.33	0.00559
1793.98	0.00577
1803.62	0.00598
1813.27	0.00642
1822.91	0.00699
1832.55	0.00819
1842.2	0.01022
1851.84	0.01236
1861.49	0.01404
1871.13	0.01515
1880.78	0.01557
1890.42	0.0155
1900.07	0.01635
1909.71	0.01884
1919.36	0.02264
1929	0.02884
1938.65	0.03853
1948.29	0.05229
1957.94	0.0702
1967.58	0.09386
1977.23	0.12448
1986.87	0.16449
1996.52	0.21682
2006.16	0.285
2015.81	0.36969
2025.45	0.46125
2035.1	0.54726
2044.74	0.62128
2054.38	0.64419
2064.03	0.48372
2073.67	0.33108
2083.32	0.31531
2092.96	0.38306
2102.61	0.43587
2112.25	0.35585
2121.9	0.22937
2131.54	0.16328
2141.19	0.14088
2150.83	0.13421
2160.48	0.11663
2170.12	0.09106
2179.77	0.07543
2189.41	0.06324
2199.06	0.04798
2208.7	0.034
2218.35	0.02438
2227.99	0.01797
2237.64	0.0134
2247.28	0.01036
2256.92	0.00845
2266.57	0.00688
2276.21	0.00599
2285.86	0.00529
2295.5	0.00476
2305.15	0.00441
2314.79	0.00426
2324.44	0.00424
2334.08	0.00432
2343.73	0.00422
2353.37	0.00405
2363.02	0.0039
2372.66	0.00427
2382.31	0.00492
2391.95	0.00562
2401.6	0.00583
2411.24	0.00563
2420.89	0.0051
2430.53	0.00488
2440.18	0.00517
2449.82	0.00562
2459.47	0.00643
2469.11	0.00712
2478.75	0.00792
2488.4	0.00832
2498.04	0.00758
2507.69	0.0068
2517.33	0.0069
2526.98	0.00747
2536.62	0.00789
2546.27	0.00759
2555.91	0.00723
2565.56	0.00747
2575.2	0.00799
2584.85	0.00794
2594.49	0.00684
2604.14	0.00508
2613.78	0.00418
2623.43	0.0039
2633.07	0.00389
2642.72	0.0041
2652.36	0.00424
2662.01	0.0045
2671.65	0.00529
2681.29	0.00604
2690.94	0.00687
2700.58	0.00776
2710.23	0.00828
2719.87	0.0082
2729.52	0.00748
2739.16	0.00631
2748.81	0.00522
2758.45	0.00485
2768.1	0.00469
2777.74	0.00482
2787.39	0.00462
2797.03	0.00464
2806.68	0.00491
2816.32	0.00588
2825.97	0.00646
2835.61	0.00703
2845.26	0.00777
2854.9	0.00925
2864.55	0.01212
2874.19	0.01772
2883.84	0.0237
2893.48	0.02598
2903.12	0.02821
2912.77	0.02951
2922.41	0.02876
2932.06	0.03003
2941.7	0.03784
2951.35	0.03408
2960.99	0.02707
2970.64	0.03296
2980.28	0.04846
2989.93	0.0573
2999.57	0.04033
3009.22	0.02241
3018.86	0.01398
3028.51	0.01138
3038.15	0.01251
3047.8	0.0184
3057.44	0.01533
3067.09	0.00923
3076.73	0.00928
3086.38	0.00899
3096.02	0.00845
3105.67	0.00796
3115.31	0.00641
3124.95	0.00415
3134.6	0.00268
3144.24	0.00203
3153.89	0.0016
3163.53	0.00133
3173.18	0.0011421
3182.82	0.0008825
3192.47	0.0009546
3202.11	0.0009497
3211.76	0.0007751
3221.4	0.0007468
3231.05	0.0005744
3240.69	0.0006146
3250.34	0.0001542
3259.98	0.0004425
3269.63	0.0003362
3279.27	0.0003076
3288.92	0.0002719
3298.56	0.0003483
3308.21	9.88e-05
3317.85	0.0002971
3327.49	0.0001441
3337.14	0.00021528
3346.78	0.0003489
3356.43	0.0001373
3366.07	0.000136
3375.72	0.0002703
3385.36	0.0003887
3395.01	0.0003337
3404.65	0.00026549
3414.3	0.00020178
3423.94	0.00018293
3433.59	9.29e-05
3443.23	0.00018191
3452.88	0.0003639
3462.52	0.0004217
3472.17	0.000177533
3481.81	0.0003069
3491.46	0.00032
3501.1	0.00020353
3510.75	0.00019738
3520.39	0.000223
3530.04	0.0002946
3539.68	0.00021846
3549.32	0.00021424
3558.97	0.000339
3568.61	0.0003569
3578.26	0.00022443
3587.9	0.00018553
3597.55	0.000531
3607.19	0.0005122
3616.84	0.0002873
3626.48	0.0004195
3636.13	0.0004204
3645.77	0.0005633
3655.42	0.0006521
3665.06	0.0005791
3674.71	0.0004083
3684.35	0.000674
3694	0.0006158
3703.64	0.0007951
3713.29	0.0005254
3722.93	0.0006174
3732.58	0.0006292
3742.22	0.0007415
3751.86	0.000777
3761.51	0.0008151
3771.15	0.000545
3780.8	0.0006931
3790.44	0.0006684
3800.09	0.0008032
3809.73	0.0006331
3819.38	0.0006828
3829.02	0.0008247
3838.67	0.0009103
3848.31	0.0009164
3857.96	0.0010606
3867.6	0.0010192
3877.25	0.0012
3886.89	0.0011478
3896.54	0.001062
3906.18	0.00125
3915.83	0.00136
3925.47	0.00149
3935.12	0.00135
3944.76	0.00171
3954.41	0.00189
3964.05	0.0021
3973.69	0.00237
3983.34	0.00243
3992.98	0.00264
