Infrared Spectrum: Stearic acid, n-hexyl ester
Formula: C24 H48 O2
CAS: 3460-37-5
State: SOLUTION (10% CCl4 FOR 3800-1330, 10% CS2 FOR 1330-400 CM^-^1)
Class: COBLENTZ II
Instrument: BECKMAN IR-9 (GRATING)
Instrument parameters: ORDER CHANGES: 670, 1200, 2000 CM^-^1
Sampling: TRANSMISSION
Path length: 0.011 CM, 0.011 CM
Resolution: 2
Origin: DOW CHEMICAL COMPANY
1/CM	TRANSMITTANCE
3800	0.8495
3791	0.8498
3782	0.8502
3773	0.8503
3764	0.8505
3755	0.8501
3746	0.8498
3737	0.8487
3728	0.8475
3719	0.8459
3710	0.8442
3701	0.8434
3692	0.844
3683	0.8444
3674	0.8448
3665	0.8437
3656	0.841
3647	0.8389
3638	0.8378
3629	0.8384
3620	0.8416
3611	0.8457
3602	0.8485
3593	0.8492
3584	0.8483
3575	0.847
3566	0.8454
3557	0.8438
3548	0.843
3539	0.8434
3530	0.8451
3521	0.847
3512	0.849
3503	0.85
3494	0.8501
3485	0.8497
3476	0.8475
3467	0.8434
3458	0.8405
3449	0.8412
3440	0.8448
3431	0.849
3422	0.8504
3413	0.8516
3404	0.8513
3395	0.8509
3386	0.8498
3377	0.8483
3368	0.8471
3359	0.8461
3350	0.8451
3341	0.8441
3332	0.844
3323	0.8439
3314	0.8438
3305	0.8436
3296	0.8434
3287	0.8432
3278	0.843
3269	0.8428
3260	0.8428
3251	0.8428
3242	0.843
3233	0.8431
3224	0.8428
3215	0.8418
3206	0.8409
3197	0.8402
3188	0.8406
3179	0.8425
3170	0.8443
3161	0.846
3152	0.8475
3143	0.8487
3134	0.8495
3125	0.8495
3116	0.8478
3107	0.8442
3098	0.8399
3089	0.834
3080	0.828
3071	0.8189
3062	0.8105
3053	0.8018
3044	0.7928
3035	0.7817
3026	0.7647
3017	0.7422
3008	0.718
2999	0.6768
2990	0.6186
2981	0.4531
2972	0.1712
2963	0.0377
2954	0.0427
2945	0.0151
2936	0.01
2927	0.0111
2918	0.0179
2909	0.0421
2900	0.1028
2891	0.1949
2882	0.2461
2873	0.1445
2864	0.05
2855	0.017
2846	0.1263
2837	0.3722
2828	0.551
2819	0.6644
2810	0.7092
2801	0.7388
2792	0.7621
2783	0.7835
2774	0.798
2765	0.8074
2756	0.8111
2747	0.8072
2738	0.8017
2729	0.8041
2720	0.8086
2711	0.8118
2702	0.8117
2693	0.8085
2684	0.8021
2675	0.7988
2666	0.8008
2657	0.8091
2648	0.8176
2639	0.8253
2630	0.8285
2621	0.8311
2612	0.8318
2603	0.8323
2594	0.8328
2585	0.8348
2576	0.8384
2567	0.8418
2558	0.845
2549	0.8478
2540	0.8492
2531	0.8504
2522	0.8518
2513	0.8517
2504	0.8517
2495	0.8517
2486	0.8517
2477	0.8517
2468	0.852
2459	0.8524
2450	0.8528
2441	0.8531
2432	0.8535
2423	0.8538
2414	0.8537
2405	0.8531
2396	0.8525
2387	0.8516
2378	0.8508
2369	0.8499
2360	0.849
2351	0.848
2342	0.8471
2333	0.8475
2324	0.848
2315	0.8484
2306	0.8491
2297	0.8498
2288	0.8505
2279	0.8507
2270	0.8509
2261	0.851
2252	0.8512
2243	0.8514
2234	0.8517
2225	0.852
2216	0.8523
2207	0.8525
2198	0.8528
2189	0.8531
2180	0.8534
2171	0.8536
2162	0.8538
2153	0.8536
2144	0.8534
2135	0.8532
2126	0.8532
2117	0.8532
2108	0.8532
2099	0.8534
2090	0.8536
2081	0.8536
2072	0.8532
2063	0.8525
2054	0.8521
2045	0.8516
2036	0.8512
2027	0.8512
2018	0.8512
2009	0.8512
2000	0.8512
1991	0.8514
1982	0.8516
1973	0.8516
1964	0.8513
1955	0.851
1946	0.851
1937	0.8513
1928	0.8517
1919	0.852
1910	0.8521
1901	0.8521
1892	0.8521
1883	0.8516
1874	0.8512
1865	0.8506
1856	0.85
1847	0.8477
1838	0.845
1829	0.8417
1820	0.8378
1811	0.8306
1802	0.8213
1793	0.8108
1784	0.7956
1775	0.7696
1766	0.7257
1757	0.6158
1748	0.4265
1739	0.0207
1730	0.068
1721	0.356
1712	0.5454
1703	0.6678
1694	0.7239
1685	0.7668
1676	0.7986
1667	0.8111
1658	0.8147
1649	0.8197
1640	0.8317
1631	0.8428
1622	0.8417
1613	0.844
1604	0.854
1595	0.872
1586	0.8794
1577	0.8741
1568	0.8731
1559	0.8762
1550	0.8761
1541	0.8733
1532	0.8647
1523	0.8546
1514	0.8435
1505	0.8295
1496	0.8125
1487	0.7894
1478	0.6476
1469	0.3749
1460	0.2801
1451	0.377
1442	0.5427
1433	0.6056
1424	0.6781
1415	0.6734
1406	0.7485
1397	0.7025
1388	0.6097
1379	0.5121
1370	0.5884
1361	0.5631
1352	0.5552
1343	0.5847
1334	0.6156
1325	0.6049
1316	0.5727
1307	0.5483
1298	0.5535
1289	0.5532
1280	0.5353
1271	0.5134
1262	0.4804
1253	0.4454
1244	0.4275
1235	0.4464
1226	0.4636
1217	0.4626
1208	0.4454
1199	0.4184
1190	0.3616
1181	0.2784
1172	0.242
1163	0.3096
1154	0.4174
1145	0.5201
1136	0.6521
1127	0.6181
1118	0.5347
1109	0.5962
1100	0.6483
1091	0.6678
1082	0.6767
1073	0.6737
1064	0.6746
1055	0.691
1046	0.7157
1037	0.7322
1028	0.7378
1019	0.709
1010	0.7015
1001	0.7022
992	0.7156
983	0.7432
974	0.774
965	0.7804
956	0.7807
947	0.7812
938	0.7858
929	0.7917
920	0.7871
911	0.7748
902	0.7746
893	0.789
884	0.8093
875	0.8132
866	0.8191
857	0.8371
848	0.8484
839	0.8381
830	0.8313
821	0.8225
812	0.8138
803	0.8238
794	0.8291
785	0.8191
776	0.8108
767	0.8025
758	0.8007
749	0.7938
740	0.7703
731	0.6882
722	0.5999
713	0.7298
704	0.7887
695	0.823
686	0.8404
677	0.847
668	0.8547
659	0.8559
650	0.8549
641	0.8525
632	0.8554
623	0.8565
614	0.8504
605	0.8439
596	0.8436
587	0.8401
578	0.8346
569	0.8394
560	0.8366
551	0.8321
542	0.829
533	0.827
524	0.8154
515	0.8097
506	0.8083
497	0.801
488	0.7978
479	0.8096
470	0.8212
461	0.8206
452	0.8175
443	0.8206
434	0.8341
425	0.8586
416	0.8828
407	0.897
