Infrared Spectrum: Glycine, N-(2-mercaptoethyl)-, hydrazide
Formula: C4 H11 N3 O S
CAS: 34604-00-7
State: SOLID (1 mg / 650 mg KBr DISC)
Class: COBLENTZ III
Instrument: PERKIN-ELMER 521 (GRATING)
Instrument parameters: FILTERS AT 3150, 2500, 2000, 1150, 700, 410. GRATING CHANGES: 2000, 630
Resolution: 2
Origin: SOUTHERN RESEARCH INSTITUTE
1/CM	TRANSMITTANCE
254.483	0.2683
264.506	0.2976
274.53	0.3545
284.553	0.4228
294.576	0.4682
304.6	0.4904
314.623	0.5004
324.646	0.5086
334.669	0.5255
344.693	0.5383
354.716	0.5218
364.739	0.5128
374.763	0.5995
384.786	0.6176
394.809	0.6252
404.833	0.6168
414.856	0.6304
424.879	0.6999
434.902	0.72
444.926	0.7295
454.949	0.736
464.972	0.7412
474.996	0.7472
485.019	0.7492
495.042	0.7486
505.066	0.7419
515.089	0.7328
525.112	0.7108
535.135	0.6694
545.159	0.7191
555.182	0.7046
565.205	0.6629
575.229	0.5427
585.252	0.6483
595.275	0.7245
605.299	0.7262
615.322	0.7248
625.345	0.7196
635.368	0.7086
645.392	0.6782
655.415	0.6147
665.438	0.6991
675.462	0.7001
685.485	0.6911
695.508	0.6767
705.532	0.657
715.555	0.6302
725.578	0.5815
735.602	0.6236
745.625	0.6186
755.648	0.6175
765.671	0.6351
775.695	0.6591
785.718	0.6688
795.741	0.6618
805.765	0.6288
815.788	0.5898
825.811	0.6167
835.835	0.6865
845.858	0.7381
855.881	0.7528
865.904	0.754
875.928	0.7466
885.951	0.6964
895.974	0.7116
905.998	0.6964
916.021	0.6625
926.044	0.6183
936.068	0.6241
946.091	0.6479
956.114	0.5363
966.137	0.6186
976.161	0.5979
986.184	0.4734
996.207	0.4633
1006.23	0.6407
1016.25	0.6601
1026.28	0.6761
1036.3	0.6936
1046.32	0.7047
1056.35	0.7047
1066.37	0.6954
1076.39	0.6628
1086.42	0.6923
1096.44	0.7032
1106.46	0.6943
1116.49	0.6595
1126.51	0.6001
1136.53	0.5803
1146.56	0.5597
1156.58	0.4915
1166.6	0.6927
1176.63	0.7017
1186.65	0.6896
1196.67	0.7383
1206.7	0.7395
1216.72	0.7325
1226.74	0.7159
1236.77	0.7087
1246.79	0.6997
1256.81	0.6672
1266.84	0.6143
1276.86	0.5858
1286.88	0.5185
1296.91	0.4118
1306.93	0.5375
1316.95	0.6287
1326.98	0.6369
1337	0.645
1347.02	0.6456
1357.05	0.6391
1367.07	0.6173
1377.09	0.5317
1387.12	0.6524
1397.14	0.6392
1407.16	0.6132
1417.19	0.5002
1427.21	0.5819
1437.23	0.602
1447.26	0.5873
1457.28	0.5563
1467.3	0.5492
1477.33	0.5349
1487.35	0.4754
1497.37	0.5179
1507.4	0.4667
1517.42	0.436
1527.44	0.4135
1537.47	0.417
1547.49	0.4583
1557.51	0.5831
1567.54	0.6221
1577.56	0.608
1587.58	0.5544
1597.61	0.4538
1607.63	0.3841
1617.65	0.2526
1627.68	0.209
1637.7	0.2821
1647.72	0.3179
1657.75	0.3092
1667.77	0.3535
1677.79	0.4383
1687.82	0.5697
1697.84	0.6472
1707.86	0.7088
1717.89	0.7335
1727.91	0.7531
1737.93	0.7657
1747.96	0.7769
1757.98	0.7867
1768	0.7951
1778.02	0.801
1788.05	0.8058
1798.07	0.81
1808.09	0.8129
1818.12	0.8139
1828.14	0.8142
1838.16	0.8146
1848.19	0.8147
1858.21	0.8145
1868.23	0.814
1878.26	0.814
1888.28	0.814
1898.3	0.8139
1908.33	0.8138
1918.35	0.8131
1928.37	0.8124
1938.4	0.8117
1948.42	0.811
1958.44	0.8104
1968.47	0.8098
1978.49	0.8093
1988.51	0.8086
1998.54	0.8077
2008.56	0.8067
2018.58	0.8057
2028.61	0.8048
2038.63	0.8045
2048.65	0.8042
2058.68	0.8039
2068.7	0.8038
2078.72	0.804
2088.75	0.8042
2098.77	0.8044
2108.79	0.8048
2118.82	0.8047
2128.84	0.804
2138.86	0.8033
2148.89	0.8029
2158.91	0.8028
2168.93	0.8028
2178.96	0.8019
2188.98	0.8009
2199	0.7998
2209.03	0.799
2219.05	0.7982
2229.07	0.7974
2239.1	0.797
2249.12	0.7966
2259.14	0.7963
2269.17	0.7966
2279.19	0.7969
2289.21	0.7972
2299.24	0.7966
2309.26	0.7959
2319.28	0.7945
2329.31	0.792
2339.33	0.7894
2349.35	0.7868
2359.38	0.7843
2369.4	0.7808
2379.42	0.7793
2389.45	0.7789
2399.47	0.7784
2409.49	0.7763
2419.52	0.7735
2429.54	0.7707
2439.56	0.7676
2449.59	0.7642
2459.61	0.7607
2469.63	0.7582
2479.66	0.7561
2489.68	0.7553
2499.7	0.7532
2509.73	0.7506
2519.75	0.7463
2529.77	0.7421
2539.8	0.7374
2549.82	0.7247
2559.84	0.7028
2569.87	0.6746
2579.89	0.7462
2589.91	0.7558
2599.94	0.7532
2609.96	0.749
2619.98	0.7445
2630.01	0.7401
2640.03	0.7373
2650.05	0.7342
2660.08	0.7306
2670.1	0.728
2680.12	0.7255
2690.15	0.7231
2700.17	0.7215
2710.19	0.7237
2720.22	0.7263
2730.24	0.7234
2740.26	0.7188
2750.29	0.7127
2760.31	0.7051
2770.33	0.6933
2780.36	0.6762
2790.38	0.6477
2800.4	0.5936
2810.43	0.53
2820.45	0.5141
2830.47	0.6123
2840.5	0.6301
2850.52	0.6313
2860.54	0.6277
2870.56	0.6184
2880.59	0.5989
2890.61	0.5716
2900.63	0.55
2910.66	0.5392
2920.68	0.5377
2930.7	0.5413
2940.73	0.5828
2950.75	0.5889
2960.77	0.5939
2970.8	0.6132
2980.82	0.6077
2990.84	0.592
3000.87	0.569
3010.89	0.542
3020.91	0.5097
3030.94	0.4893
3040.96	0.4935
3050.98	0.5105
3061.01	0.5399
3071.03	0.5595
3081.05	0.5611
3091.08	0.5586
3101.1	0.5541
3111.12	0.5474
3121.15	0.5374
3131.17	0.525
3141.19	0.4993
3151.22	0.4681
3161.24	0.4304
3171.26	0.4015
3181.29	0.3864
3191.31	0.3733
3201.33	0.3669
3211.36	0.3677
3221.38	0.3529
3231.4	0.3189
3241.43	0.2963
3251.45	0.2857
3261.47	0.2786
3271.5	0.2725
3281.52	0.2475
3291.54	0.2675
3301.57	0.2969
3311.59	0.3407
3321.61	0.3994
3331.64	0.4356
3341.66	0.4634
3351.68	0.4942
3361.71	0.5143
3371.73	0.5272
3381.75	0.5391
3391.78	0.5474
3401.8	0.5548
3411.82	0.5614
3421.85	0.5683
3431.87	0.5752
3441.89	0.582
3451.92	0.5888
3461.94	0.5954
3471.96	0.6019
3481.99	0.6089
3492.01	0.616
3502.03	0.6235
3512.06	0.6319
3522.08	0.6396
3532.1	0.6471
3542.13	0.655
3552.15	0.6631
3562.17	0.6711
3572.2	0.6793
3582.22	0.6877
3592.24	0.6974
3602.27	0.7066
3612.29	0.7148
3622.31	0.7228
3632.34	0.7305
3642.36	0.7366
3652.38	0.7402
3662.41	0.7423
3672.43	0.7435
3682.45	0.7445
3692.48	0.747
3702.5	0.7536
3712.52	0.7592
3722.55	0.7598
3732.57	0.76
3742.59	0.7602
3752.62	0.7604
3762.64	0.7606
3772.66	0.7611
3782.69	0.7619
3792.71	0.7615
3802.73	0.7607
3812.76	0.7603
3822.78	0.7603
3832.8	0.7604
3842.83	0.76
3852.85	0.7576
3862.87	0.7551
3872.9	0.7532
3882.92	0.7522
3892.94	0.7525
3902.97	0.7523
3912.99	0.7521
