Infrared Spectrum: 3Beta-ACETOXY-11Beta-HYDROXY-5Beta-ANDROSTAN-17-ONE
Formula: C21 H32 O4
CAS: 3461-65-2
State: SOLID (KBr DISC)
Class: COBLENTZ III
Instrument: BECKMAN IR-7
Sampling: TRANSMISSION
Resolution: 4
Origin: THE WORCESTER FOUNDATION FOR EXPERIMENTAL BIOLOGY
1/CM	TRANSMITTANCE
597.867	0.549
606.399	0.547
614.932	0.554
623.464	0.601
631.996	0.641
640.528	0.695
649.061	0.745
657.593	0.774
666.125	0.743
674.657	0.822
683.19	0.816
691.722	0.811
700.254	0.86
708.786	0.871
717.319	0.878
725.851	0.894
734.383	0.902
742.915	0.9
751.448	0.9
759.98	0.892
768.512	0.901
777.044	0.91
785.577	0.9
794.109	0.892
802.641	0.872
811.173	0.905
819.706	0.896
828.238	0.874
836.77	0.895
845.302	0.852
853.835	0.882
862.367	0.863
870.899	0.846
879.432	0.896
887.964	0.8649
896.496	0.896
905.028	0.874
913.561	0.809
922.093	0.883
930.625	0.868
939.157	0.873
947.69	0.844
956.222	0.786
964.754	0.751
973.286	0.758
981.819	0.806
990.351	0.831
998.883	0.764
1007.42	0.684
1015.95	0.4561
1024.48	0.592
1033.01	0.681
1041.54	0.719
1050.08	0.651
1058.61	0.763
1067.14	0.763
1075.67	0.686
1084.21	0.799
1092.74	0.746
1101.27	0.797
1109.8	0.804
1118.33	0.805
1126.87	0.809
1135.4	0.819
1143.93	0.813
1152.46	0.725
1161	0.567
1169.53	0.767
1178.06	0.764
1186.59	0.83
1195.13	0.778
1203.66	0.787
1212.19	0.683
1220.72	0.5311
1229.25	0.4611
1237.79	0.303
1246.32	0.42
1254.85	0.422
1263.38	0.57
1271.92	0.638
1280.45	0.719
1288.98	0.818
1297.51	0.815
1306.04	0.843
1314.58	0.888
1323.11	0.859
1331.64	0.855
1340.17	0.83
1348.71	0.778
1357.24	0.729
1365.77	0.645
1374.3	0.62
1382.83	0.78
1391.37	0.831
1399.9	0.769
1408.43	0.735
1416.96	0.771
1425.5	0.781
1434.03	0.775
1442.56	0.648
1451.09	0.67
1459.63	0.782
1468.16	0.786
1476.69	0.862
1485.22	0.899
1493.75	0.905
1502.29	0.924
1510.82	0.93
1519.35	0.927
1527.88	0.918
1536.42	0.927
1544.95	0.922
1553.48	0.919
1562.01	0.915
1570.54	0.916
1579.08	0.909
1587.61	0.905
1596.14	0.903
1604.67	0.892
1613.21	0.883
1621.74	0.876
1630.27	0.864
1638.8	0.863
1647.33	0.862
1655.87	0.861
1664.4	0.864
1672.93	0.85
1681.46	0.818
1690	0.8
1698.53	0.766
1707.06	0.634
1715.59	0.272
1724.13	0.21
1732.66	0.265
1741.19	0.6179
1749.72	0.768
1758.25	0.832
1766.79	0.866
1775.32	0.879
1783.85	0.886
1792.38	0.893
1800.92	0.901
1809.45	0.906
1817.98	0.91
1826.51	0.913
1835.04	0.913
1843.58	0.917
1852.11	0.917
1860.64	0.917
1869.17	0.917
1877.71	0.915
1886.24	0.915
1894.77	0.916
1903.3	0.918
1911.83	0.918
1920.37	0.92
1928.9	0.918
1937.43	0.917
1945.96	0.914
1954.5	0.913
1963.03	0.917
1971.56	0.922
1980.09	0.925
1988.63	0.925
1997.16	0.923
2005.69	0.922
2014.22	0.9241
2022.75	0.925
2031.29	0.926
2039.82	0.926
2048.35	0.9258
2056.88	0.925
2065.42	0.925
2073.95	0.925
2082.48	0.9236
2091.01	0.9226
2099.54	0.922
2108.08	0.922
2116.61	0.922
2125.14	0.9246
2133.67	0.925
2142.21	0.9253
2150.74	0.925
2159.27	0.925
2167.8	0.926
2176.33	0.926
2184.87	0.9279
2193.4	0.929
2201.93	0.9319
2210.46	0.934
2219	0.936
2227.53	0.9359
2236.06	0.935
2244.59	0.934
2253.13	0.934
2261.66	0.934
2270.19	0.934
2278.72	0.934
2287.25	0.934
2295.79	0.935
2304.32	0.936
2312.85	0.9365
2321.38	0.937
2329.92	0.937
2338.45	0.936
2346.98	0.9344
2355.51	0.9327
2364.04	0.932
2372.58	0.9303
2381.11	0.9282
2389.64	0.9262
2398.17	0.925
2406.71	0.9231
2415.24	0.922
2423.77	0.92
2432.3	0.918
2440.83	0.917
2449.37	0.9159
2457.9	0.9139
2466.43	0.9117
2474.96	0.9078
2483.5	0.906
2492.03	0.905
2500.56	0.904
2509.09	0.903
2517.63	0.903
2526.16	0.9034
2534.69	0.904
2543.22	0.904
2551.75	0.904
2560.29	0.903
2568.82	0.903
2577.35	0.9023
2585.88	0.901
2594.42	0.8982
2602.95	0.896
2611.48	0.8932
2620.01	0.8911
2628.54	0.8861
2637.08	0.8851
2645.61	0.884
2654.14	0.884
2662.67	0.884
2671.21	0.8839
2679.74	0.883
2688.27	0.8808
2696.8	0.8788
2705.33	0.8777
2713.87	0.876
2722.4	0.8727
2730.93	0.871
2739.46	0.8714
2748	0.874
2756.53	0.8735
2765.06	0.8725
2773.59	0.8704
2782.13	0.8654
2790.66	0.8627
2799.19	0.8475
2807.72	0.8313
2816.25	0.8151
2824.79	0.7961
2833.32	0.7183
2841.85	0.6563
2850.38	0.6376
2858.92	0.6012
2867.45	0.577
2875.98	0.5791
2884.51	0.6058
2893.04	0.585
2901.58	0.517
2910.11	0.4734
2918.64	0.4507
2927.17	0.4531
2935.71	0.4834
2944.24	0.5178
2952.77	0.5792
2961.3	0.6551
2969.83	0.6844
2978.37	0.71
2986.9	0.7211
2995.43	0.776
3003.96	0.8282
3012.5	0.8414
3021.03	0.8457
3029.56	0.8515
3038.09	0.8548
3046.63	0.8579
3055.16	0.8599
3063.69	0.8609
3072.22	0.86
3080.75	0.859
3089.29	0.857
3097.82	0.855
3106.35	0.8529
3114.88	0.851
3123.42	0.85
3131.95	0.849
3140.48	0.848
3149.01	0.847
3157.54	0.8466
3166.08	0.845
3174.61	0.844
3183.14	0.842
3191.67	0.842
3200.21	0.8414
3208.74	0.84
3217.27	0.8374
3225.8	0.835
3234.33	0.833
3242.87	0.8322
3251.4	0.831
3259.93	0.83
3268.46	0.829
3277	0.8281
3285.53	0.827
3294.06	0.823
3302.59	0.817
3311.13	0.8118
3319.66	0.8067
3328.19	0.7975
3336.72	0.7906
3345.25	0.7841
3353.79	0.7686
3362.32	0.7498
3370.85	0.7312
3379.38	0.7178
3387.92	0.7062
3396.45	0.6803
3404.98	0.6563
3413.51	0.6173
3422.04	0.5898
3430.58	0.5628
3439.11	0.4323
3447.64	0.3593
3456.17	0.3727
3464.71	0.4538
3473.24	0.525
3481.77	0.5885
3490.3	0.6321
3498.83	0.6547
3507.37	0.6879
3515.9	0.7133
3524.43	0.7356
3532.96	0.7544
3541.5	0.7646
3550.03	0.7786
3558.56	0.7969
3567.09	0.8078
3575.63	0.8166
3584.16	0.8223
3592.69	0.8292
3601.22	0.8397
3609.75	0.8524
3618.29	0.8565
3626.82	0.8601
3635.35	0.8632
3643.88	0.8686
3652.42	0.8707
3660.95	0.8717
3669.48	0.874
3678.01	0.874
3686.54	0.874
3695.08	0.872
3703.61	0.8701
3712.14	0.871
3720.67	0.874
3729.21	0.875
3737.74	0.876
3746.27	0.8759
3754.8	0.8729
3763.33	0.8706
3771.87	0.867
3780.4	0.866
3788.93	0.8657
3797.46	0.867
3806	0.867
3814.53	0.8674
3823.06	0.868
3831.59	0.869
3840.13	0.869
3848.66	0.867
3857.19	0.866
3865.72	0.866
3874.25	0.867
3882.79	0.8663
3891.32	0.865
3899.85	0.864
3908.38	0.862
3916.92	0.861
3925.45	0.86
3933.98	0.859
3942.51	0.859
3951.04	0.8599
3959.58	0.859
3968.11	0.858
3976.64	0.857
3985.17	0.8568
3993.71	0.856
4002.24	0.856
