Infrared Spectrum: 2,5-Di-t-butylnitrobenzene
Formula: C 14 H 21 N O 2
CAS: 3463-35-2
State: gas
Origin: EPA-IR VAPOR PHASE LIBRARY
1/CM	ABSORBANCE
549.8	0.002911
559.445	0.003231
569.09	0.002031
578.734	0.0010196
588.379	0.000593
598.024	0.0004051
607.669	0.000484
617.313	0.0004176
626.958	0.0010082
636.603	0.0007179
646.248	0.001361
655.893	0.003391
665.537	0.004341
675.182	0.004911
684.827	0.002081
694.472	0.0011149
704.116	0.0010277
713.761	0.0009466
723.406	0.0007447
733.051	0.001251
742.695	0.004161
752.34	0.006561
761.985	0.006221
771.63	0.003931
781.275	0.001891
790.919	0.001721
800.564	0.001451
810.209	0.002561
819.854	0.011731
829.498	0.020421
839.143	0.005941
848.788	0.001541
858.433	0.0006534
868.078	0.0009927
877.722	0.003461
887.367	0.004071
897.012	0.002051
906.657	0.002231
916.301	0.002051
925.946	0.001701
935.591	0.001491
945.236	0.0005703
954.88	0.0004977
964.525	0.0006049
974.17	0.00033397
983.815	0.0006732
993.46	0.0003683
1003.1	0.00028739
1012.75	1e-05
1022.39	0.0011299
1032.04	0.00029643
1041.68	0.001461
1051.33	0.004851
1060.97	0.007481
1070.62	0.001991
1080.26	0.0008033
1089.91	0.0012294
1099.55	0.0005399
1109.2	0.00032795
1118.84	0.002291
1128.49	0.003851
1138.13	0.004691
1147.78	0.003751
1157.42	0.002531
1167.07	0.002641
1176.71	0.001851
1186.36	0.002291
1196	0.003701
1205.64	0.003581
1215.29	0.002451
1224.93	0.002301
1234.58	0.004401
1244.22	0.011291
1253.87	0.019511
1263.51	0.019241
1273.16	0.014231
1282.8	0.008641
1292.45	0.007051
1302.09	0.004931
1311.74	0.003291
1321.38	0.003361
1331.03	0.004211
1340.67	0.007691
1350.32	0.016661
1359.96	0.035251
1369.61	0.050111
1379.25	0.034211
1388.9	0.015971
1398.54	0.012971
1408.18	0.009441
1417.83	0.005911
1427.47	0.005531
1437.12	0.005781
1446.76	0.007111
1456.41	0.010191
1466.05	0.013981
1475.7	0.018551
1485.34	0.022571
1494.99	0.025001
1504.63	0.021361
1514.28	0.019121
1523.92	0.031101
1533.57	0.067031
1543.21	0.090291
1552.86	0.046121
1562.5	0.016691
1572.15	0.009821
1581.79	0.007511
1591.44	0.005281
1601.08	0.004141
1610.73	0.004651
1620.37	0.003511
1630.01	0.001841
1639.66	0.001711
1649.3	0.001851
1658.95	0.001741
1668.59	0.0011904
1678.24	0.0009888
1687.88	0.0008466
1697.53	0.0006821
1707.17	0.0007508
1716.82	0.0007342
1726.46	0.000735
1736.11	0.0007834
1745.75	0.0008462
1755.4	0.0010161
1765.04	0.001401
1774.69	0.001381
1784.33	0.0010817
1793.98	0.0006826
1803.62	0.0005834
1813.27	0.0005224
1822.91	0.0005167
1832.55	0.0004527
1842.2	0.0006661
1851.84	0.0005856
1861.49	0.0005083
1871.13	0.0004862
1880.78	0.0004872
1890.42	0.0006004
1900.07	0.0007509
1909.71	0.0009818
1919.36	0.0009074
1929	0.0005218
1938.65	0.0004663
1948.29	0.0005367
1957.94	0.0004694
1967.58	0.0004076
1977.23	0.00032148
1986.87	0.0003785
1996.52	0.0004575
2006.16	0.00033053
2015.81	0.000399
2025.45	0.00035039
2035.1	0.00034339
2044.74	0.0004257
2054.38	0.000415
2064.03	0.00029301
2073.67	0.0003378
2083.32	0.0003527
2092.96	0.00034009
2102.61	0.0004476
2112.25	0.0003982
2121.9	0.0003771
2131.54	0.000364
2141.19	0.0003619
2150.83	0.00033636
2160.48	0.00033694
2170.12	0.00032615
2179.77	0.0003899
2189.41	0.0004101
2199.06	0.0004223
2208.7	0.0004972
2218.35	0.0004108
2227.99	0.0004239
2237.64	0.00029809
2247.28	0.000369
2256.92	0.00033205
2266.57	0.0004312
2276.21	0.0004033
2285.86	0.0005173
2295.5	0.0005777
2305.15	0.0005988
2314.79	0.0004628
2324.44	0.0004546
2334.08	0.00032651
2343.73	0.0003987
2353.37	0.0004723
2363.02	0.0004558
2372.66	0.0005315
2382.31	0.0006334
2391.95	0.0006387
2401.6	0.0005983
2411.24	0.0005463
2420.89	0.0004376
2430.53	0.0005879
2440.18	0.0006126
2449.82	0.0005609
2459.47	0.0005346
2469.11	0.000478
2478.75	0.0005289
2488.4	0.0004734
2498.04	0.0004479
2507.69	0.0004356
2517.33	0.0005849
2526.98	0.0005858
2536.62	0.0006617
2546.27	0.0006265
2555.91	0.0007162
2565.56	0.0006496
2575.2	0.0007634
2584.85	0.0005671
2594.49	0.0006873
2604.14	0.0007132
2613.78	0.0007155
2623.43	0.0007045
2633.07	0.0007718
2642.72	0.0007736
2652.36	0.000848
2662.01	0.0009779
2671.65	0.0009623
2681.29	0.0008907
2690.94	0.0009271
2700.58	0.0009746
2710.23	0.0011447
2719.87	0.001451
2729.52	0.001611
2739.16	0.001631
2748.81	0.001741
2758.45	0.001531
2768.1	0.0012377
2777.74	0.001331
2787.39	0.001611
2797.03	0.001941
2806.68	0.002171
2816.32	0.002291
2825.97	0.002661
2835.61	0.002931
2845.26	0.003891
2854.9	0.005491
2864.55	0.010221
2874.19	0.018201
2883.84	0.022481
2893.48	0.021811
2903.12	0.022651
2912.77	0.028241
2922.41	0.031341
2932.06	0.030061
2941.7	0.031101
2951.35	0.040791
2960.99	0.069961
2970.64	0.110011
2980.28	0.070121
2989.93	0.026601
2999.57	0.012891
3009.22	0.008811
3018.86	0.006751
3028.51	0.004631
3038.15	0.003671
3047.8	0.003871
3057.44	0.003231
3067.09	0.003001
3076.73	0.003351
3086.38	0.004201
3096.02	0.003861
3105.67	0.002751
3115.31	0.001981
3124.95	0.001581
3134.6	0.001441
3144.24	0.001481
3153.89	0.001491
3163.53	0.001421
3173.18	0.001521
3182.82	0.001471
3192.47	0.001261
3202.11	0.001561
3211.76	0.001471
3221.4	0.001441
3231.05	0.0012015
3240.69	0.0011473
3250.34	0.0012137
3259.98	0.0008747
3269.63	0.0007001
3279.27	0.0009351
3288.92	0.000825
3298.56	0.0008317
3308.21	0.0006286
3317.85	0.0007488
3327.49	0.0007764
3337.14	0.0007843
3346.78	0.0006512
3356.43	0.000772
3366.07	0.0006647
3375.72	0.0004421
3385.36	0.0006104
3395.01	0.0006002
3404.65	0.0004521
3414.3	0.0005155
3423.94	0.0007377
3433.59	0.0004819
3443.23	0.0004787
3452.88	0.0003789
3462.52	0.0005512
3472.17	0.0004012
3481.81	0.0002307
3491.46	0.0005754
3501.1	0.00032549
3510.75	0.0003227
3520.39	0.0003669
3530.04	0.0003526
3539.68	0.0005234
3549.32	0.0004851
3558.97	0.00030629
3568.61	0.000112
3578.26	0.00030639
3587.9	0.0002068
3597.55	0.0003934
3607.19	0.0005424
3616.84	0.00032449
3626.48	0.00030325
3636.13	0.0002302
3645.77	0.00032697
3655.42	0.0001722
3665.06	0.00027468
3674.71	0.000459
3684.35	0.0005166
3694	0.00031096
3703.64	0.00032833
3713.29	0.0003573
3722.93	0.0004392
3732.58	0.0004603
3742.22	0.0002031
3751.86	0.00031572
3761.51	0.00034998
3771.15	0.0003771
3780.8	0.0004285
3790.44	0.0004801
3800.09	0.0003766
3809.73	0.0003542
3819.38	0.0004481
3829.02	0.0004046
3838.67	0.0004755
3848.31	0.0003754
3857.96	0.0004253
3867.6	0.0002358
3877.25	0.00032109
3886.89	0.0007308
3896.54	0.0005691
3906.18	0.0006154
3915.83	0.0005377
3925.47	0.0005282
3935.12	0.0005367
3944.76	0.0006022
3954.41	0.0004945
3964.05	0.0002322
3973.69	0.0004546
3983.34	0.0004419
3992.98	0.000536
