Infrared Spectrum: 2,2-Diphenylethyl isothiocyanate
Formula: C 15 H 13 N S
CAS: 34634-22-5
State: gas
Origin: EPA-IR VAPOR PHASE LIBRARY
1/CM	ABSORBANCE
549.8	0.003433
559.445	0.003853
569.09	0.005503
578.734	0.005253
588.379	0.003643
598.024	0.002713
607.669	0.003403
617.313	0.004393
626.958	0.003353
636.603	0.002143
646.248	0.002083
655.893	0.002343
665.537	0.003173
675.182	0.005353
684.827	0.009253
694.472	0.022803
704.116	0.020243
713.761	0.011173
723.406	0.007553
733.051	0.008143
742.695	0.007403
752.34	0.005583
761.985	0.004383
771.63	0.002783
781.275	0.001933
790.919	0.001273
800.564	0.0010932
810.209	0.0009107
819.854	0.000769
829.498	0.0009402
839.143	0.00106
848.788	0.00087
858.433	0.0009379
868.078	0.0009655
877.722	0.0009154
887.367	0.0007012
897.012	0.0010615
906.657	0.0013123
916.301	0.001383
925.946	0.0011984
935.591	0.0011447
945.236	0.0011258
954.88	0.0010944
964.525	0.0012078
974.17	0.0013215
983.815	0.0011249
993.46	0.001423
1003.1	0.001953
1012.75	0.001403
1022.39	0.001973
1032.04	0.004103
1041.68	0.002083
1051.33	0.0011746
1060.97	0.001433
1070.62	0.002123
1080.26	0.003043
1089.91	0.001933
1099.55	0.001543
1109.2	0.001783
1118.84	0.0010027
1128.49	0.0012251
1138.13	0.0008353
1147.78	0.0004661
1157.42	0.0006566
1167.07	0.0007165
1176.71	0.0009545
1186.36	0.001613
1196	0.001663
1205.64	0.001633
1215.29	0.001723
1224.93	0.001613
1234.58	0.001943
1244.22	0.002043
1253.87	0.002123
1263.51	0.002073
1273.16	0.002053
1282.8	0.002423
1292.45	0.002933
1302.09	0.003953
1311.74	0.004973
1321.38	0.006333
1331.03	0.007723
1340.67	0.008913
1350.32	0.011323
1359.96	0.007893
1369.61	0.004043
1379.25	0.002513
1388.9	0.001623
1398.54	0.0011731
1408.18	0.0011525
1417.83	0.001286
1427.47	0.001913
1437.12	0.003033
1446.76	0.007093
1456.41	0.011813
1466.05	0.005903
1475.7	0.003053
1485.34	0.004763
1494.99	0.009963
1504.63	0.004823
1514.28	0.001583
1523.92	0.0010952
1533.57	0.0010566
1543.21	0.0009402
1552.86	0.0009737
1562.5	0.0010604
1572.15	0.001443
1581.79	0.002303
1591.44	0.003833
1601.08	0.004743
1610.73	0.002653
1620.37	0.001167
1630.01	0.0008477
1639.66	0.0007795
1649.3	0.0007074
1658.95	0.0007081
1668.59	0.000688
1678.24	0.0007086
1687.88	0.0006285
1697.53	0.0006225
1707.17	0.0006541
1716.82	0.0007436
1726.46	0.0008559
1736.11	0.0010247
1745.75	0.0009648
1755.4	0.0009594
1765.04	0.0008513
1774.69	0.0010182
1784.33	0.001373
1793.98	0.001943
1803.62	0.001533
1813.27	0.0012021
1822.91	0.001038
1832.55	0.0009053
1842.2	0.00095
1851.84	0.0011508
1861.49	0.001423
1871.13	0.001723
1880.78	0.001903
1890.42	0.002033
1900.07	0.001913
1909.71	0.002213
1919.36	0.002823
1929	0.003683
1938.65	0.004873
1948.29	0.005853
1957.94	0.007303
1967.58	0.008663
1977.23	0.011353
1986.87	0.015683
1996.52	0.021943
2006.16	0.030753
2015.81	0.042563
2025.45	0.057673
2035.1	0.074263
2044.74	0.087593
2054.38	0.092143
2064.03	0.084953
2073.67	0.069643
2083.32	0.057153
2092.96	0.050143
2102.61	0.044163
2112.25	0.035933
2121.9	0.027053
2131.54	0.020483
2141.19	0.016613
2150.83	0.013903
2160.48	0.011783
2170.12	0.010613
2179.77	0.010513
2189.41	0.010933
2199.06	0.011613
2208.7	0.011733
2218.35	0.010283
2227.99	0.007833
2237.64	0.005453
2247.28	0.004013
2256.92	0.003113
2266.57	0.002483
2276.21	0.002053
2285.86	0.001793
2295.5	0.001533
2305.15	0.001363
2314.79	0.001433
2324.44	0.0012742
2334.08	0.001168
2343.73	0.001154
2353.37	0.0010395
2363.02	0.0009329
2372.66	0.0008942
2382.31	0.0007666
2391.95	0.00064
2401.6	0.0006733
2411.24	0.000635
2420.89	0.0005749
2430.53	0.00054
2440.18	0.0005261
2449.82	0.0005704
2459.47	0.0006024
2469.11	0.0005934
2478.75	0.0005556
2488.4	0.0006922
2498.04	0.0005754
2507.69	0.0006031
2517.33	0.0005742
2526.98	0.000704
2536.62	0.0008424
2546.27	0.0008011
2555.91	0.0008376
2565.56	0.0007423
2575.2	0.000729
2584.85	0.0006791
2594.49	0.0006628
2604.14	0.0005637
2613.78	0.0005649
2623.43	0.0005963
2633.07	0.0006201
2642.72	0.0006195
2652.36	0.0005642
2662.01	0.0006302
2671.65	0.0008133
2681.29	0.0008994
2690.94	0.0008272
2700.58	0.0008333
2710.23	0.0008661
2719.87	0.0009074
2729.52	0.0009456
2739.16	0.0011431
2748.81	0.0011923
2758.45	0.0012526
2768.1	0.001413
2777.74	0.0012878
2787.39	0.0012302
2797.03	0.0010091
2806.68	0.0008764
2816.32	0.0009196
2825.97	0.0007234
2835.61	0.0006995
2845.26	0.0008797
2854.9	0.000943
2864.55	0.001064
2874.19	0.001893
2883.84	0.003653
2893.48	0.003583
2903.12	0.003053
2912.77	0.002743
2922.41	0.002233
2932.06	0.003293
2941.7	0.005143
2951.35	0.005923
2960.99	0.005123
2970.64	0.002813
2980.28	0.001563
2989.93	0.0011945
2999.57	0.001623
3009.22	0.002343
3018.86	0.004283
3028.51	0.009183
3038.15	0.010583
3047.8	0.006683
3057.44	0.006673
3067.09	0.012253
3076.73	0.012773
3086.38	0.007443
3096.02	0.005683
3105.67	0.003613
3115.31	0.002203
3124.95	0.0009857
3134.6	0.0007138
3144.24	0.0005294
3153.89	0.0005164
3163.53	0.0006262
3173.18	0.0005183
3182.82	0.000323
3192.47	0.0003059
3202.11	0.00044031
3211.76	0.000162
3221.4	0.000212
3231.05	3.2e-05
3240.69	4.7e-05
3250.34	9.9e-05
3259.98	0.00035981
3269.63	0.000277
3279.27	0.000233
3288.92	0.000146
3298.56	0.000188
3308.21	0.000122
3317.85	0.000236
3327.49	0.0002969
3337.14	0.000174
3346.78	0.000231
3356.43	0.0003688
3366.07	8.4e-05
3375.72	0.000188
3385.36	0.00037722
3395.01	0.00038116
3404.65	0.00037225
3414.3	0.0005005
3423.94	0.00039955
3433.59	0.000233
3443.23	0.000222
3452.88	0.0002705
3462.52	0.0002444
3472.17	0.000166
3481.81	0.000197
3491.46	0.000144
3501.1	0.0003233
3510.75	0.00033785
3520.39	0.000272
3530.04	0.000238
3539.68	0.00039618
3549.32	0.0004491
3558.97	0.0003187
3568.61	0.000172
3578.26	0.0003181
3587.9	0.000205
3597.55	0.0002757
3607.19	0.0004525
3616.84	0.00039763
3626.48	0.0003017
3636.13	0.00042132
3645.77	0.00038014
3655.42	0.0002551
3665.06	0.00037789
3674.71	0.000202
3684.35	0.0002437
3694	0.0004809
3703.64	0.00039943
3713.29	0.000343116
3722.93	0.00037368
3732.58	0.00033
3742.22	0.00038503
3751.86	0.00037774
3761.51	0.00041964
3771.15	0.000164
3780.8	0.000166
3790.44	0.0003305
3800.09	0.0002908
3809.73	0.0004739
3819.38	0.0002442
3829.02	0.00033491
3838.67	0.0003142
3848.31	0.00040273
3857.96	0.0004933
3867.6	0.000351853
3877.25	0.000159
3886.89	0.00037538
3896.54	0.00044252
3906.18	0.0005321
3915.83	0.00039195
3925.47	0.00040371
3935.12	0.00034091
3944.76	0.0005328
3954.41	0.0005029
3964.05	0.0003283
3973.69	0.0006443
3983.34	0.0005831
3992.98	0.0005421
