Infrared Spectrum: Tokuthion
Formula: C 11 H 15 Cl 2 O 2 P S 2
CAS: 34643-46-4
State: gas
Instrument: HP-GC/MS/IRD
Origin: NIST Mass Spectrometry Data Center
1/CM	ABSORBANCE
550	0.0616512
562	0.0654368
574	0.0342732
586	0.0053404
598	0.0017576
610	0.0093964
622	0.053066
634	0.0717912
646	0.0269048
658	0.0496184
670	0.201245
682	0.0573248
694	0.11857
706	0.127494
718	0.13831
730	0.0773344
742	0.0342732
754	0.0265668
766	0.051714
778	0.125601
790	0.219227
802	0.369028
814	0.40756
826	0.309202
838	0.0856492
850	0.0372476
862	0.0680732
874	0.0794976
886	0.107011
898	0.22504
910	0.443456
922	0.38559
934	0.223891
946	0.23464
958	0.220984
970	0.129454
982	0.0646256
994	0.0625976
1006	0.117827
1018	0.278309
1030	0.490506
1042	0.423379
1054	0.313123
1066	0.213143
1078	0.112216
1090	0.134524
1102	0.23687
1114	0.0723996
1126	0.0454272
1138	0.0504296
1150	0.052052
1162	0.0323804
1174	0.0291356
1186	0.0298116
1198	0.0442104
1210	0.118165
1222	0.344625
1234	0.317044
1246	0.244644
1258	0.213548
1270	0.081796
1282	0.039884
1294	0.0360308
1306	0.0207532
1318	0.0092612
1330	0.0079092
1342	0.0107484
1354	0.0113568
1366	0.0234572
1378	0.0523224
1390	0.0791596
1402	0.0419796
1414	0.0369096
1426	0.06929
1438	0.06422
1450	0.0916656
1462	0.231462
1474	0.676
1486	0.266479
1498	0.101265
1510	0.0488748
1522	0.0269724
1534	0.018928
1546	0.0152776
1558	0.0178464
1570	0.0306228
1582	0.0359632
1594	0.0112892
1606	0.0048672
1618	0.004394
1630	0.0041912
1642	0.0022308
1654	0.0004056
1666	0
1678	0.0005408
1690	0.0012844
1702	0.00169
1714	0.004056
1726	0.0106132
1738	0.0092612
1750	0.0053404
1762	0.0041912
1774	0.0027716
1786	0.0017576
1798	0.0025688
1810	0.004056
1822	0.004732
1834	0.005408
1846	0.0063544
1858	0.0069628
1870	0.0076388
1882	0.006422
1894	0.0035828
1906	0.0024336
1918	0.0025688
1930	0.0032448
1942	0.0034476
1954	0.0027716
1966	0.002366
1978	0.0018252
1990	0.0015548
2002	0.0016224
2014	0.0019604
2026	0.0020956
2038	0.0025012
2050	0.0027716
2062	0.0025688
2074	0.0025688
2086	0.0025688
2098	0.0026364
2110	0.0026364
2122	0.0027716
2134	0.003042
2146	0.0031096
2158	0.0029744
2170	0.0029744
2182	0.003042
2194	0.0027716
2206	0.002366
2218	0.0019604
2230	0.0018928
2242	0.0018252
2254	0.002028
2266	0.002366
2278	0.002704
2290	0.003042
2302	0.0031096
2314	0.0031096
2326	0.0028392
2338	0.002366
2350	0.002366
2362	0.0020956
2374	0.0022308
2386	0.0024336
2398	0.0026364
2410	0.0028392
2422	0.0031096
2434	0.0037856
2446	0.0045292
2458	0.004732
2470	0.004732
2482	0.0045968
2494	0.0041236
2506	0.0039208
2518	0.0035152
2530	0.003042
2542	0.002366
2554	0.0019604
2566	0.00169
2578	0.0017576
2590	0.0018928
2602	0.0019604
2614	0.0020956
2626	0.0021632
2638	0.0022308
2650	0.0025012
2662	0.0029744
2674	0.0031772
2686	0.0028392
2698	0.0028392
2710	0.00338
2722	0.0042588
2734	0.0046644
2746	0.0048672
2758	0.0048672
2770	0.0054756
2782	0.0064896
2794	0.0076388
2806	0.0093288
2818	0.0110188
2830	0.0127764
2842	0.0150072
2854	0.0198068
2866	0.033462
2878	0.0528632
2890	0.0600964
2902	0.0542828
2914	0.0674648
2926	0.08957
2938	0.126209
2950	0.117016
2962	0.109377
2974	0.171434
2986	0.143582
2998	0.084838
3010	0.0464412
3022	0.029406
3034	0.0194012
3046	0.0140608
3058	0.011154
3070	0.01014
3082	0.0106132
3094	0.0093288
3106	0.0077064
3118	0.006422
3130	0.0058812
3142	0.0054756
3154	0.0051376
3166	0.0047996
3178	0.0045292
3190	0.0041912
3202	0.0039208
3214	0.0034476
3226	0.003042
3238	0.002704
3250	0.002366
3262	0.0021632
3274	0.0020956
3286	0.0020956
3298	0.002028
3310	0.0019604
3322	0.0019604
3334	0.0019604
3346	0.0018928
3358	0.0019604
3370	0.0019604
3382	0.0018928
3394	0.0019604
3406	0.0018252
3418	0.0018928
3430	0.00169
3442	0.0017576
3454	0.00169
3466	0.0017576
3478	0.0017576
3490	0.0018252
3502	0.0017576
3514	0.0018252
3526	0.00169
3538	0.0018252
3550	0.0018252
3562	0.0019604
3574	0.0024336
3586	0.0024336
3598	0.0019604
3610	0.0017576
3622	0.0018928
3634	0.0018252
3646	0.0019604
3658	0.002028
3670	0.0018928
3682	0.0021632
3694	0.0021632
3706	0.0022984
3718	0.0022984
3730	0.0022308
3742	0.0022984
3754	0.0025012
3766	0.0027716
3778	0.0026364
3790	0.0025012
3802	0.0022984
3814	0.0021632
3826	0.0020956
3838	0.0021632
