Infrared Spectrum: 3Beta-CHLOROACETOXYCHOLEST-5-ENE
Formula: C29 H47 Cl O2
CAS: 3464-50-4
State: SOLID (KBr DISC)
Class: COBLENTZ III
Instrument: BECKMAN IR-7
Sampling: TRANSMISSION
Resolution: 4
Origin: THE WORCESTER FOUNDATION FOR EXPERIMENTAL BIOLOGY, Neal L. McNiven
1/CM	TRANSMITTANCE
594.891	0.69
603.65	0.653
612.409	0.643
621.168	0.709
629.928	0.701
638.687	0.768
647.446	0.832
656.205	0.901
664.964	0.921
673.723	0.927
682.482	0.913
691.241	0.83
700.001	0.893
708.76	0.944
717.519	0.96
726.278	0.956
735.037	0.928
743.796	0.952
752.555	0.976
761.314	0.982
770.074	0.97
778.833	0.885
787.592	0.7019
796.351	0.898
805.11	0.813
813.869	0.917
822.628	0.913
831.387	0.88
840.147	0.821
848.906	0.882
857.665	0.888
866.424	0.959
875.183	0.947
883.942	0.905
892.701	0.936
901.46	0.931
910.22	0.871
918.979	0.77
927.738	0.703
936.497	0.798
945.256	0.833
954.015	0.763
962.774	0.783
971.533	0.81
980.293	0.7001
989.052	0.685
997.811	0.504
1006.57	0.36
1015.33	0.653
1024.09	0.53
1032.85	0.731
1041.61	0.808
1050.37	0.808
1059.12	0.816
1067.88	0.814
1076.64	0.813
1085.4	0.773
1094.16	0.808
1102.92	0.794
1111.68	0.743
1120.44	0.735
1129.2	0.709
1137.96	0.639
1146.72	0.725
1155.48	0.699
1164.23	0.6
1172.99	0.524
1181.75	0.341
1190.51	0.12
1199.27	0.105
1208.03	0.409
1216.79	0.621
1225.55	0.704
1234.31	0.753
1243.07	0.757
1251.83	0.743
1260.58	0.783
1269.34	0.793
1278.1	0.79
1286.86	0.77
1295.62	0.749
1304.38	0.557
1313.14	0.355
1321.9	0.408
1330.66	0.61
1339.42	0.688
1348.18	0.732
1356.93	0.674
1365.69	0.503
1374.45	0.536
1383.21	0.465
1391.97	0.708
1400.73	0.666
1409.49	0.322
1418.25	0.6369
1427.01	0.617
1435.77	0.555
1444.53	0.554
1453.29	0.535
1462.04	0.413
1470.8	0.541
1479.56	0.764
1488.32	0.804
1497.08	0.818
1505.84	0.834
1514.6	0.838
1523.36	0.848
1532.12	0.849
1540.88	0.847
1549.64	0.853
1558.39	0.858
1567.15	0.858
1575.91	0.858
1584.67	0.853
1593.43	0.845
1602.19	0.839
1610.95	0.832
1619.71	0.833
1628.47	0.829
1637.23	0.824
1645.99	0.813
1654.75	0.812
1663.5	0.795
1672.26	0.773
1681.02	0.794
1689.78	0.794
1698.54	0.783
1707.3	0.725
1716.06	0.754
1724.82	0.728
1733.58	0.64
1742.34	0.349
1751.1	0.066
1759.85	0.396
1768.61	0.645
1777.37	0.734
1786.13	0.768
1794.89	0.779
1803.65	0.788
1812.41	0.797
1821.17	0.797
1829.93	0.807
1838.69	0.809
1847.45	0.826
1856.21	0.828
1864.96	0.829
1873.72	0.831
1882.48	0.832
1891.24	0.83
1900	0.831
1908.76	0.83
1917.52	0.831
1926.28	0.831
1935.04	0.831
1943.8	0.83
1952.56	0.829
1961.31	0.829
1970.07	0.827
1978.83	0.825
1987.59	0.823
1996.35	0.82
2005.11	0.818
2013.87	0.817
2022.63	0.816
2031.39	0.816
2040.15	0.8141
2048.91	0.8131
2057.66	0.813
2066.42	0.812
2075.18	0.811
2083.94	0.81
2092.7	0.81
2101.46	0.808
2110.22	0.8079
2118.98	0.806
2127.74	0.805
2136.5	0.804
2145.26	0.8028
2154.02	0.8008
2162.77	0.7988
2171.53	0.797
2180.29	0.7947
2189.05	0.793
2197.81	0.7916
2206.57	0.789
2215.33	0.7876
2224.09	0.7856
2232.85	0.7835
2241.61	0.781
2250.37	0.7785
2259.12	0.776
2267.88	0.7744
2276.64	0.773
2285.4	0.7704
2294.16	0.769
2302.92	0.7673
2311.68	0.765
2320.44	0.757
2329.2	0.7495
2337.96	0.7444
2346.72	0.7402
2355.48	0.7371
2364.23	0.7295
2372.99	0.7249
2381.75	0.7386
2390.51	0.7499
2399.27	0.751
2408.03	0.749
2416.79	0.749
2425.55	0.7469
2434.31	0.7449
2443.07	0.7439
2451.83	0.7408
2460.58	0.738
2469.34	0.736
2478.1	0.7338
2486.86	0.7327
2495.62	0.731
2504.38	0.733
2513.14	0.733
2521.9	0.728
2530.66	0.7266
2539.42	0.7236
2548.18	0.72
2556.94	0.7175
2565.69	0.7155
2574.45	0.7155
2583.21	0.714
2591.97	0.7114
2600.73	0.7084
2609.49	0.706
2618.25	0.704
2627.01	0.6962
2635.77	0.693
2644.53	0.6912
2653.29	0.69
2662.04	0.6892
2670.8	0.6872
2679.56	0.6823
2688.32	0.6809
2697.08	0.6752
2705.84	0.669
2714.6	0.668
2723.36	0.668
2732.12	0.6711
2740.88	0.6719
2749.64	0.6658
2758.39	0.6598
2767.15	0.656
2775.91	0.6475
2784.67	0.6288
2793.43	0.5715
2802.19	0.4113
2810.95	0.3654
2819.71	0.3643
2828.47	0.315
2837.23	0.2676
2845.99	0.2371
2854.75	0.2012
2863.5	0.1976
2872.26	0.1911
2881.02	0.186
2889.78	0.1569
2898.54	0.1427
2907.3	0.1523
2916.06	0.1152
2924.82	0.0866
2933.58	0.0817
2942.34	0.1045
2951.1	0.1304
2959.85	0.1617
2968.61	0.2629
2977.37	0.3715
2986.13	0.4216
2994.89	0.4674
3003.65	0.5279
3012.41	0.5387
3021.17	0.5489
3029.93	0.5539
3038.69	0.563
3047.45	0.57
3056.21	0.5742
3064.96	0.5841
3073.72	0.5891
3082.48	0.5901
3091.24	0.591
3100	0.5898
3108.76	0.589
3117.52	0.5885
3126.28	0.587
3135.04	0.5867
3143.8	0.5857
3152.56	0.584
3161.31	0.5826
3170.07	0.582
3178.83	0.584
3187.59	0.5855
3196.35	0.586
3205.11	0.589
3213.87	0.59
3222.63	0.591
3231.39	0.589
3240.15	0.5864
3248.91	0.587
3257.67	0.587
3266.42	0.5863
3275.18	0.586
3283.94	0.5852
3292.7	0.5842
3301.46	0.5802
3310.22	0.5772
3318.98	0.576
3327.74	0.5751
3336.5	0.574
3345.26	0.573
3354.02	0.5711
3362.77	0.568
3371.53	0.568
3380.29	0.568
3389.05	0.5669
3397.81	0.5649
3406.57	0.5629
3415.33	0.5623
3424.09	0.5654
3432.85	0.567
3441.61	0.566
3450.37	0.565
3459.13	0.5617
3467.88	0.559
3476.64	0.56
3485.4	0.5628
3494.16	0.565
3502.92	0.5654
3511.68	0.567
3520.44	0.568
3529.2	0.568
3537.96	0.568
3546.72	0.568
3555.48	0.569
3564.23	0.569
3572.99	0.5697
3581.75	0.57
3590.51	0.57
3599.27	0.57
3608.03	0.571
3616.79	0.571
3625.55	0.571
3634.31	0.571
3643.07	0.571
3651.83	0.5701
3660.58	0.57
3669.34	0.569
3678.1	0.568
3686.86	0.567
3695.62	0.567
3704.38	0.567
3713.14	0.567
3721.9	0.567
3730.66	0.567
3739.42	0.567
3748.18	0.5658
3756.94	0.5618
3765.69	0.5585
3774.45	0.556
3783.21	0.5547
3791.97	0.5527
3800.73	0.552
3809.49	0.552
3818.25	0.551
3827.01	0.55
3835.77	0.549
3844.53	0.5485
3853.29	0.5465
3862.04	0.5444
3870.8	0.5434
3879.56	0.5446
3888.32	0.546
3897.08	0.5443
3905.84	0.541
3914.6	0.5393
3923.36	0.538
3932.12	0.5362
3940.88	0.536
3949.64	0.536
3958.4	0.536
3967.15	0.536
3975.91	0.536
3984.67	0.536
3993.43	0.536
4002.19	0.536
