Infrared Spectrum: 4-CHLORO-2-NITROBENZONITRILE
Formula: C7 H3 Cl N2 O2
CAS: 34662-32-3
State: SOLID (SPLIT MULL), FLUOROLUBE FOR 3800-1330 CM^-^1, NUJOL FOR 1330-400 CM^-^1
Melting point: 98 C
Class: COBLENTZ III
Instrument: BECKMAN IR-9 (GRATING)
Instrument parameters: ORDER CHANGES: 670, 1200, 2000 CM^-^1
Sampling: TRANSMISSION
Resolution: 2
Origin: DOW CHEMICAL COMPANY
1/CM	TRANSMITTANCE
400.889	0.718
409.778	0.713
418.667	0.75
427.556	0.8
436.445	0.836
445.334	0.863
454.222	0.883
463.111	0.897
472	0.908
480.889	0.909
489.778	0.909
498.667	0.912
507.556	0.93
516.445	0.945
525.334	0.954
534.223	0.956
543.111	0.944
552	0.806
560.889	0.309
569.778	0.719
578.667	0.919
587.556	0.938
596.445	0.908
605.334	0.897
614.223	0.925
623.112	0.911
632	0.73
640.889	0.663
649.778	0.944
658.667	0.979
667.556	0.965
676.445	0.897
685.334	0.826
694.223	0.834
703.112	0.729
712.001	0.758
720.889	0.859
729.778	0.854
738.667	0.872
747.556	0.883
756.445	0.883
765.334	0.816
774.223	0.893
783.112	0.865
792.001	0.42
800.89	0.5612
809.778	0.883
818.667	0.9
827.556	0.87
836.445	0.838
845.334	0.3939
854.223	0.2631
863.112	0.77
872.001	0.831
880.89	0.829
889.779	0.6979
898.667	0.773
907.556	0.834
916.445	0.483
925.334	0.716
934.223	0.831
943.112	0.847
952.001	0.85
960.89	0.844
969.779	0.837
978.668	0.826
987.556	0.822
996.445	0.831
1005.33	0.829
1014.22	0.826
1023.11	0.818
1032	0.811
1040.89	0.804
1049.78	0.797
1058.67	0.786
1067.56	0.772
1076.45	0.722
1085.33	0.73
1094.22	0.694
1103.11	0.5979
1112	0.3059
1120.89	0.3501
1129.78	0.759
1138.67	0.795
1147.56	0.704
1156.45	0.3619
1165.33	0.6592
1174.22	0.8
1183.11	0.79
1192	0.72
1200.89	0.573
1209.78	0.729
1218.67	0.747
1227.56	0.737
1236.45	0.72
1245.33	0.708
1254.22	0.694
1263.11	0.662
1272	0.644
1280.89	0.584
1289.78	0.426
1298.67	0.633
1307.56	0.629
1316.45	0.58
1325.33	0.518
1334.22	0.319
1343.11	0.194
1352	0.109
1360.89	0.2681
1369.78	0.5
1378.67	0.568
1387.56	0.576
1396.45	0.575
1405.33	0.562
1414.22	0.545
1423.11	0.533
1432	0.518
1440.89	0.49
1449.78	0.458
1458.67	0.402
1467.56	0.352
1476.45	0.298
1485.33	0.343
1494.22	0.359
1503.11	0.258
1512	0.1499
1520.89	0.075
1529.78	0.051
1538.67	0.061
1547.56	0.1971
1556.45	0.3397
1565.33	0.6202
1574.22	0.908
1583.11	0.977
1592	0.954
1600.89	0.883
1609.78	0.851
1618.67	0.888
1627.56	0.929
1636.45	0.93
1645.34	0.894
1654.22	0.877
1663.11	0.854
1672	0.836
1680.89	0.836
1689.78	0.827
1698.67	0.809
1707.56	0.795
1716.45	0.793
1725.34	0.79
1734.22	0.779
1743.11	0.768
1752	0.761
1760.89	0.756
1769.78	0.748
1778.67	0.741
1787.56	0.726
1796.45	0.718
1805.34	0.709
1814.22	0.698
1823.11	0.672
1832	0.668
1840.89	0.681
1849.78	0.683
1858.67	0.684
1867.56	0.681
1876.45	0.677
1885.34	0.67
1894.22	0.662
1903.11	0.659
1912	0.656
1920.89	0.655
1929.78	0.654
1938.67	0.645
1947.56	0.63
1956.45	0.626
1965.34	0.627
1974.22	0.631
1983.11	0.631
1992	0.629
2000.89	0.6195
2009.78	0.6135
2018.67	0.603
2027.56	0.5975
2036.45	0.591
2045.34	0.5875
2054.22	0.584
2063.11	0.58
2072	0.5765
2080.89	0.572
2089.78	0.5685
2098.67	0.5639
2107.56	0.5599
2116.45	0.5555
2125.34	0.5515
2134.22	0.547
2143.11	0.5419
2152	0.5374
2160.89	0.533
2169.78	0.527
2178.67	0.523
2187.56	0.5173
2196.45	0.5114
2205.34	0.5029
2214.22	0.4923
2223.11	0.4758
2232	0.3549
2240.89	0.3642
2249.78	0.558
2258.67	0.5138
2267.56	0.499
2276.45	0.4904
2285.34	0.4864
2294.22	0.484
2303.11	0.484
2312	0.4818
2320.89	0.48
2329.78	0.48
2338.67	0.4778
2347.56	0.477
2356.45	0.4764
2365.34	0.476
2374.22	0.4754
2383.11	0.4724
2392	0.4684
2400.89	0.4624
2409.78	0.459
2418.67	0.455
2427.56	0.452
2436.45	0.452
2445.34	0.451
2454.22	0.45
2463.11	0.448
2472	0.448
2480.89	0.448
2489.78	0.447
2498.67	0.4456
2507.56	0.445
2516.45	0.444
2525.34	0.441
2534.23	0.44
2543.11	0.4373
2552	0.436
2560.89	0.433
2569.78	0.429
2578.67	0.423
2587.56	0.419
2596.45	0.419
2605.34	0.423
2614.23	0.425
2623.11	0.423
2632	0.42
2640.89	0.4165
2649.78	0.4135
2658.67	0.4065
2667.56	0.404
2676.45	0.401
2685.34	0.398
2694.23	0.3955
2703.11	0.395
2712	0.395
2720.89	0.394
2729.78	0.393
2738.67	0.391
2747.56	0.388
2756.45	0.387
2765.34	0.3844
2774.23	0.383
2783.11	0.381
2792	0.38
2800.89	0.3762
2809.78	0.373
2818.67	0.3684
2827.56	0.365
2836.45	0.361
2845.34	0.355
2854.23	0.3502
2863.11	0.3442
2872	0.3372
2880.89	0.331
2889.78	0.33
2898.67	0.3326
2907.56	0.334
2916.45	0.334
2925.34	0.334
2934.23	0.334
2943.11	0.333
2952	0.331
2960.89	0.3292
2969.78	0.326
2978.67	0.3221
2987.56	0.318
2996.45	0.3121
3005.34	0.3024
3014.23	0.2953
3023.11	0.2863
3032	0.286
3040.89	0.286
3049.78	0.2695
3058.67	0.2515
3067.56	0.2123
3076.45	0.208
3085.34	0.252
3094.23	0.206
3103.11	0.234
3112	0.3538
3120.89	0.354
3129.78	0.3482
3138.67	0.3412
3147.56	0.3361
3156.45	0.334
3165.34	0.331
3174.23	0.3291
3183.11	0.327
3192	0.3251
3200.89	0.323
3209.78	0.322
3218.67	0.3191
3227.56	0.318
3236.45	0.3151
3245.34	0.313
3254.23	0.311
3263.11	0.308
3272	0.306
3280.89	0.304
3289.78	0.301
3298.67	0.3
3307.56	0.298
3316.45	0.297
3325.34	0.297
3334.23	0.294
3343.11	0.293
3352	0.29
3360.89	0.288
3369.78	0.286
3378.67	0.284
3387.56	0.281
3396.45	0.279
3405.34	0.279
3414.23	0.279
3423.12	0.277
3432	0.277
3440.89	0.276
3449.78	0.276
3458.67	0.275
3467.56	0.275
3476.45	0.273
3485.34	0.273
3494.23	0.272
3503.12	0.27
3512	0.268
3520.89	0.265
3529.78	0.265
3538.67	0.263
3547.56	0.262
3556.45	0.2619
3565.34	0.2609
3574.23	0.259
3583.12	0.2579
3592	0.256
3600.89	0.256
3609.78	0.256
3618.67	0.255
3627.56	0.255
3636.45	0.254
3645.34	0.252
3654.23	0.252
3663.12	0.252
3672	0.252
3680.89	0.252
3689.78	0.252
3698.67	0.252
3707.56	0.252
3716.45	0.251
3725.34	0.251
3734.23	0.2509
3743.12	0.25
3752	0.25
3760.89	0.248
3769.78	0.2449
3778.67	0.2397
3787.56	0.2339
