Infrared Spectrum: 2,2'-Bipyrimidine
Formula: C 8 H 6 N 4
CAS: 34671-83-5
State: gas
Instrument: HP-GC/MS/IRD
Origin: NIST Mass Spectrometry Data Center
1/CM	ABSORBANCE
550	0.0002014
562	0.0004427
574	0.0001349
586	0.0002337
598	0.0004332
610	0.0005244
622	0.0012331
634	0.00152
646	0.000855
658	0.0003667
670	0.0004066
682	0.0026638
694	0.0011932
706	0.0002888
718	0.0001406
730	0.0003287
742	0.0005358
754	0.0008417
766	0.0013091
778	0.0022306
790	0.0028538
802	0.0024358
814	0.0013452
826	0.0008056
838	0.0006137
850	0.0003971
862	0.0003097
874	0.0001539
886	0.0001045
898	0.000133
910	0.0002318
922	0.0002356
934	0.0001425
946	0.0001197
958	2.28e-05
970	0.0001292
982	0.0001786
994	0.0001691
1006	6.84e-05
1018	0.0002394
1030	0.0001273
1042	1.71e-05
1054	0.000266
1066	0.0001463
1078	0.000209
1090	0.0001558
1102	0.0001843
1114	0.0002394
1126	0.0008493
1138	0.0042864
1150	0.0039767
1162	0.0008683
1174	0.0006593
1186	0.0006308
1198	0.0005776
1210	0.0006099
1222	0.0006897
1234	0.0007106
1246	0.0007904
1258	0.0006992
1270	0.0005643
1282	0.0003762
1294	0.0003724
1306	0.0003401
1318	0.0004579
1330	0.0005605
1342	0.0006555
1354	0.0007638
1366	0.0009196
1378	0.001368
1390	0.0074233
1402	0.019
1414	0.0048127
1426	0.0008949
1438	0.0004788
1450	0.0003572
1462	0.0003135
1474	0.0003192
1486	0.0003781
1498	0.0004028
1510	0.0006289
1522	0.0014706
1534	0.003477
1546	0.0079363
1558	0.0155819
1570	0.0121619
1582	0.0028253
1594	0.001102
1606	0.0006308
1618	0.0005092
1630	0.0004256
1642	0.0003572
1654	0.0004218
1666	0.0003895
1678	0.0003952
1690	0.0003648
1702	0.0003059
1714	0.000266
1726	0.0002337
1738	0.000209
1750	0.0001938
1762	0.0002603
1774	0.0003686
1786	0.0002679
1798	0.0001824
1810	0.0001786
1822	0.0001824
1834	0.000152
1846	0.0001653
1858	0.0001482
1870	0.0001292
1882	0.0001121
1894	0.0001425
1906	0.0001368
1918	0.0001482
1930	0.000209
1942	0.0003135
1954	0.0003895
1966	0.0003287
1978	0.0001881
1990	0.0001121
2002	0.0001026
2014	8.17e-05
2026	0.0001083
2038	0.0001064
2050	0.0001083
2062	8.36e-05
2074	8.93e-05
2086	9.12e-05
2098	0.000133
2110	0.0001482
2122	0.0001254
2134	0.0001482
2146	0.0001292
2158	0.0001273
2170	0.0001425
2182	0.0001786
2194	0.0001425
2206	9.12e-05
2218	0.0001045
2230	0.0001102
2242	0.0001102
2254	0.0001178
2266	0.0001235
2278	0.0001292
2290	0.0001064
2302	6.46e-05
2314	0.0001349
2326	0.0001596
2338	0.0001843
2350	0.0001045
2362	0.0001254
2374	0.0001159
2386	0.00019
2398	0.0001292
2410	0.0001406
2422	0.0001007
2434	0.000114
2446	0.000114
2458	0.0001121
2470	7.41e-05
2482	0.0001045
2494	0.0001178
2506	2.47e-05
2518	8.55e-05
2530	9.88e-05
2542	0.0001729
2554	0.0001292
2566	9.12e-05
2578	9.88e-05
2590	0.0001121
2602	0.0001843
2614	0.0001425
2626	9.12e-05
2638	8.74e-05
2650	9.31e-05
2662	6.84e-05
2674	0.000114
2686	7.79e-05
2698	3.99e-05
2710	0.0001045
2722	4.37e-05
2734	4.94e-05
2746	7.41e-05
2758	6.46e-05
2770	0.0001254
2782	1.52e-05
2794	4.56e-05
2806	1.33e-05
2818	6.65e-05
2830	8.55e-05
2842	0.000171
2854	8.74e-05
2866	0.0001672
2878	0.0001805
2890	0.0001482
2902	0.0001672
2914	0.0001539
2926	0.0001121
2938	0.0002318
2950	0.0002052
2962	0.0004142
2974	0.0005054
2986	0.0004712
2998	0.0004693
3010	0.0005282
3022	0.0010526
3034	0.0019608
3046	0.0035644
3058	0.0027854
3070	0.0016625
3082	0.0011609
3094	0.0005168
3106	0.0005719
3118	0.0007467
3130	0.000646
3142	0.0003439
3154	0.0001368
3166	0.0001463
3178	0.0001596
3190	0.0001064
3202	0.0001254
3214	0.0001311
3226	0.0001083
3238	0.0001007
3250	0.0001216
3262	0.0001482
3274	3.61e-05
3286	0.0001615
3298	0.0001691
3310	8.55e-05
3322	5.7e-05
3334	4.75e-05
3346	0.0001311
3358	0.0001558
3370	0.0002318
3382	1.33e-05
3394	9.5e-05
3406	0.0001197
3418	0.000133
3430	0.0001083
3442	0.0002052
3454	0.0002546
3466	0.000133
3478	8.17e-05
3490	0.0001539
3502	0.00019
3514	0.0001786
3526	0.0001444
3538	0.000114
3550	0.0001311
3562	0.0001482
3574	8.36e-05
3586	0.0001786
3598	7.41e-05
3610	0.0001273
3622	0.0001539
3634	0.0001577
3646	0.0001615
3658	0.0001919
3670	0.0001406
3682	0.000171
3694	0.000171
3706	7.6e-05
3718	0.0001254
3730	7.6e-05
3742	0.0001159
3754	0.0001463
3766	0.0001748
3778	0.0001463
3790	0.0001463
3802	0.0001653
3814	0.0001501
3826	0.0003192
3838	0.0001368
