Infrared Spectrum: 3-METHYL-4-OXO-2-PHENYL-4H-1-BENZOPYRAN-8-CARBOXYLIC ACID, ESTER WITH 4-MORPHOLINETHANOL, HYDROCHLORIDE
Formula: C23 H24 Cl N O5
CAS: 3468-02-8
State: SOLID (OIL MULL)
Class: COBLENTZ III
Instrument: Not specified, most likely a prism spectrometer.
Instrument parameters: NaCl PRISM
Sampling: TRANSMISSION
Resolution: 2
Origin: SMITH KLINE & FRENCH LABS.
MICROMETERS	TRANSMITTANCE
2.011	0.236
2.05018	0.239
2.08937	0.245
2.12855	0.25
2.16773	0.253
2.20691	0.272
2.2461	0.275
2.28528	0.279
2.32446	0.285
2.36365	0.294
2.40283	0.308
2.44201	0.32
2.48119	0.334
2.52038	0.341
2.55956	0.347
2.59874	0.357
2.63793	0.373
2.67711	0.373
2.71629	0.386
2.75547	0.4
2.79466	0.399
2.83384	0.408
2.87302	0.398
2.91221	0.399
2.95139	0.399
2.99057	0.402
3.02975	0.421
3.06894	0.431
3.10812	0.437
3.1473	0.439
3.18649	0.443
3.22567	0.448
3.26485	0.447
3.30403	0.416
3.34322	0.356
3.3824	0.145
3.42158	0.069
3.46077	0.057
3.49995	0.078
3.53913	0.179
3.57832	0.464
3.6175	0.499
3.65668	0.504
3.69586	0.498
3.73505	0.509
3.77423	0.487
3.81341	0.481
3.8526	0.448
3.89178	0.424
3.93096	0.442
3.97014	0.438
4.00933	0.425
4.04851	0.42
4.08769	0.354
4.12688	0.264
4.16606	0.221
4.20524	0.202
4.24442	0.189
4.28361	0.215
4.32279	0.256
4.36197	0.383
4.40116	0.442
4.44034	0.492
4.47952	0.541
4.5187	0.575
4.55789	0.6
4.59707	0.629
4.63625	0.658
4.67544	0.685
4.71462	0.701
4.7538	0.724
4.79298	0.735
4.83217	0.749
4.87135	0.759
4.91053	0.77
4.94972	0.77
4.9889	0.77
5.02808	0.758
5.06726	0.772
5.10645	0.777
5.14563	0.791
5.18481	0.792
5.224	0.791
5.26318	0.792
5.30236	0.804
5.34154	0.818
5.38073	0.817
5.41991	0.82
5.45909	0.817
5.49828	0.818
5.53746	0.828
5.57664	0.828
5.61582	0.828
5.65501	0.828
5.69419	0.815
5.73337	0.743
5.77256	0.539
5.81174	0.133
5.85092	0.448
5.8901	0.64
5.92929	0.752
5.96847	0.758
6.00765	0.78
6.04684	0.76
6.08602	0.321
6.1252	0.183
6.16438	0.196
6.20357	0.34
6.24275	0.465
6.28193	0.585
6.32112	0.619
6.3603	0.56
6.39948	0.68
6.43866	0.729
6.47785	0.758
6.51703	0.783
6.55621	0.781
6.5954	0.782
6.63458	0.776
6.67376	0.62
6.71295	0.6
6.75213	0.345
6.79131	0.261
6.83049	0.226
6.86968	0.222
6.90886	0.182
6.94804	0.113
6.98723	0.336
7.02641	0.504
7.06559	0.639
7.10477	0.631
7.14396	0.533
7.18314	0.208
7.22232	0.172
7.26151	0.162
7.30069	0.297
7.33987	0.494
7.37905	0.591
7.41824	0.616
7.45742	0.586
7.4966	0.624
7.53579	0.397
7.57497	0.568
7.61415	0.614
7.65333	0.578
7.69252	0.364
7.7317	0.419
7.77088	0.4
7.81007	0.314
7.84925	0.505
7.88843	0.622
7.92761	0.443
7.9668	0.379
8.00598	0.641
8.04516	0.654
8.08435	0.628
8.12353	0.725
8.16271	0.76
8.20189	0.782
8.24108	0.742
8.28026	0.629
8.31944	0.71
8.35863	0.78
8.39781	0.789
8.43699	0.795
8.47617	0.73
8.51536	0.473
8.55454	0.571
8.59372	0.673
8.63291	0.749
8.67209	0.752
8.71127	0.719
8.75045	0.26
8.78964	0.285
8.82882	0.39
8.868	0.298
8.90719	0.5
8.94637	0.667
8.98555	0.707
9.02473	0.675
9.06392	0.547
9.1031	0.374
9.14228	0.58
9.18147	0.625
9.22065	0.648
9.25983	0.643
9.29901	0.626
9.3382	0.506
9.37738	0.509
9.41656	0.68
9.45575	0.67
9.49493	0.526
9.53411	0.532
9.57329	0.703
9.61248	0.766
9.65166	0.775
9.69084	0.759
9.73003	0.64
9.76921	0.377
9.80839	0.563
9.84758	0.663
9.88676	0.588
9.92594	0.708
9.96512	0.653
10.0043	0.591
10.0435	0.64
10.0827	0.605
10.1219	0.582
10.161	0.735
10.2002	0.775
10.2394	0.688
10.2786	0.699
10.3178	0.758
10.357	0.799
10.3961	0.831
10.4353	0.84
10.4745	0.848
10.5137	0.861
10.5529	0.872
10.592	0.878
10.6312	0.878
10.6704	0.878
10.7096	0.856
10.7488	0.743
10.788	0.76
10.8271	0.825
10.8663	0.846
10.9055	0.871
10.9447	0.893
10.9839	0.808
11.0231	0.659
11.0622	0.81
11.1014	0.865
11.1406	0.894
11.1798	0.901
11.219	0.913
11.2582	0.917
11.2973	0.921
11.3365	0.921
11.3757	0.912
11.4149	0.828
11.4541	0.571
11.4933	0.571
11.5324	0.811
11.5716	0.879
11.6108	0.9
11.65	0.896
11.6892	0.878
11.7284	0.899
11.7675	0.902
11.8067	0.904
11.8459	0.907
11.8851	0.922
11.9243	0.918
11.9635	0.889
12.0026	0.878
12.0418	0.897
12.081	0.923
12.1202	0.912
12.1594	0.86
12.1985	0.756
12.2377	0.78
12.2769	0.877
12.3161	0.91
12.3553	0.947
12.3945	0.946
12.4336	0.946
12.4728	0.953
12.512	0.956
12.5512	0.953
12.5904	0.95
12.6296	0.946
12.6687	0.94
12.7079	0.928
12.7471	0.913
12.7863	0.891
12.8255	0.831
12.8647	0.641
12.9038	0.454
12.943	0.582
12.9822	0.584
13.0214	0.279
13.0606	0.161
13.0998	0.131
13.1389	0.459
13.1781	0.653
13.2173	0.776
13.2565	0.825
13.2957	0.852
13.3349	0.842
13.374	0.852
13.4132	0.889
13.4524	0.904
13.4916	0.902
13.5308	0.901
13.5699	0.899
13.6091	0.878
13.6483	0.803
13.6875	0.818
13.7267	0.842
13.7659	0.843
13.805	0.842
13.8442	0.827
13.8834	0.821
13.9226	0.818
13.9618	0.82
14.001	0.828
14.0401	0.838
14.0793	0.835
14.1185	0.828
14.1577	0.772
14.1969	0.686
14.2361	0.433
14.2752	0.249
14.3144	0.228
14.3536	0.38
14.3928	0.554
14.432	0.697
14.4712	0.775
14.5103	0.795
14.5495	0.767
14.5887	0.72
14.6279	0.738
14.6671	0.803
14.7063	0.85
14.7454	0.869
14.7846	0.88
14.8238	0.883
14.863	0.883
14.9022	0.878
14.9413	0.874
14.9805	0.872
15.0197	0.868
15.0589	0.868
15.0981	0.868
15.1373	0.865
15.1764	0.862
15.2156	0.859
15.2548	0.849
15.294	0.822
15.3332	0.769
15.3724	0.725
15.4115	0.716
15.4507	0.721
15.4899	0.733
15.5291	0.718
15.5683	0.719
15.6075	0.737
15.6466	0.747
15.6858	0.758
15.725	0.758
