Infrared Spectrum: Pentamethylphenylacetonitrile
Formula: C 13 H 17 N
CAS: 34688-70-5
State: gas
Origin: EPA-IR VAPOR PHASE LIBRARY
1/CM	ABSORBANCE
549.8	0.0004444
559.445	0.0006085
569.09	0.0006786
578.734	0.0007263
588.379	0.0003635
598.024	0.0006877
607.669	0.0003909
617.313	0.000677
626.958	0.0006958
636.603	0.000822
646.248	0.00108
655.893	0.00118
665.537	0.0008844
675.182	0.0006086
684.827	0.0007299
694.472	0.0007611
704.116	0.0007816
713.761	0.0007282
723.406	0.0006739
733.051	0.0007626
742.695	0.0003996
752.34	0.0009631
761.985	0.00122
771.63	0.00112
781.275	0.00187
790.919	0.00294
800.564	0.00396
810.209	0.00311
819.854	0.0017
829.498	0.00111
839.143	0.0008619
848.788	0.00107
858.433	0.000715
868.078	0.0006077
877.722	0.00107
887.367	0.000916
897.012	0.0011
906.657	0.00155
916.301	0.00246
925.946	0.00236
935.591	0.0014
945.236	0.0008575
954.88	0.000804
964.525	0.00103
974.17	0.00133
983.815	0.00137
993.46	0.00172
1003.1	0.0021
1012.75	0.00327
1022.39	0.00412
1032.04	0.00433
1041.68	0.00391
1051.33	0.00595
1060.97	0.00817
1070.62	0.00765
1080.26	0.00489
1089.91	0.00349
1099.55	0.00228
1109.2	0.00199
1118.84	0.00116
1128.49	0.0013
1138.13	0.00105
1147.78	0.0008098
1157.42	0.00115
1167.07	0.00109
1176.71	0.0009047
1186.36	0.0007399
1196	0.00153
1205.64	0.00176
1215.29	0.00144
1224.93	0.00118
1234.58	0.0022
1244.22	0.0028
1253.87	0.00212
1263.51	0.00217
1273.16	0.00261
1282.8	0.00242
1292.45	0.00282
1302.09	0.00293
1311.74	0.00215
1321.38	0.00199
1331.03	0.00217
1340.67	0.00234
1350.32	0.00259
1359.96	0.00277
1369.61	0.00313
1379.25	0.00431
1388.9	0.00615
1398.54	0.007
1408.18	0.00797
1417.83	0.01142
1427.47	0.01719
1437.12	0.02171
1446.76	0.01995
1456.41	0.01573
1466.05	0.0133
1475.7	0.01182
1485.34	0.01051
1494.99	0.00912
1504.63	0.00785
1514.28	0.00684
1523.92	0.00606
1533.57	0.00529
1543.21	0.00461
1552.86	0.00423
1562.5	0.00398
1572.15	0.00359
1581.79	0.00336
1591.44	0.00288
1601.08	0.00274
1610.73	0.00234
1620.37	0.00211
1630.01	0.00178
1639.66	0.00155
1649.3	0.00132
1658.95	0.00124
1668.59	0.0011
1678.24	0.0008558
1687.88	0.0007948
1697.53	0.0007712
1707.17	0.0007272
1716.82	0.0005934
1726.46	0.0006702
1736.11	0.0005656
1745.75	0.0006375
1755.4	0.0005854
1765.04	0.0006027
1774.69	0.0005946
1784.33	0.0005345
1793.98	0.000439
1803.62	0.0004695
1813.27	0.0004819
1822.91	0.0004209
1832.55	0.0005394
1842.2	0.0003995
1851.84	0.0004463
1861.49	0.0004075
1871.13	0.0003188
1880.78	0.0003377
1890.42	0.0003143
1900.07	0.0003038
1909.71	0.000381
1919.36	0.0002533
1929	0.0002701
1938.65	0.0003868
1948.29	0.0004433
1957.94	0.0004741
1967.58	0.0004121
1977.23	0.0004914
1986.87	0.0003909
1996.52	0.0004071
2006.16	0.0003837
2015.81	0.0004557
2025.45	0.0003659
2035.1	0.0003905
2044.74	0.0003976
2054.38	0.0003728
2064.03	0.0004641
2073.67	0.0003606
2083.32	0.0004067
2092.96	0.0004013
2102.61	0.0004377
2112.25	0.0004895
2121.9	0.0004532
2131.54	0.0003604
2141.19	0.0004322
2150.83	0.0003789
2160.48	0.0003838
2170.12	0.0002926
2179.77	0.0003825
2189.41	0.0002775
2199.06	0.0003954
2208.7	0.0004273
2218.35	0.0005452
2227.99	0.0007211
2237.64	0.00159
2247.28	0.00338
2256.92	0.0021
2266.57	0.0006408
2276.21	0.0004039
2285.86	0.0004019
2295.5	0.0003691
2305.15	0.0003101
2314.79	0.000396
2324.44	0.0003733
2334.08	0.0003374
2343.73	0.0004429
2353.37	0.000428
2363.02	0.0006033
2372.66	0.0004304
2382.31	0.0005377
2391.95	0.0006526
2401.6	0.0005674
2411.24	0.0006617
2420.89	0.0006146
2430.53	0.0005877
2440.18	0.0007037
2449.82	0.0006993
2459.47	0.0007315
2469.11	0.0007612
2478.75	0.0007063
2488.4	0.0006353
2498.04	0.000644
2507.69	0.0006477
2517.33	0.0004716
2526.98	0.0003393
2536.62	0.00056
2546.27	0.0004797
2555.91	0.0005318
2565.56	0.000571
2575.2	0.0006697
2584.85	0.000651
2594.49	0.0007218
2604.14	0.0006396
2613.78	0.000624
2623.43	0.0004792
2633.07	0.0005088
2642.72	0.0005328
2652.36	0.0005174
2662.01	0.0005358
2671.65	0.0008056
2681.29	0.0007503
2690.94	0.000662
2700.58	0.0008442
2710.23	0.0009245
2719.87	0.00124
2729.52	0.00185
2739.16	0.00255
2748.81	0.0024
2758.45	0.00211
2768.1	0.00196
2777.74	0.00215
2787.39	0.0022
2797.03	0.00236
2806.68	0.0028
2816.32	0.00339
2825.97	0.00426
2835.61	0.00535
2845.26	0.00734
2854.9	0.01068
2864.55	0.01603
2874.19	0.02271
2883.84	0.02736
2893.48	0.02849
2903.12	0.02919
2912.77	0.03154
2922.41	0.03569
2932.06	0.04058
2941.7	0.04235
2951.35	0.03893
2960.99	0.03289
2970.64	0.02766
2980.28	0.02272
2989.93	0.02046
2999.57	0.02001
3009.22	0.0204
3018.86	0.0201
3028.51	0.01909
3038.15	0.01739
3047.8	0.01508
3057.44	0.01277
3067.09	0.01005
3076.73	0.00813
3086.38	0.00634
3096.02	0.00527
3105.67	0.00411
3115.31	0.00316
3124.95	0.00286
3134.6	0.00254
3144.24	0.00204
3153.89	0.00158
3163.53	0.00163
3173.18	0.0016
3182.82	0.00106
3192.47	0.0009464
3202.11	0.0007043
3211.76	0.0007221
3221.4	0.000582
3231.05	0.0005634
3240.69	0.00044
3250.34	0.0004193
3259.98	0.0006152
3269.63	0.0004532
3279.27	0.0004671
3288.92	0.0006495
3298.56	0.000516
3308.21	0.0007004
3317.85	0.0003972
3327.49	0.0003646
3337.14	0.0004596
3346.78	0.0004757
3356.43	0.0005093
3366.07	0.0004039
3375.72	0.0004126
3385.36	0.0003069
3395.01	0.0003158
3404.65	0.0005341
3414.3	0.0005214
3423.94	0.0002795
3433.59	0.0003119
3443.23	0.0002623
3452.88	0.0003241
3462.52	0.000427
3472.17	0.000345
3481.81	0.0004658
3491.46	0.0003313
3501.1	0.0004227
3510.75	0.0005647
3520.39	0.0004672
3530.04	0.0003059
3539.68	0.0004274
3549.32	0.0004608
3558.97	0.0002768
3568.61	0.000395
3578.26	0.0003129
3587.9	0.0002385
3597.55	0.0002655
3607.19	0.0002819
3616.84	0.0003653
3626.48	0.0001661
3636.13	0.0001571
3645.77	0.0001469
3655.42	0.0002662
3665.06	0.0002486
3674.71	0.0002117
3684.35	0.0004433
3694	0.0003626
3703.64	0.000345
3713.29	0.0002281
3722.93	0.0001945
3732.58	0.0002028
3742.22	0.0002166
3751.86	0.0003076
3761.51	0.0003544
3771.15	0.0005491
3780.8	0.0002739
3790.44	0.0001701
3800.09	0.0003538
3809.73	0.000251
3819.38	0.0002346
3829.02	0.0002713
3838.67	0.0001505
3848.31	0.0004191
3857.96	0.0002769
3867.6	0.0005508
3877.25	0.0002871
3886.89	0.0004837
3896.54	0.0005636
3906.18	0.0006689
3915.83	0.0005458
3925.47	0.0005452
3935.12	0.0005737
3944.76	0.0005582
3954.41	0.0004715
3964.05	0.0008075
3973.69	0.0003445
3983.34	0.0004355
3992.98	0.0004963
