Infrared Spectrum: Hexamethylenechloroiodide
Formula: C 6 H 12 Cl I
CAS: 34683-73-3
State: gas
Origin: EPA-IR VAPOR PHASE LIBRARY
1/CM	ABSORBANCE
501.5	0.0019524
513.074	0.0019124
524.648	0.0013124
536.222	0.0008662
547.796	0.0006384
559.37	0.0007416
570.944	0.0010239
582.518	0.0018324
594.092	0.0035424
605.666	0.0031624
617.24	0.0017524
628.814	0.0017624
640.388	0.0028224
651.962	0.0055024
663.536	0.0077024
675.11	0.0044024
686.684	0.0028124
698.258	0.0031124
709.832	0.0052224
721.406	0.0087924
732.98	0.0109924
744.554	0.0101524
756.128	0.0070724
767.702	0.0047524
779.276	0.0037824
790.85	0.0034724
802.423	0.0029124
813.997	0.0025624
825.571	0.0022424
837.145	0.0022824
848.719	0.0021424
860.293	0.0020124
871.867	0.0019324
883.441	0.0021024
895.015	0.0025824
906.589	0.0026324
918.163	0.0022824
929.737	0.0019524
941.311	0.0017824
952.885	0.0016224
964.459	0.0015024
976.033	0.0014724
987.607	0.0013724
999.181	0.0015024
1010.76	0.0016724
1022.33	0.0019124
1033.9	0.0019724
1045.48	0.0015924
1057.05	0.0014924
1068.63	0.0012924
1080.2	0.0011724
1091.77	0.0009357
1103.35	0.0009589
1114.92	0.0013024
1126.49	0.0018824
1138.07	0.0027124
1149.64	0.0041024
1161.22	0.0068124
1172.79	0.0102824
1184.36	0.0131824
1195.94	0.0125924
1207.51	0.0122924
1219.09	0.0108724
1230.66	0.0105424
1242.23	0.0112924
1253.81	0.0116424
1265.38	0.0105824
1276.96	0.0103324
1288.53	0.0115024
1300.1	0.0117024
1311.68	0.0101924
1323.25	0.0073624
1334.83	0.0052724
1346.4	0.0056424
1357.97	0.0050924
1369.55	0.0034724
1381.12	0.0022624
1392.7	0.0016324
1404.27	0.0018124
1415.84	0.0028524
1427.42	0.0060724
1438.99	0.0096924
1450.57	0.0123024
1462.14	0.0101424
1473.71	0.0052424
1485.29	0.0023724
1496.86	0.0013924
1508.44	0.0010624
1520.01	0.000827
1531.58	0.0007215
1543.16	0.0006167
1554.73	0.0005651
1566.31	0.0004982
1577.88	0.0004582
1589.45	0.0004033
1601.03	0.0003817
1612.6	0.0003018
1624.18	0.000271
1635.75	0.0002536
1647.32	0.0002368
1658.9	0.0001972
1670.47	0.0001785
1682.05	0.0001414
1693.62	0.0001381
1705.19	0.000145
1716.77	0.00010892
1728.34	0.00010073
1739.92	7.717e-05
1751.49	0.00011887
1763.06	0.00013012
1774.64	0.0001504
1786.21	0.0001765
1797.79	0.0002062
1809.36	0.0002004
1820.93	0.0002097
1832.51	0.0001951
1844.08	0.0002092
1855.66	0.0002066
1867.23	0.0002118
1878.8	0.0002319
1890.38	0.0002146
1901.95	0.0002234
1913.53	0.0002286
1925.1	0.0002367
1936.67	0.0002536
1948.25	0.0002479
1959.82	0.0002493
1971.4	0.0002324
1982.97	0.0002444
1994.54	0.0002507
2006.12	0.0002833
2017.69	0.0003305
2029.27	0.0003443
2040.84	0.0003973
2052.41	0.0003779
2063.99	0.0003485
2075.56	0.0003464
2087.14	0.0003357
2098.71	0.0003434
2110.28	0.0003422
2121.86	0.0003539
2133.43	0.0003505
2145.01	0.0003745
2156.58	0.000374
2168.15	0.0004107
2179.73	0.0004176
2191.3	0.0004342
2202.88	0.0004242
2214.45	0.0004018
2226.02	0.0004067
2237.6	0.0003735
2249.17	0.0003473
2260.74	0.0003502
2272.32	0.0003686
2283.89	0.000358
2295.47	0.0003764
2307.04	0.0003604
2318.61	0.0003919
2330.19	0.0004065
2341.76	0.0004132
2353.34	0.0003899
2364.91	0.0004311
2376.48	0.0004157
2388.06	0.0004024
2399.63	0.0003964
2411.21	0.0003699
2422.78	0.0003536
2434.35	0.0003343
2445.93	0.0003015
2457.5	0.0002585
2469.08	0.0003186
2480.65	0.0003028
2492.22	0.0003192
2503.8	0.0003532
2515.37	0.0003429
2526.95	0.0003438
2538.52	0.000326
2550.09	0.000303
2561.67	0.00032
2573.24	0.0003686
2584.82	0.0004084
2596.39	0.0004479
2607.96	0.0004876
2619.54	0.0005496
2631.11	0.0005472
2642.69	0.0006195
2654.26	0.0006317
2665.83	0.0007126
2677.41	0.0007749
2688.98	0.000818
2700.56	0.000795
2712.13	0.0007587
2723.7	0.0007873
2735.28	0.0008256
2746.85	0.0008237
2758.43	0.0008693
2770	0.0009805
2781.57	0.0011524
2793.15	0.0013724
2804.72	0.0018024
2816.3	0.0024524
2827.87	0.0038224
2839.44	0.0072924
2851.02	0.0128924
2862.59	0.0184524
2874.17	0.0194124
2885.74	0.0167024
2897.31	0.0167224
2908.89	0.0201824
2920.46	0.0277724
2932.04	0.0427224
2943.61	0.0553124
2955.18	0.0432524
2966.76	0.0331224
2978.33	0.0207124
2989.91	0.0137824
3001.48	0.0133324
3013.05	0.0083924
3024.63	0.0047224
3036.2	0.0023124
3047.78	0.0015324
3059.35	0.0011124
3070.92	0.0008783
3082.5	0.00064
3094.07	0.0005274
3105.65	0.0004434
3117.22	0.0004021
3128.79	0.0003453
3140.37	0.0002703
3151.94	0.0003094
3163.52	0.0002762
3175.09	0.000268
3186.66	0.0002642
3198.24	0.0002122
3209.81	0.0001826
3221.39	0.0001475
3232.96	0.0001663
3244.53	0.0001329
3256.11	5.891e-05
3267.68	0.0001163
3279.26	9.126e-05
3290.83	0.0001228
3302.4	0.0001667
3313.98	0.00012655
3325.55	6.815e-05
3337.13	7.786e-05
3348.7	6.799e-05
3360.27	0.00010179
3371.85	8.623e-05
3383.42	0.0001277
3395	7.995e-05
3406.57	0.0001458
3418.14	6.785e-05
3429.72	8.77e-05
3441.29	7.979e-05
3452.86	0.00010102
3464.44	0.00010252
3476.01	0.00012626
3487.59	0.00011824
3499.16	3.106e-05
3510.73	4.0536e-05
3522.31	8.382e-05
3533.88	8.3e-06
3545.46	6.879e-05
3557.03	1.27e-05
3568.6	6.913e-05
3580.18	9.948e-05
3591.75	8.195e-05
3603.33	0.0001625
3614.9	8.324e-05
3626.47	9.102e-05
3638.05	0.000204
3649.62	0.0001862
3661.2	0.0001452
3672.77	0.0001788
3684.34	0.00012716
3695.92	0.000191
3707.49	0.0001526
3719.07	0.0001934
3730.64	0.00010413
3742.21	0.0001426
3753.79	0.0001687
3765.36	0.0001841
3776.94	0.0001666
3788.51	0.0002128
3800.08	0.00011927
3811.66	0.0001738
3823.23	0.0002031
3834.81	0.0001399
3846.38	0.0002006
3857.95	0.0001369
3869.53	0.000199
3881.1	0.0001853
3892.68	0.0001656
3904.25	0.0001879
3915.82	0.0002198
3927.4	0.0001865
3938.97	0.0002404
3950.55	0.0002422
3962.12	0.0001823
3973.69	0.0002504
3985.27	0.0002935
3996.84	0.0002895
