Infrared Spectrum: Mesitylacetonitrile
Formula: C 11 H 13 N
CAS: 34688-71-6
State: gas
Origin: EPA-IR VAPOR PHASE LIBRARY
1/CM	ABSORBANCE
549.8	0.0020625
559.445	0.001119
569.09	0.0019947
578.734	0.0020036
588.379	0.00311
598.024	0.0023436
607.669	0.0016108
617.313	0.0018971
626.958	0.0017362
636.603	0.0018001
646.248	0.0019736
655.893	0.0024838
665.537	0.0016574
675.182	0.0022147
684.827	0.0022302
694.472	0.00342
704.116	0.00444
713.761	0.00296
723.406	0.001374
733.051	0.001811
742.695	0.0018933
752.34	0.0017617
761.985	0.0017692
771.63	0.00288
781.275	0.0037
790.919	0.0022433
800.564	0.0021661
810.209	0.0016804
819.854	0.00265
829.498	0.00324
839.143	0.00805
848.788	0.01485
858.433	0.00853
868.078	0.00344
877.722	0.00267
887.367	0.0019641
897.012	0.001352
906.657	0.0023315
916.301	0.00299
925.946	0.00276
935.591	0.00309
945.236	0.00274
954.88	0.00316
964.525	0.00314
974.17	0.0023203
983.815	0.00253
993.46	0.0029
1003.1	0.00347
1012.75	0.00414
1022.39	0.00481
1032.04	0.00448
1041.68	0.00325
1051.33	0.00268
1060.97	0.0021951
1070.62	0.001871
1080.26	0.00259
1089.91	0.0021966
1099.55	0.0020424
1109.2	0.0022375
1118.84	0.0018689
1128.49	0.002356
1138.13	0.00265
1147.78	0.0024238
1157.42	0.0018832
1167.07	0.0019343
1176.71	0.0014117
1186.36	0.00372
1196	0.0024213
1205.64	0.00306
1215.29	0.0019013
1224.93	0.000962
1234.58	0.00257
1244.22	0.0018389
1253.87	0.0021363
1263.51	0.0019321
1273.16	0.002481
1282.8	0.00251
1292.45	0.00336
1302.09	0.0029
1311.74	0.0024177
1321.38	0.00268
1331.03	0.00268
1340.67	0.00278
1350.32	0.0031
1359.96	0.00325
1369.61	0.0037
1379.25	0.00482
1388.9	0.00549
1398.54	0.0044
1408.18	0.00449
1417.83	0.00678
1427.47	0.01147
1437.12	0.01458
1446.76	0.01414
1456.41	0.01284
1466.05	0.01197
1475.7	0.01339
1485.34	0.01363
1494.99	0.00954
1504.63	0.00677
1514.28	0.00619
1523.92	0.00612
1533.57	0.00585
1543.21	0.00527
1552.86	0.00599
1562.5	0.00657
1572.15	0.00686
1581.79	0.00707
1591.44	0.007
1601.08	0.0089
1610.73	0.01213
1620.37	0.00834
1630.01	0.00324
1639.66	0.0022062
1649.3	0.0022063
1658.95	0.0019659
1668.59	0.0020087
1678.24	0.0017687
1687.88	0.0018168
1697.53	0.0023395
1707.17	0.0024249
1716.82	0.0028
1726.46	0.0031
1736.11	0.00264
1745.75	0.0022303
1755.4	0.0023317
1765.04	0.0020016
1774.69	0.001809
1784.33	0.0018079
1793.98	0.001706
1803.62	0.0017998
1813.27	0.0016714
1822.91	0.0016488
1832.55	0.0019368
1842.2	0.0016869
1851.84	0.0016326
1861.49	0.0017287
1871.13	0.0017627
1880.78	0.0018934
1890.42	0.0019299
1900.07	0.0018937
1909.71	0.0019207
1919.36	0.0019892
1929	0.00176
1938.65	0.0017458
1948.29	0.0018875
1957.94	0.00158236
1967.58	0.0017056
1977.23	0.0016747
1986.87	0.00153496
1996.52	0.00157934
2006.16	0.0015436
2015.81	0.0016338
2025.45	0.001669
2035.1	0.00152558
2044.74	0.0017856
2054.38	0.0016595
2064.03	0.0017124
2073.67	0.0017483
2083.32	0.0017469
2092.96	0.00155638
2102.61	0.0016406
2112.25	0.0017137
2121.9	0.0017471
2131.54	0.0016818
2141.19	0.001601
2150.83	0.0018087
2160.48	0.0017159
2170.12	0.0018705
2179.77	0.0019898
2189.41	0.0016395
2199.06	0.001686
2208.7	0.0018929
2218.35	0.0020498
2227.99	0.0018264
2237.64	0.00253
2247.28	0.00339
2256.92	0.00315
2266.57	0.0021126
2276.21	0.0017151
2285.86	0.0017351
2295.5	0.0017536
2305.15	0.0017218
2314.79	0.0019144
2324.44	0.001715
2334.08	0.0018142
2343.73	0.001679
2353.37	0.0018571
2363.02	0.0017534
2372.66	0.0014767
2382.31	0.0017655
2391.95	0.0018124
2401.6	0.0020403
2411.24	0.0018488
2420.89	0.0017655
2430.53	0.0016911
2440.18	0.0018803
2449.82	0.0020713
2459.47	0.0020653
2469.11	0.0019217
2478.75	0.002113
2488.4	0.0018135
2498.04	0.0016471
2507.69	0.0017724
2517.33	0.0017622
2526.98	0.001651
2536.62	0.0018007
2546.27	0.0017695
2555.91	0.0018694
2565.56	0.0017715
2575.2	0.0016955
2584.85	0.0019333
2594.49	0.0017616
2604.14	0.0018551
2613.78	0.0017767
2623.43	0.0018255
2633.07	0.0018249
2642.72	0.0018727
2652.36	0.0017675
2662.01	0.001725
2671.65	0.001875
2681.29	0.0019314
2690.94	0.0018747
2700.58	0.0020282
2710.23	0.0018352
2719.87	0.0021817
2729.52	0.0025
2739.16	0.00308
2748.81	0.00315
2758.45	0.00277
2768.1	0.0023402
2777.74	0.0023206
2787.39	0.00253
2797.03	0.0024207
2806.68	0.00264
2816.32	0.00313
2825.97	0.0032
2835.61	0.00404
2845.26	0.00543
2854.9	0.00763
2864.55	0.01096
2874.19	0.01456
2883.84	0.014
2893.48	0.01222
2903.12	0.01292
2912.77	0.01642
2922.41	0.02416
2932.06	0.02941
2941.7	0.02479
2951.35	0.01937
2960.99	0.01786
2970.64	0.01601
2980.28	0.01649
2989.93	0.01625
2999.57	0.01513
3009.22	0.01679
3018.86	0.01779
3028.51	0.0157
3038.15	0.01273
3047.8	0.01033
3057.44	0.00821
3067.09	0.00651
3076.73	0.00504
3086.38	0.0041
3096.02	0.00371
3105.67	0.00357
3115.31	0.00318
3124.95	0.00266
3134.6	0.0024954
3144.24	0.0021214
3153.89	0.00255
3163.53	0.00262
3173.18	0.00255
3182.82	0.002331
3192.47	0.0020337
3202.11	0.0019185
3211.76	0.001969
3221.4	0.0019222
3231.05	0.0016161
3240.69	0.0017179
3250.34	0.0016889
3259.98	0.0016633
3269.63	0.001486
3279.27	0.0019025
3288.92	0.0018574
3298.56	0.00118
3308.21	0.0014255
3317.85	0.0017039
3327.49	0.0017603
3337.14	0.0017846
3346.78	0.0018511
3356.43	0.0014702
3366.07	0.001713
3375.72	0.00152871
3385.36	0.001307
3395.01	0.0014808
3404.65	0.0016038
3414.3	0.0016757
3423.94	0.001286
3433.59	0.00154558
3443.23	0.001345
3452.88	0.001267
3462.52	0.0015464
3472.17	0.0016435
3481.81	0.0018409
3491.46	0.0014106
3501.1	0.0016726
3510.75	0.0019418
3520.39	0.0018149
3530.04	0.0016671
3539.68	0.00152797
3549.32	0.0019408
3558.97	0.001383
3568.61	0.0016428
3578.26	0.00150618
3587.9	0.00158711
3597.55	0.0018654
3607.19	0.00155785
3616.84	0.0016164
3626.48	0.001319
3636.13	0.001385
3645.77	0.0014688
3655.42	0.001601
3665.06	0.00151572
3674.71	0.001878
3684.35	0.001333
3694	0.0018091
3703.64	0.0018228
3713.29	0.0016614
3722.93	0.00150644
3732.58	0.00151769
3742.22	0.0019141
3751.86	0.0018714
3761.51	0.0017406
3771.15	0.0014509
3780.8	0.00118
3790.44	0.0017076
3800.09	0.00156523
3809.73	0.001378
3819.38	0.00151693
3829.02	0.0014019
3838.67	0.0014401
3848.31	0.0016068
3857.96	0.0016761
3867.6	0.00149036
3877.25	0.0016938
3886.89	0.0017304
3896.54	0.0018701
3906.18	0.0017907
3915.83	0.0020183
3925.47	0.0017786
3935.12	0.0014199
3944.76	0.00154246
3954.41	0.00149328
3964.05	0.0014063
3973.69	0.00157847
3983.34	0.0016416
3992.98	0.0018172
