Infrared Spectrum: 1-Aminoindane
Formula: C 9 H 11 N
CAS: 34698-41-4
State: gas
Instrument: HP-GC/MS/IRD
Origin: NIST Mass Spectrometry Data Center
1/CM	ABSORBANCE
550	0.0006405
562	9.15e-05
574	0.0001755
586	0.000543
598	0.000957
610	0.0008715
622	0.0007095
634	0.0007395
646	0.000687
658	0.0008955
670	0.001161
682	0.001371
694	0.001875
706	0.0028395
718	0.0050025
730	0.0087975
742	0.013902
754	0.0138975
766	0.008949
778	0.005694
790	0.0039825
802	0.002652
814	0.002106
826	0.0020325
838	0.0018855
850	0.0017955
862	0.0015555
874	0.0013515
886	0.001143
898	0.0009645
910	0.000834
922	0.0007845
934	0.001065
946	0.000978
958	0.000774
970	0.000594
982	0.0004185
994	0.0005085
1006	0.0008295
1018	0.0012765
1030	0.001083
1042	0.000936
1054	0.001212
1066	0.0013515
1078	0.000786
1090	0.0004155
1102	0.0004425
1114	0.0004665
1126	0.0003255
1138	0.000321
1150	0.000636
1162	0.000672
1174	0.0005445
1186	0.000501
1198	0.0004905
1210	0.000417
1222	0.0003945
1234	0.000222
1246	0.00027
1258	0.000492
1270	0.000624
1282	0.00081
1294	0.001086
1306	0.001227
1318	0.0013335
1330	0.0013485
1342	0.0014295
1354	0.0016845
1366	0.002058
1378	0.001821
1390	0.000984
1402	0.000453
1414	0.0003915
1426	0.000552
1438	0.001119
1450	0.002148
1462	0.002946
1474	0.003462
1486	0.002511
1498	0.000837
1510	0.0003645
1522	0.0002475
1534	0.000246
1546	0.000303
1558	0.0003945
1570	0.0006675
1582	0.001179
1594	0.001938
1606	0.002748
1618	0.0028305
1630	0.0019035
1642	0.0009855
1654	0.000531
1666	0.0003375
1678	0.0002985
1690	0.0002115
1702	0.000114
1714	9.9e-05
1726	8.25e-05
1738	6.9e-05
1750	5.25e-05
1762	7.05e-05
1774	0.0001485
1786	0.0002895
1798	0.000312
1810	0.000225
1822	0.000213
1834	0.000219
1846	0.000177
1858	0.000168
1870	0.0001575
1882	0.000204
1894	0.000381
1906	0.0003855
1918	0.0002235
1930	0.000258
1942	0.0003195
1954	0.0001695
1966	5.7e-05
1978	1.95e-05
1990	3.15e-05
2002	1.65e-05
2014	2.4e-05
2026	2.25e-05
2038	3.9e-05
2050	3.6e-05
2062	4.95e-05
2074	6.15e-05
2086	4.65e-05
2098	6.75e-05
2110	4.65e-05
2122	6.9e-05
2134	9e-05
2146	6e-05
2158	6.15e-05
2170	7.35e-05
2182	8.55e-05
2194	6.9e-05
2206	8.55e-05
2218	0.000123
2230	0.000105
2242	0.0001215
2254	0.0001395
2266	0.0001365
2278	0.0001155
2290	0.0001485
2302	0.0001845
2314	0.000174
2326	0.000132
2338	7.5e-05
2350	0.000111
2362	0.000117
2374	9.75e-05
2386	0.0001035
2398	7.35e-05
2410	0.0001065
2422	7.35e-05
2434	0.000102
2446	0.0001215
2458	9e-05
2470	7.95e-05
2482	7.2e-05
2494	7.95e-05
2506	0.000102
2518	5.55e-05
2530	9e-05
2542	0.0001155
2554	0.0001095
2566	0.0001245
2578	0.0001425
2590	0.00012
2602	0.000183
2614	0.0001755
2626	0.0001545
2638	0.000171
2650	0.0001545
2662	0.0001755
2674	0.000198
2686	0.000141
2698	0.00018
2710	0.0002055
2722	0.000267
2734	0.0002865
2746	0.000315
2758	0.000327
2770	0.000345
2782	0.0003495
2794	0.000423
2806	0.000627
2818	0.000876
2830	0.0012285
2842	0.0022545
2854	0.004755
2866	0.006315
2878	0.005265
2890	0.004518
2902	0.0046155
2914	0.00516
2926	0.0068055
2938	0.0091845
2950	0.0120135
2962	0.0114405
2974	0.0062175
2986	0.0025035
2998	0.0016425
3010	0.0025395
3022	0.0042105
3034	0.004632
3046	0.00408
3058	0.0046875
3070	0.005859
3082	0.0049485
3094	0.0021585
3106	0.0009465
3118	0.0003765
3130	0.000255
3142	0.000204
3154	0.0001995
3166	0.000234
3178	0.0002265
3190	0.0001545
3202	0.000102
3214	0.000147
3226	0.0001275
3238	0.0001035
3250	6.3e-05
3262	8.1e-05
3274	0.000102
3286	9.9e-05
3298	0.000162
3310	0.000129
3322	0.0001935
3334	0.000318
3346	0.000237
3358	0.000138
3370	0.000123
3382	0.000153
3394	0.000111
3406	0.000159
3418	0.000141
3430	9.15e-05
3442	0.0001335
3454	7.95e-05
3466	9.9e-05
3478	0.000174
3490	9.6e-05
3502	0.000114
3514	0.0001155
3526	6.3e-05
3538	0.000123
3550	0.000117
3562	8.25e-05
3574	9.6e-05
3586	7.05e-05
3598	4.8e-05
3610	4.95e-05
3622	0.0001095
3634	9.45e-05
3646	8.85e-05
3658	6e-05
3670	0.0001275
3682	0.000135
3694	8.7e-05
3706	3.45e-05
3718	8.55e-05
3730	0.000138
3742	0.00015
3754	7.5e-05
3766	6.3e-05
3778	8.25e-05
3790	8.1e-05
3802	8.25e-05
3814	6.3e-05
3826	9.6e-05
3838	9.75e-05
