Infrared Spectrum: 2,3-Diphenylindole
Formula: C 20 H 15 N
CAS: 3469-20-3
State: gas
Origin: EPA-IR VAPOR PHASE LIBRARY
1/CM	ABSORBANCE
549.8	0.00034173
559.445	0.004344
569.09	0.002214
578.734	0.001394
588.379	0.0008854
598.024	0.003394
607.669	0.008124
617.313	0.002874
626.958	0.002104
636.603	0.002294
646.248	0.001694
655.893	0.003304
665.537	0.005134
675.182	0.007294
684.827	0.011004
694.472	0.031984
704.116	0.025544
713.761	0.009904
723.406	0.008964
733.051	0.032264
742.695	0.030204
752.34	0.017534
761.985	0.026294
771.63	0.011314
781.275	0.004604
790.919	0.003764
800.564	0.004344
810.209	0.003984
819.854	0.006644
829.498	0.007524
839.143	0.007074
848.788	0.007454
858.433	0.006484
868.078	0.004294
877.722	0.002624
887.367	0.001804
897.012	0.002194
906.657	0.003164
916.301	0.004404
925.946	0.004094
935.591	0.002124
945.236	0.002154
954.88	0.002044
964.525	0.005434
974.17	0.004144
983.815	0.001614
993.46	0.001614
1003.1	0.003154
1012.75	0.005194
1022.39	0.004144
1032.04	0.005244
1041.68	0.001364
1051.33	0.001474
1060.97	0.002704
1070.62	0.004764
1080.26	0.002744
1089.91	0.002554
1099.55	0.001824
1109.2	0.0012911
1118.84	0.0010498
1128.49	0.0008749
1138.13	0.0012082
1147.78	0.001974
1157.42	0.002154
1167.07	0.001524
1176.71	0.001664
1186.36	0.002634
1196	0.002834
1205.64	0.002524
1215.29	0.001854
1224.93	0.004334
1234.58	0.007464
1244.22	0.010744
1253.87	0.009104
1263.51	0.005264
1273.16	0.004814
1282.8	0.005234
1292.45	0.009834
1302.09	0.013304
1311.74	0.012334
1321.38	0.014734
1331.03	0.009974
1340.67	0.004394
1350.32	0.002874
1359.96	0.003034
1369.61	0.002484
1379.25	0.002094
1388.9	0.002174
1398.54	0.002884
1408.18	0.005424
1417.83	0.010444
1427.47	0.007854
1437.12	0.009634
1446.76	0.017394
1456.41	0.022374
1466.05	0.007964
1475.7	0.007764
1485.34	0.012014
1494.99	0.007864
1504.63	0.009974
1514.28	0.004174
1523.92	0.002934
1533.57	0.002644
1543.21	0.002574
1552.86	0.003454
1562.5	0.003924
1572.15	0.004964
1581.79	0.005024
1591.44	0.007354
1601.08	0.013364
1610.73	0.010614
1620.37	0.003884
1630.01	0.001694
1639.66	0.001384
1649.3	0.001924
1658.95	0.002784
1668.59	0.002044
1678.24	0.001854
1687.88	0.001261
1697.53	0.0010535
1707.17	0.0009882
1716.82	0.0012157
1726.46	0.001151
1736.11	0.001384
1745.75	0.001564
1755.4	0.002264
1765.04	0.001744
1774.69	0.001364
1784.33	0.001624
1793.98	0.002944
1803.62	0.002194
1813.27	0.001574
1822.91	0.001294
1832.55	0.0012168
1842.2	0.001614
1851.84	0.0012873
1861.49	0.001524
1871.13	0.002464
1880.78	0.002884
1890.42	0.001994
1900.07	0.0013003
1909.71	0.001804
1919.36	0.002054
1929	0.001654
1938.65	0.002274
1948.29	0.002194
1957.94	0.002004
1967.58	0.0010039
1977.23	0.0008716
1986.87	0.0006069
1996.52	0.0005319
2006.16	0.0006098
2015.81	0.0006981
2025.45	0.0005951
2035.1	0.0004717
2044.74	0.0005951
2054.38	0.0004442
2064.03	0.0004777
2073.67	0.00040209
2083.32	0.0002911
2092.96	0.00039734
2102.61	0.000456
2112.25	0.0004531
2121.9	0.0006072
2131.54	0.0007543
2141.19	0.0005086
2150.83	0.0004947
2160.48	0.0006776
2170.12	0.000585
2179.77	0.000634
2189.41	0.0004762
2199.06	0.0006243
2208.7	0.0006228
2218.35	0.0007311
2227.99	0.0006336
2237.64	0.0007711
2247.28	0.0007494
2256.92	0.0006556
2266.57	0.0007808
2276.21	0.0005584
2285.86	0.0006535
2295.5	0.0007835
2305.15	0.0009005
2314.79	0.001017
2324.44	0.0006726
2334.08	0.0009071
2343.73	0.0008473
2353.37	0.0007021
2363.02	0.0005898
2372.66	0.0006415
2382.31	0.0007388
2391.95	0.0006764
2401.6	0.0008067
2411.24	0.00077
2420.89	0.0007922
2430.53	0.000691
2440.18	0.0006862
2449.82	0.0008982
2459.47	0.0008236
2469.11	0.0008584
2478.75	0.0009556
2488.4	0.0008477
2498.04	0.0011159
2507.69	0.0006829
2517.33	0.0007948
2526.98	0.0007454
2536.62	0.0008091
2546.27	0.0010241
2555.91	0.0008495
2565.56	0.0008966
2575.2	0.0008486
2584.85	0.000846
2594.49	0.0010686
2604.14	0.0009475
2613.78	0.0006702
2623.43	0.0008615
2633.07	0.0009022
2642.72	0.0007607
2652.36	0.00037247
2662.01	0.0005984
2671.65	0.0006901
2681.29	0.0008373
2690.94	0.0006994
2700.58	0.0005202
2710.23	0.000642
2719.87	0.0007809
2729.52	0.0008497
2739.16	0.0008325
2748.81	0.0008145
2758.45	0.0008879
2768.1	0.0006085
2777.74	0.0008964
2787.39	0.0007236
2797.03	0.0009275
2806.68	0.0010448
2816.32	0.0008829
2825.97	0.0008147
2835.61	0.0010525
2845.26	0.0010039
2854.9	0.0007104
2864.55	0.0007903
2874.19	0.0009887
2883.84	0.0012348
2893.48	0.001424
2903.12	0.0012804
2912.77	0.0012312
2922.41	0.001104
2932.06	0.0010418
2941.7	0.001252
2951.35	0.001261
2960.99	0.0010361
2970.64	0.001394
2980.28	0.001524
2989.93	0.001644
2999.57	0.002434
3009.22	0.004434
3018.86	0.007634
3028.51	0.011994
3038.15	0.014844
3047.8	0.015744
3057.44	0.024574
3067.09	0.042634
3076.73	0.026734
3086.38	0.016184
3096.02	0.008554
3105.67	0.005184
3115.31	0.003254
3124.95	0.002114
3134.6	0.001544
3144.24	0.0012723
3153.89	0.001314
3163.53	0.0010654
3173.18	0.0008414
3182.82	0.0007697
3192.47	0.0007565
3202.11	0.00040802
3211.76	0.0007562
3221.4	0.0005101
3231.05	0.000504
3240.69	0.0005018
3250.34	0.00033783
3259.98	0.0007566
3269.63	0.0005431
3279.27	0.0005702
3288.92	0.00039533
3298.56	0.0004283
3308.21	0.0002778
3317.85	0.000320452
3327.49	0.0002242
3337.14	0.0004613
3346.78	0.000317232
3356.43	0.0006513
3366.07	0.000633
3375.72	0.00034174
3385.36	0.000291
3395.01	0.0004753
3404.65	0.0006128
3414.3	0.0005472
3423.94	0.0008161
3433.59	0.000901
3443.23	0.0008275
3452.88	0.001384
3462.52	0.002294
3472.17	0.004114
3481.81	0.009394
3491.46	0.018874
3501.1	0.012294
3510.75	0.003124
3520.39	0.0012423
3530.04	0.0009622
3539.68	0.0006378
3549.32	0.0008805
3558.97	0.0004991
3568.61	0.0006253
3578.26	0.00033957
3587.9	0.0005567
3597.55	0.0004605
3607.19	0.0007575
3616.84	0.0004828
3626.48	0.00033339
3636.13	0.0007055
3645.77	0.0003161
3655.42	0.0004499
3665.06	0.0004212
3674.71	0.0007138
3684.35	0.0006395
3694	0.0007369
3703.64	0.0008164
3713.29	0.00036153
3722.93	0.0006282
3732.58	0.0005142
3742.22	0.00037355
3751.86	0.0004407
3761.51	0.0004976
3771.15	0.00035455
3780.8	0.0004515
3790.44	0.0006433
3800.09	0.0005527
3809.73	0.0005603
3819.38	0.0007324
3829.02	0.0005413
3838.67	0.0004623
3848.31	0.00034789
3857.96	0.0006497
3867.6	0.0005658
3877.25	0.0006574
3886.89	0.0008173
3896.54	0.0004188
3906.18	0.000476
3915.83	0.00019
3925.47	0.000320959
3935.12	0.000123
3944.76	0.0008421
3954.41	0.0006263
3964.05	0.000657
3973.69	0.00040436
3983.34	0.00040218
3992.98	0.00040048
