Infrared Spectrum: 3-(3'-Fluoro-p-anisoyl)propionic acid
Formula: C11 H11 F O4
CAS: 347-63-7
State: SOLID (SPLIT MULL), FLUOROLUBE FOR 3800-1330 CM^-^1, NUJOL FOR 1330-460 CM^-^1
Melting point: 169 C
Class: COBLENTZ III
Instrument: DOW KBr FOREPRISM-GRATING
Instrument parameters: BLAZED AT 3.5, 12.0, 20.0 MICRON AND CHANGED AT 5.0, 7.5, 14.9 MICRON
Sampling: TRANSMISSION
Resolution: 2
Origin: DOW CHEMICAL COMPANY
1/CM	TRANSMITTANCE
3814	0.5485
3805	0.5497
3796	0.5521
3787	0.5552
3778	0.5581
3769	0.5606
3760	0.5626
3751	0.5645
3742	0.566
3733	0.5673
3724	0.5688
3715	0.5699
3706	0.5709
3697	0.5719
3688	0.573
3679	0.5741
3670	0.5752
3661	0.5765
3652	0.5778
3643	0.5791
3634	0.5807
3625	0.5824
3616	0.5842
3607	0.5859
3598	0.5877
3589	0.5896
3580	0.5914
3571	0.5932
3562	0.595
3553	0.5968
3544	0.5986
3535	0.6006
3526	0.6027
3517	0.6047
3508	0.6068
3499	0.6087
3490	0.6106
3481	0.6122
3472	0.6134
3463	0.6146
3454	0.6154
3445	0.6157
3436	0.616
3427	0.6168
3418	0.6177
3409	0.6184
3400	0.619
3391	0.6191
3382	0.6171
3373	0.6141
3364	0.6107
3355	0.6075
3346	0.6046
3337	0.5999
3328	0.5825
3319	0.587
3310	0.5896
3301	0.5887
3292	0.5837
3283	0.5753
3274	0.5647
3265	0.554
3256	0.5453
3247	0.5359
3238	0.5266
3229	0.5171
3220	0.5078
3211	0.4983
3202	0.489
3193	0.4806
3184	0.4715
3175	0.4594
3166	0.446
3157	0.4307
3148	0.4136
3139	0.398
3130	0.3832
3121	0.362
3112	0.3302
3103	0.3282
3094	0.3034
3085	0.2935
3076	0.3018
3067	0.2834
3058	0.2885
3049	0.2784
3040	0.2679
3031	0.2675
3022	0.2959
3013	0.3165
3004	0.3191
2995	0.2756
2986	0.2522
2977	0.1968
2968	0.2025
2959	0.2459
2950	0.2467
2941	0.2298
2932	0.2254
2923	0.2119
2914	0.218
2905	0.2322
2896	0.2492
2887	0.2649
2878	0.2785
2869	0.2904
2860	0.2991
2851	0.2819
2842	0.3287
2833	0.3547
2824	0.3714
2815	0.3768
2806	0.3864
2797	0.3975
2788	0.38
2779	0.3722
2770	0.3626
2761	0.3634
2752	0.3987
2743	0.4167
2734	0.431
2725	0.4371
2716	0.4105
2707	0.3879
2698	0.3748
2689	0.3653
2680	0.3571
2671	0.3512
2662	0.3599
2653	0.3912
2644	0.4134
2635	0.4219
2626	0.3948
2617	0.3972
2608	0.394
2599	0.3643
2590	0.363
2581	0.3832
2572	0.4176
2563	0.4462
2554	0.4718
2545	0.4883
2536	0.496
2527	0.5137
2518	0.5276
2509	0.5348
2500	0.5483
2491	0.5609
2482	0.5715
2473	0.5807
2464	0.5899
2455	0.5983
2446	0.6067
2437	0.6151
2428	0.6237
2419	0.6324
2410	0.6443
2401	0.6558
2392	0.6664
2383	0.6753
2374	0.6819
2365	0.6883
2356	0.694
2347	0.6999
2338	0.7061
2329	0.7125
2320	0.719
2311	0.7248
2302	0.7292
2293	0.73
2284	0.6956
2275	0.7338
2266	0.7496
2257	0.7587
2248	0.7668
2239	0.7728
2230	0.7781
2221	0.7808
2212	0.7826
2203	0.7861
2194	0.7938
2185	0.8025
2176	0.8083
2167	0.8105
2158	0.8128
2149	0.8165
2140	0.8246
2131	0.831
2122	0.8348
2113	0.8378
2104	0.8404
2095	0.8438
2086	0.8495
2077	0.8535
2068	0.8549
2059	0.8307
2050	0.828
2041	0.8395
2032	0.8124
2023	0.8143
2014	0.8356
2005	0.8536
1996	0.8497
1987	0.8217
1978	0.8244
1969	0.8271
1960	0.8299
1951	0.8311
1942	0.8283
1933	0.8231
1924	0.826
1915	0.7971
1906	0.8124
1897	0.8332
1888	0.8375
1879	0.8353
1870	0.835
1861	0.8345
1852	0.8334
1843	0.8304
1834	0.8192
1825	0.7999
1816	0.7883
1807	0.7754
1798	0.7718
1789	0.7654
1780	0.7097
1771	0.776
1762	0.8051
1753	0.7942
1744	0.7707
1735	0.7468
1726	0.5937
1717	0.3347
1708	0.0375
1699	0.0026
1690	0.0465
1681	0.2648
1672	0.0471
1663	0.3546
1654	0.5758
1645	0.643
1636	0.6426
1627	0.6718
1618	0.2299
1609	0.0529
1600	0.2937
1591	0.5886
1582	0.3758
1573	0.4829
1564	0.7312
1555	0.8115
1546	0.8378
1537	0.8368
1528	0.5256
1519	0.0095
1510	0.2134
1501	0.5082
1492	0.696
1483	0.7544
1474	0.7258
1465	0.5062
1456	0.4534
1447	0.2412
1438	0.013
1429	0.0362
1420	0.2392
1411	0.1995
1402	0.2895
1393	0.5088
1384	0.6993
1375	0.7054
1366	0.24
1357	0.1724
1348	0.3187
1339	0.3605
1330	0.3143
1321	0.5535
1312	0.6254
1303	0.4041
1294	0.2278
1285	0.1623
1276	0.1715
1267	0.0154
1258	0.0176
1249	0.0785
1240	0.2887
1231	0.3323
1222	0.1691
1213	0.5478
1204	0.6551
1195	0.6841
1186	0.5647
1177	0.4212
1168	0.6426
1159	0.2958
1150	0.5112
1141	0.0122
1132	0.3329
1123	0.5862
1114	0.6674
1105	0.7089
1096	0.7438
1087	0.7614
1078	0.7675
1069	0.7675
1060	0.6306
1051	0.7868
1042	0.7946
1033	0.7865
1024	0.3482
1015	0.5802
1006	0.5042
997	0.7265
988	0.7232
979	0.6317
970	0.6625
961	0.5899
952	0.4576
943	0.3559
934	0.3737
925	0.469
916	0.5731
907	0.6528
898	0.561
889	0.5106
880	0.7158
871	0.2203
862	0.7351
853	0.7544
844	0.7387
835	0.7647
826	0.128
817	0.7418
808	0.8184
799	0.8387
790	0.85
781	0.8515
772	0.8439
763	0.0928
754	0.7332
745	0.8259
736	0.8271
727	0.74
718	0.7955
709	0.8561
700	0.8678
691	0.8374
682	0.7653
673	0.8556
664	0.8378
655	0.8553
646	0.8554
637	0.8378
628	0.528
619	0.7655
610	0.602
601	0.7704
592	0.7851
583	0.8103
574	0.7699
565	0.7894
556	0.7984
547	0.8041
538	0.7925
529	0.6674
520	0.7471
511	0.5695
502	0.673
493	0.7385
484	0.7685
475	0.7805
466	0.7804
457	0.7745
