Infrared Spectrum: RHODANINE, 5-SALICYLIDENE-
Formula: C10 H7 N O2 S2
CAS: 34709-44-9
State: SOLID (KBr PELLET)
Melting point: 218 C DECOMPOSES
Class: COBLENTZ
Instrument: Not specified, most likely a prism, grating, or hybrid spectrometer.
Sampling: TRANSMISSION
Resolution: 4
Origin: TENNESSEE EASTMAN COMPANY, RESEARCH LABORATORIES
MICROMETERS	TRANSMITTANCE
1.986	0.821
2.02701	0.82
2.06802	0.82
2.10904	0.82
2.15005	0.821
2.19106	0.823
2.23207	0.827
2.27308	0.83
2.3141	0.835
2.35511	0.839
2.39612	0.84
2.43713	0.842
2.47814	0.844
2.51915	0.845
2.56017	0.844
2.60118	0.844
2.64219	0.847
2.6832	0.847
2.72421	0.813
2.76523	0.71
2.80624	0.648
2.84725	0.589
2.88826	0.515
2.92927	0.453
2.97029	0.433
3.0113	0.436
3.05231	0.429
3.09332	0.417
3.13433	0.405
3.17535	0.386
3.21636	0.419
3.25737	0.409
3.29838	0.464
3.33939	0.582
3.38041	0.647
3.42142	0.666
3.46243	0.585
3.50344	0.614
3.54445	0.738
3.58546	0.756
3.62648	0.763
3.66749	0.784
3.7085	0.792
3.74951	0.825
3.79052	0.837
3.83154	0.847
3.87255	0.857
3.91356	0.871
3.95457	0.878
3.99558	0.883
4.0366	0.885
4.07761	0.895
4.11862	0.9
4.15963	0.91
4.20064	0.917
4.24166	0.917
4.28267	0.916
4.32368	0.919
4.36469	0.924
4.4057	0.931
4.44672	0.938
4.48773	0.945
4.52874	0.948
4.56975	0.95
4.61076	0.95
4.65177	0.948
4.69279	0.948
4.7338	0.948
4.77481	0.948
4.81582	0.948
4.85683	0.948
4.89785	0.95
4.93886	0.95
4.97987	0.955
5.02088	0.964
5.06189	0.964
5.10291	0.958
5.14392	0.952
5.18493	0.953
5.22594	0.953
5.26695	0.953
5.30797	0.952
5.34898	0.952
5.38999	0.95
5.431	0.938
5.47201	0.929
5.51303	0.929
5.55404	0.934
5.59505	0.934
5.63606	0.926
5.67707	0.897
5.71808	0.821
5.7591	0.678
5.80011	0.546
5.84112	0.308
5.88213	0.126
5.92314	0.224
5.96416	0.505
6.00517	0.698
6.04618	0.744
6.08719	0.767
6.1282	0.77
6.16922	0.756
6.21023	0.578
6.25124	0.179
6.29225	0.125
6.33326	0.398
6.37428	0.686
6.41529	0.801
6.4563	0.83
6.49731	0.863
6.53832	0.866
6.57934	0.864
6.62035	0.832
6.66136	0.791
6.70237	0.792
6.74338	0.731
6.78439	0.594
6.82541	0.313
6.86642	0.373
6.90743	0.424
6.94844	0.422
6.98945	0.554
7.03047	0.679
7.07148	0.744
7.11249	0.768
7.1535	0.773
7.19451	0.779
7.23553	0.777
7.27654	0.743
7.31755	0.696
7.35856	0.607
7.39957	0.529
7.44059	0.455
7.4816	0.438
7.52261	0.506
7.56362	0.614
7.60463	0.647
7.64564	0.578
7.68666	0.534
7.72767	0.676
7.76868	0.767
7.80969	0.803
7.8507	0.777
7.89172	0.611
7.93273	0.41
7.97374	0.368
8.01475	0.33
8.05576	0.311
8.09678	0.354
8.13779	0.315
8.1788	0.214
8.21981	0.15
8.26082	0.121
8.30184	0.113
8.34285	0.123
8.38386	0.128
8.42487	0.123
8.46588	0.273
8.5069	0.498
8.54791	0.601
8.58892	0.388
8.62993	0.272
8.67094	0.619
8.71195	0.744
8.75297	0.792
8.79398	0.803
8.83499	0.821
8.876	0.833
8.91701	0.84
8.95803	0.84
8.99904	0.796
9.04005	0.743
9.08106	0.76
9.12207	0.806
9.16309	0.832
9.2041	0.835
9.24511	0.806
9.28612	0.684
9.32713	0.601
9.36815	0.589
9.40916	0.592
9.45017	0.727
9.49118	0.801
9.53219	0.808
9.57321	0.808
9.61422	0.777
9.65523	0.76
9.69624	0.808
9.73725	0.832
9.77826	0.815
9.81928	0.753
9.86029	0.761
9.9013	0.803
9.94231	0.857
9.98332	0.888
10.0243	0.909
10.0653	0.917
10.1064	0.928
10.1474	0.926
10.1884	0.928
10.2294	0.924
10.2704	0.924
10.3114	0.929
10.3524	0.936
10.3934	0.941
10.4345	0.941
10.4755	0.945
10.5165	0.943
10.5575	0.946
10.5985	0.948
10.6395	0.946
10.6805	0.938
10.7215	0.924
10.7626	0.924
10.8036	0.934
10.8446	0.933
10.8856	0.928
10.9266	0.928
10.9676	0.926
11.0086	0.931
11.0496	0.94
11.0906	0.943
11.1317	0.946
11.1727	0.945
11.2137	0.945
11.2547	0.943
11.2957	0.943
11.3367	0.94
11.3777	0.916
11.4187	0.88
11.4598	0.873
11.5008	0.881
11.5418	0.902
11.5828	0.917
11.6238	0.919
11.6648	0.904
11.7058	0.863
11.7468	0.835
11.7878	0.83
11.8289	0.849
11.8699	0.864
11.9109	0.868
11.9519	0.871
11.9929	0.871
12.0339	0.871
12.0749	0.871
12.1159	0.871
12.157	0.871
12.198	0.871
12.239	0.871
12.28	0.871
12.321	0.851
12.362	0.794
12.403	0.772
12.444	0.785
12.4851	0.813
12.5261	0.83
12.5671	0.84
12.6081	0.845
12.6491	0.845
12.6901	0.845
12.7311	0.845
12.7721	0.845
12.8131	0.839
12.8542	0.833
12.8952	0.82
12.9362	0.801
12.9772	0.775
13.0182	0.729
13.0592	0.659
13.1002	0.541
13.1412	0.426
13.1823	0.397
13.2233	0.446
13.2643	0.541
13.3053	0.642
13.3463	0.705
13.3873	0.726
13.4283	0.729
13.4693	0.748
13.5103	0.782
13.5514	0.828
13.5924	0.849
13.6334	0.861
13.6744	0.869
13.7154	0.869
13.7564	0.869
13.7974	0.869
13.8384	0.863
13.8795	0.857
13.9205	0.857
13.9615	0.868
14.0025	0.88
14.0435	0.886
14.0845	0.89
14.1255	0.898
14.1665	0.904
14.2076	0.905
14.2486	0.902
14.2896	0.866
14.3306	0.828
14.3716	0.804
14.4126	0.794
14.4536	0.794
14.4946	0.775
14.5356	0.751
14.5767	0.698
14.6177	0.648
14.6587	0.623
14.6997	0.613
14.7407	0.613
14.7817	0.636
14.8227	0.69
14.8637	0.743
14.9048	0.775
14.9458	0.796
14.9868	0.808
15.0278	0.844
15.0688	0.873
15.1098	0.892
15.1508	0.898
15.1918	0.898
15.2329	0.898
15.2739	0.897
15.3149	0.895
15.3559	0.89
15.3969	0.881
15.4379	0.871
15.4789	0.861
15.5199	0.852
15.5609	0.845
15.602	0.842
15.643	0.83
15.684	0.82
15.725	0.799
15.766	0.773
15.807	0.76
15.848	0.748
15.889	0.741
15.9301	0.734
15.9711	0.729
