Infrared Spectrum: 5,5-Dimethyl-1,3-cyclohexanedione
Formula: C8 H12 O2
CAS: 3471-13-4
State: SOLID (SPLIT MULL), FLUOROLUBE FOR 3800-1330 CM^-^1, NUJOL FOR 1330-450 CM^-^1
Class: COBLENTZ II
Instrument: DOW KBr FOREPRISM-GRATING
Instrument parameters: BLAZED AT 3.5, 12.0, 20.0 MICRON AND CHANGED AT 5.0, 7.5, 14.9 MICRON
Sampling: TRANSMISSION
Resolution: 2
Origin: DOW CHEMICAL COMPANY
1/CM	TRANSMITTANCE
3800	0.7043
3791	0.7043
3782	0.7058
3773	0.7075
3764	0.7093
3755	0.7112
3746	0.7132
3737	0.715
3728	0.7153
3719	0.7161
3710	0.7178
3701	0.7193
3692	0.7194
3683	0.715
3674	0.7201
3665	0.7257
3656	0.7244
3647	0.7243
3638	0.7283
3629	0.7305
3620	0.7298
3611	0.73
3602	0.7305
3593	0.7317
3584	0.733
3575	0.7342
3566	0.7355
3557	0.7354
3548	0.7348
3539	0.7344
3530	0.735
3521	0.7355
3512	0.7361
3503	0.7364
3494	0.7368
3485	0.7368
3476	0.7372
3467	0.7383
3458	0.7405
3449	0.7437
3440	0.7461
3431	0.7458
3422	0.7456
3413	0.7465
3404	0.7486
3395	0.7506
3386	0.7536
3377	0.7565
3368	0.7592
3359	0.7608
3350	0.7619
3341	0.7628
3332	0.7601
3323	0.7614
3314	0.7638
3305	0.766
3296	0.7657
3287	0.7649
3278	0.7644
3269	0.7646
3260	0.7639
3251	0.763
3242	0.7611
3233	0.759
3224	0.7562
3215	0.7533
3206	0.7489
3197	0.7444
3188	0.7403
3179	0.7361
3170	0.7321
3161	0.7278
3152	0.7235
3143	0.7189
3134	0.7138
3125	0.7078
3116	0.7032
3107	0.6942
3098	0.6868
3089	0.6761
3080	0.6703
3071	0.6695
3062	0.6626
3053	0.6547
3044	0.6471
3035	0.6401
3026	0.6349
3017	0.6302
3008	0.6266
2999	0.6219
2990	0.6179
2981	0.6059
2972	0.5204
2963	0.4447
2954	0.3387
2945	0.4584
2936	0.4304
2927	0.451
2918	0.4862
2909	0.4951
2900	0.4992
2891	0.4769
2882	0.456
2873	0.4427
2864	0.413
2855	0.4474
2846	0.4665
2837	0.4924
2828	0.5184
2819	0.5255
2810	0.513
2801	0.5135
2792	0.5483
2783	0.5703
2774	0.583
2765	0.5668
2756	0.5484
2747	0.5393
2738	0.536
2729	0.5423
2720	0.5483
2711	0.5375
2702	0.5279
2693	0.5178
2684	0.5027
2675	0.4933
2666	0.507
2657	0.5286
2648	0.5282
2639	0.5021
2630	0.4767
2621	0.4703
2612	0.4889
2603	0.4941
2594	0.492
2585	0.4707
2576	0.4569
2567	0.4566
2558	0.4804
2549	0.475
2540	0.4631
2531	0.4499
2522	0.4466
2513	0.4489
2504	0.4546
2495	0.4605
2486	0.4604
2477	0.4602
2468	0.4664
2459	0.472
2450	0.4776
2441	0.483
2432	0.4884
2423	0.4937
2414	0.4994
2405	0.5056
2396	0.5132
2387	0.5217
2378	0.5296
2369	0.536
2360	0.5391
2351	0.5427
2342	0.547
2333	0.5539
2324	0.5625
2315	0.5705
2306	0.5782
2297	0.5862
2288	0.5948
2279	0.6045
2270	0.6148
2261	0.6244
2252	0.6338
2243	0.6431
2234	0.6525
2225	0.6618
2216	0.6711
2207	0.6774
2198	0.6841
2189	0.6931
2180	0.701
2171	0.7084
2162	0.7155
2153	0.7219
2144	0.728
2135	0.7325
2126	0.7361
2117	0.7382
2108	0.7399
2099	0.7408
2090	0.7415
2081	0.7414
2072	0.7376
2063	0.7358
2054	0.7387
2045	0.7374
2036	0.7337
2027	0.7301
2018	0.7262
2009	0.721
2000	0.7115
1991	0.7075
1982	0.7065
1973	0.7078
1964	0.7093
1955	0.7058
1946	0.6986
1937	0.6914
1928	0.6888
1919	0.6897
1910	0.6842
1901	0.6808
1892	0.6861
1883	0.6972
1874	0.7101
1865	0.7231
1856	0.7358
1847	0.7488
1838	0.7617
1829	0.7721
1820	0.7776
1811	0.7875
1802	0.8005
1793	0.8101
1784	0.8141
1775	0.8261
1766	0.8473
1757	0.8542
1748	0.83
1739	0.8399
1730	0.8618
1721	0.8602
1712	0.8718
1703	0.8642
1694	0.8651
1685	0.8731
1676	0.8757
1667	0.8668
1658	0.8577
1649	0.8304
1640	0.7558
1631	0.5143
1622	0.2004
1613	0.0659
1604	0.1032
1595	0.2887
1586	0.3376
1577	0.2689
1568	0.418
1559	0.4776
1550	0.4662
1541	0.4082
1532	0.2498
1523	0.1607
1514	0.1646
1505	0.2581
1496	0.3734
1487	0.3912
1478	0.3105
1469	0.2181
1460	0.3447
1451	0.4064
1442	0.5262
1433	0.5862
1424	0.5173
1415	0.521
1406	0.5776
1397	0.6458
1388	0.6345
1379	0.6302
1370	0.585
1361	0.3316
1352	0.1767
1343	0.2148
1334	0.3812
1325	0.6198
1316	0.6335
1307	0.3082
1298	0.5552
1289	0.5023
1280	0.5993
1271	0.7099
1262	0.6434
1253	0.4967
1244	0.4739
1235	0.355
1226	0.0773
1217	0.4385
1208	0.5685
1199	0.6943
1190	0.7385
1181	0.7651
1172	0.7722
1163	0.6651
1154	0.6037
1145	0.23
1136	0.6068
1127	0.7203
1118	0.7686
1109	0.7961
1100	0.8086
1091	0.8071
1082	0.8008
1073	0.8047
1064	0.8093
1055	0.8125
1046	0.8138
1037	0.8121
1028	0.8075
1019	0.7914
1010	0.7849
1001	0.7621
992	0.7248
983	0.7201
974	0.7071
965	0.7146
956	0.7396
947	0.7774
938	0.7883
929	0.7987
920	0.7984
911	0.8115
902	0.7925
893	0.82
884	0.8033
875	0.8242
866	0.7933
857	0.8328
848	0.8368
839	0.8221
830	0.7501
821	0.8112
812	0.852
803	0.8291
794	0.8585
785	0.8568
776	0.8561
767	0.8535
758	0.8481
749	0.8503
740	0.844
731	0.8261
722	0.7935
713	0.7978
704	0.843
695	0.8467
686	0.8565
677	0.8677
668	0.8789
659	0.9018
650	0.904
641	0.9002
632	0.8978
623	0.8914
614	0.7091
605	0.8644
596	0.8283
587	0.8391
578	0.6887
569	0.8665
560	0.8155
551	0.8034
542	0.8713
533	0.8704
524	0.8653
515	0.8625
506	0.8582
497	0.8515
488	0.8473
479	0.8028
470	0.7393
461	0.7521
452	0.7876
