Infrared Spectrum: 2-Phenylpropionaldehyde
Formula: C 9 H 10 O
CAS: 34713-70-7
State: gas
Origin: EPA-IR VAPOR PHASE LIBRARY
1/CM	ABSORBANCE
549.9	0.003807
559.547	0.002757
569.193	0.002077
578.84	0.0017479
588.486	0.0015363
598.133	0.001375
607.779	0.0015118
617.426	0.0016949
627.072	0.0016817
636.719	0.001987
646.365	0.002647
656.012	0.004027
665.658	0.005747
675.305	0.008987
684.951	0.018907
694.598	0.031647
704.245	0.028017
713.891	0.015927
723.538	0.009267
733.184	0.008667
742.831	0.011747
752.477	0.015407
762.124	0.012687
771.77	0.006997
781.417	0.003417
791.063	0.002167
800.71	0.001651
810.356	0.0014822
820.003	0.0016345
829.649	0.002267
839.296	0.003607
848.943	0.006127
858.589	0.008417
868.236	0.008977
877.882	0.009247
887.529	0.009327
897.175	0.008127
906.822	0.006507
916.468	0.004917
926.115	0.003477
935.761	0.002587
945.408	0.002027
955.054	0.001772
964.701	0.0017578
974.347	0.0018263
983.994	0.002107
993.64	0.003057
1003.29	0.005087
1012.93	0.012107
1022.58	0.015057
1032.23	0.009347
1041.87	0.004837
1051.52	0.004997
1061.17	0.006317
1070.81	0.005937
1080.46	0.004327
1090.11	0.003657
1099.75	0.003937
1109.4	0.004387
1119.05	0.004367
1128.69	0.003727
1138.34	0.002857
1147.99	0.002037
1157.63	0.0016015
1167.28	0.0013678
1176.92	0.0014836
1186.57	0.0015814
1196.22	0.0014845
1205.86	0.0013136
1215.51	0.0013161
1225.16	0.0014593
1234.8	0.0015897
1244.45	0.0016978
1254.1	0.0017746
1263.74	0.001967
1273.39	0.002217
1283.04	0.002567
1292.68	0.002897
1302.33	0.002887
1311.98	0.002547
1321.62	0.002337
1331.27	0.002317
1340.92	0.002137
1350.56	0.002107
1360.21	0.002607
1369.86	0.003837
1379.5	0.005657
1389.15	0.006577
1398.79	0.005027
1408.44	0.003187
1418.09	0.002797
1427.73	0.003597
1437.38	0.006137
1447.03	0.010117
1456.67	0.011867
1466.32	0.009217
1475.97	0.007257
1485.61	0.011277
1495.26	0.013617
1504.91	0.008787
1514.55	0.003587
1524.2	0.002127
1533.85	0.0017672
1543.49	0.0016356
1553.14	0.0013335
1562.79	0.0015104
1572.43	0.002177
1582.08	0.003727
1591.73	0.007157
1601.37	0.008557
1611.02	0.005507
1620.67	0.002457
1630.31	0.0018867
1639.96	0.002027
1649.6	0.002577
1659.25	0.003187
1668.9	0.004137
1678.54	0.005207
1688.19	0.007167
1697.84	0.010427
1707.48	0.015767
1717.13	0.025257
1726.78	0.047717
1736.42	0.086117
1746.07	0.097007
1755.72	0.057707
1765.36	0.021967
1775.01	0.012627
1784.66	0.009667
1794.3	0.007957
1803.95	0.005907
1813.6	0.003667
1823.24	0.002477
1832.89	0.0018401
1842.54	0.0017611
1852.18	0.001987
1861.83	0.002277
1871.47	0.002497
1881.12	0.002297
1890.77	0.0017518
1900.41	0.0012372
1910.06	0.00104548
1919.71	0.0012643
1929.35	0.0019048
1939	0.002387
1948.65	0.002577
1958.29	0.002147
1967.94	0.0014452
1977.59	0.000907
1987.23	0.000767
1996.88	0.000724
2006.53	0.000695
2016.17	0.00063
2025.82	0.000538
2035.47	0.000495
2045.11	0.000514
2054.76	0.000383
2064.41	0.000486
2074.05	0.000347
2083.7	0.000332
2093.35	0.000374
2102.99	0.000339
2112.64	0.00033
2122.28	0.000386
2131.93	0.000377
2141.58	0.00039
2151.22	0.000344
2160.87	0.000388
2170.52	0.000387
2180.16	0.000399
2189.81	0.000399
2199.46	0.000398
2209.1	0.00039
2218.75	0.000415
2228.4	0.000406
2238.04	0.000436
2247.69	0.000434
2257.34	0.000416
2266.98	0.000475
2276.63	0.00047
2286.28	0.00051
2295.92	0.000509
2305.57	0.000596
2315.22	0.000668
2324.86	0.000669
2334.51	0.000552
2344.16	0.000654
2353.8	0.000631
2363.45	0.000606
2373.09	0.000483
2382.74	0.000462
2392.39	0.000413
2402.03	0.00038
2411.68	0.000417
2421.33	0.000401
2430.97	0.000436
2440.62	0.000422
2450.27	0.000428
2459.91	0.000477
2469.56	0.000393
2479.21	0.000399
2488.85	0.00041
2498.5	0.000405
2508.15	0.000432
2517.79	0.000441
2527.44	0.000425
2537.09	0.000471
2546.73	0.000491
2556.38	0.000523
2566.03	0.000591
2575.67	0.00075
2585.32	0.00096904
2594.96	0.00104365
2604.61	0.0011167
2614.26	0.0012009
2623.9	0.0016021
2633.55	0.002177
2643.2	0.002937
2652.84	0.003677
2662.49	0.004517
2672.14	0.005827
2681.78	0.008057
2691.43	0.011607
2701.08	0.015677
2710.72	0.017907
2720.37	0.015817
2730.02	0.012077
2739.66	0.009617
2749.31	0.008687
2758.96	0.008267
2768.6	0.008377
2778.25	0.008977
2787.9	0.011527
2797.54	0.016857
2807.19	0.019787
2816.84	0.015867
2826.48	0.010287
2836.13	0.007087
2845.77	0.005837
2855.42	0.005927
2865.07	0.007187
2874.71	0.010107
2884.36	0.012767
2894.01	0.011777
2903.65	0.008937
2913.3	0.007727
2922.95	0.007847
2932.59	0.009977
2942.24	0.012267
2951.89	0.011077
2961.53	0.009887
2971.18	0.014697
2980.83	0.024917
2990.47	0.022507
3000.12	0.011757
3009.77	0.007417
3019.41	0.010337
3029.06	0.016927
3038.71	0.018627
3048.35	0.013927
3058	0.013357
3067.64	0.020197
3077.29	0.021377
3086.94	0.015137
3096.58	0.010637
3106.23	0.006977
3115.88	0.004017
3125.52	0.002047
3135.17	0.0010171
3144.82	0.0008782
3154.46	0.000812
3164.11	0.000674
3173.76	0.000673
3183.4	0.000597
3193.05	0.000481
3202.7	0.000281
3212.34	0.00026
3221.99	0.000298
3231.64	0.000219
3241.28	0.000184
3250.93	0.000164
3260.58	0.000153
3270.22	0.000189
3279.87	0.000245
3289.52	0.000256
3299.16	0.000183
3308.81	1.6e-05
3318.45	0.000106
3328.1	0.000193
3337.75	0.000146
3347.39	0.000315
3357.04	0.000346
3366.69	0.000188
3376.33	0.000288
3385.98	0.000532
3395.63	0.000405
3405.27	0.00061
3414.92	0.000561
3424.57	0.000783
3434.21	0.0008946
3443.86	0.0017079
3453.51	0.002157
3463.15	0.002107
3472.8	0.0015466
3482.45	0.0012094
3492.09	0.0009231
3501.74	0.00045
3511.39	0.000731
3521.03	0.000455
3530.68	0.000404
3540.33	0.000427
3549.97	0.000383
3559.62	0.000251
3569.26	0.000296
3578.91	0.000398
3588.56	0.00037
3598.2	0.000371
3607.85	0.000343
3617.5	0.000523
3627.14	0.000427
3636.79	0.0005
3646.44	0.000643
3656.08	0.000602
3665.73	0.000463
3675.38	0.000469
3685.02	0.000603
3694.67	0.00043
3704.32	0.000439
3713.96	0.000404
3723.61	0.000352
3733.26	0.000439
3742.9	0.000515
3752.55	0.000443
3762.2	0.000405
3771.84	0.000384
3781.49	0.000374
3791.13	0.000436
3800.78	0.000404
3810.43	0.000323
3820.07	0.000463
3829.72	0.000376
3839.37	0.000389
3849.01	0.000299
3858.66	0.000332
3868.31	0.000374
3877.95	0.000406
3887.6	0.000288
3897.25	0.000311
3906.89	0.000453
3916.54	0.000399
3926.19	0.000382
3935.83	0.000439
3945.48	0.000293
3955.13	0.000308
3964.77	0.00039
3974.42	0.000348
3984.07	0.000393
3993.71	0.000457
