Infrared Spectrum: ETHANOL, 2-(4-BROMOPHENOXY)-
Formula: C8 H9 Br O2
CAS: 34743-88-9
State: SOLUTION (10% CCl4 FOR 3800-1330, 10% CS2 FOR 1330-400 CM^-^1)
Class: COBLENTZ III
Instrument: DOW KBr FOREPRISM-GRATING
Instrument parameters: BLAZED AT 3.5, 12.0, 20.0 MICRON AND CHANGED AT 5.0, 7.5, 14.9 MICRON
Sampling: TRANSMISSION
Path length: 0.011 CM, 0.011 CM
Resolution: 4
Origin: DOW CHEMICAL COMPANY
1/CM	TRANSMITTANCE
386.346	0.826
395.817	0.828
405.288	0.828
414.76	0.828
424.231	0.828
433.702	0.839
443.173	0.841
452.645	0.844
462.116	0.853
471.587	0.852
481.058	0.837
490.529	0.804
500.001	0.6261
509.472	0.5018
518.943	0.798
528.414	0.865
537.885	0.881
547.357	0.896
556.828	0.905
566.299	0.911
575.77	0.913
585.242	0.909
594.713	0.878
604.184	0.835
613.655	0.885
623.126	0.826
632.598	0.7241
642.069	0.377
651.54	0.7718
661.011	0.903
670.482	0.94
679.954	0.946
689.425	0.939
698.896	0.944
708.367	0.968
717.839	0.981
727.31	0.985
736.781	0.992
746.252	0.996
755.723	0.992
765.195	0.987
774.666	0.968
784.137	0.927
793.608	0.698
803.08	0.717
812.551	0.6349
822.022	0.038
831.493	0.6214
840.964	0.835
850.436	0.8
859.907	0.781
869.378	0.783
878.849	0.767
888.32	0.5741
897.792	0.595
907.263	0.536
916.734	0.6059
926.205	0.7829
935.677	0.918
945.148	0.933
954.619	0.957
964.09	0.964
973.561	0.955
983.033	0.944
992.504	0.865
1001.98	0.297
1011.45	0.73
1020.92	0.6951
1030.39	0.3951
1039.86	0.121
1049.33	0.308
1058.8	0.371
1068.27	0.1992
1077.74	0.147
1087.22	0.367
1096.69	0.491
1106.16	0.689
1115.63	0.7778
1125.1	0.927
1134.57	0.929
1144.04	0.929
1153.51	0.922
1162.99	0.8051
1172.46	0.2399
1181.93	0.857
1191.4	0.813
1200.87	0.6612
1210.34	0.519
1219.81	0.3911
1229.28	0.184
1238.76	0.012
1248.23	0.016
1257.7	0.4038
1267.17	0.561
1276.64	0.489
1286.11	0.138
1295.58	0.456
1305.05	0.6869
1314.53	0.811
1324	0.822
1333.47	0.835
1342.94	0.822
1352.41	0.829
1361.88	0.818
1371.35	0.641
1380.82	0.743
1390.29	0.822
1399.77	0.748
1409.24	0.696
1418.71	0.8
1428.18	0.768
1437.65	0.7959
1447.12	0.7701
1456.59	0.2991
1466.06	0.543
1475.54	0.6449
1485.01	0.2072
1494.48	0.022
1503.95	0.5318
1513.42	0.65
1522.89	0.634
1532.36	0.6
1541.83	0.519
1551.31	0.478
1560.78	0.53
1570.25	0.548
1579.72	0.3543
1589.19	0.3901
1598.66	0.3669
1608.13	0.824
1617.6	0.907
1627.08	0.922
1636.55	0.957
1646.02	0.966
1655.49	0.99
1664.96	0.996
1674.43	1
1683.9	1
1693.37	0.998
1702.85	0.996
1712.32	0.992
1721.79	0.987
1731.26	0.981
1740.73	0.968
1750.2	0.972
1759.67	0.99
1769.14	0.996
1778.61	1.001
1788.09	1.001
1797.56	0.996
1807.03	0.99
1816.5	0.988
1825.97	0.988
1835.44	0.983
1844.91	0.972
1854.38	0.974
1863.86	0.959
1873.33	0.907
1882.8	0.972
1892.27	0.974
1901.74	0.988
1911.21	0.996
1920.68	0.992
1930.15	0.988
1939.63	0.992
1949.1	0.99
1958.57	0.987
1968.04	0.987
1977.51	0.988
1986.98	0.988
1996.45	0.99
2005.92	0.99
2015.4	0.99
2024.87	0.9891
2034.34	0.983
2043.81	0.9818
2053.28	0.99
2062.75	0.9892
2072.22	0.9855
2081.69	0.9817
2091.16	0.9913
2100.64	0.994
2110.11	0.9966
2119.58	1
2129.05	1.001
2138.52	1.003
2147.99	1.0035
2157.46	1.005
2166.93	1.007
2176.41	1.007
2185.88	1.007
2195.35	1.007
2204.82	1.007
2214.29	1.007
2223.76	1.007
2233.23	1.005
2242.7	1.001
2252.18	0.9975
2261.65	0.9869
2271.12	0.9809
2280.59	0.966
2290.06	0.963
2299.53	0.97
2309	0.9769
2318.47	0.9829
2327.95	0.987
2337.42	0.99
2346.89	0.994
2356.36	0.994
2365.83	0.994
2375.3	0.992
2384.77	0.99
2394.24	0.988
2403.72	0.9872
2413.19	0.985
2422.66	0.9915
2432.13	0.994
2441.6	0.99
2451.07	0.9855
2460.54	0.9816
2470.01	0.9729
2479.48	0.972
2488.96	0.9747
2498.43	0.9783
2507.9	0.977
2517.37	0.9728
2526.84	0.9618
2536.31	0.9652
2545.78	0.9728
2555.25	0.981
2564.73	0.981
2574.2	0.979
2583.67	0.9875
2593.14	0.988
2602.61	0.9891
2612.08	0.9909
2621.55	0.9876
2631.02	0.9862
2640.5	0.9842
2649.97	0.983
2659.44	0.981
2668.91	0.9817
2678.38	0.9803
2687.85	0.977
2697.32	0.9762
2706.79	0.9694
2716.27	0.9632
2725.74	0.9495
2735.21	0.9502
2744.68	0.961
2754.15	0.964
2763.62	0.9626
2773.09	0.9525
2782.56	0.95
2792.03	0.9477
2801.51	0.9418
2810.98	0.9264
2820.45	0.9128
2829.92	0.9109
2839.39	0.898
2848.86	0.8735
2858.33	0.8083
2867.8	0.7196
2877.28	0.56
2886.75	0.6404
2896.22	0.7558
2905.69	0.765
2915.16	0.7148
2924.63	0.5675
2934.1	0.4544
2943.57	0.4718
2953.05	0.5706
2962.52	0.6292
2971.99	0.7102
2981.46	0.8368
2990.93	0.9182
3000.4	0.954
3009.87	0.966
3019.34	0.9685
3028.82	0.964
3038.29	0.939
3047.76	0.9434
3057.23	0.9466
3066.7	0.9277
3076.17	0.9153
3085.64	0.9323
3095.11	0.933
3104.59	0.9559
3114.06	0.968
3123.53	0.968
3133	0.966
3142.47	0.9635
3151.94	0.9579
3161.41	0.953
3170.88	0.948
3180.35	0.9386
3189.83	0.9321
3199.3	0.9266
3208.77	0.9183
3218.24	0.9062
3227.71	0.8964
3237.18	0.8875
3246.65	0.8725
3256.12	0.8583
3265.6	0.8453
3275.07	0.8331
3284.54	0.8158
3294.01	0.8014
3303.48	0.7885
3312.95	0.779
3322.42	0.7693
3331.89	0.7563
3341.37	0.7438
3350.84	0.7366
3360.31	0.7277
3369.78	0.7217
3379.25	0.7167
3388.72	0.7108
3398.19	0.707
3407.66	0.704
3417.14	0.7019
3426.61	0.6999
3436.08	0.698
3445.55	0.7
3455.02	0.702
3464.49	0.704
3473.96	0.707
3483.43	0.7149
3492.9	0.7219
3502.38	0.7299
3511.85	0.7495
3521.32	0.7646
3530.79	0.7826
3540.26	0.8029
3549.73	0.8164
3559.2	0.836
3568.67	0.8436
3578.15	0.8412
3587.62	0.8201
3597.09	0.7817
3606.56	0.6395
3616.03	0.6386
3625.5	0.7486
3634.97	0.8331
3644.44	0.8996
3653.92	0.9507
3663.39	0.9666
3672.86	0.9746
3682.33	0.979
3691.8	0.983
3701.27	0.987
3710.74	0.988
3720.21	0.992
3729.69	0.9951
3739.16	0.998
3748.63	1.001
3758.1	1.001
3767.57	1.001
3777.04	1.001
3786.51	1.001
