Infrared Spectrum: Maleimide, N-[4-(dimethylamino)-3,5-dinitrophenyl]-
Formula: C12 H10 N4 O6
CAS: 3475-74-9
State: SOLID (SPLIT MULL), FLUOROLUBE FOR 3800-1330 CM^-^1, NUJOL FOR 1330-450 CM^-^1
Class: COBLENTZ III
Instrument: DOW KBr FOREPRISM-GRATING
Instrument parameters: BLAZED AT 3.5, 12.0, 20.0 MICRON AND CHANGED AT 5.0, 7.5, 14.9 MICRON
Sampling: TRANSMISSION
Resolution: 2
Origin: DOW CHEMICAL COMPANY
1/CM	TRANSMITTANCE
3796	0.6152
3787	0.6172
3778	0.6191
3769	0.6197
3760	0.621
3751	0.6224
3742	0.6269
3733	0.6289
3724	0.6292
3715	0.629
3706	0.6289
3697	0.6287
3688	0.6284
3679	0.6291
3670	0.6317
3661	0.6333
3652	0.6339
3643	0.6335
3634	0.634
3625	0.6352
3616	0.6371
3607	0.6391
3598	0.641
3589	0.6432
3580	0.6449
3571	0.6412
3562	0.6425
3553	0.6441
3544	0.6458
3535	0.6468
3526	0.6476
3517	0.6484
3508	0.6491
3499	0.6489
3490	0.6445
3481	0.6401
3472	0.6366
3463	0.6381
3454	0.6443
3445	0.6488
3436	0.6503
3427	0.6508
3418	0.6515
3409	0.6522
3400	0.6538
3391	0.6551
3382	0.6565
3373	0.6578
3364	0.6591
3355	0.6604
3346	0.6617
3337	0.6631
3328	0.6649
3319	0.6668
3310	0.6686
3301	0.6704
3292	0.6721
3283	0.674
3274	0.6758
3265	0.6775
3256	0.6792
3247	0.6808
3238	0.6825
3229	0.6843
3220	0.6854
3211	0.6864
3202	0.6874
3193	0.6874
3184	0.6871
3175	0.6864
3166	0.6858
3157	0.6875
3148	0.6905
3139	0.6937
3130	0.6958
3121	0.6941
3112	0.6745
3103	0.633
3094	0.6415
3085	0.6444
3076	0.655
3067	0.6715
3058	0.6833
3049	0.6892
3040	0.6915
3031	0.6915
3022	0.6928
3013	0.6997
3004	0.6992
2995	0.6965
2986	0.7008
2977	0.7035
2968	0.7034
2959	0.6969
2950	0.6667
2941	0.6382
2932	0.6353
2923	0.6546
2914	0.6657
2905	0.6678
2896	0.6626
2887	0.659
2878	0.6571
2869	0.6591
2860	0.67
2851	0.678
2842	0.6904
2833	0.6996
2824	0.7045
2815	0.7046
2806	0.684
2797	0.6935
2788	0.7051
2779	0.7107
2770	0.7151
2761	0.7185
2752	0.7208
2743	0.7232
2734	0.7254
2725	0.7275
2716	0.7299
2707	0.7319
2698	0.7342
2689	0.7361
2680	0.738
2671	0.7397
2662	0.7415
2653	0.7424
2644	0.7432
2635	0.744
2626	0.7451
2617	0.7461
2608	0.7475
2599	0.7486
2590	0.75
2581	0.7514
2572	0.7528
2563	0.7539
2554	0.7551
2545	0.7561
2536	0.7572
2527	0.7578
2518	0.7584
2509	0.7589
2500	0.7595
2491	0.7597
2482	0.7598
2473	0.7599
2464	0.7598
2455	0.7595
2446	0.7592
2437	0.7594
2428	0.7596
2419	0.7598
2410	0.7598
2401	0.7596
2392	0.7596
2383	0.7597
2374	0.76
2365	0.7599
2356	0.7587
2347	0.7576
2338	0.7568
2329	0.7565
2320	0.7569
2311	0.7583
2302	0.76
2293	0.7617
2284	0.7636
2275	0.7657
2266	0.7682
2257	0.7711
2248	0.7756
2239	0.7796
2230	0.7838
2221	0.7881
2212	0.7905
2203	0.7915
2194	0.7925
2185	0.794
2176	0.796
2167	0.7978
2158	0.7999
2149	0.8018
2140	0.804
2131	0.8061
2122	0.8085
2113	0.8108
2104	0.8131
2095	0.8153
2086	0.8175
2077	0.8195
2068	0.8217
2059	0.8242
2050	0.8267
2041	0.8289
2032	0.8306
2023	0.8315
2014	0.8314
2005	0.8304
1996	0.8301
1987	0.8312
1978	0.8332
1969	0.8347
1960	0.836
1951	0.8371
1942	0.838
1933	0.8318
1924	0.8318
1915	0.838
1906	0.8404
1897	0.8416
1888	0.8455
1879	0.8442
1870	0.8463
1861	0.845
1852	0.8471
1843	0.8475
1834	0.8499
1825	0.8535
1816	0.8547
1807	0.8515
1798	0.8552
1789	0.8491
1780	0.8165
1771	0.8433
1762	0.8456
1753	0.8377
1744	0.7899
1735	0.4669
1726	0.1934
1717	0.3572
1708	0.3636
1699	0.6357
1690	0.6884
1681	0.7542
1672	0.7761
1663	0.7967
1654	0.8078
1645	0.8012
1636	0.7115
1627	0.7269
1618	0.7812
1609	0.8064
1600	0.8247
1591	0.8234
1582	0.8254
1573	0.8124
1564	0.6528
1555	0.5147
1546	0.1799
1537	0.2735
1528	0.2984
1519	0.3034
1510	0.5484
1501	0.636
1492	0.6848
1483	0.7201
1474	0.7125
1465	0.6129
1456	0.6521
1447	0.6019
1438	0.6232
1429	0.3968
1420	0.5485
1411	0.5932
1402	0.6881
1393	0.7231
1384	0.7174
1375	0.6119
1366	0.4509
1357	0.3607
1348	0.383
1339	0.4878
1330	0.6096
1321	0.6721
1312	0.6475
1303	0.6946
1294	0.6362
1285	0.3957
1276	0.573
1267	0.6854
1258	0.6882
1249	0.411
1240	0.4501
1231	0.5129
1222	0.6928
1213	0.7525
1204	0.7708
1195	0.7778
1186	0.755
1177	0.7008
1168	0.656
1159	0.4858
1150	0.3548
1141	0.5633
1132	0.7111
1123	0.7571
1114	0.7418
1105	0.7455
1096	0.7694
1087	0.7947
1078	0.5376
1069	0.6096
1060	0.7854
1051	0.8158
1042	0.7086
1033	0.809
1024	0.8238
1015	0.8085
1006	0.8271
997	0.833
988	0.8355
979	0.8307
970	0.8054
961	0.4997
952	0.7611
943	0.808
934	0.8118
925	0.7611
916	0.6985
907	0.8061
898	0.7128
889	0.7918
880	0.8301
871	0.8401
862	0.8448
853	0.841
844	0.8399
835	0.8221
826	0.1964
817	0.7894
808	0.8385
799	0.8463
790	0.8478
781	0.6792
772	0.8125
763	0.811
754	0.8133
745	0.7401
736	0.6433
727	0.7678
718	0.7312
709	0.6568
700	0.5271
691	0.629
682	0.7938
673	0.8447
664	0.8621
655	0.867
646	0.8589
637	0.8454
628	0.6735
619	0.7682
610	0.8478
601	0.8405
592	0.8218
583	0.8547
574	0.8588
565	0.8299
556	0.8417
547	0.842
538	0.838
529	0.838
520	0.8374
511	0.8354
502	0.8332
493	0.8309
484	0.8281
475	0.8248
466	0.8068
457	0.7971
