Infrared Spectrum: 2,2'-Dibromoadipic acid
Formula: C 6 H 8 Br 2 O 4
CAS: 3479-85-4
State: gas
Origin: EPA-IR VAPOR PHASE LIBRARY
1/CM	ABSORBANCE
501.5	0.000365
513.074	0.0002827
524.648	0.0002886
536.222	0.0005444
547.796	0.0007619
559.37	0.0005032
570.944	0.0006799
582.518	0.0007843
594.092	0.0009678
605.666	0.0009495
617.24	0.000883
628.814	0.0008592
640.388	0.0008938
651.962	0.0012167
663.536	0.001594
675.11	0.002194
686.684	0.002324
698.258	0.002044
709.832	0.001874
721.406	0.001574
732.98	0.001394
744.554	0.001424
756.128	0.001614
767.702	0.001564
779.276	0.001844
790.85	0.001964
802.423	0.002084
813.997	0.001894
825.571	0.001894
837.145	0.001854
848.719	0.001904
860.293	0.001614
871.867	0.001574
883.441	0.001504
895.015	0.001404
906.589	0.0010024
918.163	0.0008881
929.737	0.0008933
941.311	0.0011029
952.885	0.001524
964.459	0.002214
976.033	0.003494
987.607	0.004764
999.181	0.005784
1010.76	0.006044
1022.33	0.006434
1033.9	0.006784
1045.48	0.005874
1057.05	0.005324
1068.63	0.005034
1080.2	0.004654
1091.77	0.004384
1103.35	0.004534
1114.92	0.005654
1126.49	0.009434
1138.07	0.017914
1149.64	0.027304
1161.22	0.026744
1172.79	0.021074
1184.36	0.018254
1195.94	0.018924
1207.51	0.019454
1219.09	0.019544
1230.66	0.020104
1242.23	0.020474
1253.81	0.022174
1265.38	0.024774
1276.96	0.021494
1288.53	0.015164
1300.1	0.012124
1311.68	0.009234
1323.25	0.007784
1334.83	0.007424
1346.4	0.007564
1357.97	0.007054
1369.55	0.005254
1381.12	0.003574
1392.7	0.002334
1404.27	0.002094
1415.84	0.002444
1427.42	0.004154
1438.99	0.011614
1450.57	0.007864
1462.14	0.004054
1473.71	0.002564
1485.29	0.001924
1496.86	0.001564
1508.44	0.001354
1520.01	0.0012597
1531.58	0.0012548
1543.16	0.0011916
1554.73	0.0011951
1566.31	0.0011315
1577.88	0.0010731
1589.45	0.0010397
1601.03	0.000879
1612.6	0.0008991
1624.18	0.0007464
1635.75	0.0006814
1647.32	0.0006768
1658.9	0.0007116
1670.47	0.0007739
1682.05	0.0009635
1693.62	0.001424
1705.19	0.002574
1716.77	0.004734
1728.34	0.007934
1739.92	0.015024
1751.49	0.036634
1763.06	0.047214
1774.64	0.021704
1786.21	0.012554
1797.79	0.006694
1809.36	0.003024
1820.93	0.001684
1832.51	0.0010454
1844.08	0.000798
1855.66	0.0006652
1867.23	0.0005882
1878.8	0.0005968
1890.38	0.0005669
1901.95	0.0005176
1913.53	0.0005021
1925.1	0.0004819
1936.67	0.0004824
1948.25	0.0005023
1959.82	0.0005022
1971.4	0.0004972
1982.97	0.0005142
1994.54	0.0005271
2006.12	0.0005768
2017.69	0.0005906
2029.27	0.0005728
2040.84	0.0005842
2052.41	0.0005852
2063.99	0.0005542
2075.56	0.0005578
2087.14	0.0005628
2098.71	0.0005658
2110.28	0.0005227
2121.86	0.0005216
2133.43	0.0005177
2145.01	0.000463
2156.58	0.0004127
2168.15	0.00038116
2179.73	0.00034295
2191.3	0.00033951
2202.88	0.00034474
2214.45	0.0002592
2226.02	0.0002854
2237.6	0.0002679
2249.17	0.0002911
2260.74	0.0002449
2272.32	0.0002857
2283.89	0.0002995
2295.47	0.000265
2307.04	0.00031157
2318.61	0.0002969
2330.19	0.00030511
2341.76	0.0003003
2353.34	0.0002913
2364.91	0.0002446
2376.48	0.000294
2388.06	0.000316927
2399.63	0.0002984
2411.21	0.0003093
2422.78	0.000313002
2434.35	0.0002679
2445.93	0.0002602
2457.5	0.0002447
2469.08	0.0002398
2480.65	0.00027
2492.22	0.0002495
2503.8	0.0002764
2515.37	0.0002967
2526.95	0.000254
2538.52	0.0002442
2550.09	0.0002669
2561.67	0.0002529
2573.24	0.0002677
2584.82	0.0002861
2596.39	0.0002763
2607.96	0.0002825
2619.54	0.00030417
2631.11	0.0002418
2642.69	0.0002926
2654.26	0.0002694
2665.83	0.0002638
2677.41	0.000202
2688.98	0.0002263
2700.56	0.0002274
2712.13	0.000173
2723.7	0.0002231
2735.28	0.000206
2746.85	0.0002533
2758.43	0.00023
2770	0.0002187
2781.57	0.00031396
2793.15	0.00033707
2804.72	0.0003792
2816.3	0.0004828
2827.87	0.0006019
2839.44	0.0010462
2851.02	0.002124
2862.59	0.001704
2874.17	0.0012462
2885.74	0.0011693
2897.31	0.001684
2908.89	0.002254
2920.46	0.002574
2932.04	0.002864
2943.61	0.003864
2955.18	0.008154
2966.76	0.011614
2978.33	0.004434
2989.91	0.003244
3001.48	0.003134
3013.05	0.002754
3024.63	0.002264
3036.2	0.002174
3047.78	0.001574
3059.35	0.0011257
3070.92	0.0008974
3082.5	0.0008388
3094.07	0.0007651
3105.65	0.0006521
3117.22	0.000537
3128.79	0.0004759
3140.37	0.00039877
3151.94	0.0004094
3163.52	0.00030413
3175.09	0.0002163
3186.66	0.000213
3198.24	0.0002842
3209.81	0.000239
3221.39	0.000207
3232.96	0.000208
3244.53	0.000129
3256.11	0.0001
3267.68	0.0002203
3279.26	0.000182
3290.83	0.00017
3302.4	0.000144
3313.98	0.000175
3325.55	0.000149
3337.13	0.00021
3348.7	9.8e-05
3360.27	0.0002143
3371.85	7.6e-05
3383.42	0.000118
3395	0.000174
3406.57	0.000106
3418.14	0.0002338
3429.72	0.0002869
3441.29	0.0002981
3452.86	0.0002981
3464.44	0.00032546
3476.01	0.0004152
3487.59	0.0005429
3499.16	0.0006321
3510.73	0.0005665
3522.31	0.00039468
3533.88	0.00033505
3545.46	0.00034012
3557.03	0.00031164
3568.6	0
3580.18	0.000152
3591.75	0.000187
3603.33	0.0002496
3614.9	0.0002688
3626.47	0.0002446
3638.05	0.0002511
3649.62	0.0002661
3661.2	0.000229
3672.77	0.0002301
3684.34	0.000209
3695.92	0.000201
3707.49	0.000185
3719.07	0.000165
3730.64	0.0002834
3742.21	0.0002541
3753.79	0.0002511
3765.36	0.0002633
3776.94	0.000177
3788.51	0.000207
3800.08	0.000201
3811.66	0.000141
3823.23	0.0002288
3834.81	0.0002501
3846.38	0.0002734
3857.95	0.000191
3869.53	0.0002617
3881.1	0.0002532
3892.68	0.0003033
3904.25	0.00033784
3915.82	0.000204
3927.4	0.0002984
3938.97	0.00032734
3950.55	0.0002527
3962.12	0.0002488
3973.69	0.00032573
3985.27	0.000189
3996.84	0.000215
