Infrared Spectrum: 4-Acetyl-4-phenylpiperidine hydrochloride
Formula: C 13 H 18 Cl N O
CAS: 34798-80-6
State: gas
Origin: EPA-IR VAPOR PHASE LIBRARY
1/CM	ABSORBANCE
549.8	0.010087
559.445	0.007067
569.09	0.005807
578.734	0.007597
588.379	0.012247
598.024	0.012157
607.669	0.007057
617.313	0.003997
626.958	0.003347
636.603	0.005757
646.248	0.007107
655.893	0.005227
665.537	0.006117
675.182	0.008057
684.827	0.013407
694.472	0.032497
704.116	0.032907
713.761	0.015647
723.406	0.013207
733.051	0.019957
742.695	0.035337
752.34	0.048627
761.985	0.030067
771.63	0.011387
781.275	0.007007
790.919	0.005127
800.564	0.003447
810.209	0.002837
819.854	0.002617
829.498	0.002847
839.143	0.002917
848.788	0.003857
858.433	0.004727
868.078	0.005687
877.722	0.004507
887.367	0.003797
897.012	0.004637
906.657	0.004857
916.301	0.004187
925.946	0.003917
935.591	0.003027
945.236	0.003707
954.88	0.006687
964.525	0.008707
974.17	0.007987
983.815	0.007127
993.46	0.006637
1003.1	0.007907
1012.75	0.009847
1022.39	0.010577
1032.04	0.011937
1041.68	0.007207
1051.33	0.005587
1060.97	0.005257
1070.62	0.004727
1080.26	0.005497
1089.91	0.006457
1099.55	0.012587
1109.2	0.018037
1118.84	0.018757
1128.49	0.016977
1138.13	0.014837
1147.78	0.014547
1157.42	0.014507
1167.07	0.014997
1176.71	0.018117
1186.36	0.023517
1196	0.017957
1205.64	0.008987
1215.29	0.007237
1224.93	0.007797
1234.58	0.006497
1244.22	0.004897
1253.87	0.002957
1263.51	0.004047
1273.16	0.005397
1282.8	0.006587
1292.45	0.006727
1302.09	0.006267
1311.74	0.006757
1321.38	0.011867
1331.03	0.015847
1340.67	0.016227
1350.32	0.026597
1359.96	0.028607
1369.61	0.014767
1379.25	0.008257
1388.9	0.007607
1398.54	0.006477
1408.18	0.006237
1417.83	0.009227
1427.47	0.013477
1437.12	0.018357
1446.76	0.022587
1456.41	0.017877
1466.05	0.011927
1475.7	0.010307
1485.34	0.012027
1494.99	0.016047
1504.63	0.010577
1514.28	0.005007
1523.92	0.003687
1533.57	0.003427
1543.21	0.003147
1552.86	0.002757
1562.5	0.002917
1572.15	0.003807
1581.79	0.005907
1591.44	0.008587
1601.08	0.008437
1610.73	0.004537
1620.37	0.003207
1630.01	0.002837
1639.66	0.002737
1649.3	0.003737
1658.95	0.004537
1668.59	0.005157
1678.24	0.006237
1687.88	0.008147
1697.53	0.016567
1707.17	0.049967
1716.82	0.091437
1726.46	0.051097
1736.11	0.013947
1745.75	0.007117
1755.4	0.005117
1765.04	0.004347
1774.69	0.004157
1784.33	0.003767
1793.98	0.003897
1803.62	0.003307
1813.27	0.002277
1822.91	0.001917
1832.55	0.001817
1842.2	0.0013697
1851.84	0.001677
1861.49	0.001977
1871.13	0.002167
1880.78	0.002357
1890.42	0.002227
1900.07	0.001867
1909.71	0.0015197
1919.36	0.0014111
1929	0.001827
1938.65	0.002707
1948.29	0.002867
1957.94	0.002347
1967.58	0.001657
1977.23	0.0012521
1986.87	0.0012655
1996.52	0.0010943
2006.16	0.0011736
2015.81	0.001058
2025.45	0.0012297
2035.1	0.0008888
2044.74	0.0011473
2054.38	0.0010602
2064.03	0.0010564
2073.67	0.0011438
2083.32	0.0008829
2092.96	0.0011673
2102.61	0.0011907
2112.25	0.0011472
2121.9	0.001161
2131.54	0.0009539
2141.19	0.0010266
2150.83	0.0007402
2160.48	0.0008034
2170.12	0.0010574
2179.77	0.001327
2189.41	0.0012163
2199.06	0.0011174
2208.7	0.0010066
2218.35	0.0010178
2227.99	0.0011327
2237.64	0.0009832
2247.28	0.0012923
2256.92	0.0012263
2266.57	0.001111
2276.21	0.0012354
2285.86	0.0010035
2295.5	0.0010292
2305.15	0.0012321
2314.79	0.0012488
2324.44	0.0011883
2334.08	0.0011593
2343.73	0.0011704
2353.37	0.0012662
2363.02	0.0009803
2372.66	0.0012451
2382.31	0.0010811
2391.95	0.0012293
2401.6	0.0013958
2411.24	0.0010818
2420.89	0.0012802
2430.53	0.0010077
2440.18	0.0011605
2449.82	0.001155
2459.47	0.0014569
2469.11	0.0012469
2478.75	0.0011518
2488.4	0.0010987
2498.04	0.0008814
2507.69	0.0013638
2517.33	0.0013974
2526.98	0.0011588
2536.62	0.0011624
2546.27	0.0009411
2555.91	0.0010902
2565.56	0.0014558
2575.2	0.001274
2584.85	0.0012424
2594.49	0.001261
2604.14	0.0014164
2613.78	0.0015773
2623.43	0.001887
2633.07	0.002527
2642.72	0.002807
2652.36	0.003017
2662.01	0.002837
2671.65	0.002477
2681.29	0.002697
2690.94	0.002917
2700.58	0.003187
2710.23	0.002827
2719.87	0.003067
2729.52	0.004237
2739.16	0.006657
2748.81	0.008197
2758.45	0.005987
2768.1	0.005447
2777.74	0.005987
2787.39	0.007547
2797.03	0.010927
2806.68	0.012827
2816.32	0.012717
2825.97	0.015957
2835.61	0.017577
2845.26	0.015117
2854.9	0.015787
2864.55	0.018667
2874.19	0.018557
2883.84	0.015287
2893.48	0.013907
2903.12	0.017087
2912.77	0.023997
2922.41	0.033287
2932.06	0.045327
2941.7	0.064047
2951.35	0.078627
2960.99	0.053397
2970.64	0.025517
2980.28	0.012047
2989.93	0.007617
2999.57	0.006167
3009.22	0.006717
3018.86	0.008787
3028.51	0.011067
3038.15	0.012247
3047.8	0.011067
3057.44	0.014737
3067.09	0.021597
3076.73	0.016847
3086.38	0.012767
3096.02	0.011177
3105.67	0.006787
3115.31	0.004217
3124.95	0.002627
3134.6	0.002147
3144.24	0.001517
3153.89	0.0014999
3163.53	0.0012073
3173.18	0.0015138
3182.82	0.0013319
3192.47	0.0015267
3202.11	0.0009895
3211.76	0.00068087
3221.4	0.0005727
3231.05	0.000897
3240.69	0.0012303
3250.34	0.0009586
3259.98	0.0009307
3269.63	0.0008413
3279.27	0.00068508
3288.92	0.0007839
3298.56	0.0010062
3308.21	0.0016239
3317.85	0.0009277
3327.49	0.0009189
3337.14	0.0014439
3346.78	0.0012789
3356.43	0.0012909
3366.07	0.0008801
3375.72	0.0009137
3385.36	0.00068026
3395.01	0.0008062
3404.65	0.001847
3414.3	0.002177
3423.94	0.001717
3433.59	0.0011914
3443.23	0.00062772
3452.88	0.0005893
3462.52	0.0007821
3472.17	0.0010769
3481.81	0.0007528
3491.46	0.00042
3501.1	0.0007871
3510.75	0.000579
3520.39	0.0013132
3530.04	0.00068229
3539.68	0.0008429
3549.32	0.00069736
3558.97	0.0007989
3568.61	0.0009572
3578.26	0.0012024
3587.9	0.000339
3597.55	0.0008462
3607.19	0.000449
3616.84	0.0007628
3626.48	0.0006099
3636.13	0.0008597
3645.77	0.0010643
3655.42	0.00070011
3665.06	0.0009924
3674.71	0.000518
3684.35	0.0009743
3694	0.0010222
3703.64	0.0010058
3713.29	0.0008291
3722.93	0.0009007
3732.58	0.0010383
3742.22	0.0008288
3751.86	0.0009312
3761.51	0.001127
3771.15	0.0008477
3780.8	0.0006269
3790.44	0.0008005
3800.09	0.0005494
3809.73	0.0006196
3819.38	0.000313
3829.02	0.00072387
3838.67	0.0013683
3848.31	0.0008327
3857.96	0.0008386
3867.6	0.0010457
3877.25	0.000522
3886.89	0.0008371
3896.54	0.0009775
3906.18	0.0012475
3915.83	0.000775
3925.47	0.0011472
3935.12	0.001657
3944.76	0.0006209
3954.41	0.00070035
3964.05	0.0009114
3973.69	0.000983
3983.34	0.0013227
3992.98	0.000273
