Infrared Spectrum: PHOSPHONIC ACID, ALLYL-, DIALLYL ESTER
Formula: C9 H15 O3 P
CAS: 3479-30-9
Class: COBLENTZ
Instrument: Not specified, most likely a prism, grating, or hybrid spectrometer.
Sampling: TRANSMISSION
Path length: SMEAR
Resolution: 4
Origin: TENNESSEE EASTMAN COMPANY, RESEARCH LABORATORIES
MICROMETERS	TRANSMITTANCE
2.067	0.971
2.107	0.974
2.147	0.974
2.18699	0.974
2.22699	0.976
2.26699	0.974
2.30699	0.969
2.34699	0.968
2.38698	0.968
2.42698	0.969
2.46698	0.969
2.50698	0.976
2.54698	0.976
2.58698	0.978
2.62697	0.981
2.66697	0.979
2.70697	0.986
2.74697	0.974
2.78697	0.956
2.82696	0.914
2.86696	0.844
2.90696	0.821
2.94696	0.832
2.98696	0.896
3.02695	0.928
3.06695	0.943
3.10695	0.944
3.14695	0.946
3.18695	0.953
3.22694	0.953
3.26694	0.846
3.30694	0.881
3.34694	0.792
3.38694	0.757
3.42693	0.709
3.46693	0.752
3.50693	0.829
3.54693	0.939
3.58693	0.964
3.62693	0.978
3.66692	0.984
3.70692	0.983
3.74692	0.984
3.78692	0.993
3.82692	1.001
3.86691	1
3.90691	1.001
3.94691	1.001
3.98691	1.003
4.02691	1.005
4.0669	1.005
4.1069	1.003
4.1469	1.001
4.1869	1
4.2269	0.993
4.26689	1.026
4.30689	1.023
4.34689	1.005
4.38689	0.973
4.42689	0.979
4.46689	0.979
4.50688	0.979
4.54688	0.979
4.58688	0.979
4.62688	0.979
4.66688	0.979
4.70687	0.981
4.74687	0.981
4.78687	0.981
4.82687	0.981
4.86687	0.981
4.90686	0.978
4.94686	0.978
4.98686	0.974
5.02686	0.968
5.06686	0.959
5.10685	0.963
5.14685	0.968
5.18685	0.963
5.22685	0.954
5.26685	0.939
5.30684	0.933
5.34684	0.911
5.38684	0.903
5.42684	0.909
5.46684	0.901
5.50684	0.926
5.54683	0.959
5.58683	0.964
5.62683	0.959
5.66683	0.966
5.70683	0.964
5.74682	0.964
5.78682	0.959
5.82682	0.966
5.86682	0.949
5.90682	0.963
5.94681	0.936
5.98681	0.926
6.02681	0.896
6.06681	0.862
6.10681	0.64
6.1468	0.747
6.1868	0.867
6.2268	0.889
6.2668	0.921
6.3068	0.934
6.3468	0.949
6.38679	0.943
6.42679	0.948
6.46679	0.954
6.50679	0.936
6.54679	0.949
6.58678	0.934
6.62678	0.943
6.66678	0.931
6.70678	0.928
6.74678	0.901
6.78677	0.834
6.82677	0.732
6.86677	0.719
6.90677	0.811
6.94677	0.837
6.98676	0.66
7.02676	0.523
7.06676	0.66
7.10676	0.71
7.14676	0.739
7.18675	0.752
7.22675	0.819
7.26675	0.841
7.30675	0.844
7.34675	0.822
7.38675	0.792
7.42674	0.884
7.46674	0.916
7.50674	0.913
7.54674	0.914
7.58674	0.909
7.62673	0.872
7.66673	0.831
7.70673	0.725
7.74673	0.653
7.78673	0.59
7.82672	0.461
7.86672	0.312
7.90672	0.227
7.94672	0.207
7.98672	0.205
8.02671	0.235
8.06671	0.299
8.10671	0.377
8.14671	0.426
8.18671	0.479
8.22671	0.486
8.2667	0.518
8.3067	0.637
8.3467	0.672
8.3867	0.69
8.4267	0.757
8.46669	0.794
8.50669	0.806
8.54669	0.804
8.58669	0.735
8.62669	0.727
8.66668	0.769
8.70668	0.792
8.74668	0.797
8.78668	0.794
8.82668	0.774
8.86667	0.739
8.90667	0.68
8.94667	0.613
8.98667	0.506
9.02667	0.433
9.06666	0.367
9.10666	0.366
9.14666	0.423
9.18666	0.498
9.22666	0.538
9.26666	0.548
9.30665	0.526
9.34665	0.496
9.38665	0.458
9.42665	0.411
9.46665	0.327
9.50664	0.237
9.54664	0.167
9.58664	0.127
9.62664	0.103
9.66664	0.1
9.70663	0.1
9.74663	0.1
9.78663	0.093
9.82663	0.083
9.86663	0.083
9.90662	0.085
9.94662	0.085
9.98662	0.093
10.0266	0.098
10.0666	0.098
10.1066	0.105
10.1466	0.147
10.1866	0.234
10.2266	0.314
10.2666	0.364
10.3066	0.377
10.3466	0.381
10.3866	0.389
10.4266	0.418
10.4666	0.421
10.5066	0.419
10.5466	0.396
10.5866	0.354
10.6266	0.311
10.6666	0.254
10.7066	0.225
10.7466	0.192
10.7866	0.178
10.8266	0.177
10.8666	0.178
10.9066	0.229
10.9466	0.29
10.9866	0.403
11.0266	0.531
11.0666	0.598
11.1066	0.65
11.1466	0.673
11.1866	0.68
11.2266	0.677
11.2666	0.638
11.3066	0.586
11.3466	0.521
11.3866	0.468
11.4266	0.424
11.4666	0.399
11.5065	0.396
11.5465	0.401
11.5865	0.431
11.6265	0.463
11.6665	0.486
11.7065	0.503
11.7465	0.51
11.7865	0.513
11.8265	0.518
11.8665	0.526
11.9065	0.55
11.9465	0.578
11.9865	0.6
12.0265	0.618
12.0665	0.632
12.1065	0.64
12.1465	0.642
12.1865	0.645
12.2265	0.643
12.2665	0.638
12.3065	0.635
12.3465	0.638
12.3865	0.653
12.4265	0.698
12.4665	0.732
12.5065	0.764
12.5465	0.795
12.5865	0.816
12.6265	0.831
12.6665	0.844
12.7065	0.849
12.7465	0.852
12.7865	0.852
12.8265	0.849
12.8665	0.839
12.9065	0.834
12.9465	0.826
12.9865	0.827
13.0265	0.824
13.0665	0.822
13.1065	0.822
13.1465	0.821
13.1865	0.822
13.2265	0.827
13.2665	0.832
13.3065	0.839
13.3465	0.846
13.3865	0.851
13.4265	0.862
13.4665	0.866
13.5065	0.872
13.5465	0.877
13.5864	0.881
13.6264	0.886
13.6664	0.887
13.7064	0.891
13.7464	0.894
13.7864	0.897
13.8264	0.899
13.8664	0.899
13.9064	0.897
13.9464	0.897
13.9864	0.897
14.0264	0.899
14.0664	0.899
14.1064	0.901
14.1464	0.901
14.1864	0.899
14.2264	0.899
14.2664	0.897
14.3064	0.894
14.3464	0.891
14.3864	0.886
14.4264	0.881
14.4664	0.879
14.5064	0.877
14.5464	0.874
14.5864	0.871
14.6264	0.867
14.6664	0.862
14.7064	0.861
14.7464	0.852
14.7864	0.847
14.8264	0.839
14.8664	0.834
14.9064	0.827
14.9464	0.812
14.9864	0.809
15.0264	0.802
15.0664	0.794
15.1064	0.782
15.1464	0.762
15.1864	0.749
15.2264	0.739
15.2664	0.719
15.3064	0.707
15.3464	0.692
15.3864	0.675
15.4264	0.663
15.4664	0.648
15.5064	0.635
15.5464	0.625
15.5864	0.617
15.6264	0.608
15.6663	0.603
15.7063	0.598
15.7463	0.595
15.7863	0.595
15.8263	0.595
15.8663	0.596
15.9063	0.596
15.9463	0.596
15.9863	0.596
