Infrared Spectrum: D-METHIONINE
Formula: C5 H11 N O2 S
CAS: 348-67-4
State: SOLID (MULL, KBr DISC)
Class: COBLENTZ III
Instrument: PERKIN-ELMER 521 (GRATING)
Instrument parameters: ORDER CHANGES: 1999, 690 CM^-^1
Sampling: TRANSMISSION
Resolution: 2
Origin: SMITH KLINE & FRENCH LABS.
1/CM	TRANSMITTANCE
4006	0.8895
3996	0.8899
3986	0.8902
3976	0.8906
3966	0.8907
3956	0.8905
3946	0.8903
3936	0.8908
3926	0.8914
3916	0.8925
3906	0.8937
3896	0.8948
3886	0.8956
3876	0.896
3866	0.8957
3856	0.8951
3846	0.8946
3836	0.8941
3826	0.8943
3816	0.8958
3806	0.9006
3796	0.8964
3786	0.8995
3776	0.9025
3766	0.9028
3756	0.9031
3746	0.903
3736	0.9032
3726	0.9036
3716	0.9043
3706	0.905
3696	0.9057
3686	0.9061
3676	0.9065
3666	0.9068
3656	0.9068
3646	0.9071
3636	0.9075
3626	0.9078
3616	0.9082
3606	0.9083
3596	0.9084
3586	0.9083
3576	0.9078
3566	0.9075
3556	0.9071
3546	0.9071
3536	0.9068
3526	0.9068
3516	0.9066
3506	0.9064
3496	0.9061
3486	0.9059
3476	0.9053
3466	0.904
3456	0.9042
3446	0.9012
3436	0.8996
3426	0.897
3416	0.8978
3406	0.8987
3396	0.8992
3386	0.899
3376	0.8988
3366	0.8987
3356	0.8987
3346	0.8982
3336	0.8974
3326	0.8951
3316	0.891
3306	0.8846
3296	0.878
3286	0.8704
3276	0.8625
3266	0.8513
3256	0.8386
3246	0.8233
3236	0.8075
3226	0.7905
3216	0.7655
3206	0.7317
3196	0.7068
3186	0.6648
3176	0.626
3166	0.608
3156	0.594
3146	0.5807
3136	0.5673
3126	0.5514
3116	0.5356
3106	0.5189
3096	0.4999
3086	0.4829
3076	0.467
3066	0.4489
3056	0.4305
3046	0.4171
3036	0.4092
3026	0.4007
3016	0.3823
3006	0.3598
2996	0.3247
2986	0.2789
2976	0.2211
2966	0.1677
2956	0.1136
2946	0.1119
2936	0.0981
2926	0.0842
2916	0.0835
2906	0.1207
2896	0.1725
2886	0.2119
2876	0.2045
2866	0.1726
2856	0.167
2846	0.2471
2836	0.3332
2826	0.411
2816	0.4544
2806	0.4719
2796	0.4812
2786	0.4903
2776	0.496
2766	0.4953
2756	0.4904
2746	0.4878
2736	0.4864
2726	0.4946
2716	0.5051
2706	0.5157
2696	0.5265
2686	0.5382
2676	0.5488
2666	0.5479
2656	0.5318
2646	0.5143
2636	0.5003
2626	0.4976
2616	0.4964
2606	0.4955
2596	0.4955
2586	0.496
2576	0.4993
2566	0.5076
2556	0.5222
2546	0.5392
2536	0.5707
2526	0.5915
2516	0.5976
2506	0.6034
2496	0.6078
2486	0.6148
2476	0.6281
2466	0.6514
2456	0.6651
2446	0.6804
2436	0.6981
2426	0.7128
2416	0.726
2406	0.7365
2396	0.7455
2386	0.7544
2376	0.7685
2366	0.7693
2356	0.7737
2346	0.7856
2336	0.7915
2326	0.7965
2316	0.8012
2306	0.8087
2296	0.8164
2286	0.8235
2276	0.8308
2266	0.8383
2256	0.8485
2246	0.8563
2236	0.862
2226	0.8638
2216	0.8624
2206	0.8608
2196	0.8588
2186	0.8477
2176	0.832
2166	0.8153
2156	0.8028
2146	0.7906
2136	0.7801
2126	0.7718
2116	0.7678
2106	0.7762
2096	0.7881
2086	0.7983
2076	0.8084
2066	0.8232
2056	0.8375
2046	0.8518
2036	0.8651
2026	0.8761
2016	0.8821
2006	0.8968
1996	0.9134
1986	0.9171
1976	0.9192
1966	0.9213
1956	0.9237
1946	0.9251
1936	0.9263
1926	0.9284
1916	0.9345
1906	0.9392
1896	0.9403
1886	0.9397
1876	0.9388
1866	0.938
1856	0.9371
1846	0.938
1836	0.9403
1826	0.9425
1816	0.9438
1806	0.9428
1796	0.9371
1786	0.9402
1776	0.9393
1766	0.935
1756	0.9318
1746	0.9283
1736	0.9234
1726	0.9183
1716	0.9091
1706	0.8949
1696	0.8817
1686	0.8686
1676	0.8333
1666	0.7837
1656	0.728
1646	0.6348
1636	0.4462
1626	0.3224
1616	0.2496
1606	0.2782
1596	0.2449
1586	0.1617
1576	0.2242
1566	0.2528
1556	0.2962
1546	0.4443
1536	0.4999
1526	0.3592
1516	0.2003
1506	0.2427
1496	0.3952
1486	0.4866
1476	0.5267
1466	0.4262
1456	0.4115
1446	0.4477
1436	0.541
1426	0.3822
1416	0.3276
1406	0.36
1396	0.5815
1386	0.6076
1376	0.5476
1366	0.5474
1356	0.3888
1346	0.5376
1336	0.6082
1326	0.5156
1316	0.4571
1306	0.7301
1296	0.7831
1286	0.7897
1276	0.7501
1266	0.7556
1256	0.8131
1246	0.6219
1236	0.7537
1226	0.836
1216	0.8593
1206	0.8664
1196	0.8556
1186	0.7949
1176	0.7928
1166	0.8118
1156	0.7317
1146	0.7432
1136	0.8216
1126	0.7971
1116	0.809
1106	0.8643
1096	0.8904
1086	0.8871
1076	0.8611
1066	0.8658
1056	0.8928
1046	0.9001
1036	0.8787
1026	0.85
1016	0.8798
1006	0.8466
996	0.8411
986	0.78
976	0.8201
966	0.8497
956	0.8237
946	0.8437
936	0.885
926	0.89
916	0.8932
906	0.9118
896	0.9171
886	0.8625
876	0.743
866	0.8489
856	0.898
846	0.9197
836	0.9311
826	0.9345
816	0.92
806	0.8099
796	0.8871
786	0.9128
776	0.9168
766	0.8767
756	0.8898
746	0.8521
736	0.8983
726	0.9013
716	0.8798
706	0.8617
696	0.9206
686	0.8948
676	0.8714
666	0.884
656	0.7838
646	0.8044
636	0.8689
626	0.8915
616	0.9309
606	0.9359
596	0.9347
586	0.9335
576	0.9284
566	0.9141
556	0.8368
546	0.5144
536	0.6282
526	0.8359
516	0.88
506	0.8883
496	0.8889
486	0.8977
476	0.8957
466	0.8816
456	0.856
446	0.7768
436	0.7797
426	0.671
416	0.5333
406	0.6206
396	0.7112
386	0.6581
376	0.5757
366	0.426
356	0.4
346	0.3444
336	0.2584
326	0.2507
316	0.2087
