Infrared Spectrum: 1,4-Dichloro-2-fluorobenzene
Formula: C 6 H 3 Cl 2 F
CAS: 348-59-4
State: gas
Origin: EPA-IR VAPOR PHASE LIBRARY
1/CM	ABSORBANCE
549.8	0.008624
559.445	0.007734
569.09	0.011824
578.734	0.033854
588.379	0.074824
598.024	0.050704
607.669	0.009314
617.313	0.004694
626.958	0.0016546
636.603	0.0014105
646.248	0.001718
655.893	0.002164
665.537	0.002064
675.182	0.0018499
684.827	0.002674
694.472	0.005054
704.116	0.009524
713.761	0.005664
723.406	0.0012273
733.051	0.0013806
742.695	0.0015895
752.34	0.0013519
761.985	0.0012866
771.63	0.002814
781.275	0.006814
790.919	0.017414
800.564	0.034144
810.209	0.041444
819.854	0.022174
829.498	0.007044
839.143	0.008604
848.788	0.026314
858.433	0.051484
868.078	0.034524
877.722	0.026744
887.367	0.042124
897.012	0.106564
906.657	0.099774
916.301	0.025944
925.946	0.009034
935.591	0.003424
945.236	0.002544
954.88	0.0018633
964.525	0.0016177
974.17	0.0016575
983.815	0.0012651
993.46	0.002094
1003.1	0.0018811
1012.75	0.002424
1022.39	0.004724
1032.04	0.004784
1041.68	0.006404
1051.33	0.009954
1060.97	0.023404
1070.62	0.033214
1080.26	0.110584
1089.91	0.140364
1099.55	0.034054
1109.2	0.013824
1118.84	0.020394
1128.49	0.037914
1138.13	0.033804
1147.78	0.011884
1157.42	0.010634
1167.07	0.008124
1176.71	0.004404
1186.36	0.003254
1196	0.003814
1205.64	0.007604
1215.29	0.019354
1224.93	0.032664
1234.58	0.038854
1244.22	0.037894
1253.87	0.032494
1263.51	0.029854
1273.16	0.027774
1282.8	0.016514
1292.45	0.005024
1302.09	0.002374
1311.74	0.002074
1321.38	0.002214
1331.03	0.002084
1340.67	0.002064
1350.32	0.002864
1359.96	0.004844
1369.61	0.011284
1379.25	0.020334
1388.9	0.030204
1398.54	0.047814
1408.18	0.049894
1417.83	0.033504
1427.47	0.021164
1437.12	0.038944
1446.76	0.037144
1456.41	0.027374
1466.05	0.086914
1475.7	0.240864
1485.34	0.215534
1494.99	0.060544
1504.63	0.021144
1514.28	0.014724
1523.92	0.013294
1533.57	0.007424
1543.21	0.006234
1552.86	0.011054
1562.5	0.029544
1572.15	0.064354
1581.79	0.098944
1591.44	0.070464
1601.08	0.023824
1610.73	0.012804
1620.37	0.010244
1630.01	0.004654
1639.66	0.002714
1649.3	0.002544
1658.95	0.002924
1668.59	0.002624
1678.24	0.002824
1687.88	0.003144
1697.53	0.003054
1707.17	0.004604
1716.82	0.005634
1726.46	0.005034
1736.11	0.003524
1745.75	0.002414
1755.4	0.0016943
1765.04	0.0013714
1774.69	0.0019132
1784.33	0.002634
1793.98	0.003164
1803.62	0.002294
1813.27	0.0016606
1822.91	0.0014642
1832.55	0.0014209
1842.2	0.0015527
1851.84	0.002014
1861.49	0.003174
1871.13	0.004074
1880.78	0.003564
1890.42	0.002314
1900.07	0.0015288
1909.71	0.0011328
1919.36	0.0011343
1929	0.0011699
1938.65	0.0011454
1948.29	0.0013299
1957.94	0.0012365
1967.58	0.0014277
1977.23	0.0011179
1986.87	0.0013896
1996.52	0.00098285
2006.16	0.0012151
2015.81	0.00094526
2025.45	0.0012451
2035.1	0.0011444
2044.74	0.00101003
2054.38	0.000772
2064.03	0.0010359
2073.67	0.00094013
2083.32	0.0009105
2092.96	0.0011441
2102.61	0.0010563
2112.25	0.0014022
2121.9	0.001362
2131.54	0.0015632
2141.19	0.0016238
2150.83	0.0011867
2160.48	0.0015046
2170.12	0.0018567
2179.77	0.002194
2189.41	0.002004
2199.06	0.0011682
2208.7	0.0016678
2218.35	0.0010291
2227.99	0.00091698
2237.64	0.0008743
2247.28	0.00102305
2256.92	0.00097686
2266.57	0.0018247
2276.21	0.001483
2285.86	0.0018689
2295.5	0.0017709
2305.15	0.0014928
2314.79	0.0016157
2324.44	0.0014808
2334.08	0.0012668
2343.73	0.0013553
2353.37	0.0015414
2363.02	0.0014192
2372.66	0.0013204
2382.31	0.001423
2391.95	0.0011735
2401.6	0.0013569
2411.24	0.0008467
2420.89	0.0010277
2430.53	0.0011521
2440.18	0.001167
2449.82	0.0013951
2459.47	0.0015137
2469.11	0.0019086
2478.75	0.002384
2488.4	0.002364
2498.04	0.002514
2507.69	0.002274
2517.33	0.002184
2526.98	0.0018172
2536.62	0.0015707
2546.27	0.001304
2555.91	0.0010561
2565.56	0.0014001
2575.2	0.0008947
2584.85	0.000821
2594.49	0.00099858
2604.14	0.001176
2613.78	0.0010446
2623.43	0.0011329
2633.07	0.0011343
2642.72	0.0013333
2652.36	0.0016714
2662.01	0.0018577
2671.65	0.002084
2681.29	0.0017813
2690.94	0.0016883
2700.58	0.0014293
2710.23	0.002054
2719.87	0.0017562
2729.52	0.0012939
2739.16	0.001213
2748.81	0.0015622
2758.45	0.0010894
2768.1	0.0008583
2777.74	0.0014651
2787.39	0.0012295
2797.03	0.0016664
2806.68	0.001335
2816.32	0.001671
2825.97	0.0017316
2835.61	0.0013849
2845.26	0.0017616
2854.9	0.0012677
2864.55	0.000772
2874.19	0.0010611
2883.84	0.0011725
2893.48	0.000818
2903.12	0.000692
2912.77	0.000389
2922.41	0.000608
2932.06	0.000924841
2941.7	0.0013347
2951.35	0.0011826
2960.99	0.000685
2970.64	0.000684
2980.28	0.000482
2989.93	0.0014957
2999.57	0.0012578
3009.22	0.000794
3018.86	0.00077
3028.51	0.00095627
3038.15	0.00095494
3047.8	0.0012759
3057.44	0.0011434
3067.09	0.0018849
3076.73	0.003304
3086.38	0.003204
3096.02	0.002244
3105.67	0.0017046
3115.31	0.00095385
3124.95	0.0014492
3134.6	0.0010251
3144.24	0.00047
3153.89	0.0011947
3163.53	0.000651
3173.18	0.0010117
3182.82	0.0010752
3192.47	0.00094139
3202.11	0.0012774
3211.76	0.0010273
3221.4	0.0008428
3231.05	0.0011332
3240.69	0.0009568
3250.34	0.0008733
3259.98	0.00059
3269.63	0.00101738
3279.27	0.00095637
3288.92	0.00132
3298.56	0.000328
3308.21	0.00049
3317.85	0.000658
3327.49	0.00023
3337.14	0.0011614
3346.78	0.00058
3356.43	0.000746
3366.07	2e-06
3375.72	0.00078
3385.36	0.00076
3395.01	0.0010642
3404.65	0.001481
3414.3	0.0013456
3423.94	0.000823
3433.59	0.0010444
3443.23	0.0010815
3452.88	0.00098218
3462.52	0.00061
3472.17	0.000232
3481.81	0.00054
3491.46	0.000646
3501.1	0.00013
3510.75	0.0008575
3520.39	0.0009366
3530.04	0.0008954
3539.68	0.000354
3549.32	0.00091772
3558.97	0.001191
3568.61	0.000824
3578.26	0.0012405
3587.9	0.00099136
3597.55	0.000806
3607.19	0.000208
3616.84	0.000735
3626.48	0.0005
3636.13	0.0008322
3645.77	0.0010943
3655.42	0.000809
3665.06	0.0012419
3674.71	0.000751
3684.35	0.00092558
3694	0.00101099
3703.64	0.001178
3713.29	0.000703
3722.93	0.000556
3732.58	0.00097851
3742.22	0.001295
3751.86	0.000819
3761.51	0.00099854
3771.15	0.001035
3780.8	0.00077
3790.44	0.0012438
3800.09	0.000714
3809.73	0.000798
3819.38	0.0011469
3829.02	0.000148
3838.67	0.000252
3848.31	0.000309
3857.96	0.00098768
3867.6	0.00096698
3877.25	0.0008904
3886.89	0.0008562
3896.54	0.000796
3906.18	0.0010304
3915.83	0.000507
3925.47	0.0013296
3935.12	0.0016822
3944.76	0.000666
3954.41	0.000469
3964.05	0.00076
3973.69	0.000661
3983.34	0.0010994
3992.98	0.0008909
