Infrared Spectrum: N-(2-Pyridyl)piperazine
Formula: C 9 H 13 N 3
CAS: 34803-66-2
State: gas
Origin: EPA-IR VAPOR PHASE LIBRARY
1/CM	ABSORBANCE
549.9	0.0009788
559.547	0.0009683
569.193	0.0009662
578.84	0.0009582
588.486	0.0009508
598.133	0.0010273
607.779	0.0012796
617.426	0.00154
627.072	0.00161
636.719	0.00146
646.365	0.000951
656.012	0.0008385
665.658	0.0009349
675.305	0.0011416
684.951	0.0014157
694.598	0.00171
704.245	0.00213
713.891	0.00356
723.538	0.00586
733.184	0.00725
742.831	0.00638
752.477	0.00849
762.124	0.01197
771.77	0.01235
781.417	0.00741
791.063	0.00335
800.71	0.00175
810.356	0.0012987
820.003	0.0010406
829.649	0.0010094
839.296	0.0009187
848.943	0.0010722
858.589	0.0013149
868.236	0.0016
877.882	0.0013305
887.529	0.0008192
897.175	0.0008213
906.822	0.0009387
916.468	0.0011951
926.115	0.002
935.761	0.00476
945.408	0.00682
955.054	0.00368
964.701	0.00196
974.347	0.00515
983.994	0.00585
993.64	0.00187
1003.29	0.001216
1012.93	0.0013833
1022.58	0.00169
1032.23	0.0019
1041.87	0.00271
1051.52	0.0032
1061.17	0.00216
1070.81	0.0011302
1080.46	0.0010579
1090.11	0.00166
1099.75	0.00217
1109.4	0.00263
1119.05	0.00309
1128.69	0.00397
1138.34	0.00488
1147.99	0.00555
1157.63	0.00506
1167.28	0.00301
1176.92	0.00194
1186.57	0.00171
1196.22	0.00154
1205.86	0.00203
1215.51	0.00315
1225.16	0.00779
1234.8	0.01975
1244.45	0.02578
1254.1	0.01421
1263.74	0.00697
1273.39	0.00551
1283.04	0.00471
1292.68	0.00435
1302.33	0.00659
1311.98	0.00836
1321.62	0.00632
1331.27	0.00484
1340.92	0.0038
1350.56	0.00376
1360.21	0.00477
1369.86	0.00724
1379.5	0.008
1389.15	0.00513
1398.79	0.00305
1408.44	0.00278
1418.09	0.00501
1427.73	0.01612
1437.38	0.02749
1447.03	0.01931
1456.67	0.01339
1466.32	0.01804
1475.97	0.03095
1485.61	0.02758
1495.26	0.01288
1504.91	0.00631
1514.55	0.0037
1524.2	0.0028
1533.85	0.00284
1543.49	0.0038
1553.14	0.00593
1562.79	0.00855
1572.43	0.01157
1582.08	0.02271
1591.73	0.03359
1601.37	0.02386
1611.02	0.01102
1620.67	0.00468
1630.31	0.00243
1639.96	0.00172
1649.6	0.0013897
1659.25	0.001267
1668.9	0.0012071
1678.54	0.0011636
1688.19	0.0010662
1697.84	0.0009288
1707.48	0.0010565
1717.13	0.0012195
1726.78	0.0011402
1736.42	0.0007921
1746.07	0.0006656
1755.72	0.00056266
1765.36	0.0004688
1775.01	0.00041
1784.66	0.000484651
1794.3	0.00050534
1803.95	0.00051925
1813.6	0.00049627
1823.24	0.0004262
1832.89	0.000361
1842.54	0.000369
1852.18	0.000362
1861.83	0.000379
1871.47	0.000365
1881.12	0.0004541
1890.77	0.0006292
1900.41	0.0007073
1910.06	0.000678
1919.71	0.0006936
1929.35	0.000687
1939	0.0006455
1948.65	0.00050481
1958.29	0.0003996
1967.94	0.0004445
1977.59	0.0004633
1987.23	0.00051143
1996.88	0.00049129
2006.53	0.0004049
2016.17	0.0004037
2025.82	0.00036
2035.47	0.000349
2045.11	0.000344
2054.76	0.000333
2064.41	0.000364
2074.05	0.000343
2083.7	0.000378
2093.35	0.000388
2102.99	0.000386
2112.64	0.000369
2122.28	0.000328
2131.93	0.000372
2141.58	0.000296
2151.22	0.000332
2160.87	0.000329
2170.52	0.000358
2180.16	0.0004256
2189.81	0.000412
2199.46	0.0004082
2209.1	0.0004638
2218.75	0.00049288
2228.4	0.0004661
2238.04	0.0004313
2247.69	0.0004212
2257.34	0.0004123
2266.98	0.000325
2276.63	0.000374
2286.28	0.00037
2295.92	0.0004196
2305.57	0.000449
2315.22	0.00051946
2324.86	0.00057978
2334.51	0.00055182
2344.16	0.000479301
2353.8	0.00051009
2363.45	0.00052442
2373.09	0.0004492
2382.74	0.0004143
2392.39	0.0004352
2402.03	0.0004257
2411.68	0.0003941
2421.33	0.000453
2430.97	0.0004437
2440.62	0.000368
2450.27	0.0004572
2459.91	0.00051727
2469.56	0.00056705
2479.21	0.00056622
2488.85	0.0006004
2498.5	0.0006031
2508.15	0.0006206
2517.79	0.00053883
2527.44	0.0006328
2537.09	0.00055088
2546.73	0.00053043
2556.38	0.000481722
2566.03	0.00050761
2575.67	0.00055178
2585.32	0.00057041
2594.96	0.0005839
2604.61	0.0006344
2614.26	0.0006631
2623.9	0.0007105
2633.55	0.0007772
2643.2	0.0007731
2652.84	0.0008249
2662.49	0.0009327
2672.14	0.0010872
2681.78	0.0012123
2691.43	0.0012012
2701.08	0.0011707
2710.72	0.0012398
2720.37	0.00141
2730.02	0.00168
2739.66	0.00205
2749.31	0.00201
2758.96	0.00179
2768.6	0.00183
2778.25	0.00225
2787.9	0.00315
2797.54	0.00482
2807.19	0.00672
2816.84	0.00855
2826.48	0.01026
2836.13	0.01032
2845.77	0.00926
2855.42	0.00808
2865.07	0.00663
2874.71	0.00544
2884.36	0.00506
2894.01	0.00545
2903.65	0.00592
2913.3	0.00687
2922.95	0.0074
2932.59	0.00726
2942.24	0.01098
2951.89	0.01429
2961.53	0.00942
2971.18	0.0043
2980.83	0.00345
2990.47	0.00348
3000.12	0.00366
3009.77	0.00434
3019.41	0.00426
3029.06	0.00339
3038.71	0.00266
3048.35	0.00267
3058	0.0026
3067.64	0.00283
3077.29	0.0035
3086.94	0.00314
3096.58	0.00275
3106.23	0.00193
3115.88	0.0009014
3125.52	0.0005893
3135.17	0.00054257
3144.82	0.000369
3154.46	0.000396
3164.11	0.000322
3173.76	0.000263
3183.4	0.000201
3193.05	0.000175
3202.7	0.000295
3212.34	0.000199
3221.99	0.000143
3231.64	0.000158
3241.28	6.9e-05
3250.93	5.6e-05
3260.58	7.4e-05
3270.22	9.1e-05
3279.87	0.000106
3289.52	0.000115
3299.16	0.000101
3308.81	0.000123
3318.45	0.000229
3328.1	0.00024
3337.75	0.0002
3347.39	0.000193
3357.04	9.1e-05
3366.69	0.000164
3376.33	0.000211
3385.98	0.000173
3395.63	0.000106
3405.27	0.000198
3414.92	0.000326
3424.57	0.000288
3434.21	0.00013
3443.86	0.000128
3453.51	0.000135
3463.15	0.000264
3472.8	0.000233
3482.45	8.5e-05
3492.09	0.000295
3501.74	0.000183
3511.39	0.000233
3521.03	0.000245
3530.68	0.000198
3540.33	0.000251
3549.97	0.000153
3559.62	0.000218
3569.26	0.000221
3578.91	0.000225
3588.56	0.000259
3598.2	0.000229
3607.85	0.000174
3617.5	0.000226
3627.14	0.000175
3636.79	0.000172
3646.44	0.000272
3656.08	0.000153
3665.73	0.000184
3675.38	0.000233
3685.02	0.000222
3694.67	0.000232
3704.32	0.000204
3713.96	0.000225
3723.61	0.000262
3733.26	0.000298
3742.9	0.000169
3752.55	0.000263
3762.2	0.000284
3771.84	0.000248
3781.49	0.000239
3791.13	0.000335
3800.78	0.000308
3810.43	0.000355
3820.07	0.000274
3829.72	0.000275
3839.37	0.000294
3849.01	0.00025
3858.66	0.000322
3868.31	0.000334
3877.95	0.000267
3887.6	0.0004446
3897.25	0.000258
3906.89	0.000341
3916.54	0.000321
3926.19	0.000196
3935.83	0.000337
3945.48	0.000361
3955.13	0.000292
3964.77	0.000376
3974.42	0.000407
3984.07	0.000337
3993.71	0.0003909
