Infrared Spectrum: 1-Naphthaleneacethydrazide
Formula: C 12 H 12 N 2 O
CAS: 34800-90-3
State: gas
Origin: EPA-IR VAPOR PHASE LIBRARY
1/CM	ABSORBANCE
549.8	0.002906
559.445	0.002376
569.09	0.002506
578.735	0.002496
588.38	0.002546
598.025	0.002236
607.67	0.002266
617.315	0.002726
626.96	0.003806
636.605	0.003086
646.251	0.002776
655.896	0.002306
665.541	0.001976
675.186	0.001926
684.831	0.001966
694.476	0.002286
704.121	0.002236
713.766	0.002626
723.411	0.003566
733.056	0.003596
742.701	0.002686
752.346	0.003406
761.991	0.009906
771.636	0.029616
781.281	0.034326
790.926	0.017846
800.571	0.009346
810.216	0.004736
819.861	0.003306
829.507	0.003506
839.152	0.004126
848.797	0.004786
858.442	0.005266
868.087	0.004726
877.732	0.004296
887.377	0.005056
897.022	0.005206
906.667	0.004676
916.312	0.004226
925.957	0.003966
935.602	0.003796
945.247	0.004026
954.892	0.004446
964.537	0.006266
974.182	0.008856
983.827	0.010366
993.472	0.007776
1003.12	0.004896
1012.76	0.005066
1022.41	0.004306
1032.05	0.002306
1041.7	0.0016505
1051.34	0.0012917
1060.99	0.0013245
1070.63	0.001826
1080.28	0.002156
1089.92	0.0013865
1099.57	0.0012682
1109.21	0.0013147
1118.86	0.0012333
1128.5	0.0011187
1138.15	0.0012428
1147.79	0.0014648
1157.44	0.001916
1167.08	0.002736
1176.73	0.003016
1186.37	0.003566
1196.02	0.003796
1205.66	0.004456
1215.31	0.005366
1224.95	0.005666
1234.6	0.006076
1244.24	0.007066
1253.89	0.008606
1263.53	0.009226
1273.18	0.008466
1282.82	0.007076
1292.47	0.005666
1302.11	0.004766
1311.76	0.004266
1321.4	0.003986
1331.05	0.003566
1340.69	0.003076
1350.34	0.002726
1359.98	0.002466
1369.63	0.002446
1379.27	0.002926
1388.92	0.005016
1398.56	0.007546
1408.21	0.005956
1417.85	0.008396
1427.5	0.014686
1437.14	0.020646
1446.79	0.021386
1456.43	0.019116
1466.08	0.017546
1475.73	0.015066
1485.37	0.011296
1495.02	0.009226
1504.66	0.009726
1514.31	0.008366
1523.95	0.004906
1533.6	0.003226
1543.24	0.002396
1552.89	0.002106
1562.53	0.002146
1572.18	0.002856
1581.82	0.003846
1591.47	0.005456
1601.11	0.006186
1610.76	0.005896
1620.4	0.008536
1630.05	0.012186
1639.69	0.012246
1649.34	0.008736
1658.98	0.007776
1668.63	0.009486
1678.27	0.012916
1687.92	0.019796
1697.56	0.043916
1707.21	0.070306
1716.85	0.039056
1726.5	0.021816
1736.14	0.014536
1745.79	0.007536
1755.43	0.004116
1765.08	0.002846
1774.72	0.002066
1784.37	0.0016833
1794.01	0.001766
1803.66	0.001866
1813.3	0.0015743
1822.95	0.0013709
1832.59	0.0012821
1842.24	0.0012311
1851.88	0.0013086
1861.53	0.0013315
1871.17	0.0010825
1880.82	0.0008224
1890.46	0.0008984
1900.11	0.0011017
1909.75	0.0015116
1919.4	0.001856
1929.04	0.001786
1938.69	0.0015657
1948.33	0.0012973
1957.98	0.0008286
1967.62	0.000528
1977.27	0.000472
1986.91	0.000462
1996.56	0.000453
2006.2	0.000446
2015.85	0.000498
2025.49	0.000473
2035.14	0.000486
2044.78	0.000486
2054.43	0.000516
2064.07	0.000461
2073.72	0.000553
2083.36	0.000515
2093.01	0.000538
2102.65	0.000545
2112.3	0.000534
2121.94	0.000481
2131.59	0.000493
2141.23	0.000432
2150.88	0.000417
2160.52	0.00048
2170.17	0.000452
2179.81	0.000449
2189.46	0.00051
2199.1	0.000521
2208.75	0.000533
2218.39	0.000489
2228.04	0.000555
2237.68	0.000585
2247.33	0.000542
2256.97	0.000552
2266.62	0.0006262
2276.26	0.000592
2285.91	0.0006558
2295.55	0.0006418
2305.2	0.0006769
2314.84	0.0006843
2324.49	0.0006668
2334.13	0.00078644
2343.78	0.00072886
2353.42	0.0007039
2363.07	0.00066
2372.72	0.0006367
2382.36	0.000595
2392.01	0.000529
2401.65	0.0006752
2411.3	0.000554
2420.94	0.000574
2430.59	0.000578
2440.23	0.000552
2449.88	0.000598
2459.52	0.00055
2469.17	0.000506
2478.81	0.000538
2488.46	0.000564
2498.1	0.00057
2507.75	0.000606
2517.39	0.000587
2527.04	0.000581
2536.68	0.000552
2546.33	0.000548
2555.97	0.000588
2565.62	0.0006505
2575.26	0.0006422
2584.91	0.000638
2594.55	0.0006563
2604.2	0.0006603
2613.84	0.000603
2623.49	0.000606
2633.13	0.00071778
2642.78	0.000596
2652.42	0.0006247
2662.07	0.0006621
2671.71	0.00062
2681.36	0.0006321
2691	0.00076181
2700.65	0.0006605
2710.29	0.0008155
2719.94	0.00075125
2729.58	0.000719258
2739.23	0.0006828
2748.87	0.0006991
2758.52	0.000722715
2768.16	0.0006697
2777.81	0.000664
2787.45	0.00074057
2797.1	0.000721236
2806.74	0.0008226
2816.39	0.0007328
2826.03	0.0007651
2835.68	0.0009606
2845.32	0.0010334
2854.97	0.0009197
2864.61	0.0010046
2874.26	0.0010278
2883.9	0.0010161
2893.55	0.0011854
2903.19	0.001402
2912.84	0.001896
2922.48	0.002816
2932.13	0.004206
2941.77	0.004136
2951.42	0.003266
2961.06	0.002816
2970.71	0.002476
2980.35	0.002216
2990	0.001996
2999.64	0.002566
3009.29	0.003566
3018.93	0.003886
3028.58	0.004296
3038.22	0.006656
3047.87	0.011316
3057.51	0.014446
3067.16	0.016266
3076.8	0.011226
3086.45	0.007206
3096.09	0.005036
3105.74	0.002896
3115.38	0.0012584
3125.03	0.00079673
3134.67	0.00071317
3144.32	0.000412
3153.96	0.000589
3163.61	0.000601
3173.25	0.0006171
3182.9	0.0006469
3192.54	0.0008824
3202.19	0.0008276
3211.83	0.00079099
3221.48	0.0008438
3231.12	0.00074935
3240.77	0.000417
3250.41	0.000349
3260.06	0.000377
3269.7	0.000365
3279.35	0.00051
3289	0.000447
3298.64	0.0006486
3308.29	0.0006306
3317.93	0.00043
3327.58	0.000486
3337.22	0.000555
3346.87	0.0006734
3356.51	0.000603
3366.16	0.000531
3375.8	0.000533
3385.45	0.0008568
3395.09	0.0013135
3404.74	0.0013539
3414.38	0.0014046
3424.03	0.001926
3433.67	0.003416
3443.32	0.005176
3452.96	0.006936
3462.61	0.007116
3472.25	0.005046
3481.9	0.003246
3491.54	0.002126
3501.19	0.001226
3510.83	0.00079323
3520.48	0.0006425
3530.12	0.000533
3539.77	0.000218
3549.41	0.000327
3559.06	0.000244
3568.7	0.000277
3578.35	0.000237
3587.99	0.000273
3597.64	0.000129
3607.28	0.000252
3616.93	7e-06
3626.57	0.000218
3636.22	5.8e-05
3645.86	9.5e-05
3655.51	0
3665.15	7.1e-05
3674.8	0.000372
3684.44	0.000204
3694.09	0.000179
3703.73	6.2e-05
3713.38	6e-05
3723.02	0.000272
3732.67	0.000202
3742.31	0.000216
3751.96	0.000475
3761.6	0.000388
3771.25	0.000184
3780.89	0.000215
3790.54	0.000287
3800.18	0.000386
3809.83	0.00036
3819.47	0.000375
3829.12	0.000397
3838.76	0.000457
3848.41	0.000513
3858.05	0.000404
3867.7	0.000425
3877.34	0.000234
3886.99	0.000273
3896.63	0.000463
3906.28	0.000435
3915.92	0.000447
3925.57	0.000263
3935.21	0.000563
3944.86	0.000369
3954.5	0.000313
3964.15	0.000299
3973.79	0.000339
3983.44	0.000313
3993.08	0.000565
