Infrared Spectrum: PHTHALIMIDE, N-CHLORO-
Formula: C8 H4 Cl N O2
CAS: 3481-09-2
State: SOLUTION (SATURATED IN CCl4 FOR 3800-1333, SATURATED IN CS2 FOR 1333-450 CM^-^1)
Class: COBLENTZ
Instrument: DOW KBr FOREPRISM-GRATING
Instrument parameters: BLAZED AT 3.5, 12.0, 20.0 MICRON, CHANGED AT 5.0, 7.5, 14.9 MICRON
Sampling: TRANSMISSION
Path length: 0.011, 0.011 CM
Resolution: 4
Origin: DOW CHEMICAL COMPANY
1/CM	TRANSMITTANCE
452.312	0.969
460.983	0.971
469.653	0.975
478.324	0.979
486.994	0.981
495.665	0.986
504.335	0.989
513.006	0.986
521.676	0.986
530.347	1.004
539.017	1.004
547.688	1.004
556.359	1.005
565.029	1.005
573.7	1.002
582.37	1.002
591.041	0.997
599.711	0.995
608.382	0.991
617.052	0.987
625.723	0.978
634.393	0.959
643.064	0.938
651.735	0.932
660.405	0.951
669.076	0.96
677.746	0.942
686.417	0.928
695.087	0.796
703.758	0.938
712.428	0.94
721.099	0.959
729.769	0.966
738.44	0.97
747.11	0.973
755.781	0.973
764.452	0.973
773.122	0.966
781.793	0.951
790.463	0.962
799.134	0.964
807.804	0.962
816.475	0.964
825.145	0.962
833.816	0.942
842.486	0.885
851.157	0.776
859.828	0.757
868.498	0.8
877.169	0.884
885.839	0.929
894.51	0.963
903.18	0.974
911.851	0.978
920.521	0.979
929.192	0.981
937.862	0.983
946.533	0.982
955.204	0.982
963.874	0.985
972.545	0.986
981.215	0.987
989.886	0.986
998.556	0.985
1007.23	0.982
1015.9	0.979
1024.57	0.969
1033.24	0.963
1041.91	0.946
1050.58	0.924
1059.25	0.847
1067.92	0.849
1076.59	0.958
1085.26	0.954
1093.93	0.962
1102.6	0.963
1111.27	0.983
1119.94	0.993
1128.61	0.993
1137.28	0.987
1145.96	0.985
1154.63	0.987
1163.3	0.985
1171.97	0.985
1180.64	0.978
1189.31	0.99
1197.98	0.993
1206.65	0.994
1215.32	0.994
1223.99	0.995
1232.66	0.995
1241.33	0.982
1250	0.973
1258.67	0.962
1267.34	0.964
1276.01	0.958
1284.68	0.845
1293.35	0.866
1302.03	0.958
1310.7	0.971
1319.37	0.971
1328.04	0.964
1336.71	0.927
1345.38	0.927
1354.05	0.938
1362.72	0.923
1371.39	0.938
1380.06	0.963
1388.73	0.964
1397.4	0.964
1406.07	0.964
1414.74	0.967
1423.41	0.969
1432.08	0.963
1440.75	0.959
1449.42	0.955
1458.1	0.95
1466.77	0.923
1475.44	0.943
1484.11	0.921
1492.78	0.886
1501.45	0.831
1510.12	0.78
1518.79	0.735
1527.46	0.69
1536.13	0.603
1544.8	0.509
1553.47	0.502
1562.14	0.575
1570.81	0.654
1579.48	0.683
1588.15	0.708
1596.82	0.783
1605.49	0.87
1614.16	0.915
1622.84	0.95
1631.51	0.97
1640.18	0.983
1648.85	0.985
1657.52	0.978
1666.19	0.973
1674.86	0.973
1683.53	0.973
1692.2	0.966
1700.87	0.964
1709.54	0.947
1718.21	0.8669
1726.88	0.862
1735.55	0.916
1744.22	0.8589
1752.89	0.671
1761.56	0.338
1770.23	0.912
1778.91	0.952
1787.58	0.952
1796.25	0.956
1804.92	0.948
1813.59	0.971
1822.26	0.982
1830.93	0.981
1839.6	0.983
1848.27	0.981
1856.94	0.979
1865.61	0.981
1874.28	0.982
1882.95	0.983
1891.62	0.983
1900.29	0.983
1908.96	0.982
1917.63	0.982
1926.3	0.983
1934.97	0.982
1943.65	0.982
1952.32	0.982
1960.99	0.982
1969.66	0.982
1978.33	0.979
1987	0.977
1995.67	0.977
2004.34	1.0085
2013.01	1.009
2021.68	1.01
2030.35	1.01
2039.02	1.008
2047.69	1.008
2056.36	1.009
2065.03	1.009
2073.7	1.009
2082.37	1.008
2091.04	1.008
2099.72	1.009
2108.39	1.008
2117.06	1.006
2125.73	1.006
2134.4	1.005
2143.07	1.004
2151.74	1.002
2160.41	1.002
2169.08	1.001
2177.75	1.001
2186.42	1
2195.09	0.998
2203.76	0.998
2212.43	0.998
2221.1	0.9972
2229.77	0.995
2238.44	0.995
2247.11	0.9916
2255.79	0.9892
2264.46	0.9852
2273.13	0.9795
2281.8	0.9742
2290.47	0.9738
2299.14	0.974
2307.81	0.974
2316.48	0.975
2325.15	0.9771
2333.82	0.9829
2342.49	0.985
2351.16	0.983
2359.83	0.983
2368.5	0.9817
2377.17	0.986
2385.84	0.987
2394.51	0.989
2403.18	0.99
2411.85	0.99
2420.53	0.989
2429.2	0.989
2437.87	0.99
2446.54	0.989
2455.21	0.99
2463.88	0.99
2472.55	0.989
2481.22	0.989
2489.89	0.989
2498.56	0.986
2507.23	0.986
2515.9	0.9872
2524.57	0.9888
2533.24	0.987
2541.91	0.987
2550.58	0.9859
2559.25	0.985
2567.92	0.985
2576.6	0.985
2585.27	0.985
2593.94	0.985
2602.61	0.983
2611.28	0.982
2619.95	0.981
2628.62	0.979
2637.29	0.979
2645.96	0.978
2654.63	0.979
2663.3	0.979
2671.97	0.981
2680.64	0.981
2689.31	0.979
2697.98	0.979
2706.65	0.978
2715.32	0.978
2723.99	0.9774
2732.66	0.9784
2741.34	0.9778
2750.01	0.978
2758.68	0.977
2767.35	0.9744
2776.02	0.977
2784.69	0.9757
2793.36	0.975
2802.03	0.9745
2810.7	0.975
2819.37	0.975
2828.04	0.9735
2836.71	0.977
2845.38	0.973
2854.05	0.9705
2862.72	0.974
2871.39	0.975
2880.06	0.9759
2888.73	0.975
2897.41	0.975
2906.08	0.975
2914.75	0.9687
2923.42	0.9682
2932.09	0.9718
2940.76	0.971
2949.43	0.969
2958.1	0.966
2966.77	0.966
2975.44	0.9707
2984.11	0.971
2992.78	0.97
3001.45	0.9716
3010.12	0.973
3018.79	0.97
3027.46	0.9716
3036.13	0.971
3044.8	0.969
3053.48	0.9707
3062.15	0.971
3070.82	0.971
3079.49	0.971
3088.16	0.971
3096.83	0.973
3105.5	0.9748
3114.17	0.9765
3122.84	0.975
3131.51	0.977
3140.18	0.977
3148.85	0.979
3157.52	0.978
3166.19	0.981
3174.86	0.9829
3183.53	0.985
3192.2	0.985
3200.87	0.985
3209.54	0.9859
3218.22	0.985
3226.89	0.989
3235.56	0.989
3244.23	0.987
3252.9	0.989
3261.57	0.989
3270.24	0.99
3278.91	0.99
3287.58	0.993
3296.25	0.994
3304.92	0.993
3313.59	0.99
3322.26	0.99
3330.93	0.989
3339.6	0.99
3348.27	0.9901
3356.94	0.9912
3365.61	0.993
3374.29	0.994
3382.96	0.995
3391.63	0.994
3400.3	0.994
3408.97	0.994
3417.64	0.994
3426.31	0.993
3434.98	0.989
3443.65	0.989
3452.32	0.9915
3460.99	0.991
3469.66	0.9932
3478.33	0.994
3487	0.995
3495.67	0.995
3504.34	0.994
3513.01	0.994
3521.68	0.994
3530.35	0.994
3539.03	0.9957
3547.7	0.998
3556.37	0.998
3565.04	0.997
3573.71	0.994
3582.38	0.9795
3591.05	0.9938
3599.72	0.997
3608.39	0.994
3617.06	0.9936
3625.73	0.9936
3634.4	0.991
3643.07	0.991
3651.74	0.9919
3660.41	0.995
3669.08	0.9935
3677.75	0.9975
3686.42	1
3695.1	1
3703.77	0.998
3712.44	0.997
3721.11	1
3729.78	1
3738.45	0.998
3747.12	0.997
3755.79	0.995
3764.46	0.997
3773.13	0.998
3781.8	0.997
3790.47	0.994
3799.14	0.9957
