Infrared Spectrum: 3-Bromo-4-methoxybenzaldehyde
Formula: C 8 H 7 Br O 2
CAS: 34841-06-0
State: gas
Origin: EPA-IR VAPOR PHASE LIBRARY
1/CM	ABSORBANCE
549.8	0.00593
559.445	0.00464
569.09	0.00335
578.735	0.00227
588.38	0.0021883
598.025	0.00404
607.67	0.01016
617.315	0.01285
626.96	0.01153
636.605	0.00929
646.251	0.00379
655.896	0.00543
665.541	0.01162
675.186	0.00863
684.831	0.01258
694.476	0.01451
704.121	0.00491
713.766	0.00259
723.411	0.00237
733.056	0.00241
742.701	0.00308
752.346	0.005
761.991	0.00749
771.636	0.00565
781.281	0.00313
790.926	0.00485
800.571	0.01198
810.216	0.01773
819.861	0.01418
829.507	0.0079
839.152	0.00469
848.797	0.00374
858.442	0.0064
868.087	0.01244
877.732	0.01686
887.377	0.01719
897.022	0.01512
906.667	0.00821
916.312	0.0032
925.957	0.0020445
935.602	0.0018612
945.247	0.0018698
954.892	0.0020415
964.537	0.00262
974.182	0.00351
983.827	0.00494
993.472	0.00776
1003.12	0.0127
1012.76	0.02177
1022.41	0.02447
1032.05	0.01793
1041.7	0.02934
1051.34	0.04694
1060.99	0.03358
1070.63	0.01087
1080.28	0.00482
1089.92	0.00327
1099.57	0.00296
1109.21	0.00322
1118.86	0.00423
1128.5	0.0077
1138.15	0.01325
1147.79	0.01528
1157.44	0.01459
1167.08	0.01981
1176.73	0.04336
1186.37	0.08852
1196.02	0.06881
1205.66	0.02217
1215.31	0.01367
1224.95	0.01357
1234.6	0.02154
1244.24	0.0452
1253.89	0.09016
1263.53	0.12908
1273.18	0.10282
1282.82	0.05452
1292.47	0.04361
1302.11	0.03931
1311.76	0.02189
1321.4	0.00945
1331.05	0.00605
1340.69	0.00569
1350.34	0.00762
1359.98	0.0156
1369.63	0.02448
1379.27	0.02095
1388.92	0.01117
1398.56	0.0079
1408.21	0.00863
1417.85	0.007
1427.5	0.00768
1437.14	0.01426
1446.79	0.01683
1456.43	0.01469
1466.08	0.01955
1475.73	0.02343
1485.37	0.04812
1495.02	0.06266
1504.66	0.02865
1514.31	0.00962
1523.95	0.0062
1533.6	0.00645
1543.24	0.00935
1552.89	0.01522
1562.53	0.02273
1572.18	0.03041
1581.82	0.04522
1591.47	0.07588
1601.11	0.05933
1610.76	0.01864
1620.4	0.00856
1630.05	0.00663
1639.69	0.00588
1649.34	0.00549
1658.98	0.005
1668.63	0.00492
1678.27	0.00646
1687.92	0.00829
1697.56	0.01676
1707.21	0.07255
1716.85	0.19525
1726.5	0.10047
1736.14	0.01834
1745.79	0.01053
1755.43	0.0075
1765.08	0.00531
1774.72	0.00416
1784.37	0.00409
1794.01	0.00391
1803.66	0.00318
1813.3	0.0027
1822.95	0.00242
1832.59	0.00238
1842.24	0.00228
1851.88	0.00238
1861.53	0.00247
1871.17	0.00227
1880.82	0.0021724
1890.46	0.00227
1900.11	0.0022326
1909.75	0.0019547
1919.4	0.0017757
1929.04	0.0016691
1938.69	0.0016818
1948.33	0.001808
1957.98	0.0017952
1967.62	0.0015853
1977.27	0.0014717
1986.91	0.0015357
1996.56	0.0016805
2006.2	0.001921
2015.85	0.00235
2025.49	0.00278
2035.14	0.00306
2044.78	0.00308
2054.43	0.00291
2064.07	0.00274
2073.72	0.00261
2083.36	0.0021968
2093.01	0.0019354
2102.65	0.0018335
2112.3	0.0016937
2121.94	0.0015699
2131.59	0.0015552
2141.23	0.0016286
2150.88	0.001671
2160.52	0.0016302
2170.17	0.0015907
2179.81	0.0015712
2189.46	0.0014829
2199.1	0.00132865
2208.75	0.00126111
2218.39	0.00127429
2228.04	0.00132913
2237.68	0.0015143
2247.33	0.0016741
2256.97	0.0018158
2266.62	0.0016538
2276.26	0.0015061
2285.91	0.0015455
2295.55	0.0015466
2305.2	0.0014949
2314.84	0.0014637
2324.49	0.0013957
2334.13	0.00125307
2343.78	0.0013358
2353.42	0.0013797
2363.07	0.0014381
2372.72	0.0016512
2382.36	0.0016033
2392.01	0.0013832
2401.65	0.0012387
2411.3	0.00126834
2420.94	0.00129892
2430.59	0.0014348
2440.23	0.0015896
2449.88	0.0016118
2459.52	0.0017038
2469.17	0.0017962
2478.81	0.0018466
2488.46	0.0019283
2498.1	0.0019284
2507.75	0.0020683
2517.39	0.00225
2527.04	0.0025
2536.68	0.00293
2546.33	0.00337
2555.97	0.00396
2565.62	0.00399
2575.26	0.00354
2584.91	0.00297
2594.55	0.0026
2604.2	0.00258
2613.84	0.00242
2623.49	0.00236
2633.13	0.00243
2642.78	0.00238
2652.42	0.00241
2662.07	0.00263
2671.71	0.00317
2681.36	0.00373
2691	0.0051
2700.65	0.00961
2710.29	0.01949
2719.94	0.024
2729.58	0.01587
2739.23	0.01132
2748.87	0.01079
2758.52	0.00987
2768.16	0.00938
2777.81	0.00999
2787.45	0.01302
2797.1	0.01806
2806.74	0.01938
2816.39	0.022
2826.03	0.02122
2835.68	0.01337
2845.32	0.01289
2854.97	0.01278
2864.61	0.00824
2874.26	0.00566
2883.9	0.00549
2893.55	0.0063
2903.19	0.00763
2912.84	0.00852
2922.48	0.00858
2932.13	0.00964
2941.77	0.01524
2951.42	0.01908
2961.06	0.01562
2970.71	0.01336
2980.35	0.00969
2990	0.0068
2999.64	0.0065
3009.29	0.00943
3018.93	0.01233
3028.58	0.00809
3038.22	0.00543
3047.87	0.0044
3057.51	0.00385
3067.16	0.00484
3076.8	0.00498
3086.45	0.00419
3096.09	0.00333
3105.74	0.00257
3115.38	0.0020846
3125.03	0.0017504
3134.67	0.0014074
3144.32	0.001003
3153.96	0.00091
3163.61	0.000826
3173.25	0.000831
3182.9	0.000818
3192.54	0.000783
3202.19	0.000539
3211.83	0.000421
3221.48	0.000441
3231.12	0.000254
3240.77	0.000269
3250.41	0.000262
3260.06	0.00016
3269.7	0.000356
3279.35	0.00017
3289	0.00016
3298.64	0.000308
3308.29	0.00024
3317.93	0.00016
3327.58	0.00018
3337.22	0.000287
3346.87	0.00012
3356.51	0.000363
3366.16	0.000356
3375.8	0.00036
3385.45	0.000446
3395.09	0.000564
3404.74	0.001414
3414.38	0.00295
3424.03	0.00255
3433.67	0.000733
3443.32	0.000269
3452.96	0.00031
3462.61	0.00012
3472.25	7e-05
3481.9	0.00016
3491.54	0.00021
3501.19	6e-05
3510.83	0.00013
3520.48	0.00024
3530.12	0.00015
3539.77	7e-05
3549.41	0.00019
3559.06	0.00012
3568.7	0.00016
3578.35	0.00019
3587.99	0.00019
3597.64	0.00012
3607.28	0.00025
3616.93	3e-05
3626.57	0.0001
3636.22	5e-05
3645.86	0.00012
3655.51	0.00027
3665.15	0.000263
3674.8	7e-05
3684.44	0.000329
3694.09	0.000307
3703.73	0.0004
3713.38	0.00047
3723.02	0.000301
3732.67	0.000353
3742.31	0.000282
3751.96	0.00022
3761.6	0.000351
3771.25	0.000436
3780.89	0.000317
3790.54	0.000414
3800.18	0.000339
3809.83	0.000309
3819.47	0.000353
3829.12	0.000495
3838.76	0.000388
3848.41	0.000458
3858.05	0.000409
3867.7	0.000334
3877.34	0.000364
3886.99	0.000504
3896.63	0.000391
3906.28	0.00045
3915.92	0.000492
3925.57	0.000635
3935.21	0.00056
3944.86	0.000563
3954.5	0.00062
3964.15	0.000597
3973.79	0.00066
3983.44	0.000712
3993.08	0.00062
