Infrared Spectrum: 3-THENYL BROMIDE
Formula: C5 H5 Br S
CAS: 34846-44-1
State: LIQUID
Class: COBLENTZ
Instrument: Not specified, most likely a prism, grating, or hybrid spectrometer.
Sampling: TRANSMISSION
Path length: 0.0106 CM
Resolution: 4
Origin: MATERIALS LAB, WPAFB, OHIO
MICROMETERS	TRANSMITTANCE
2.041	0.972
2.08184	0.981
2.12268	0.971
2.16352	0.947
2.20435	0.925
2.24519	0.868
2.28603	0.853
2.32687	0.869
2.36771	0.896
2.40855	0.893
2.44938	0.902
2.49022	0.869
2.53106	0.869
2.5719	0.927
2.61274	0.891
2.65358	0.885
2.69441	0.94
2.73525	0.954
2.77609	0.952
2.81693	0.945
2.85777	0.949
2.89861	0.93
2.93944	0.925
2.98028	0.929
3.02112	0.922
3.06196	0.905
3.1028	0.873
3.14364	0.81
3.18447	0.719
3.22531	0.256
3.26615	0.435
3.30699	0.525
3.34783	0.282
3.38867	0.197
3.4295	0.118
3.47034	0.385
3.51118	0.476
3.55202	0.728
3.59286	0.834
3.6337	0.783
3.67454	0.902
3.71537	0.891
3.75621	0.854
3.79705	0.903
3.83789	0.907
3.87873	0.918
3.91957	0.905
3.9604	0.915
4.00124	0.912
4.04208	0.871
4.08292	0.849
4.12376	0.859
4.1646	0.841
4.20543	0.856
4.24627	0.908
4.28711	0.962
4.32795	0.922
4.36879	0.866
4.40963	0.871
4.45046	0.875
4.4913	0.866
4.53214	0.893
4.57298	0.873
4.61382	0.883
4.65466	0.903
4.69549	0.918
4.73633	0.868
4.77717	0.903
4.81801	0.898
4.85885	0.864
4.89969	0.915
4.94052	0.913
4.98136	0.918
5.0222	0.923
5.06304	0.92
5.10388	0.903
5.14472	0.908
5.18556	0.905
5.22639	0.917
5.26723	0.925
5.30807	0.932
5.34891	0.934
5.38975	0.918
5.43059	0.912
5.47142	0.891
5.51226	0.891
5.5531	0.859
5.59394	0.785
5.63478	0.652
5.67562	0.577
5.71645	0.609
5.75729	0.751
5.79813	0.826
5.83897	0.826
5.87981	0.761
5.92065	0.819
5.96148	0.827
6.00232	0.763
6.04316	0.761
6.084	0.814
6.12484	0.812
6.16568	0.765
6.20651	0.697
6.24735	0.516
6.28819	0.363
6.32903	0.358
6.36987	0.423
6.41071	0.108
6.45154	0.258
6.49238	0.42
6.53322	0.513
6.57406	0.511
6.6149	0.454
6.65574	0.396
6.69658	0.292
6.73741	0.226
6.77825	0.126
6.81909	0.091
6.85993	0.038
6.90077	0.047
6.94161	0.094
6.98244	0.096
7.02328	0.033
7.06412	0.01
7.10496	0.052
7.1458	0.13
7.18664	0.16
7.22747	0.097
7.26831	0.334
7.30915	0.197
7.34999	0.344
7.39083	0.557
7.43167	0.601
7.4725	0.638
7.51334	0.66
7.55418	0.701
7.59502	0.731
7.63586	0.697
7.6767	0.616
7.71753	0.532
7.75837	0.565
7.79921	0.628
7.84005	0.621
7.88089	0.555
7.92173	0.366
7.96256	0.233
8.0034	0.076
8.04424	0.04
8.08508	0.021
8.12592	0.033
8.16676	0.016
8.2076	0.02
8.24843	0.084
8.28927	0.307
8.33011	0.412
8.37095	0.535
8.41179	0.596
8.45263	0.594
8.49346	0.548
8.5343	0.336
8.57514	0.31
8.61598	0.457
8.65682	0.532
8.69766	0.582
8.73849	0.614
8.77933	0.625
8.82017	0.604
8.86101	0.587
8.90185	0.51
8.94269	0.461
8.98352	0.472
9.02436	0.422
9.0652	0.221
9.10604	0.422
9.14688	0.38
9.18772	0.135
9.22855	0.396
9.26939	0.543
9.31023	0.57
9.35107	0.579
9.39191	0.552
9.43275	0.501
9.47358	0.452
9.51442	0.425
9.55526	0.344
9.5961	0.283
9.63694	0.251
9.67778	0.195
9.71862	0.087
9.75945	0.02
9.80029	0.015
9.84113	0.033
9.88197	0.064
9.92281	0.065
9.96365	0.045
10.0045	0.011
10.0453	0.008
10.0862	0.025
10.127	0.195
10.1678	0.373
10.2087	0.489
10.2495	0.515
10.2904	0.518
10.3312	0.528
10.372	0.493
10.4129	0.488
10.4537	0.518
10.4945	0.543
10.5354	0.508
10.5762	0.422
10.6171	0.52
10.6579	0.511
10.6987	0.383
10.7396	0.194
10.7804	0.04
10.8213	0.023
10.8621	0.211
10.9029	0.41
10.9438	0.481
10.9846	0.56
11.0254	0.608
11.0663	0.597
11.1071	0.548
11.148	0.452
11.1888	0.295
11.2296	0.106
11.2705	0.092
11.3113	0.121
11.3522	0.125
11.393	0.141
11.4338	0.236
11.4747	0.337
11.5155	0.4
11.5563	0.413
11.5972	0.3
11.638	0.216
11.6789	0.126
11.7197	0.136
11.7605	0.201
11.8014	0.211
11.8422	0.194
11.883	0.16
11.9239	0.089
11.9647	0.035
12.0056	0.015
12.0464	0.008
12.0872	0.008
12.1281	0.028
12.1689	0.167
12.2098	0.302
12.2506	0.378
12.2914	0.376
12.3323	0.366
12.3731	0.349
12.4139	0.32
12.4548	0.229
12.4956	0.133
12.5365	0.079
12.5773	0.016
12.6181	0.015
12.659	0.018
12.6998	0.013
12.7407	0.02
12.7815	0.011
12.8223	0.016
12.8632	0.028
12.904	0.035
12.9448	0.047
12.9857	0.045
13.0265	0.05
13.0674	0.082
13.1082	0.145
13.149	0.199
13.1899	0.246
13.2307	0.298
13.2716	0.344
13.3124	0.385
13.3532	0.405
13.3941	0.403
13.4349	0.398
13.4757	0.38
13.5166	0.368
13.5574	0.358
13.5983	0.326
13.6391	0.314
13.6799	0.277
13.7208	0.239
13.7616	0.199
13.8025	0.148
13.8433	0.109
13.8841	0.057
13.925	0.037
13.9658	0.037
14.0066	0.038
14.0475	0.033
14.0883	0.038
14.1292	0.033
14.17	0.033
14.2108	0.038
14.2517	0.035
14.2925	0.042
14.3334	0.04
14.3742	0.045
14.415	0.048
14.4559	0.054
14.4967	0.067
14.5375	0.07
14.5784	0.096
14.6192	0.106
14.6601	0.121
14.7009	0.121
14.7417	0.118
14.7826	0.092
14.8234	0.076
14.8643	0.082
14.9051	0.123
14.9459	0.199
14.9868	0.182
15.0276	0.165
15.0684	0.182
15.1093	0.194
15.1501	0.168
15.191	0.167
15.2318	0.168
15.2726	0.158
15.3135	0.16
15.3543	0.182
15.3951	0.197
15.436	0.202
15.4768	0.222
15.5177	0.246
15.5585	0.297
15.5993	0.346
15.6402	0.402
15.681	0.449
15.7219	0.483
15.7627	0.488
15.8035	0.505
15.8444	0.537
15.8852	0.562
15.926	0.577
15.9669	0.597
