Infrared Spectrum: N-Vinylphthalimide
Formula: C 10 H 7 N O 2
CAS: 3485-84-5
State: gas
Origin: EPA-IR VAPOR PHASE LIBRARY
1/CM	ABSORBANCE
549.8	0.00407
559.445	0.0020594
569.09	0.0018424
578.734	0.00303
588.379	0.00539
598.024	0.00563
607.669	0.0021575
617.313	0.001192
626.958	0.001143
636.603	0.0021539
646.248	0.00321
655.893	0.00746
665.537	0.01831
675.182	0.02118
684.827	0.01008
694.472	0.00734
704.116	0.01162
713.761	0.0246
723.406	0.05307
733.051	0.02832
742.695	0.00886
752.34	0.00422
761.985	0.00326
771.63	0.00353
781.275	0.00616
790.919	0.00932
800.564	0.00508
810.209	0.0025
819.854	0.001805
829.498	0.0023924
839.143	0.0028
848.788	0.00375
858.433	0.00521
868.078	0.01098
877.722	0.0217
887.367	0.02834
897.012	0.03
906.657	0.01961
916.301	0.01548
925.946	0.01562
935.591	0.00846
945.236	0.00698
954.88	0.00887
964.525	0.01212
974.17	0.01711
983.815	0.01658
993.46	0.01885
1003.1	0.0258
1012.75	0.03618
1022.39	0.04206
1032.04	0.036
1041.68	0.01962
1051.33	0.01088
1060.97	0.0078
1070.62	0.00592
1080.26	0.00614
1089.91	0.00601
1099.55	0.00494
1109.2	0.00626
1118.84	0.00557
1128.49	0.0053
1138.13	0.00932
1147.78	0.01925
1157.42	0.02234
1167.07	0.01993
1176.71	0.01507
1186.36	0.00781
1196	0.006
1205.64	0.0096
1215.29	0.01143
1224.93	0.00582
1234.58	0.000848
1244.22	0.00241
1253.87	0.00331
1263.51	0.00375
1273.16	0.00702
1282.8	0.01387
1292.45	0.02818
1302.09	0.06626
1311.74	0.05643
1321.38	0.01537
1331.03	0.0128
1340.67	0.02194
1350.32	0.05417
1359.96	0.12348
1369.61	0.26444
1379.25	0.28687
1388.9	0.11863
1398.54	0.04464
1408.18	0.02969
1417.83	0.02326
1427.47	0.01211
1437.12	0.00979
1446.76	0.00816
1456.41	0.00823
1466.05	0.01207
1475.7	0.01133
1485.34	0.00598
1494.99	0.00456
1504.63	0.00525
1514.28	0.00514
1523.92	0.00514
1533.57	0.00486
1543.21	0.00463
1552.86	0.00506
1562.5	0.00697
1572.15	0.00733
1581.79	0.00708
1591.44	0.00755
1601.08	0.00982
1610.73	0.0149
1620.37	0.01828
1630.01	0.02798
1639.66	0.04736
1649.3	0.03479
1658.95	0.00792
1668.59	0.00613
1678.24	0.00741
1687.88	0.00819
1697.53	0.01189
1707.17	0.02253
1716.82	0.04723
1726.46	0.14068
1736.11	0.35239
1745.75	0.36246
1755.4	0.12696
1765.04	0.04013
1774.69	0.02484
1784.33	0.03763
1793.98	0.05414
1803.62	0.03632
1813.27	0.01881
1822.91	0.00908
1832.55	0.00657
1842.2	0.00678
1851.84	0.00661
1861.49	0.00582
1871.13	0.00575
1880.78	0.0051
1890.42	0.00386
1900.07	0.00333
1909.71	0.00356
1919.36	0.00337
1929	0.00376
1938.65	0.00428
1948.29	0.00405
1957.94	0.00288
1967.58	0.00311
1977.23	0.00296
1986.87	0.002076
1996.52	0.0020158
2006.16	0.0020452
2015.81	0.0019344
2025.45	0.0019044
2035.1	0.0017113
2044.74	0.0017835
2054.38	0.0020288
2064.03	0.0018271
2073.67	0.0021895
2083.32	0.0023376
2092.96	0.0022219
2102.61	0.001894
2112.25	0.0017495
2121.9	0.0018875
2131.54	0.0020048
2141.19	0.001755
2150.83	0.0019035
2160.48	0.0017276
2170.12	0.0019376
2179.77	0.0018762
2189.41	0.001915
2199.06	0.0017465
2208.7	0.0018986
2218.35	0.0018806
2227.99	0.0019107
2237.64	0.0020422
2247.28	0.0021905
2256.92	0.0022968
2266.57	0.0020682
2276.21	0.0020752
2285.86	0.0021933
2295.5	0.0021701
2305.15	0.0023034
2314.79	0.0023854
2324.44	0.00247
2334.08	0.00261
2343.73	0.0020775
2353.37	0.0023951
2363.02	0.00256
2372.66	0.00249
2382.31	0.0025
2391.95	0.00259
2401.6	0.0021339
2411.24	0.002059
2420.89	0.0018065
2430.53	0.0019338
2440.18	0.0018469
2449.82	0.0020202
2459.47	0.0018648
2469.11	0.0016209
2478.75	0.001623
2488.4	0.0015934
2498.04	0.0017227
2507.69	0.001863
2517.33	0.001665
2526.98	0.0019248
2536.62	0.0021314
2546.27	0.0020366
2555.91	0.0019351
2565.56	0.0020225
2575.2	0.0017885
2584.85	0.0015944
2594.49	0.0017559
2604.14	0.0018272
2613.78	0.0015858
2623.43	0.0018044
2633.07	0.0020004
2642.72	0.0016856
2652.36	0.00186
2662.01	0.0018098
2671.65	0.0018887
2681.29	0.0020882
2690.94	0.0018274
2700.58	0.001939
2710.23	0.0017598
2719.87	0.0015628
2729.52	0.0013865
2739.16	0.001534
2748.81	0.00149403
2758.45	0.001412
2768.1	0.0017402
2777.74	0.0021278
2787.39	0.0022821
2797.03	0.0019114
2806.68	0.0019835
2816.32	0.0015403
2825.97	0.001672
2835.61	0.0017765
2845.26	0.0018695
2854.9	0.00148505
2864.55	0.0016384
2874.19	0.001587
2883.84	0.0016055
2893.48	0.0015176
2903.12	0.001111
2912.77	0.0019074
2922.41	0.0021473
2932.06	0.0023864
2941.7	0.0019562
2951.35	0.0017708
2960.99	0.0015999
2970.64	0.0015876
2980.28	0.002175
2989.93	0.0015225
2999.57	0.0017187
3009.22	0.0019468
3018.86	0.00245
3028.51	0.00264
3038.15	0.00409
3047.8	0.00826
3057.44	0.01335
3067.09	0.01083
3076.73	0.00879
3086.38	0.01128
3096.02	0.00815
3105.67	0.00338
3115.31	0.0019158
3124.95	0.00252
3134.6	0.0029
3144.24	0.0020936
3153.89	0.0013298
3163.53	0.0016659
3173.18	0.00140669
3182.82	0.00147263
3192.47	0.000993
3202.11	0.0017837
3211.76	0.001529
3221.4	0.000998
3231.05	0.00144722
3240.69	0.001279
3250.34	0.0017425
3259.98	0.0017389
3269.63	0.0013036
3279.27	0.0015198
3288.92	0.001121
3298.56	0.0015529
3308.21	0.001027
3317.85	0.0015479
3327.49	0.00145906
3337.14	0.0016071
3346.78	0.00133
3356.43	0.0014208
3366.07	0.001178
3375.72	0.00113
3385.36	0.000881
3395.01	0.00144575
3404.65	0.0016899
3414.3	0.001959
3423.94	0.001188
3433.59	0.0017596
3443.23	0.0016262
3452.88	0.0016252
3462.52	0.0022331
3472.17	0.00245
3481.81	0.00255
3491.46	0.00347
3501.1	0.00356
3510.75	0.00512
3520.39	0.00475
3530.04	0.00376
3539.68	0.002249
3549.32	0.0015079
3558.97	0.00099
3568.61	0.0016424
3578.26	0.0017079
3587.9	0.000978
3597.55	0.001201
3607.19	0.00085
3616.84	0.0015696
3626.48	0.001231
3636.13	0.001108
3645.77	0.000689
3655.42	0.001116
3665.06	0.000774
3674.71	0.0015985
3684.35	0.00113
3694	0.00123
3703.64	0.0013813
3713.29	0.00145246
3722.93	0.0016209
3732.58	0.0018697
3742.22	0.0016579
3751.86	0.0016722
3761.51	0.00112
3771.15	0.001106
3780.8	0.0017423
3790.44	0.0016152
3800.09	0.0017116
3809.73	0.00140492
3819.38	0.0017795
3829.02	0.001167
3838.67	0.0013264
3848.31	0.001048
3857.96	0.000977
3867.6	0.000794
3877.25	0.001297
3886.89	0.001237
3896.54	0.0013744
3906.18	0.0017222
3915.83	0.0016761
3925.47	0.000767
3935.12	0.001269
3944.76	0.000848
3954.41	0.0016491
3964.05	0.0015572
3973.69	0.000931
3983.34	0.001037
3992.98	0.001193
