Infrared Spectrum: 3,5-Dichlorophenyl isocyante
Formula: C 7 H 3 Cl 2 N O
CAS: 34893-92-0
State: gas
Origin: EPA-IR VAPOR PHASE LIBRARY
1/CM	ABSORBANCE
501.5	3.3e-05
513.074	0.0001847
524.648	0.0003997
536.222	0.000656
547.796	0.001373
559.37	0.002183
570.944	0.002193
582.518	0.003223
594.092	0.002963
605.666	0.003053
617.24	0.003953
628.814	0.003593
640.388	0.003363
651.962	0.007033
663.536	0.013923
675.11	0.005143
686.684	0.001313
698.258	0.0009891
709.832	0.0010502
721.406	0.0008561
732.98	0.0007235
744.554	0.0006194
756.128	0.0006008
767.702	0.0009755
779.276	0.002323
790.85	0.009283
802.423	0.021063
813.997	0.018063
825.571	0.017153
837.145	0.012133
848.719	0.019993
860.293	0.025303
871.867	0.031273
883.441	0.010073
895.015	0.002603
906.589	0.001723
918.163	0.0012316
929.737	0.0005755
941.311	0.0003869
952.885	0.0002214
964.459	0.00030532
976.033	0.00033978
987.607	0.000365
999.181	0.0004063
1010.76	0.0002057
1022.33	0.000136
1033.9	0.0002303
1045.48	0.0003792
1057.05	0.0009809
1068.63	0.001333
1080.2	0.002863
1091.77	0.007993
1103.35	0.011303
1114.92	0.003403
1126.49	0.0010448
1138.07	0.0006908
1149.64	0.00029218
1161.22	0.00023687
1172.79	0.0005674
1184.36	0.0005665
1195.94	0.0006855
1207.51	0.000476
1219.09	0.0005278
1230.66	0.0005853
1242.23	0.0003902
1253.81	0.0005713
1265.38	0.0003871
1276.96	0.0008133
1288.53	0.000883
1300.1	0.0005698
1311.68	0.0006276
1323.25	0.0007075
1334.83	0.0006077
1346.4	0.0007233
1357.97	0.0010245
1369.55	0.003233
1381.12	0.009183
1392.7	0.011163
1404.27	0.008383
1415.84	0.010893
1427.42	0.011263
1438.99	0.006573
1450.57	0.003903
1462.14	0.004223
1473.71	0.005373
1485.29	0.009193
1496.86	0.011663
1508.44	0.004783
1520.01	0.004943
1531.58	0.007343
1543.16	0.007823
1554.73	0.022363
1566.31	0.063523
1577.88	0.061473
1589.45	0.078573
1601.03	0.050823
1612.6	0.010773
1624.18	0.004403
1635.75	0.002693
1647.32	0.001983
1658.9	0.001523
1670.47	0.0011719
1682.05	0.0010259
1693.62	0.0010097
1705.19	0.001563
1716.77	0.001983
1728.34	0.001883
1739.92	0.001153
1751.49	0.0005642
1763.06	0.0004198
1774.64	0.0004104
1786.21	0.0003884
1797.79	0.0004065
1809.36	0.0004921
1820.93	0.0005036
1832.51	0.0004296
1844.08	0.0003762
1855.66	0.0003762
1867.23	0.0003746
1878.8	0.00033472
1890.38	0.00034251
1901.95	0.0003809
1913.53	0.0003514
1925.1	0.0003572
1936.67	0.0004176
1948.25	0.0005173
1959.82	0.0005958
1971.4	0.0007169
1982.97	0.0006954
1994.54	0.0006373
2006.12	0.0006321
2017.69	0.0007622
2029.27	0.0008852
2040.84	0.001019
2052.41	0.0011027
2063.99	0.0010819
2075.56	0.0011776
2087.14	0.001353
2098.71	0.001593
2110.28	0.002063
2121.86	0.002823
2133.43	0.004333
2145.01	0.007833
2156.58	0.011573
2168.15	0.010433
2179.73	0.010943
2191.3	0.014713
2202.88	0.022623
2214.45	0.032373
2226.02	0.040623
2237.6	0.058723
2249.17	0.111403
2260.74	0.231023
2272.32	0.365223
2283.89	0.214403
2295.47	0.069303
2307.04	0.041733
2318.61	0.035843
2330.19	0.035653
2341.76	0.031913
2353.34	0.030173
2364.91	0.026793
2376.48	0.015383
2388.06	0.007963
2399.63	0.005683
2411.21	0.004353
2422.78	0.003213
2434.35	0.002613
2445.93	0.002603
2457.5	0.002733
2469.08	0.002073
2480.65	0.0010918
2492.22	0.0007856
2503.8	0.0006239
2515.37	0.0005567
2526.95	0.0005265
2538.52	0.0005071
2550.09	0.000427
2561.67	0.0004653
2573.24	0.0004618
2584.82	0.0004613
2596.39	0.0005547
2607.96	0.0005281
2619.54	0.0005092
2631.11	0.0005079
2642.69	0.0006357
2654.26	0.0007597
2665.83	0.00081
2677.41	0.000837
2688.98	0.000767
2700.56	0.0008851
2712.13	0.0011544
2723.7	0.001204
2735.28	0.0007732
2746.85	0.0005696
2758.43	0.0004285
2770	0.0004105
2781.57	0.000398
2793.15	0.0004678
2804.72	0.0004796
2816.3	0.0004155
2827.87	0.0004641
2839.44	0.0005244
2851.02	0.0004641
2862.59	0.0004386
2874.17	0.00033604
2885.74	0.0003997
2897.31	0.0005188
2908.89	0.0007117
2920.46	0.0011047
2932.04	0.001283
2943.61	0.0008689
2955.18	0.0004183
2966.76	0.000398
2978.33	0.0004067
2989.91	0.0004794
3001.48	0.00025689
3013.05	0.000221
3024.63	0.0001895
3036.2	0.0001718
3047.78	0.0001852
3059.35	0.0002693
3070.92	0.0004319
3082.5	0.0006706
3094.07	0.000705
3105.65	0.0006193
3117.22	0.0010775
3128.79	0.001863
3140.37	0.002393
3151.94	0.001893
3163.52	0.0008796
3175.09	0.00045
3186.66	0.0003983
3198.24	0.0003758
3209.81	0.000352
3221.39	0.00028965
3232.96	0.000246619
3244.53	0.00029201
3256.11	0.0002232
3267.68	8.9e-05
3279.26	0.0002138
3290.83	0.00024418
3302.4	0.0002113
3313.98	0.00023821
3325.55	0.0002281
3337.13	0.00024985
3348.7	0.0003924
3360.27	0.0005132
3371.85	0.000756
3383.42	0.0007792
3395	0.0006475
3406.57	0.000847
3418.14	0.0011942
3429.72	0.001863
3441.29	0.001963
3452.86	0.001423
3464.44	0.0007726
3476.01	0.0005926
3487.59	0.0003703
3499.16	0.0004462
3510.73	0.000526
3522.31	0.0004744
3533.88	0.0004971
3545.46	0.0004703
3557.03	0.0005332
3568.6	0.0005326
3580.18	0.0005279
3591.75	0.0006231
3603.33	0.0007615
3614.9	0.0008272
3626.47	0.001008
3638.05	0.0012132
3649.62	0.001443
3661.2	0.001413
3672.77	0.0011055
3684.34	0.0008652
3695.92	0.0008114
3707.49	0.0008751
3719.07	0.0008379
3730.64	0.0009804
3742.21	0.001353
3753.79	0.001673
3765.36	0.001553
3776.94	0.0010019
3788.51	0.0007097
3800.08	0.000752
3811.66	0.0006274
3823.23	0.0005737
3834.81	0.0005978
3846.38	0.000588
3857.95	0.0005423
3869.53	0.0005453
3881.1	0.0003855
3892.68	0.0004953
3904.25	0.0003553
3915.82	0.0003815
3927.4	0.00033105
3938.97	0.0003597
3950.55	0.0003668
3962.12	0.0003958
3973.69	0.0004103
3985.27	0.00025708
3996.84	0.0003668
