Infrared Spectrum: 1,9-Nonanedithiol
Formula: C 9 H 20 S 2
CAS: 3489-28-9
State: gas
Origin: EPA-IR VAPOR PHASE LIBRARY
1/CM	ABSORBANCE
549.8	0.0003358
559.445	0.00021
569.09	6.051e-05
578.734	0.0003745
588.379	0.0001883
598.024	0.0003967
607.669	0.0003934
617.313	0.000451
626.958	0.0006814
636.603	0.0011644
646.248	0.0016144
655.893	0.0020944
665.537	0.0018444
675.182	0.0014844
684.827	0.0019544
694.472	0.0031844
704.116	0.0050744
713.761	0.0066044
723.406	0.0072444
733.051	0.0066644
742.695	0.0057544
752.34	0.0047344
761.985	0.0039144
771.63	0.0033744
781.275	0.0029444
790.919	0.0026444
800.564	0.0024944
810.209	0.0024244
819.854	0.0023944
829.498	0.0023144
839.143	0.0023244
848.788	0.0023744
858.433	0.0023244
868.078	0.0023744
877.722	0.0023844
887.367	0.0024144
897.012	0.0023744
906.657	0.0024444
916.301	0.0021944
925.946	0.0021844
935.591	0.0021744
945.236	0.0021744
954.88	0.0021844
964.525	0.0021744
974.17	0.0023044
983.815	0.0022244
993.46	0.0023944
1003.1	0.0023444
1012.75	0.0024044
1022.39	0.0022344
1032.04	0.0025344
1041.68	0.0024644
1051.33	0.0022244
1060.97	0.0022344
1070.62	0.0023544
1080.26	0.0025944
1089.91	0.0030444
1099.55	0.0028744
1109.2	0.0023144
1118.84	0.0020244
1128.49	0.0021344
1138.13	0.0020344
1147.78	0.0023944
1157.42	0.0022844
1167.07	0.0026044
1176.71	0.0029544
1186.36	0.0033244
1196	0.0035244
1205.64	0.0042244
1215.29	0.0052244
1224.93	0.0067144
1234.58	0.0086044
1244.22	0.0107944
1253.87	0.0115244
1263.51	0.0137944
1273.16	0.0165844
1282.8	0.0171044
1292.45	0.0163544
1302.09	0.0152144
1311.74	0.0126344
1321.38	0.0088844
1331.03	0.0069944
1340.67	0.0079944
1350.32	0.0101744
1359.96	0.0089344
1369.61	0.0066044
1379.25	0.0040344
1388.9	0.0027544
1398.54	0.0026344
1408.18	0.0031444
1417.83	0.0045544
1427.47	0.0082544
1437.12	0.0160844
1446.76	0.0200044
1456.41	0.0220144
1466.05	0.0177144
1475.7	0.0091444
1485.34	0.0043744
1494.99	0.0025144
1504.63	0.0018044
1514.28	0.0013744
1523.92	0.0011044
1533.57	0.0009625
1543.21	0.000783
1552.86	0.0007924
1562.5	0.0006311
1572.15	0.000699
1581.79	0.0006091
1591.44	0.0005732
1601.08	0.000457
1610.73	0.0004865
1620.37	0.0004385
1630.01	0.0004546
1639.66	0.0004213
1649.3	0.0004604
1658.95	0.0004323
1668.59	0.0004459
1678.24	0.000443
1687.88	0.000434
1697.53	0.0004433
1707.17	0.0004165
1716.82	0.0003952
1726.46	0.0004112
1736.11	0.000397
1745.75	0.0003919
1755.4	0.0003232
1765.04	0.0003273
1774.69	0.000329
1784.33	0.0003131
1793.98	0.0003667
1803.62	0.0004253
1813.27	0.000319
1822.91	0.0002917
1832.55	0.0003024
1842.2	0.0003367
1851.84	0.0003008
1861.49	0.0003186
1871.13	0.0002658
1880.78	0.0002931
1890.42	0.0002485
1900.07	0.0003057
1909.71	0.0002609
1919.36	0.0003101
1929	0.0002283
1938.65	0.0003099
1948.29	0.0003313
1957.94	0.0003786
1967.58	0.0004213
1977.23	0.0004199
1986.87	0.0004175
1996.52	0.000414
2006.16	0.0004971
2015.81	0.000566
2025.45	0.0005687
2035.1	0.0006375
2044.74	0.0006183
2054.38	0.0005778
2064.03	0.000562
2073.67	0.0005556
2083.32	0.0004983
2092.96	0.0005372
2102.61	0.0004498
2112.25	0.0004706
2121.9	0.0004558
2131.54	0.0005158
2141.19	0.0005793
2150.83	0.0005701
2160.48	0.000578
2170.12	0.0005628
2179.77	0.0006482
2189.41	0.0006193
2199.06	0.000555
2208.7	0.0005828
2218.35	0.0005076
2227.99	0.0004608
2237.64	0.0004755
2247.28	0.0004365
2256.92	0.0004532
2266.57	0.0004498
2276.21	0.0004428
2285.86	0.000482
2295.5	0.0005098
2305.15	0.0004401
2314.79	0.000503
2324.44	0.0004976
2334.08	0.0004997
2343.73	0.0005267
2353.37	0.0005076
2363.02	0.0004946
2372.66	0.0004285
2382.31	0.0004669
2391.95	0.000493
2401.6	0.0005343
2411.24	0.0005218
2420.89	0.0004824
2430.53	0.0004728
2440.18	0.0005045
2449.82	0.0004986
2459.47	0.0005114
2469.11	0.0005927
2478.75	0.0005437
2488.4	0.0006016
2498.04	0.0006147
2507.69	0.000741
2517.33	0.0008568
2526.98	0.0009277
2536.62	0.0009877
2546.27	0.0011044
2555.91	0.0011344
2565.56	0.0014244
2575.2	0.0021044
2584.85	0.0034744
2594.49	0.0043444
2604.14	0.0030244
2613.78	0.0024044
2623.43	0.0021044
2633.07	0.0020644
2642.72	0.0021744
2652.36	0.0022844
2662.01	0.0024544
2671.65	0.0026844
2681.29	0.0028844
2690.94	0.0029144
2700.58	0.0026044
2710.23	0.0025344
2719.87	0.0023944
2729.52	0.0023844
2739.16	0.0024044
2748.81	0.0025644
2758.45	0.0027144
2768.1	0.0029644
2777.74	0.0033944
2787.39	0.0041044
2797.03	0.0050044
2806.68	0.0060844
2816.32	0.0079444
2825.97	0.0108144
2835.61	0.0160344
2845.26	0.0293944
2854.9	0.0620244
2864.55	0.0881744
2874.19	0.0651744
2883.84	0.0422044
2893.48	0.0404744
2903.12	0.0556744
2912.77	0.0872344
2922.41	0.152884
2932.06	0.243174
2941.7	0.222914
2951.35	0.127214
2960.99	0.0802844
2970.64	0.0592944
2980.28	0.0287344
2989.93	0.0158544
2999.57	0.0103244
3009.22	0.0073144
3018.86	0.0055044
3028.51	0.0044144
3038.15	0.0034444
3047.8	0.0028044
3057.44	0.0024344
3067.09	0.0018744
3076.73	0.0015544
3086.38	0.0012944
3096.02	0.0011944
3105.67	0.001049
3115.31	0.0008994
3124.95	0.0010744
3134.6	0.0009268
3144.24	0.000844
3153.89	0.0008918
3163.53	0.0007568
3173.18	0.0007074
3182.82	0.0007597
3192.47	0.0005909
3202.11	0.0005147
3211.76	0.0005198
3221.4	0.00038
3231.05	0.0004753
3240.69	0.0003246
3250.34	0.0003604
3259.98	0.0003137
3269.63	0.0003508
3279.27	0.0004398
3288.92	0.0002995
3298.56	0.0002655
3308.21	0.0002255
3317.85	0.0003281
3327.49	0.000303
3337.14	0.0002694
3346.78	0.0002432
3356.43	0.0002201
3366.07	0.000341
3375.72	0.0002536
3385.36	0.0003175
3395.01	0.000334
3404.65	0.0002742
3414.3	0.0003913
3423.94	0.0002249
3433.59	0.0002689
3443.23	0.0003461
3452.88	0.0002065
3462.52	0.00012859
3472.17	0.0001933
3481.81	0.0001976
3491.46	0.00011541
3501.1	0.000267
3510.75	0.0001872
3520.39	0.0001869
3530.04	0.0001926
3539.68	0.0002361
3549.32	0.0002235
3558.97	0.0002894
3568.61	0.00014362
3578.26	0.0003423
3587.9	0.0003713
3597.55	0.0004431
3607.19	0.0005584
3616.84	0.0005036
3626.48	0.0005157
3636.13	0.0005728
3645.77	0.0005782
3655.42	0.0005803
3665.06	0.000606
3674.71	0.0005607
3684.35	0.000515
3694	0.0004947
3703.64	0.0003424
3713.29	0.0004596
3722.93	0.0005884
3732.58	0.0005306
3742.22	0.0004833
3751.86	0.000432
3761.51	0.000311
3771.15	0.0004957
3780.8	0.0004886
3790.44	0.0004522
3800.09	0.000348
3809.73	0.0005428
3819.38	0.0003647
3829.02	0.0005298
3838.67	0.000509
3848.31	0.0004046
3857.96	0.0004363
3867.6	0.0004861
3877.25	0.0005301
3886.89	0.0004609
3896.54	0.0006464
3906.18	0.0005564
3915.83	0.0005339
3925.47	0.0003724
3935.12	0.0005955
3944.76	0.0005938
3954.41	0.0004713
3964.05	0.0005487
3973.69	0.0005751
3983.34	0.0006431
3992.98	0.0006549
