Infrared Spectrum: 3-Trifluoromethylacetophenone
Formula: C 9 H 7 F 3 O
CAS: 349-76-8
State: gas
Origin: EPA-IR VAPOR PHASE LIBRARY
1/CM	ABSORBANCE
549.8	0.00363
559.445	0.00714
569.09	0.01221
578.734	0.02486
588.379	0.03654
598.024	0.02612
607.669	0.01106
617.313	0.00635
626.958	0.00369
636.603	0.00377
646.248	0.0159
655.893	0.0378
665.537	0.01249
675.182	0.00767
684.827	0.02204
694.472	0.04499
704.116	0.02927
713.761	0.0148
723.406	0.01699
733.051	0.00796
742.695	0.00199
752.34	0.00221
761.985	0.00238
771.63	0.00298
781.275	0.00745
790.919	0.02112
800.564	0.03788
810.209	0.03694
819.854	0.02064
829.498	0.00764
839.143	0.00358
848.788	0.00262
858.433	0.00194
868.078	0.00175
877.722	0.00298
887.367	0.0065
897.012	0.0135
906.657	0.01216
916.301	0.01063
925.946	0.01192
935.591	0.01175
945.236	0.01362
954.88	0.01559
964.525	0.01161
974.17	0.00727
983.815	0.00522
993.46	0.00448
1003.1	0.00508
1012.75	0.00601
1022.39	0.0059
1032.04	0.00624
1041.68	0.009
1051.33	0.01889
1060.97	0.05205
1070.62	0.09321
1080.26	0.07776
1089.91	0.05453
1099.55	0.04867
1109.2	0.04334
1118.84	0.04823
1128.49	0.08543
1138.13	0.19887
1147.78	0.35198
1157.42	0.28329
1167.07	0.21764
1176.71	0.2715
1186.36	0.16217
1196	0.07496
1205.64	0.06055
1215.29	0.07418
1224.93	0.14036
1234.58	0.35016
1244.22	0.40504
1253.87	0.1341
1263.51	0.04159
1273.16	0.02371
1282.8	0.02612
1292.45	0.03331
1302.09	0.04651
1311.74	0.07517
1321.38	0.18228
1331.03	0.33638
1340.67	0.18782
1350.32	0.06007
1359.96	0.07178
1369.61	0.06187
1379.25	0.03056
1388.9	0.01607
1398.54	0.01319
1408.18	0.01244
1417.83	0.01591
1427.47	0.02495
1437.12	0.03108
1446.76	0.01887
1456.41	0.00968
1466.05	0.00744
1475.7	0.00741
1485.34	0.00828
1494.99	0.00649
1504.63	0.00446
1514.28	0.00391
1523.92	0.0039
1533.57	0.00445
1543.21	0.00495
1552.86	0.00518
1562.5	0.00556
1572.15	0.00622
1581.79	0.00919
1591.44	0.01332
1601.08	0.01642
1610.73	0.02045
1620.37	0.01637
1630.01	0.00921
1639.66	0.00703
1649.3	0.0066
1658.95	0.00913
1668.59	0.01545
1678.24	0.01814
1687.88	0.02541
1697.53	0.07497
1707.17	0.19056
1716.82	0.1479
1726.46	0.04376
1736.11	0.01983
1745.75	0.01782
1755.4	0.01361
1765.04	0.00702
1774.69	0.00461
1784.33	0.00447
1793.98	0.00451
1803.62	0.00361
1813.27	0.0031
1822.91	0.00325
1832.55	0.00374
1842.2	0.00328
1851.84	0.00249
1861.49	0.00235
1871.13	0.00244
1880.78	0.00248
1890.42	0.00317
1900.07	0.00361
1909.71	0.00316
1919.36	0.00291
1929	0.00224
1938.65	0.00194
1948.29	0.00253
1957.94	0.00313
1967.58	0.00307
1977.23	0.00218
1986.87	0.00141
1996.52	0.00137
2006.16	0.0011457
2015.81	0.0009963
2025.45	0.0009252
2035.1	0.0009352
2044.74	0.0009466
2054.38	0.0009954
2064.03	0.0008977
2073.67	0.0008792
2083.32	0.0008029
2092.96	0.0008355
2102.61	0.0006825
2112.25	0.0008976
2121.9	0.0008702
2131.54	0.0009951
2141.19	0.00158
2150.83	0.00168
2160.48	0.00164
2170.12	0.0010522
2179.77	0.0009735
2189.41	0.0010652
2199.06	0.0012411
2208.7	0.00136
2218.35	0.0011749
2227.99	0.00135
2237.64	0.0011971
2247.28	0.00145
2256.92	0.00167
2266.57	0.00191
2276.21	0.00211
2285.86	0.00196
2295.5	0.00187
2305.15	0.00185
2314.79	0.00163
2324.44	0.00176
2334.08	0.00188
2343.73	0.00186
2353.37	0.00175
2363.02	0.00158
2372.66	0.0012743
2382.31	0.0012949
2391.95	0.0012167
2401.6	0.0010222
2411.24	0.0008299
2420.89	0.0010391
2430.53	0.0011845
2440.18	0.0009013
2449.82	0.0008591
2459.47	0.0007292
2469.11	0.0010309
2478.75	0.0012585
2488.4	0.000948
2498.04	0.0008872
2507.69	0.0009774
2517.33	0.0009732
2526.98	0.0007494
2536.62	0.0007699
2546.27	0.0008224
2555.91	0.0011045
2565.56	0.0009714
2575.2	0.0010001
2584.85	0.0007595
2594.49	0.001128
2604.14	0.0011057
2613.78	0.0010587
2623.43	0.0007395
2633.07	0.0007054
2642.72	0.000801
2652.36	0.0010389
2662.01	0.0011444
2671.65	0.0008372
2681.29	0.000668
2690.94	0.0005874
2700.58	0.0006192
2710.23	0.0006089
2719.87	0.0006449
2729.52	0.0004935
2739.16	0.0006869
2748.81	0.0005305
2758.45	0.0007041
2768.1	0.0007192
2777.74	0.0007029
2787.39	0.000863
2797.03	0.0008696
2806.68	0.0008129
2816.32	0.0008823
2825.97	0.0012281
2835.61	0.0010432
2845.26	0.0012347
2854.9	0.0011831
2864.55	0.0011251
2874.19	0.0009993
2883.84	0.0012487
2893.48	0.00149
2903.12	0.0017
2912.77	0.0021
2922.41	0.00307
2932.06	0.00439
2941.7	0.00423
2951.35	0.00375
2960.99	0.004
2970.64	0.00479
2980.28	0.00483
2989.93	0.00389
2999.57	0.00407
3009.22	0.00675
3018.86	0.00807
3028.51	0.00528
3038.15	0.00439
3047.8	0.00484
3057.44	0.00586
3067.09	0.0084
3076.73	0.01289
3086.38	0.01273
3096.02	0.00676
3105.67	0.0043
3115.31	0.00346
3124.95	0.00246
3134.6	0.00171
3144.24	0.0011751
3153.89	0.0010166
3163.53	0.0006699
3173.18	0.0008046
3182.82	0.0006361
3192.47	0.0006897
3202.11	0.0008209
3211.76	0.0008607
3221.4	0.000663
3231.05	0.0007183
3240.69	0.0006599
3250.34	0.0007145
3259.98	0.0005861
3269.63	0.000673
3279.27	0.000621
3288.92	0.000582
3298.56	0.0004224
3308.21	0.0005279
3317.85	0.000558
3327.49	0.0006827
3337.14	0.0004369
3346.78	0.0007042
3356.43	0.000534
3366.07	0.0008979
3375.72	0.001155
3385.36	0.00187
3395.01	0.00385
3404.65	0.00459
3414.3	0.00233
3423.94	0.0011063
3433.59	0.0009415
3443.23	0.0007685
3452.88	0.0004137
3462.52	0.0002875
3472.17	0.0005238
3481.81	0.0005238
3491.46	0.000657
3501.1	0.00040442
3510.75	0
3520.39	0.0007691
3530.04	0.0005261
3539.68	0.0004883
3549.32	0.0005747
3558.97	0.0007431
3568.61	0.0004394
3578.26	0.0006934
3587.9	0.0002292
3597.55	0.000559
3607.19	0.0005232
3616.84	0.00040514
3626.48	0.000736
3636.13	2.5e-05
3645.77	0.000309307
3655.42	0.0004568
3665.06	0.0004983
3674.71	0.0004393
3684.35	0.0005249
3694	0.0006008
3703.64	0.0006977
3713.29	0.0009169
3722.93	0.0005037
3732.58	0.0006448
3742.22	0.0006672
3751.86	0.0006167
3761.51	0.0006543
3771.15	0.0005181
3780.8	0.0002865
3790.44	0.0005261
3800.09	0.0005438
3809.73	0.0008334
3819.38	0.0007294
3829.02	0.0003078
3838.67	0.0007482
3848.31	0.00038349
3857.96	0.0005602
3867.6	0.0008752
3877.25	0.0010572
3886.89	0.0004507
3896.54	0.001024
3906.18	0.0004111
3915.83	0.0009615
3925.47	0.0007888
3935.12	0.0007074
3944.76	0.000671
3954.41	0.0005816
3964.05	0.0008855
3973.69	9e-05
3983.34	0.000434
3992.98	0.0007542
