Infrared Spectrum: BENZENESULFONYL FLUORIDE, m-NITRO-
Formula: C6 H4 F N O4 S
CAS: 349-78-0
State: SOLUTION (10% CCl4 FOR 3800-1330, 10% CS2 FOR 1330-400 CM^-^1)
Melting point: 46 C
Class: COBLENTZ III
Instrument: DOW KBr FOREPRISM-GRATING
Instrument parameters: BLAZED AT 3.5, 12.0, 20.0 MICRON AND CHANGED AT 5.0, 7.5, 14.9 MICRON
Sampling: TRANSMISSION
Path length: 0.011 CM, 0.011 CM
Resolution: 2
Origin: DOW CHEMICAL COMPANY
1/CM	TRANSMITTANCE
384	0.1024
393	0.1151
402	0.2024
411	0.4299
420	0.6428
429	0.7551
438	0.8008
447	0.8171
456	0.8065
465	0.811
474	0.8471
483	0.8386
492	0.7976
501	0.8174
510	0.8706
519	0.8621
528	0.7639
537	0.6398
546	0.639
555	0.7617
564	0.8573
573	0.8566
582	0.5216
591	0.0007
600	0.6642
609	0.883
618	0.9215
627	0.9286
636	0.9107
645	0.8545
654	0.6768
663	0.0863
672	0.2144
681	0.8275
690	0.8994
699	0.9113
708	0.9021
717	0.8755
726	0.5662
735	0.0127
744	0.5252
753	0.0831
762	0.6362
771	0.731
780	0.5928
789	0.2149
798	0.0032
807	0.0292
816	0.3847
825	0.7901
834	0.8597
843	0.8589
852	0.7385
861	0.7401
870	0.7504
879	0.2919
888	0.4988
897	0.8675
906	0.7918
915	0.6212
924	0.9033
933	0.9167
942	0.8975
951	0.9585
960	0.9604
969	0.9578
978	0.9524
987	0.9266
996	0.9164
1005	0.9375
1014	0.9634
1023	0.9685
1032	0.9612
1041	0.9455
1050	0.9265
1059	0.8967
1068	0.675
1077	0.5597
1086	0.4372
1095	0.7715
1104	0.8157
1113	0.9143
1122	0.8967
1131	0.7906
1140	0.5849
1149	0.8357
1158	0.8481
1167	0.7708
1176	0.7232
1185	0.5462
1194	0.5412
1203	0.6658
1212	0.2315
1221	0.0077
1230	0.2445
1239	0.6596
1248	0.7839
1257	0.8032
1266	0.8402
1275	0.7992
1284	0.594
1293	0.7521
1302	0.8281
1311	0.7634
1320	0.7542
1329	0.8345
1338	0.7243
1347	0.3059
1356	0.0129
1365	0.601
1374	0.8115
1383	0.8168
1392	0.8001
1401	0.666
1410	0.3456
1419	0.0694
1428	0.0001
1437	0.0167
1446	0.3332
1455	0.6961
1464	0.655
1473	0.5034
1482	0.7608
1491	0.7798
1500	0.7581
1509	0.6831
1518	0.6114
1527	0.4944
1536	0.0882
1545	0
1554	0.1173
1563	0.4118
1572	0.524
1581	0.5473
1590	0.4537
1599	0.5412
1608	0.2417
1617	0.6282
1626	0.84
1635	0.8883
1644	0.9238
1653	0.9318
1662	0.9249
1671	0.9301
1680	0.9461
1689	0.9528
1698	0.9517
1707	0.9513
1716	0.9524
1725	0.9543
1734	0.9487
1743	0.9208
1752	0.9237
1761	0.9527
1770	0.9661
1779	0.9625
1788	0.9565
1797	0.9494
1806	0.94
1815	0.9295
1824	0.9264
1833	0.9499
1842	0.9515
1851	0.951
1860	0.955
1869	0.9417
1878	0.9449
1887	0.9515
1896	0.9565
1905	0.9549
1914	0.9415
1923	0.9216
1932	0.9351
1941	0.9546
1950	0.9542
1959	0.9495
1968	0.9334
1977	0.9238
1986	0.9362
1995	0.9232
2004	0.9431
2013	0.9428
2022	0.9436
2031	0.9468
2040	0.9515
2049	0.9538
2058	0.9545
2067	0.9548
2076	0.9552
2085	0.9555
2094	0.9562
2103	0.9571
2112	0.9578
2121	0.9586
2130	0.959
2139	0.9594
2148	0.9592
2157	0.9589
2166	0.9583
2175	0.9575
2184	0.9567
2193	0.9559
2202	0.955
2211	0.9541
2220	0.9534
2229	0.9527
2238	0.9515
2247	0.9498
2256	0.9482
2265	0.946
2274	0.9433
2283	0.9397
2292	0.9371
2301	0.9354
2310	0.9373
2319	0.9425
2328	0.9445
2337	0.9421
2346	0.9393
2355	0.9395
2364	0.9528
2373	0.9561
2382	0.9565
2391	0.9566
2400	0.956
2409	0.9492
2418	0.939
2427	0.9364
2436	0.9423
2445	0.9484
2454	0.9524
2463	0.9535
2472	0.9525
2481	0.9518
2490	0.9527
2499	0.9553
2508	0.9567
2517	0.9559
2526	0.9544
2535	0.9528
2544	0.9512
2553	0.9495
2562	0.9482
2571	0.9471
2580	0.9475
2589	0.9475
2598	0.9471
2607	0.9442
2616	0.9366
2625	0.9253
2634	0.9174
2643	0.937
2652	0.9501
2661	0.9531
2670	0.9518
2679	0.9449
2688	0.9324
2697	0.9341
2706	0.9473
2715	0.9447
2724	0.9388
2733	0.9345
2742	0.935
2751	0.9459
2760	0.9488
2769	0.9468
2778	0.9462
2787	0.9499
2796	0.9512
2805	0.9468
2814	0.9417
2823	0.9377
2832	0.9388
2841	0.9417
2850	0.9355
2859	0.9251
2868	0.9173
2877	0.8756
2886	0.7797
2895	0.9206
2904	0.9347
2913	0.9447
2922	0.9432
2931	0.9374
2940	0.9338
2949	0.9367
2958	0.944
2967	0.9502
2976	0.954
2985	0.9523
2994	0.9485
3003	0.9434
3012	0.9375
3021	0.9301
3030	0.9227
3039	0.9158
3048	0.9113
3057	0.9024
3066	0.879
3075	0.8147
3084	0.5783
3093	0.5962
3102	0.613
3111	0.7574
3120	0.8725
3129	0.8978
3138	0.9171
3147	0.9299
3156	0.9366
3165	0.9398
3174	0.9427
3183	0.9455
3192	0.9461
3201	0.9457
3210	0.9505
3219	0.9554
3228	0.9578
3237	0.9602
3246	0.9614
3255	0.9625
3264	0.9628
3273	0.9632
3282	0.9635
3291	0.9638
3300	0.9641
3309	0.9643
3318	0.9645
3327	0.9647
3336	0.965
3345	0.9653
3354	0.9656
3363	0.9659
3372	0.9663
3381	0.9666
3390	0.9668
3399	0.9668
3408	0.967
3417	0.967
3426	0.9671
3435	0.9671
3444	0.9675
3453	0.9678
3462	0.9682
3471	0.9684
3480	0.9688
3489	0.9692
3498	0.9699
3507	0.9705
3516	0.9712
3525	0.9718
3534	0.9721
3543	0.9721
3552	0.9721
3561	0.9721
3570	0.9721
3579	0.9721
3588	0.9725
3597	0.973
3606	0.9735
3615	0.9736
3624	0.9736
3633	0.9737
3642	0.9737
3651	0.9739
3660	0.9743
3669	0.9745
3678	0.9743
3687	0.9709
3696	0.9731
3705	0.9758
3714	0.9793
3723	0.9831
3732	0.9842
3741	0.9807
3750	0.9775
3759	0.9758
3768	0.9754
3777	0.9787
3786	0.9808
