Infrared Spectrum: 4-Trifluoromethylbenzyl alcohol
Formula: C 8 H 7 F 3 O
CAS: 349-95-1
State: gas
Origin: EPA-IR VAPOR PHASE LIBRARY
1/CM	ABSORBANCE
549.8	0.005622
559.445	0.006192
569.09	0.007342
578.734	0.009342
588.379	0.012652
598.024	0.015082
607.669	0.016412
617.313	0.016112
626.958	0.015952
636.603	0.014032
646.248	0.010862
655.893	0.008352
665.537	0.006482
675.182	0.004972
684.827	0.004662
694.472	0.005702
704.116	0.007152
713.761	0.009322
723.406	0.010592
733.051	0.015202
742.695	0.025542
752.34	0.026162
761.985	0.014142
771.63	0.009312
781.275	0.010222
790.919	0.015952
800.564	0.027402
810.209	0.048272
819.854	0.070922
829.498	0.082772
839.143	0.072742
848.788	0.049462
858.433	0.028392
868.078	0.015472
877.722	0.010172
887.367	0.008022
897.012	0.008392
906.657	0.009202
916.301	0.010442
925.946	0.011122
935.591	0.013942
945.236	0.016662
954.88	0.019352
964.525	0.022992
974.17	0.026832
983.815	0.032312
993.46	0.043362
1003.1	0.068682
1012.75	0.155582
1022.39	0.157972
1032.04	0.099542
1041.68	0.099642
1051.33	0.099562
1060.97	0.226292
1070.62	0.366172
1080.26	0.125062
1089.91	0.050342
1099.55	0.058232
1109.2	0.093622
1118.84	0.148942
1128.49	0.239822
1138.13	0.409862
1147.78	0.573792
1157.42	0.524862
1167.07	0.507962
1176.71	0.358422
1186.36	0.183632
1196	0.095162
1205.64	0.064732
1215.29	0.047932
1224.93	0.042212
1234.58	0.039832
1244.22	0.034042
1253.87	0.031842
1263.51	0.033182
1273.16	0.036042
1282.8	0.045632
1292.45	0.067792
1302.09	0.122862
1311.74	0.342722
1321.38	0.847132
1331.03	0.697912
1340.67	0.151112
1350.32	0.063052
1359.96	0.049762
1369.61	0.048032
1379.25	0.046182
1388.9	0.043702
1398.54	0.045302
1408.18	0.051492
1417.83	0.052062
1427.47	0.041072
1437.12	0.025412
1446.76	0.014962
1456.41	0.010972
1466.05	0.010792
1475.7	0.008622
1485.34	0.005762
1494.99	0.004962
1504.63	0.004732
1514.28	0.005102
1523.92	0.004372
1533.57	0.003572
1543.21	0.003682
1552.86	0.003732
1562.5	0.004152
1572.15	0.005032
1581.79	0.006102
1591.44	0.006842
1601.08	0.008802
1610.73	0.018452
1620.37	0.032182
1630.01	0.024092
1639.66	0.011692
1649.3	0.008412
1658.95	0.007282
1668.59	0.006512
1678.24	0.005652
1687.88	0.004252
1697.53	0.003152
1707.17	0.002282
1716.82	0.002232
1726.46	0.002212
1736.11	0.002792
1745.75	0.003412
1755.4	0.003452
1765.04	0.003432
1774.69	0.004092
1784.33	0.004852
1793.98	0.006802
1803.62	0.006432
1813.27	0.003472
1822.91	0.002122
1832.55	0.001512
1842.2	0.001412
1851.84	0.001302
1861.49	0.001472
1871.13	0.001872
1880.78	0.002492
1890.42	0.003912
1900.07	0.005792
1909.71	0.007252
1919.36	0.007032
1929	0.005052
1938.65	0.003292
1948.29	0.002402
1957.94	0.002032
1967.58	0.001902
1977.23	0.001732
1986.87	0.001622
1996.52	0.001662
2006.16	0.001332
2015.81	0.001622
2025.45	0.001572
2035.1	0.001582
2044.74	0.001792
2054.38	0.002192
2064.03	0.002652
2073.67	0.002892
2083.32	0.002442
2092.96	0.001702
2102.61	0.001452
2112.25	0.001382
2121.9	0.001202
2131.54	0.001632
2141.19	0.001602
2150.83	0.001242
2160.48	0.0009414
2170.12	0.0011015
2179.77	0.0010696
2189.41	0.001552
2199.06	0.001932
2208.7	0.001972
2218.35	0.002362
2227.99	0.002372
2237.64	0.002192
2247.28	0.002132
2256.92	0.002192
2266.57	0.002852
2276.21	0.003302
2285.86	0.003232
2295.5	0.003332
2305.15	0.003242
2314.79	0.002992
2324.44	0.002732
2334.08	0.002672
2343.73	0.002612
2353.37	0.002252
2363.02	0.001742
2372.66	0.001842
2382.31	0.001562
2391.95	0.001762
2401.6	0.001542
2411.24	0.001312
2420.89	0.001362
2430.53	0.001372
2440.18	0.001352
2449.82	0.001502
2459.47	0.001392
2469.11	0.001552
2478.75	0.001682
2488.4	0.001702
2498.04	0.001392
2507.69	0.001302
2517.33	0.0011195
2526.98	0.0009285
2536.62	0.0009484
2546.27	0.0009033
2555.91	0.0009159
2565.56	0.0009652
2575.2	0.0009249
2584.85	0.001132
2594.49	0.001432
2604.14	0.001382
2613.78	0.001442
2623.43	0.001772
2633.07	0.002262
2642.72	0.002872
2652.36	0.002532
2662.01	0.001732
2671.65	0.001372
2681.29	0.001352
2690.94	0.001362
2700.58	0.001362
2710.23	0.001512
2719.87	0.001682
2729.52	0.001762
2739.16	0.001842
2748.81	0.002092
2758.45	0.002512
2768.1	0.002802
2777.74	0.003342
2787.39	0.003912
2797.03	0.004362
2806.68	0.005362
2816.32	0.005562
2825.97	0.007312
2835.61	0.009302
2845.26	0.012412
2854.9	0.016332
2864.55	0.022162
2874.19	0.030282
2883.84	0.037352
2893.48	0.035552
2903.12	0.032002
2912.77	0.030442
2922.41	0.030752
2932.06	0.030962
2941.7	0.029482
2951.35	0.026252
2960.99	0.020572
2970.64	0.014802
2980.28	0.010482
2989.93	0.007822
2999.57	0.006712
3009.22	0.007502
3018.86	0.009482
3028.51	0.011732
3038.15	0.014632
3047.8	0.016492
3057.44	0.012832
3067.09	0.010282
3076.73	0.009232
3086.38	0.008102
3096.02	0.007052
3105.67	0.005802
3115.31	0.004722
3124.95	0.003332
3134.6	0.002522
3144.24	0.002242
3153.89	0.001752
3163.53	0.0010104
3173.18	0.0005373
3182.82	0.0005268
3192.47	0.0004501
3202.11	0.0008331
3211.76	0.0002376
3221.4	0.0007467
3231.05	0.0008721
3240.69	0.0007867
3250.34	0.0005089
3259.98	0.0008034
3269.63	0.0004048
3279.27	0.0002487
3288.92	0.0004332
3298.56	0.000357
3308.21	0.0004368
3317.85	0.0003106
3327.49	0.0005669
3337.14	0.0008448
3346.78	0.0005232
3356.43	0.0006677
3366.07	0.0006518
3375.72	0.0007969
3385.36	0.0009368
3395.01	0.0011118
3404.65	0.0010188
3414.3	0.0010351
3423.94	0.001252
3433.59	0.0008385
3443.23	0.001232
3452.88	0.001472
3462.52	0.001632
3472.17	0.001322
3481.81	0.001432
3491.46	0.001422
3501.1	0.001122
3510.75	0.001252
3520.39	0.001252
3530.04	0.001292
3539.68	0.001132
3549.32	0.0008888
3558.97	0.001122
3568.61	0.001382
3578.26	0.001442
3587.9	0.002122
3597.55	0.002322
3607.19	0.003032
3616.84	0.005292
3626.48	0.008312
3636.13	0.012882
3645.77	0.018062
3655.42	0.026352
3665.06	0.029722
3674.71	0.022992
3684.35	0.015462
3694	0.009402
3703.64	0.005542
3713.29	0.003822
3722.93	0.002732
3732.58	0.002332
3742.22	0.001752
3751.86	0.001772
3761.51	0.001402
3771.15	0.001242
3780.8	0.0010911
3790.44	0.0011144
3800.09	0.001342
3809.73	0.001222
3819.38	0.001362
3829.02	0.001682
3838.67	0.001662
3848.31	0.001492
3857.96	0.001722
3867.6	0.001692
3877.25	0.001982
3886.89	0.001832
3896.54	0.001182
3906.18	0.001442
3915.83	0.001602
3925.47	0.001432
3935.12	0.0008948
3944.76	0.001262
3954.41	0.0010939
3964.05	0.0006158
3973.69	0.0006068
3983.34	0.00018275
3992.98	0.0004141
