Infrared Spectrum: TOLUENE, 3-FLUORO-4,6-DINITRO-
Formula: C7 H5 F N2 O4
CAS: 349-01-9
State: SOLID (OIL MULL)
Class: COBLENTZ III
Instrument: BAIRD (GRATING)
Instrument parameters: NaCl PRISM
Sampling: TRANSMISSION
Resolution: 2
Origin: WYANDOTTE CHEMICALS CORP.
1/CM	TRANSMITTANCE
4000	0.4397
3991	0.441
3982	0.4425
3973	0.4438
3964	0.4452
3955	0.4467
3946	0.448
3937	0.449
3928	0.4498
3919	0.4506
3910	0.4515
3901	0.4523
3892	0.4528
3883	0.4532
3874	0.4536
3865	0.4541
3856	0.4546
3847	0.4552
3838	0.4557
3829	0.4565
3820	0.4575
3811	0.4588
3802	0.4616
3793	0.466
3784	0.4698
3775	0.4723
3766	0.4729
3757	0.4731
3748	0.4734
3739	0.4736
3730	0.4739
3721	0.4748
3712	0.4762
3703	0.4776
3694	0.4791
3685	0.4809
3676	0.4828
3667	0.4847
3658	0.4866
3649	0.4884
3640	0.4902
3631	0.4921
3622	0.4939
3613	0.4952
3604	0.496
3595	0.497
3586	0.4978
3577	0.4984
3568	0.4991
3559	0.4996
3550	0.5001
3541	0.5002
3532	0.5003
3523	0.5004
3514	0.4994
3505	0.4982
3496	0.497
3487	0.496
3478	0.496
3469	0.496
3460	0.4959
3451	0.496
3442	0.4966
3433	0.4973
3424	0.4979
3415	0.4986
3406	0.499
3397	0.4996
3388	0.5001
3379	0.5007
3370	0.501
3361	0.5014
3352	0.5017
3343	0.5021
3334	0.5024
3325	0.5026
3316	0.5029
3307	0.5031
3298	0.5035
3289	0.5038
3280	0.5042
3271	0.5048
3262	0.5055
3253	0.507
3244	0.5089
3235	0.511
3226	0.5134
3217	0.5145
3208	0.5149
3199	0.5151
3190	0.5145
3181	0.514
3172	0.5134
3163	0.5135
3154	0.5156
3145	0.5181
3136	0.5191
3127	0.5176
3118	0.5105
3109	0.4821
3100	0.4549
3091	0.4515
3082	0.4535
3073	0.461
3064	0.4638
3055	0.4651
3046	0.4646
3037	0.4538
3028	0.423
3019	0.3926
3010	0.3816
3001	0.3475
2992	0.3027
2983	0.2577
2974	0.2124
2965	0.1668
2956	0.1209
2947	0.0748
2938	0.0284
2929	0.0225
2920	0.0218
2911	0.0215
2902	0.0223
2893	0.0247
2884	0.0292
2875	0.0342
2866	0.0405
2857	0.0477
2848	0.0518
2839	0.0498
2830	0.0517
2821	0.1028
2812	0.2503
2803	0.3987
2794	0.5481
2785	0.6017
2776	0.6062
2767	0.6165
2758	0.631
2749	0.644
2740	0.6488
2731	0.6476
2722	0.6428
2713	0.638
2704	0.6358
2695	0.6341
2686	0.6337
2677	0.6348
2668	0.6371
2659	0.6396
2650	0.6425
2641	0.6464
2632	0.6505
2623	0.6545
2614	0.6571
2605	0.6597
2596	0.6625
2587	0.6671
2578	0.6744
2569	0.6803
2560	0.681
2551	0.6836
2542	0.6867
2533	0.6901
2524	0.6931
2515	0.6955
2506	0.6984
2497	0.7034
2488	0.7084
2479	0.7103
2470	0.7115
2461	0.7119
2452	0.7115
2443	0.7119
2434	0.7128
2425	0.7144
2416	0.7161
2407	0.7176
2398	0.7193
2389	0.7208
2380	0.7225
2371	0.7249
2362	0.7274
2353	0.7311
2344	0.7356
2335	0.7412
2326	0.7481
2317	0.7558
2308	0.7635
2299	0.7694
2290	0.7714
2281	0.7711
2272	0.7711
2263	0.7712
2254	0.7719
2245	0.7739
2236	0.7775
2227	0.7815
2218	0.7855
2209	0.7897
2200	0.7942
2191	0.7989
2182	0.8035
2173	0.8058
2164	0.8083
2155	0.8097
2146	0.8108
2137	0.8125
2128	0.8145
2119	0.8171
2110	0.8203
2101	0.8252
2092	0.8312
2083	0.8375
2074	0.8428
2065	0.8468
2056	0.8501
2047	0.8532
2038	0.8558
2029	0.8583
2020	0.8609
2011	0.8628
2002	0.865
1993	0.8671
1984	0.8698
1975	0.8721
1966	0.8741
1957	0.8804
1948	0.8864
1939	0.8902
1930	0.8935
1921	0.8968
1912	0.9001
1903	0.9033
1894	0.9063
1885	0.9088
1876	0.9146
1867	0.9204
1858	0.923
1849	0.9253
1840	0.9281
1831	0.9311
1822	0.9368
1813	0.9395
1804	0.9388
1795	0.9449
1786	0.9254
1777	0.9327
1768	0.9408
1759	0.934
1750	0.9337
1741	0.9388
1732	0.9436
1723	0.9462
1714	0.9409
1705	0.9325
1696	0.9218
1687	0.9055
1678	0.8749
1669	0.7978
1660	0.7589
1651	0.5782
1642	0.4149
1633	0.2884
1624	0.3499
1615	0.2192
1606	0.4542
1597	0.6618
1588	0.7261
1579	0.7954
1570	0.7362
1561	0.5026
1552	0.3776
1543	0.219
1534	0.2306
1525	0.3388
1516	0.4748
1507	0.5703
1498	0.4914
1489	0.4501
1480	0.2722
1471	0.1846
1462	0.2173
1453	0.3209
1444	0.5402
1435	0.7485
1426	0.8051
1417	0.8202
1408	0.6394
1399	0.3306
1390	0.3776
1381	0.2956
1372	0.3746
1363	0.2973
1354	0.1423
1345	0.0905
1336	0.1868
1327	0.3821
1318	0.3188
1309	0.3886
1300	0.5797
1291	0.6373
1282	0.3875
1273	0.377
1264	0.5874
1255	0.6095
1246	0.4927
1237	0.408
1228	0.5562
1219	0.606
1210	0.6378
1201	0.6641
1192	0.6797
1183	0.6953
1174	0.7128
1165	0.6746
1156	0.7035
1147	0.7232
1138	0.7061
1129	0.7469
1120	0.718
1111	0.7351
1102	0.7521
1093	0.7561
1084	0.7644
1075	0.7787
1066	0.8036
1057	0.8033
1048	0.6846
1039	0.482
1030	0.5365
1021	0.6472
1012	0.7471
1003	0.7955
994	0.8148
985	0.8184
976	0.8204
967	0.8254
958	0.8411
949	0.8546
940	0.8601
931	0.8638
922	0.8652
913	0.5228
904	0.7538
895	0.8587
886	0.6956
877	0.8366
868	0.8473
859	0.7803
850	0.899
841	0.7776
832	0.7748
823	0.8777
814	0.8883
805	0.9039
796	0.9091
787	0.9163
778	0.908
769	0.8718
760	0.8995
751	0.8384
742	0.5609
733	0.6241
724	0.7995
715	0.8076
706	0.576
697	0.6599
688	0.8185
679	0.8315
670	0.7653
661	0.6887
652	0.7282
643	0.7008
634	0.649
