Infrared Spectrum: TOLUENE, 4-BROMO-3-NITRO-Alpha,Alpha,Alpha-TRIFLUORO-
Formula: C7 H3 Br F3 N O2
CAS: 349-03-1
State: SOLUTION (10% CCl4 FOR 3800-1330, 10% CS2 FOR 1330-400 CM^-^1)
Class: COBLENTZ III
Instrument: BECKMAN IR-9 (GRATING)
Instrument parameters: ORDER CHANGES: 670, 1200, 2000 CM^-^1
Sampling: TRANSMISSION
Path length: 0.011 CM, 0.011 CM
Resolution: 2
Origin: DOW CHEMICAL COMPANY
1/CM	TRANSMITTANCE
3798	0.8912
3789	0.8906
3780	0.8882
3771	0.888
3762	0.8887
3753	0.8898
3744	0.8914
3735	0.8935
3726	0.8905
3717	0.8896
3708	0.8932
3699	0.8952
3690	0.8953
3681	0.8947
3672	0.8961
3663	0.8973
3654	0.8979
3645	0.8983
3636	0.8983
3627	0.9001
3618	0.9
3609	0.8996
3600	0.8979
3591	0.8932
3582	0.8883
3573	0.8923
3564	0.893
3555	0.8956
3546	0.896
3537	0.8958
3528	0.8947
3519	0.8948
3510	0.8951
3501	0.8951
3492	0.8955
3483	0.8958
3474	0.8962
3465	0.8965
3456	0.8973
3447	0.8983
3438	0.8992
3429	0.8992
3420	0.898
3411	0.8971
3402	0.8963
3393	0.8955
3384	0.8964
3375	0.8977
3366	0.8988
3357	0.8997
3348	0.9005
3339	0.901
3330	0.9015
3321	0.9019
3312	0.9043
3303	0.9029
3294	0.9028
3285	0.9021
3276	0.9024
3267	0.9032
3258	0.9027
3249	0.9024
3240	0.9023
3231	0.902
3222	0.9026
3213	0.903
3204	0.9016
3195	0.9038
3186	0.9029
3177	0.9035
3168	0.9048
3159	0.9013
3150	0.8936
3141	0.8897
3132	0.8838
3123	0.8544
3114	0.8187
3105	0.8179
3096	0.8169
3087	0.7852
3078	0.7973
3069	0.8556
3060	0.8645
3051	0.8833
3042	0.9085
3033	0.9101
3024	0.9068
3015	0.8994
3006	0.8945
2997	0.9006
2988	0.9029
2979	0.9049
2970	0.9021
2961	0.901
2952	0.9001
2943	0.8961
2934	0.89
2925	0.8886
2916	0.8787
2907	0.8713
2898	0.8648
2889	0.867
2880	0.8722
2871	0.8807
2862	0.8892
2853	0.8948
2844	0.9002
2835	0.9021
2826	0.9076
2817	0.9072
2808	0.9093
2799	0.911
2790	0.9113
2781	0.9113
2772	0.9126
2763	0.9128
2754	0.9122
2745	0.9115
2736	0.9108
2727	0.91
2718	0.9095
2709	0.9093
2700	0.9091
2691	0.9093
2682	0.9099
2673	0.9103
2664	0.9108
2655	0.9127
2646	0.9125
2637	0.9098
2628	0.9109
2619	0.9128
2610	0.914
2601	0.9137
2592	0.9133
2583	0.9142
2574	0.915
2565	0.9162
2556	0.9173
2547	0.9182
2538	0.9189
2529	0.9195
2520	0.9197
2511	0.9194
2502	0.9188
2493	0.9171
2484	0.9151
2475	0.9149
2466	0.9141
2457	0.9133
2448	0.9145
2439	0.9145
2430	0.9148
2421	0.9149
2412	0.9152
2403	0.9174
2394	0.9175
2385	0.9194
2376	0.9263
2367	0.9195
2358	0.9156
2349	0.9118
2340	0.9124
2331	0.9139
2322	0.9203
2313	0.92
2304	0.9168
2295	0.9165
2286	0.9181
2277	0.9213
2268	0.9221
2259	0.923
2250	0.9182
2241	0.9143
2232	0.9115
2223	0.9119
2214	0.9108
2205	0.9145
2196	0.9189
2187	0.9195
2178	0.9225
2169	0.9224
2160	0.9207
2151	0.9204
2142	0.9202
2133	0.9184
2124	0.9158
2115	0.9117
2106	0.9128
2097	0.9172
2088	0.9187
2079	0.9168
2070	0.9163
2061	0.916
2052	0.9168
2043	0.9151
2034	0.9143
2025	0.9142
2016	0.9138
2007	0.9114
1998	0.9078
1989	0.908
1980	0.9058
1971	0.9019
1962	0.9051
1953	0.904
1944	0.8977
1935	0.8793
1926	0.8711
1917	0.8969
1908	0.902
1899	0.9054
1890	0.9038
1881	0.9049
1872	0.9034
1863	0.899
1854	0.8997
1845	0.8993
1836	0.8979
1827	0.8923
1818	0.8862
1809	0.8735
1800	0.8576
1791	0.8713
1782	0.8924
1773	0.8956
1764	0.8965
1755	0.8998
1746	0.9013
1737	0.8965
1728	0.8997
1719	0.9004
1710	0.8989
1701	0.8959
1692	0.8909
1683	0.8824
1674	0.863
1665	0.8597
1656	0.8708
1647	0.8596
1638	0.8323
1629	0.7888
1620	0.6318
1611	0.2357
1602	0.6691
1593	0.7091
1584	0.621
1575	0.4022
1566	0.4729
1557	0.1659
1548	0.0002
1539	0.0438
1530	0.4532
1521	0.7124
1512	0.7804
1503	0.7786
1494	0.7819
1485	0.7238
1476	0.8297
1467	0.8561
1458	0.8671
1449	0.8687
1440	0.8704
1431	0.8721
1422	0.8536
1413	0.8204
1404	0.6168
1395	0.7499
1386	0.7543
1377	0.6665
1368	0.3784
1359	0.126
1350	0.2441
1341	0.3059
1332	0.2093
1323	0
1314	0.1806
1305	0.5299
1296	0.4888
1287	0.7176
1278	0.7943
1269	0.6867
1260	0.215
1251	0.5444
1242	0.8187
1233	0.8604
1224	0.8385
1215	0.804
1206	0.7521
1197	0.5722
1188	0.1981
1179	0.0186
1170	0.2427
1161	0.2308
1152	0.004
1143	0.0107
1134	0.265
1125	0.63
1116	0.6591
1107	0.7388
1098	0.6807
1089	0.3097
1080	0.1632
1071	0.7108
1062	0.8636
1053	0.8343
1044	0.4932
1035	0.4548
1026	0.8414
1017	0.8814
1008	0.9087
999	0.9253
990	0.9262
981	0.9214
972	0.9144
963	0.9204
954	0.9277
945	0.932
936	0.9266
927	0.9088
918	0.8543
909	0.6222
900	0.5114
891	0.6604
882	0.8754
873	0.8848
864	0.8793
855	0.924
846	0.8635
837	0.3648
828	0.7846
819	0.8791
810	0.8815
801	0.8616
792	0.4187
783	0.8672
774	0.8825
765	0.859
756	0.69
747	0.8395
738	0.8607
729	0.8523
720	0.7424
711	0.1623
702	0.791
693	0.8317
684	0.861
675	0.8423
666	0.645
657	0.8274
648	0.8187
639	0.832
630	0.8589
621	0.878
612	0.8909
603	0.8913
594	0.8812
585	0.8827
576	0.8906
567	0.8859
558	0.8402
549	0.8499
540	0.8885
531	0.8974
522	0.8903
513	0.8745
504	0.8419
495	0.7519
486	0.7855
477	0.7718
468	0.6896
459	0.4804
450	0.6839
441	0.6519
432	0.5892
423	0.4373
414	0.2668
405	0.1827
