Infrared Spectrum: 3,5-Bis(trifluoromethyl)phenol
Formula: C 8 H 4 F 6 O
CAS: 349-58-6
State: gas
Origin: EPA-IR VAPOR PHASE LIBRARY
1/CM	ABSORBANCE
549.8	0.0154147
559.445	0.0095847
569.09	0.0102947
578.734	0.0118347
588.379	0.0130347
598.024	0.0220947
607.669	0.0306247
617.313	0.0340247
626.958	0.0224747
636.603	0.0106447
646.248	0.0083347
655.893	0.0099847
665.537	0.0193847
675.182	0.0937347
684.827	0.407525
694.472	0.174475
704.116	0.146685
713.761	0.0514247
723.406	0.100095
733.051	0.133615
742.695	0.0267047
752.34	0.0079147
761.985	0.0082947
771.63	0.0074047
781.275	0.0064247
790.919	0.0069647
800.564	0.0080347
810.209	0.0087647
819.854	0.0120347
829.498	0.0284447
839.143	0.101055
848.788	0.172215
858.433	0.120785
868.078	0.168165
877.722	0.191875
887.367	0.246315
897.012	0.137835
906.657	0.0556247
916.301	0.0661747
925.946	0.181255
935.591	0.579095
945.236	0.562565
954.88	0.103865
964.525	0.0410047
974.17	0.0450147
983.815	0.0469747
993.46	0.0524547
1003.1	0.0684447
1012.75	0.0398947
1022.39	0.0197447
1032.04	0.0175247
1041.68	0.0178347
1051.33	0.0206447
1060.97	0.0221647
1070.62	0.0273547
1080.26	0.0476447
1089.91	0.0880347
1099.55	0.204795
1109.2	0.217005
1118.84	0.146805
1128.49	0.235675
1138.13	0.709565
1147.78	1.48864
1157.42	1.62836
1167.07	1.4165
1176.71	1.56745
1186.36	1.54957
1196	1.07884
1205.64	0.465745
1215.29	0.285365
1224.93	0.241725
1234.58	0.238135
1244.22	0.213475
1253.87	0.222355
1263.51	0.467845
1273.16	1.47824
1282.8	1.58215
1292.45	0.945765
1302.09	0.286505
1311.74	0.130115
1321.38	0.123035
1331.03	0.0952347
1340.67	0.0696047
1350.32	0.0784447
1359.96	0.168775
1369.61	0.554615
1379.25	1.27819
1388.9	1.15174
1398.54	0.278675
1408.18	0.0829247
1417.83	0.0588647
1427.47	0.0510247
1437.12	0.0605847
1446.76	0.137565
1456.41	0.311825
1466.05	0.277535
1475.7	0.140645
1485.34	0.103735
1494.99	0.0802547
1504.63	0.0435747
1514.28	0.0278747
1523.92	0.0231547
1533.57	0.0240747
1543.21	0.0243647
1552.86	0.0263847
1562.5	0.0283847
1572.15	0.0328747
1581.79	0.0440747
1591.44	0.0626847
1601.08	0.111205
1610.73	0.154465
1620.37	0.139455
1630.01	0.141305
1639.66	0.0924347
1649.3	0.0310447
1658.95	0.0179247
1668.59	0.0137847
1678.24	0.0131847
1687.88	0.0106247
1697.53	0.0087547
1707.17	0.0096547
1716.82	0.0121147
1726.46	0.0169247
1736.11	0.0201647
1745.75	0.0174547
1755.4	0.0199347
1765.04	0.0280747
1774.69	0.0363747
1784.33	0.0327547
1793.98	0.0194647
1803.62	0.0109547
1813.27	0.0082747
1822.91	0.0072447
1832.55	0.0064447
1842.2	0.0049947
1851.84	0.0048047
1861.49	0.0048047
1871.13	0.0049347
1880.78	0.0062047
1890.42	0.0057847
1900.07	0.0056247
1909.71	0.0063747
1919.36	0.0048347
1929	0.0037047
1938.65	0.0040647
1948.29	0.0038147
1957.94	0.0026347
1967.58	0.0024347
1977.23	0.0033147
1986.87	0.0051147
1996.52	0.0072047
2006.16	0.0085347
2015.81	0.0071747
2025.45	0.0056047
2035.1	0.0049047
2044.74	0.0032547
2054.38	0.0023347
2064.03	0.0024747
2073.67	0.0035047
2083.32	0.0044747
2092.96	0.0052947
2102.61	0.0060447
2112.25	0.0073147
2121.9	0.0074647
2131.54	0.0066447
2141.19	0.0053647
2150.83	0.0052147
2160.48	0.0072047
2170.12	0.0106147
2179.77	0.0092247
2189.41	0.0049547
2199.06	0.0039947
2208.7	0.0053147
2218.35	0.0079547
2227.99	0.0096647
2237.64	0.0091247
2247.28	0.0076347
2256.92	0.0074847
2266.57	0.0083747
2276.21	0.0097147
2285.86	0.0111747
2295.5	0.0119447
2305.15	0.0098947
2314.79	0.0091047
2324.44	0.0103247
2334.08	0.0119947
2343.73	0.0112447
2353.37	0.0107847
2363.02	0.0106647
2372.66	0.0097947
2382.31	0.0097147
2391.95	0.0101747
2401.6	0.0108347
2411.24	0.0106347
2420.89	0.0103247
2430.53	0.0090647
2440.18	0.0065447
2449.82	0.0063847
2459.47	0.0069447
2469.11	0.0060147
2478.75	0.0052247
2488.4	0.0039947
2498.04	0.0031747
2507.69	0.0030647
2517.33	0.0033347
2526.98	0.0037647
2536.62	0.0046347
2546.27	0.0060247
2555.91	0.0075247
2565.56	0.0072147
2575.2	0.0060047
2584.85	0.0037647
2594.49	0.0028947
2604.14	0.0031947
2613.78	0.0042247
2623.43	0.0040947
2633.07	0.0047547
2642.72	0.0062547
2652.36	0.0077147
2662.01	0.0081747
2671.65	0.0054647
2681.29	0.0036647
2690.94	0.0029247
2700.58	0.0028447
2710.23	0.0021647
2719.87	0.0014447
2729.52	0.0012947
2739.16	0.0011447
2748.81	0.0020947
2758.45	0.0028647
2768.1	0.0028847
2777.74	0.0019747
2787.39	0.0018547
2797.03	0.0015447
2806.68	0.0012547
2816.32	0.0012747
2825.97	0.0013747
2835.61	0.0013147
2845.26	0.0015347
2854.9	0.0014947
2864.55	0.0015347
2874.19	0.0017447
2883.84	0.0015847
2893.48	0.0016747
2903.12	0.0015947
2912.77	0.0020147
2922.41	0.0018647
2932.06	0.0020747
2941.7	0.0024347
2951.35	0.0019147
2960.99	0.0019147
2970.64	0.0016647
2980.28	0.0021247
2989.93	0.0025947
2999.57	0.0034547
3009.22	0.0039347
3018.86	0.0034847
3028.51	0.0033147
3038.15	0.0065247
3047.8	0.0142247
3057.44	0.0170847
3067.09	0.0113747
3076.73	0.0090547
3086.38	0.0075447
3096.02	0.0063647
3105.67	0.0044847
3115.31	0.0028047
3124.95	0.0016947
3134.6	0.0009848
3144.24	0.0009236
3153.89	0.0005164
3163.53	0.000257
3173.18	0.0004523
3182.82	0.0007276
3192.47	0.0005103
3202.11	0.0007458
3211.76	0.0006592
3221.4	0.0007513
3231.05	0.0008806
3240.69	0.0010847
3250.34	0.0012547
3259.98	0.0012147
3269.63	0.0005819
3279.27	0.0006787
3288.92	0.0007692
3298.56	0.0009094
3308.21	0.0006667
3317.85	0.0017347
3327.49	0.0040747
3337.14	0.0053747
3346.78	0.0044747
3356.43	0.0045647
3366.07	0.0046847
3375.72	0.0039947
3385.36	0.0032447
3395.01	0.0027847
3404.65	0.0025147
3414.3	0.0027347
3423.94	0.0030047
3433.59	0.0024147
3443.23	0.0020347
3452.88	0.0021547
3462.52	0.0017547
3472.17	0.0015747
3481.81	0.0012447
3491.46	0.0014347
3501.1	0.0014547
3510.75	0.0012347
3520.39	0.0009313
3530.04	0.0008023
3539.68	0.0010314
3549.32	0.0010382
3558.97	0.0018147
3568.61	0.0013547
3578.26	0.0019447
3587.9	0.0026147
3597.55	0.0038147
3607.19	0.0066647
3616.84	0.0133647
3626.48	0.0348347
3636.13	0.142135
3645.77	0.442575
3655.42	0.338045
3665.06	0.0410947
3674.71	0.0074947
3684.35	0.0035847
3694	0.0026247
3703.64	0.0015147
3713.29	0.0011247
3722.93	0.0008372
3732.58	0.0010331
3742.22	0.0014847
3751.86	0.0012947
3761.51	0.0009395
3771.15	0.0013947
3780.8	0.0014847
3790.44	0.0014547
3800.09	0.0014547
3809.73	0.0014847
3819.38	0.0019247
3829.02	0.0020947
3838.67	0.0024147
3848.31	0.0028047
3857.96	0.0026247
3867.6	0.0031647
3877.25	0.0032947
3886.89	0.0030447
3896.54	0.0027747
3906.18	0.0025247
3915.83	0.0031547
3925.47	0.0042247
3935.12	0.0037747
3944.76	0.0031347
3954.41	0.0032747
3964.05	0.0044747
3973.69	0.0026047
3983.34	0.0013647
3992.98	0.0003578
