Infrared Spectrum: 4-Chloro-3-nitrobenzenesulfonyl fluoride
Formula: C6 H3 Cl F N O4 S
CAS: 349-04-2
State: SOLID (SPLIT MULL)
Melting point: 61 C
Class: COBLENTZ III
Instrument: BECKMAN IR-9 (GRATING)
Instrument parameters: ORDER CHANGES: 670, 1200, 2000 CM^-^1
Sampling: TRANSMISSION
Resolution: 2
Origin: DOW CHEMICAL COMPANY
1/CM	TRANSMITTANCE
423	0.6821
432	0.7369
441	0.8033
450	0.8531
459	0.8791
468	0.885
477	0.8328
486	0.8306
495	0.3716
504	0.1429
513	0.872
522	0.9157
531	0.5646
540	0.6575
549	0.9175
558	0.945
567	0.9275
576	0.8511
585	0.6024
594	0.1338
603	0.2081
612	0.7771
621	0.9525
630	0.9021
639	0.3243
648	0.971
657	0.8377
666	0.1741
675	1.0486
684	1.0646
693	1.0386
702	0.9068
711	0.9558
720	0.9187
729	0.8242
738	0.8197
747	0.7451
756	0.1585
765	0.1632
774	0.6461
783	0.6994
792	0.3778
801	0.059
810	0.105
819	0.5856
828	0.8135
837	0.8757
846	0.796
855	0.5573
864	0.8792
873	0.8653
882	0.6717
891	0.3966
900	0.1353
909	0.6715
918	0.9108
927	0.9685
936	0.9694
945	0.9623
954	0.9478
963	0.9306
972	0.9098
981	0.798
990	0.911
999	0.8904
1008	0.8696
1017	0.8564
1026	0.8188
1035	0.7548
1044	0.6368
1053	0.267
1062	0.6908
1071	0.932
1080	0.8937
1089	0.9049
1098	0.8597
1107	0.595
1116	0.765
1125	0.778
1134	0.7147
1143	0.4801
1152	0.656
1161	0.5774
1170	0.5675
1179	0.5488
1188	0.4246
1197	0.276
1206	0.0867
1215	0.0119
1224	0.1642
1233	0.3395
1242	0.628
1251	0.7511
1260	0.7368
1269	0.7565
1278	0.7389
1287	0.7111
1296	0.6134
1305	0.7341
1314	0.6926
1323	0.6036
1332	0.5196
1341	0.4735
1350	0.2434
1359	0.0971
1368	0.1356
1377	0.69
1386	0.705
1395	0.6478
1404	0.4166
1413	0.3537
1422	0.0308
1431	0.318
1440	0.8675
1449	0.8874
1458	0.7662
1467	0.6828
1476	0.7989
1485	0.8524
1494	0.7848
1503	0.6862
1512	0.5691
1521	0.4888
1530	0.2328
1539	0.0162
1548	0.297
1557	0.6291
1566	0.5366
1575	0.4649
1584	0.6822
1593	0.2048
1602	0.6418
1611	0.7315
1620	0.9418
1629	1.0152
1638	1.0117
1647	0.9935
1656	0.9792
1665	0.9838
1674	0.9868
1683	0.9836
1692	0.96
1701	0.9365
1710	0.9809
1719	0.9789
1728	0.9778
1737	0.9778
1746	0.9633
1755	0.9588
1764	0.9535
1773	0.949
1782	0.9435
1791	0.9374
1800	0.9268
1809	0.9105
1818	0.8778
1827	0.8752
1836	0.9007
1845	0.93
1854	0.9216
1863	0.9158
1872	0.9161
1881	0.9152
1890	0.9137
1899	0.9121
1908	0.9108
1917	0.9094
1926	0.9094
1935	0.9062
1944	0.8999
1953	0.8841
1962	0.8447
1971	0.8712
1980	0.8849
1989	0.8886
1998	0.8859
2007	0.8834
2016	0.8814
2025	0.8788
2034	0.8761
2043	0.8746
2052	0.8725
2061	0.87
2070	0.8671
2079	0.8649
2088	0.8616
2097	0.8574
2106	0.8532
2115	0.8489
2124	0.8445
2133	0.8401
2142	0.8355
2151	0.8306
2160	0.8258
2169	0.8209
2178	0.816
2187	0.8111
2196	0.8062
2205	0.8014
2214	0.7962
2223	0.791
2232	0.7858
2241	0.7804
2250	0.7749
2259	0.7697
2268	0.7656
2277	0.7614
2286	0.7571
2295	0.7533
2304	0.7495
2313	0.7458
2322	0.7421
2331	0.7401
2340	0.7384
2349	0.7384
2358	0.7382
2367	0.7381
2376	0.7371
2385	0.7331
2394	0.7288
2403	0.7254
2412	0.7219
2421	0.7182
2430	0.7145
2439	0.7133
2448	0.7157
2457	0.7178
2466	0.7195
2475	0.7199
2484	0.7197
2493	0.7181
2502	0.7165
2511	0.7142
2520	0.7121
2529	0.7095
2538	0.7068
2547	0.7036
2556	0.6994
2565	0.6951
2574	0.6898
2583	0.6839
2592	0.6794
2601	0.6781
2610	0.6756
2619	0.6705
2628	0.6571
2637	0.6661
2646	0.6725
2655	0.6704
2664	0.6674
2673	0.6636
2682	0.6603
2691	0.6569
2700	0.6539
2709	0.6498
2718	0.6458
2727	0.6433
2736	0.6412
2745	0.6412
2754	0.6411
2763	0.6394
2772	0.6367
2781	0.6332
2790	0.6297
2799	0.626
2808	0.6225
2817	0.6182
2826	0.6139
2835	0.6092
2844	0.6038
2853	0.5985
2862	0.5908
2871	0.5823
2880	0.5659
2889	0.5536
2898	0.5548
2907	0.563
2916	0.5736
2925	0.5716
2934	0.5679
2943	0.564
2952	0.56
2961	0.5558
2970	0.5512
2979	0.5462
2988	0.541
2997	0.5381
3006	0.5364
3015	0.5147
3024	0.4917
3033	0.4878
3042	0.4893
3051	0.4981
3060	0.499
3069	0.4356
3078	0.3516
3087	0.3573
3096	0.1394
3105	0.3839
3114	0.543
3123	0.5529
3132	0.5597
3141	0.5575
3150	0.5549
3159	0.5525
3168	0.5502
3177	0.548
3186	0.5458
3195	0.5436
3204	0.5412
3213	0.5383
3222	0.5355
3231	0.5325
3240	0.5294
3249	0.526
3258	0.523
3267	0.5197
3276	0.5169
3285	0.5143
3294	0.5116
3303	0.5089
3312	0.5065
3321	0.5043
3330	0.5022
3339	0.5001
3348	0.498
3357	0.4958
3366	0.4937
3375	0.4916
3384	0.4895
3393	0.4874
3402	0.4852
3411	0.4828
3420	0.4805
3429	0.478
3438	0.4757
3447	0.4728
3456	0.4699
3465	0.4674
3474	0.4659
3483	0.4643
3492	0.4627
3501	0.461
3510	0.4591
3519	0.4573
3528	0.4554
3537	0.4535
3546	0.4517
3555	0.4491
3564	0.4467
3573	0.4438
3582	0.4371
3591	0.4286
3600	0.4284
3609	0.4301
3618	0.4315
3627	0.4309
3636	0.4294
3645	0.4273
3654	0.4255
3663	0.4238
3672	0.4219
3681	0.4199
3690	0.418
3699	0.4162
3708	0.4146
3717	0.413
3726	0.4112
3735	0.4095
3744	0.4077
3753	0.4057
3762	0.4037
3771	0.4016
3780	0.4
3789	0.3984
3798	0.3968
