Infrared Spectrum: 1,3-Diethoxy-2-propanol
Formula: C 7 H 16 O 3
CAS: 34923-32-5
State: gas
Origin: EPA-IR VAPOR PHASE LIBRARY
1/CM	ABSORBANCE
501.5	0.00217
513.074	0.00241
524.648	0.00229
536.222	0.00207
547.796	0.00204
559.37	0.00217
570.944	0.00208
582.518	0.00209
594.092	0.00178
605.666	0.00145
617.24	0.00153
628.814	0.00181
640.388	0.00195
651.962	0.00224
663.536	0.00228
675.11	0.00163
686.684	0.00123
698.258	0.00111
709.832	0.00106
721.406	0.0008797
732.98	0.0008968
744.554	0.0009109
756.128	0.0008602
767.702	0.0009372
779.276	0.00118
790.85	0.00147
802.423	0.00193
813.997	0.00227
825.571	0.00295
837.145	0.00411
848.719	0.00515
860.293	0.00563
871.867	0.00644
883.441	0.00667
895.015	0.0059
906.589	0.00518
918.163	0.00528
929.737	0.00665
941.311	0.00734
952.885	0.00652
964.459	0.00647
976.033	0.00816
987.607	0.01086
999.181	0.01251
1010.76	0.01303
1022.33	0.01392
1033.9	0.01684
1045.48	0.02148
1057.05	0.0289
1068.63	0.0373
1080.2	0.04337
1091.77	0.05462
1103.35	0.07577
1114.92	0.10298
1126.49	0.11326
1138.07	0.08893
1149.64	0.05263
1161.22	0.03119
1172.79	0.02268
1184.36	0.01566
1195.94	0.0106
1207.51	0.00961
1219.09	0.01081
1230.66	0.01167
1242.23	0.01131
1253.81	0.01102
1265.38	0.01063
1276.96	0.01012
1288.53	0.00961
1300.1	0.00991
1311.68	0.01053
1323.25	0.01276
1334.83	0.01348
1346.4	0.01263
1357.97	0.01293
1369.55	0.01393
1381.12	0.0187
1392.7	0.0192
1404.27	0.01463
1415.84	0.01031
1427.42	0.00743
1438.99	0.00692
1450.57	0.00822
1462.14	0.00911
1473.71	0.00772
1485.29	0.00588
1496.86	0.00381
1508.44	0.00233
1520.01	0.00167
1531.58	0.00132
1543.16	0.00106
1554.73	0.0008956
1566.31	0.0007825
1577.88	0.0007297
1589.45	0.0007153
1601.03	0.0007111
1612.6	0.0007045
1624.18	0.0006847
1635.75	0.0006551
1647.32	0.0006095
1658.9	0.0005853
1670.47	0.0005385
1682.05	0.0004883
1693.62	0.0004685
1705.19	0.0004005
1716.77	0.000404
1728.34	0.0003895
1739.92	0.0003721
1751.49	0.0003821
1763.06	0.0003808
1774.64	0.0003597
1786.21	0.0003431
1797.79	0.0003191
1809.36	0.0003038
1820.93	0.0002698
1832.51	0.0002746
1844.08	0.0002969
1855.66	0.0003279
1867.23	0.0003985
1878.8	0.0004392
1890.38	0.000525
1901.95	0.0005808
1913.53	0.0007021
1925.1	0.0008101
1936.67	0.000918
1948.25	0.00101
1959.82	0.00109
1971.4	0.00116
1982.97	0.00126
1994.54	0.00128
2006.12	0.00122
2017.69	0.00109
2029.27	0.0009081
2040.84	0.0007455
2052.41	0.0006494
2063.99	0.0006076
2075.56	0.0006142
2087.14	0.000671
2098.71	0.0007638
2110.28	0.0008389
2121.86	0.0008617
2133.43	0.0008846
2145.01	0.0008245
2156.58	0.0007533
2168.15	0.0006841
2179.73	0.0006498
2191.3	0.0006085
2202.88	0.0006286
2214.45	0.0006723
2226.02	0.0006912
2237.6	0.0007199
2249.17	0.0007338
2260.74	0.0007251
2272.32	0.0006849
2283.89	0.0006129
2295.47	0.0005329
2307.04	0.0005147
2318.61	0.000478
2330.19	0.0004676
2341.76	0.0004507
2353.34	0.0004993
2364.91	0.0004608
2376.48	0.0005166
2388.06	0.0005338
2399.63	0.0005535
2411.21	0.0005514
2422.78	0.0005568
2434.35	0.0005521
2445.93	0.0005375
2457.5	0.0005125
2469.08	0.000537
2480.65	0.000503
2492.22	0.0005133
2503.8	0.0005246
2515.37	0.0004989
2526.95	0.0005068
2538.52	0.0005714
2550.09	0.0005786
2561.67	0.0006635
2573.24	0.0007573
2584.82	0.0008485
2596.39	0.00105
2607.96	0.00113
2619.54	0.00119
2631.11	0.00122
2642.69	0.00125
2654.26	0.00134
2665.83	0.00147
2677.41	0.00169
2688.98	0.00204
2700.56	0.00252
2712.13	0.00302
2723.7	0.00346
2735.28	0.00386
2746.85	0.00426
2758.43	0.0048
2770	0.00544
2781.57	0.00634
2793.15	0.0076
2804.72	0.00912
2816.3	0.01085
2827.87	0.01321
2839.44	0.01809
2851.02	0.02748
2862.59	0.04165
2874.17	0.0541
2885.74	0.05324
2897.31	0.04524
2908.89	0.04298
2920.46	0.04239
2932.04	0.04451
2943.61	0.044
2955.18	0.03388
2966.76	0.03221
2978.33	0.04184
2989.91	0.03415
3001.48	0.01692
3013.05	0.00946
3024.63	0.00639
3036.2	0.00458
3047.78	0.00335
3059.35	0.00242
3070.92	0.00192
3082.5	0.0016
3094.07	0.00137
3105.65	0.00124
3117.22	0.00122
3128.79	0.00111
3140.37	0.00103
3151.94	0.000908
3163.52	0.0009194
3175.09	0.0008964
3186.66	0.0008157
3198.24	0.0008016
3209.81	0.0008022
3221.39	0.0006882
3232.96	0.0006403
3244.53	0.0005404
3256.11	0.0005337
3267.68	0.0005149
3279.26	0.0004717
3290.83	0.0004607
3302.4	0.0005191
3313.98	0.0004844
3325.55	0.0004161
3337.13	0.000393
3348.7	0.0004008
3360.27	0.0004175
3371.85	0.0004201
3383.42	0.0005086
3395	0.0004608
3406.57	0.0004408
3418.14	0.0005051
3429.72	0.0004929
3441.29	0.0004644
3452.86	0.0004942
3464.44	0.0004946
3476.01	0.0004643
3487.59	0.000542
3499.16	0.0006105
3510.73	0.0006118
3522.31	0.0006925
3533.88	0.0008393
3545.46	0.0009999
3557.03	0.00128
3568.6	0.00153
3580.18	0.00226
3591.75	0.00405
3603.33	0.00776
3614.9	0.01035
3626.47	0.00938
3638.05	0.0051
3649.62	0.0028
3661.2	0.00166
3672.77	0.00104
3684.34	0.0008673
3695.92	0.0007412
3707.49	0.0006963
3719.07	0.0006117
3730.64	0.0006036
3742.21	0.000611
3753.79	0.0005785
3765.36	0.0005759
3776.94	0.0005899
3788.51	0.0006041
3800.08	0.0005331
3811.66	0.0005725
3823.23	0.0004905
3834.81	0.0004802
3846.38	0.0005533
3857.95	0.000532
3869.53	0.0005083
3881.1	0.0004954
3892.68	0.0005372
3904.25	0.0005847
3915.82	0.0005719
3927.4	0.0006339
3938.97	0.0006817
3950.55	0.0006663
3962.12	0.0006962
3973.69	0.0008541
3985.27	0.0009523
3996.84	0.0009394
