Infrared Spectrum: 1,3-DIOXANE, 2,4-DIISOPROPYL-5,5-DIMETHYL-
Formula: C12 H24 O2
CAS: 3494-76-6
Boiling point: 203-205 C
Class: COBLENTZ
Instrument: Not specified, most likely a prism, grating, or hybrid spectrometer.
Sampling: TRANSMISSION
Path length: SMEAR
Resolution: 4
Origin: TENNESSEE EASTMAN COMPANY, RESEARCH LABORATORIES
MICROMETERS	TRANSMITTANCE
2.068	0.998
2.10888	0.998
2.14975	1
2.19063	1
2.23151	0.993
2.27238	0.96
2.31326	0.948
2.35413	0.95
2.39501	0.958
2.43589	0.958
2.47676	0.958
2.51764	0.974
2.55852	0.979
2.59939	0.977
2.64027	0.979
2.68115	0.986
2.72202	0.989
2.7629	0.991
2.80378	0.991
2.84465	0.991
2.88553	0.989
2.9264	0.989
2.96728	0.989
3.00816	0.988
3.04903	0.988
3.08991	0.986
3.13079	0.969
3.17166	0.945
3.21254	0.943
3.25342	0.952
3.29429	0.929
3.33517	0.748
3.37604	0.16
3.41692	0.263
3.4578	0.361
3.49867	0.4
3.53955	0.342
3.58043	0.655
3.6213	0.708
3.66218	0.768
3.70306	0.758
3.74393	0.763
3.78481	0.815
3.82569	0.854
3.86656	0.873
3.90744	0.914
3.94831	0.936
3.98919	0.952
4.03007	0.95
4.07094	0.95
4.11182	0.953
4.1527	0.953
4.19357	0.957
4.23445	0.955
4.27533	0.952
4.3162	0.941
4.35708	0.934
4.39795	0.941
4.43883	0.95
4.47971	0.952
4.52058	0.952
4.56146	0.952
4.60234	0.95
4.64321	0.941
4.68409	0.94
4.72497	0.941
4.76584	0.94
4.80672	0.938
4.84759	0.941
4.88847	0.941
4.92935	0.94
4.97022	0.94
5.0111	0.946
5.05198	0.95
5.09285	0.95
5.13373	0.948
5.17461	0.953
5.21548	0.957
5.25636	0.957
5.29724	0.957
5.33811	0.962
5.37899	0.962
5.41986	0.962
5.46074	0.962
5.50162	0.962
5.54249	0.962
5.58337	0.962
5.62425	0.962
5.66512	0.962
5.706	0.958
5.74688	0.955
5.78775	0.95
5.82863	0.945
5.8695	0.945
5.91038	0.943
5.95126	0.94
5.99213	0.934
6.03301	0.934
6.07389	0.94
6.11476	0.931
6.15564	0.936
6.19652	0.936
6.23739	0.936
6.27827	0.938
6.31915	0.943
6.36002	0.943
6.4009	0.941
6.44177	0.926
6.48265	0.934
6.52353	0.916
6.5644	0.914
6.60528	0.892
6.64616	0.849
6.68703	0.803
6.72791	0.589
6.76879	0.363
6.80966	0.323
6.85054	0.4
6.89141	0.508
6.93229	0.642
6.97317	0.732
7.01404	0.773
7.05492	0.763
7.0958	0.619
7.13667	0.407
7.17755	0.368
7.21843	0.424
7.2593	0.546
7.30018	0.472
7.34106	0.422
7.38193	0.452
7.42281	0.633
7.46368	0.803
7.50456	0.803
7.54544	0.801
7.58631	0.777
7.62719	0.797
7.66807	0.761
7.70894	0.69
7.74982	0.698
7.7907	0.707
7.83157	0.717
7.87245	0.727
7.91332	0.815
7.9542	0.851
7.99508	0.857
8.03595	0.859
8.07683	0.851
8.11771	0.787
8.15858	0.599
8.19946	0.657
8.24034	0.698
8.28121	0.741
8.32209	0.719
8.36296	0.578
8.40384	0.496
8.44472	0.544
8.48559	0.522
8.52647	0.587
8.56735	0.553
8.60822	0.465
8.6491	0.438
8.68998	0.39
8.73085	0.354
8.77173	0.285
8.81261	0.285
8.85348	0.26
8.89436	0.22
8.93523	0.203
8.97611	0.196
9.01699	0.171
9.05786	0.154
9.09874	0.217
9.13962	0.304
9.18049	0.335
9.22137	0.458
9.26225	0.578
9.30312	0.628
9.344	0.636
9.38487	0.618
9.42575	0.53
9.46663	0.378
9.5075	0.258
9.54838	0.229
9.58926	0.275
9.63013	0.364
9.67101	0.428
9.71189	0.505
9.75276	0.559
9.79364	0.525
9.83452	0.39
9.87539	0.299
9.91627	0.289
9.95714	0.364
9.99802	0.414
10.0389	0.4
10.0798	0.419
10.1206	0.457
10.1615	0.458
10.2024	0.45
10.2433	0.457
10.2842	0.52
10.325	0.559
10.3659	0.559
10.4068	0.515
10.4477	0.467
10.4885	0.479
10.5294	0.558
10.5703	0.585
10.6112	0.556
10.652	0.53
10.6929	0.549
10.7338	0.619
10.7747	0.619
10.8155	0.592
10.8564	0.625
10.8973	0.678
10.9382	0.726
10.9791	0.679
11.0199	0.601
11.0608	0.676
11.1017	0.792
11.1426	0.833
11.1834	0.844
11.2243	0.839
11.2652	0.845
11.3061	0.871
11.3469	0.888
11.3878	0.898
11.4287	0.9
11.4696	0.895
11.5104	0.84
11.5513	0.803
11.5922	0.849
11.6331	0.859
11.674	0.857
11.7148	0.861
11.7557	0.88
11.7966	0.888
11.8375	0.888
11.8783	0.888
11.9192	0.888
11.9601	0.888
12.001	0.89
12.0418	0.893
12.0827	0.897
12.1236	0.9
12.1645	0.907
12.2053	0.914
12.2462	0.914
12.2871	0.917
12.328	0.917
12.3689	0.917
12.4097	0.917
12.4506	0.914
12.4915	0.91
12.5324	0.907
12.5732	0.905
12.6141	0.898
12.655	0.886
12.6959	0.842
12.7367	0.772
12.7776	0.712
12.8185	0.763
12.8594	0.83
12.9002	0.857
12.9411	0.873
12.982	0.878
13.0229	0.886
13.0638	0.886
13.1046	0.886
13.1455	0.885
13.1864	0.888
13.2273	0.888
13.2681	0.886
13.309	0.885
13.3499	0.881
13.3908	0.88
13.4316	0.878
13.4725	0.878
13.5134	0.873
13.5543	0.869
13.5951	0.864
13.636	0.863
13.6769	0.859
13.7178	0.856
13.7586	0.854
13.7995	0.851
13.8404	0.844
13.8813	0.84
13.9222	0.839
13.963	0.833
14.0039	0.832
14.0448	0.827
14.0857	0.821
14.1265	0.818
14.1674	0.813
14.2083	0.809
14.2492	0.804
14.29	0.797
14.3309	0.789
14.3718	0.777
14.4127	0.761
14.4535	0.739
14.4944	0.715
14.5353	0.702
14.5762	0.69
14.6171	0.688
14.6579	0.688
14.6988	0.686
14.7397	0.672
14.7806	0.652
14.8214	0.643
14.8623	0.643
14.9032	0.654
14.9441	0.667
14.9849	0.674
15.0258	0.676
15.0667	0.676
15.1076	0.662
15.1484	0.652
15.1893	0.643
15.2302	0.64
15.2711	0.635
15.312	0.633
15.3528	0.633
15.3937	0.633
15.4346	0.633
15.4755	0.633
15.5163	0.633
15.5572	0.635
15.5981	0.635
15.639	0.635
15.6798	0.635
15.7207	0.633
15.7616	0.631
15.8025	0.63
15.8433	0.63
15.8842	0.626
15.9251	0.626
15.966	0.626
