Infrared Spectrum: 2,3-Dimethoxybenzyl isothiocyanate
Formula: C 10 H 11 N O 2 S
CAS: 34964-55-1
State: gas
Origin: EPA-IR VAPOR PHASE LIBRARY
1/CM	ABSORBANCE
549.8	0.013804
559.445	0.012654
569.09	0.011464
578.734	0.009814
588.379	0.007974
598.024	0.007304
607.669	0.006344
617.313	0.005174
626.958	0.004754
636.603	0.004714
646.248	0.004934
655.893	0.005644
665.537	0.007674
675.182	0.013134
684.827	0.022544
694.472	0.027864
704.116	0.022184
713.761	0.016794
723.406	0.014774
733.051	0.022154
742.695	0.045984
752.34	0.039124
761.985	0.018014
771.63	0.012014
781.275	0.011054
790.919	0.011844
800.564	0.014894
810.209	0.016324
819.854	0.010114
829.498	0.004894
839.143	0.002894
848.788	0.002124
858.433	0.002204
868.078	0.002374
877.722	0.002894
887.367	0.003904
897.012	0.004924
906.657	0.006454
916.301	0.006754
925.946	0.005974
935.591	0.006284
945.236	0.007174
954.88	0.009044
964.525	0.010204
974.17	0.009584
983.815	0.012194
993.46	0.021524
1003.1	0.042804
1012.75	0.058194
1022.39	0.042154
1032.04	0.032954
1041.68	0.038124
1051.33	0.040134
1060.97	0.042044
1070.62	0.050124
1080.26	0.056154
1089.91	0.051304
1099.55	0.034584
1109.2	0.022504
1118.84	0.015434
1128.49	0.010444
1138.13	0.008424
1147.78	0.009714
1157.42	0.013634
1167.07	0.022674
1176.71	0.025354
1186.36	0.021794
1196	0.021724
1205.64	0.028874
1215.29	0.044324
1224.93	0.060904
1234.58	0.059524
1244.22	0.050264
1253.87	0.060744
1263.51	0.087534
1273.16	0.138644
1282.8	0.144734
1292.45	0.092534
1302.09	0.056934
1311.74	0.039854
1321.38	0.037574
1331.03	0.061124
1340.67	0.090934
1350.32	0.046954
1359.96	0.023534
1369.61	0.016654
1379.25	0.011694
1388.9	0.009644
1398.54	0.009624
1408.18	0.012354
1417.83	0.022134
1427.47	0.046984
1437.12	0.059594
1446.76	0.056734
1456.41	0.054904
1466.05	0.078084
1475.7	0.138414
1485.34	0.134154
1494.99	0.057364
1504.63	0.023524
1514.28	0.013994
1523.92	0.010284
1533.57	0.008414
1543.21	0.007584
1552.86	0.007504
1562.5	0.008834
1572.15	0.013194
1581.79	0.023284
1591.44	0.029444
1601.08	0.019694
1610.73	0.011114
1620.37	0.006634
1630.01	0.004674
1639.66	0.003764
1649.3	0.003214
1658.95	0.002814
1668.59	0.002594
1678.24	0.002734
1687.88	0.002824
1697.53	0.002924
1707.17	0.002754
1716.82	0.002594
1726.46	0.002484
1736.11	0.002574
1745.75	0.002524
1755.4	0.002414
1765.04	0.002504
1774.69	0.002614
1784.33	0.002664
1793.98	0.002864
1803.62	0.003164
1813.27	0.003884
1822.91	0.004164
1832.55	0.003944
1842.2	0.003704
1851.84	0.003724
1861.49	0.003914
1871.13	0.004474
1880.78	0.005374
1890.42	0.006814
1900.07	0.008494
1909.71	0.009844
1919.36	0.011184
1929	0.013584
1938.65	0.017184
1948.29	0.022194
1957.94	0.028774
1967.58	0.037444
1977.23	0.049024
1986.87	0.065514
1996.52	0.088814
2006.16	0.120404
2015.81	0.160534
2025.45	0.206854
2035.1	0.255214
2044.74	0.299104
2054.38	0.325004
2064.03	0.319664
2073.67	0.285184
2083.32	0.235524
2092.96	0.178824
2102.61	0.130364
2112.25	0.097244
2121.9	0.076794
2131.54	0.065604
2141.19	0.060244
2150.83	0.058574
2160.48	0.059524
2170.12	0.060834
2179.77	0.058884
2189.41	0.051764
2199.06	0.041814
2208.7	0.033004
2218.35	0.026824
2227.99	0.022404
2237.64	0.018764
2247.28	0.014984
2256.92	0.011864
2266.57	0.009534
2276.21	0.007964
2285.86	0.006884
2295.5	0.005764
2305.15	0.004744
2314.79	0.004084
2324.44	0.003634
2334.08	0.003394
2343.73	0.003044
2353.37	0.002794
2363.02	0.002564
2372.66	0.002474
2382.31	0.002624
2391.95	0.002524
2401.6	0.002304
2411.24	0.002094
2420.89	0.001914
2430.53	0.001914
2440.18	0.002024
2449.82	0.002104
2459.47	0.002084
2469.11	0.002084
2478.75	0.002394
2488.4	0.002524
2498.04	0.002684
2507.69	0.002774
2517.33	0.002934
2526.98	0.002924
2536.62	0.003104
2546.27	0.003174
2555.91	0.003204
2565.56	0.003114
2575.2	0.002914
2584.85	0.002434
2594.49	0.002384
2604.14	0.002274
2613.78	0.002134
2623.43	0.002074
2633.07	0.002144
2642.72	0.002284
2652.36	0.002424
2662.01	0.002524
2671.65	0.002624
2681.29	0.002694
2690.94	0.002854
2700.58	0.003134
2710.23	0.003254
2719.87	0.003354
2729.52	0.003764
2739.16	0.004094
2748.81	0.004444
2758.45	0.004674
2768.1	0.005004
2777.74	0.005264
2787.39	0.005694
2797.03	0.006014
2806.68	0.006544
2816.32	0.008704
2825.97	0.013154
2835.61	0.023884
2845.26	0.031494
2854.9	0.020284
2864.55	0.015194
2874.19	0.016394
2883.84	0.018644
2893.48	0.019914
2903.12	0.021134
2912.77	0.023904
2922.41	0.028594
2932.06	0.038674
2941.7	0.057724
2951.35	0.061094
2960.99	0.045844
2970.64	0.035774
2980.28	0.029714
2989.93	0.026254
2999.57	0.028854
3009.22	0.030014
3018.86	0.020744
3028.51	0.015454
3038.15	0.013504
3047.8	0.013364
3057.44	0.013724
3067.09	0.014104
3076.73	0.015114
3086.38	0.013824
3096.02	0.008984
3105.67	0.004684
3115.31	0.002984
3124.95	0.002364
3134.6	0.001974
3144.24	0.001774
3153.89	0.0014777
3163.53	0.001187
3173.18	0.0008974
3182.82	0.0009279
3192.47	0.0007735
3202.11	0.0007342
3211.76	0.0006881
3221.4	0.0004384
3231.05	0.000409
3240.69	0.0004342
3250.34	0.0004329
3259.98	0.000373
3269.63	0.000324
3279.27	0.000398
3288.92	0.000182
3298.56	0.000297
3308.21	0.000353
3317.85	0.000126
3327.49	0.000334
3337.14	0.000368
3346.78	0.000117
3356.43	0.000184
3366.07	0.000152
3375.72	0.000419
3385.36	0.000324
3395.01	0.000329
3404.65	0.000418
3414.3	0.000338
3423.94	0.000333
3433.59	0.000404
3443.23	0.000281
3452.88	0.000156
3462.52	0.0004533
3472.17	0.000412
3481.81	0.00032
3491.46	0.00033
3501.1	0.000313
3510.75	0.000391
3520.39	0.000313
3530.04	0.000208
3539.68	0.000414
3549.32	0.000394
3558.97	0.000163
3568.61	0.0004645
3578.26	0.000387
3587.9	0.0004835
3597.55	0.0004339
3607.19	0.000338
3616.84	0.000314
3626.48	0.000332
3636.13	0.000418
3645.77	0.000385
3655.42	0.000246
3665.06	0.000393
3674.71	0.00051882
3684.35	0.000369
3694	0.00036
3703.64	0.000418
3713.29	0.0005043
3722.93	0.000533746
3732.58	0.00054207
3742.22	0.0004654
3751.86	0.000523352
3761.51	0.00055492
3771.15	0.00055287
3780.8	0.000533252
3790.44	0.00058347
3800.09	0.0006871
3809.73	0.000341
3819.38	0.00060497
3829.02	0.0008994
3838.67	0.0007661
3848.31	0.0009333
3857.96	0.0008216
3867.6	0.000948
3877.25	0.000841
3886.89	0.0009396
3896.54	0.0008921
3906.18	0.0011658
3915.83	0.0011094
3925.47	0.0011306
3935.12	0.0011026
3944.76	0.0010972
3954.41	0.0010399
3964.05	0.001544
3973.69	0.0014888
3983.34	0.0015159
3992.98	0.001744
