Infrared Spectrum: PHOSPHONODICHLORIDOTHIOIC ACID, PHENYL-
Formula: C6 H5 Cl2 P S
CAS: 3497-00-5
State: SOLUTION (10% IN CCl4 FOR 3800-1320, 10% IN CS2 FOR 1320-400 CM^-^1)
Class: COBLENTZ III
Instrument: DOW KBr FOREPRISM-GRATING
Instrument parameters: BLAZED AT 3.5, 12.0, 20.0 MICRON, CHANGED AT 5.0, 7.5, 14.9 MICRON
Sampling: TRANSMISSION
Path length: 0.010, 0.010 CM
Resolution: 4
Origin: DOW CHEMICAL COMPANY
1/CM	TRANSMITTANCE
382.319	0.255
391.699	0.283
401.08	0.4159
410.46	0.7299
419.84	0.918
429.221	0.977
438.601	0.993
447.981	0.985
457.362	0.93
466.742	0.875
476.122	0.914
485.503	0.857
494.883	0.179
504.264	0.1948
513.644	0.4561
523.024	0
532.405	0.1187
541.785	0.748
551.165	0.898
560.546	0.905
569.926	0.99
579.306	1.014
588.687	1.026
598.067	1.023
607.447	1.001
616.828	1.001
626.208	0.994
635.588	0.988
644.969	0.954
654.349	0.9
663.729	0.909
673.11	0.723
682.49	0.118
691.87	0
701.251	0.6639
710.631	0.84
720.012	0.6941
729.392	0.6401
738.772	0.3041
748.153	0.011
757.533	0.031
766.913	0.722
776.294	0.908
785.674	0.886
795.054	0.949
804.435	0.96
813.815	0.956
823.195	0.965
832.576	0.957
841.956	0.908
851.336	0.843
860.717	0.829
870.097	0.871
879.477	0.896
888.858	0.945
898.238	0.977
907.618	0.985
916.999	0.977
926.379	0.966
935.76	0.984
945.14	0.985
954.52	0.985
963.901	0.977
973.281	0.97
982.661	0.968
992.042	0.952
1001.42	0.9126
1010.8	0.961
1020.18	0.977
1029.56	0.9219
1038.94	0.984
1048.32	0.972
1057.7	0.945
1067.08	0.945
1076.46	0.933
1085.85	0.884
1095.23	0.6441
1104.61	0.4595
1113.99	0.74
1123.37	0.6959
1132.75	0.949
1142.13	0.962
1151.51	0.957
1160.89	0.942
1170.27	0.96
1179.65	0.934
1189.03	0.906
1198.41	0.97
1207.79	0.98
1217.17	0.986
1226.55	0.989
1235.93	0.99
1245.31	0.99
1254.69	0.988
1264.07	0.989
1273.45	0.978
1282.83	0.969
1292.21	0.978
1301.59	0.8881
1310.97	0.851
1320.35	0.966
1329.73	0.917
1339.11	0.871
1348.49	0.988
1357.88	0.986
1367.26	0.969
1376.64	0.956
1386.02	0.934
1395.4	0.958
1404.78	0.97
1414.16	0.977
1423.54	0.976
1432.92	0.912
1442.3	0.3629
1451.68	0.893
1461.06	0.92
1470.44	0.912
1479.82	0.898
1489.2	0.841
1498.58	0.893
1507.96	0.844
1517.34	0.791
1526.72	0.726
1536.1	0.66
1545.48	0.561
1554.86	0.53
1564.24	0.599
1573.62	0.674
1583	0.647
1592.38	0.708
1601.76	0.833
1611.14	0.925
1620.52	0.961
1629.91	0.985
1639.29	0.994
1648.67	0.985
1658.05	0.993
1667.43	0.982
1676.81	0.97
1686.19	0.982
1695.57	0.993
1704.95	0.996
1714.33	0.994
1723.71	1
1733.09	0.992
1742.47	0.996
1751.85	0.994
1761.23	0.978
1770.61	0.98
1779.99	0.99
1789.37	0.984
1798.75	0.984
1808.13	0.937
1817.51	0.978
1826.89	0.985
1836.27	0.986
1845.65	0.978
1855.03	0.986
1864.41	0.992
1873.79	0.994
1883.17	0.989
1892.55	0.968
1901.94	0.973
1911.32	0.977
1920.7	0.977
1930.08	0.998
1939.46	0.996
1948.84	0.992
1958.22	0.978
1967.6	0.964
1976.98	0.978
1986.36	0.972
1995.74	0.978
2005.12	0.98
2014.5	0.982
2023.88	0.984
2033.26	0.9855
2042.64	0.98
2052.02	0.982
2061.4	0.984
2070.78	0.9845
2080.16	0.986
2089.54	0.984
2098.92	0.984
2108.3	0.9815
2117.68	0.984
2127.06	0.981
2136.44	0.976
2145.82	0.981
2155.2	0.981
2164.59	0.981
2173.97	0.98
2183.35	0.98
2192.73	0.976
2202.11	0.9649
2211.49	0.9651
2220.87	0.972
2230.25	0.976
2239.63	0.976
2249.01	0.974
2258.39	0.9695
2267.77	0.964
2277.15	0.9575
2286.53	0.949
2295.91	0.953
2305.29	0.953
2314.67	0.9535
2324.05	0.9479
2333.43	0.9335
2342.81	0.94
2352.19	0.9451
2361.57	0.945
2370.95	0.9455
2380.33	0.9581
2389.71	0.9695
2399.09	0.973
2408.47	0.973
2417.85	0.972
2427.23	0.9735
2436.62	0.973
2446	0.974
2455.38	0.974
2464.76	0.974
2474.14	0.974
2483.52	0.974
2492.9	0.974
2502.28	0.974
2511.66	0.974
2521.04	0.9735
2530.42	0.972
2539.8	0.972
2549.18	0.9721
2558.56	0.97
2567.94	0.969
2577.32	0.9629
2586.7	0.9612
2596.08	0.969
2605.46	0.969
2614.84	0.9671
2624.22	0.97
2633.6	0.9726
2642.98	0.973
2652.36	0.974
2661.74	0.9719
2671.12	0.9633
2680.5	0.953
2689.88	0.9631
2699.26	0.9661
2708.65	0.969
2718.03	0.969
2727.41	0.973
2736.79	0.972
2746.17	0.973
2755.55	0.972
2764.93	0.972
2774.31	0.973
2783.69	0.972
2793.07	0.9731
2802.45	0.974
2811.83	0.973
2821.21	0.974
2830.59	0.974
2839.97	0.9766
2849.35	0.977
2858.73	0.976
2868.11	0.973
2877.49	0.9726
2886.87	0.9721
2896.25	0.974
2905.63	0.9739
2915.01	0.976
2924.39	0.976
2933.77	0.9734
2943.15	0.972
2952.53	0.9712
2961.91	0.968
2971.29	0.972
2980.68	0.9718
2990.06	0.9684
2999.44	0.9562
3008.82	0.955
3018.2	0.9524
3027.58	0.9484
3036.96	0.94
3046.34	0.9328
3055.72	0.9055
3065.1	0.7844
3074.48	0.8121
3083.86	0.875
3093.24	0.914
3102.62	0.9514
3112	0.9662
3121.38	0.9726
3130.76	0.974
3140.14	0.974
3149.52	0.9698
3158.9	0.9594
3168.28	0.974
3177.66	0.976
3187.04	0.977
3196.42	0.978
3205.8	0.98
3215.18	0.98
3224.56	0.98
3233.94	0.981
3243.33	0.984
3252.71	0.984
3262.09	0.984
3271.47	0.984
3280.85	0.984
3290.23	0.985
3299.61	0.985
3308.99	0.986
3318.37	0.9851
3327.75	0.985
3337.13	0.986
3346.51	0.986
3355.89	0.986
3365.27	0.9856
3374.65	0.988
3384.03	0.986
3393.41	0.986
3402.79	0.986
3412.17	0.9877
3421.55	0.9844
3430.93	0.984
3440.31	0.984
3449.69	0.982
3459.07	0.981
3468.45	0.981
3477.83	0.981
3487.21	0.981
3496.59	0.98
3505.97	0.98
3515.36	0.978
3524.74	0.978
3534.12	0.978
3543.5	0.9771
3552.88	0.977
3562.26	0.977
3571.64	0.975
3581.02	0.9757
3590.4	0.9726
3599.78	0.977
3609.16	0.9727
3618.54	0.974
3627.92	0.974
3637.3	0.9703
3646.68	0.9707
3656.06	0.9665
3665.44	0.973
3674.82	0.9658
3684.2	0.976
3693.58	0.9665
3702.96	0.972
3712.34	0.966
3721.72	0.974
3731.1	0.9738
3740.48	0.97
3749.86	0.9658
3759.24	0.9687
3768.62	0.974
3778	0.974
3787.39	0.976
