Infrared Spectrum: CYCLOBUTANECARBOXYLIC ACID, 3,3-DIMETHYL-
Formula: C7 H12 O2
CAS: 34970-18-8
Class: COBLENTZ
Instrument: Not specified, most likely a prism, grating, or hybrid spectrometer.
Sampling: TRANSMISSION
Path length: SMEAR
Resolution: 4
Origin: TENNESSEE EASTMAN COMPANY, RESEARCH LABORATORIES
MICROMETERS	TRANSMITTANCE
1.966	1.003
2.00707	1.003
2.04815	1.001
2.08922	1.001
2.13029	1.001
2.17137	1.001
2.21244	1.001
2.25352	1.001
2.29459	1.001
2.33566	1.003
2.37674	1.003
2.41781	1.003
2.45888	1.003
2.49996	1.003
2.54103	1.001
2.5821	1.001
2.62318	1.001
2.66425	1.001
2.70532	1.001
2.7464	1.001
2.78747	1.001
2.82855	1.001
2.86962	1.001
2.91069	0.975
2.95177	0.871
2.99284	0.765
3.03391	0.677
3.07499	0.576
3.11606	0.506
3.15713	0.421
3.19821	0.372
3.23928	0.312
3.28035	0.293
3.32143	0.276
3.3625	0.19
3.40358	0.169
3.44465	0.216
3.48572	0.25
3.5268	0.344
3.56787	0.415
3.60894	0.43
3.65002	0.423
3.69109	0.454
3.73216	0.456
3.77324	0.411
3.81431	0.411
3.85538	0.49
3.89646	0.5
3.93753	0.473
3.97861	0.538
4.01968	0.622
4.06075	0.67
4.10183	0.708
4.1429	0.747
4.18397	0.783
4.22505	0.813
4.26612	0.814
4.30719	0.821
4.34827	0.873
4.38934	0.912
4.43041	0.924
4.47149	0.931
4.51256	0.941
4.55364	0.951
4.59471	0.967
4.63578	0.969
4.67686	0.97
4.71793	0.969
4.759	0.97
4.80008	0.972
4.84115	0.974
4.88222	0.974
4.9233	0.975
4.96437	0.974
5.00545	0.97
5.04652	0.963
5.08759	0.958
5.12867	0.941
5.16974	0.931
5.21081	0.919
5.25189	0.912
5.29296	0.9
5.33403	0.891
5.37511	0.881
5.41618	0.869
5.45725	0.854
5.49833	0.837
5.5394	0.828
5.58048	0.806
5.62155	0.771
5.66262	0.674
5.7037	0.518
5.74477	0.396
5.78584	0.25
5.82692	0.099
5.86799	0.072
5.90906	0.154
5.95014	0.337
5.99121	0.502
6.03228	0.608
6.07336	0.691
6.11443	0.759
6.15551	0.818
6.19658	0.859
6.23765	0.905
6.27873	0.936
6.3198	0.951
6.36087	0.953
6.40195	0.958
6.44302	0.972
6.48409	0.972
6.52517	0.972
6.56624	0.97
6.60731	0.948
6.64839	0.907
6.68946	0.847
6.73054	0.737
6.77161	0.538
6.81268	0.409
6.85376	0.481
6.89483	0.468
6.9359	0.353
6.97698	0.262
7.01805	0.264
7.05912	0.375
7.1002	0.533
7.14127	0.653
7.18234	0.653
7.22342	0.627
7.26449	0.619
7.30557	0.447
7.34664	0.68
7.38771	0.65
7.42879	0.572
7.46986	0.509
7.51093	0.5
7.55201	0.602
7.59308	0.648
7.63415	0.569
7.67523	0.423
7.7163	0.353
7.75737	0.293
7.79845	0.37
7.83952	0.411
7.8806	0.433
7.92167	0.445
7.96274	0.375
8.00382	0.264
8.04489	0.214
8.08596	0.219
8.12704	0.308
8.16811	0.379
8.20918	0.456
8.25026	0.509
8.29133	0.554
8.33241	0.512
8.37348	0.408
8.41455	0.499
8.45563	0.603
8.4967	0.646
8.53777	0.68
8.57885	0.715
8.61992	0.749
8.66099	0.77
8.70207	0.77
8.74314	0.696
8.78421	0.627
8.82529	0.617
8.86636	0.662
8.90744	0.716
8.94851	0.768
8.98958	0.811
9.03066	0.843
9.07173	0.874
9.1128	0.9
9.15388	0.903
9.19495	0.905
9.23602	0.905
9.2771	0.902
9.31817	0.9
9.35924	0.893
9.40032	0.897
9.44139	0.898
9.48247	0.9
9.52354	0.898
9.56461	0.867
9.60569	0.835
9.64676	0.818
9.68783	0.816
9.72891	0.823
9.76998	0.833
9.81105	0.84
9.85213	0.842
9.8932	0.842
9.93427	0.842
9.97535	0.842
10.0164	0.842
10.0575	0.823
10.0986	0.804
10.1396	0.765
10.1807	0.732
10.2218	0.701
10.2629	0.668
10.3039	0.617
10.345	0.584
10.3861	0.547
10.4272	0.524
10.4682	0.509
10.5093	0.483
10.5504	0.469
10.5915	0.456
10.6325	0.451
10.6736	0.451
10.7147	0.449
10.7557	0.457
10.7968	0.476
10.8379	0.495
10.879	0.512
10.92	0.543
10.9611	0.569
11.0022	0.598
11.0433	0.622
11.0843	0.643
11.1254	0.663
11.1665	0.68
11.2076	0.698
11.2486	0.71
11.2897	0.722
11.3308	0.728
11.3719	0.739
11.4129	0.751
11.454	0.759
11.4951	0.771
11.5361	0.78
11.5772	0.79
11.6183	0.802
11.6594	0.804
11.7004	0.807
11.7415	0.813
11.7826	0.816
11.8237	0.818
11.8647	0.819
11.9058	0.819
11.9469	0.821
11.988	0.821
12.029	0.823
12.0701	0.83
12.1112	0.837
12.1522	0.842
12.1933	0.843
12.2344	0.845
12.2755	0.847
12.3165	0.85
12.3576	0.852
12.3987	0.854
12.4398	0.859
12.4808	0.864
12.5219	0.869
12.563	0.878
12.6041	0.888
12.6451	0.891
12.6862	0.897
12.7273	0.902
12.7684	0.903
12.8094	0.903
12.8505	0.905
12.8916	0.905
12.9326	0.902
12.9737	0.886
13.0148	0.859
13.0559	0.825
13.0969	0.789
13.138	0.746
13.1791	0.72
13.2202	0.718
13.2612	0.735
13.3023	0.782
13.3434	0.816
13.3845	0.84
13.4255	0.857
13.4666	0.874
13.5077	0.886
13.5487	0.902
13.5898	0.909
13.6309	0.922
13.672	0.934
13.713	0.943
13.7541	0.953
13.7952	0.96
13.8363	0.963
13.8773	0.965
13.9184	0.969
13.9595	0.97
14.0006	0.974
14.0416	0.972
14.0827	0.97
14.1238	0.972
14.1649	0.972
14.2059	0.97
14.247	0.965
14.2881	0.957
14.3291	0.955
14.3702	0.95
14.4113	0.941
14.4524	0.933
14.4934	0.922
14.5345	0.915
14.5756	0.907
14.6167	0.9
14.6577	0.89
14.6988	0.885
14.7399	0.876
14.781	0.864
14.822	0.857
14.8631	0.847
14.9042	0.833
14.9453	0.806
14.9863	0.785
15.0274	0.771
15.0685	0.758
15.1095	0.742
15.1506	0.718
15.1917	0.698
15.2328	0.68
15.2738	0.677
15.3149	0.677
15.356	0.68
15.3971	0.682
15.4381	0.691
15.4792	0.699
15.5203	0.701
15.5614	0.703
15.6024	0.703
15.6435	0.703
15.6846	0.703
15.7256	0.704
15.7667	0.703
15.8078	0.703
15.8489	0.703
15.8899	0.701
15.931	0.698
