Infrared Spectrum: Acetamide, N-[9H-purin-6(1H)-thione-9-yl]-
Formula: C7 H7 N5 O S
CAS: 34993-27-6
State: SOLID (0.8 mg / 650 mg KBr DISC)
Class: COBLENTZ III
Instrument: PERKIN-ELMER 21 (GRATING)
Instrument parameters: FILTER CHANGE ABOUT 1025 CM^-^1
Sampling: TRANSMISSION
Resolution: 2
Origin: SOUTHERN RESEARCH INSTITUTE
1/CM	TRANSMITTANCE
601.589	0.3914
610.632	0.3871
619.676	0.3841
628.719	0.384
637.763	0.3565
646.806	0.3051
655.85	0.2864
664.893	0.4011
673.937	0.5068
682.98	0.5173
692.024	0.5241
701.067	0.6205
710.111	0.6605
719.154	0.6778
728.198	0.6893
737.241	0.703
746.284	0.7211
755.328	0.7246
764.371	0.7189
773.415	0.6304
782.458	0.7442
791.502	0.729
800.545	0.6837
809.589	0.529
818.632	0.4395
827.676	0.6558
836.719	0.7623
845.763	0.7624
854.806	0.7514
863.85	0.7248
872.893	0.6661
881.936	0.4997
890.98	0.5688
900.023	0.5913
909.067	0.6518
918.11	0.7166
927.154	0.7485
936.197	0.7541
945.241	0.7328
954.284	0.4951
963.328	0.3345
972.371	0.3327
981.415	0.6204
990.458	0.6469
999.502	0.6133
1008.54	0.5288
1017.59	0.5494
1026.63	0.7436
1035.68	0.737
1044.72	0.7485
1053.76	0.7939
1062.81	0.8043
1071.85	0.8014
1080.89	0.7884
1089.94	0.7762
1098.98	0.7608
1108.02	0.6934
1117.07	0.5572
1126.11	0.5741
1135.15	0.745
1144.2	0.7424
1153.24	0.7132
1162.28	0.619
1171.33	0.4432
1180.37	0.5842
1189.41	0.5937
1198.46	0.4613
1207.5	0.3937
1216.54	0.2031
1225.59	0.1375
1234.63	0.5657
1243.68	0.6181
1252.72	0.6083
1261.76	0.5594
1270.81	0.5076
1279.85	0.4353
1288.89	0.2983
1297.94	0.2768
1306.98	0.5556
1316.02	0.6272
1325.07	0.5884
1334.11	0.2005
1343.15	0.3297
1352.2	0.5945
1361.24	0.5484
1370.28	0.304
1379.33	0.4047
1388.37	0.5841
1397.41	0.6002
1406.46	0.4517
1415.5	0.2763
1424.54	0.1737
1433.59	0.3954
1442.63	0.6214
1451.67	0.6394
1460.72	0.6822
1469.76	0.6735
1478.81	0.6362
1487.85	0.5929
1496.89	0.6133
1505.94	0.6003
1514.98	0.5694
1524.02	0.4984
1533.07	0.4191
1542.11	0.3396
1551.15	0.2991
1560.2	0.2345
1569.24	0.1065
1578.28	0.102
1587.33	0.1328
1596.37	0.1381
1605.41	0.0319
1614.46	0.0989
1623.5	0.3889
1632.54	0.4043
1641.59	0.397
1650.63	0.388
1659.67	0.3861
1668.72	0.2773
1677.76	0.0572
1686.8	0.0804
1695.85	0.2351
1704.89	0.4113
1713.94	0.5608
1722.98	0.667
1732.02	0.7746
1741.07	0.7828
1750.11	0.8004
1759.15	0.8408
1768.2	0.8504
1777.24	0.8506
1786.28	0.8487
1795.33	0.8466
1804.37	0.845
1813.41	0.844
1822.46	0.8461
1831.5	0.8532
1840.54	0.8605
1849.59	0.8674
1858.63	0.873
1867.67	0.8773
1876.72	0.8804
1885.76	0.8797
1894.8	0.879
1903.85	0.8777
1912.89	0.8764
1921.94	0.8747
1930.98	0.8715
1940.02	0.8662
1949.07	0.8588
1958.11	0.8489
1967.15	0.837
1976.2	0.833
1985.24	0.8423
1994.28	0.8542
2003.33	0.8671
2012.37	0.8774
2021.41	0.879
2030.46	0.8801
2039.5	0.8816
2048.54	0.8842
2057.59	0.8868
2066.63	0.8891
2075.67	0.8914
2084.72	0.8936
2093.76	0.8958
2102.8	0.897
2111.85	0.8978
2120.89	0.8971
2129.93	0.8964
2138.98	0.895
2148.02	0.8934
2157.07	0.8918
2166.11	0.8891
2175.15	0.8862
2184.2	0.8834
2193.24	0.8796
2202.28	0.8759
2211.33	0.8707
2220.37	0.8651
2229.41	0.859
2238.46	0.8521
2247.5	0.8451
2256.54	0.837
2265.59	0.8308
2274.63	0.8284
2283.67	0.8312
2292.72	0.8381
2301.76	0.8454
2310.8	0.8515
2319.85	0.857
2328.89	0.8601
2337.93	0.8608
2346.98	0.86
2356.02	0.8583
2365.06	0.8559
2374.11	0.8528
2383.15	0.8476
2392.2	0.8404
2401.24	0.8328
2410.28	0.8244
2419.33	0.8151
2428.37	0.8041
2437.41	0.7926
2446.46	0.7829
2455.5	0.7757
2464.54	0.7671
2473.59	0.7587
2482.63	0.7486
2491.67	0.738
2500.72	0.7247
2509.76	0.7072
2518.8	0.6787
2527.85	0.6617
2536.89	0.6531
2545.93	0.6471
2554.98	0.6387
2564.02	0.6243
2573.06	0.6062
2582.11	0.5802
2591.15	0.556
2600.2	0.5392
2609.24	0.5253
2618.28	0.5105
2627.33	0.4861
2636.37	0.4614
2645.41	0.4381
2654.46	0.4171
2663.5	0.3961
2672.54	0.3772
2681.59	0.3685
2690.63	0.3442
2699.67	0.3189
2708.72	0.302
2717.76	0.2895
2726.8	0.2776
2735.85	0.2664
2744.89	0.2584
2753.93	0.2515
2762.98	0.2443
2772.02	0.2296
2781.06	0.2083
2790.11	0.1857
2799.15	0.1689
2808.19	0.1594
2817.24	0.1537
2826.28	0.1495
2835.33	0.1471
2844.37	0.1458
2853.41	0.1463
2862.46	0.1497
2871.5	0.1544
2880.54	0.1594
2889.59	0.1618
2898.63	0.1607
2907.67	0.157
2916.72	0.1523
2925.76	0.1481
2934.8	0.1482
2943.85	0.1504
2952.89	0.1515
2961.93	0.1538
2970.98	0.1519
2980.02	0.153
2989.06	0.1608
2998.11	0.1706
3007.15	0.1889
3016.19	0.2203
3025.24	0.2477
3034.28	0.2683
3043.32	0.2865
3052.37	0.3017
3061.41	0.3157
3070.46	0.343
3079.5	0.3919
3088.54	0.3994
3097.59	0.3808
3106.63	0.3409
3115.67	0.3169
3124.72	0.3186
3133.76	0.3348
3142.8	0.3261
3151.85	0.2975
3160.89	0.2788
3169.93	0.2669
3178.98	0.2582
3188.02	0.255
3197.06	0.258
3206.11	0.2648
3215.15	0.271
3224.19	0.2765
3233.24	0.2785
3242.28	0.276
3251.32	0.2696
3260.37	0.2622
3269.41	0.2565
3278.46	0.253
3287.5	0.2502
3296.54	0.2435
3305.59	0.2333
3314.63	0.2215
3323.67	0.1938
3332.72	0.152
3341.76	0.1388
3350.8	0.1294
3359.85	0.1257
3368.89	0.1249
3377.93	0.1265
3386.98	0.1299
3396.02	0.1352
3405.06	0.142
3414.11	0.1493
3423.15	0.1575
3432.19	0.1694
3441.24	0.1814
3450.28	0.1952
3459.32	0.2099
3468.37	0.2263
3477.41	0.2439
3486.45	0.263
3495.5	0.2822
3504.54	0.302
3513.59	0.3236
3522.63	0.3471
3531.67	0.3735
3540.72	0.4018
3549.76	0.4301
3558.8	0.4589
3567.85	0.4891
3576.89	0.5157
3585.93	0.5337
3594.98	0.5555
3604.02	0.5751
3613.06	0.6047
3622.11	0.6387
3631.15	0.6819
3640.19	0.7259
3649.24	0.7634
3658.28	0.8045
3667.32	0.8375
3676.37	0.8505
3685.41	0.8591
3694.45	0.8646
3703.5	0.8688
3712.54	0.8721
3721.58	0.8756
3730.63	0.88
3739.67	0.8899
3748.72	0.8924
3757.76	0.8926
3766.8	0.8929
3775.85	0.8934
3784.89	0.8946
3793.93	0.896
3802.98	0.8975
3812.02	0.8981
3821.06	0.8955
3830.11	0.8969
3839.15	0.8948
3848.19	0.8927
3857.24	0.8907
3866.28	0.8887
3875.32	0.8869
3884.37	0.885
3893.41	0.8838
3902.45	0.8829
3911.5	0.882
3920.54	0.8809
3929.58	0.8799
3938.63	0.8789
3947.67	0.8778
3956.72	0.8768
3965.76	0.8758
3974.8	0.8744
3983.85	0.8724
3992.89	0.8704
4001.93	0.8704
4010.98	0.8704
