Infrared Spectrum: 3-Chloro-4-fluoronitrobenzene
Formula: C 6 H 3 Cl F N O 2
CAS: 350-30-1
State: gas
Origin: EPA-IR VAPOR PHASE LIBRARY
1/CM	ABSORBANCE
549.9	0.00447
559.547	0.0037426
569.193	0.0031816
578.84	0.0031779
588.486	0.0032791
598.133	0.0034316
607.779	0.00443
617.426	0.00881
627.072	0.03474
636.719	0.03486
646.365	0.00809
656.012	0.00405
665.658	0.0036127
675.305	0.00477
684.951	0.01151
694.598	0.01784
704.245	0.03548
713.891	0.09752
723.538	0.08292
733.184	0.0416
742.831	0.04748
752.477	0.02381
762.124	0.01054
771.77	0.00729
781.417	0.00471
791.063	0.00416
800.71	0.00827
810.356	0.02349
820.003	0.03322
829.649	0.04644
839.296	0.02022
848.943	0.00711
858.589	0.00623
868.236	0.00728
877.882	0.0169
887.529	0.04215
897.175	0.07115
906.822	0.04919
916.468	0.01486
926.115	0.00509
935.761	0.00379
945.408	0.0033491
955.054	0.0029019
964.701	0.0029672
974.347	0.003111
983.994	0.0031286
993.64	0.0031953
1003.29	0.0033217
1012.93	0.0029882
1022.58	0.0031043
1032.23	0.00525
1041.87	0.01513
1051.52	0.02979
1061.17	0.02932
1070.81	0.01557
1080.46	0.00746
1090.11	0.00535
1099.75	0.00865
1109.4	0.02068
1119.05	0.0263
1128.69	0.04203
1138.34	0.05055
1147.99	0.02569
1157.63	0.00727
1167.28	0.0031009
1176.92	0.002374
1186.57	0.002279
1196.22	0.002487
1205.86	0.00285678
1215.51	0.0048
1225.16	0.0101
1234.8	0.01706
1244.45	0.02396
1254.1	0.06311
1263.74	0.13954
1273.39	0.1294
1283.04	0.05873
1292.68	0.03651
1302.33	0.01836
1311.98	0.01174
1321.62	0.01873
1331.27	0.05322
1340.92	0.19356
1350.56	0.31628
1360.21	0.15618
1369.86	0.04381
1379.5	0.03414
1389.15	0.02502
1398.79	0.01966
1408.44	0.01406
1418.09	0.00993
1427.73	0.01296
1437.38	0.01641
1447.03	0.02018
1456.67	0.03244
1466.32	0.04879
1475.97	0.10562
1485.61	0.2009
1495.26	0.16277
1504.91	0.07597
1514.55	0.06397
1524.2	0.06368
1533.85	0.09545
1543.49	0.23401
1553.14	0.29888
1562.79	0.16763
1572.43	0.05962
1582.08	0.06195
1591.73	0.07848
1601.37	0.06625
1611.02	0.03595
1620.67	0.01921
1630.31	0.01096
1639.96	0.00821
1649.6	0.00915
1659.25	0.0086
1668.9	0.0058
1678.54	0.00421
1688.19	0.00415
1697.84	0.00426
1707.48	0.00388
1717.13	0.00395
1726.78	0.00406
1736.42	0.0033593
1746.07	0.00278003
1755.72	0.0031694
1765.36	0.00486
1775.01	0.00597
1784.66	0.00546
1794.3	0.00513
1803.95	0.00414
1813.6	0.0027943
1823.24	0.00238
1832.89	0.002322
1842.54	0.002219
1852.18	0.002157
1861.83	0.002165
1871.47	0.002514
1881.12	0.00378
1890.77	0.00563
1900.41	0.00572
1910.06	0.0036855
1919.71	0.002229
1929.35	0.002028
1939	0.002047
1948.65	0.002129
1958.29	0.00208
1967.94	0.002072
1977.59	0.002319
1987.23	0.002348
1996.88	0.002127
2006.53	0.002068
2016.17	0.001979
2025.82	0.001971
2035.47	0.001988
2045.11	0.001998
2054.76	0.002036
2064.41	0.002403
2074.05	0.00284862
2083.7	0.002538
2093.35	0.001984
2102.99	0.00183
2112.64	0.00176
2122.28	0.001783
2131.93	0.00174
2141.58	0.00171
2151.22	0.001931
2160.87	0.002109
2170.52	0.002166
2180.16	0.002067
2189.81	0.002078
2199.46	0.00222
2209.1	0.002124
2218.75	0.001853
2228.4	0.00188
2238.04	0.002115
2247.69	0.002358
2257.34	0.002439
2266.98	0.002182
2276.63	0.002094
2286.28	0.002124
2295.92	0.002232
2305.57	0.002078
2315.22	0.001784
2324.86	0.001801
2334.51	0.001785
2344.16	0.001874
2353.8	0.002112
2363.45	0.002034
2373.09	0.001768
2382.74	0.001818
2392.39	0.002022
2402.03	0.001952
2411.68	0.00174
2421.33	0.00169
2430.97	0.00174
2440.62	0.002035
2450.27	0.002314
2459.91	0.002532
2469.56	0.00264
2479.21	0.0027498
2488.85	0.0030339
2498.5	0.00276006
2508.15	0.002463
2517.79	0.002626
2527.44	0.00285698
2537.09	0.002598
2546.73	0.002438
2556.38	0.002449
2566.03	0.002705
2575.67	0.0033302
2585.32	0.00396
2594.96	0.0037351
2604.61	0.0027138
2614.26	0.001929
2623.9	0.00174
2633.55	0.00164
2643.2	0.00153
2652.84	0.00152
2662.49	0.00172
2672.14	0.002106
2681.78	0.0026859
2691.43	0.0030868
2701.08	0.002632
2710.72	0.002226
2720.37	0.002173
2730.02	0.002271
2739.66	0.002155
2749.31	0.002097
2758.96	0.00197
2768.6	0.00169
2778.25	0.00161
2787.9	0.00149
2797.54	0.0013
2807.19	0.00134
2816.84	0.00148
2826.48	0.001882
2836.13	0.002287
2845.77	0.00277913
2855.42	0.0030042
2865.07	0.003082
2874.71	0.0037237
2884.36	0.0055
2894.01	0.00596
2903.65	0.00385
2913.3	0.00225
2922.95	0.00202
2932.59	0.002227
2942.24	0.002236
2951.89	0.00169
2961.53	0.00109
2971.18	0.00114
2980.83	0.00077
2990.47	0.00073
3000.12	0.00037
3009.77	0.00035
3019.41	0.00036
3029.06	0.00044
3038.71	0.00038
3048.35	0.00066
3058	0.00073
3067.64	0.00133
3077.29	0.0037259
3086.94	0.00882
3096.58	0.01165
3106.23	0.01066
3115.88	0.0063
3125.52	0.002438
3135.17	0.00084
3144.82	0.00042
3154.46	0.00021
3164.11	0.00017
3173.76	0
3183.4	0.00028
3193.05	0.00029
3202.7	0.00042
3212.34	0.0005
3221.99	0.00059
3231.64	0.00052
3241.28	0.00042
3250.93	0.0002
3260.58	0.00024
3270.22	0.00037
3279.87	0.00034
3289.52	0.0003
3299.16	0.00041
3308.81	0.00035
3318.45	0.0004
3328.1	0.00075
3337.75	0.00073
3347.39	0.00057
3357.04	0.00058
3366.69	0.00068
3376.33	0.00056
3385.98	0.00081
3395.63	0.00079
3405.27	0.00073
3414.92	0.00079
3424.57	0.00098
3434.21	0.00097
3443.86	0.00109
3453.51	0.00111
3463.15	0.00127
3472.8	0.00115
3482.45	0.0012
3492.09	0.0012
3501.74	0.00115
3511.39	0.0011
3521.03	0.00129
3530.68	0.00146
3540.33	0.00136
3549.97	0.00144
3559.62	0.00151
3569.26	0.00128
3578.91	0.00151
3588.56	0.00147
3598.2	0.00152
3607.85	0.0016
3617.5	0.00157
3627.14	0.00158
3636.79	0.0016
3646.44	0.00158
3656.08	0.00153
3665.73	0.00166
3675.38	0.001798
3685.02	0.001766
3694.67	0.001919
3704.32	0.00172
3713.96	0.00165
3723.61	0.001812
3733.26	0.001951
3742.9	0.001865
3752.55	0.001772
3762.2	0.00173
3771.84	0.001827
3781.49	0.00174
3791.13	0.00175
3800.78	0.00175
3810.43	0.001897
3820.07	0.001768
3829.72	0.001782
3839.37	0.00171
3849.01	0.001802
3858.66	0.00168
3868.31	0.00152
3877.95	0.00166
3887.6	0.001798
3897.25	0.001955
3906.89	0.002032
3916.54	0.001996
3926.19	0.001843
3935.83	0.001866
3945.48	0.001809
3955.13	0.00167
3964.77	0.0017
3974.42	0.001978
3984.07	0.001766
3993.71	0.00184
