Infrared Spectrum: Benzyl fluoride
Formula: C 7 H 7 F
CAS: 350-50-5
State: gas
Instrument: HP-GC/MS/IRD
Origin: NIST Mass Spectrometry Data Center
1/CM	ABSORBANCE
550	0.000385
562	0.0001342
574	0.001023
586	0.0042724
598	0.0046728
610	0.0012342
622	0.0003036
634	5.28e-05
646	5.5e-05
658	0.0007128
670	0.0033
682	0.0076868
694	0.0127798
706	0.0105468
718	0.0104302
730	0.0130658
742	0.0138798
754	0.0086086
766	0.0034584
778	0.0009922
790	0.0006424
802	0.0013046
814	0.0019888
826	0.0014146
838	0.0003806
850	0.0001694
862	0.0003432
874	0.0004576
886	0.0007238
898	0.0011066
910	0.0013244
922	0.0011594
934	0.001067
946	0.0013926
958	0.0023012
970	0.0041074
982	0.0077968
994	0.0136466
1006	0.0197274
1018	0.022
1030	0.0192258
1042	0.0118998
1054	0.0070246
1066	0.0046398
1078	0.0028182
1090	0.001496
1102	0.0007568
1114	0.0004576
1126	0.0002376
1138	0.0002024
1150	0.0002354
1162	0.000297
1174	0.0005544
1186	0.0011682
1198	0.0030448
1210	0.0046486
1222	0.0035002
1234	0.0010758
1246	0.0005984
1258	0.0004048
1270	0.0003828
1282	0.0004752
1294	0.000616
1306	0.0006996
1318	0.0007546
1330	0.0009086
1342	0.001287
1354	0.0021362
1366	0.0049742
1378	0.0076846
1390	0.0056672
1402	0.0011572
1414	0.0005962
1426	0.0008866
1438	0.0018832
1450	0.0029722
1462	0.0028886
1474	0.0018568
1486	0.0016192
1498	0.0018326
1510	0.0012848
1522	0.0003916
1534	0.0002552
1546	0.0002398
1558	0.0002684
1570	0.0003586
1582	0.0004136
1594	0.0003388
1606	0.0002178
1618	0.0001826
1630	0.0002002
1642	0.0002112
1654	0.000165
1666	8.36e-05
1678	2.86e-05
1690	3.96e-05
1702	5.5e-05
1714	0.0001276
1726	0.0002288
1738	0.0003212
1750	0.0003146
1762	0.0002288
1774	0.0002618
1786	0.0005368
1798	0.000792
1810	0.0006688
1822	0.0002838
1834	0.0002244
1846	0.0003278
1858	0.0005346
1870	0.0006798
1882	0.0006424
1894	0.0003982
1906	0.0001936
1918	0.0002992
1930	0.0005478
1942	0.0007634
1954	0.0009438
1966	0.000627
1978	0.0002618
1990	0.0002222
2002	0.000231
2014	0.0002178
2026	0.0001914
2038	0.0001716
2050	0.0001166
2062	0.0001122
2074	0.0001144
2086	5.72e-05
2098	3.52e-05
2110	5.06e-05
2122	2.2e-05
2134	3.3e-05
2146	2.64e-05
2158	3.52e-05
2170	4.18e-05
2182	3.3e-05
2194	7.48e-05
2206	7.48e-05
2218	8.8e-05
2230	0.00011
2242	0.0001012
2254	9.02e-05
2266	8.58e-05
2278	0.0001672
2290	0.0001012
2302	0.0001298
2314	0.0001716
2326	0.0002134
2338	0.0001826
2350	0.000176
2362	0.0001298
2374	6.82e-05
2386	6.6e-05
2398	6.38e-05
2410	9.24e-05
2422	9.02e-05
2434	0.0001188
2446	6.38e-05
2458	4.84e-05
2470	6.16e-05
2482	4.4e-05
2494	4.84e-05
2506	6.38e-05
2518	2.86e-05
2530	3.74e-05
2542	3.96e-05
2554	6.16e-05
2566	6.6e-05
2578	7.92e-05
2590	8.58e-05
2602	0.0001122
2614	0.0001166
2626	0.000143
2638	0.0001012
2650	9.9e-05
2662	5.06e-05
2674	0.0001364
2686	0.0001474
2698	0.0001958
2710	0.000165
2722	0.000209
2734	0.0002354
2746	0.0002992
2758	0.0002376
2770	0.0001826
2782	0.0002508
2794	0.0002244
2806	0.0003388
2818	0.0004026
2830	0.0005676
2842	0.0007898
2854	0.0010384
2866	0.0015906
2878	0.0023496
2890	0.0038324
2902	0.0052712
2914	0.0052338
2926	0.0050754
2938	0.0055154
2950	0.0064614
2962	0.0072512
2974	0.0067738
2986	0.0051678
2998	0.003718
3010	0.003223
3022	0.0048202
3034	0.0078716
3046	0.0087912
3058	0.0078738
3070	0.0085602
3082	0.00836
3094	0.0054098
3106	0.0037114
3118	0.0020284
3130	0.000979
3142	0.0003806
3154	0.000297
3166	0.0003014
3178	0.0001958
3190	0.0002024
3202	0.000187
3214	0.000143
3226	0.000176
3238	0.0001408
3250	0.0001518
3262	9.24e-05
3274	0.0001276
3286	0.0001034
3298	0.0001298
3310	9.02e-05
3322	0.0001034
3334	0.000143
3346	9.9e-05
3358	7.7e-05
3370	0.0001914
3382	0.0001188
3394	0.0001628
3406	5.94e-05
3418	0.0001144
3430	7.7e-05
3442	0.0001474
3454	0.0001144
3466	0.0001276
3478	7.26e-05
3490	0.0001254
3502	2.42e-05
3514	0.0001144
3526	8.14e-05
3538	0.0001078
3550	0.0001254
3562	0.0001254
3574	0.000187
3586	0.0001364
3598	0.0001738
3610	0.000154
3622	0.0002002
3634	0.000187
3646	0.0001782
3658	0.0002992
3670	0.0002266
3682	0.0002002
3694	0.000176
3706	0.0002134
3718	0.0001914
3730	0.0001914
3742	0.0002046
3754	0.0001672
3766	0.0001804
3778	0.0001518
3790	0.0001826
3802	0.0001628
3814	0.0002134
3826	0.0001958
3838	0.0002486
