Infrared Spectrum: .alpha.-Fluorocinnamic acid
Formula: C 9 H 7 F O 2
CAS: 350-90-3
State: gas
Origin: EPA-IR VAPOR PHASE LIBRARY
1/CM	ABSORBANCE
549.8	0.012379
559.445	0.011949
569.09	0.031899
578.734	0.036159
588.379	0.024879
598.024	0.018089
607.669	0.011069
617.313	0.006259
626.958	0.004289
636.603	0.003349
646.248	0.003549
655.893	0.006659
665.537	0.022739
675.182	0.051109
684.827	0.036639
694.472	0.021959
704.116	0.013699
713.761	0.007809
723.406	0.006199
733.051	0.007799
742.695	0.014729
752.34	0.023969
761.985	0.030519
771.63	0.023559
781.275	0.012719
790.919	0.006059
800.564	0.004639
810.209	0.003849
819.854	0.003529
829.498	0.004849
839.143	0.006429
848.788	0.009399
858.433	0.010899
868.078	0.009419
877.722	0.007179
887.367	0.005209
897.012	0.004069
906.657	0.003899
916.301	0.005829
925.946	0.004829
935.591	0.003249
945.236	0.002639
954.88	0.002009
964.525	0.001989
974.17	0.001869
983.815	0.002539
993.46	0.003619
1003.1	0.004759
1012.75	0.004389
1022.39	0.005409
1032.04	0.005709
1041.68	0.006039
1051.33	0.009019
1060.97	0.015689
1070.62	0.037789
1080.26	0.079079
1089.91	0.074309
1099.55	0.039399
1109.2	0.022689
1118.84	0.019679
1128.49	0.025399
1138.13	0.042719
1147.78	0.076699
1157.42	0.098129
1167.07	0.097399
1176.71	0.081239
1186.36	0.048489
1196	0.026209
1205.64	0.020069
1215.29	0.018509
1224.93	0.011999
1234.58	0.008149
1244.22	0.008119
1253.87	0.008979
1263.51	0.012579
1273.16	0.016599
1282.8	0.018769
1292.45	0.020249
1302.09	0.020979
1311.74	0.025289
1321.38	0.045119
1331.03	0.063719
1340.67	0.049879
1350.32	0.036779
1359.96	0.036489
1369.61	0.042529
1379.25	0.052949
1388.9	0.054709
1398.54	0.052799
1408.18	0.024269
1417.83	0.009829
1427.47	0.006959
1437.12	0.007699
1446.76	0.010729
1456.41	0.009019
1466.05	0.004129
1475.7	0.003059
1485.34	0.005959
1494.99	0.012089
1504.63	0.007269
1514.28	0.003299
1523.92	0.002889
1533.57	0.002539
1543.21	0.001979
1552.86	0.002069
1562.5	0.002179
1572.15	0.002899
1581.79	0.003009
1591.44	0.002789
1601.08	0.003309
1610.73	0.003279
1620.37	0.003679
1630.01	0.004939
1639.66	0.008189
1649.3	0.015189
1658.95	0.022129
1668.59	0.023729
1678.24	0.016529
1687.88	0.008279
1697.53	0.005929
1707.17	0.006769
1716.82	0.008959
1726.46	0.012259
1736.11	0.018009
1745.75	0.033849
1755.4	0.080699
1765.04	0.138649
1774.69	0.187629
1784.33	0.111969
1793.98	0.041759
1803.62	0.022909
1813.27	0.009959
1822.91	0.006519
1832.55	0.005619
1842.2	0.004639
1851.84	0.003659
1861.49	0.003049
1871.13	0.003009
1880.78	0.002919
1890.42	0.002779
1900.07	0.002559
1909.71	0.002149
1919.36	0.001759
1929	0.002059
1938.65	0.002549
1948.29	0.002619
1957.94	0.002669
1967.58	0.002299
1977.23	0.0014443
1986.87	0.0014539
1996.52	0.001549
2006.16	0.001759
2015.81	0.001719
2025.45	0.0014938
2035.1	0.0014237
2044.74	0.0011265
2054.38	0.0010762
2064.03	0.0009886
2073.67	0.0009428
2083.32	0.0008588
2092.96	0.0008199
2102.61	0.0008545
2112.25	0.0008938
2121.9	0.0008377
2131.54	0.000739
2141.19	0.0009068
2150.83	0.0010731
2160.48	0.0012133
2170.12	0.0011886
2179.77	0.0011406
2189.41	0.0009289
2199.06	0.0010618
2208.7	0.0010346
2218.35	0.0011105
2227.99	0.001291
2237.64	0.0010755
2247.28	0.0011528
2256.92	0.0011606
2266.57	0.0011108
2276.21	0.0010045
2285.86	0.0011995
2295.5	0.0011062
2305.15	0.0013116
2314.79	0.0012129
2324.44	0.001388
2334.08	0.0012242
2343.73	0.0011855
2353.37	0.0013539
2363.02	0.0012026
2372.66	0.0009165
2382.31	0.0008918
2391.95	0.000948
2401.6	0.0009026
2411.24	0.0008332
2420.89	0.0009052
2430.53	0.0011819
2440.18	0.0011096
2449.82	0.0011747
2459.47	0.001015
2469.11	0.0009797
2478.75	0.000875
2488.4	0.0011202
2498.04	0.0009965
2507.69	0.0008813
2517.33	0.0009827
2526.98	0.0009954
2536.62	0.0008418
2546.27	0.0010163
2555.91	0.0008149
2565.56	0.0007834
2575.2	0.0007753
2584.85	0.0007063
2594.49	0.0007244
2604.14	0.0007374
2613.78	0.0008572
2623.43	0.0008295
2633.07	0.0006719
2642.72	0.0007978
2652.36	0.00052259
2662.01	0.00053899
2671.65	0.00053175
2681.29	0.0006273
2690.94	0.0008458
2700.58	0.0007749
2710.23	0.000616
2719.87	0.0007662
2729.52	0.000771
2739.16	0.0007392
2748.81	0.00057156
2758.45	0.0008144
2768.1	0.0008581
2777.74	0.0007458
2787.39	0.0008872
2797.03	0.0008702
2806.68	0.0010458
2816.32	0.001132
2825.97	0.0012645
2835.61	0.0013165
2845.26	0.0012575
2854.9	0.001207
2864.55	0.0009583
2874.19	0.000695
2883.84	0.0008627
2893.48	0.0009271
2903.12	0.0009528
2912.77	0.0008506
2922.41	0.0009495
2932.06	0.0012289
2941.7	0.0012483
2951.35	0.0011545
2960.99	0.0011496
2970.64	0.0013249
2980.28	0.0014113
2989.93	0.0014714
2999.57	0.001659
3009.22	0.002269
3018.86	0.004009
3028.51	0.007779
3038.15	0.010069
3047.8	0.007719
3057.44	0.009719
3067.09	0.017039
3076.73	0.016799
3086.38	0.010439
3096.02	0.008089
3105.67	0.006179
3115.31	0.003669
3124.95	0.001909
3134.6	0.0013034
3144.24	0.0012789
3153.89	0.0014218
3163.53	0.001075
3173.18	0.0009039
3182.82	0.0007773
3192.47	0.0007345
3202.11	0.0006881
3211.76	0.000205
3221.4	0.000397
3231.05	0.00033
3240.69	0.0006343
3250.34	0.0006804
3259.98	0.000744
3269.63	0.00053939
3279.27	0.0006855
3288.92	0.000344
3298.56	0.0007519
3308.21	0.0008508
3317.85	0.0008407
3327.49	0.0007473
3337.14	0.0006531
3346.78	0.000314
3356.43	0.0006703
3366.07	0.00056052
3375.72	0.0004596
3385.36	0.00021
3395.01	0.0007348
3404.65	0.0004812
3414.3	0.00059652
3423.94	0.0008474
3433.59	0.0009113
3443.23	0.0004865
3452.88	0.0004159
3462.52	0.0006836
3472.17	0.0008736
3481.81	0.0006629
3491.46	0.0011968
3501.1	0.001388
3510.75	0.002199
3520.39	0.001959
3530.04	0.002209
3539.68	0.001719
3549.32	0.001899
3558.97	0.003359
3568.61	0.011509
3578.26	0.067609
3587.9	0.078099
3597.55	0.018979
3607.19	0.007749
3616.84	0.004019
3626.48	0.001749
3636.13	0.001539
3645.77	0.0014162
3655.42	0.0009218
3665.06	0.0007182
3674.71	0.0009518
3684.35	0.0006636
3694	0.00056191
3703.64	0.0005366
3713.29	0.0007999
3722.93	0.000234
3732.58	0.000184
3742.22	0.000105
3751.86	0.00058625
3761.51	0.00060437
3771.15	0.000264
3780.8	0.000368
3790.44	0.000204
3800.09	0.000357
3809.73	0.00059858
3819.38	0.000404
3829.02	0.000511067
3838.67	0.000251
3848.31	0.0004686
3857.96	0.00054363
3867.6	0.0004837
3877.25	0.00050647
3886.89	0.0006312
3896.54	0.000309
3906.18	0.00054094
3915.83	0.0004971
3925.47	0.000282
3935.12	0.00058278
3944.76	0.00057771
3954.41	0.000175
3964.05	0.00028
3973.69	0.00054701
3983.34	0.000171
3992.98	0.000229
