Infrared Spectrum: Phenylsulphonylacetamide
Formula: C 8 H 9 N O 3 S
CAS: 35008-50-5
State: gas
Origin: EPA-IR VAPOR PHASE LIBRARY
1/CM	ABSORBANCE
549.9	0.007096
559.547	0.012536
569.193	0.008826
578.84	0.004926
588.486	0.004336
598.133	0.003616
607.779	0.002736
617.426	0.002046
627.072	0.001666
636.719	0.001806
646.365	0.002396
656.012	0.002816
665.658	0.002846
675.305	0.003596
684.951	0.005456
694.598	0.004516
704.245	0.004716
713.891	0.005006
723.538	0.004726
733.184	0.003176
742.831	0.004366
752.477	0.004376
762.124	0.002476
771.77	0.002296
781.417	0.003006
791.063	0.004326
800.71	0.004756
810.356	0.002706
820.003	0.001986
829.649	0.002076
839.296	0.002296
848.943	0.002906
858.589	0.003416
868.236	0.003276
877.882	0.004046
887.529	0.005786
897.175	0.004946
906.822	0.003086
916.468	0.002376
926.115	0.002196
935.761	0.001886
945.408	0.001686
955.054	0.001586
964.701	0.001776
974.347	0.0014431
983.994	0.0014843
993.64	0.001666
1003.29	0.001596
1012.93	0.0013739
1022.58	0.0015541
1032.23	0.0014825
1041.87	0.0012329
1051.52	0.0014028
1061.17	0.001726
1070.81	0.002546
1080.46	0.005286
1090.11	0.005866
1099.75	0.002786
1109.4	0.001676
1119.05	0.001746
1128.69	0.002716
1138.34	0.005606
1147.99	0.010016
1157.63	0.016516
1167.28	0.019766
1176.92	0.011946
1186.57	0.004716
1196.22	0.002626
1205.86	0.001936
1215.51	0.002046
1225.16	0.003276
1234.8	0.004086
1244.45	0.002266
1254.1	0.0014872
1263.74	0.0014655
1273.39	0.001816
1283.04	0.002326
1292.68	0.002676
1302.33	0.003476
1311.98	0.005266
1321.62	0.009136
1331.27	0.015956
1340.92	0.025216
1350.56	0.032196
1360.21	0.021946
1369.86	0.008136
1379.5	0.004016
1389.15	0.003356
1398.79	0.003056
1408.44	0.002116
1418.09	0.0014395
1427.73	0.0013787
1437.38	0.002086
1447.03	0.003316
1456.67	0.002096
1466.32	0.0011772
1475.97	0.0011948
1485.61	0.0011937
1495.26	0.0008383
1504.91	0.0007188
1514.55	0.0007183
1524.2	0.000771
1533.85	0.000794
1543.49	0.0008136
1553.14	0.0011005
1562.79	0.001472
1572.43	0.002446
1582.08	0.005276
1591.73	0.009946
1601.37	0.009616
1611.02	0.004916
1620.67	0.002566
1630.31	0.001896
1639.96	0.001596
1649.6	0.0014854
1659.25	0.001696
1668.9	0.001946
1678.54	0.002786
1688.19	0.003866
1697.84	0.005236
1707.48	0.007606
1717.13	0.012806
1726.78	0.021916
1736.42	0.029566
1746.07	0.023666
1755.72	0.010466
1765.36	0.005486
1775.01	0.003836
1784.66	0.002636
1794.3	0.001846
1803.95	0.0014123
1813.6	0.0011056
1823.24	0.0008025
1832.89	0.00065514
1842.54	0.00062922
1852.18	0.00057196
1861.83	0.00058489
1871.47	0.00061972
1881.12	0.0006631
1890.77	0.0007749
1900.41	0.0008085
1910.06	0.0007674
1919.71	0.0006797
1929.35	0.00059416
1939	0.00057531
1948.65	0.00064635
1958.29	0.0007236
1967.94	0.0007609
1977.59	0.0007054
1987.23	0.00058034
1996.88	0.0004903
2006.53	0.0005206
2016.17	0.0005051
2025.82	0.0005037
2035.47	0.0005153
2045.11	0.000496
2054.76	0.0004622
2064.41	0.000439
2074.05	0.000443
2083.7	0.000454
2093.35	0.0005007
2102.99	0.0004605
2112.64	0.0004814
2122.28	0.000435
2131.93	0.000456
2141.58	0.0005428
2151.22	0.0005823
2160.87	0.000558966
2170.52	0.0005104
2180.16	0.0004857
2189.81	0.0004869
2199.46	0.0004609
2209.1	0.0004678
2218.75	0.0004714
2228.4	0.0004972
2238.04	0.0005386
2247.69	0.00054623
2257.34	0.0005267
2266.98	0.000469
2276.63	0.000449
2286.28	0.000439
2295.92	0.000387
2305.57	0.000358
2315.22	0.000335
2324.86	0.000404
2334.51	0.000337
2344.16	0.000357
2353.8	0.000269
2363.45	0.000206
2373.09	0.000249
2382.74	0.00035
2392.39	0.000429
2402.03	0.000446
2411.68	0.000433
2421.33	0.000435
2430.97	0.0004934
2440.62	0.0004703
2450.27	0.0004948
2459.91	0.000438
2469.56	0.0004578
2479.21	0.0004909
2488.85	0.000476
2498.5	0.000391
2508.15	0.000433
2517.79	0.000403
2527.44	0.000406
2537.09	0.000384
2546.73	0.000393
2556.38	0.000388
2566.03	0.000395
2575.67	0.000422
2585.32	0.000422
2594.96	0.000396
2604.61	0.000374
2614.26	0.00042
2623.9	0.000375
2633.55	0.000406
2643.2	0.000339
2652.84	0.000406
2662.49	0.000445
2672.14	0.000359
2681.78	0.00029
2691.43	0.000277
2701.08	0.000259
2710.72	0.000246
2720.37	0.000298
2730.02	0.000293
2739.66	0.000277
2749.31	0.000326
2758.96	0.000337
2768.6	0.000324
2778.25	0.000274
2787.9	0.000303
2797.54	0.000296
2807.19	0.000209
2816.84	0.000287
2826.48	0.000287
2836.13	0.000302
2845.77	0.000282
2855.42	0.000363
2865.07	0.000358
2874.71	0.000401
2884.36	0.000343
2894.01	0.000381
2903.65	0.000364
2913.3	0.000277
2922.95	0.000392
2932.59	0.000394
2942.24	0.000424
2951.89	0.000285
2961.53	0.000319
2971.18	0.000283
2980.83	0.000302
2990.47	0.000219
3000.12	0.000388
3009.77	0.000471
3019.41	0.0004712
3029.06	0.0004855
3038.71	0.00054706
3048.35	0.0005251
3058	0.0009433
3067.64	0.002186
3077.29	0.002956
3086.94	0.001786
3096.58	0.0008996
3106.23	0.000451
3115.88	0.000284
3125.52	0.000297
3135.17	0.000225
3144.82	0.000219
3154.46	0.000238
3164.11	0.000437
3173.76	0.000262
3183.4	0.000111
3193.05	0.000165
3202.7	0.000283
3212.34	0.000101
3221.99	0.00016
3231.64	0.000149
3241.28	1.1e-05
3250.93	5e-06
3260.58	4e-05
3270.22	6.8e-05
3279.87	0.000211
3289.52	0.000152
3299.16	0.000109
3308.81	0.00023
3318.45	0.000224
3328.1	0.000369
3337.75	0.0005107
3347.39	0.000492
3357.04	0.0008142
3366.69	0.000918
3376.33	0.0012065
3385.98	0.002506
3395.63	0.004336
3405.27	0.004356
3414.92	0.002276
3424.57	0.0013199
3434.21	0.0010999
3443.86	0.0011293
3453.51	0.0009629
3463.15	0.0008312
3472.8	0.0010759
3482.45	0.0013325
3492.09	0.001826
3501.74	0.002866
3511.39	0.005596
3521.03	0.007796
3530.68	0.005416
3540.33	0.001956
3549.97	0.000957
3559.62	0.000560218
3569.26	0.0004809
3578.91	0.000489
3588.56	0.000278
3598.2	0.000253
3607.85	0.000353
3617.5	0.000314
3627.14	0.000271
3636.79	0.000363
3646.44	0.000256
3656.08	0.000267
3665.73	0.000301
3675.38	0.000234
3685.02	0.000167
3694.67	0.000338
3704.32	0.000224
3713.96	0.00024
3723.61	0.000312
3733.26	0.000199
3742.9	0.000139
3752.55	0.000237
3762.2	0.000268
3771.84	0.000259
3781.49	0.000369
3791.13	0.000318
3800.78	0.000315
3810.43	0.00031
3820.07	0.000384
3829.72	0.000363
3839.37	0.000328
3849.01	0.000261
3858.66	0.000367
3868.31	0.000238
3877.95	0.000233
3887.6	0.000205
3897.25	0.000297
3906.89	0.000261
3916.54	0.000264
3926.19	0.000248
3935.83	0.000365
3945.48	0.000275
3955.13	0.000257
3964.77	0.000224
3974.42	0.000271
3984.07	0.000313
3993.71	0.000412
