Infrared Spectrum: Isopropylamine, N-allyl-,
Formula: C6 H13 N
CAS: 35000-22-7
State: LIQUID (NEAT)
Boiling point: 96-97 C
Class: COBLENTZ III
Instrument: BAIRD (GRATING)
Instrument parameters: NaCl PRISM
Path length: 0.003 CM
Resolution: 2
Origin: WYANDOTTE CHEMICALS CORP.
1/CM	TRANSMITTANCE
624	0.7802
633	0.7636
642	0.7681
651	0.7479
660	0.739
669	0.6937
678	0.6236
687	0.5301
696	0.423
705	0.3359
714	0.2726
723	0.2355
732	0.2138
741	0.2135
750	0.2259
759	0.3014
768	0.3982
777	0.505
786	0.5942
795	0.6671
804	0.6512
813	0.6711
822	0.7067
831	0.652
840	0.6994
849	0.7756
858	0.8118
867	0.8068
876	0.7737
885	0.7177
894	0.6229
903	0.2922
912	0.0293
921	0.0467
930	0.2337
939	0.4526
948	0.5988
957	0.6899
966	0.6462
975	0.5846
984	0.4311
993	0.2263
1002	0.159
1011	0.4018
1020	0.6096
1029	0.6239
1038	0.5678
1047	0.6498
1056	0.71
1065	0.677
1074	0.4566
1083	0.2996
1092	0.4414
1101	0.5854
1110	0.5215
1119	0.3816
1128	0.3062
1137	0.3032
1146	0.2978
1155	0.2992
1164	0.253
1173	0.0879
1182	0.094
1191	0.3387
1200	0.5601
1209	0.6559
1218	0.7422
1227	0.736
1236	0.6222
1245	0.6549
1254	0.7332
1263	0.7366
1272	0.7654
1281	0.7783
1290	0.7491
1299	0.6892
1308	0.5757
1317	0.3453
1326	0.3812
1335	0.3603
1344	0.224
1353	0.3233
1362	0.4015
1371	0.211
1380	0.1496
1389	0.1488
1398	0.3921
1407	0.5672
1416	0.4816
1425	0.3684
1434	0.4204
1443	0.3134
1452	0.1896
1461	0.1957
1470	0.1671
1479	0.1154
1488	0.236
1497	0.4277
1506	0.666
1515	0.7449
1524	0.7937
1533	0.8539
1542	0.8773
1551	0.8849
1560	0.8872
1569	0.8899
1578	0.8964
1587	0.8973
1596	0.8972
1605	0.8954
1614	0.8902
1623	0.8787
1632	0.8544
1641	0.8237
1650	0.5336
1659	0.377
1668	0.628
1677	0.7865
1686	0.8027
1695	0.8305
1704	0.8644
1713	0.8804
1722	0.8888
1731	0.9076
1740	0.9209
1749	0.9294
1758	0.9351
1767	0.9388
1776	0.9393
1785	0.9381
1794	0.9356
1803	0.9302
1812	0.9131
1821	0.8776
1830	0.8424
1839	0.8402
1848	0.869
1857	0.8983
1866	0.9247
1875	0.936
1884	0.9407
1893	0.94
1902	0.9403
1911	0.9408
1920	0.9428
1929	0.9466
1938	0.949
1947	0.9487
1956	0.9474
1965	0.9437
1974	0.9322
1983	0.9295
1992	0.9373
2001	0.9454
2010	0.9495
2019	0.9509
2028	0.9514
2037	0.951
2046	0.9501
2055	0.9494
2064	0.9484
2073	0.9474
2082	0.9502
2091	0.9456
2100	0.9446
2109	0.9435
2118	0.9419
2127	0.9401
2136	0.9383
2145	0.9365
2154	0.9346
2163	0.9344
2172	0.9344
2181	0.9345
2190	0.9349
2199	0.9354
2208	0.9357
2217	0.9354
2226	0.9341
2235	0.9323
2244	0.9302
2253	0.9281
2262	0.926
2271	0.9224
2280	0.9171
2289	0.9116
2298	0.9178
2307	0.9256
2316	0.9307
2325	0.9353
2334	0.9391
2343	0.943
2352	0.9459
2361	0.9466
2370	0.9421
2379	0.9356
2388	0.9287
2397	0.9221
2406	0.9182
2415	0.9163
2424	0.9157
2433	0.9157
2442	0.9156
2451	0.9149
2460	0.9137
2469	0.9118
2478	0.9091
2487	0.906
2496	0.9019
2505	0.8965
2514	0.8906
2523	0.8842
2532	0.8769
2541	0.8687
2550	0.8596
2559	0.8456
2568	0.8231
2577	0.7907
2586	0.7585
2595	0.7266
2604	0.7065
2613	0.7118
2622	0.7248
2631	0.7281
2640	0.7282
2649	0.7275
2658	0.7264
2667	0.7246
2676	0.7218
2685	0.7176
2694	0.7114
2703	0.6985
2712	0.6741
2721	0.6478
2730	0.6227
2739	0.5878
2748	0.5148
2757	0.4263
2766	0.3385
2775	0.2511
2784	0.1643
2793	0.1078
2802	0.0995
2811	0.1121
2820	0.1236
2829	0.1222
2838	0.1142
2847	0.1054
2856	0.0967
2865	0.088
2874	0.0794
2883	0.0708
2892	0.0623
2901	0.0538
2910	0.0454
2919	0.0371
2928	0.0289
2937	0.0261
2946	0.0289
2955	0.0688
2964	0.1287
2973	0.1882
2982	0.2474
2991	0.3063
3000	0.3647
3009	0.4229
3018	0.4806
3027	0.538
3036	0.5929
3045	0.6017
3054	0.5859
3063	0.5462
3072	0.5067
3081	0.4708
3090	0.4714
3099	0.5358
3108	0.6013
3117	0.6664
3126	0.7343
3135	0.7552
3144	0.7561
3153	0.7546
3162	0.7522
3171	0.7486
3180	0.7451
3189	0.7419
3198	0.7386
3207	0.7347
3216	0.73
3225	0.7196
3234	0.7029
3243	0.6884
3252	0.6732
3261	0.6577
3270	0.6505
3279	0.6499
3288	0.6513
3297	0.6537
3306	0.6606
3315	0.6718
3324	0.6922
3333	0.7058
3342	0.7162
3351	0.7263
3360	0.7363
3369	0.7459
3378	0.7536
3387	0.761
3396	0.769
3405	0.7771
3414	0.7852
3423	0.7931
3432	0.8007
3441	0.8071
3450	0.8132
3459	0.8193
3468	0.8239
3477	0.8278
3486	0.8318
3495	0.8355
3504	0.8383
3513	0.8411
3522	0.8438
3531	0.8465
3540	0.8486
3549	0.8506
3558	0.8525
3567	0.8545
3576	0.8565
3585	0.8586
3594	0.861
3603	0.8637
3612	0.8663
3621	0.8687
3630	0.8709
3639	0.8727
3648	0.8742
3657	0.8756
3666	0.877
3675	0.8781
3684	0.879
3693	0.8799
3702	0.8808
3711	0.8817
3720	0.882
3729	0.8824
3738	0.8827
3747	0.8829
3756	0.8836
3765	0.885
3774	0.8864
3783	0.8878
3792	0.8896
3801	0.8917
3810	0.8934
3819	0.8943
3828	0.8949
3837	0.8945
3846	0.8939
3855	0.8933
3864	0.8923
3873	0.8912
3882	0.8901
3891	0.8891
3900	0.8883
3909	0.8877
3918	0.8872
3927	0.8866
3936	0.8865
3945	0.8864
3954	0.8863
3963	0.8854
3972	0.8844
3981	0.8833
3990	0.8823
3999	0.8813
