Infrared Spectrum: Ether, dodecyl phenyl
Formula: C18 H30 O
CAS: 35021-68-2
State: SOLUTION (10% CCl4 FOR 3800-1330, 10% CS2 FOR 1330-450 CM^-^1)
Class: COBLENTZ III
Instrument: DOW KBr FOREPRISM-GRATING
Instrument parameters: BLAZED AT 3.5, 12.0, 20.0 MICRON AND CHANGED AT 5.0, 7.5, 14.9 MICRON
Sampling: TRANSMISSION
Path length: 0.011 CM, 0.010 CM
Resolution: 2
Origin: DOW CHEMICAL COMPANY
1/CM	TRANSMITTANCE
448	0.8914
457	0.8926
466	0.8923
475	0.8904
484	0.8842
493	0.8675
502	0.8027
511	0.6702
520	0.8645
529	0.9046
538	0.9153
547	0.9225
556	0.9279
565	0.9296
574	0.9295
583	0.924
592	0.8994
601	0.9042
610	0.9234
619	0.9372
628	0.9394
637	0.928
646	0.9099
655	0.8974
664	0.8979
673	0.8467
682	0.6179
691	0.2308
700	0.8275
709	0.8026
718	0.6794
727	0.7528
736	0.7238
745	0.2663
754	0.3152
763	0.7624
772	0.81
781	0.8218
790	0.8465
799	0.8214
808	0.7322
817	0.8071
826	0.8043
835	0.8226
844	0.7722
853	0.7437
862	0.7448
871	0.6646
880	0.7773
889	0.8394
898	0.8558
907	0.8519
916	0.8474
925	0.853
934	0.8619
943	0.8583
952	0.8313
961	0.7971
970	0.8052
979	0.8095
988	0.7814
997	0.7556
1006	0.6971
1015	0.6691
1024	0.5454
1033	0.4183
1042	0.5724
1051	0.6275
1060	0.6798
1069	0.632
1078	0.5223
1087	0.739
1096	0.8505
1105	0.8507
1114	0.8714
1123	0.8428
1132	0.8521
1141	0.837
1150	0.6445
1159	0.7668
1168	0.3315
1177	0.7642
1186	0.8103
1195	0.7468
1204	0.6802
1213	0.5377
1222	0.3646
1231	0.26
1240	0.036
1249	0.0575
1258	0.4348
1267	0.6454
1276	0.6821
1285	0.5424
1294	0.5612
1303	0.4975
1312	0.6973
1321	0.7504
1330	0.6926
1339	0.6991
1348	0.774
1357	0.7759
1366	0.7579
1375	0.7079
1384	0.6268
1393	0.6554
1402	0.7883
1411	0.8066
1420	0.798
1429	0.7215
1438	0.6522
1447	0.5738
1456	0.3768
1465	0.2527
1474	0.2338
1483	0.5203
1492	0.2216
1501	0.4056
1510	0.5907
1519	0.613
1528	0.5866
1537	0.5228
1546	0.4537
1555	0.4885
1564	0.5258
1573	0.5315
1582	0.3786
1591	0.3411
1600	0.0973
1609	0.5437
1618	0.7821
1627	0.8243
1636	0.8441
1645	0.852
1654	0.8526
1663	0.8524
1672	0.854
1681	0.8484
1690	0.836
1699	0.843
1708	0.8514
1717	0.8559
1726	0.855
1735	0.8537
1744	0.8543
1753	0.8497
1762	0.8353
1771	0.8549
1780	0.8624
1789	0.8638
1798	0.8645
1807	0.8626
1816	0.8555
1825	0.8348
1834	0.8392
1843	0.8469
1852	0.8507
1861	0.8632
1870	0.8674
1879	0.8657
1888	0.863
1897	0.8593
1906	0.859
1915	0.8257
1924	0.8292
1933	0.8486
1942	0.852
1951	0.8654
1960	0.8665
1969	0.861
1978	0.8557
1987	0.8533
1996	0.8383
2005	0.8452
2014	0.8448
2023	0.8444
2032	0.8437
2041	0.8433
2050	0.843
2059	0.8461
2068	0.8521
2077	0.8556
2086	0.8579
2095	0.8595
2104	0.8608
2113	0.862
2122	0.8633
2131	0.8643
2140	0.8652
2149	0.8656
2158	0.8658
2167	0.8661
2176	0.8664
2185	0.8666
2194	0.8664
2203	0.866
2212	0.8658
2221	0.8643
2230	0.8623
2239	0.8603
2248	0.8583
2257	0.8552
2266	0.8505
2275	0.8477
2284	0.8462
2293	0.8458
2302	0.8472
2311	0.8524
2320	0.8598
2329	0.865
2338	0.8657
2347	0.8668
2356	0.879
2365	0.8779
2374	0.8658
2383	0.8637
2392	0.8625
2401	0.8612
2410	0.8606
2419	0.8606
2428	0.8613
2437	0.8608
2446	0.8595
2455	0.8582
2464	0.8567
2473	0.8551
2482	0.8551
2491	0.857
2500	0.8621
2509	0.8601
2518	0.8561
2527	0.8509
2536	0.8462
2545	0.8458
2554	0.8498
2563	0.8537
2572	0.8518
2581	0.8494
2590	0.8474
2599	0.8452
2608	0.8429
2617	0.8404
2626	0.8379
2635	0.8361
2644	0.8336
2653	0.8288
2662	0.8247
2671	0.8229
2680	0.8243
2689	0.8275
2698	0.8293
2707	0.8281
2716	0.82
2725	0.8115
2734	0.8047
2743	0.8032
2752	0.8051
2761	0.8074
2770	0.8052
2779	0.7977
2788	0.7869
2797	0.7739
2806	0.7559
2815	0.7261
2824	0.6686
2833	0.5807
2842	0.3837
2851	0.0589
2860	0.0832
2869	0.1585
2878	0.2778
2887	0.2331
2896	0.153
2905	0.0763
2914	0.0149
2923	0.0037
2932	0.0077
2941	0.0286
2950	0.0706
2959	0.0806
2968	0.2637
2977	0.5018
2986	0.6219
2995	0.6881
3004	0.7314
3013	0.7326
3022	0.7281
3031	0.6487
3040	0.6375
3049	0.728
3058	0.7057
3067	0.6924
3076	0.7095
3085	0.7629
3094	0.7453
3103	0.7847
3112	0.8377
3121	0.8496
3130	0.8546
3139	0.8583
3148	0.8616
3157	0.8645
3166	0.8669
3175	0.8691
3184	0.871
3193	0.873
3202	0.8749
3211	0.8768
3220	0.8787
3229	0.8805
3238	0.8822
3247	0.882
3256	0.8821
3265	0.883
3274	0.8843
3283	0.8859
3292	0.8875
3301	0.8889
3310	0.8902
3319	0.8915
3328	0.8927
3337	0.8938
3346	0.895
3355	0.8957
3364	0.8964
3373	0.897
3382	0.8973
3391	0.8967
3400	0.8961
3409	0.8955
3418	0.8949
3427	0.8942
3436	0.894
3445	0.8937
3454	0.8934
3463	0.8932
3472	0.8927
3481	0.892
3490	0.8913
3499	0.8906
3508	0.8931
3517	0.8896
3526	0.8892
3535	0.8886
3544	0.888
3553	0.8873
3562	0.8867
3571	0.8852
3580	0.8834
3589	0.8816
3598	0.8803
3607	0.8793
3616	0.8783
3625	0.8781
3634	0.8781
3643	0.8786
3652	0.8798
3661	0.8817
3670	0.8825
3679	0.8821
3688	0.8817
3697	0.8826
3706	0.8845
3715	0.8864
3724	0.8876
3733	0.8871
3742	0.8863
3751	0.8853
3760	0.884
3769	0.8824
3778	0.8819
3787	0.8832
3796	0.8835
