Infrared Spectrum: 1,6-DIOXASPIRO[4.4]NONANE-2,7-DIONE
Formula: C7 H8 O4
CAS: 3505-67-7
State: SOLID (MELT)
Melting point: 65-69 C
Class: COBLENTZ
Instrument: Not specified, most likely a prism, grating, or hybrid spectrometer.
Sampling: TRANSMISSION
Resolution: 4
Origin: TENNESSEE EASTMAN COMPANY, RESEARCH LABORATORIES
MICROMETERS	TRANSMITTANCE
2.068	0.964
2.1089	0.967
2.14979	0.967
2.19069	0.964
2.23159	0.962
2.27249	0.953
2.31338	0.953
2.35428	0.95
2.39518	0.95
2.43607	0.952
2.47697	0.952
2.51787	0.952
2.55877	0.952
2.59966	0.952
2.64056	0.952
2.68146	0.952
2.72235	0.95
2.76325	0.926
2.80415	0.877
2.84505	0.877
2.88594	0.919
2.92684	0.93
2.96774	0.93
3.00863	0.931
3.04953	0.93
3.09043	0.928
3.13132	0.928
3.17222	0.921
3.21312	0.909
3.25402	0.899
3.29491	0.865
3.33581	0.769
3.37671	0.715
3.4176	0.786
3.4585	0.849
3.4994	0.868
3.5403	0.901
3.58119	0.919
3.62209	0.921
3.66299	0.928
3.70388	0.928
3.74478	0.928
3.78568	0.928
3.82658	0.928
3.86747	0.928
3.90837	0.924
3.94927	0.928
3.99016	0.924
4.03106	0.923
4.07196	0.921
4.11286	0.907
4.15375	0.899
4.19465	0.907
4.23555	0.912
4.27644	0.912
4.31734	0.907
4.35824	0.906
4.39914	0.904
4.44003	0.894
4.48093	0.889
4.52183	0.897
4.56272	0.904
4.60362	0.909
4.64452	0.909
4.68542	0.911
4.72631	0.902
4.76721	0.906
4.80811	0.909
4.849	0.909
4.8899	0.889
4.9308	0.853
4.9717	0.866
5.01259	0.894
5.05349	0.889
5.09439	0.88
5.13528	0.854
5.17618	0.843
5.21708	0.834
5.25797	0.817
5.29887	0.8
5.33977	0.766
5.38067	0.687
5.42156	0.561
5.46246	0.327
5.50336	0.058
5.54425	0.032
5.58515	0.032
5.62605	0.109
5.66695	0.324
5.70784	0.44
5.74874	0.598
5.78964	0.699
5.83053	0.745
5.87143	0.788
5.91233	0.781
5.95323	0.796
5.99412	0.822
6.03502	0.839
6.07592	0.839
6.11681	0.836
6.15771	0.829
6.19861	0.82
6.23951	0.815
6.2804	0.825
6.3213	0.849
6.3622	0.853
6.40309	0.856
6.44399	0.858
6.48489	0.851
6.52579	0.854
6.56668	0.839
6.60758	0.844
6.64848	0.839
6.68937	0.839
6.73027	0.834
6.77117	0.812
6.81207	0.747
6.85296	0.51
6.89386	0.423
6.93476	0.631
6.97565	0.701
7.01655	0.496
7.05745	0.539
7.09835	0.716
7.13924	0.774
7.18014	0.778
7.22104	0.764
7.26193	0.742
7.30283	0.67
7.34373	0.488
7.38462	0.3
7.42552	0.337
7.46642	0.455
7.50732	0.551
7.54821	0.588
7.58911	0.609
7.63001	0.617
7.6709	0.467
7.7118	0.201
7.7527	0.199
7.7936	0.313
7.83449	0.45
7.87539	0.47
7.91629	0.412
7.95718	0.38
7.99808	0.39
8.03898	0.361
8.07988	0.23
8.12077	0.131
8.16167	0.127
8.20257	0.259
8.24346	0.416
8.28436	0.544
8.32526	0.581
8.36616	0.546
8.40705	0.482
8.44795	0.46
8.48885	0.445
8.52974	0.281
8.57064	0.141
8.61154	0.127
8.65244	0.158
8.69333	0.204
8.73423	0.271
8.77513	0.322
8.81602	0.319
8.85692	0.244
8.89782	0.155
8.93872	0.1
8.97961	0.083
9.02051	0.092
9.06141	0.139
9.1023	0.17
9.1432	0.259
9.1841	0.378
9.225	0.493
9.26589	0.534
9.30679	0.551
9.34769	0.523
9.38858	0.435
9.42948	0.273
9.47038	0.15
9.51127	0.119
9.55217	0.208
9.59307	0.349
9.63397	0.518
9.67486	0.6
9.71576	0.638
9.75666	0.656
9.79755	0.655
9.83845	0.614
9.87935	0.534
9.92025	0.428
9.96114	0.349
10.002	0.274
10.0429	0.215
10.0838	0.191
10.1247	0.221
10.1656	0.317
10.2065	0.412
10.2474	0.494
10.2883	0.54
10.3292	0.558
10.3701	0.544
10.411	0.482
10.4519	0.409
10.4928	0.341
10.5337	0.266
10.5746	0.194
10.6155	0.138
10.6564	0.107
10.6973	0.087
10.7382	0.078
10.7791	0.081
10.82	0.107
10.8609	0.172
10.9018	0.274
10.9427	0.383
10.9836	0.474
11.0245	0.529
11.0654	0.547
11.1063	0.535
11.1472	0.472
11.1881	0.382
11.229	0.232
11.2699	0.131
11.3107	0.09
11.3516	0.078
11.3925	0.08
11.4334	0.117
11.4743	0.206
11.5152	0.337
11.5561	0.476
11.597	0.568
11.6379	0.639
11.6788	0.684
11.7197	0.721
11.7606	0.747
11.8015	0.759
11.8424	0.764
11.8833	0.769
11.9242	0.774
11.9651	0.776
12.006	0.759
12.0469	0.738
12.0878	0.691
12.1287	0.612
12.1696	0.505
12.2105	0.457
12.2514	0.5
12.2923	0.58
12.3332	0.639
12.3741	0.66
12.415	0.658
12.4559	0.617
12.4968	0.569
12.5377	0.576
12.5786	0.65
12.6195	0.715
12.6604	0.75
12.7012	0.773
12.7421	0.786
12.783	0.793
12.8239	0.796
12.8648	0.807
12.9057	0.807
12.9466	0.81
12.9875	0.81
13.0284	0.81
13.0693	0.81
13.1102	0.81
13.1511	0.81
13.192	0.808
13.2329	0.807
13.2738	0.807
13.3147	0.803
13.3556	0.8
13.3965	0.796
13.4374	0.791
13.4783	0.786
13.5192	0.776
13.5601	0.767
13.601	0.761
13.6419	0.75
13.6828	0.749
13.7237	0.737
13.7646	0.721
13.8055	0.715
13.8464	0.699
13.8873	0.677
13.9282	0.667
13.9691	0.648
14.01	0.633
14.0509	0.598
14.0918	0.564
14.1326	0.532
14.1735	0.493
14.2144	0.47
14.2553	0.46
14.2962	0.46
14.3371	0.496
14.378	0.525
14.4189	0.564
14.4598	0.583
14.5007	0.6
14.5416	0.6
14.5825	0.6
14.6234	0.585
14.6643	0.58
14.7052	0.566
14.7461	0.551
14.787	0.532
14.8279	0.51
14.8688	0.491
14.9097	0.452
14.9506	0.431
14.9915	0.409
15.0324	0.368
15.0733	0.339
15.1142	0.312
15.1551	0.302
15.196	0.298
15.2369	0.296
15.2778	0.3
15.3187	0.305
15.3596	0.313
15.4005	0.324
15.4414	0.334
15.4823	0.346
15.5232	0.368
15.564	0.387
15.6049	0.394
15.6458	0.401
15.6867	0.412
15.7276	0.419
15.7685	0.43
15.8094	0.445
15.8503	0.448
15.8912	0.453
15.9321	0.459
15.973	0.464
