Infrared Spectrum: 1,4-Dibromocyclohexane
Formula: C 6 H 10 Br 2
CAS: 35076-92-7
State: gas
Origin: EPA-IR VAPOR PHASE LIBRARY
1/CM	ABSORBANCE
501.5	0.003656
513.074	0.003196
524.648	0.0010276
536.222	0.0004107
547.796	0.0003748
559.37	0.0006482
570.944	0.0004754
582.518	0.0004705
594.092	0.0005978
605.666	0.0004953
617.24	0.000858
628.814	0.002396
640.388	0.009116
651.962	0.007006
663.536	0.0010118
675.11	0.0008261
686.684	0.0006165
698.258	0.000458
709.832	0.0004116
721.406	0.0008962
732.98	0.002926
744.554	0.004706
756.128	0.001606
767.702	0.000654
779.276	0.0004382
790.85	0.0006047
802.423	0.0009961
813.997	0.002256
825.571	0.001936
837.145	0.001356
848.719	0.001666
860.293	0.004426
871.867	0.008746
883.441	0.003636
895.015	0.001626
906.589	0.0007833
918.163	0.0007314
929.737	0.0011022
941.311	0.000879
952.885	0.0007975
964.459	0.0008069
976.033	0.002136
987.607	0.011806
999.181	0.005936
1010.76	0.002616
1022.33	0.003046
1033.9	0.0010972
1045.48	0.0009802
1057.05	0.001656
1068.63	0.001496
1080.2	0.0008714
1091.77	0.0007736
1103.35	0.0006361
1114.92	0.000596
1126.49	0.0009929
1138.07	0.001266
1149.64	0.002356
1161.22	0.007076
1172.79	0.003726
1184.36	0.002326
1195.94	0.006466
1207.51	0.014656
1219.09	0.004626
1230.66	0.002006
1242.23	0.004046
1253.81	0.010566
1265.38	0.012136
1276.96	0.004236
1288.53	0.001716
1300.1	0.0011532
1311.68	0.0012077
1323.25	0.001886
1334.83	0.007426
1346.4	0.009396
1357.97	0.002576
1369.55	0.0010438
1381.12	0.0006919
1392.7	0.0007489
1404.27	0.0008459
1415.84	0.001536
1427.42	0.003936
1438.99	0.007416
1450.57	0.008266
1462.14	0.005086
1473.71	0.001796
1485.29	0.0007128
1496.86	0.000477
1508.44	0.0004793
1520.01	0.0004601
1531.58	0.0003979
1543.16	0.00030632
1554.73	0.00028623
1566.31	0.000230345
1577.88	0.000231076
1589.45	0.000230738
1601.03	0.00024465
1612.6	0.00025959
1624.18	0.00025323
1635.75	0.00026579
1647.32	0.00023917
1658.9	0.00021766
1670.47	0.0002061
1682.05	0.000228858
1693.62	0.000226784
1705.19	0.00025272
1716.77	0.00024206
1728.34	0.000214
1739.92	0.0001824
1751.49	0.0001941
1763.06	0.00024664
1774.64	0.00027391
1786.21	0.000233938
1797.79	0.0001872
1809.36	0.00024517
1820.93	0.0002051
1832.51	0.000193
1844.08	0.0001749
1855.66	0.0001872
1867.23	0.0001772
1878.8	0.00022344
1890.38	0.00024128
1901.95	0.0001918
1913.53	0.0002115
1925.1	0.0002055
1936.67	0.000184
1948.25	0.00021962
1959.82	0.0001908
1971.4	0.0001996
1982.97	0.000192
1994.54	0.0001958
2006.12	0.00025741
2017.69	0.0001808
2029.27	0.0001755
2040.84	0.0001471
2052.41	0.0001513
2063.99	0.00021775
2075.56	0.00026783
2087.14	0.000225782
2098.71	0.000201
2110.28	0.0001874
2121.86	0.000228856
2133.43	0.00021771
2145.01	0.0002342
2156.58	0.00026195
2168.15	0.0002745
2179.73	0.00029329
2191.3	0.00026187
2202.88	0.00024412
2214.45	0.000230529
2226.02	0.00025075
2237.6	0.0002068
2249.17	0.0002088
2260.74	0.00028317
2272.32	0.00027409
2283.89	0.000226469
2295.47	0.0001581
2307.04	0.0001552
2318.61	0.0001974
2330.19	0.00022021
2341.76	0.0001998
2353.34	0.0001951
2364.91	0.0001983
2376.48	0.00022251
2388.06	0.000229331
2399.63	0.00021818
2411.21	0.00026604
2422.78	0.00023666
2434.35	0.0001935
2445.93	0.0001436
2457.5	0.000169
2469.08	0.0001913
2480.65	0.00025575
2492.22	0.0001538
2503.8	0.00024668
2515.37	0.00025158
2526.95	0.0001945
2538.52	0.0001336
2550.09	0.000113
2561.67	8.4e-05
2573.24	0.000125
2584.82	0.0001773
2596.39	0.0001879
2607.96	0.00022447
2619.54	0.00026559
2631.11	0.0002636
2642.69	0.00026925
2654.26	0.00030868
2665.83	0.0003285
2677.41	0.0003513
2688.98	0.00027101
2700.56	0.00028575
2712.13	0.0001969
2723.7	0.0001922
2735.28	0.0002058
2746.85	0.00025306
2758.43	0.00024036
2770	0.00031797
2781.57	0.0004068
2793.15	0.0004864
2804.72	0.0005396
2816.3	0.0005706
2827.87	0.0012059
2839.44	0.003876
2851.02	0.005786
2862.59	0.004576
2874.17	0.005336
2885.74	0.006626
2897.31	0.008716
2908.89	0.007386
2920.46	0.003246
2932.04	0.003256
2943.61	0.007926
2955.18	0.020856
2966.76	0.029286
2978.33	0.016526
2989.91	0.005086
3001.48	0.001062
3013.05	0.0004823
3024.63	0.0003614
3036.2	0.00031729
3047.78	0.0002016
3059.35	0.0001718
3070.92	0.0001973
3082.5	0.0001568
3094.07	0.0001287
3105.65	0.000118
3117.22	0.000105
3128.79	0.0001473
3140.37	9.6e-05
3151.94	3.3e-05
3163.52	0.0001786
3175.09	0.0001383
3186.66	8.9e-05
3198.24	9.6e-05
3209.81	0.0001953
3221.39	0.000142
3232.96	0.0001283
3244.53	9.2e-05
3256.11	0
3267.68	0.000114
3279.26	0.0002146
3290.83	0.0001863
3302.4	0.0001916
3313.98	6.9e-05
3325.55	0.000123
3337.13	8.6e-05
3348.7	0.0001296
3360.27	7.1e-05
3371.85	0.0002116
3383.42	0.0002002
3395	0.00024003
3406.57	0.0001295
3418.14	0.0001501
3429.72	0.00011
3441.29	5.9e-05
3452.86	0.0001665
3464.44	0.00021676
3476.01	0.0001681
3487.59	0.0001606
3499.16	0.000111
3510.73	8.2e-05
3522.31	0.0001401
3533.88	0.000112
3545.46	0.0001653
3557.03	0.000124
3568.6	0.0001621
3580.18	0.0001539
3591.75	0.0001299
3603.33	7.6e-05
3614.9	0.000108
3626.47	0.0001722
3638.05	0.00011
3649.62	0.0001838
3661.2	0.0001319
3672.77	0.0001597
3684.34	0.0001392
3695.92	0.00024884
3707.49	0.0001724
3719.07	0.0002452
3730.64	0.0001772
3742.21	0.0001763
3753.79	0.0001922
3765.36	0.0002405
3776.94	0.0001473
3788.51	0.0001502
3800.08	0.0001989
3811.66	0.0002013
3823.23	0.0001516
3834.81	0.000227352
3846.38	0.0001971
3857.95	0.0003305
3869.53	0.0001689
3881.1	0.0002644
3892.68	0.0001664
3904.25	0.0001857
3915.82	0.0001771
3927.4	0.000225418
3938.97	0.00031152
3950.55	0.0003475
3962.12	0.00026602
3973.69	0.00027806
3985.27	0.0002105
3996.84	0.0001926
