Infrared Spectrum: 2-PYRAZOLIN-5-ONE, 3-ISOBUTYL-
Formula: C7 H12 N2 O
CAS: 35087-29-7
State: SOLID (KBr PELLET)
Class: COBLENTZ
Instrument: Not specified, most likely a prism, grating, or hybrid spectrometer.
Sampling: TRANSMISSION
Resolution: 4
Origin: TENNESSEE EASTMAN COMPANY, RESEARCH LABORATORIES
MICROMETERS	TRANSMITTANCE
2.034	0.878
2.07491	0.88
2.11583	0.885
2.15674	0.89
2.19766	0.899
2.23857	0.904
2.27949	0.906
2.3204	0.911
2.36132	0.914
2.40223	0.914
2.44315	0.918
2.48406	0.921
2.52498	0.926
2.56589	0.928
2.60681	0.926
2.64772	0.926
2.68864	0.926
2.72955	0.928
2.77047	0.914
2.81138	0.887
2.8523	0.863
2.89321	0.834
2.93413	0.822
2.97504	0.831
3.01596	0.848
3.05687	0.849
3.09779	0.825
3.1387	0.81
3.17962	0.774
3.22053	0.75
3.26145	0.74
3.30236	0.718
3.34328	0.638
3.38419	0.421
3.42511	0.508
3.46602	0.518
3.50694	0.575
3.54785	0.578
3.58877	0.54
3.62968	0.503
3.6706	0.477
3.71151	0.474
3.75243	0.474
3.79334	0.474
3.83426	0.476
3.87517	0.477
3.91609	0.479
3.957	0.494
3.99792	0.503
4.03883	0.525
4.07974	0.547
4.12066	0.561
4.16157	0.578
4.20249	0.585
4.2434	0.581
4.28432	0.566
4.32523	0.571
4.36615	0.646
4.40706	0.68
4.44798	0.696
4.48889	0.72
4.52981	0.735
4.57072	0.759
4.61164	0.784
4.65255	0.8
4.69347	0.817
4.73438	0.836
4.7753	0.844
4.81621	0.858
4.85713	0.87
4.89804	0.88
4.93896	0.895
4.97987	0.907
5.02079	0.923
5.0617	0.931
5.10262	0.935
5.14353	0.933
5.18445	0.931
5.22536	0.931
5.26628	0.931
5.30719	0.931
5.34811	0.931
5.38902	0.933
5.42994	0.933
5.47085	0.933
5.51177	0.933
5.55268	0.931
5.5936	0.93
5.63451	0.926
5.67543	0.926
5.71634	0.919
5.75726	0.906
5.79817	0.906
5.83909	0.899
5.88	0.899
5.92092	0.909
5.96183	0.907
6.00275	0.902
6.04366	0.87
6.08458	0.747
6.12549	0.474
6.1664	0.148
6.20732	0.088
6.24823	0.259
6.28915	0.419
6.33006	0.419
6.37098	0.378
6.41189	0.324
6.45281	0.31
6.49372	0.348
6.53464	0.38
6.57555	0.337
6.61647	0.271
6.65738	0.288
6.6983	0.418
6.73921	0.484
6.78013	0.414
6.82104	0.349
6.86196	0.423
6.90287	0.436
6.94379	0.477
6.9847	0.598
7.02562	0.643
7.06653	0.667
7.10745	0.668
7.14836	0.699
7.18928	0.711
7.23019	0.706
7.27111	0.766
7.31202	0.759
7.35294	0.796
7.39385	0.824
7.43477	0.829
7.47568	0.829
7.5166	0.831
7.55751	0.848
7.59843	0.854
7.63934	0.865
7.68026	0.866
7.72117	0.872
7.76209	0.837
7.803	0.839
7.84392	0.836
7.88483	0.767
7.92575	0.716
7.96666	0.778
8.00758	0.813
8.04849	0.827
8.08941	0.827
8.13032	0.82
8.17123	0.766
8.21215	0.791
8.25306	0.807
8.29398	0.81
8.33489	0.774
8.37581	0.648
8.41672	0.585
8.45764	0.645
8.49855	0.694
8.53947	0.677
8.58038	0.67
8.6213	0.704
8.66221	0.728
8.70313	0.744
8.74404	0.749
8.78496	0.747
8.82587	0.752
8.86679	0.749
8.9077	0.749
8.94862	0.742
8.98953	0.745
9.03045	0.752
9.07136	0.752
9.11228	0.747
9.15319	0.716
9.19411	0.686
9.23502	0.708
9.27594	0.737
9.31685	0.75
9.35777	0.757
9.39868	0.764
9.4396	0.764
9.48051	0.761
9.52143	0.762
9.56234	0.762
9.60326	0.761
9.64417	0.754
9.68509	0.755
9.726	0.747
9.76692	0.735
9.80783	0.696
9.84875	0.638
9.88966	0.597
9.93058	0.597
9.97149	0.648
10.0124	0.663
10.0533	0.648
10.0942	0.597
10.1352	0.525
10.1761	0.474
10.217	0.469
10.2579	0.535
10.2988	0.607
10.3397	0.648
10.3806	0.674
10.4216	0.679
10.4625	0.677
10.5034	0.674
10.5443	0.656
10.5852	0.624
10.6261	0.619
10.667	0.638
10.708	0.65
10.7489	0.656
10.7898	0.653
10.8307	0.645
10.8716	0.638
10.9125	0.636
10.9534	0.636
10.9944	0.634
11.0353	0.634
11.0762	0.634
11.1171	0.634
11.158	0.638
11.1989	0.636
11.2399	0.639
11.2808	0.645
11.3217	0.643
11.3626	0.643
11.4035	0.641
11.4444	0.641
11.4853	0.646
11.5263	0.646
11.5672	0.653
11.6081	0.656
11.649	0.656
11.6899	0.658
11.7308	0.655
11.7717	0.656
11.8127	0.656
11.8536	0.656
11.8945	0.653
11.9354	0.648
11.9763	0.646
12.0172	0.646
12.0582	0.645
12.0991	0.638
12.14	0.621
12.1809	0.614
12.2218	0.643
12.2627	0.655
12.3036	0.663
12.3446	0.668
12.3855	0.675
12.4264	0.674
12.4673	0.674
12.5082	0.668
12.5491	0.66
12.59	0.645
12.631	0.616
12.6719	0.566
12.7128	0.506
12.7537	0.464
12.7946	0.421
12.8355	0.423
12.8764	0.455
12.9174	0.488
12.9583	0.517
12.9992	0.525
13.0401	0.517
13.081	0.445
13.1219	0.353
13.1629	0.366
13.2038	0.494
13.2447	0.595
13.2856	0.638
13.3265	0.667
13.3674	0.692
13.4083	0.704
13.4493	0.713
13.4902	0.716
13.5311	0.723
13.572	0.726
13.6129	0.73
13.6538	0.732
13.6947	0.732
13.7357	0.732
13.7766	0.728
13.8175	0.723
13.8584	0.723
13.8993	0.72
13.9402	0.709
13.9812	0.694
14.0221	0.675
14.063	0.653
14.1039	0.634
14.1448	0.616
14.1857	0.605
14.2266	0.602
14.2676	0.6
14.3085	0.598
14.3494	0.598
14.3903	0.6
14.4312	0.597
14.4721	0.587
14.513	0.585
14.554	0.595
14.5949	0.597
14.6358	0.602
14.6767	0.609
14.7176	0.609
14.7585	0.61
14.7994	0.612
14.8404	0.609
14.8813	0.598
14.9222	0.578
14.9631	0.547
15.004	0.53
15.0449	0.537
15.0859	0.551
15.1268	0.549
15.1677	0.539
15.2086	0.517
15.2495	0.506
15.2904	0.496
15.3313	0.486
15.3723	0.47
15.4132	0.464
15.4541	0.45
15.495	0.445
15.5359	0.435
15.5768	0.426
15.6177	0.418
15.6587	0.407
15.6996	0.399
15.7405	0.392
15.7814	0.387
15.8223	0.373
15.8632	0.366
15.9042	0.358
15.9451	0.351
15.986	0.343
