Infrared Spectrum: m-Fluoroacetanilide
Formula: C8 H8 F N O
CAS: 351-28-0
State: SOLID (SPLIT MULL), FLUOROLUBE FOR 3800-1330 CM^-^1, NUJOL FOR 1330-400 CM^-^1
Class: COBLENTZ III
Instrument: DOW KBr FOREPRISM-GRATING
Instrument parameters: BLAZED AT 3.5, 12.0, 20.0 MICRON AND CHANGED AT 5.0, 7.5, 14.9 MICRON
Sampling: TRANSMISSION
Resolution: 2
Origin: DOW CHEMICAL COMPANY
1/CM	TRANSMITTANCE
3806	0.5926
3797	0.5954
3788	0.5989
3779	0.6024
3770	0.6058
3761	0.6084
3752	0.6101
3743	0.6115
3734	0.6127
3725	0.6139
3716	0.6155
3707	0.6171
3698	0.6188
3689	0.62
3680	0.6212
3671	0.6225
3662	0.6239
3653	0.6255
3644	0.6271
3635	0.6288
3626	0.6306
3617	0.6325
3608	0.6343
3599	0.636
3590	0.6379
3581	0.6397
3572	0.6418
3563	0.6439
3554	0.6461
3545	0.6484
3536	0.651
3527	0.6536
3518	0.6561
3509	0.6584
3500	0.6607
3491	0.6632
3482	0.6662
3473	0.6693
3464	0.6724
3455	0.6756
3446	0.6789
3437	0.6825
3428	0.6862
3419	0.6903
3410	0.6943
3401	0.6978
3392	0.7014
3383	0.7048
3374	0.7078
3365	0.7086
3356	0.6978
3347	0.6888
3338	0.6815
3329	0.6638
3320	0.6024
3311	0.4886
3302	0.47
3293	0.4809
3284	0.4866
3275	0.3838
3266	0.3054
3257	0.3544
3248	0.4262
3239	0.466
3230	0.4745
3221	0.4424
3212	0.3818
3203	0.3891
3194	0.4473
3185	0.4814
3176	0.5055
3167	0.5021
3158	0.426
3149	0.352
3140	0.3739
3131	0.4334
3122	0.4245
3113	0.4124
3104	0.3908
3095	0.328
3086	0.3332
3077	0.3932
3068	0.431
3059	0.4344
3050	0.4231
3041	0.4419
3032	0.4759
3023	0.5028
3014	0.5258
3005	0.5351
2996	0.5302
2987	0.5352
2978	0.5547
2969	0.5683
2960	0.5784
2951	0.583
2942	0.5767
2933	0.5749
2924	0.5907
2915	0.6029
2906	0.6128
2897	0.621
2888	0.6256
2879	0.6182
2870	0.6142
2861	0.6203
2852	0.6315
2843	0.6376
2834	0.6411
2825	0.6421
2816	0.6337
2807	0.6411
2798	0.6487
2789	0.6558
2780	0.6621
2771	0.668
2762	0.6733
2753	0.6778
2744	0.6814
2735	0.6843
2726	0.6868
2717	0.6891
2708	0.6921
2699	0.696
2690	0.6991
2681	0.7026
2672	0.7069
2663	0.711
2654	0.7136
2645	0.714
2636	0.7124
2627	0.7121
2618	0.7142
2609	0.7181
2600	0.7219
2591	0.7228
2582	0.7221
2573	0.7239
2564	0.7262
2555	0.7288
2546	0.7312
2537	0.7337
2528	0.7361
2519	0.7381
2510	0.74
2501	0.7419
2492	0.7444
2483	0.7465
2474	0.7483
2465	0.7499
2456	0.7508
2447	0.7515
2438	0.7522
2429	0.7528
2420	0.7528
2411	0.7496
2402	0.7482
2393	0.7501
2384	0.7497
2375	0.7475
2366	0.7493
2357	0.7518
2348	0.7478
2339	0.7489
2330	0.7514
2321	0.7549
2312	0.7592
2303	0.7626
2294	0.7643
2285	0.7654
2276	0.7675
2267	0.7708
2258	0.7747
2249	0.779
2240	0.7835
2231	0.7875
2222	0.7915
2213	0.7956
2204	0.7996
2195	0.8036
2186	0.8076
2177	0.8115
2168	0.8157
2159	0.8197
2150	0.8238
2141	0.8277
2132	0.8318
2123	0.8358
2114	0.8378
2105	0.8391
2096	0.8413
2087	0.8446
2078	0.8483
2069	0.8523
2060	0.8549
2051	0.8589
2042	0.8625
2033	0.8932
2024	0.8677
2015	0.8698
2006	0.8962
1997	0.8128
1988	0.8364
1979	0.8402
1970	0.8475
1961	0.9893
1952	0.8595
1943	0.8466
1934	0.8338
1925	0.8503
1916	0.8559
1907	0.8523
1898	0.8535
1889	0.8611
1880	0.8657
1871	0.8705
1862	0.8734
1853	0.8683
1844	0.8621
1835	0.8689
1826	0.8752
1817	0.8815
1808	0.8848
1799	0.881
1790	0.883
1781	0.8874
1772	0.8923
1763	0.8928
1754	0.8934
1745	0.8977
1736	0.8911
1727	0.8359
1718	0.8637
1709	0.8877
1700	0.8632
1691	0.8065
1682	0.5393
1673	0.1674
1664	0.1871
1655	0.4128
1646	0.591
1637	0.5849
1628	0.4448
1619	0.1363
1610	0.1422
1601	0.3428
1592	0.5501
1583	0.5988
1574	0.5789
1565	0.2566
1556	0.087
1547	0.2527
1538	0.3923
1529	0.4514
1520	0.5394
1511	0.582
1502	0.6217
1493	0.3964
1484	0.3012
1475	0.5594
1466	0.6601
1457	0.5105
1448	0.1624
1439	0.2722
1430	0.291
1421	0.3738
1412	0.5314
1403	0.6138
1394	0.6372
1385	0.6389
1376	0.5606
1367	0.3526
1358	0.57
1349	0.613
1340	0.6287
1331	0.5888
1322	0.4474
1313	0.6288
1304	0.6336
1295	0.2318
1286	0.3418
1277	0.6273
1268	0.4131
1259	0.4219
1250	0.5858
1241	0.6619
1232	0.7064
1223	0.7311
1214	0.7376
1205	0.7486
1196	0.7656
1187	0.7771
1178	0.7742
1169	0.6381
1160	0.7737
1151	0.7661
1142	0.2359
1133	0.6445
1124	0.7388
1115	0.7648
1106	0.7835
1097	0.7895
1088	0.7899
1079	0.718
1070	0.7778
1061	0.7855
1052	0.7458
1043	0.6857
1034	0.7562
1025	0.5846
1016	0.6857
1007	0.7669
998	0.8019
989	0.8304
980	0.8377
971	0.7796
962	0.6195
953	0.5595
944	0.8368
935	0.8697
926	0.8848
917	0.8846
908	0.8898
899	0.8927
890	0.8895
881	0.8568
872	0.827
863	0.4972
854	0.8455
845	0.8682
836	0.8656
827	0.8485
818	0.8176
809	0.7345
800	0.5922
791	0.138
782	0.6274
773	0.4374
764	0.4403
755	0.6165
746	0.6971
737	0.7307
728	0.7258
719	0.7651
710	0.8256
701	0.8495
692	0.8303
683	0.764
674	0.8745
665	0.8695
656	0.8683
647	0.8804
638	0.8805
629	0.8736
620	0.6825
611	0.8707
602	0.8815
593	0.8762
584	0.8165
575	0.8781
566	0.8763
557	0.8682
548	0.8457
539	0.4575
530	0.8275
521	0.645
512	0.8384
503	0.8325
494	0.828
485	0.8374
476	0.8463
467	0.8534
458	0.832
449	0.7325
440	0.8733
431	0.8821
422	0.8856
413	0.8859
404	0.8862
395	0.8881
386	0.8916
