Infrared Spectrum: m-Trifluoromethylacetanilide
Formula: C 9 H 8 F 3 N O
CAS: 351-36-0
State: gas
Origin: EPA-IR VAPOR PHASE LIBRARY
1/CM	ABSORBANCE
549.8	0.010345
559.445	0.005555
569.09	0.004105
578.734	0.004365
588.379	0.003425
598.024	0.003195
607.669	0.004055
617.313	0.004205
626.958	0.004035
636.603	0.004235
646.248	0.009405
655.893	0.014135
665.537	0.009055
675.182	0.010475
684.827	0.021495
694.472	0.039935
704.116	0.025955
713.761	0.009315
723.406	0.004605
733.051	0.003225
742.695	0.002705
752.34	0.004775
761.985	0.006645
771.63	0.007905
781.275	0.019045
790.919	0.032715
800.564	0.020775
810.209	0.007245
819.854	0.003845
829.498	0.003025
839.143	0.003355
848.788	0.004305
858.433	0.007455
868.078	0.013915
877.722	0.016615
887.367	0.018165
897.012	0.020105
906.657	0.014885
916.301	0.009105
925.946	0.007115
935.591	0.008785
945.236	0.011185
954.88	0.011885
964.525	0.012725
974.17	0.016415
983.815	0.024495
993.46	0.029115
1003.1	0.028165
1012.75	0.016965
1022.39	0.012255
1032.04	0.011465
1041.68	0.013705
1051.33	0.018755
1060.97	0.034045
1070.62	0.061995
1080.26	0.051595
1089.91	0.039215
1099.55	0.049525
1109.2	0.028345
1118.84	0.030405
1128.49	0.068415
1138.13	0.172315
1147.78	0.279105
1157.42	0.170465
1167.07	0.142535
1176.71	0.208725
1186.36	0.156205
1196	0.089785
1205.64	0.100705
1215.29	0.118765
1224.93	0.090355
1234.58	0.085555
1244.22	0.059925
1253.87	0.032065
1263.51	0.028555
1273.16	0.041535
1282.8	0.055505
1292.45	0.073285
1302.09	0.098965
1311.74	0.101485
1321.38	0.196495
1331.03	0.416365
1340.67	0.184255
1350.32	0.041985
1359.96	0.036495
1369.61	0.044915
1379.25	0.034045
1388.9	0.024735
1398.54	0.025255
1408.18	0.038195
1417.83	0.061515
1427.47	0.105755
1437.12	0.138955
1446.76	0.072455
1456.41	0.036095
1466.05	0.037635
1475.7	0.064785
1485.34	0.119515
1494.99	0.106345
1504.63	0.086765
1514.28	0.114955
1523.92	0.137365
1533.57	0.097205
1543.21	0.045675
1552.86	0.025535
1562.5	0.019645
1572.15	0.019235
1581.79	0.022885
1591.44	0.031845
1601.08	0.041655
1610.73	0.036265
1620.37	0.029035
1630.01	0.015005
1639.66	0.009025
1649.3	0.008275
1658.95	0.008095
1668.59	0.008645
1678.24	0.010575
1687.88	0.015485
1697.53	0.024465
1707.17	0.037325
1716.82	0.076395
1726.46	0.148655
1736.11	0.136895
1745.75	0.076905
1755.4	0.046935
1765.04	0.030695
1774.69	0.017855
1784.33	0.010745
1793.98	0.007055
1803.62	0.005545
1813.27	0.005075
1822.91	0.004435
1832.55	0.003885
1842.2	0.003565
1851.84	0.003475
1861.49	0.003415
1871.13	0.003085
1880.78	0.003265
1890.42	0.003025
1900.07	0.002315
1909.71	0.002135
1919.36	0.002315
1929	0.002655
1938.65	0.002685
1948.29	0.002465
1957.94	0.002035
1967.58	0.001585
1977.23	0.001235
1986.87	0.0011387
1996.52	0.0009853
2006.16	0.0010576
2015.81	0.0011486
2025.45	0.0011314
2035.1	0.001215
2044.74	0.001205
2054.38	0.001265
2064.03	0.001255
2073.67	0.001425
2083.32	0.001625
2092.96	0.001975
2102.61	0.001605
2112.25	0.001285
2121.9	0.0011739
2131.54	0.001405
2141.19	0.001395
2150.83	0.001515
2160.48	0.001635
2170.12	0.001655
2179.77	0.001495
2189.41	0.001315
2199.06	0.001345
2208.7	0.001285
2218.35	0.001295
2227.99	0.001225
2237.64	0.001215
2247.28	0.001325
2256.92	0.001365
2266.57	0.001555
2276.21	0.001665
2285.86	0.001685
2295.5	0.001365
2305.15	0.001435
2314.79	0.001485
2324.44	0.001625
2334.08	0.001685
2343.73	0.001765
2353.37	0.001735
2363.02	0.001535
2372.66	0.001385
2382.31	0.001525
2391.95	0.001385
2401.6	0.001445
2411.24	0.001315
2420.89	0.001155
2430.53	0.001172
2440.18	0.0011286
2449.82	0.0010269
2459.47	0.0010279
2469.11	0.001225
2478.75	0.0011661
2488.4	0.001305
2498.04	0.001195
2507.69	0.001275
2517.33	0.001335
2526.98	0.001235
2536.62	0.0008841
2546.27	0.0009546
2555.91	0.0008514
2565.56	0.000694
2575.2	0.0007775
2584.85	0.0007558
2594.49	0.0008849
2604.14	0.0008204
2613.78	0.0009078
2623.43	0.0010025
2633.07	0.0010707
2642.72	0.0009798
2652.36	0.001255
2662.01	0.001365
2671.65	0.000886
2681.29	0.0007869
2690.94	0.000741
2700.58	0.0007282
2710.23	0.0008082
2719.87	0.0009278
2729.52	0.0008736
2739.16	0.0009946
2748.81	0.0009039
2758.45	0.0008225
2768.1	0.0007605
2777.74	0.0006748
2787.39	0.000668
2797.03	0.0005029
2806.68	0.000601
2816.32	0.000715
2825.97	0.0008641
2835.61	0.0009685
2845.26	0.000994
2854.9	0.001295
2864.55	0.001136
2874.19	0.0011634
2883.84	0.001305
2893.48	0.001525
2903.12	0.002255
2912.77	0.002655
2922.41	0.003365
2932.06	0.004865
2941.7	0.005715
2951.35	0.004385
2960.99	0.003325
2970.64	0.002875
2980.28	0.002825
2989.93	0.002825
2999.57	0.002915
3009.22	0.003515
3018.86	0.004815
3028.51	0.006765
3038.15	0.007395
3047.8	0.008115
3057.44	0.008005
3067.09	0.007375
3076.73	0.006955
3086.38	0.006965
3096.02	0.006375
3105.67	0.005275
3115.31	0.004115
3124.95	0.002955
3134.6	0.002015
3144.24	0.001485
3153.89	0.0011556
3163.53	0.0008386
3173.18	0.0006507
3182.82	0.0007117
3192.47	0.000562
3202.11	0.0005306
3211.76	0.0006389
3221.4	0.0005423
3231.05	0.0004495
3240.69	0.0003112
3250.34	0.00026958
3259.98	0.0004447
3269.63	0.0002997
3279.27	9.8e-05
3288.92	0.00027474
3298.56	0.00023365
3308.21	0.00022137
3317.85	0.0003585
3327.49	0.0003538
3337.14	0.0003171
3346.78	0.0004355
3356.43	0.0004711
3366.07	0.0005985
3375.72	0.0005983
3385.36	0.0011278
3395.01	0.001355
3404.65	0.002305
3414.3	0.003255
3423.94	0.004325
3433.59	0.005645
3443.23	0.007435
3452.88	0.010275
3462.52	0.014405
3472.17	0.012085
3481.81	0.004735
3491.46	0.002575
3501.1	0.001675
3510.75	0.0009097
3520.39	0.0007106
3530.04	0.0003152
3539.68	0.0003505
3549.32	0.0004622
3558.97	0.0003932
3568.61	0.0004005
3578.26	0.0003819
3587.9	0.0002891
3597.55	0.0003525
3607.19	0.0003939
3616.84	0.0003059
3626.48	0.0003867
3636.13	0.0002919
3645.77	0.000112
3655.42	0.000305
3665.06	0.0001347
3674.71	0.00016621
3684.35	0.00020436
3694	0.00024569
3703.64	0.0003536
3713.29	0.0002799
3722.93	0.00026959
3732.58	0.0002897
3742.22	0.00027163
3751.86	0.0004117
3761.51	0.00044
3771.15	0.0003148
3780.8	0.0003274
3790.44	0.00021881
3800.09	0.0004324
3809.73	0.000326
3819.38	0.0003161
3829.02	0.0004071
3838.67	0.00022026
3848.31	0.00021715
3857.96	0.0003519
3867.6	0.0003679
3877.25	0.00020903
3886.89	0.000441
3896.54	0.00024428
3906.18	0.0002957
3915.83	0.0003478
3925.47	0.00017047
3935.12	0.0004062
3944.76	0.0004423
3954.41	0.0003812
3964.05	0.0006081
3973.69	0.00023223
3983.34	0.0003082
3992.98	0.0005687
