Infrared Spectrum: Silane, n-propyl-trimethyl-,
Formula: C6 H16 Si
CAS: 3510-70-1
State: SOLUTION (10% CCl4 FOR 3800-1300, 2% CS2 FOR 1300-650, AND 10% CCl4 FOR 650-250)
Boiling point: 88 C
Class: COBLENTZ III
Instrument: PERKIN-ELMER 521 (GRATING)
Instrument parameters: FILTERS AT 3150, 2500, 2000, 1150, 700, 410. GRATING CHANGES: 2000, 630
Path length: 0.011 CM, 0.011 CM, AND 0.021 CM
Resolution: 2
Origin: DOW CORNING CORP.
1/CM	TRANSMITTANCE
247	0.8433
256	0.8384
265	0.822
274	0.7803
283	0.7219
292	0.6738
301	0.7199
310	0.7786
319	0.7987
328	0.7954
337	0.7539
346	0.5816
355	0.5538
364	0.7719
373	0.7961
382	0.7948
391	0.7867
400	0.7826
409	0.7697
418	0.7738
427	0.8047
436	0.8171
445	0.825
454	0.8277
463	0.8207
472	0.8356
481	0.8382
490	0.8422
499	0.851
508	0.8495
517	0.8519
526	0.8532
535	0.8528
544	0.8501
553	0.8456
562	0.8373
571	0.8222
580	0.8148
589	0.8257
598	0.7888
607	0.6616
616	0.8129
625	0.7888
634	0.7133
643	0.6403
652	0.8385
661	0.8081
670	0.8463
679	0.8103
688	0.6823
697	0.6627
706	0.8199
715	0.8371
724	0.8308
733	0.7967
742	0.6519
751	0.702
760	0.7437
769	0.8231
778	0.8328
787	0.8361
796	0.8139
805	0.7839
814	0.7347
823	0.6664
832	0.3704
841	0.2092
850	0.2682
859	0.2627
868	0.644
877	0.7433
886	0.7534
895	0.7049
904	0.8349
913	0.8685
922	0.882
931	0.8832
940	0.8823
949	0.8884
958	0.8851
967	0.878
976	0.8698
985	0.8556
994	0.7796
1003	0.7743
1012	0.8518
1021	0.8553
1030	0.8471
1039	0.8498
1048	0.8349
1057	0.7839
1066	0.6824
1075	0.8357
1084	0.8542
1093	0.8662
1102	0.8749
1111	0.8928
1120	0.8935
1129	0.8937
1138	0.8944
1147	0.9003
1156	0.8967
1165	0.8907
1174	0.8811
1183	0.8677
1192	0.8296
1201	0.829
1210	0.8482
1219	0.8541
1228	0.8146
1237	0.6928
1246	0.2307
1255	0.6389
1264	0.8216
1273	0.851
1282	0.8472
1291	0.8395
1300	0.7656
1309	0.811
1318	0.8027
1327	0.6908
1336	0.617
1345	0.7994
1354	0.8034
1363	0.7814
1372	0.6456
1381	0.6848
1390	0.7267
1399	0.6558
1408	0.4736
1417	0.5387
1426	0.6353
1435	0.64
1444	0.6
1453	0.4508
1462	0.4437
1471	0.7071
1480	0.7838
1489	0.8182
1498	0.8363
1507	0.8493
1516	0.8618
1525	0.8725
1534	0.8792
1543	0.8836
1552	0.8865
1561	0.8867
1570	0.8863
1579	0.8876
1588	0.8923
1597	0.8885
1606	0.8837
1615	0.8859
1624	0.8878
1633	0.885
1642	0.8847
1651	0.8885
1660	0.8864
1669	0.887
1678	0.8884
1687	0.8902
1696	0.8919
1705	0.8938
1714	0.8968
1723	0.8989
1732	0.8966
1741	0.8933
1750	0.8884
1759	0.8931
1768	0.8952
1777	0.893
1786	0.8913
1795	0.8917
1804	0.8921
1813	0.8923
1822	0.8932
1831	0.8963
1840	0.8797
1849	0.8637
1858	0.8857
1867	0.8898
1876	0.8893
1885	0.8905
1894	0.8825
1903	0.8819
1912	0.8805
1921	0.8686
1930	0.8515
1939	0.8525
1948	0.8661
1957	0.8831
1966	0.889
1975	0.8906
1984	0.8921
1993	0.8927
2002	0.8918
2011	0.8913
2020	0.8909
2029	0.8903
2038	0.8895
2047	0.8886
2056	0.8879
2065	0.8859
2074	0.8761
2083	0.8693
2092	0.8662
2101	0.8689
2110	0.8752
2119	0.8818
2128	0.8873
2137	0.8884
2146	0.889
2155	0.8893
2164	0.8894
2173	0.8895
2182	0.8895
2191	0.8889
2200	0.8884
2209	0.8876
2218	0.8862
2227	0.8843
2236	0.8831
2245	0.8824
2254	0.8823
2263	0.8834
2272	0.8879
2281	0.8886
2290	0.8885
2299	0.8894
2308	0.8948
2317	0.8991
2326	0.9005
2335	0.8998
2344	0.8979
2353	0.8954
2362	0.8928
2371	0.8895
2380	0.8858
2389	0.8824
2398	0.8832
2407	0.888
2416	0.8884
2425	0.8871
2434	0.8859
2443	0.8837
2452	0.8819
2461	0.881
2470	0.8785
2479	0.8738
2488	0.8715
2497	0.8735
2506	0.8771
2515	0.8796
2524	0.8808
2533	0.8803
2542	0.8798
2551	0.8792
2560	0.8788
2569	0.878
2578	0.877
2587	0.8755
2596	0.8724
2605	0.8628
2614	0.8555
2623	0.8591
2632	0.862
2641	0.8592
2650	0.8513
2659	0.8462
2668	0.855
2677	0.8612
2686	0.8679
2695	0.8671
2704	0.8618
2713	0.857
2722	0.8383
2731	0.8305
2740	0.8384
2749	0.8357
2758	0.8305
2767	0.8164
2776	0.7949
2785	0.7501
2794	0.6743
2803	0.643
2812	0.6864
2821	0.6834
2830	0.6724
2839	0.6533
2848	0.613
2857	0.4973
2866	0.2769
2875	0.1
2884	0.1475
2893	0.1805
2902	0.1398
2911	0.1414
2920	0.1561
2929	0.0919
2938	0.1224
2947	0.0938
2956	0.0001
2965	0.0015
2974	0.0283
2983	0.2906
2992	0.5186
3001	0.6276
3010	0.6757
3019	0.7011
3028	0.7254
3037	0.7523
3046	0.768
3055	0.78
3064	0.79
3073	0.7988
3082	0.806
3091	0.8128
3100	0.8193
3109	0.8264
3118	0.8335
3127	0.8392
3136	0.8442
3145	0.8463
3154	0.8464
3163	0.8456
3172	0.8474
3181	0.8524
3190	0.8542
3199	0.855
3208	0.8563
3217	0.8625
3226	0.872
3235	0.8778
3244	0.8794
3253	0.8808
3262	0.8825
3271	0.8841
3280	0.8868
3289	0.8879
3298	0.8861
3307	0.8843
3316	0.8842
3325	0.8871
3334	0.8887
3343	0.8898
3352	0.8907
3361	0.8915
3370	0.8924
3379	0.8927
3388	0.8929
3397	0.8932
3406	0.8939
3415	0.8946
3424	0.8953
3433	0.8956
3442	0.8954
3451	0.8951
3460	0.8949
3469	0.8946
3478	0.8943
3487	0.894
3496	0.8938
3505	0.8935
3514	0.8928
3523	0.8915
3532	0.8899
3541	0.8882
3550	0.8879
3559	0.8877
3568	0.8874
3577	0.8874
3586	0.8884
3595	0.8891
3604	0.8876
3613	0.8861
3622	0.883
3631	0.8794
3640	0.8758
3649	0.8722
3658	0.8726
3667	0.8758
3676	0.8789
3685	0.8785
3694	0.8767
3703	0.8678
3712	0.8613
3721	0.8638
3730	0.8662
3739	0.8645
3748	0.8657
3757	0.8674
3766	0.8693
3775	0.8735
3784	0.8825
3793	0.8781
3802	0.8752
3811	0.8773
3820	0.8841
