Infrared Spectrum: PROPANE, 2,3-DIBROMO-(2,4,6-TRIBROMOPHENOXY)-
Formula: C9 H7 Br5 O
CAS: 35109-60-5
Class: COBLENTZ III
Instrument: PERKIN-ELMER 283
Sampling: TRANSMISSION
Path length: HOT PRESSED FILM, CsI WINDOW
Resolution: 4
Origin: PERKIN-ELMER
1/CM	TRANSMITTANCE
200.39	0.749
210.149	0.851
219.909	0.905
229.668	0.936
239.427	0.93
249.186	0.918
258.946	0.952
268.705	0.965
278.464	0.965
288.224	0.958
297.983	0.936
307.742	0.965
317.501	0.957
327.261	0.932
337.02	0.931
346.779	0.944
356.538	0.861
366.298	0.961
376.057	0.965
385.816	0.963
395.576	0.966
405.335	0.97
415.094	0.975
424.853	0.974
434.613	0.953
444.372	0.984
454.131	0.983
463.891	0.959
473.65	0.987
483.409	0.967
493.168	0.957
502.928	0.972
512.687	0.962
522.446	0.937
532.206	0.922
541.965	0.699
551.724	0.843
561.483	0.527
571.243	0.732
581.002	0.57
590.761	0.852
600.52	0.886
610.28	0.915
620.039	0.919
629.798	0.909
639.558	0.827
649.317	0.692
659.076	0.658
668.835	0.785
678.595	0.741
688.354	0.67
698.113	0.699
707.873	0.829
717.632	0.803
727.391	0.504
737.15	0.262
746.91	0.747
756.669	0.88
766.428	0.926
776.188	0.934
785.947	0.94
795.706	0.932
805.465	0.931
815.225	0.884
824.984	0.861
834.743	0.683
844.502	0.737
854.262	0.331
864.021	0.662
873.78	0.67
883.54	0.727
893.299	0.864
903.058	0.827
912.817	0.741
922.577	0.888
932.336	0.904
942.095	0.906
951.855	0.868
961.614	0.725
971.373	0.341
981.132	0.411
990.892	0.535
1000.65	0.658
1010.41	0.592
1020.17	0.571
1029.93	0.659
1039.69	0.793
1049.45	0.822
1059.21	0.662
1068.97	0.689
1078.73	0.759
1088.48	0.705
1098.24	0.672
1108	0.558
1117.76	0.782
1127.52	0.78
1137.28	0.734
1147.04	0.721
1156.8	0.825
1166.56	0.843
1176.32	0.705
1186.08	0.684
1195.84	0.645
1205.6	0.749
1215.36	0.592
1225.11	0.42
1234.87	0.353
1244.63	0.206
1254.39	0.376
1264.15	0.538
1273.91	0.653
1283.67	0.738
1293.43	0.786
1303.19	0.799
1312.95	0.802
1322.71	0.789
1332.47	0.831
1342.23	0.817
1351.99	0.712
1361.74	0.531
1371.5	0.226
1381.26	0.492
1391.02	0.636
1400.78	0.754
1410.54	0.4899
1420.3	0.266
1430.06	0.214
1439.82	0.157
1449.58	0.324
1459.34	0.3951
1469.1	0.758
1478.86	0.862
1488.61	0.914
1498.37	0.922
1508.13	0.924
1517.89	0.917
1527.65	0.82
1537.41	0.332
1547.17	0.705
1556.93	0.54
1566.69	0.7201
1576.45	0.873
1586.21	0.882
1595.97	0.892
1605.73	0.935
1615.49	0.948
1625.24	0.95
1635	0.953
1644.76	0.954
1654.52	0.952
1664.28	0.952
1674.04	0.952
1683.8	0.95
1693.56	0.948
1703.32	0.943
1713.08	0.919
1722.84	0.882
1732.6	0.879
1742.36	0.9
1752.12	0.922
1761.87	0.943
1771.63	0.949
1781.39	0.954
1791.15	0.952
1800.91	0.952
1810.67	0.952
1820.43	0.956
1830.19	0.954
1839.95	0.954
1849.71	0.954
1859.47	0.956
1869.23	0.958
1878.99	0.953
1888.75	0.954
1898.5	0.952
1908.26	0.952
1918.02	0.95
1927.78	0.946
1937.54	0.943
1947.3	0.943
1957.06	0.945
1966.82	0.949
1976.58	0.948
1986.34	0.946
1996.1	0.945
2005.86	0.946
2015.62	0.945
2025.38	0.945
2035.13	0.945
2044.89	0.944
2054.65	0.943
2064.41	0.941
2074.17	0.939
2083.93	0.9352
2093.69	0.939
2103.45	0.94
2113.21	0.941
2122.97	0.943
2132.73	0.944
2142.49	0.944
2152.25	0.944
2162.01	0.945
2171.76	0.945
2181.52	0.945
2191.28	0.944
2201.04	0.944
2210.8	0.9422
2220.56	0.94
2230.32	0.939
2240.08	0.937
2249.84	0.9345
2259.6	0.93
2269.36	0.928
2279.12	0.9245
2288.88	0.931
2298.64	0.932
2308.39	0.934
2318.15	0.934
2327.91	0.9394
2337.67	0.936
2347.43	0.94
2357.19	0.937
2366.95	0.936
2376.71	0.936
2386.47	0.939
2396.23	0.9363
2405.99	0.9353
2415.75	0.935
2425.51	0.935
2435.27	0.9312
2445.02	0.93
2454.78	0.9243
2464.54	0.923
2474.3	0.919
2484.06	0.9141
2493.82	0.9139
2503.58	0.9188
2513.34	0.927
2523.1	0.93
2532.86	0.931
2542.62	0.93
2552.38	0.931
2562.14	0.928
2571.9	0.932
2581.65	0.934
2591.41	0.931
2601.17	0.9298
2610.93	0.9269
2620.69	0.9243
2630.45	0.926
2640.21	0.928
2649.97	0.923
2659.73	0.9244
2669.49	0.928
2679.25	0.93
2689.01	0.93
2698.77	0.928
2708.53	0.926
2718.28	0.9237
2728.04	0.921
2737.8	0.9177
2747.56	0.915
2757.32	0.917
2767.08	0.9136
2776.84	0.9012
2786.6	0.893
2796.36	0.8915
2806.12	0.886
2815.88	0.8875
2825.64	0.882
2835.4	0.8865
2845.15	0.8858
2854.91	0.8624
2864.67	0.8079
2874.43	0.8076
2884.19	0.8291
2893.95	0.844
2903.71	0.8463
2913.47	0.8229
2923.23	0.7642
2932.99	0.7526
2942.75	0.7485
2952.51	0.766
2962.27	0.7939
2972.03	0.8248
2981.78	0.8406
2991.54	0.8741
3001.3	0.8895
3011.06	0.8791
3020.82	0.878
3030.58	0.875
3040.34	0.8731
3050.1	0.8691
3059.86	0.7407
3069.62	0.6703
3079.38	0.7606
3089.14	0.833
3098.9	0.8119
3108.66	0.8124
3118.41	0.8573
3128.17	0.8871
3137.93	0.8962
3147.69	0.9141
3157.45	0.919
3167.21	0.923
3176.97	0.922
3186.73	0.922
3196.49	0.924
3206.25	0.9278
3216.01	0.926
3225.77	0.9268
3235.53	0.924
3245.29	0.9254
3255.04	0.9227
3264.8	0.9217
3274.56	0.921
3284.32	0.923
3294.08	0.924
3303.84	0.926
3313.6	0.923
3323.36	0.922
3333.12	0.922
3342.88	0.9244
3352.64	0.925
3362.4	0.922
3372.16	0.922
3381.92	0.921
3391.67	0.924
3401.43	0.923
3411.19	0.924
3420.95	0.923
3430.71	0.9226
3440.47	0.9224
3450.23	0.919
3459.99	0.9183
3469.75	0.921
3479.51	0.9156
3489.27	0.912
3499.03	0.91
3508.79	0.914
3518.55	0.918
3528.3	0.919
3538.06	0.918
3547.82	0.915
3557.58	0.9103
3567.34	0.91
3577.1	0.9118
3586.86	0.918
3596.62	0.9189
3606.38	0.921
3616.14	0.923
3625.9	0.924
3635.66	0.924
3645.42	0.923
3655.18	0.924
3664.93	0.924
3674.69	0.923
3684.45	0.922
3694.21	0.923
3703.97	0.924
3713.73	0.923
3723.49	0.927
3733.25	0.924
3743.01	0.9238
3752.77	0.924
3762.53	0.9263
3772.29	0.923
3782.05	0.9227
3791.81	0.9204
3801.56	0.9231
3811.32	0.921
3821.08	0.921
3830.84	0.917
3840.6	0.9203
3850.36	0.921
3860.12	0.921
3869.88	0.9176
3879.64	0.9201
3889.4	0.913
3899.16	0.91
3908.92	0.91
3918.68	0.91
3928.44	0.912
3938.19	0.9085
3947.95	0.9146
3957.71	0.9158
3967.47	0.917
3977.23	0.9162
3986.99	0.9186
3996.75	0.919
