Infrared Spectrum: Ethyl 2,5-dichlorobenzoate
Formula: C 9 H 8 Cl 2 O 2
CAS: 35112-27-7
State: gas
Origin: EPA-IR VAPOR PHASE LIBRARY
1/CM	ABSORBANCE
549.8	0.01451
559.445	0.01129
569.09	0.0086
578.735	0.01064
588.38	0.01429
598.025	0.01535
607.67	0.00789
617.315	0.00359
626.96	0.0021236
636.605	0.00146191
646.251	0.00150342
655.896	0.00346
665.541	0.00675
675.186	0.00316
684.831	0.00274
694.476	0.00289
704.121	0.00285
713.766	0.0021967
723.411	0.0021236
733.056	0.00282
742.701	0.00535
752.346	0.01298
761.991	0.01457
771.636	0.01294
781.281	0.01275
790.926	0.01032
800.571	0.01127
810.216	0.02787
819.861	0.04221
829.507	0.01435
839.152	0.00689
848.797	0.0081
858.442	0.01097
868.087	0.01084
877.732	0.01225
887.377	0.02292
897.022	0.02315
906.667	0.01049
916.312	0.00488
925.957	0.00348
935.602	0.00314
945.247	0.00339
954.892	0.00354
964.537	0.0038
974.182	0.00445
983.827	0.00596
993.472	0.0101
1003.12	0.02094
1012.76	0.03673
1022.41	0.0361
1032.05	0.03385
1041.7	0.05937
1051.34	0.06634
1060.99	0.03714
1070.63	0.02998
1080.28	0.03244
1089.92	0.04436
1099.57	0.0864
1109.21	0.09702
1118.86	0.09966
1128.5	0.10234
1138.15	0.09304
1147.79	0.06182
1157.44	0.02958
1167.08	0.02243
1176.73	0.02286
1186.37	0.02438
1196.02	0.02883
1205.66	0.03795
1215.31	0.06036
1224.95	0.12071
1234.6	0.18609
1244.24	0.1223
1253.89	0.07874
1263.53	0.10546
1273.18	0.21344
1282.82	0.24357
1292.47	0.10196
1302.11	0.04704
1311.76	0.02778
1321.4	0.01733
1331.05	0.01225
1340.69	0.00993
1350.34	0.01013
1359.98	0.01533
1369.63	0.02551
1379.27	0.03991
1388.92	0.05543
1398.56	0.04451
1408.21	0.0251
1417.85	0.01657
1427.5	0.0163
1437.14	0.01921
1446.79	0.02786
1456.43	0.05315
1466.08	0.06986
1475.73	0.03942
1485.37	0.01743
1495.02	0.00899
1504.66	0.00551
1514.31	0.00416
1523.95	0.00386
1533.6	0.00427
1543.24	0.00581
1552.89	0.01012
1562.53	0.01099
1572.18	0.0062
1581.82	0.00642
1591.47	0.00659
1601.11	0.0054
1610.76	0.00457
1620.4	0.00472
1630.05	0.00611
1639.69	0.00585
1649.34	0.00452
1658.98	0.00437
1668.63	0.00507
1678.27	0.00605
1687.92	0.00785
1697.56	0.01137
1707.21	0.01797
1716.85	0.0318
1726.5	0.0594
1736.14	0.10498
1745.79	0.13353
1755.43	0.13697
1765.08	0.08525
1774.72	0.04021
1784.37	0.01978
1794.01	0.01117
1803.66	0.007
1813.3	0.00493
1822.95	0.00401
1832.59	0.00363
1842.24	0.00339
1851.88	0.00305
1861.53	0.0028
1871.17	0.00279
1880.82	0.00325
1890.46	0.00436
1900.11	0.00392
1909.75	0.00263
1919.4	0.0020867
1929.04	0.0018747
1938.69	0.0017793
1948.33	0.0016195
1957.98	0.0016304
1967.62	0.0017149
1977.27	0.001841
1986.91	0.001926
1996.56	0.0018652
2006.2	0.0016651
2015.85	0.0015872
2025.49	0.00146053
2035.14	0.00148664
2044.78	0.00142091
2054.43	0.00149285
2064.07	0.001526
2073.72	0.00146589
2083.36	0.0016363
2093.01	0.0018002
2102.65	0.0018614
2112.3	0.0017208
2121.94	0.0016438
2131.59	0.0016553
2141.23	0.0016027
2150.88	0.00149006
2160.52	0.00141301
2170.17	0.0013594
2179.81	0.001164
2189.46	0.001155
2199.1	0.001019
2208.75	0.001067
2218.39	0.001073
2228.04	0.001152
2237.68	0.001192
2247.33	0.001211
2256.97	0.001208
2266.62	0.0013432
2276.26	0.0015263
2285.91	0.00147587
2295.55	0.00127
2305.2	0.001228
2314.84	0.001171
2324.49	0.001226
2334.13	0.00126
2343.78	0.0013448
2353.42	0.0013877
2363.07	0.00141536
2372.72	0.0013467
2382.36	0.0013883
2392.01	0.0013113
2401.65	0.001362
2411.3	0.001296
2420.94	0.001228
2430.59	0.001096
2440.23	0.001179
2449.88	0.00104
2459.52	0.000994
2469.17	0.001064
2478.81	0.001091
2488.46	0.00098
2498.1	0.001096
2507.75	0.001216
2517.39	0.00107
2527.04	0.001061
2536.68	0.000966
2546.33	0.000866
2555.97	0.000826
2565.62	0.000736
2575.26	0.000807
2584.91	0.000814
2594.55	0.000862
2604.2	0.000821
2613.84	0.000835
2623.49	0.00089
2633.13	0.000883
2642.78	0.000797
2652.42	0.00076
2662.07	0.000843
2671.71	0.000857
2681.36	0.000782
2691	0.000838
2700.65	0.000814
2710.29	0.000703
2719.94	0.000784
2729.58	0.000874
2739.23	0.000984
2748.87	0.000909
2758.52	0.000939
2768.16	0.00112
2777.81	0.001246
2787.45	0.0013355
2797.1	0.0013554
2806.74	0.0015291
2816.39	0.0018298
2826.03	0.0019696
2835.68	0.0018781
2845.32	0.002155
2854.97	0.00264
2864.61	0.00326
2874.26	0.0044
2883.9	0.00632
2893.55	0.00677
2903.19	0.00753
2912.84	0.00898
2922.48	0.00895
2932.13	0.01078
2941.77	0.01709
2951.42	0.01676
2961.06	0.01426
2970.71	0.01902
2980.35	0.03137
2990	0.03772
2999.64	0.02288
3009.29	0.0151
3018.93	0.00949
3028.58	0.00552
3038.22	0.00367
3047.87	0.00255
3057.51	0.0021434
3067.16	0.00267
3076.8	0.00402
3086.45	0.00322
3096.09	0.0020497
3105.74	0.0016233
3115.38	0.0013365
3125.03	0.001058
3134.67	0.000902
3144.32	0.000891
3153.96	0.000913
3163.61	0.000879
3173.25	0.000797
3182.9	0.0004
3192.54	0.000506
3202.19	0.0003
3211.83	0.00027
3221.48	0.00037
3231.12	0.00017
3240.77	0.00024
3250.41	0.00017
3260.06	0.00024
3269.7	0.00014
3279.35	0.00014
3289	0.0001
3298.64	0.00017
3308.29	5e-05
3317.93	0.00023
3327.58	7e-05
3337.22	9e-05
3346.87	9e-05
3356.51	0.00034
3366.16	0.00015
3375.8	0.00018
3385.45	0.0003
3395.09	0.00027
3404.74	0.00024
3414.38	0.000453
3424.03	0.000449
3433.67	0.000533
3443.32	0.000655
3452.96	0.000982
3462.61	0.001176
3472.25	0.000975
3481.9	0.001202
3491.54	0.0013633
3501.19	0.001071
3510.83	0.000856
3520.48	0.000475
3530.12	0.00028
3539.77	0.00019
3549.41	0.00024
3559.06	0.00029
3568.7	0.00026
3578.35	0.00036
3587.99	0.00033
3597.64	0.00031
3607.28	0.00022
3616.93	0.00017
3626.57	0.00018
3636.22	0.00041
3645.86	0.00024
3655.51	0.00026
3665.15	0.00046
3674.8	0.00039
3684.44	0.000514
3694.09	0.000477
3703.73	0.000459
3713.38	0.000464
3723.02	0.00042
3732.67	0.00035
3742.31	0.000421
3751.96	0.000537
3761.6	0.000605
3771.25	0.000609
3780.89	0.000418
3790.54	0.000431
3800.18	0.000533
3809.83	0.000521
3819.47	0.000701
3829.12	0.00036
3838.76	0.000446
3848.41	0.0005
3858.05	0.000504
3867.7	0.000422
3877.34	0.000462
3886.99	0.00057
3896.63	0.00032
3906.28	0.000553
3915.92	0.000552
3925.57	0.000561
3935.21	0.00036
3944.86	0.000445
3954.5	0.000617
3964.15	0.000718
3973.79	0.00059
3983.44	0.000627
3993.08	0.000517
