Infrared Spectrum: trans-10-Dodecen-1-ylacetate
Formula: C 14 H 26 O 2
CAS: 35148-19-7
State: gas
Origin: EPA-IR VAPOR PHASE LIBRARY
1/CM	ABSORBANCE
549.8	0.000621
559.445	0.00103077
569.09	0.000488
578.734	0.0011619
588.379	0.001155
598.024	0.0016942
607.669	0.003843
617.313	0.002843
626.958	0.003793
636.603	0.004103
646.248	0.003313
655.893	0.0018006
665.537	0.000747
675.182	0.0008923
684.827	0.0014665
694.472	0.0015436
704.116	0.002333
713.761	0.002403
723.406	0.003333
733.051	0.002303
742.695	0.002463
752.34	0.002363
761.985	0.002863
771.63	0.002583
781.275	0.002113
790.919	0.002293
800.564	0.0019106
810.209	0.002453
819.854	0.002413
829.498	0.003553
839.143	0.003263
848.788	0.003153
858.433	0.003963
868.078	0.004433
877.722	0.004353
887.367	0.004423
897.012	0.005093
906.657	0.005293
916.301	0.006113
925.946	0.007213
935.591	0.008803
945.236	0.011453
954.88	0.016043
964.525	0.022193
974.17	0.015773
983.815	0.011423
993.46	0.011413
1003.1	0.014123
1012.75	0.019023
1022.39	0.026003
1032.04	0.032343
1041.68	0.033543
1051.33	0.030273
1060.97	0.026043
1070.62	0.023763
1080.26	0.020143
1089.91	0.016813
1099.55	0.010923
1109.2	0.007363
1118.84	0.007453
1128.49	0.005423
1138.13	0.003993
1147.78	0.003683
1157.42	0.005453
1167.07	0.004933
1176.71	0.007553
1186.36	0.010443
1196	0.017003
1205.64	0.032913
1215.29	0.072743
1224.93	0.142553
1234.58	0.166503
1244.22	0.103583
1253.87	0.056163
1263.51	0.036453
1273.16	0.023343
1282.8	0.016893
1292.45	0.013273
1302.09	0.011513
1311.74	0.009483
1321.38	0.007873
1331.03	0.007363
1340.67	0.008633
1350.32	0.013173
1359.96	0.023953
1369.61	0.034453
1379.25	0.023393
1388.9	0.019973
1398.54	0.013993
1408.18	0.008983
1417.83	0.008023
1427.47	0.009013
1437.12	0.012513
1446.76	0.016373
1456.41	0.018913
1466.05	0.017663
1475.7	0.012383
1485.34	0.008033
1494.99	0.005843
1504.63	0.005133
1514.28	0.004373
1523.92	0.004003
1533.57	0.003833
1543.21	0.003343
1552.86	0.003373
1562.5	0.003013
1572.15	0.002993
1581.79	0.002673
1591.44	0.002433
1601.08	0.002483
1610.73	0.002473
1620.37	0.002333
1630.01	0.002073
1639.66	0.002553
1649.3	0.002843
1658.95	0.002993
1668.59	0.003153
1678.24	0.003523
1687.88	0.004033
1697.53	0.005523
1707.17	0.007663
1716.82	0.011663
1726.46	0.017663
1736.11	0.030083
1745.75	0.053183
1755.4	0.093533
1765.04	0.095293
1774.69	0.050993
1784.33	0.026343
1793.98	0.014173
1803.62	0.008263
1813.27	0.005483
1822.91	0.004123
1832.55	0.003243
1842.2	0.002903
1851.84	0.002493
1861.49	0.002463
1871.13	0.002333
1880.78	0.002123
1890.42	0.001953
1900.07	0.002033
1909.71	0.0018966
1919.36	0.0018706
1929	0.001943
1938.65	0.0017393
1948.29	0.0018042
1957.94	0.0016103
1967.58	0.0017738
1977.23	0.0018514
1986.87	0.0018692
1996.52	0.0018975
2006.16	0.002043
2015.81	0.002043
2025.45	0.002103
2035.1	0.002033
2044.74	0.001993
2054.38	0.002233
2064.03	0.0018994
2073.67	0.002023
2083.32	0.001983
2092.96	0.001861
2102.61	0.001883
2112.25	0.001983
2121.9	0.0015969
2131.54	0.0016845
2141.19	0.0017073
2150.83	0.0018508
2160.48	0.0017199
2170.12	0.0017277
2179.77	0.0015452
2189.41	0.0016587
2199.06	0.0014498
2208.7	0.0014898
2218.35	0.0013602
2227.99	0.0014124
2237.64	0.0014725
2247.28	0.0014968
2256.92	0.0013815
2266.57	0.0015007
2276.21	0.0014762
2285.86	0.0014751
2295.5	0.0014549
2305.15	0.0017945
2314.79	0.0016967
2324.44	0.0015881
2334.08	0.0014987
2343.73	0.0013938
2353.37	0.0014854
2363.02	0.0015775
2372.66	0.0016023
2382.31	0.0014725
2391.95	0.0014835
2401.6	0.0014539
2411.24	0.0015071
2420.89	0.0018116
2430.53	0.0016836
2440.18	0.001943
2449.82	0.0018177
2459.47	0.0017141
2469.11	0.0017535
2478.75	0.0015665
2488.4	0.001253
2498.04	0.001356
2507.69	0.0013479
2517.33	0.0015612
2526.98	0.0016055
2536.62	0.0015202
2546.27	0.0018063
2555.91	0.0015509
2565.56	0.001767
2575.2	0.0017298
2584.85	0.0016995
2594.49	0.0018452
2604.14	0.0018756
2613.78	0.002063
2623.43	0.002203
2633.07	0.002093
2642.72	0.002023
2652.36	0.002233
2662.01	0.002493
2671.65	0.002253
2681.29	0.002523
2690.94	0.002703
2700.58	0.003003
2710.23	0.002723
2719.87	0.002703
2729.52	0.003143
2739.16	0.003603
2748.81	0.003723
2758.45	0.003243
2768.1	0.003263
2777.74	0.004163
2787.39	0.004143
2797.03	0.004793
2806.68	0.005973
2816.32	0.007173
2825.97	0.008963
2835.61	0.012923
2845.26	0.022033
2854.9	0.044513
2864.55	0.062993
2874.19	0.047123
2883.84	0.033223
2893.48	0.036363
2903.12	0.049003
2912.77	0.071133
2922.41	0.112983
2932.06	0.164993
2941.7	0.134943
2951.35	0.081243
2960.99	0.054503
2970.64	0.041753
2980.28	0.031233
2989.93	0.023263
2999.57	0.018283
3009.22	0.016293
3018.86	0.015203
3028.51	0.013643
3038.15	0.010393
3047.8	0.007733
3057.44	0.006703
3067.09	0.005853
3076.73	0.004403
3086.38	0.004823
3096.02	0.003433
3105.67	0.003713
3115.31	0.003693
3124.95	0.003473
3134.6	0.002583
3144.24	0.002473
3153.89	0.002213
3163.53	0.002223
3173.18	0.0013781
3182.82	0.0019274
3192.47	0.0014277
3202.11	0.0014431
3211.76	0.0015056
3221.4	0.0010672
3231.05	0.0014762
3240.69	0.0010755
3250.34	0.0012558
3259.98	0.0015477
3269.63	0.0011676
3279.27	0.0017661
3288.92	0.0013994
3298.56	0.0015019
3308.21	0.00095593
3317.85	0.002033
3327.49	0.0012957
3337.14	0.00075
3346.78	0.0012836
3356.43	0.0008524
3366.07	0.0011919
3375.72	0.0015021
3385.36	0.00097198
3395.01	0.0008602
3404.65	0.0014771
3414.3	0.0013308
3423.94	0.001126
3433.59	0.0015003
3443.23	0.0013262
3452.88	0.0011095
3462.52	0.001413
3472.17	0.00100453
3481.81	0.0017178
3491.46	0.001943
3501.1	0.002493
3510.75	0.002403
3520.39	0.0014754
3530.04	0.0010499
3539.68	0.0013349
3549.32	0.0014061
3558.97	0.0010548
3568.61	0.000379
3578.26	0.0011374
3587.9	0.000769
3597.55	0.0017725
3607.19	0.0012065
3616.84	0.00109
3626.48	0.00095425
3636.13	0.0013562
3645.77	0.0013567
3655.42	0.0018106
3665.06	0.000704
3674.71	0.0016952
3684.35	0.0014812
3694	0.0011852
3703.64	0.0010606
3713.29	0.00099942
3722.93	0.0008446
3732.58	0.00099842
3742.22	0.0012535
3751.86	0.0012953
3761.51	0.0012499
3771.15	0.000936727
3780.8	0.000704
3790.44	0.001271
3800.09	0.0012661
3809.73	0.0011271
3819.38	0.0012289
3829.02	0.000936666
3838.67	0.001983
3848.31	0.001461
3857.96	0.000792
3867.6	0.0012167
3877.25	0.001193
3886.89	0.0008691
3896.54	0.0016742
3906.18	0.0011662
3915.83	0.0014247
3925.47	0.0012797
3935.12	0.0013085
3944.76	0.0017544
3954.41	0.0011886
3964.05	0.0014909
3973.69	0.0012308
3983.34	0.0015118
3992.98	0.0014585
