Infrared Spectrum: N,N-Hexylmethylamine
Formula: C 7 H 17 N
CAS: 35161-70-7
State: gas
Origin: EPA-IR VAPOR PHASE LIBRARY
1/CM	ABSORBANCE
501.5	0.001466
513.074	0.001596
524.648	0.001636
536.222	0.001666
547.796	0.001596
559.37	0.001576
570.944	0.001656
582.518	0.001946
594.092	0.002266
605.666	0.002826
617.24	0.003496
628.814	0.004436
640.388	0.005536
651.962	0.007006
663.536	0.008676
675.11	0.010066
686.684	0.011336
698.258	0.012466
709.832	0.013156
721.406	0.012426
732.98	0.010356
744.554	0.007726
756.128	0.005906
767.702	0.004686
779.276	0.003666
790.85	0.003006
802.423	0.002516
813.997	0.002316
825.571	0.002036
837.145	0.001876
848.719	0.001796
860.293	0.001876
871.867	0.001846
883.441	0.002086
895.015	0.002376
906.589	0.002416
918.163	0.002376
929.737	0.002176
941.311	0.001986
952.885	0.001986
964.459	0.002106
976.033	0.002116
987.607	0.002166
999.181	0.002286
1010.76	0.002556
1022.33	0.002596
1033.9	0.002476
1045.48	0.002486
1057.05	0.002856
1068.63	0.003676
1080.2	0.004586
1091.77	0.005466
1103.35	0.006956
1114.92	0.010386
1126.49	0.014676
1138.07	0.016086
1149.64	0.015036
1161.22	0.010426
1172.79	0.006036
1184.36	0.003826
1195.94	0.002946
1207.51	0.002706
1219.09	0.002476
1230.66	0.002346
1242.23	0.002356
1253.81	0.002436
1265.38	0.002596
1276.96	0.002606
1288.53	0.002746
1300.1	0.003006
1311.68	0.003046
1323.25	0.003146
1334.83	0.004036
1346.4	0.005766
1357.97	0.007346
1369.55	0.007196
1381.12	0.006296
1392.7	0.004656
1404.27	0.003626
1415.84	0.004126
1427.42	0.006316
1438.99	0.011076
1450.57	0.016296
1462.14	0.017996
1473.71	0.016686
1485.29	0.010126
1496.86	0.004906
1508.44	0.002866
1520.01	0.001986
1531.58	0.001516
1543.16	0.001246
1554.73	0.0010256
1566.31	0.0009017
1577.88	0.0008762
1589.45	0.0007339
1601.03	0.0006987
1612.6	0.0006807
1624.18	0.0006535
1635.75	0.0005864
1647.32	0.0006094
1658.9	0.0005681
1670.47	0.0005804
1682.05	0.0005187
1693.62	0.0004633
1705.19	0.0004331
1716.77	0.0004003
1728.34	0.0004012
1739.92	0.0003724
1751.49	0.0003679
1763.06	0.0003442
1774.64	0.0003656
1786.21	0.0003862
1797.79	0.0003824
1809.36	0.0004634
1820.93	0.0004537
1832.51	0.0004814
1844.08	0.0004727
1855.66	0.000456
1867.23	0.0004027
1878.8	0.0003409
1890.38	0.00028891
1901.95	0.00028071
1913.53	0.0002557
1925.1	0.0002084
1936.67	0.0002181
1948.25	0.0001913
1959.82	0.0002149
1971.4	0.0002089
1982.97	0.0002194
1994.54	0.0002495
2006.12	0.00025284
2017.69	0.0003114
2029.27	0.0003533
2040.84	0.0003916
2052.41	0.0003838
2063.99	0.0003793
2075.56	0.0003725
2087.14	0.0003494
2098.71	0.000313
2110.28	0.00033504
2121.86	0.00029237
2133.43	0.00025343
2145.01	0.00029832
2156.58	0.00027216
2168.15	0.00025821
2179.73	0.0002806
2191.3	0.00028537
2202.88	0.00029129
2214.45	0.00028235
2226.02	0.0002362
2237.6	0.00027714
2249.17	0.00027291
2260.74	0.00029347
2272.32	0.00028194
2283.89	0.00027627
2295.47	0.00030564
2307.04	0.00033149
2318.61	0.00028099
2330.19	0.00033308
2341.76	0.0003465
2353.34	0.000368
2364.91	0.000381
2376.48	0.000333
2388.06	0.0003374
2399.63	0.000362
2411.21	0.0003696
2422.78	0.0003861
2434.35	0.0003943
2445.93	0.0004261
2457.5	0.0004234
2469.08	0.0005007
2480.65	0.0004773
2492.22	0.0005347
2503.8	0.0005814
2515.37	0.0006476
2526.95	0.0007493
2538.52	0.0008507
2550.09	0.0009067
2561.67	0.0010022
2573.24	0.0010633
2584.82	0.0012327
2596.39	0.001326
2607.96	0.001486
2619.54	0.001656
2631.11	0.001866
2642.69	0.002116
2654.26	0.002496
2665.83	0.002996
2677.41	0.003626
2688.98	0.004126
2700.56	0.004536
2712.13	0.004766
2723.7	0.005106
2735.28	0.005886
2746.85	0.007016
2758.43	0.009146
2770	0.013446
2781.57	0.021826
2793.15	0.033556
2804.72	0.037146
2816.3	0.031926
2827.87	0.028896
2839.44	0.032116
2851.02	0.043806
2862.59	0.054806
2874.17	0.056256
2885.74	0.053856
2897.31	0.053526
2908.89	0.065946
2920.46	0.093566
2932.04	0.117616
2943.61	0.110236
2955.18	0.086536
2966.76	0.075006
2978.33	0.052006
2989.91	0.024846
3001.48	0.013316
3013.05	0.008826
3024.63	0.006646
3036.2	0.005326
3047.78	0.004276
3059.35	0.003586
3070.92	0.003096
3082.5	0.002616
3094.07	0.002276
3105.65	0.001946
3117.22	0.001726
3128.79	0.001556
3140.37	0.001346
3151.94	0.0011375
3163.52	0.0010851
3175.09	0.0009975
3186.66	0.0008835
3198.24	0.0007475
3209.81	0.0007079
3221.39	0.0005558
3232.96	0.0003716
3244.53	0.00032541
3256.11	0.00027935
3267.68	0.0002233
3279.26	0.00030701
3290.83	0.00025507
3302.4	0.000164
3313.98	0.0001901
3325.55	0.0001469
3337.13	0.0001767
3348.7	0.0002063
3360.27	0.0002344
3371.85	0.00027355
3383.42	0.0001886
3395	0.0001857
3406.57	0.0002259
3418.14	9e-05
3429.72	0.000122
3441.29	0.000133
3452.86	9e-05
3464.44	0.0001464
3476.01	7e-06
3487.59	4.4e-05
3499.16	7.2e-05
3510.73	9.6e-05
3522.31	8.9e-05
3533.88	0.000129
3545.46	9e-06
3557.03	4.4e-05
3568.6	5.8e-05
3580.18	5.5e-05
3591.75	0.000117
3603.33	0.0001368
3614.9	0.00027521
3626.47	0.00026881
3638.05	0.000128
3649.62	0.00030697
3661.2	0.00030897
3672.77	0.0002237
3684.34	0.0001806
3695.92	0.0001617
3707.49	0.0001674
3719.07	0.0001874
3730.64	0.0002106
3742.21	0.000122
3753.79	0.0001779
3765.36	0.0002164
3776.94	0.0001913
3788.51	0.000155
3800.08	0.0001943
3811.66	0.0002214
3823.23	0.00025979
3834.81	0.00025059
3846.38	0.0002253
3857.95	0.00031013
3869.53	0.00032344
3881.1	0.00022852
3892.68	0.00029779
3904.25	0.00033098
3915.82	0.00027217
3927.4	0.00033294
3938.97	0.0004006
3950.55	0.0004138
3962.12	0.0005635
3973.69	0.0003666
3985.27	0.0004564
3996.84	0.0004063
