Infrared Spectrum: 2-(N-Amylamino)ethanol
Formula: C 7 H 17 N O
CAS: 35161-67-2
State: gas
Instrument: HP-GC/MS/IRD
Origin: NIST Mass Spectrometry Data Center
1/CM	ABSORBANCE
550	0.00075
562	0.0004845
574	0.0003795
586	0.000309
598	0.0003105
610	0.0002505
622	0.000378
634	0.0004635
646	0.0006285
658	0.0006885
670	0.000864
682	0.000987
694	0.0009435
706	0.0011865
718	0.0011865
730	0.0010605
742	0.0009735
754	0.0006645
766	0.00054
778	0.0003615
790	0.0002115
802	0.0001215
814	0.000171
826	0.0001515
838	0.0002475
850	0.0003615
862	0.0005445
874	0.000615
886	0.000609
898	0.000507
910	0.0003525
922	0.000297
934	0.000264
946	0.000258
958	0.0003135
970	0.000486
982	0.0006615
994	0.0010905
1006	0.0014205
1018	0.0020445
1030	0.0028815
1042	0.0039885
1054	0.0046965
1066	0.004185
1078	0.0027345
1090	0.0016845
1102	0.0014115
1114	0.0018465
1126	0.0026475
1138	0.002994
1150	0.0020625
1162	0.0012375
1174	0.0009435
1186	0.000987
1198	0.001035
1210	0.001053
1222	0.0010305
1234	0.000945
1246	0.0008775
1258	0.0008595
1270	0.000843
1282	0.000813
1294	0.000828
1306	0.000849
1318	0.0009465
1330	0.0012285
1342	0.001641
1354	0.0017595
1366	0.0015225
1378	0.001467
1390	0.001551
1402	0.0014805
1414	0.001248
1426	0.0011145
1438	0.001497
1450	0.0024015
1462	0.003141
1474	0.0022635
1486	0.001086
1498	0.000474
1510	0.0002745
1522	0.000222
1534	0.000132
1546	9.3e-05
1558	0.0001185
1570	6e-05
1582	4.8e-05
1594	1.95e-05
1606	0
1618	1.05e-05
1630	1.95e-05
1642	3.9e-05
1654	7.05e-05
1666	6e-05
1678	5.1e-05
1690	4.5e-05
1702	5.1e-05
1714	7.05e-05
1726	7.95e-05
1738	6.75e-05
1750	7.95e-05
1762	6e-05
1774	7.65e-05
1786	6.9e-05
1798	6.9e-05
1810	5.1e-05
1822	9.3e-05
1834	4.5e-05
1846	8.25e-05
1858	7.5e-05
1870	6.15e-05
1882	8.85e-05
1894	7.05e-05
1906	6.45e-05
1918	0.0001125
1930	9.6e-05
1942	0.0001125
1954	8.55e-05
1966	6.75e-05
1978	9.15e-05
1990	8.25e-05
2002	9e-05
2014	9.75e-05
2026	0.0001275
2038	0.0001185
2050	0.000105
2062	9.75e-05
2074	0.0001335
2086	0.0001365
2098	0.0001275
2110	0.000159
2122	0.0001515
2134	0.0001425
2146	0.0001485
2158	0.000132
2170	0.0001425
2182	0.000138
2194	0.000138
2206	0.000144
2218	0.000159
2230	0.00015
2242	0.0001455
2254	0.000147
2266	0.0001515
2278	0.0001335
2290	0.0001425
2302	0.0001635
2314	0.000171
2326	0.0001695
2338	0.0001815
2350	0.0001575
2362	0.000222
2374	0.0001725
2386	0.0001785
2398	0.000156
2410	0.000174
2422	0.000168
2434	0.0001455
2446	0.000168
2458	0.0001995
2470	0.0002115
2482	0.000195
2494	0.0001695
2506	0.000186
2518	0.000171
2530	0.0001995
2542	0.0002025
2554	0.000195
2566	0.0001965
2578	0.000225
2590	0.000234
2602	0.0002895
2614	0.000294
2626	0.0003105
2638	0.000387
2650	0.000426
2662	0.0005115
2674	0.000555
2686	0.0006255
2698	0.000672
2710	0.000747
2722	0.0007845
2734	0.0009105
2746	0.0010305
2758	0.001137
2770	0.0012855
2782	0.001632
2794	0.0022875
2806	0.0031665
2818	0.0043305
2830	0.00507
2842	0.005361
2854	0.00603
2866	0.007131
2878	0.007602
2890	0.007356
2902	0.007419
2914	0.0094395
2926	0.013197
2938	0.015
2950	0.0122085
2962	0.009768
2974	0.0074415
2986	0.00348
2998	0.0018015
3010	0.0011295
3022	0.0008475
3034	0.0006435
3046	0.000528
3058	0.00042
3070	0.0004335
3082	0.0003345
3094	0.0003075
3106	0.000267
3118	0.000261
3130	0.000219
3142	0.000276
3154	0.000294
3166	0.000192
3178	0.000264
3190	0.00021
3202	0.0002115
3214	0.0001425
3226	0.0001905
3238	0.0001815
3250	0.000165
3262	0.0001785
3274	0.0001695
3286	0.00018
3298	0.0001905
3310	0.000198
3322	0.000219
3334	0.000216
3346	0.000267
3358	0.0002055
3370	0.0003105
3382	0.000279
3394	0.0002355
3406	0.0002835
3418	0.000297
3430	0.000366
3442	0.000378
3454	0.0002745
3466	0.0003195
3478	0.0003315
3490	0.0002805
3502	0.0003495
3514	0.0003975
3526	0.000405
3538	0.000594
3550	0.000744
3562	0.0008325
3574	0.0007425
3586	0.00069
3598	0.000573
3610	0.0004785
3622	0.0004605
3634	0.000474
3646	0.0005925
3658	0.000747
3670	0.000915
3682	0.000801
3694	0.0005235
3706	0.000315
3718	0.0003165
3730	0.0003405
3742	0.000321
3754	0.0003615
3766	0.000264
3778	0.0002655
3790	0.000255
3802	0.0002955
3814	0.000276
3826	0.000201
3838	0.0002355
