Infrared Spectrum: N-Ethyl-4-hydroxypiperidine
Formula: C 7 H 15 N O
CAS: 3518-83-0
State: gas
Origin: EPA-IR VAPOR PHASE LIBRARY
1/CM	ABSORBANCE
501.5	0.0008921
513.074	0.0006752
524.648	0.0004178
536.222	0.0001662
547.796	0.0001853
559.37	0.0001674
570.944	0.0001085
582.518	0.0002697
594.092	0.0007272
605.666	0.00149
617.24	0.00138
628.814	0.0007217
640.388	0.0003252
651.962	0.0002121
663.536	0.0001295
675.11	0.0002092
686.684	0.0002622
698.258	0.0002457
709.832	0.0002266
721.406	0.0003216
732.98	0.0008657
744.554	0.00196
756.128	0.00331
767.702	0.00337
779.276	0.002
790.85	0.00127
802.423	0.00128
813.997	0.00125
825.571	0.0008252
837.145	0.0005984
848.719	0.0004587
860.293	0.0004441
871.867	0.0004464
883.441	0.000611
895.015	0.00109
906.589	0.00168
918.163	0.00285
929.737	0.00395
941.311	0.00374
952.885	0.00383
964.459	0.00403
976.033	0.00473
987.607	0.00612
999.181	0.00549
1010.76	0.00532
1022.33	0.00621
1033.9	0.00935
1045.48	0.01673
1057.05	0.03173
1068.63	0.03905
1080.2	0.02378
1091.77	0.01249
1103.35	0.01009
1114.92	0.00958
1126.49	0.01074
1138.07	0.01382
1149.64	0.01363
1161.22	0.00889
1172.79	0.00649
1184.36	0.00539
1195.94	0.00524
1207.51	0.00608
1219.09	0.00808
1230.66	0.01022
1242.23	0.01014
1253.81	0.00834
1265.38	0.00714
1276.96	0.00771
1288.53	0.00904
1300.1	0.01051
1311.68	0.01016
1323.25	0.0092
1334.83	0.01051
1346.4	0.01238
1357.97	0.01345
1369.55	0.01497
1381.12	0.01373
1392.7	0.00916
1404.27	0.00581
1415.84	0.0042
1427.42	0.00428
1438.99	0.00565
1450.57	0.00699
1462.14	0.00664
1473.71	0.00562
1485.29	0.00338
1496.86	0.00156
1508.44	0.0009911
1520.01	0.0007382
1531.58	0.0006278
1543.16	0.0005497
1554.73	0.0004882
1566.31	0.0004115
1577.88	0.0003569
1589.45	0.0002593
1601.03	0.000274
1612.6	0.0002062
1624.18	0.0001942
1635.75	0.0002208
1647.32	0.0002563
1658.9	0.0001963
1670.47	0.0002285
1682.05	0.0002361
1693.62	0.0001973
1705.19	0.0001723
1716.77	0.0001732
1728.34	0.0001183
1739.92	0.0001245
1751.49	0.0001628
1763.06	0.0001209
1774.64	0.0001429
1786.21	0.000104
1797.79	0.000125
1809.36	0.00013
1820.93	0.0001839
1832.51	0.0002013
1844.08	0.0001935
1855.66	0.0001949
1867.23	0.0001906
1878.8	0.0002169
1890.38	0.0002736
1901.95	0.0003109
1913.53	0.0002669
1925.1	0.0001813
1936.67	0.0001597
1948.25	0.000142
1959.82	0.0001543
1971.4	0.000136
1982.97	0.0001657
1994.54	0.0001532
2006.12	0.00017
2017.69	0.0001632
2029.27	0.0002193
2040.84	0.0002851
2052.41	0.0003221
2063.99	0.0003249
2075.56	0.0002575
2087.14	0.0001867
2098.71	0.0001756
2110.28	0.0001808
2121.86	0.0002039
2133.43	0.0002215
2145.01	0.0002101
2156.58	0.0002047
2168.15	0.0002185
2179.73	0.0001851
2191.3	0.0002202
2202.88	0.0001931
2214.45	0.0002397
2226.02	0.000284
2237.6	0.0003088
2249.17	0.000324
2260.74	0.0003532
2272.32	0.0003586
2283.89	0.0003428
2295.47	0.0003147
2307.04	0.0003226
2318.61	0.0003006
2330.19	0.0003511
2341.76	0.0003318
2353.34	0.0003193
2364.91	0.0003952
2376.48	0.0003826
2388.06	0.0003878
2399.63	0.0004538
2411.21	0.0004325
2422.78	0.0004419
2434.35	0.0004747
2445.93	0.0004472
2457.5	0.0003943
2469.08	0.0004024
2480.65	0.0004557
2492.22	0.0004572
2503.8	0.0004832
2515.37	0.000516
2526.95	0.000586
2538.52	0.0006904
2550.09	0.0007692
2561.67	0.000836
2573.24	0.00101
2584.82	0.00114
2596.39	0.00129
2607.96	0.00147
2619.54	0.00177
2631.11	0.00227
2642.69	0.00296
2654.26	0.00379
2665.83	0.00454
2677.41	0.00488
2688.98	0.00529
2700.56	0.00595
2712.13	0.00678
2723.7	0.00802
2735.28	0.01005
2746.85	0.01316
2758.43	0.01705
2770	0.02058
2781.57	0.02321
2793.15	0.02462
2804.72	0.02514
2816.3	0.02251
2827.87	0.01646
2839.44	0.01209
2851.02	0.01197
2862.59	0.01356
2874.17	0.01531
2885.74	0.01798
2897.31	0.02032
2908.89	0.02433
2920.46	0.034
2932.04	0.0476
2943.61	0.05638
2955.18	0.04881
2966.76	0.03529
2978.33	0.02621
2989.91	0.01439
3001.48	0.00602
3013.05	0.00289
3024.63	0.00193
3036.2	0.0015
3047.78	0.00126
3059.35	0.0011
3070.92	0.00101
3082.5	0.0009468
3094.07	0.0008242
3105.65	0.0006212
3117.22	0.0006395
3128.79	0.0005931
3140.37	0.0005514
3151.94	0.0005674
3163.52	0.0005281
3175.09	0.0005442
3186.66	0.000461
3198.24	0.0003124
3209.81	0.0003237
3221.39	0.0002395
3232.96	0.0002168
3244.53	0.000185
3256.11	0.0001358
3267.68	0.0001414
3279.26	0.0001405
3290.83	0.0001584
3302.4	0.0001764
3313.98	0.0001602
3325.55	0.000153
3337.13	0.0001518
3348.7	0.0001659
3360.27	0.0001931
3371.85	0.0001829
3383.42	0.000259
3395	0.0002265
3406.57	0.000247
3418.14	0.0002584
3429.72	0.0003609
3441.29	0.0003933
3452.86	0.0003673
3464.44	0.0003429
3476.01	0.0002646
3487.59	0.0002707
3499.16	0.000355
3510.73	0.0004284
3522.31	0.0003569
3533.88	0.000297
3545.46	0.0003409
3557.03	0.000306
3568.6	0.0003083
3580.18	0.0002698
3591.75	0.0002918
3603.33	0.0003059
3614.9	0.0005433
3626.47	0.00121
3638.05	0.00288
3649.62	0.00495
3661.2	0.00359
3672.77	0.00121
3684.34	0.0004745
3695.92	0.0003381
3707.49	0.0003409
3719.07	0.0003335
3730.64	0.0003338
3742.21	0.000372
3753.79	0.0003372
3765.36	0.0002965
3776.94	0.000293
3788.51	0.0003288
3800.08	0.0003245
3811.66	0.000361
3823.23	0.0004137
3834.81	0.0004121
3846.38	0.0003732
3857.95	0.0003713
3869.53	0.0003992
3881.1	0.0004067
3892.68	0.0003155
3904.25	0.0004107
3915.82	0.000409
3927.4	0.0004327
3938.97	0.0003869
3950.55	0.0004154
3962.12	0.0002524
3973.69	0.0003391
3985.27	0.000304
3996.84	0.0003154
