Infrared Spectrum: 7-AMINO-s-TRIAZOLO[1,5-a]PYRIMIDINE-5(4H)-ONE
Formula: C5 H5 N5 O
CAS: 35186-69-7
State: SOLID (SPLIT MULL)
Melting point: GREATER THAN 330 C
Class: COBLENTZ II
Instrument: BECKMAN IR-9 (GRATING)
Instrument parameters: ORDER CHANGES: 670, 1200, 2000 CM^-^1
Sampling: TRANSMISSION
Resolution: 2
Origin: DOW CHEMICAL COMPANY
1/CM	TRANSMITTANCE
395.736	0.563
404.498	0.728
413.259	0.664
422.021	0.711
430.783	0.887
439.544	0.966
448.306	1
457.068	1.008
465.83	0.995
474.591	0.923
483.353	0.45
492.115	0.699
500.876	0.72
509.638	0.601
518.4	0.538
527.161	0.504
535.923	0.509
544.685	0.202
553.447	0.858
562.208	0.962
570.97	1.001
579.732	1.024
588.493	1.031
597.255	1.041
606.017	1.036
614.778	1.016
623.54	0.954
632.302	0.45
641.063	0.4621
649.825	0.981
658.587	0.973
667.349	0.549
676.11	0.873
684.872	0.966
693.634	0.933
702.395	0.927
711.157	0.963
719.919	0.832
728.68	0.77
737.442	0.815
746.204	0.583
754.966	0.957
763.727	0.983
772.489	0.934
781.251	0.31
790.012	0.326
798.774	0.808
807.536	0.832
816.297	0.893
825.059	0.862
833.821	0.639
842.582	0.314
851.344	0.76
860.106	0.759
868.868	0.668
877.629	0.671
886.391	0.806
895.153	0.819
903.914	0.709
912.676	0.907
921.438	0.936
930.199	0.945
938.961	0.943
947.723	0.929
956.485	0.907
965.246	0.61
974.008	0.927
982.77	0.879
991.531	0.89
1000.29	0.908
1009.05	0.887
1017.82	0.853
1026.58	0.813
1035.34	0.721
1044.1	0.462
1052.86	0.382
1061.62	0.588
1070.39	0.743
1079.15	0.811
1087.91	0.855
1096.67	0.886
1105.43	0.894
1114.2	0.889
1122.96	0.876
1131.72	0.839
1140.48	0.738
1149.24	0.447
1158	0.504
1166.77	0.835
1175.53	0.817
1184.29	0.796
1193.05	0.729
1201.81	0.477
1210.57	0.473
1219.34	0.659
1228.1	0.67
1236.86	0.433
1245.62	0.224
1254.38	0.652
1263.14	0.657
1271.91	0.559
1280.67	0.653
1289.43	0.67
1298.19	0.642
1306.95	0.559
1315.71	0.463
1324.48	0.486
1333.24	0.572
1342	0.387
1350.76	0.24
1359.52	0.394
1368.28	0.664
1377.05	0.717
1385.81	0.727
1394.57	0.732
1403.33	0.727
1412.09	0.718
1420.85	0.718
1429.62	0.718
1438.38	0.707
1447.14	0.663
1455.9	0.596
1464.66	0.664
1473.42	0.666
1482.19	0.639
1490.95	0.585
1499.71	0.519
1508.47	0.581
1517.23	0.563
1525.99	0.537
1534.76	0.502
1543.52	0.469
1552.28	0.405
1561.04	0.295
1569.8	0.1549
1578.56	0.077
1587.33	0.055
1596.09	0.344
1604.85	0.421
1613.61	0.35
1622.37	0.198
1631.14	0.181
1639.9	0.12
1648.66	0.091
1657.42	0.096
1666.18	0.114
1674.94	0.132
1683.71	0.275
1692.47	0.408
1701.23	0.544
1709.99	0.7
1718.75	0.763
1727.51	0.814
1736.28	0.889
1745.04	0.944
1753.8	0.969
1762.56	0.98
1771.32	0.991
1780.08	0.981
1788.85	0.951
1797.61	0.961
1806.37	0.969
1815.13	0.977
1823.89	0.981
1832.65	0.977
1841.42	0.979
1850.18	0.98
1858.94	0.975
1867.7	0.97
1876.46	0.966
1885.22	0.961
1893.99	0.959
1902.75	0.955
1911.51	0.954
1920.27	0.955
1929.03	0.951
1937.79	0.948
1946.56	0.943
1955.32	0.939
1964.08	0.933
1972.84	0.923
1981.6	0.919
1990.36	0.915
1999.13	0.914
2007.89	0.924
2016.65	0.926
2025.41	0.922
2034.17	0.9185
2042.93	0.9137
2051.7	0.9086
2060.46	0.9042
2069.22	0.9006
2077.98	0.8966
2086.74	0.894
2095.5	0.8923
2104.27	0.8866
2113.03	0.882
2121.79	0.876
2130.55	0.8727
2139.31	0.869
2148.08	0.8664
2156.84	0.8601
2165.6	0.8497
2174.36	0.843
2183.12	0.8367
2191.88	0.831
2200.65	0.828
2209.41	0.8248
2218.17	0.8206
2226.93	0.8166
2235.69	0.8078
2244.45	0.801
2253.22	0.7928
2261.98	0.7877
2270.74	0.779
2279.5	0.7767
2288.26	0.772
2297.02	0.7679
2305.79	0.76
2314.55	0.753
2323.31	0.752
2332.07	0.753
2340.83	0.754
2349.59	0.753
2358.36	0.749
2367.12	0.75
2375.88	0.746
2384.64	0.731
2393.4	0.724
2402.16	0.72
2410.93	0.7141
2419.69	0.71
2428.45	0.7031
2437.21	0.695
2445.97	0.692
2454.73	0.692
2463.5	0.691
2472.26	0.6814
2481.02	0.6712
2489.78	0.667
2498.54	0.663
2507.3	0.657
2516.07	0.653
2524.83	0.6482
2533.59	0.6386
2542.35	0.6302
2551.11	0.6199
2559.87	0.6132
2568.64	0.6035
2577.4	0.601
2586.16	0.599
2594.92	0.5913
2603.68	0.5873
2612.44	0.5763
2621.21	0.5671
2629.97	0.549
2638.73	0.543
2647.49	0.534
2656.25	0.526
2665.02	0.519
2673.78	0.515
2682.54	0.513
2691.3	0.5084
2700.06	0.504
2708.82	0.5056
2717.59	0.5167
2726.35	0.5169
2735.11	0.5069
2743.87	0.4939
2752.63	0.487
2761.39	0.486
2770.16	0.4945
2778.92	0.505
2787.68	0.5195
2796.44	0.5399
2805.2	0.5545
2813.96	0.5501
2822.73	0.5293
2831.49	0.5177
2840.25	0.5086
2849.01	0.504
2857.77	0.5114
2866.53	0.522
2875.3	0.524
2884.06	0.524
2892.82	0.523
2901.58	0.5213
2910.34	0.5081
2919.1	0.498
2927.87	0.498
2936.63	0.5026
2945.39	0.5095
2954.15	0.513
2962.91	0.515
2971.67	0.5118
2980.44	0.508
2989.2	0.505
2997.96	0.5036
3006.72	0.498
3015.48	0.4908
3024.24	0.4798
3033.01	0.4615
3041.77	0.4421
3050.53	0.4171
3059.29	0.3887
3068.05	0.3645
3076.81	0.3386
3085.58	0.3146
3094.34	0.308
3103.1	0.3192
3111.86	0.3355
3120.62	0.3655
3129.38	0.4164
3138.15	0.4582
3146.91	0.4901
3155.67	0.513
3164.43	0.527
3173.19	0.5438
3181.96	0.5539
3190.72	0.5736
3199.48	0.584
3208.24	0.5948
3217	0.6009
3225.76	0.6059
3234.53	0.606
3243.29	0.606
3252.05	0.605
3260.81	0.608
3269.57	0.6154
3278.33	0.6198
3287.1	0.621
3295.86	0.62
3304.62	0.617
3313.38	0.6186
3322.14	0.619
3330.9	0.6208
3339.67	0.624
3348.43	0.627
3357.19	0.628
3365.95	0.626
3374.71	0.6193
3383.47	0.6106
3392.24	0.5962
3401	0.5622
3409.76	0.5072
3418.52	0.3808
3427.28	0.3137
3436.04	0.5119
3444.81	0.6534
3453.57	0.7085
3462.33	0.7246
3471.09	0.729
3479.85	0.7346
3488.61	0.7386
3497.38	0.742
3506.14	0.743
3514.9	0.743
3523.66	0.743
3532.42	0.744
3541.18	0.7455
3549.95	0.747
3558.71	0.747
3567.47	0.747
3576.23	0.7465
3584.99	0.7455
3593.75	0.7439
3602.52	0.747
3611.28	0.749
3620.04	0.747
3628.8	0.746
3637.56	0.746
3646.33	0.746
3655.09	0.746
3663.85	0.745
3672.61	0.743
3681.37	0.743
3690.13	0.743
3698.9	0.742
3707.66	0.7338
3716.42	0.727
3725.18	0.724
3733.94	0.721
3742.7	0.7178
3751.47	0.7046
3760.23	0.6732
3768.99	0.6397
3777.75	0.6076
3786.51	0.5691
3795.27	0.5365
