Infrared Spectrum: 4-(Trifluoromethoxy)fluorobenzene
Formula: C 7 H 4 F 4 O
CAS: 352-67-0
State: gas
Origin: EPA-IR VAPOR PHASE LIBRARY
1/CM	ABSORBANCE
549.8	0.00494
559.445	0.00393
569.09	0.00766
578.734	0.02112
588.379	0.02722
598.024	0.01312
607.669	0.00599
617.313	0.00526
626.958	0.0033
636.603	0.00284
646.248	0.00431
655.893	0.00553
665.537	0.00787
675.182	0.00704
684.827	0.00461
694.472	0.00419
704.116	0.00505
713.761	0.00809
723.406	0.00683
733.051	0.00413
742.695	0.0029
752.34	0.00358
761.985	0.00849
771.63	0.02632
781.275	0.02165
790.919	0.00697
800.564	0.00562
810.209	0.01102
819.854	0.02274
829.498	0.03674
839.143	0.04429
848.788	0.03965
858.433	0.02509
868.078	0.0123
877.722	0.00709
887.367	0.00521
897.012	0.00372
906.657	0.00413
916.301	0.00763
925.946	0.01022
935.591	0.00847
945.236	0.0059
954.88	0.00393
964.525	0.0032
974.17	0.00262
983.815	0.0018724
993.46	0.003
1003.1	0.00403
1012.75	0.01078
1022.39	0.00601
1032.04	0.00262
1041.68	0.0020942
1051.33	0.0019022
1060.97	0.0015151
1070.62	0.00427
1080.26	0.01101
1089.91	0.0168
1099.55	0.0174
1109.2	0.01236
1118.84	0.01233
1128.49	0.01231
1138.13	0.01986
1147.78	0.04831
1157.42	0.08501
1167.07	0.13751
1176.71	0.26049
1186.36	0.41255
1196	0.46771
1205.64	0.43464
1215.29	0.42435
1224.93	0.40664
1234.58	0.39188
1244.22	0.38341
1253.87	0.32741
1263.51	0.46567
1273.16	0.61552
1282.8	0.38017
1292.45	0.13714
1302.09	0.07203
1311.74	0.04229
1321.38	0.02552
1331.03	0.01733
1340.67	0.01217
1350.32	0.00899
1359.96	0.0072
1369.61	0.00629
1379.25	0.00546
1388.9	0.00528
1398.54	0.00501
1408.18	0.00533
1417.83	0.00607
1427.47	0.00631
1437.12	0.00727
1446.76	0.00821
1456.41	0.00737
1466.05	0.00611
1475.7	0.00861
1485.34	0.02225
1494.99	0.09972
1504.63	0.23668
1514.28	0.17462
1523.92	0.06922
1533.57	0.03316
1543.21	0.01617
1552.86	0.01088
1562.5	0.00846
1572.15	0.0074
1581.79	0.00765
1591.44	0.00851
1601.08	0.00981
1610.73	0.0113
1620.37	0.00984
1630.01	0.00755
1639.66	0.00712
1649.3	0.00571
1658.95	0.00447
1668.59	0.00373
1678.24	0.0031
1687.88	0.00342
1697.53	0.00321
1707.17	0.00299
1716.82	0.00293
1726.46	0.00302
1736.11	0.00427
1745.75	0.00457
1755.4	0.00311
1765.04	0.00285
1774.69	0.00314
1784.33	0.00292
1793.98	0.00256
1803.62	0.00254
1813.27	0.00245
1822.91	0.00244
1832.55	0.003
1842.2	0.00357
1851.84	0.00467
1861.49	0.00647
1871.13	0.00751
1880.78	0.00635
1890.42	0.00414
1900.07	0.00265
1909.71	0.0020891
1919.36	0.00217
1929	0.00226
1938.65	0.0019231
1948.29	0.0018792
1957.94	0.0020373
1967.58	0.0021448
1977.23	0.00226
1986.87	0.00257
1996.52	0.00261
2006.16	0.00315
2015.81	0.00405
2025.45	0.00451
2035.1	0.0043
2044.74	0.00453
2054.38	0.00395
2064.03	0.00272
2073.67	0.00266
2083.32	0.00246
2092.96	0.00271
2102.61	0.00286
2112.25	0.00253
2121.9	0.00261
2131.54	0.00251
2141.19	0.0027
2150.83	0.00252
2160.48	0.00232
2170.12	0.0019609
2179.77	0.0019715
2189.41	0.00223
2199.06	0.0018408
2208.7	0.0017367
2218.35	0.0015166
2227.99	0.0016597
2237.64	0.0014327
2247.28	0.0015406
2256.92	0.0014718
2266.57	0.0012223
2276.21	0.0012666
2285.86	0.001326
2295.5	0.001096
2305.15	0.00116173
2314.79	0.0015919
2324.44	0.001731
2334.08	0.00189
2343.73	0.00235
2353.37	0.00233
2363.02	0.00225
2372.66	0.0025
2382.31	0.00256
2391.95	0.0028
2401.6	0.0029
2411.24	0.00391
2420.89	0.00482
2430.53	0.00525
2440.18	0.00494
2449.82	0.004
2459.47	0.00338
2469.11	0.00314
2478.75	0.00375
2488.4	0.00428
2498.04	0.00443
2507.69	0.00416
2517.33	0.00343
2526.98	0.00275
2536.62	0.00223
2546.27	0.0021354
2555.91	0.0018865
2565.56	0.0020954
2575.2	0.00118021
2584.85	0.0014418
2594.49	0.0013801
2604.14	0.000839
2613.78	0.000829
2623.43	0.0010653
2633.07	0.00077
2642.72	0.001046
2652.36	0.000885
2662.01	0.000812
2671.65	0.000922
2681.29	0.0011588
2690.94	0.000986
2700.58	0.000799
2710.23	0.00102
2719.87	0.0010697
2729.52	0.000749
2739.16	0.001001
2748.81	0.001015
2758.45	0.0011056
2768.1	0.0012999
2777.74	0.00117956
2787.39	0.000852
2797.03	0.0010639
2806.68	0.001065
2816.32	0.0012859
2825.97	0.00120551
2835.61	0.000777
2845.26	0.00118963
2854.9	0.0013471
2864.55	0.0012722
2874.19	0.0015048
2883.84	0.001752
2893.48	0.000409
2903.12	0.0011187
2912.77	0.000446
2922.41	0.000714
2932.06	0.000778
2941.7	8e-05
2951.35	0.00119969
2960.99	0.0009
2970.64	0.000557
2980.28	0.000774
2989.93	0.0014724
2999.57	0.00124853
3009.22	0.000798
3018.86	0.0011169
3028.51	0.0012454
3038.15	0.0012883
3047.8	0.001678
3057.44	0.00217
3067.09	0.00311
3076.73	0.00306
3086.38	0.0021092
3096.02	0.0020836
3105.67	0.001818
3115.31	0.0012747
3124.95	0.0018017
3134.6	0.0013675
3144.24	0.001014
3153.89	0.00119437
3163.53	0.000834
3173.18	0.0010734
3182.82	0.000976
3192.47	0.0012927
3202.11	0.00067
3211.76	0.000973
3221.4	0.00096
3231.05	0.000843
3240.69	0.000751
3250.34	0.000755
3259.98	0.000407
3269.63	0.000645
3279.27	0.000788
3288.92	0.000943
3298.56	0.0011385
3308.21	0.000942
3317.85	0.000547
3327.49	0.0011092
3337.14	0.000972
3346.78	0.00104
3356.43	0.0015273
3366.07	0.000624
3375.72	0.0016427
3385.36	0.000843
3395.01	0.000986
3404.65	0.0014308
3414.3	0.00114011
3423.94	0.000934
3433.59	0.00116358
3443.23	0.00118507
3452.88	0.000504
3462.52	0.000842
3472.17	0.001026
3481.81	0.0012868
3491.46	0.00123767
3501.1	0.0011105
3510.75	0.0014228
3520.39	0.00077
3530.04	0.00095
3539.68	0.0010971
3549.32	0.000779
3558.97	0.0012811
3568.61	0.0013643
3578.26	0.0018991
3587.9	0.000756
3597.55	0.0015095
3607.19	0.0015928
3616.84	0.0010504
3626.48	0.00115501
3636.13	0.0010528
3645.77	0.000621
3655.42	0.0011372
3665.06	0.0017162
3674.71	0.0017355
3684.35	0.0018871
3694	0.000816
3703.64	0.000867
3713.29	0.000482
3722.93	0.0019167
3732.58	0.0012776
3742.22	0.000961
3751.86	0.001048
3761.51	0.000529
3771.15	0.000831
3780.8	0.000953
3790.44	0.0014845
3800.09	0.0012918
3809.73	0.00088
3819.38	0.000249
3829.02	0.000662
3838.67	0.00083
3848.31	0.000776
3857.96	0.000571
3867.6	0.000584
3877.25	0.0015144
3886.89	0.0013683
3896.54	0.0013788
3906.18	0.0014887
3915.83	0.000479
3925.47	0.0010806
3935.12	0.0015928
3944.76	0.000717
3954.41	0.001085
3964.05	0.000783
3973.69	0.0012899
3983.34	0.000767
3992.98	0.000764
