Infrared Spectrum: Bis(2,2,2-trifluoroethyl)maleate
Formula: C 8 H 6 F 6 O 4
CAS: 352-28-3
State: gas
Origin: EPA-IR VAPOR PHASE LIBRARY
1/CM	ABSORBANCE
549.8	0.00517
559.445	0.00319
569.09	0.00353
578.734	0.00279
588.379	0.00327
598.024	0.00301
607.669	0.00285
617.313	0.00366
626.958	0.00463
636.603	0.00529
646.248	0.00637
655.893	0.00888
665.537	0.00818
675.182	0.00624
684.827	0.00466
694.472	0.00363
704.116	0.00301
713.761	0.00283
723.406	0.00241
733.051	0.0020928
742.695	0.0024
752.34	0.00257
761.985	0.0020758
771.63	0.00278
781.275	0.00285
790.919	0.00345
800.564	0.0045
810.209	0.00627
819.854	0.00573
829.498	0.00677
839.143	0.00641
848.788	0.0065
858.433	0.00667
868.078	0.00618
877.722	0.0057
887.367	0.00549
897.012	0.0057
906.657	0.00653
916.301	0.00645
925.946	0.00693
935.591	0.00742
945.236	0.00842
954.88	0.01231
964.525	0.01706
974.17	0.02124
983.815	0.02004
993.46	0.01324
1003.1	0.00792
1012.75	0.00589
1022.39	0.0061
1032.04	0.01009
1041.68	0.01687
1051.33	0.0231
1060.97	0.01746
1070.62	0.01232
1080.26	0.00866
1089.91	0.00769
1099.55	0.01075
1109.2	0.01426
1118.84	0.0228
1128.49	0.04174
1138.13	0.08075
1147.78	0.1189
1157.42	0.11027
1167.07	0.12454
1176.71	0.17742
1186.36	0.13984
1196	0.07572
1205.64	0.05462
1215.29	0.04081
1224.93	0.03345
1234.58	0.02922
1244.22	0.0277
1253.87	0.0296
1263.51	0.03206
1273.16	0.04275
1282.8	0.06777
1292.45	0.07975
1302.09	0.05787
1311.74	0.03566
1321.38	0.01976
1331.03	0.01143
1340.67	0.00847
1350.32	0.00651
1359.96	0.00665
1369.61	0.00724
1379.25	0.0101
1388.9	0.01605
1398.54	0.02173
1408.18	0.03414
1417.83	0.02751
1427.47	0.01252
1437.12	0.00852
1446.76	0.00872
1456.41	0.00745
1466.05	0.00524
1475.7	0.00389
1485.34	0.00337
1494.99	0.00342
1504.63	0.00293
1514.28	0.00276
1523.92	0.00272
1533.57	0.00268
1543.21	0.00267
1552.86	0.00239
1562.5	0.00244
1572.15	0.0022502
1581.79	0.00244
1591.44	0.0021884
1601.08	0.00278
1610.73	0.00333
1620.37	0.00387
1630.01	0.00578
1639.66	0.00816
1649.3	0.00667
1658.95	0.00434
1668.59	0.00401
1678.24	0.00372
1687.88	0.00376
1697.53	0.00379
1707.17	0.00468
1716.82	0.00585
1726.46	0.00758
1736.11	0.01011
1745.75	0.01662
1755.4	0.03534
1765.04	0.065
1774.69	0.06318
1784.33	0.03521
1793.98	0.01704
1803.62	0.00993
1813.27	0.00669
1822.91	0.00496
1832.55	0.00368
1842.2	0.00314
1851.84	0.00261
1861.49	0.0026
1871.13	0.00238
1880.78	0.0020501
1890.42	0.0019892
1900.07	0.0020516
1909.71	0.0019773
1919.36	0.0020221
1929	0.0016973
1938.65	0.0018773
1948.29	0.0016791
1957.94	0.0017643
1967.58	0.001845
1977.23	0.0018362
1986.87	0.0017199
1996.52	0.0018707
2006.16	0.002082
2015.81	0.0021211
2025.45	0.0021396
2035.1	0.0018572
2044.74	0.001867
2054.38	0.0018808
2064.03	0.0020406
2073.67	0.0019107
2083.32	0.00231
2092.96	0.0020964
2102.61	0.0020224
2112.25	0.0020904
2121.9	0.0018826
2131.54	0.0020103
2141.19	0.001831
2150.83	0.0017079
2160.48	0.001879
2170.12	0.00148
2179.77	0.0016624
2189.41	0.0018523
2199.06	0.0019155
2208.7	0.0015084
2218.35	0.0017284
2227.99	0.0015632
2237.64	0.0017985
2247.28	0.0016482
2256.92	0.0016938
2266.57	0.0014651
2276.21	0.001423
2285.86	0.0016129
2295.5	0.001512
2305.15	0.0016418
2314.79	0.0015713
2324.44	0.0017577
2334.08	0.0018832
2343.73	0.0019302
2353.37	0.0018162
2363.02	0.0013986
2372.66	0.0016983
2382.31	0.0017581
2391.95	0.0014132
2401.6	0.001501
2411.24	0.0015445
2420.89	0.00134697
2430.53	0.00135841
2440.18	0.0012976
2449.82	0.0014084
2459.47	0.000997
2469.11	0.000946
2478.75	0.0015794
2488.4	0.0015416
2498.04	0.0013465
2507.69	0.0011767
2517.33	0.00128498
2526.98	0.001043
2536.62	0.0013868
2546.27	0.0013968
2555.91	0.00147
2565.56	0.0014395
2575.2	0.0014682
2584.85	0.0015695
2594.49	0.0015463
2604.14	0.001224
2613.78	0.000764
2623.43	0.00135139
2633.07	0.0012161
2642.72	0.001129
2652.36	0.001122
2662.01	0.0011871
2671.65	0.001012
2681.29	0.0014189
2690.94	0.0014416
2700.58	0.0015087
2710.23	0.0014585
2719.87	0.0012266
2729.52	0.00129365
2739.16	0.00113
2748.81	0.0014224
2758.45	0.0012472
2768.1	0.0016122
2777.74	0.0012383
2787.39	0.0012553
2797.03	0.0014895
2806.68	0.000953
2816.32	0.001225
2825.97	0.0014017
2835.61	0.00129854
2845.26	0.001101
2854.9	0.0017007
2864.55	0.0012062
2874.19	0.00130449
2883.84	0.0015125
2893.48	0.0016221
2903.12	0.0019811
2912.77	0.0019164
2922.41	0.0014143
2932.06	0.0016771
2941.7	0.0018793
2951.35	0.0017673
2960.99	0.00252
2970.64	0.00418
2980.28	0.00905
2989.93	0.0048
2999.57	0.00244
3009.22	0.0021044
3018.86	0.0017761
3028.51	0.0017468
3038.15	0.001119
3047.8	0.001061
3057.44	0.00132353
3067.09	0.0016646
3076.73	0.0015426
3086.38	0.00133681
3096.02	0.00095
3105.67	0.001037
3115.31	0.0017389
3124.95	0.001155
3134.6	0.0015923
3144.24	0.0015228
3153.89	0.000991
3163.53	0.001143
3173.18	0.000878
3182.82	0.00127265
3192.47	0.001077
3202.11	0.00132959
3211.76	0.001126
3221.4	0.00114
3231.05	0.0011746
3240.69	0.0015377
3250.34	0.0011839
3259.98	0.0013778
3269.63	0.000624
3279.27	0.00135891
3288.92	0.00133266
3298.56	0.0011914
3308.21	0.000958
3317.85	0.000935
3327.49	0.00093
3337.14	0.001008
3346.78	0.001033
3356.43	0.0014637
3366.07	0.001552
3375.72	0.0012306
3385.36	0.000954
3395.01	0.0012023
3404.65	0.0013889
3414.3	0.0014424
3423.94	0.00131879
3433.59	0.000688
3443.23	0.001142
3452.88	0.0014859
3462.52	0.000689
3472.17	0.0020264
3481.81	0.001894
3491.46	0.00108
3501.1	0.0018312
3510.75	0.001919
3520.39	0.0017589
3530.04	0.0017576
3539.68	0.0015674
3549.32	0.0016927
3558.97	0.00126622
3568.61	0.0012347
3578.26	0.0014967
3587.9	0.0013712
3597.55	0.000796
3607.19	0.0012019
3616.84	0.000912
3626.48	0.001082
3636.13	0.0011899
3645.77	0.0012531
3655.42	0.0014323
3665.06	0.0012415
3674.71	0.000957
3684.35	0.0013807
3694	0.001039
3703.64	0.0015576
3713.29	0.0013913
3722.93	0.000652
3732.58	0.001119
3742.22	0.001016
3751.86	0.001044
3761.51	0.0014506
3771.15	0.0017047
3780.8	0.0016637
3790.44	0.000781
3800.09	0.0014863
3809.73	0.00130363
3819.38	0.0014732
3829.02	0.0015517
3838.67	0.000609
3848.31	0.000851
3857.96	0.001024
3867.6	0.000615
3877.25	0.001107
3886.89	0.000749
3896.54	0.000915
3906.18	0.000951
3915.83	0.0011858
3925.47	0.00049
3935.12	0.0013
3944.76	0.00130424
3954.41	0.0014397
3964.05	0.0011749
3973.69	0.00130822
3983.34	0.000704
3992.98	0.0012134
