Infrared Spectrum: p-Fluorotoluene
Formula: C7 H7 F
CAS: 352-32-9
State: SOLUTION (10% CCl4 FOR 3800-1330, 10% CS2 FOR 1330-450)
Class: COBLENTZ III
Instrument: DOW KBr FOREPRISM-GRATING
Instrument parameters: BLAZED AT 3.5, 12.0, 20.0 MICRON AND CHANGED AT 5.0, 7.5, 14.9 MICRON
Sampling: TRANSMISSION
Path length: 0.012 CM, 0.012 CM
Resolution: 2
Origin: DOW CHEMICAL COMPANY
1/CM	TRANSMITTANCE
3816	0.9233
3807	0.9243
3798	0.9248
3789	0.9261
3780	0.9261
3771	0.9263
3762	0.9266
3753	0.9273
3744	0.9282
3735	0.93
3726	0.93
3717	0.9274
3708	0.926
3699	0.9254
3690	0.9238
3681	0.9232
3672	0.9251
3663	0.9275
3654	0.9285
3645	0.9255
3636	0.9268
3627	0.9295
3618	0.9307
3609	0.9318
3600	0.9314
3591	0.9052
3582	0.9082
3573	0.9285
3564	0.9293
3555	0.9301
3546	0.9292
3537	0.9278
3528	0.926
3519	0.9252
3510	0.9243
3501	0.9235
3492	0.9226
3483	0.921
3474	0.9188
3465	0.9167
3456	0.9154
3447	0.9141
3438	0.913
3429	0.9116
3420	0.9104
3411	0.9092
3402	0.9082
3393	0.9072
3384	0.9063
3375	0.9072
3366	0.9081
3357	0.9107
3348	0.9111
3339	0.9106
3330	0.9106
3321	0.911
3312	0.9127
3303	0.9118
3294	0.9121
3285	0.9142
3276	0.9175
3267	0.9206
3258	0.9222
3249	0.9224
3240	0.9211
3231	0.9201
3222	0.9138
3213	0.9147
3204	0.9161
3195	0.9183
3186	0.9177
3177	0.9177
3168	0.9182
3159	0.9184
3150	0.9151
3141	0.9075
3132	0.897
3123	0.8777
3114	0.8666
3105	0.8732
3096	0.88
3087	0.8713
3078	0.8302
3069	0.7674
3060	0.7713
3051	0.6858
3042	0.4746
3033	0.5558
3024	0.6716
3015	0.7282
3006	0.6953
2997	0.6633
2988	0.6605
2979	0.639
2970	0.6206
2961	0.6249
2952	0.615
2943	0.6096
2934	0.571
2925	0.4453
2916	0.588
2907	0.6889
2898	0.7006
2889	0.7068
2880	0.6999
2871	0.6434
2862	0.6461
2853	0.7637
2844	0.8254
2835	0.8511
2826	0.8736
2817	0.887
2808	0.8978
2799	0.9007
2790	0.9045
2781	0.9085
2772	0.9126
2763	0.9144
2754	0.9141
2745	0.9102
2736	0.8561
2727	0.8839
2718	0.912
2709	0.9163
2700	0.9183
2691	0.9199
2682	0.9211
2673	0.922
2664	0.9197
2655	0.9179
2646	0.9202
2637	0.9202
2628	0.9215
2619	0.92
2610	0.9187
2601	0.9167
2592	0.915
2583	0.9139
2574	0.9137
2565	0.9118
2556	0.9097
2547	0.9188
2538	0.9214
2529	0.9206
2520	0.9198
2511	0.9191
2502	0.917
2493	0.9214
2484	0.923
2475	0.9221
2466	0.9169
2457	0.903
2448	0.8852
2439	0.8767
2430	0.9008
2421	0.9148
2412	0.9199
2403	0.9201
2394	0.9173
2385	0.9142
2376	0.9148
2367	0.9243
2358	0.9391
2349	0.9506
2340	0.9599
2331	0.9662
2322	0.9747
2313	0.9628
2304	0.9307
2295	0.9295
2286	0.9268
2277	0.9235
2268	0.9183
2259	0.9107
2250	0.8996
2241	0.9178
2232	0.9223
2223	0.9256
2214	0.9278
2205	0.9302
2196	0.9318
2187	0.9319
2178	0.9342
2169	0.929
2160	0.9268
2151	0.9277
2142	0.9284
2133	0.9288
2124	0.9293
2115	0.9281
2106	0.9238
2097	0.9237
2088	0.925
2079	0.9196
2070	0.9078
2061	0.9013
2052	0.9035
2043	0.9086
2034	0.9153
2025	0.9172
2016	0.9175
2007	0.9168
1998	0.9078
1989	0.918
1980	0.9212
1971	0.9194
1962	0.9147
1953	0.8781
1944	0.8897
1935	0.9132
1926	0.9239
1917	0.9253
1908	0.9244
1899	0.9218
1890	0.8859
1881	0.6972
1872	0.8004
1863	0.8758
1854	0.8962
1845	0.911
1836	0.9203
1827	0.924
1818	0.9267
1809	0.9275
1800	0.925
1791	0.9247
1782	0.9232
1773	0.9137
1764	0.8589
1755	0.8977
1746	0.8944
1737	0.8923
1728	0.9089
1719	0.9219
1710	0.9177
1701	0.921
1692	0.9216
1683	0.9198
1674	0.9146
1665	0.9069
1656	0.8983
1647	0.8769
1638	0.7922
1629	0.7069
1620	0.4125
1611	0.4472
1602	0.2694
1593	0.5775
1584	0.6679
1575	0.7417
1566	0.6994
1557	0.6702
1548	0.669
1539	0.661
1530	0.6214
1521	0.162
1512	0.023
1503	0.1031
1494	0.6497
1485	0.7336
1476	0.7426
1467	0.7061
1458	0.6513
1449	0.6504
1440	0.6915
1431	0.7052
1422	0.7598
1413	0.8097
1404	0.8526
1395	0.851
1386	0.8165
1377	0.7833
1368	0.8555
1359	0.8841
1350	0.8772
1341	0.8901
1332	0.8936
1323	0.8863
1314	0.834
1305	0.868
1296	0.7941
1287	0.8519
1278	0.8585
1269	0.8757
1260	0.8688
1251	0.8147
1242	0.5664
1233	0.0203
1224	0.0164
1215	0.3733
1206	0.6811
1197	0.8099
1188	0.8577
1179	0.7935
1170	0.8607
1161	0.8166
1152	0.3538
1143	0.842
1134	0.8861
1125	0.8807
1116	0.8239
1107	0.7918
1098	0.5973
1089	0.6631
1080	0.8436
1071	0.852
1062	0.8597
1053	0.847
1044	0.7747
1035	0.7379
1026	0.8399
1017	0.7115
1008	0.8364
999	0.8983
990	0.9106
981	0.9188
972	0.9172
963	0.9144
954	0.9106
945	0.8996
936	0.901
927	0.8204
918	0.862
909	0.8987
900	0.9172
891	0.9149
882	0.8996
873	0.8663
864	0.844
855	0.7937
846	0.5649
837	0.4658
828	0.6115
819	0.0715
810	0.0156
801	0.5933
792	0.8161
783	0.8667
774	0.8907
765	0.9035
756	0.908
747	0.8973
738	0.896
729	0.7045
720	0.5838
711	0.8807
702	0.9112
693	0.8987
684	0.8852
675	0.9228
666	0.94
657	0.9272
648	0.9007
639	0.9033
630	0.9085
621	0.92
612	0.9216
603	0.9133
594	0.9185
585	0.9192
576	0.9151
567	0.9176
558	0.9163
549	0.9094
540	0.8995
531	0.8889
522	0.8718
513	0.8168
504	0.2832
495	0.3499
486	0.7685
477	0.8137
468	0.8243
459	0.8224
