Infrared Spectrum: 5-Indansulfonamide
Formula: C9 H11 N O2 S
CAS: 35203-93-1
State: SOLID (SPLIT MULL), FLUOROLUBE FOR 3800-1330 CM^-^1, NUJOL FOR 1330-400 CM^-^1
Melting point: 133 C
Class: COBLENTZ III
Instrument: DOW KBr FOREPRISM-GRATING
Instrument parameters: BLAZED AT 3.5, 12.0, 20.0 MICRON AND CHANGED AT 5.0, 7.5, 14.9 MICRON
Sampling: TRANSMISSION
Resolution: 2
Origin: DOW CHEMICAL COMPANY
1/CM	TRANSMITTANCE
3802	0.7178
3793	0.7187
3784	0.7197
3775	0.7214
3766	0.7251
3757	0.7315
3748	0.7367
3739	0.7375
3730	0.7364
3721	0.7353
3712	0.7345
3703	0.7342
3694	0.7347
3685	0.7357
3676	0.7368
3667	0.738
3658	0.7391
3649	0.74
3640	0.7408
3631	0.7417
3622	0.7422
3613	0.7425
3604	0.7426
3595	0.7428
3586	0.7425
3577	0.7421
3568	0.7418
3559	0.7414
3550	0.7411
3541	0.7407
3532	0.7403
3523	0.7399
3514	0.7405
3505	0.7411
3496	0.7419
3487	0.7431
3478	0.7434
3469	0.7428
3460	0.743
3451	0.7435
3442	0.7453
3433	0.7462
3424	0.7469
3415	0.7449
3406	0.7405
3397	0.7274
3388	0.7033
3379	0.6712
3370	0.6107
3361	0.4342
3352	0.3039
3343	0.1624
3334	0.1263
3325	0.2671
3316	0.3724
3307	0.4202
3298	0.4358
3289	0.4428
3280	0.4415
3271	0.3742
3262	0.217
3253	0.1033
3244	0.1734
3235	0.2888
3226	0.3966
3217	0.4715
3208	0.5087
3199	0.537
3190	0.5577
3181	0.5729
3172	0.5876
3163	0.5968
3154	0.5979
3145	0.5896
3136	0.5681
3127	0.528
3118	0.5221
3109	0.5754
3100	0.6461
3091	0.6921
3082	0.7107
3073	0.7241
3064	0.728
3055	0.7028
3046	0.7414
3037	0.736
3028	0.7264
3019	0.739
3010	0.7484
3001	0.7487
2992	0.7448
2983	0.656
2974	0.6374
2965	0.6316
2956	0.6342
2947	0.6793
2938	0.6421
2929	0.5973
2920	0.5871
2911	0.6353
2902	0.6601
2893	0.6825
2884	0.7044
2875	0.7241
2866	0.7436
2857	0.7537
2848	0.7465
2839	0.6993
2830	0.6845
2821	0.7518
2812	0.7701
2803	0.7758
2794	0.7797
2785	0.7828
2776	0.7861
2767	0.7885
2758	0.7901
2749	0.7918
2740	0.7931
2731	0.7941
2722	0.7951
2713	0.7957
2704	0.7951
2695	0.7946
2686	0.7939
2677	0.7928
2668	0.791
2659	0.7889
2650	0.7874
2641	0.7868
2632	0.7891
2623	0.7934
2614	0.798
2605	0.8017
2596	0.8042
2587	0.8044
2578	0.8038
2569	0.8087
2560	0.8144
2551	0.8154
2542	0.8165
2533	0.8171
2524	0.8178
2515	0.8182
2506	0.8185
2497	0.8178
2488	0.8161
2479	0.8138
2470	0.8122
2461	0.8126
2452	0.8134
2443	0.8151
2434	0.8168
2425	0.8184
2416	0.82
2407	0.8217
2398	0.8223
2389	0.8224
2380	0.8225
2371	0.8227
2362	0.8225
2353	0.8231
2344	0.8271
2335	0.827
2326	0.8267
2317	0.8252
2308	0.8181
2299	0.8124
2290	0.8142
2281	0.8165
2272	0.818
2263	0.8192
2254	0.8217
2245	0.8243
2236	0.8266
2227	0.8285
2218	0.8303
2209	0.8315
2200	0.8325
2191	0.8337
2182	0.8354
2173	0.8368
2164	0.8392
2155	0.8417
2146	0.8439
2137	0.8464
2128	0.849
2119	0.851
2110	0.8523
2101	0.8535
2092	0.8547
2083	0.8553
2074	0.8563
2065	0.857
2056	0.856
2047	0.8549
2038	0.855
2029	0.8565
2020	0.859
2011	0.861
2002	0.858
1993	0.8548
1984	0.8554
1975	0.858
1966	0.8528
1957	0.855
1948	0.8603
1939	0.8594
1930	0.8596
1921	0.8607
1912	0.8582
1903	0.8412
1894	0.8565
1885	0.8623
1876	0.8628
1867	0.8637
1858	0.8642
1849	0.8611
1840	0.8647
1831	0.8666
1822	0.8664
1813	0.867
1804	0.8657
1795	0.8608
1786	0.8624
1777	0.8594
1768	0.8549
1759	0.8577
1750	0.8671
1741	0.8725
1732	0.8754
1723	0.8766
1714	0.8748
1705	0.8739
1696	0.874
1687	0.8725
1678	0.8701
1669	0.8667
1660	0.863
1651	0.8587
1642	0.851
1633	0.8311
1624	0.8308
1615	0.8271
1606	0.8119
1597	0.7765
1588	0.7321
1579	0.5491
1570	0.5538
1561	0.6728
1552	0.7764
1543	0.805
1534	0.822
1525	0.8325
1516	0.8388
1507	0.8415
1498	0.8416
1489	0.8371
1480	0.6754
1471	0.7778
1462	0.7694
1453	0.7896
1444	0.8035
1435	0.4756
1426	0.7772
1417	0.7235
1408	0.7224
1399	0.7932
1390	0.8
1381	0.8025
1372	0.7992
1363	0.7928
1354	0.7378
1345	0.5381
1336	0.0863
1327	0.2241
1318	0.1372
1309	0.3955
1300	0.5664
1291	0.6789
1282	0.6824
1273	0.7111
1264	0.7117
1255	0.7608
1246	0.7751
1237	0.7771
1228	0.7768
1219	0.7654
1210	0.6541
1201	0.6914
1192	0.607
1183	0.407
1174	0.3893
1165	0.384
1156	0.3214
1147	0.093
1138	0.3475
1129	0.5633
1120	0.5294
1111	0.5333
1102	0.4819
1093	0.6887
1084	0.7511
1075	0.7615
1066	0.5591
1057	0.7875
1048	0.8201
1039	0.8408
1030	0.8101
1021	0.8594
1012	0.864
1003	0.8636
994	0.8705
985	0.8778
976	0.8784
967	0.8763
958	0.8732
949	0.8563
940	0.8388
931	0.6304
922	0.3324
913	0.568
904	0.7169
895	0.7908
886	0.8193
877	0.7285
868	0.7918
859	0.8421
850	0.854
841	0.8533
832	0.8218
823	0.5135
814	0.8192
805	0.8667
796	0.8616
787	0.8188
778	0.7908
769	0.7661
760	0.7244
751	0.6595
742	0.5989
733	0.5044
724	0.3958
715	0.3666
706	0.353
697	0.3327
688	0.5046
679	0.6961
670	0.7219
661	0.6453
652	0.6062
643	0.6056
634	0.6349
625	0.6642
616	0.6919
607	0.7112
598	0.6501
589	0.3698
580	0.6183
571	0.7371
562	0.5881
553	0.7983
544	0.8285
535	0.8294
526	0.8418
517	0.8921
508	0.9007
499	0.9085
490	0.7778
481	0.7356
472	0.9032
463	0.8768
454	0.9408
445	0.9452
436	0.9421
427	0.9327
418	0.9152
409	0.8799
400	0.8656
391	0.8559
382	0.8525
