Infrared Spectrum: 1-Hepten-4-ol
Formula: C 7 H 14 O
CAS: 3521-91-3
State: gas
Instrument: HP-GC/MS/IRD
Origin: NIST Mass Spectrometry Data Center
1/CM	ABSORBANCE
550	0.0005805
562	7.95e-05
574	0.000297
586	0.000288
598	0.000231
610	0.000471
622	0.000585
634	0.0008835
646	0.000744
658	0.000588
670	0.0004185
682	0.000261
694	0.000255
706	0.0003705
718	0.000288
730	0.000306
742	0.0004005
754	0.000435
766	0.000357
778	0.0002475
790	0.0002235
802	0.000282
814	0.0004995
826	0.000765
838	0.0012765
850	0.001545
862	0.0015915
874	0.0016365
886	0.001743
898	0.0024015
910	0.004275
922	0.0048315
934	0.003042
946	0.002076
958	0.0019755
970	0.002247
982	0.003501
994	0.005304
1006	0.0061635
1018	0.0059355
1030	0.0046845
1042	0.0032085
1054	0.0028815
1066	0.0028905
1078	0.002961
1090	0.002799
1102	0.0027945
1114	0.0030255
1126	0.0029955
1138	0.0024045
1150	0.001713
1162	0.001311
1174	0.001254
1186	0.001503
1198	0.001881
1210	0.0021375
1222	0.0021645
1234	0.002064
1246	0.0021105
1258	0.002142
1270	0.0021765
1282	0.0020805
1294	0.001791
1306	0.001542
1318	0.0014115
1330	0.001497
1342	0.0018135
1354	0.0022425
1366	0.0026955
1378	0.0028785
1390	0.0027255
1402	0.002139
1414	0.001797
1426	0.001935
1438	0.0023805
1450	0.002343
1462	0.002043
1474	0.0015255
1486	0.0008925
1498	0.000558
1510	0.0003615
1522	0.000327
1534	0.0003105
1546	0.0002745
1558	0.0002475
1570	0.0001965
1582	0.0002145
1594	0.00021
1606	0.000279
1618	0.0005265
1630	0.0012945
1642	0.0017355
1654	0.0009315
1666	0.000285
1678	0.000144
1690	0.000111
1702	0.0001215
1714	0.0001125
1726	0.0001335
1738	0.000147
1750	0.0001185
1762	8.1e-05
1774	7.05e-05
1786	7.2e-05
1798	9.3e-05
1810	0.0001365
1822	0.000273
1834	0.0004815
1846	0.0004635
1858	0.000234
1870	0.0001215
1882	7.8e-05
1894	5.25e-05
1906	5.25e-05
1918	3.45e-05
1930	2.55e-05
1942	6.3e-05
1954	4.35e-05
1966	6e-05
1978	8.85e-05
1990	7.95e-05
2002	5.25e-05
2014	5.4e-05
2026	4.8e-05
2038	2.85e-05
2050	4.65e-05
2062	4.95e-05
2074	5.25e-05
2086	5.85e-05
2098	6.3e-05
2110	4.2e-05
2122	3.6e-05
2134	4.05e-05
2146	3.45e-05
2158	5.1e-05
2170	6.6e-05
2182	5.1e-05
2194	7.8e-05
2206	4.95e-05
2218	5.4e-05
2230	9e-05
2242	4.5e-05
2254	6.9e-05
2266	3.75e-05
2278	7.05e-05
2290	6.45e-05
2302	6.6e-05
2314	7.2e-05
2326	6.15e-05
2338	7.5e-05
2350	6.3e-05
2362	7.5e-05
2374	8.25e-05
2386	8.25e-05
2398	9.3e-05
2410	9e-05
2422	6.6e-05
2434	6.6e-05
2446	4.8e-05
2458	5.7e-05
2470	3.15e-05
2482	5.55e-05
2494	9.3e-05
2506	6.6e-05
2518	6.3e-05
2530	8.85e-05
2542	9.9e-05
2554	7.65e-05
2566	0.000117
2578	9.45e-05
2590	0.0001305
2602	0.000123
2614	0.0001545
2626	0.0001575
2638	0.000189
2650	0.000213
2662	0.000264
2674	0.0002925
2686	0.0003345
2698	0.0003465
2710	0.0003225
2722	0.000366
2734	0.0004035
2746	0.0004605
2758	0.00048
2770	0.0004935
2782	0.0005925
2794	0.000672
2806	0.000861
2818	0.0011385
2830	0.001686
2842	0.0026715
2854	0.003942
2866	0.005679
2878	0.007827
2890	0.008205
2902	0.00831
2914	0.0106635
2926	0.0136605
2938	0.015
2950	0.012993
2962	0.012891
2974	0.012054
2986	0.0069585
2998	0.0039165
3010	0.0027915
3022	0.0020385
3034	0.0014205
3046	0.0012465
3058	0.001356
3070	0.001944
3082	0.0030885
3094	0.0025185
3106	0.0009375
3118	0.0004635
3130	0.0003105
3142	0.0002775
3154	0.000234
3166	0.000192
3178	0.0001875
3190	0.000141
3202	0.0001305
3214	7.35e-05
3226	7.65e-05
3238	3.15e-05
3250	5.85e-05
3262	6.9e-05
3274	0.000111
3286	8.1e-05
3298	9.6e-05
3310	3.9e-05
3322	3e-05
3334	8.7e-05
3346	7.95e-05
3358	8.55e-05
3370	0.0001125
3382	0.0001185
3394	9.15e-05
3406	9e-05
3418	0.000117
3430	0.000123
3442	4.35e-05
3454	0.0001185
3466	9.3e-05
3478	0.0001005
3490	0.0001395
3502	6.6e-05
3514	0.0001335
3526	8.4e-05
3538	9.6e-05
3550	0.000132
3562	0.0001125
3574	0.000141
3586	0.0002385
3598	0.0003525
3610	0.000762
3622	0.0011535
3634	0.001263
3646	0.0013935
3658	0.001299
3670	0.0007935
3682	0.0003315
3694	0.0002295
3706	0.000189
3718	0.000156
3730	0.000114
3742	0.000159
3754	0.000123
3766	0.0001065
3778	0.000138
3790	0.0001125
3802	0.000156
3814	0.000165
3826	0.000171
3838	0.0001365
