Infrared Spectrum: 2,6-Dinitrobenzonitrile
Formula: C 7 H 3 N 3 O 4
CAS: 35213-00-4
State: gas
Origin: EPA-IR VAPOR PHASE LIBRARY
1/CM	ABSORBANCE
549.8	0.00321
559.445	0.0022666
569.09	0.0021099
578.734	0.0023575
588.379	0.00267
598.024	0.0016101
607.669	0.00249
617.313	0.0017064
626.958	0.0013311
636.603	0.0017887
646.248	0.00268
655.893	0.00150446
665.537	0.00147636
675.182	0.0021112
684.827	0.00357
694.472	0.00368
704.116	0.00822
713.761	0.0115
723.406	0.00947
733.051	0.01123
742.695	0.01286
752.34	0.00783
761.985	0.00395
771.63	0.00304
781.275	0.0022194
790.919	0.00275
800.564	0.00286
810.209	0.00391
819.854	0.00654
829.498	0.00597
839.143	0.00515
848.788	0.00257
858.433	0.0023804
868.078	0.00141468
877.722	0.00241
887.367	0.00292
897.012	0.00423
906.657	0.00663
916.301	0.00564
925.946	0.00269
935.591	0.0015637
945.236	0.001167
954.88	0.000914
964.525	0.0015775
974.17	0.0013806
983.815	0.0015352
993.46	0.0017833
1003.1	0.0022455
1012.75	0.001241
1022.39	0.000807
1032.04	0.0015644
1041.68	0.0022265
1051.33	0.0018646
1060.97	0.0021556
1070.62	0.00248
1080.26	0.0017662
1089.91	0.0016909
1099.55	0.0018615
1109.2	0.001123
1118.84	0.00299
1128.49	0.00243
1138.13	0.0023975
1147.78	0.0022504
1157.42	0.00247
1167.07	0.0018149
1176.71	0.002138
1186.36	0.00278
1196	0.0020485
1205.64	0.00493
1215.29	0.00431
1224.93	0.00487
1234.58	0.0039
1244.22	0.00267
1253.87	0.00367
1263.51	0.00332
1273.16	0.00387
1282.8	0.004
1292.45	0.00411
1302.09	0.0047
1311.74	0.00561
1321.38	0.00926
1331.03	0.0216
1340.67	0.04362
1350.32	0.03708
1359.96	0.01299
1369.61	0.00584
1379.25	0.00422
1388.9	0.00364
1398.54	0.00349
1408.18	0.00322
1417.83	0.00289
1427.47	0.00252
1437.12	0.0027
1446.76	0.0029
1456.41	0.00296
1466.05	0.00279
1475.7	0.00284
1485.34	0.00277
1494.99	0.00384
1504.63	0.00534
1514.28	0.00802
1523.92	0.01132
1533.57	0.01722
1543.21	0.02809
1552.86	0.04654
1562.5	0.05795
1572.15	0.04368
1581.79	0.03087
1591.44	0.02033
1601.08	0.01311
1610.73	0.00973
1620.37	0.00751
1630.01	0.00512
1639.66	0.00384
1649.3	0.00313
1658.95	0.00274
1668.59	0.00244
1678.24	0.0023579
1687.88	0.0021861
1697.53	0.0021649
1707.17	0.0022426
1716.82	0.002088
1726.46	0.00262
1736.11	0.0020243
1745.75	0.0022312
1755.4	0.0023498
1765.04	0.0017902
1774.69	0.0018292
1784.33	0.0017656
1793.98	0.0018262
1803.62	0.0017472
1813.27	0.0019653
1822.91	0.0014892
1832.55	0.0018199
1842.2	0.0019065
1851.84	0.0018366
1861.49	0.001749
1871.13	0.0017531
1880.78	0.0016769
1890.42	0.0019192
1900.07	0.0018932
1909.71	0.0020708
1919.36	0.001688
1929	0.001516
1938.65	0.0016041
1948.29	0.0015731
1957.94	0.0019062
1967.58	0.0020269
1977.23	0.0019
1986.87	0.0016198
1996.52	0.0015777
2006.16	0.0015928
2015.81	0.0016719
2025.45	0.001395
2035.1	0.0016196
2044.74	0.0015481
2054.38	0.001551
2064.03	0.0016131
2073.67	0.0016563
2083.32	0.0015518
2092.96	0.0013817
2102.61	0.00145627
2112.25	0.0013838
2121.9	0.0013189
2131.54	0.0013969
2141.19	0.0016145
2150.83	0.00146092
2160.48	0.0013545
2170.12	0.0013721
2179.77	0.00147745
2189.41	0.0015138
2199.06	0.0013217
2208.7	0.0013426
2218.35	0.0015878
2227.99	0.0018674
2237.64	0.0020127
2247.28	0.0020457
2256.92	0.00146418
2266.57	0.0016919
2276.21	0.001199
2285.86	0.0013207
2295.5	0.001252
2305.15	0.00141719
2314.79	0.001079
2324.44	0.0013957
2334.08	0.00113
2343.73	0.001643
2353.37	0.0015994
2363.02	0.0020867
2372.66	0.0018362
2382.31	0.0019007
2391.95	0.0015948
2401.6	0.0022418
2411.24	0.0017107
2420.89	0.001584
2430.53	0.0013155
2440.18	0.00138
2449.82	0.00144981
2459.47	0.0017403
2469.11	0.0016995
2478.75	0.0017857
2488.4	0.0016898
2498.04	0.0015313
2507.69	0.0015104
2517.33	0.001292
2526.98	0.0015338
2536.62	0.0017414
2546.27	0.0013738
2555.91	0.0013247
2565.56	0.001212
2575.2	0.00141363
2584.85	0.0017659
2594.49	0.0016548
2604.14	0.0013813
2613.78	0.00149316
2623.43	0.00146262
2633.07	0.00144102
2642.72	0.0016591
2652.36	0.0019234
2662.01	0.001329
2671.65	0.0017476
2681.29	0.0022118
2690.94	0.0016634
2700.58	0.0017481
2710.23	0.0016391
2719.87	0.0015524
2729.52	0.0015396
2739.16	0.0015423
2748.81	0.0017715
2758.45	0.0020943
2768.1	0.00145655
2777.74	0.00145732
2787.39	0.0017507
2797.03	0.00147285
2806.68	0.0016887
2816.32	0.0016897
2825.97	0.001189
2835.61	0.00140309
2845.26	0.0016054
2854.9	0.0018688
2864.55	0.0017792
2874.19	0.0019141
2883.84	0.00241
2893.48	0.00286
2903.12	0.0023604
2912.77	0.00248
2922.41	0.0019575
2932.06	0.0020655
2941.7	0.0018025
2951.35	0.0019618
2960.99	0.001523
2970.64	0.001056
2980.28	0.0015838
2989.93	0.0015906
2999.57	0.001592
3009.22	0.001806
3018.86	0.00129
3028.51	0.0020671
3038.15	0.0015543
3047.8	0.0018468
3057.44	0.0019646
3067.09	0.00148045
3076.73	0.0016194
3086.38	0.002098
3096.02	0.00242
3105.67	0.0022989
3115.31	0.0015872
3124.95	0.001231
3134.6	0.0015551
3144.24	0.00142152
3153.89	0.001396
3163.53	0.001171
3173.18	0.001263
3182.82	0.0016944
3192.47	0.001011
3202.11	0.000956
3211.76	0.001097
3221.4	0.000974
3231.05	0.00147725
3240.69	0.0016457
3250.34	0.0016338
3259.98	0.00149774
3269.63	0.001062
3279.27	0.00147509
3288.92	0.0013861
3298.56	0.0014131
3308.21	0.000797
3317.85	0.0013911
3327.49	0.001079
3337.14	0.001624
3346.78	0.0013431
3356.43	0.0013973
3366.07	0.001071
3375.72	0.000743
3385.36	0.0014791
3395.01	0.0017271
3404.65	0.001518
3414.3	0.0017269
3423.94	0.001065
3433.59	0.00146233
3443.23	0.0016147
3452.88	0.001149
3462.52	0.0018305
3472.17	0.00127
3481.81	0.0015868
3491.46	0.001584
3501.1	0.0017009
3510.75	0.00148979
3520.39	0.001889
3530.04	0.0016374
3539.68	0.0017633
3549.32	0.001078
3558.97	0.0017192
3568.61	0.0014551
3578.26	0.0015384
3587.9	0.001292
3597.55	0.001151
3607.19	0.0015854
3616.84	0.001009
3626.48	0.001273
3636.13	0.0017096
3645.77	0.0020704
3655.42	0.00140273
3665.06	0.0013125
3674.71	0.0013673
3684.35	0.000595
3694	0.000915
3703.64	0.001188
3713.29	0.00044
3722.93	0.001095
3732.58	0.0016833
3742.22	0.00091
3751.86	0.0020066
3761.51	0.0020351
3771.15	0.0018781
3780.8	0.001291
3790.44	0.00244
3800.09	0.0002
3809.73	0.001106
3819.38	0.0014201
3829.02	0.001036
3838.67	0.000641
3848.31	0.00147398
3857.96	0.0020308
3867.6	0.00112
3877.25	0.0023104
3886.89	0.000789
3896.54	0.0013638
3906.18	0.0013674
3915.83	0.000958
3925.47	0.0022822
3935.12	0.00142424
3944.76	0.00141499
3954.41	0.001549
3964.05	0.0012
3973.69	0.0016154
3983.34	0.001049
3992.98	0.001014
