Infrared Spectrum: 7-Tetradecyne
Formula: C 14 H 26
CAS: 35216-11-6
State: gas
Instrument: HP-GC/MS/IRD
Origin: NIST Mass Spectrometry Data Center
1/CM	ABSORBANCE
550	0.0006204
562	0.0002838
574	0.0002046
586	0.0001254
598	0
610	3.96e-05
622	0.0001188
634	6.6e-05
646	0.0001716
658	0.0001452
670	0.0001056
682	0.0001452
694	0.0002046
706	0.0004224
718	0.0008646
730	0.0010362
742	0.0007326
754	0.0004752
766	0.0004092
778	0.0003366
790	0.0002706
802	0.0002046
814	0.0002112
826	0.0002574
838	0.0002112
850	0.000231
862	0.0002706
874	0.0003036
886	0.0003102
898	0.000231
910	0.0002046
922	0.000231
934	0.0002178
946	0.0002178
958	0.0002244
970	0.000231
982	0.0003102
994	0.0003234
1006	0.00033
1018	0.0003168
1030	0.0002838
1042	0.0003036
1054	0.0002442
1066	0.0002178
1078	0.0002244
1090	0.0002904
1102	0.000396
1114	0.0004818
1126	0.0002046
1138	0.0001716
1150	0.0001914
1162	0.0002178
1174	0.0002706
1186	0.0003564
1198	0.0003894
1210	0.0004158
1222	0.000429
1234	0.000396
1246	0.0004818
1258	0.0007326
1270	0.0010692
1282	0.0011682
1294	0.0014256
1306	0.001914
1318	0.0026202
1330	0.0045606
1342	0.003762
1354	0.0030954
1366	0.002244
1378	0.002046
1390	0.001749
1402	0.0011814
1414	0.0012606
1426	0.0019668
1438	0.0044352
1450	0.0051876
1462	0.0055836
1474	0.0039072
1486	0.001848
1498	0.0010098
1510	0.0006732
1522	0.0005016
1534	0.0003696
1546	0.0002904
1558	0.0002244
1570	0.0002376
1582	0.0002046
1594	0.0001716
1606	0.0001716
1618	0.0001386
1630	0.0001122
1642	0.0001122
1654	9.24e-05
1666	7.92e-05
1678	7.92e-05
1690	7.92e-05
1702	5.94e-05
1714	2.64e-05
1726	2.64e-05
1738	6.6e-06
1750	1.32e-05
1762	6.6e-06
1774	1.98e-05
1786	1.32e-05
1798	1.32e-05
1810	2.64e-05
1822	3.3e-05
1834	2.64e-05
1846	3.3e-05
1858	1.98e-05
1870	1.98e-05
1882	1.32e-05
1894	6.6e-06
1906	2.64e-05
1918	0
1930	1.32e-05
1942	3.96e-05
1954	6.6e-06
1966	0
1978	6.6e-06
1990	6.6e-06
2002	4.62e-05
2014	7.26e-05
2026	9.9e-05
2038	7.92e-05
2050	7.26e-05
2062	3.96e-05
2074	3.96e-05
2086	1.32e-05
2098	3.3e-05
2110	2.64e-05
2122	5.28e-05
2134	5.94e-05
2146	3.96e-05
2158	5.28e-05
2170	5.28e-05
2182	4.62e-05
2194	5.28e-05
2206	4.62e-05
2218	6.6e-05
2230	2.64e-05
2242	5.28e-05
2254	4.62e-05
2266	3.96e-05
2278	4.62e-05
2290	5.28e-05
2302	4.62e-05
2314	5.28e-05
2326	4.62e-05
2338	4.62e-05
2350	3.3e-05
2362	3.3e-05
2374	7.26e-05
2386	3.96e-05
2398	3.3e-05
2410	3.3e-05
2422	5.94e-05
2434	3.96e-05
2446	1.32e-05
2458	3.96e-05
2470	1.32e-05
2482	6.6e-06
2494	1.32e-05
2506	3.96e-05
2518	3.96e-05
2530	6.6e-05
2542	0.0001056
2554	0.0001452
2566	0.0001914
2578	0.0002508
2590	0.0002244
2602	0.0002442
2614	0.0002772
2626	0.0003564
2638	0.0004554
2650	0.0005346
2662	0.0005742
2674	0.0006072
2686	0.0006006
2698	0.0005544
2710	0.0005346
2722	0.0005742
2734	0.0007062
2746	0.0007986
2758	0.0008778
2770	0.0010032
2782	0.0011748
2794	0.0014916
2806	0.00198
2818	0.002772
2830	0.004125
2842	0.0075702
2854	0.0156816
2866	0.02343
2878	0.0210078
2890	0.0179652
2902	0.0203346
2914	0.0313962
2926	0.0505956
2938	0.066
2950	0.0447876
2962	0.0336402
2974	0.0255882
2986	0.0108702
2998	0.005775
3010	0.0037356
3022	0.002607
3034	0.0019602
3046	0.0015246
3058	0.0012672
3070	0.001056
3082	0.000891
3094	0.0008118
3106	0.0006798
3118	0.0005742
3130	0.000495
3142	0.0004554
3154	0.000429
3166	0.0003762
3178	0.0003696
3190	0.0003036
3202	0.000297
3214	0.0002046
3226	0.0001914
3238	0.000132
3250	0.0001122
3262	0.0001122
3274	0.0001056
3286	9.9e-05
3298	7.26e-05
3310	7.26e-05
3322	9.24e-05
3334	0.0001254
3346	0.0001188
3358	8.58e-05
3370	9.24e-05
3382	5.28e-05
3394	5.94e-05
3406	8.58e-05
3418	8.58e-05
3430	8.58e-05
3442	0.0001254
3454	8.58e-05
3466	3.3e-05
3478	5.94e-05
3490	1.98e-05
3502	3.3e-05
3514	2.64e-05
3526	3.96e-05
3538	1.98e-05
3550	3.96e-05
3562	4.62e-05
3574	4.62e-05
3586	5.94e-05
3598	6.6e-05
3610	0.0001254
3622	0.0001386
3634	0.0001122
3646	0.0001122
3658	0.0001056
3670	0.0001254
3682	0.0001518
3694	0.0001584
3706	0.0001188
3718	0.0001584
3730	0.0001848
3742	0.0001782
3754	0.000132
3766	0.0001452
3778	0.0001386
3790	0.0001188
3802	0.0002046
3814	0.0001386
3826	0.0001782
3838	0.0001716
