Infrared Spectrum: 2,5-SECO-A,A-DINOR-5Beta-ANDROSTANE-2,5,17Beta-TRIOL
Formula: C17 H30 O3
CAS: 3523-67-9
State: SOLID (KBr DISC)
Class: COBLENTZ III
Instrument: PERKIN-ELMER 21 (GRATING)
Sampling: TRANSMISSION
Resolution: 2
Origin: THE SQUIBB INSTITUTE FOR MEDICAL RESEARCH
MICROMETERS	TRANSMITTANCE
1.986	1
2.01887	1.001
2.05175	1.001
2.08462	1.001
2.1175	1.001
2.15037	1.001
2.18325	1.001
2.21612	1.001
2.249	1.001
2.28187	1.001
2.31475	1.001
2.34762	1.001
2.3805	1
2.41337	1
2.44625	1
2.47912	1
2.512	1
2.54487	1
2.57775	1
2.61062	1
2.64349	1
2.67637	1
2.70924	1
2.74212	1
2.77499	1
2.80787	0.927
2.84074	0.817
2.87362	0.644
2.90649	0.476
2.93937	0.334
2.97224	0.183
3.00512	0.098
3.03799	0.065
3.07087	0.047
3.10374	0.046
3.13662	0.047
3.16949	0.085
3.20237	0.175
3.23524	0.349
3.26812	0.492
3.30099	0.6
3.33386	0.642
3.36674	0.502
3.39961	0.183
3.43249	0.143
3.46536	0.143
3.49824	0.161
3.53111	0.185
3.56399	0.469
3.59686	0.628
3.62974	0.7
3.66261	0.716
3.69549	0.73
3.72836	0.764
3.76124	0.808
3.79411	0.839
3.82699	0.861
3.85986	0.89
3.89274	0.902
3.92561	0.918
3.95848	0.929
3.99136	0.938
4.02423	0.946
4.05711	0.953
4.08998	0.961
4.12286	0.969
4.15573	0.973
4.18861	0.975
4.22148	0.977
4.25436	0.977
4.28723	0.978
4.32011	0.978
4.35298	0.982
4.38586	0.988
4.41873	0.992
4.45161	0.998
4.48448	1.002
4.51736	1.003
4.55023	1.005
4.58311	1.005
4.61598	1.003
4.64885	1.002
4.68173	1.002
4.7146	1.002
4.74748	1.001
4.78035	1.001
4.81323	1
4.8461	0.997
4.87898	0.996
4.91185	0.996
4.94473	0.996
4.9776	0.997
5.01048	0.998
5.04335	1
5.07623	1
5.1091	1
5.14198	1
5.17485	1.001
5.20773	1.001
5.2406	1.002
5.27347	1.002
5.30635	1.002
5.33922	1.002
5.3721	1.002
5.40497	1.002
5.43785	1.002
5.47072	1.001
5.5036	1.001
5.53647	1.001
5.56935	1
5.60222	0.998
5.6351	0.997
5.66797	0.995
5.70085	0.994
5.73372	0.989
5.7666	0.985
5.79947	0.982
5.83235	0.978
5.86522	0.977
5.89809	0.973
5.93097	0.969
5.96384	0.964
5.99672	0.957
6.02959	0.947
6.06247	0.938
6.09534	0.929
6.12822	0.922
6.16109	0.918
6.19397	0.923
6.22684	0.932
6.25972	0.941
6.29259	0.943
6.32547	0.943
6.35834	0.941
6.39122	0.938
6.42409	0.935
6.45697	0.929
6.48984	0.923
6.52272	0.915
6.55559	0.905
6.58846	0.888
6.62134	0.872
6.65421	0.849
6.68709	0.814
6.71996	0.743
6.75284	0.68
6.78571	0.629
6.81859	0.571
6.85146	0.538
6.88434	0.505
6.91721	0.391
6.95009	0.371
6.98296	0.432
7.01584	0.478
7.04871	0.466
7.08159	0.409
7.11446	0.402
7.14734	0.463
7.18021	0.493
7.21308	0.478
7.24596	0.44
7.27883	0.418
7.31171	0.483
7.34458	0.585
7.37746	0.483
7.41033	0.366
7.44321	0.36
7.47608	0.408
7.50896	0.522
7.54183	0.616
7.57471	0.708
7.60758	0.712
7.64046	0.711
7.67333	0.686
7.70621	0.67
7.73908	0.66
7.77196	0.661
7.80483	0.65
7.83771	0.589
7.87058	0.588
7.90345	0.615
7.93633	0.619
7.9692	0.659
8.00208	0.699
8.03495	0.688
8.06783	0.723
8.1007	0.748
8.13358	0.809
8.16645	0.839
8.19933	0.842
8.2322	0.817
8.26508	0.826
8.29795	0.847
8.33083	0.863
8.3637	0.873
8.39658	0.881
8.42945	0.89
8.46233	0.892
8.4952	0.894
8.52807	0.895
8.56095	0.894
8.59382	0.888
8.6267	0.873
8.65957	0.861
8.69245	0.824
8.72532	0.665
8.7582	0.484
8.79107	0.332
8.82395	0.403
8.85682	0.585
8.8897	0.68
8.92257	0.727
8.95545	0.73
8.98832	0.719
9.0212	0.721
9.05407	0.722
9.08695	0.712
9.11982	0.653
9.15269	0.502
9.18557	0.28
9.21844	0.274
9.25132	0.461
9.28419	0.604
9.31707	0.65
9.34994	0.631
9.38282	0.55
9.41569	0.502
9.44857	0.422
9.48144	0.253
9.51432	0.157
9.54719	0.09
9.58007	0.059
9.61294	0.061
9.64582	0.111
9.67869	0.119
9.71157	0.099
9.74444	0.09
9.77732	0.182
9.81019	0.209
9.84306	0.242
9.87594	0.279
9.90881	0.387
9.94169	0.57
9.97456	0.651
10.0074	0.654
10.0403	0.587
10.0732	0.588
10.1061	0.639
10.1389	0.746
10.1718	0.807
10.2047	0.812
10.2376	0.803
10.2704	0.838
10.3033	0.872
10.3362	0.901
10.3691	0.906
10.4019	0.888
10.4348	0.807
10.4677	0.749
10.5006	0.784
10.5334	0.845
10.5663	0.858
10.5992	0.853
10.6321	0.846
10.6649	0.832
10.6978	0.792
10.7307	0.746
10.7636	0.76
10.7964	0.788
10.8293	0.803
10.8622	0.845
10.8951	0.881
10.9279	0.906
10.9608	0.912
10.9937	0.888
11.0266	0.846
11.0594	0.839
11.0923	0.874
11.1252	0.909
11.1581	0.92
11.1909	0.927
11.2238	0.927
11.2567	0.915
11.2896	0.871
11.3224	0.816
11.3553	0.803
11.3882	0.824
11.4211	0.866
11.4539	0.884
11.4868	0.895
11.5197	0.9
11.5526	0.9
11.5854	0.898
11.6183	0.885
11.6512	0.858
11.6841	0.821
11.7169	0.812
11.7498	0.815
11.7827	0.829
11.8155	0.838
11.8484	0.84
11.8813	0.84
11.9142	0.835
11.947	0.822
11.9799	0.803
12.0128	0.778
12.0457	0.743
12.0785	0.714
12.1114	0.712
12.1443	0.727
12.1772	0.741
12.21	0.743
12.2429	0.743
12.2758	0.742
12.3087	0.741
12.3415	0.739
12.3744	0.735
12.4073	0.727
12.4402	0.719
12.473	0.709
12.5059	0.704
12.5388	0.701
12.5717	0.697
12.6045	0.694
12.6374	0.693
12.6703	0.693
12.7032	0.693
12.736	0.693
12.7689	0.694
12.8018	0.698
12.8347	0.701
12.8675	0.702
12.9004	0.699
12.9333	0.693
12.9662	0.697
12.999	0.705
13.0319	0.718
13.0648	0.727
13.0977	0.735
13.1305	0.743
13.1634	0.753
13.1963	0.759
13.2292	0.764
13.262	0.771
13.2949	0.777
13.3278	0.782
13.3607	0.782
13.3935	0.777
13.4264	0.771
13.4593	0.764
13.4922	0.76
13.525	0.76
13.5579	0.759
13.5908	0.757
13.6237	0.757
13.6565	0.757
13.6894	0.757
13.7223	0.757
13.7552	0.757
13.788	0.757
13.8209	0.757
13.8538	0.757
13.8867	0.759
13.9195	0.759
13.9524	0.759
13.9853	0.759
14.0182	0.76
14.051	0.76
14.0839	0.76
14.1168	0.76
14.1497	0.76
14.1825	0.76
14.2154	0.76
14.2483	0.76
14.2812	0.76
14.314	0.759
14.3469	0.756
14.3798	0.759
14.4127	0.757
14.4455	0.757
14.4784	0.755
14.5113	0.754
14.5442	0.754
14.577	0.75
14.6099	0.749
14.6428	0.748
14.6757	0.746
14.7085	0.743
14.7414	0.742
14.7743	0.742
14.8072	0.742
14.84	0.742
14.8729	0.742
14.9058	0.741
14.9387	0.739
14.9715	0.741
15.0044	0.745
