Infrared Spectrum: 5-Amino-1,3-dimethylpyrazole
Formula: C 5 H 9 N 3
CAS: 3524-32-1
State: gas
Origin: EPA-IR VAPOR PHASE LIBRARY
1/CM	ABSORBANCE
549.8	0.011708
559.445	0.012418
569.09	0.015558
578.734	0.020098
588.379	0.021898
598.024	0.020658
607.669	0.016778
617.313	0.017468
626.958	0.017748
636.603	0.018268
646.248	0.020658
655.893	0.020438
665.537	0.017118
675.182	0.012148
684.827	0.010468
694.472	0.010688
704.116	0.010548
713.761	0.011668
723.406	0.015528
733.051	0.022718
742.695	0.031628
752.34	0.032138
761.985	0.023968
771.63	0.016638
781.275	0.011528
790.919	0.009308
800.564	0.008218
810.209	0.007218
819.854	0.006158
829.498	0.005358
839.143	0.004878
848.788	0.004658
858.433	0.004178
868.078	0.003998
877.722	0.003598
887.367	0.003568
897.012	0.003358
906.657	0.003078
916.301	0.003368
925.946	0.003228
935.591	0.003598
945.236	0.003558
954.88	0.004458
964.525	0.005438
974.17	0.006988
983.815	0.010828
993.46	0.013148
1003.1	0.012338
1012.75	0.009218
1022.39	0.005698
1032.04	0.004128
1041.68	0.004018
1051.33	0.004118
1060.97	0.003478
1070.62	0.003438
1080.26	0.004278
1089.91	0.003808
1099.55	0.003888
1109.2	0.003828
1118.84	0.002998
1128.49	0.003708
1138.13	0.004398
1147.78	0.006168
1157.42	0.006808
1167.07	0.007008
1176.71	0.004558
1186.36	0.003758
1196	0.004038
1205.64	0.005758
1215.29	0.005528
1224.93	0.006698
1234.58	0.006768
1244.22	0.006668
1253.87	0.008038
1263.51	0.010198
1273.16	0.011848
1282.8	0.011338
1292.45	0.009388
1302.09	0.006968
1311.74	0.006138
1321.38	0.006168
1331.03	0.006498
1340.67	0.007358
1350.32	0.009688
1359.96	0.014468
1369.61	0.019238
1379.25	0.027668
1388.9	0.034108
1398.54	0.034778
1408.18	0.027098
1417.83	0.020318
1427.47	0.018808
1437.12	0.016808
1446.76	0.019138
1456.41	0.022818
1466.05	0.027298
1475.7	0.030518
1485.34	0.033188
1494.99	0.035358
1504.63	0.035428
1514.28	0.034198
1523.92	0.032458
1533.57	0.034728
1543.21	0.053518
1552.86	0.079698
1562.5	0.079868
1572.15	0.056068
1581.79	0.029158
1591.44	0.022168
1601.08	0.025808
1610.73	0.034538
1620.37	0.036908
1630.01	0.030248
1639.66	0.018288
1649.3	0.010838
1658.95	0.007328
1668.59	0.005428
1678.24	0.004348
1687.88	0.003478
1697.53	0.003148
1707.17	0.002778
1716.82	0.002568
1726.46	0.002448
1736.11	0.002708
1745.75	0.002638
1755.4	0.002398
1765.04	0.001958
1774.69	0.001668
1784.33	0.001578
1793.98	0.001478
1803.62	0.001648
1813.27	0.001488
1822.91	0.001438
1832.55	0.001278
1842.2	0.001178
1851.84	0.001124
1861.49	0.0010262
1871.13	0.0009538
1880.78	0.0008412
1890.42	0.0007952
1900.07	0.0007675
1909.71	0.0008237
1919.36	0.0008227
1929	0.0008796
1938.65	0.0007942
1948.29	0.000888
1957.94	0.0010312
1967.58	0.0009429
1977.23	0.0008933
1986.87	0.000707
1996.52	0.0005946
2006.16	0.0007757
2015.81	0.0006052
2025.45	0.0006537
2035.1	0.000552
2044.74	0.0007196
2054.38	0.0006961
2064.03	0.000646
2073.67	0.0006951
2083.32	0.0007092
2092.96	0.000751
2102.61	0.0009282
2112.25	0.0009119
2121.9	0.0008474
2131.54	0.0010987
2141.19	0.0010769
2150.83	0.0010637
2160.48	0.0010162
2170.12	0.0007664
2179.77	0.0006921
2189.41	0.0005811
2199.06	0.0007246
2208.7	0.000837
2218.35	0.0007753
2227.99	0.000749
2237.64	0.000795
2247.28	0.000777
2256.92	0.0007388
2266.57	0.0007587
2276.21	0.0008029
2285.86	0.000834
2295.5	0.000809
2305.15	0.0008069
2314.79	0.0007712
2324.44	0.0006501
2334.08	0.000749
2343.73	0.0005187
2353.37	0.0005539
2363.02	0.0006948
2372.66	0.0006232
2382.31	0.000683
2391.95	0.0006625
2401.6	0.0006211
2411.24	0.0005838
2420.89	0.0005541
2430.53	0.0007544
2440.18	0.0005987
2449.82	0.0005654
2459.47	0.0007334
2469.11	0.0007683
2478.75	0.0006893
2488.4	0.0008343
2498.04	0.0005735
2507.69	0.0007857
2517.33	0.0007467
2526.98	0.0007416
2536.62	0.0007838
2546.27	0.0007304
2555.91	0.0008569
2565.56	0.0007442
2575.2	0.0008307
2584.85	0.0007162
2594.49	0.0007489
2604.14	0.0008015
2613.78	0.0007952
2623.43	0.000855
2633.07	0.0009378
2642.72	0.000849
2652.36	0.0009485
2662.01	0.0007699
2671.65	0.0008901
2681.29	0.0009254
2690.94	0.0009967
2700.58	0.0010439
2710.23	0.001208
2719.87	0.001188
2729.52	0.001468
2739.16	0.001608
2748.81	0.001718
2758.45	0.001728
2768.1	0.002188
2777.74	0.002568
2787.39	0.003208
2797.03	0.003878
2806.68	0.004468
2816.32	0.005128
2825.97	0.005468
2835.61	0.005878
2845.26	0.005838
2854.9	0.006788
2864.55	0.009638
2874.19	0.013078
2883.84	0.016238
2893.48	0.017838
2903.12	0.018608
2912.77	0.020938
2922.41	0.029758
2932.06	0.041098
2941.7	0.045658
2951.35	0.039458
2960.99	0.029508
2970.64	0.019598
2980.28	0.013628
2989.93	0.010388
2999.57	0.008438
3009.22	0.007498
3018.86	0.007408
3028.51	0.007748
3038.15	0.008308
3047.8	0.007718
3057.44	0.006218
3067.09	0.005518
3076.73	0.004698
3086.38	0.003818
3096.02	0.003588
3105.67	0.003168
3115.31	0.003388
3124.95	0.003148
3134.6	0.002538
3144.24	0.001808
3153.89	0.001148
3163.53	0.0008824
3173.18	0.0005703
3182.82	0.0007321
3192.47	0.0006859
3202.11	0.0006045
3211.76	0.0008465
3221.4	0.0009788
3231.05	0.0007248
3240.69	0.0009183
3250.34	0.0005938
3259.98	0.0005733
3269.63	0.0006656
3279.27	0.0006547
3288.92	0.000792
3298.56	0.0011018
3308.21	0.0008338
3317.85	0.001238
3327.49	0.001228
3337.14	0.001188
3346.78	0.001358
3356.43	0.001768
3366.07	0.002718
3375.72	0.004218
3385.36	0.004708
3395.01	0.003958
3404.65	0.002548
3414.3	0.001948
3423.94	0.001878
3433.59	0.002258
3443.23	0.002848
3452.88	0.003798
3462.52	0.003718
3472.17	0.003508
3481.81	0.003198
3491.46	0.002528
3501.1	0.002218
3510.75	0.002118
3520.39	0.001408
3530.04	0.001728
3539.68	0.001138
3549.32	0.0010656
3558.97	0.001198
3568.61	0.001198
3578.26	0.0009069
3587.9	0.0008667
3597.55	0.001138
3607.19	0.0008765
3616.84	0.000853
3626.48	0.0005249
3636.13	0.0005584
3645.77	0.0003761
3655.42	0.0003407
3665.06	0.0001153
3674.71	0.0002407
3684.35	0.0002718
3694	0.0003345
3703.64	0.000466
3713.29	0.0003252
3722.93	0.00013392
3732.58	0.0004211
3742.22	0.00018547
3751.86	0.00016702
3761.51	0.0003505
3771.15	0.0004352
3780.8	5.48e-05
3790.44	0.00023099
3800.09	0.0003515
3809.73	0.00017653
3819.38	0.00015691
3829.02	0.00018762
3838.67	7.86e-05
3848.31	0.0001699
3857.96	0.0002665
3867.6	1.6e-05
3877.25	0.0002614
3886.89	1.3e-05
3896.54	0.0004288
3906.18	0.0003784
3915.83	0.000279
3925.47	0.0003104
3935.12	0.0003787
3944.76	0.0002792
3954.41	0
3964.05	0.0002978
3973.69	0.0005224
3983.34	0.000765
3992.98	0.0005532
