Infrared Spectrum: Allylcyclopentane
Formula: C 8 H 14
CAS: 3524-75-2
State: gas
Instrument: HP-GC/MS/IRD
Origin: NIST Mass Spectrometry Data Center
1/CM	ABSORBANCE
550	0.0004862
562	0.0001404
574	0.0002574
586	0.0001612
598	0.0001898
610	0.0002782
622	0.0003718
634	0.0004628
646	0.0004108
658	0.000507
670	0.0004082
682	0.0003146
694	0.0002054
706	0.0001742
718	0.000143
730	0.0001586
742	9.36e-05
754	0.000143
766	0.0001794
778	0.000182
790	0.0001326
802	0.0002028
814	0.0002444
826	0.0003432
838	0.0004576
850	0.0006032
862	0.000676
874	0.000936
886	0.0014664
898	0.002873
910	0.0048932
922	0.0042796
934	0.0021372
946	0.0013754
958	0.001222
970	0.0013676
982	0.0019162
994	0.0023348
1006	0.0016146
1018	0.0008112
1030	0.0005564
1042	0.0004862
1054	0.0005122
1066	0.000403
1078	0.0003094
1090	0.0002626
1102	0.0001586
1114	0.000208
1126	0.0001352
1138	0.000182
1150	0.0002938
1162	0.000338
1174	0.0002834
1186	0.000247
1198	0.0003016
1210	0.0002444
1222	0.000286
1234	0.000299
1246	0.000338
1258	0.0002964
1270	0.0003536
1282	0.0004004
1294	0.0004368
1306	0.0004264
1318	0.0004342
1330	0.0004472
1342	0.0005434
1354	0.0005798
1366	0.0004368
1378	0.0003198
1390	0.0003276
1402	0.00052
1414	0.0007826
1426	0.0011466
1438	0.001638
1450	0.0018512
1462	0.0014534
1474	0.001027
1486	0.0007436
1498	0.0004368
1510	0.000312
1522	0.000234
1534	0.000195
1546	0.0001664
1558	0.0001612
1570	0.000169
1582	0.0001586
1594	0.000182
1606	0.0002886
1618	0.0006006
1630	0.0015366
1642	0.0019734
1654	0.0010556
1666	0.0003146
1678	0.0001612
1690	0.0001092
1702	0.00013
1714	7.54e-05
1726	8.06e-05
1738	7.8e-05
1750	6.76e-05
1762	6.24e-05
1774	9.1e-05
1786	9.88e-05
1798	0.0001404
1810	0.0002444
1822	0.000533
1834	0.0005824
1846	0.0003016
1858	0.0001482
1870	0.000104
1882	5.98e-05
1894	7.02e-05
1906	5.72e-05
1918	5.72e-05
1930	8.32e-05
1942	6.5e-05
1954	7.8e-05
1966	8.84e-05
1978	0.0001066
1990	7.8e-05
2002	5.98e-05
2014	5.46e-05
2026	4.94e-05
2038	4.42e-05
2050	5.72e-05
2062	4.94e-05
2074	6.76e-05
2086	4.16e-05
2098	7.02e-05
2110	6.5e-05
2122	5.46e-05
2134	8.32e-05
2146	8.84e-05
2158	7.8e-05
2170	8.32e-05
2182	9.1e-05
2194	8.58e-05
2206	8.32e-05
2218	0.0001118
2230	0.000117
2242	0.0001092
2254	0.0001066
2266	7.8e-05
2278	7.54e-05
2290	7.8e-05
2302	0.000104
2314	0.000104
2326	8.84e-05
2338	9.62e-05
2350	8.58e-05
2362	7.02e-05
2374	7.8e-05
2386	7.54e-05
2398	7.54e-05
2410	7.28e-05
2422	6.24e-05
2434	8.06e-05
2446	7.02e-05
2458	7.02e-05
2470	9.62e-05
2482	9.36e-05
2494	9.88e-05
2506	0.0001118
2518	9.88e-05
2530	0.00013
2542	0.0001092
2554	0.00013
2566	0.0001274
2578	0.0001534
2590	0.0001794
2602	0.0001326
2614	0.000182
2626	0.0001794
2638	0.0001638
2650	0.0001612
2662	0.000143
2674	0.0001664
2686	0.0002002
2698	0.0002106
2710	0.0002418
2722	0.0002444
2734	0.0002704
2746	0.0003328
2758	0.0003588
2770	0.0004212
2782	0.0004862
2794	0.0005746
2806	0.000806
2818	0.001235
2830	0.0020566
2842	0.0032942
2854	0.0050726
2866	0.0079664
2878	0.0105118
2890	0.0106314
2902	0.0112684
2914	0.013559
2926	0.0153686
2938	0.0182884
2950	0.0235092
2962	0.02535
2974	0.0164112
2986	0.0087724
2998	0.0053508
3010	0.0036062
3022	0.0022204
3034	0.0014716
3046	0.001261
3058	0.001547
3070	0.0023946
3082	0.003419
3094	0.0026208
3106	0.0009464
3118	0.0004394
3130	0.0003718
3142	0.0002938
3154	0.0002652
3166	0.0002132
3178	0.0002106
3190	0.0001768
3202	0.0001872
3214	0.000143
3226	0.0001144
3238	0.000208
3250	0.0001612
3262	0.0001378
3274	0.0001144
3286	0.000117
3298	6.5e-05
3310	0.0001534
3322	9.62e-05
3334	0.0001118
3346	7.28e-05
3358	9.1e-05
3370	6.76e-05
3382	8.58e-05
3394	0.0001118
3406	0.000117
3418	9.36e-05
3430	0.0001352
3442	0.0001066
3454	0.0001352
3466	0.00013
3478	0.0001352
3490	0.00013
3502	7.02e-05
3514	7.28e-05
3526	0.000182
3538	0.0001508
3550	0.0001508
3562	0.0001664
3574	8.32e-05
3586	0.0001118
3598	0.0001118
3610	8.58e-05
3622	0.0001378
3634	9.62e-05
3646	0.0001248
3658	0.000104
3670	0.0001534
3682	0.0001196
3694	0.0001404
3706	0.0001326
3718	0.0001638
3730	0.0001352
3742	0.00013
3754	0.0001612
3766	0.0001638
3778	0.000169
3790	0.0001742
3802	0.0001612
3814	0.0002106
3826	0.000156
3838	0.0001846
