Infrared Spectrum: Benzoin methyl ether
Formula: C 15 H 14 O 2
CAS: 3524-62-7
State: gas
Origin: EPA-IR VAPOR PHASE LIBRARY
1/CM	ABSORBANCE
549.9	0.00385
559.547	0.00362
569.193	0.00424
578.84	0.00577
588.486	0.01095
598.133	0.02255
607.779	0.04686
617.426	0.04915
627.072	0.02903
636.719	0.02549
646.365	0.02725
656.012	0.02269
665.658	0.03002
675.305	0.03964
684.951	0.06831
694.598	0.12
704.245	0.09357
713.891	0.06458
723.538	0.04686
733.184	0.03593
742.831	0.03763
752.477	0.03386
762.124	0.02744
771.77	0.0205
781.417	0.01416
791.063	0.01017
800.71	0.00897
810.356	0.00909
820.003	0.01268
829.649	0.01359
839.296	0.01471
848.943	0.01426
858.589	0.01027
868.236	0.00866
877.882	0.00672
887.529	0.00585
897.175	0.00657
906.822	0.00789
916.468	0.00996
926.115	0.01248
935.761	0.01704
945.408	0.01997
955.054	0.01608
964.701	0.0151
974.347	0.01778
983.994	0.02229
993.64	0.02332
1003.29	0.02407
1012.93	0.02814
1022.58	0.03769
1032.23	0.03021
1041.87	0.01986
1051.52	0.0192
1061.17	0.02122
1070.81	0.03122
1080.46	0.0378
1090.11	0.05626
1099.75	0.09624
1109.4	0.12855
1119.05	0.11779
1128.69	0.06336
1138.34	0.03344
1147.99	0.02463
1157.63	0.02437
1167.28	0.02943
1176.92	0.06038
1186.57	0.07692
1196.22	0.079
1205.86	0.07778
1215.51	0.06617
1225.16	0.05387
1234.8	0.0539
1244.45	0.04925
1254.1	0.04302
1263.74	0.04393
1273.39	0.05314
1283.04	0.05029
1292.68	0.03219
1302.33	0.02411
1311.98	0.02224
1321.62	0.02045
1331.27	0.01976
1340.92	0.01955
1350.56	0.01596
1360.21	0.011
1369.86	0.00835
1379.5	0.00744
1389.15	0.00573
1398.79	0.00482
1408.44	0.00481
1418.09	0.0057
1427.73	0.00823
1437.38	0.01757
1447.03	0.03787
1456.67	0.02705
1466.32	0.01555
1475.97	0.01241
1485.61	0.01496
1495.26	0.02267
1504.91	0.01178
1514.55	0.00611
1524.2	0.00563
1533.85	0.00602
1543.49	0.00602
1553.14	0.00623
1562.79	0.00751
1572.43	0.0125
1582.08	0.0179
1591.73	0.02139
1601.37	0.02439
1611.02	0.01285
1620.67	0.00847
1630.31	0.00711
1639.96	0.00761
1649.6	0.00967
1659.25	0.01308
1668.9	0.02095
1678.54	0.04399
1688.19	0.0937
1697.84	0.10622
1707.48	0.09274
1717.13	0.07402
1726.78	0.03298
1736.42	0.01571
1746.07	0.01
1755.72	0.0076
1765.36	0.00631
1775.01	0.0059
1784.66	0.00541
1794.3	0.00709
1803.95	0.00883
1813.6	0.00687
1823.24	0.0047
1832.89	0.00359
1842.54	0.0031873
1852.18	0.0031519
1861.83	0.00333
1871.47	0.00401
1881.12	0.00493
1890.77	0.00547
1900.41	0.00533
1910.06	0.00457
1919.71	0.00394
1929.35	0.00383
1939	0.00542
1948.65	0.00711
1958.29	0.00723
1967.94	0.00543
1977.59	0.00332
1987.23	0.0025589
1996.88	0.0023491
2006.53	0.00230496
2016.17	0.00227325
2025.82	0.0023338
2035.47	0.0024616
2045.11	0.0026004
2054.76	0.0028031
2064.41	0.0029427
2074.05	0.0029037
2083.7	0.002885
2093.35	0.0026618
2102.99	0.0024017
2112.64	0.00221449
2122.28	0.00202
2131.93	0.001934
2141.58	0.001828
2151.22	0.001797
2160.87	0.001822
2170.52	0.001871
2180.16	0.001915
2189.81	0.001834
2199.46	0.001722
2209.1	0.001677
2218.75	0.001683
2228.4	0.00159
2238.04	0.001619
2247.69	0.001639
2257.34	0.001688
2266.98	0.001691
2276.63	0.001772
2286.28	0.00185
2295.92	0.001747
2305.57	0.001914
2315.22	0.0026639
2324.86	0.00231219
2334.51	0.0021573
2344.16	0.0021647
2353.8	0.001857
2363.45	0.001788
2373.09	0.001819
2382.74	0.001769
2392.39	0.001769
2402.03	0.001776
2411.68	0.001769
2421.33	0.001679
2430.97	0.001591
2440.62	0.001527
2450.27	0.001475
2459.91	0.00146
2469.56	0.001404
2479.21	0.001486
2488.85	0.001508
2498.5	0.001563
2508.15	0.001537
2517.79	0.001563
2527.44	0.001456
2537.09	0.0015
2546.73	0.001528
2556.38	0.001575
2566.03	0.001681
2575.67	0.001823
2585.32	0.002098
2594.96	0.0023569
2604.61	0.00224229
2614.26	0.002077
2623.9	0.002035
2633.55	0.00196
2643.2	0.001919
2652.84	0.001888
2662.49	0.001847
2672.14	0.001748
2681.78	0.001659
2691.43	0.001633
2701.08	0.0017
2710.72	0.00177
2720.37	0.001801
2730.02	0.001944
2739.66	0.002087
2749.31	0.00225452
2758.96	0.0026603
2768.6	0.003065
2778.25	0.00378
2787.9	0.00491
2797.54	0.00641
2807.19	0.00876
2816.84	0.01468
2826.48	0.03185
2836.13	0.0403
2845.77	0.02242
2855.42	0.01561
2865.07	0.01765
2874.71	0.02284
2884.36	0.02567
2894.01	0.02597
2903.65	0.02607
2913.3	0.02837
2922.95	0.03088
2932.59	0.03836
2942.24	0.0425
2951.89	0.02994
2961.53	0.01816
2971.18	0.01397
2980.83	0.01576
2990.47	0.02487
3000.12	0.02981
3009.77	0.02039
3019.41	0.02053
3029.06	0.03264
3038.71	0.03783
3048.35	0.03165
3058	0.04309
3067.64	0.07222
3077.29	0.06773
3086.94	0.03963
3096.58	0.02928
3106.23	0.01681
3115.88	0.00901
3125.52	0.00464
3135.17	0.0032158
3144.82	0.0026765
3154.46	0.0027395
3164.11	0.0023644
3173.76	0.00118
3183.4	0.00073
3193.05	0.00061
3202.7	0.00045
3212.34	0.00037
3221.99	0.00033
3231.64	0.00031
3241.28	0.00013
3250.93	0.00026
3260.58	0
3270.22	0.00021
3279.87	0.0002
3289.52	0.00017
3299.16	0.00026
3308.81	0.0004
3318.45	0.00036
3328.1	0.00035
3337.75	0.00045
3347.39	0.00086
3357.04	0.00119
3366.69	0.001432
3376.33	0.00119
3385.98	0.0012
3395.63	0.001347
3405.27	0.0012
3414.92	0.00094
3424.57	0.00073
3434.21	0.00053
3443.86	0.00044
3453.51	0.00031
3463.15	0.00018
3472.8	0.00038
3482.45	0.0005
3492.09	0.00027
3501.74	0.00041
3511.39	0.00033
3521.03	0.00031
3530.68	0.0004
3540.33	0.00046
3549.97	0.00026
3559.62	0.00043
3569.26	0.00034
3578.91	0.00043
3588.56	0.00027
3598.2	0.00044
3607.85	0.00054
3617.5	0.00054
3627.14	0.00055
3636.79	0.00084
3646.44	0.00096
3656.08	0.00108
3665.73	0.001
3675.38	0.00102
3685.02	0.00103
3694.67	0.00107
3704.32	0.001232
3713.96	0.00116
3723.61	0.00113
3733.26	0.00094
3742.9	0.00093
3752.55	0.001
3762.2	0.00118
3771.84	0.00109
3781.49	0.00099
3791.13	0.00099
3800.78	0.00103
3810.43	0.00095
3820.07	0.00093
3829.72	0.00104
3839.37	0.00089
3849.01	0.00099
3858.66	0.00094
3868.31	0.00104
3877.95	0.0009
3887.6	0.00119
3897.25	0.00116
3906.89	0.001265
3916.54	0.001238
3926.19	0.001354
3935.83	0.001534
3945.48	0.001394
3955.13	0.001448
3964.77	0.001265
3974.42	0.00122
3984.07	0.001393
3993.71	0.001626
