Infrared Spectrum: N-ACETYL-N-(p-AMINOBENZENE-SULFONYL)-2-AMINO-4,6-DIMETHYLPYRIMIDINE
Formula: C14 H16 N4 O3 S
CAS: 35255-37-9
State: SOLID (NUJOL MULL)
Class: COBLENTZ
Instrument: PERKIN-ELMER
Sampling: TRANSMISSION
Resolution: 4
Origin: ABBOTT LABORATORIES - WASHBURN
MICROMETERS	TRANSMITTANCE
2.031	0.252
2.06451	0.247
2.09802	0.252
2.13153	0.259
2.16504	0.273
2.19855	0.273
2.23206	0.281
2.26557	0.289
2.29908	0.294
2.33259	0.294
2.3661	0.2881
2.39961	0.301
2.43312	0.3081
2.46663	0.316
2.50014	0.3191
2.53365	0.335
2.56716	0.338
2.60067	0.348
2.63418	0.355
2.66769	0.361
2.7012	0.3781
2.73471	0.3809
2.76822	0.3882
2.80173	0.3959
2.83524	0.403
2.86875	0.4099
2.90226	0.296
2.93577	0.3439
2.96928	0.3503
3.00279	0.2543
3.0363	0.3184
3.06981	0.3511
3.10332	0.373
3.13683	0.3699
3.17034	0.3682
3.20385	0.376
3.23736	0.3709
3.27087	0.356
3.30438	0.3274
3.33789	0.2969
3.3714	0.2006
3.40491	0.0688
3.43842	0.0159
3.47193	0.008
3.50544	0.0211
3.53895	0.0327
3.57246	0.4107
3.60597	0.5173
3.63948	0.5491
3.67299	0.547
3.7065	0.537
3.74001	0.5389
3.77352	0.534
3.80703	0.536
3.84054	0.5412
3.87405	0.5525
3.90756	0.5707
3.94107	0.5858
3.97458	0.5868
4.00809	0.5923
4.0416	0.5918
4.07511	0.6007
4.10862	0.604
4.14213	0.599
4.17564	0.601
4.20915	0.597
4.24266	0.6029
4.27617	0.6141
4.30968	0.6129
4.34319	0.6214
4.3767	0.6209
4.41021	0.628
4.44372	0.6292
4.47723	0.629
4.51074	0.6409
4.54425	0.644
4.57776	0.649
4.61127	0.651
4.64478	0.6531
4.67829	0.6559
4.7118	0.664
4.74531	0.6731
4.77882	0.6749
4.81233	0.6799
4.84584	0.685
4.87935	0.69
4.91286	0.693
4.94637	0.701
4.97988	0.701
5.01339	0.705
5.0469	0.7128
5.08041	0.7158
5.11392	0.7208
5.14743	0.7257
5.18094	0.7299
5.21445	0.7194
5.24796	0.7119
5.28147	0.7316
5.31498	0.741
5.34849	0.7512
5.382	0.757
5.41551	0.76
5.44902	0.752
5.48253	0.765
5.51604	0.765
5.54955	0.7728
5.58306	0.7752
5.61657	0.7666
5.65008	0.7845
5.68359	0.7773
5.7171	0.7738
5.75061	0.7496
5.78412	0.7089
5.81763	0.4775
5.85114	0.2192
5.88465	0.1591
5.91816	0.3334
5.95167	0.5872
5.98518	0.6635
6.01869	0.658
6.0522	0.6321
6.08571	0.5088
6.11922	0.3583
6.15273	0.1528
6.18624	0.0933
6.21975	0.1571
6.25326	0.1115
6.28677	0.0794
6.32028	0.2471
6.35379	0.3151
6.3873	0.3906
6.42081	0.4401
6.45432	0.4504
6.48783	0.4088
6.52134	0.3543
6.55485	0.3308
6.58836	0.3413
6.62187	0.3532
6.65538	0.2916
6.68889	0.3252
6.7224	0.4171
6.75591	0.3998
6.78942	0.3281
6.82293	0.1299
6.85644	0.0962
6.88995	0.095
6.92346	0.1189
6.95697	0.147
6.99048	0.1945
7.02399	0.3162
7.0575	0.392
7.09101	0.4569
7.12452	0.5102
7.15803	0.5201
7.19154	0.4624
7.22505	0.3222
7.25856	0.1391
7.29207	0.0627
7.32558	0.088
7.35909	0.0556
7.3926	0.036
7.42611	0.1261
7.45962	0.2215
7.49313	0.2328
7.52664	0.1653
7.56015	0.1058
7.59366	0.0986
7.62717	0.2758
7.66068	0.329
7.69419	0.4316
7.7277	0.4721
7.76121	0.5
7.79472	0.5153
7.82823	0.4893
7.86174	0.3861
7.89525	0.2434
7.92876	0.1241
7.96227	0.0899
7.99578	0.0874
8.02929	0.1099
8.0628	0.177
8.09631	0.2996
8.12982	0.3782
8.16333	0.4289
8.19684	0.4792
8.23035	0.5197
8.26386	0.547
8.29737	0.5707
8.33088	0.5617
8.36439	0.4608
8.3979	0.3385
8.43141	0.5582
8.46492	0.5483
8.49843	0.4794
8.53194	0.3502
8.56545	0.1698
8.59896	0.0737
8.63247	0.033
8.66598	0.0386
8.69949	0.1327
8.733	0.2224
8.76651	0.3048
8.80002	0.341
8.83353	0.3242
8.86704	0.3377
8.90055	0.3542
8.93406	0.3586
8.96757	0.3295
9.00108	0.2682
9.03459	0.2792
9.0681	0.4306
9.10161	0.4535
9.13512	0.3462
9.16863	0.2058
9.20214	0.1014
9.23565	0.1295
9.26916	0.2927
9.30267	0.4255
9.33618	0.463
9.36969	0.4892
9.4032	0.5185
9.43671	0.5336
9.47022	0.5496
9.50373	0.556
9.53724	0.5528
9.57075	0.5418
9.60426	0.4904
9.63777	0.4215
9.67128	0.3534
9.70479	0.2616
9.7383	0.2197
9.77181	0.2178
9.80532	0.3087
9.83883	0.3863
9.87234	0.423
9.90585	0.4365
9.93936	0.461
9.97287	0.4607
10.0064	0.4409
10.0399	0.4922
10.0734	0.5236
10.1069	0.5527
10.1404	0.5666
10.1739	0.5715
10.2074	0.5814
10.241	0.5813
10.2745	0.587
10.308	0.589
10.3415	0.5662
10.375	0.5403
10.4085	0.497
10.442	0.5146
10.4755	0.5483
10.509	0.5719
10.5425	0.5857
10.5761	0.5935
10.6096	0.6004
10.6431	0.592
10.6766	0.5914
10.7101	0.585
10.7436	0.5702
10.7771	0.5432
10.8106	0.4928
10.8441	0.4191
10.8776	0.3449
10.9112	0.2729
10.9447	0.2978
10.9782	0.3911
11.0117	0.4718
11.0452	0.5398
11.0787	0.5749
11.1122	0.5983
11.1457	0.6165
11.1792	0.626
11.2127	0.6347
11.2463	0.642
11.2798	0.649
11.3133	0.649
11.3468	0.653
11.3803	0.651
11.4138	0.6456
11.4473	0.612
11.4808	0.5275
11.5143	0.4771
11.5478	0.5639
11.5814	0.6266
11.6149	0.6377
11.6484	0.6437
11.6819	0.6396
11.7154	0.6279
11.7489	0.6082
11.7824	0.5508
11.8159	0.4951
11.8494	0.4613
11.8829	0.4104
11.9165	0.3542
11.95	0.2478
11.9835	0.2086
12.017	0.2593
12.0505	0.3472
12.084	0.4449
12.1175	0.5091
12.151	0.5295
12.1845	0.536
12.218	0.5304
12.2516	0.5772
12.2851	0.6021
12.3186	0.614
12.3521	0.6248
12.3856	0.633
12.4191	0.638
12.4526	0.636
12.4861	0.6383
12.5196	0.6404
12.5531	0.6489
12.5867	0.641
12.6202	0.639
12.6537	0.643
12.6872	0.629
12.7207	0.6107
12.7542	0.5768
12.7877	0.4942
12.8212	0.3493
12.8547	0.2653
12.8882	0.2875
12.9218	0.4061
12.9553	0.4839
12.9888	0.537
13.0223	0.5568
13.0558	0.5766
13.0893	0.5861
13.1228	0.5921
13.1563	0.597
13.1898	0.604
13.2233	0.6026
13.2569	0.6038
13.2904	0.608
13.3239	0.6086
13.3574	0.6016
13.3909	0.6068
13.4244	0.5965
13.4579	0.5951
13.4914	0.5932
13.5249	0.5867
13.5584	0.584
13.592	0.587
13.6255	0.5819
13.659	0.5759
13.6925	0.5671
13.726	0.5622
13.7595	0.5574
13.793	0.5513
13.8265	0.5501
13.86	0.556
13.8935	0.559
13.9271	0.5434
13.9606	0.5346
13.9941	0.5656
14.0276	0.5898
14.0611	0.5996
14.0946	0.6015
14.1281	0.6038
14.1616	0.596
14.1951	0.5859
14.2286	0.5712
14.2622	0.5398
14.2957	0.5075
14.3292	0.459
14.3627	0.3798
14.3962	0.3123
14.4297	0.2263
14.4632	0.1618
14.4967	0.1038
14.5302	0.09
14.5637	0.0943
14.5973	0.1431
14.6308	0.1838
14.6643	0.2518
14.6978	0.3115
14.7313	0.3554
14.7648	0.4077
14.7983	0.4433
14.8318	0.467
14.8653	0.4899
14.8988	0.4886
14.9324	0.5087
14.9659	0.5233
14.9994	0.5232
15.0329	0.523
15.0664	0.5211
15.0999	0.5301
15.1334	0.5243
15.1669	0.5285
15.2004	0.5267
15.2339	0.524
15.2675	0.517
15.301	0.52
15.3345	0.517
15.368	0.5071
15.4015	0.5044
