Infrared Spectrum: p-Hexyloxybenzylidene p-aminobenzonitrile
Formula: C 20 H 22 N 2 O
CAS: 35280-78-5
State: gas
Origin: EPA-IR VAPOR PHASE LIBRARY
1/CM	ABSORBANCE
549.8	0.0083069
559.445	0.0079769
569.09	0.0055269
578.734	0.0046169
588.379	0.0044869
598.024	0.0051869
607.669	0.0033569
617.313	0.0015569
626.958	0.0015069
636.603	0.0014469
646.248	0.0006363
655.893	0.0008604
665.537	0.0007423
675.182	0.000946
684.827	0.0011369
694.472	0.0018269
704.116	0.0027069
713.761	0.0033069
723.406	0.0026969
733.051	0.0021969
742.695	0.0018569
752.34	0.0014169
761.985	0.0016469
771.63	0.0017569
781.275	0.0017069
790.919	0.0024969
800.564	0.0042469
810.209	0.0056669
819.854	0.0102269
829.498	0.0194169
839.143	0.0245269
848.788	0.0147769
858.433	0.0088469
868.078	0.0072569
877.722	0.0100169
887.367	0.0170769
897.012	0.0083369
906.657	0.0042469
916.301	0.0035969
925.946	0.0042869
935.591	0.0052969
945.236	0.0051269
954.88	0.0044569
964.525	0.0050569
974.17	0.0062869
983.815	0.0059069
993.46	0.0067269
1003.1	0.0108469
1012.75	0.0175469
1022.39	0.0172969
1032.04	0.0134769
1041.68	0.0106669
1051.33	0.0099969
1060.97	0.0079169
1070.62	0.0060269
1080.26	0.0056569
1089.91	0.0049269
1099.55	0.0059569
1109.2	0.0088369
1118.84	0.0062769
1128.49	0.0059469
1138.13	0.0072369
1147.78	0.0135669
1157.42	0.0668669
1167.07	0.0919969
1176.71	0.0174169
1186.36	0.0176669
1196	0.0304269
1205.64	0.0194569
1215.29	0.0252669
1224.93	0.0344069
1234.58	0.0547469
1244.22	0.0795169
1253.87	0.0758369
1263.51	0.0399969
1273.16	0.0224169
1282.8	0.0194969
1292.45	0.0247169
1302.09	0.0332569
1311.74	0.0222169
1321.38	0.0115569
1331.03	0.0081169
1340.67	0.0068869
1350.32	0.0061569
1359.96	0.0059269
1369.61	0.0063769
1379.25	0.0076169
1388.9	0.0094969
1398.54	0.0065569
1408.18	0.0065569
1417.83	0.0129469
1427.47	0.0098769
1437.12	0.0055669
1446.76	0.0060369
1456.41	0.0079169
1466.05	0.0115669
1475.7	0.0175069
1485.34	0.0149169
1494.99	0.0262169
1504.63	0.0517969
1514.28	0.0706169
1523.92	0.0190969
1533.57	0.0093069
1543.21	0.0078569
1552.86	0.0100769
1562.5	0.0183969
1572.15	0.0436869
1581.79	0.0495969
1591.44	0.111057
1601.08	0.107617
1610.73	0.0426669
1620.37	0.0259869
1630.01	0.0498969
1639.66	0.0471569
1649.3	0.0176669
1658.95	0.0100469
1668.59	0.0071069
1678.24	0.0051369
1687.88	0.0037269
1697.53	0.0028969
1707.17	0.0024169
1716.82	0.0023569
1726.46	0.0023569
1736.11	0.0020969
1745.75	0.0019469
1755.4	0.0020969
1765.04	0.0022969
1774.69	0.0022569
1784.33	0.0017869
1793.98	0.0013469
1803.62	0.0011069
1813.27	0.0010469
1822.91	0.0009494
1832.55	0.0008711
1842.2	0.0009439
1851.84	0.0011169
1861.49	0.0011369
1871.13	0.0013169
1880.78	0.0016669
1890.42	0.0020669
1900.07	0.0020869
1909.71	0.0018069
1919.36	0.0014769
1929	0.0014869
1938.65	0.0015269
1948.29	0.0014669
1957.94	0.0013369
1967.58	0.0013169
1977.23	0.0012069
1986.87	0.0012869
1996.52	0.0014469
2006.16	0.0017469
2015.81	0.0019269
2025.45	0.0016869
2035.1	0.0017469
2044.74	0.0018669
2054.38	0.0017969
2064.03	0.0015269
2073.67	0.0014269
2083.32	0.0014469
2092.96	0.0012869
2102.61	0.0011369
2112.25	0.000887
2121.9	0.0007945
2131.54	0.0007343
2141.19	0.0006949
2150.83	0.0006494
2160.48	0.0005661
2170.12	0.0006394
2179.77	0.0007454
2189.41	0.0006706
2199.06	0.0008678
2208.7	0.0012169
2218.35	0.0027869
2227.99	0.0123269
2237.64	0.0062069
2247.28	0.0012869
2256.92	0.0009267
2266.57	0.0009322
2276.21	0.0008541
2285.86	0.0007466
2295.5	0.0007857
2305.15	0.0008325
2314.79	0.0007956
2324.44	0.0009953
2334.08	0.0008907
2343.73	0.0008395
2353.37	0.0009314
2363.02	0.0008905
2372.66	0.000965
2382.31	0.0011969
2391.95	0.0011369
2401.6	0.0011369
2411.24	0.0012069
2420.89	0.0011769
2430.53	0.0011069
2440.18	0.0012469
2449.82	0.0013269
2459.47	0.0014069
2469.11	0.0015269
2478.75	0.0015869
2488.4	0.0016269
2498.04	0.0014669
2507.69	0.0015869
2517.33	0.0017769
2526.98	0.0019469
2536.62	0.0022069
2546.27	0.0022269
2555.91	0.0020069
2565.56	0.0017669
2575.2	0.0015469
2584.85	0.0014769
2594.49	0.0012769
2604.14	0.0012269
2613.78	0.0010569
2623.43	0.0010169
2633.07	0.0008637
2642.72	0.0008902
2652.36	0.0008598
2662.01	0.0008843
2671.65	0.0009752
2681.29	0.0010669
2690.94	0.0009969
2700.58	0.0010469
2710.23	0.0010669
2719.87	0.0012069
2729.52	0.0015569
2739.16	0.0018969
2748.81	0.0020969
2758.45	0.0020969
2768.1	0.0019469
2777.74	0.0018969
2787.39	0.0020269
2797.03	0.0021769
2806.68	0.0024969
2816.32	0.0028969
2825.97	0.0036869
2835.61	0.0049069
2845.26	0.0074869
2854.9	0.0128669
2864.55	0.0185669
2874.19	0.0204669
2883.84	0.0204169
2893.48	0.0172269
2903.12	0.0166469
2912.77	0.0208369
2922.41	0.0274969
2932.06	0.0366969
2941.7	0.0400369
2951.35	0.0339069
2960.99	0.0305869
2970.64	0.0292269
2980.28	0.0160769
2989.93	0.0085869
2999.57	0.0061469
3009.22	0.0049869
3018.86	0.0041869
3028.51	0.0047169
3038.15	0.0069669
3047.8	0.0053169
3057.44	0.0034369
3067.09	0.0038969
3076.73	0.0057769
3086.38	0.0044969
3096.02	0.0040569
3105.67	0.0031369
3115.31	0.0023369
3124.95	0.0014269
3134.6	0.0011369
3144.24	0.000976
3153.89	0.0009799
3163.53	0.0008177
3173.18	0.0007995
3182.82	0.000944
3192.47	0.000988
3202.11	0.000811
3211.76	0.0007691
3221.4	0.0007131
3231.05	0.0006074
3240.69	0.0007345
3250.34	0.0007297
3259.98	0.0007424
3269.63	0.0007173
3279.27	0.0003704
3288.92	0.0003704
3298.56	0.0002655
3308.21	0.0002485
3317.85	0.0002222
3327.49	0.0001516
3337.14	0.0003098
3346.78	0.0003179
3356.43	0.000229
3366.07	0.0002248
3375.72	0.0002036
3385.36	0.0003256
3395.01	0.0003778
3404.65	0.0004107
3414.3	0.0003232
3423.94	0.0004081
3433.59	0.0003438
3443.23	0.0002418
3452.88	0.000154
3462.52	0.0001245
3472.17	0.0001525
3481.81	8.725e-05
3491.46	0.00011109
3501.1	0.0002043
3510.75	9.932e-05
3520.39	0.0001406
3530.04	0.0001455
3539.68	8.471e-05
3549.32	0.0001675
3558.97	0.0001666
3568.61	0.0002364
3578.26	0.0002184
3587.9	2.879e-05
3597.55	0.00010113
3607.19	0.0001176
3616.84	0.0002051
3626.48	0.0001449
3636.13	0.00011203
3645.77	0.00011032
3655.42	0.0002082
3665.06	0.000169
3674.71	0.0001822
3684.35	0.0003579
3694	0.0002115
3703.64	0.0001386
3713.29	8.257e-05
3722.93	8.761e-05
3732.58	0.000158
3742.22	0.0001836
3751.86	0.000262
3761.51	0.0001449
3771.15	0.0001799
3780.8	0.0001421
3790.44	0.0001436
3800.09	0.0002437
3809.73	0.0002482
3819.38	0.0004044
3829.02	0.0004407
3838.67	0.0002554
3848.31	0.0001439
3857.96	0.0001766
3867.6	0.000151
3877.25	0.0002192
3886.89	9.791e-05
3896.54	0.0002644
3906.18	0.0003741
3915.83	0.0001722
3925.47	0.000212
3935.12	0.0001932
3944.76	0.0001396
3954.41	0.0001503
3964.05	0.0002237
3973.69	0.0002072
3983.34	0.0003118
3992.98	0.0002993
