Infrared Spectrum: CARBONYL FLUORIDE
Formula: C F2 O
CAS: 353-50-4
State: GAS (200 mmHg DILUTED TO A TOTAL PRESSURE OF 600 mmHg WITH N2)
Class: COBLENTZ
Instrument: DOW KBr FOREPRISM-GRATING
Instrument parameters: BLAZED AT 3.5, 12.0, 20.0 MICRON, CHANGED AT 5.0, 7.5, 14.9 MICRON
Sampling: TRANSMISSION
Path length: 5 CM CELL
Resolution: 4
Origin: DOW CHEMICAL COMPANY
1/CM	TRANSMITTANCE
391.704	1.008
400.254	1.013
408.803	1.019
417.353	1.022
425.903	1.023
434.453	1.022
443.002	1.023
451.552	1.025
460.102	1.026
468.651	1.026
477.201	1.028
485.751	1.03
494.301	1.033
502.85	1.023
511.4	1.022
519.95	1.019
528.499	1.011
537.049	0.998
545.599	0.932
554.149	0.762
562.698	0.589
571.248	0.6718
579.798	0.6058
588.347	0.479
596.897	0.578
605.447	0.477
613.997	0.433
622.546	0.536
631.096	0.401
639.646	0.502
648.195	0.815
656.745	0.963
665.295	0.957
673.845	0.986
682.394	1.005
690.944	1.01
699.494	1.008
708.043	1.002
716.593	0.977
725.143	0.918
733.693	0.759
742.242	0.5041
750.792	0.3231
759.342	0.355
767.891	0.594
776.441	0.8276
784.991	0.4241
793.541	0.21
802.09	0.184
810.64	0.467
819.19	0.834
827.739	0.977
836.289	1.002
844.839	1.002
853.389	1.001
861.938	0.998
870.488	0.994
879.038	0.991
887.587	0.988
896.137	0.979
904.687	0.966
913.237	0.9021
921.786	0.7241
930.336	0.3182
938.886	0.0471
947.435	0.001
955.985	0
964.535	0
973.085	0.001
981.634	0.01
990.184	0.3611
998.734	0.8178
1007.28	0.831
1015.83	0.6252
1024.38	0.2251
1032.93	0.3141
1041.48	0.976
1050.03	0.976
1058.58	0.976
1067.13	0.979
1075.68	0.977
1084.23	0.974
1092.78	0.967
1101.33	0.92
1109.88	0.886
1118.43	0.8791
1126.98	0.938
1135.53	0.954
1144.08	0.936
1152.63	0.902
1161.18	0.778
1169.73	0.5891
1178.28	0.489
1186.83	0.497
1195.38	0.32
1203.93	0.0451
1212.48	0.002
1221.03	0.001
1229.58	0.001
1238.13	0.002
1246.68	0.004
1255.23	0.005
1263.77	0.007
1272.32	0.011
1280.87	0.1779
1289.42	0.6169
1297.97	0.794
1306.52	0.831
1315.07	0.871
1323.62	0.904
1332.17	0.908
1340.72	0.93
1349.27	0.946
1357.82	0.966
1366.37	0.969
1374.92	0.969
1383.47	0.963
1392.02	0.961
1400.57	0.958
1409.12	0.958
1417.67	0.958
1426.22	0.957
1434.77	0.954
1443.32	0.951
1451.87	0.949
1460.42	0.949
1468.97	0.952
1477.52	0.954
1486.07	0.955
1494.62	0.955
1503.17	0.946
1511.72	0.923
1520.27	0.842
1528.82	0.6791
1537.37	0.666
1545.92	0.647
1554.47	0.616
1563.01	0.587
1571.56	0.675
1580.11	0.749
1588.66	0.783
1597.21	0.8119
1605.76	0.9019
1614.31	0.957
1622.86	0.971
1631.41	0.979
1639.96	0.985
1648.51	0.977
1657.06	0.971
1665.61	0.97
1674.16	0.966
1682.71	0.966
1691.26	0.96
1699.81	0.957
1708.36	0.955
1716.91	0.952
1725.46	0.952
1734.01	0.954
1742.56	0.958
1751.11	0.966
1759.66	0.969
1768.21	0.97
1776.76	0.967
1785.31	0.961
1793.86	0.955
1802.41	0.954
1810.96	0.942
1819.51	0.902
1828.06	0.812
1836.61	0.657
1845.16	0.557
1853.71	0.539
1862.25	0.4331
1870.8	0.2681
1879.35	0.1311
1887.9	0.007
1896.45	0.001
1905	0
1913.55	0
1922.1	0
1930.65	0
1939.2	0.001
1947.75	0.001
1956.3	0.002
1964.85	0.007
1973.4	0.01
1981.95	0.274
1990.5	0.787
1999.05	0.884
2007.6	0.926
2016.15	0.9415
2024.7	0.951
2033.25	0.957
2041.8	0.96
2050.35	0.963
2058.9	0.964
2067.45	0.966
2076	0.967
2084.55	0.966
2093.1	0.966
2101.65	0.963
2110.2	0.958
2118.75	0.957
2127.3	0.9539
2135.85	0.9464
2144.4	0.9345
2152.95	0.8947
2161.49	0.8126
2170.04	0.6906
2178.59	0.6
2187.14	0.6154
2195.69	0.5944
2204.24	0.5637
2212.79	0.8141
2221.34	0.9454
2229.89	0.955
2238.44	0.955
2246.99	0.955
2255.54	0.954
2264.09	0.949
2272.64	0.954
2281.19	0.9415
2289.74	0.9194
2298.29	0.9082
2306.84	0.9088
2315.39	0.905
2323.94	0.9062
2332.49	0.911
2341.04	0.9168
2349.59	0.932
2358.14	0.9342
2366.69	0.936
2375.24	0.9422
2383.79	0.9524
2392.34	0.954
2400.89	0.9489
2409.44	0.9391
2417.99	0.9264
2426.54	0.8931
2435.09	0.8127
2443.64	0.642
2452.19	0.5751
2460.73	0.555
2469.28	0.512
2477.83	0.5109
2486.38	0.592
2494.93	0.9159
2503.48	0.9433
2512.03	0.949
2520.58	0.9523
2529.13	0.954
2537.68	0.957
2546.23	0.957
2554.78	0.957
2563.33	0.957
2571.88	0.957
2580.43	0.955
2588.98	0.955
2597.53	0.954
2606.08	0.955
2614.63	0.954
2623.18	0.955
2631.73	0.955
2640.28	0.955
2648.83	0.951
2657.38	0.949
2665.93	0.946
2674.48	0.948
2683.03	0.948
2691.58	0.946
2700.13	0.949
2708.68	0.952
2717.23	0.952
2725.78	0.9518
2734.33	0.9495
2742.88	0.949
2751.43	0.949
2759.97	0.9475
2768.52	0.943
2777.07	0.939
2785.62	0.938
2794.17	0.936
2802.72	0.9352
2811.27	0.9195
2819.82	0.9125
2828.37	0.8819
2836.92	0.8627
2845.47	0.8656
2854.02	0.8708
2862.57	0.8436
2871.12	0.851
2879.67	0.8394
2888.22	0.7746
2896.77	0.768
2905.32	0.7706
2913.87	0.7563
2922.42	0.7496
2930.97	0.9081
2939.52	0.9324
2948.07	0.9389
2956.62	0.9446
2965.17	0.9496
2973.72	0.955
2982.27	0.957
2990.82	0.958
2999.37	0.96
3007.92	0.96
3016.47	0.96
3025.02	0.96
3033.57	0.9587
3042.12	0.96
3050.67	0.96
3059.21	0.96
3067.76	0.961
3076.31	0.9627
3084.86	0.963
3093.41	0.964
3101.96	0.964
3110.51	0.964
3119.06	0.964
3127.61	0.9613
3136.16	0.9576
3144.71	0.9524
3153.26	0.9442
3161.81	0.943
3170.36	0.945
3178.91	0.946
3187.46	0.9492
3196.01	0.9597
3204.56	0.967
3213.11	0.967
3221.66	0.9694
3230.21	0.97
3238.76	0.97
3247.31	0.97
3255.86	0.97
3264.41	0.9709
3272.96	0.973
3281.51	0.9739
3290.06	0.976
3298.61	0.976
3307.16	0.976
3315.71	0.977
3324.26	0.977
3332.81	0.977
3341.36	0.9809
3349.91	0.9849
3358.45	0.986
3367	0.989
3375.55	0.989
3384.1	0.988
3392.65	0.986
3401.2	0.985
3409.75	0.983
3418.3	0.982
3426.85	0.978
3435.4	0.994
3443.95	0.996
3452.5	0.997
3461.05	0.998
3469.6	0.998
3478.15	1
3486.7	1.001
3495.25	1.0015
3503.8	1.005
3512.35	1.005
3520.9	1.005
3529.45	1.004
3538	1.002
3546.55	1.002
3555.1	1.002
3563.65	1.002
3572.2	1.002
3580.75	1.001
3589.3	0.997
3597.85	0.995
3606.4	0.998
3614.95	0.9929
3623.5	0.992
3632.05	0.9945
3640.6	0.997
3649.15	1
3657.69	1
3666.24	1
3674.79	0.9979
3683.34	0.9914
3691.89	0.988
3700.44	0.988
3708.99	0.989
3717.54	0.9884
3726.09	0.988
3734.64	0.9902
3743.19	1
3751.74	1.0046
3760.29	1.004
3768.84	1.0028
3777.39	0.9979
3785.94	0.9914
3794.49	0.9848
