Infrared Spectrum: 9-Hydroxy-4-methoxyacridine
Formula: C 14 H 11 N O 2
CAS: 35308-00-0
State: gas
Origin: EPA-IR VAPOR PHASE LIBRARY
1/CM	ABSORBANCE
549.8	0.002698
559.445	0.002038
569.09	0.002478
578.734	0.002178
588.379	0.000303
598.024	0.0010695
607.669	0.0012119
617.313	0.0014737
626.958	0.001658
636.603	0.002008
646.248	0.0014814
655.893	0.001758
665.537	0.00060722
675.182	0.002378
684.827	0.004468
694.472	0.004208
704.116	0.002648
713.761	0.002088
723.406	0.004098
733.051	0.006388
742.695	0.010868
752.34	0.019298
761.985	0.007968
771.63	0.001668
781.275	0.0012486
790.919	0.001213
800.564	0.002008
810.209	0.003208
819.854	0.002878
829.498	0.0013671
839.143	0.0011374
848.788	0.0009535
858.433	0.0011076
868.078	0.0011441
877.722	0.0014684
887.367	0.001868
897.012	0.003008
906.657	0.001568
916.301	0.0011928
925.946	0.0015277
935.591	0.0014909
945.236	0.002898
954.88	0.007078
964.525	0.010298
974.17	0.004498
983.815	0.002458
993.46	0.001998
1003.1	0.002208
1012.75	0.003188
1022.39	0.005278
1032.04	0.005128
1041.68	0.004338
1051.33	0.005138
1060.97	0.008608
1070.62	0.009058
1080.26	0.011378
1089.91	0.006498
1099.55	0.004288
1109.2	0.003498
1118.84	0.001918
1128.49	0.0009024
1138.13	0.001538
1147.78	0.006188
1157.42	0.010398
1167.07	0.006868
1176.71	0.007238
1186.36	0.007768
1196	0.004518
1205.64	0.004808
1215.29	0.007378
1224.93	0.017318
1234.58	0.026178
1244.22	0.029558
1253.87	0.022428
1263.51	0.009008
1273.16	0.004928
1282.8	0.003358
1292.45	0.003868
1302.09	0.006868
1311.74	0.010258
1321.38	0.008538
1331.03	0.006208
1340.67	0.003828
1350.32	0.002348
1359.96	0.001918
1369.61	0.002018
1379.25	0.002278
1388.9	0.002928
1398.54	0.004828
1408.18	0.011958
1417.83	0.010228
1427.47	0.003578
1437.12	0.004668
1446.76	0.009688
1456.41	0.014398
1466.05	0.017518
1475.7	0.020778
1485.34	0.017938
1494.99	0.010008
1504.63	0.013028
1514.28	0.029068
1523.92	0.044778
1533.57	0.027938
1543.21	0.007848
1552.86	0.004478
1562.5	0.005248
1572.15	0.008078
1581.79	0.008758
1591.44	0.009698
1601.08	0.017068
1610.73	0.028488
1620.37	0.044778
1630.01	0.031088
1639.66	0.011558
1649.3	0.011418
1658.95	0.032248
1668.59	0.053658
1678.24	0.019048
1687.88	0.004988
1697.53	0.003428
1707.17	0.002878
1716.82	0.002198
1726.46	0.002188
1736.11	0.001618
1745.75	0.0014759
1755.4	0.0012916
1765.04	0.001548
1774.69	0.001424
1784.33	0.0014025
1793.98	0.0014742
1803.62	0.001568
1813.27	0.0015229
1822.91	0.0013282
1832.55	0.0013282
1842.2	0.0012604
1851.84	0.0012889
1861.49	0.0012526
1871.13	0.0009552
1880.78	0.001081
1890.42	0.0012139
1900.07	0.0012833
1909.71	0.0013654
1919.36	0.0015365
1929	0.001698
1938.65	0.0012999
1948.29	0.0010858
1957.94	0.0011784
1967.58	0.0009811
1977.23	0.0010041
1986.87	0.0010185
1996.52	0.0009201
2006.16	0.0009512
2015.81	0.0009174
2025.45	0.0011055
2035.1	0.0012096
2044.74	0.0011602
2054.38	0.0012046
2064.03	0.0010426
2073.67	0.0007415
2083.32	0.0008562
2092.96	0.0008753
2102.61	0.0007975
2112.25	0.0008533
2121.9	0.0010286
2131.54	0.0009413
2141.19	0.0009032
2150.83	0.0009874
2160.48	0.0011511
2170.12	0.0009751
2179.77	0.0008403
2189.41	0.0006633
2199.06	0.0008395
2208.7	0.0010509
2218.35	0.0009236
2227.99	0.0009847
2237.64	0.0009513
2247.28	0.0009376
2256.92	0.0007874
2266.57	0.0008917
2276.21	0.0008471
2285.86	0.001026
2295.5	0.0011129
2305.15	0.0011052
2314.79	0.0010326
2324.44	0.0011055
2334.08	0.0009122
2343.73	0.0010398
2353.37	0.0010024
2363.02	0.0009409
2372.66	0.0009523
2382.31	0.0009454
2391.95	0.0009373
2401.6	0.0008894
2411.24	0.0007311
2420.89	0.0007778
2430.53	0.0009639
2440.18	0.0010222
2449.82	0.000952
2459.47	0.0009284
2469.11	0.0010484
2478.75	0.0009543
2488.4	0.0009899
2498.04	0.0011662
2507.69	0.0013132
2517.33	0.0010816
2526.98	0.0009639
2536.62	0.0009472
2546.27	0.0010412
2555.91	0.0011046
2565.56	0.0011183
2575.2	0.0012669
2584.85	0.001104
2594.49	0.0011563
2604.14	0.0010109
2613.78	0.001211
2623.43	0.0009839
2633.07	0.0007702
2642.72	0.0010733
2652.36	0.0008314
2662.01	0.001328
2671.65	0.0007958
2681.29	0.0007066
2690.94	0.0008719
2700.58	0.0009664
2710.23	0.0009785
2719.87	0.0007528
2729.52	0.0008879
2739.16	0.0010889
2748.81	0.0008611
2758.45	0.0010397
2768.1	0.0009922
2777.74	0.0012285
2787.39	0.0010183
2797.03	0.0009475
2806.68	0.0013423
2816.32	0.0013522
2825.97	0.001568
2835.61	0.002378
2845.26	0.003608
2854.9	0.002828
2864.55	0.002398
2874.19	0.002058
2883.84	0.001918
2893.48	0.001958
2903.12	0.002158
2912.77	0.003048
2922.41	0.002938
2932.06	0.003108
2941.7	0.004428
2951.35	0.006348
2960.99	0.004718
2970.64	0.003598
2980.28	0.002638
2989.93	0.002448
2999.57	0.003288
3009.22	0.003818
3018.86	0.003108
3028.51	0.002868
3038.15	0.003058
3047.8	0.003898
3057.44	0.004228
3067.09	0.005848
3076.73	0.007438
3086.38	0.005398
3096.02	0.002538
3105.67	0.001678
3115.31	0.001441
3124.95	0.001092
3134.6	0.0010748
3144.24	0.0010388
3153.89	0.00060491
3163.53	0.0011307
3173.18	0.0008336
3182.82	0.0008898
3192.47	0.00072
3202.11	0.0008596
3211.76	0.0006381
3221.4	0.0007175
3231.05	0.0007582
3240.69	0.0007637
3250.34	0.0007769
3259.98	0.0008543
3269.63	0.0008555
3279.27	0.0009852
3288.92	0.000543125
3298.56	0.000987
3308.21	0.0011576
3317.85	0.001166
3327.49	0.001146
3337.14	0.00060931
3346.78	0.00059787
3356.43	0.0007527
3366.07	0.0007228
3375.72	0.000395
3385.36	0.000166
3395.01	0.0008173
3404.65	0.0011432
3414.3	0.0009473
3423.94	0.001558
3433.59	0.002438
3443.23	0.005588
3452.88	0.013028
3462.52	0.011908
3472.17	0.002928
3481.81	0.0012078
3491.46	0.00058538
3501.1	0.00056783
3510.75	0.000339
3520.39	0.0004929
3530.04	0.000261
3539.68	0.00058542
3549.32	0.0004409
3558.97	0.00058526
3568.61	0.000271
3578.26	0.00061952
3587.9	0.0008641
3597.55	0.000349
3607.19	0.000677
3616.84	0.0009176
3626.48	0.000403
3636.13	0.0005248
3645.77	0.0007256
3655.42	0.000732
3665.06	0.00060237
3674.71	0.0008419
3684.35	0.0006551
3694	0.0010455
3703.64	0.0004982
3713.29	0.00061442
3722.93	0.0006147
3732.58	0.0008616
3742.22	0.0009291
3751.86	0.0009793
3761.51	0.0006747
3771.15	0.0008927
3780.8	0.0004394
3790.44	0.0007991
3800.09	0.00060964
3809.73	0.000547879
3819.38	0.00025
3829.02	0.0005268
3838.67	0.000255
3848.31	0.0010912
3857.96	0.00042
3867.6	0.000721
3877.25	0.0006931
3886.89	0.0006764
3896.54	0.000843
3906.18	0.000157
3915.83	0.0004784
3925.47	0.0007159
3935.12	0.000537721
3944.76	0.0007705
3954.41	0.0006202
3964.05	0.0011535
3973.69	0.0007111
3983.34	0.0009554
3992.98	0.0004836
