Infrared Spectrum: m-Nitrobenzoyl azide
Formula: C 7 H 4 N 4 O 3
CAS: 3532-31-8
State: gas
Origin: EPA-IR VAPOR PHASE LIBRARY
1/CM	ABSORBANCE
549.8	0.001221
559.445	0.001977
569.09	0.002637
578.734	0.003567
588.379	0.003507
598.024	0.003907
607.669	0.004117
617.313	0.003797
626.958	0.003697
636.603	0.003547
646.248	0.004707
655.893	0.004967
665.537	0.006807
675.182	0.008387
684.827	0.006327
694.472	0.003437
704.116	0.002587
713.761	0.003797
723.406	0.008677
733.051	0.014857
742.695	0.009567
752.34	0.004777
761.985	0.004477
771.63	0.006757
781.275	0.015417
790.919	0.025797
800.564	0.015427
810.209	0.005207
819.854	0.001887
829.498	0.001467
839.143	0.0009521
848.788	0.0012383
858.433	0.0012059
868.078	0.001557
877.722	0.004157
887.367	0.008377
897.012	0.008267
906.657	0.004657
916.301	0.001817
925.946	0.0008368
935.591	0.0007619
945.236	0.0007818
954.88	0.0005841
964.525	0.000573
974.17	0.0006939
983.815	0.0005083
993.46	0.00043399
1003.1	0.0008162
1012.75	0.0008607
1022.39	0.0005464
1032.04	0.000789
1041.68	0.0011067
1051.33	0.001627
1060.97	0.003017
1070.62	0.004697
1080.26	0.004937
1089.91	0.003427
1099.55	0.002377
1109.2	0.001497
1118.84	0.002587
1128.49	0.004807
1138.13	0.005427
1147.78	0.005237
1157.42	0.005607
1167.07	0.005027
1176.71	0.004137
1186.36	0.002447
1196	0.001377
1205.64	0.0012176
1215.29	0.0008426
1224.93	0.0006199
1234.58	0.0011619
1244.22	0.0011772
1253.87	0.001487
1263.51	0.002727
1273.16	0.003407
1282.8	0.003347
1292.45	0.004277
1302.09	0.004677
1311.74	0.003997
1321.38	0.005057
1331.03	0.010167
1340.67	0.023097
1350.32	0.049917
1359.96	0.052277
1369.61	0.017377
1379.25	0.005197
1388.9	0.002847
1398.54	0.002267
1408.18	0.002037
1417.83	0.002177
1427.47	0.002277
1437.12	0.002357
1446.76	0.002767
1456.41	0.003327
1466.05	0.004117
1475.7	0.005427
1485.34	0.007617
1494.99	0.010727
1504.63	0.014727
1514.28	0.016717
1523.92	0.019607
1533.57	0.039467
1543.21	0.075487
1552.86	0.082307
1562.5	0.056177
1572.15	0.036547
1581.79	0.029677
1591.44	0.021777
1601.08	0.011847
1610.73	0.013257
1620.37	0.012047
1630.01	0.006337
1639.66	0.003587
1649.3	0.002867
1658.95	0.002267
1668.59	0.001827
1678.24	0.001397
1687.88	0.0011563
1697.53	0.0012018
1707.17	0.0012671
1716.82	0.0010172
1726.46	0.0006389
1736.11	0.0005704
1745.75	0.0006141
1755.4	0.0006682
1765.04	0.0008045
1774.69	0.00101
1784.33	0.0010649
1793.98	0.0011175
1803.62	0.0010465
1813.27	0.0010463
1822.91	0.000891
1832.55	0.0007442
1842.2	0.0005998
1851.84	0.0006019
1861.49	0.0007279
1871.13	0.0008436
1880.78	0.0011365
1890.42	0.0010233
1900.07	0.0006705
1909.71	0.000598
1919.36	0.0006484
1929	0.0007361
1938.65	0.0010369
1948.29	0.0010951
1957.94	0.0008574
1967.58	0.000619
1977.23	0.0006573
1986.87	0.0005545
1996.52	0.0005622
2006.16	0.0005412
2015.81	0.0005536
2025.45	0.0005508
2035.1	0.0008041
2044.74	0.00079
2054.38	0.0010032
2064.03	0.0011834
2073.67	0.001417
2083.32	0.001487
2092.96	0.001787
2102.61	0.002177
2112.25	0.002537
2121.9	0.002917
2131.54	0.003717
2141.19	0.004437
2150.83	0.005737
2160.48	0.007347
2170.12	0.009427
2179.77	0.013127
2189.41	0.018657
2199.06	0.024357
2208.7	0.029337
2218.35	0.034067
2227.99	0.040727
2237.64	0.054417
2247.28	0.085167
2256.92	0.165767
2266.57	0.310477
2276.21	0.316747
2285.86	0.171377
2295.5	0.097397
2305.15	0.069027
2314.79	0.048007
2324.44	0.036937
2334.08	0.033807
2343.73	0.029797
2353.37	0.024867
2363.02	0.020617
2372.66	0.016137
2382.31	0.010877
2391.95	0.007387
2401.6	0.005817
2411.24	0.005037
2420.89	0.003817
2430.53	0.002877
2440.18	0.002257
2449.82	0.001887
2459.47	0.001627
2469.11	0.001457
2478.75	0.0013073
2488.4	0.0012484
2498.04	0.0010167
2507.69	0.0010642
2517.33	0.0009213
2526.98	0.0008115
2536.62	0.0007394
2546.27	0.0007086
2555.91	0.0007797
2565.56	0.0007915
2575.2	0.0007524
2584.85	0.000766
2594.49	0.0007975
2604.14	0.0007414
2613.78	0.000825
2623.43	0.000745
2633.07	0.0006933
2642.72	0.0007621
2652.36	0.0005892
2662.01	0.0007408
2671.65	0.0008099
2681.29	0.001013
2690.94	0.001126
2700.58	0.001242
2710.23	0.0012305
2719.87	0.001186
2729.52	0.0010175
2739.16	0.0009785
2748.81	0.0007711
2758.45	0.0008158
2768.1	0.0006978
2777.74	0.0007132
2787.39	0.0006323
2797.03	0.0005842
2806.68	0.0005034
2816.32	0.0006885
2825.97	0.0007817
2835.61	0.0009059
2845.26	0.0008213
2854.9	0.0010863
2864.55	0.0010943
2874.19	0.001357
2883.84	0.001527
2893.48	0.001397
2903.12	0.001507
2912.77	0.001597
2922.41	0.001547
2932.06	0.001387
2941.7	0.0013312
2951.35	0.0012383
2960.99	0.0011208
2970.64	0.0006183
2980.28	0.0005808
2989.93	0.0004806
2999.57	0.0008374
3009.22	0.0007575
3018.86	0.0012191
3028.51	0.0010069
3038.15	0.0012292
3047.8	0.001527
3057.44	0.002037
3067.09	0.002577
3076.73	0.003247
3086.38	0.003657
3096.02	0.003087
3105.67	0.001997
3115.31	0.0011205
3124.95	0.0006082
3134.6	0.0006377
3144.24	0.00044576
3153.89	0.0010275
3163.53	0.000942
3173.18	0.0009673
3182.82	0.0007344
3192.47	0.0008301
3202.11	0.0005531
3211.76	0.0004751
3221.4	0.00039767
3231.05	0.0005165
3240.69	0.00042446
3250.34	0.00043183
3259.98	0.0005081
3269.63	0.0004479
3279.27	0.0003073
3288.92	0.00034535
3298.56	0.000323
3308.21	0.00042119
3317.85	0.00041443
3327.49	0.0004801
3337.14	0.0006189
3346.78	0.0006547
3356.43	0.0008602
3366.07	0.0009911
3375.72	0.0007911
3385.36	0.0008002
3395.01	0.0011034
3404.65	0.0012083
3414.3	0.001567
3423.94	0.001937
3433.59	0.001767
3443.23	0.001417
3452.88	0.0010778
3462.52	0.0009814
3472.17	0.0005847
3481.81	0.00038947
3491.46	0.0004651
3501.1	0.0005984
3510.75	0.0005562
3520.39	0.0005064
3530.04	0.0006684
3539.68	0.0006671
3549.32	0.0005831
3558.97	0.0005745
3568.61	0.0005599
3578.26	0.0004495
3587.9	0.0004544
3597.55	0.0007197
3607.19	0.0007608
3616.84	0.0008985
3626.48	0.0008928
3636.13	0.0007972
3645.77	0.0008802
3655.42	0.0010732
3665.06	0.0013012
3674.71	0.001627
3684.35	0.001997
3694	0.001617
3703.64	0.001517
3713.29	0.0012276
3722.93	0.0011674
3732.58	0.0009554
3742.22	0.0006428
3751.86	0.0011017
3761.51	0.0011707
3771.15	0.001242
3780.8	0.0012357
3790.44	0.0010128
3800.09	0.0009433
3809.73	0.0007026
3819.38	0.0006922
3829.02	0.0006545
3838.67	0.0005674
3848.31	0.00040571
3857.96	0.0005822
3867.6	0.0006774
3877.25	0.000593
3886.89	0.000532
3896.54	0.0004832
3906.18	0.0004841
3915.83	0.0004969
3925.47	1.2e-05
3935.12	0.0004724
3944.76	0.0002567
3954.41	0.0002917
3964.05	0.0003335
3973.69	0.0002657
3983.34	0.000194
3992.98	0.0003018
