Infrared Spectrum: 2-Methyl-7-octadecyne
Formula: C 19 H 36
CAS: 35354-38-2
State: gas
Instrument: HP-GC/MS/IRD
Origin: NIST Mass Spectrometry Data Center
1/CM	ABSORBANCE
550	0.00177
562	0.000195
574	0.0002
586	0.00015
598	0.000155
610	0.00021
622	0.000165
634	0.00018
646	0.000265
658	0.000205
670	0.000235
682	0.00033
694	0.00036
706	0.00053
718	0.0008
730	0.00082
742	0.000645
754	0.000635
766	0.000455
778	0.00043
790	0.00036
802	0.000365
814	0.00041
826	0.00035
838	0.000345
850	0.00033
862	0.000305
874	0.00037
886	0.00039
898	0.000415
910	0.00039
922	0.000385
934	0.00034
946	0.000335
958	0.00035
970	0.00039
982	0.00041
994	0.00044
1006	0.000355
1018	0.000355
1030	0.000345
1042	0.00035
1054	0.00036
1066	0.000385
1078	0.000375
1090	0.000355
1102	0.000355
1114	0.00045
1126	0.000435
1138	0.000395
1150	0.000465
1162	0.000655
1174	0.00065
1186	0.000545
1198	0.0005
1210	0.00053
1222	0.000525
1234	0.000525
1246	0.000555
1258	0.00068
1270	0.00083
1282	0.00098
1294	0.001165
1306	0.0014
1318	0.00182
1330	0.00295
1342	0.002625
1354	0.002505
1366	0.0023
1378	0.0021
1390	0.00186
1402	0.00103
1414	0.00093
1426	0.001295
1438	0.002925
1450	0.00375
1462	0.004425
1474	0.003125
1486	0.00143
1498	0.000765
1510	0.00042
1522	0.00028
1534	0.00025
1546	0.00022
1558	5.5e-05
1570	0.000215
1582	0.00025
1594	0.000285
1606	0.00022
1618	0.00014
1630	0.00016
1642	0.000145
1654	5e-06
1666	0.000145
1678	0.00013
1690	0.000115
1702	2e-05
1714	6.5e-05
1726	0.000125
1738	7.5e-05
1750	8.5e-05
1762	8e-05
1774	7.5e-05
1786	0.000125
1798	0.00011
1810	0.00012
1822	0.00012
1834	0.000135
1846	0.00013
1858	0.00011
1870	0.0001
1882	0.00011
1894	0.000105
1906	0.000115
1918	9.5e-05
1930	0.00012
1942	0.0001
1954	0.000105
1966	8e-05
1978	9e-05
1990	0.0001
2002	0.00014
2014	0.00013
2026	0.000155
2038	0.00016
2050	0.00015
2062	0.000135
2074	0.000135
2086	0.00013
2098	0.00011
2110	0.00012
2122	0.000115
2134	0.00013
2146	0.00012
2158	0.000105
2170	0.000105
2182	0.000135
2194	0.000135
2206	0.000145
2218	9e-05
2230	0.00011
2242	0.000105
2254	0.00014
2266	0.00012
2278	0.000135
2290	0.00013
2302	0.00011
2314	0.00011
2326	0.000115
2338	9e-05
2350	0.000105
2362	9.5e-05
2374	0.00011
2386	0.00013
2398	0.000135
2410	0.00013
2422	0.000115
2434	0.000105
2446	0.0001
2458	0.000115
2470	0.000125
2482	0.00013
2494	0.00011
2506	0.000135
2518	0.00016
2530	0.000175
2542	0.000195
2554	0.000235
2566	0.000265
2578	0.000285
2590	0.00032
2602	0.000325
2614	0.000375
2626	0.00043
2638	0.000475
2650	0.00052
2662	0.00056
2674	0.0006
2686	0.000605
2698	0.0006
2710	0.000585
2722	0.000645
2734	0.000705
2746	0.00076
2758	0.000805
2770	0.000885
2782	0.001015
2794	0.001265
2806	0.00162
2818	0.002195
2830	0.00318
2842	0.00577
2854	0.012715
2866	0.018075
2878	0.014995
2890	0.01324
2902	0.01657
2914	0.02519
2926	0.04052
2938	0.04956
2950	0.03145
2962	0.02544
2974	0.01613
2986	0.006485
2998	0.003465
3010	0.0022
3022	0.001595
3034	0.00128
3046	0.00109
3058	0.00091
3070	0.00079
3082	0.00074
3094	0.000695
3106	0.000595
3118	0.000565
3130	0.000565
3142	0.00053
3154	0.000485
3166	0.0005
3178	0.000495
3190	0.000445
3202	0.000395
3214	0.00033
3226	0.000335
3238	0.0003
3250	0.000275
3262	0.000255
3274	0.00026
3286	0.000275
3298	0.000235
3310	0.00027
3322	0.000245
3334	0.00028
3346	0.000275
3358	0.000235
3370	0.00023
3382	0.00024
3394	0.000195
3406	0.000205
3418	0.00022
3430	0.000195
3442	0.000195
3454	0.000195
3466	0.00021
3478	0.00017
3490	0.00016
3502	0.00013
3514	0.000165
3526	0.00014
3538	0.00015
3550	0.000155
3562	0.000115
3574	0.000145
3586	0.000115
3598	0.00014
3610	0.00011
3622	0.00016
3634	0.000185
3646	0.00018
3658	0.00014
3670	0.000165
3682	0.000215
3694	0.000185
3706	0.00016
3718	0.000185
3730	0.000145
3742	5.5e-05
3754	9e-05
3766	0.00017
3778	0.00019
3790	0.000175
3802	0.000125
3814	0.000165
3826	0.000175
3838	0.000125
