Infrared Spectrum: Dimethyl diallylmalonate
Formula: C 11 H 16 O 4
CAS: 35357-77-8
State: gas
Origin: EPA-IR VAPOR PHASE LIBRARY
1/CM	ABSORBANCE
549.9	0.00424
559.547	0.00394
569.193	0.00362
578.84	0.00366
588.486	0.00375
598.133	0.00424
607.779	0.00546
617.426	0.00776
627.072	0.01139
636.719	0.01347
646.365	0.01295
656.012	0.01213
665.658	0.0104
675.305	0.00899
684.951	0.0084
694.598	0.00773
704.245	0.00673
713.891	0.00534
723.538	0.00416
733.184	0.0036
742.831	0.0034283
752.477	0.00353
762.124	0.00404
771.77	0.00438
781.417	0.00447
791.063	0.00461
800.71	0.00558
810.356	0.00752
820.003	0.00729
829.649	0.00658
839.296	0.01048
848.943	0.01593
858.589	0.01249
868.236	0.00886
877.882	0.00958
887.529	0.01096
897.175	0.01277
906.822	0.02512
916.468	0.05926
926.115	0.05642
935.761	0.02452
945.408	0.01557
955.054	0.01577
964.701	0.02013
974.347	0.02433
983.994	0.03032
993.64	0.03752
1003.29	0.02781
1012.93	0.02303
1022.58	0.0303
1032.23	0.03866
1041.87	0.04169
1051.52	0.03908
1061.17	0.03453
1070.81	0.03362
1080.46	0.03562
1090.11	0.0372
1099.75	0.03948
1109.4	0.04257
1119.05	0.05007
1128.69	0.06664
1138.34	0.08313
1147.99	0.08302
1157.63	0.06837
1167.28	0.0633
1176.92	0.08498
1186.57	0.12929
1196.22	0.1762
1205.86	0.21346
1215.51	0.22813
1225.16	0.19981
1234.8	0.14294
1244.45	0.10063
1254.1	0.08725
1263.74	0.07009
1273.39	0.05949
1283.04	0.06504
1292.68	0.05216
1302.33	0.03517
1311.98	0.02777
1321.62	0.03185
1331.27	0.03294
1340.92	0.02216
1350.56	0.01475
1360.21	0.01116
1369.86	0.00943
1379.5	0.00852
1389.15	0.00819
1398.79	0.00891
1408.44	0.01248
1418.09	0.01811
1427.73	0.03194
1437.38	0.06223
1447.03	0.04991
1456.67	0.02426
1466.32	0.01587
1475.97	0.01188
1485.61	0.00935
1495.26	0.00813
1504.91	0.00738
1514.55	0.00697
1524.2	0.00661
1533.85	0.00641
1543.49	0.00629
1553.14	0.00636
1562.79	0.0064
1572.43	0.0062
1582.08	0.00593
1591.73	0.00562
1601.37	0.00551
1611.02	0.00607
1620.67	0.00779
1630.31	0.0136
1639.96	0.02107
1649.6	0.01361
1659.25	0.00742
1668.9	0.00701
1678.54	0.00772
1688.19	0.00939
1697.84	0.01293
1707.48	0.01966
1717.13	0.02897
1726.78	0.04572
1736.42	0.10714
1746.07	0.23969
1755.72	0.26974
1765.36	0.16572
1775.01	0.07237
1784.66	0.03019
1794.3	0.01846
1803.95	0.01378
1813.6	0.01112
1823.24	0.00968
1832.89	0.01012
1842.54	0.011
1852.18	0.00856
1861.83	0.00544
1871.47	0.00406
1881.12	0.00362
1890.77	0.0034266
1900.41	0.0032805
1910.06	0.0033139
1919.71	0.0032044
1929.35	0.0032172
1939	0.0031889
1948.65	0.0031864
1958.29	0.0031913
1967.94	0.0032962
1977.59	0.0034397
1987.23	0.0034203
1996.88	0.0034361
2006.53	0.0034602
2016.17	0.00352
2025.82	0.00353
2035.47	0.00352
2045.11	0.003423
2054.76	0.0032979
2064.41	0.0031913
2074.05	0.003054
2083.7	0.0029162
2093.35	0.0027398
2102.99	0.0026621
2112.64	0.00249152
2122.28	0.002332
2131.93	0.002266
2141.58	0.002225
2151.22	0.002204
2160.87	0.002136
2170.52	0.002075
2180.16	0.002001
2189.81	0.001874
2199.46	0.001767
2209.1	0.001669
2218.75	0.00152
2228.4	0.001492
2238.04	0.00144
2247.69	0.00145
2257.34	0.0014
2266.98	0.0014
2276.63	0.00143
2286.28	0.001484
2295.92	0.0014
2305.57	0.0014
2315.22	0.00145
2324.86	0.001474
2334.51	0.00147
2344.16	0.001512
2353.8	0.001488
2363.45	0.001524
2373.09	0.001518
2382.74	0.001626
2392.39	0.001666
2402.03	0.001659
2411.68	0.001677
2421.33	0.001521
2430.97	0.001472
2440.62	0.0014
2450.27	0.00132
2459.91	0.00128
2469.56	0.00115
2479.21	0.00112
2488.85	0.00112
2498.5	0.00107
2508.15	0.00104
2517.79	0.00102
2527.44	0.00101
2537.09	0.00101
2546.73	0.00108
2556.38	0.00119
2566.03	0.00123
2575.67	0.00127
2585.32	0.00122
2594.96	0.00121
2604.61	0.00116
2614.26	0.00107
2623.9	0.00101
2633.55	0.00094
2643.2	0.0009
2652.84	0.00099
2662.49	0.00085
2672.14	0.0008
2681.78	0.00073
2691.43	0.00062
2701.08	0.00067
2710.72	0.00064
2720.37	0.00064
2730.02	0.00062
2739.66	0.00068
2749.31	0.00074
2758.96	0.0008
2768.6	0.00091
2778.25	0.00081
2787.9	0.00079
2797.54	0.00083
2807.19	0.00121
2816.84	0.001816
2826.48	0.0029653
2836.13	0.00649
2845.77	0.01181
2855.42	0.00922
2865.07	0.00578
2874.71	0.00569
2884.36	0.00691
2894.01	0.00965
2903.65	0.01268
2913.3	0.01624
2922.95	0.0199
2932.59	0.02201
2942.24	0.02804
2951.89	0.05576
2961.53	0.07893
2971.18	0.04006
2980.83	0.02754
2990.47	0.03183
3000.12	0.02708
3009.77	0.02385
3019.41	0.0225
3029.06	0.01946
3038.71	0.01425
3048.35	0.01041
3058	0.00989
3067.64	0.0128
3077.29	0.02267
3086.94	0.03738
3096.58	0.01862
3106.23	0.00545
3115.88	0.00355
3125.52	0.0026658
3135.17	0.002219
3144.82	0.001692
3154.46	0.00144
3164.11	0.00089
3173.76	0.00074
3183.4	0.00062
3193.05	0.00059
3202.7	0.00043
3212.34	0.00042
3221.99	0.00022
3231.64	0.00019
3241.28	0.00012
3250.93	0.0001
3260.58	6e-05
3270.22	9e-05
3279.87	0.00014
3289.52	0.00022
3299.16	0.00013
3308.81	2e-05
3318.45	6e-05
3328.1	0.00033
3337.75	0.00035
3347.39	0.00035
3357.04	0.00029
3366.69	0.00041
3376.33	0.00045
3385.98	0.00038
3395.63	0.00054
3405.27	0.00041
3414.92	0.00055
3424.57	0.00065
3434.21	0.00069
3443.86	0.00084
3453.51	0.00122
3463.15	0.001591
3472.8	0.00196
3482.45	0.0026958
3492.09	0.0028997
3501.74	0.0026954
3511.39	0.00214
3521.03	0.00147
3530.68	0.00133
3540.33	0.00103
3549.97	0.00104
3559.62	0.00104
3569.26	0.00108
3578.91	0.00097
3588.56	0.00099
3598.2	0.0009
3607.85	0.00083
3617.5	0.001
3627.14	0.00093
3636.79	0.0009
3646.44	0.00086
3656.08	0.00094
3665.73	0.00093
3675.38	0.00092
3685.02	0.00098
3694.67	0.00101
3704.32	0.00109
3713.96	0.00111
3723.61	0.00115
3733.26	0.0011
3742.9	0.00116
3752.55	0.00105
3762.2	0.00111
3771.84	0.00105
3781.49	0.00104
3791.13	0.00116
3800.78	0.00112
3810.43	0.00114
3820.07	0.00121
3829.72	0.0012
3839.37	0.00112
3849.01	0.00121
3858.66	0.00134
3868.31	0.00132
3877.95	0.00134
3887.6	0.00126
3897.25	0.00137
3906.89	0.00137
3916.54	0.00135
3926.19	0.00128
3935.83	0.00132
3945.48	0.00138
3955.13	0.00138
3964.77	0.00136
3974.42	0.00144
3984.07	0.001503
3993.71	0.00145
