Infrared Spectrum: cis-2-Methyl-7-octadecene
Formula: C 19 H 38
CAS: 35354-39-3
State: gas
Origin: EPA-IR VAPOR PHASE LIBRARY
1/CM	ABSORBANCE
549.8	6.9e-05
559.446	0.000345
569.092	0.000488
578.738	0.0005735
588.384	0.0010579
598.03	0.0011486
607.676	0.0009494
617.322	0.0007517
626.968	0.0008006
636.614	0.0007449
646.26	0.0010004
655.906	0.0012998
665.552	0.001945
675.198	0.002775
684.844	0.004145
694.49	0.005185
704.136	0.006355
713.782	0.007365
723.428	0.006915
733.073	0.005805
742.719	0.004385
752.365	0.003165
762.011	0.002625
771.657	0.002105
781.303	0.001865
790.949	0.0014981
800.595	0.001421
810.241	0.0012806
819.887	0.0013281
829.533	0.0013686
839.179	0.0014247
848.825	0.00132
858.471	0.001426
868.117	0.0012608
877.763	0.0013467
887.409	0.0015159
897.055	0.0013904
906.701	0.0014077
916.347	0.0014327
925.993	0.0013749
935.639	0.0013538
945.285	0.0014472
954.931	0.002085
964.577	0.002995
974.223	0.002275
983.869	0.001825
993.515	0.0015937
1003.16	0.001645
1012.81	0.001745
1022.45	0.001895
1032.1	0.001735
1041.74	0.001685
1051.39	0.001611
1061.04	0.0015707
1070.68	0.0015694
1080.33	0.0013107
1089.97	0.001178
1099.62	0.0011592
1109.27	0.0014226
1118.91	0.0015813
1128.56	0.0015311
1138.2	0.0014023
1147.85	0.0013685
1157.5	0.002035
1167.14	0.002825
1176.79	0.002145
1186.43	0.001725
1196.08	0.001625
1205.73	0.0015591
1215.37	0.0015502
1225.02	0.001645
1234.66	0.001755
1244.31	0.001915
1253.96	0.002355
1263.6	0.002735
1273.25	0.003075
1282.89	0.003215
1292.54	0.003635
1302.19	0.004385
1311.83	0.004905
1321.48	0.004885
1331.12	0.005085
1340.77	0.006475
1350.42	0.008005
1360.06	0.007895
1369.71	0.008525
1379.35	0.008105
1389	0.008425
1398.65	0.006135
1408.29	0.005045
1417.94	0.003655
1427.58	0.004685
1437.23	0.008095
1446.88	0.013385
1456.52	0.018625
1466.17	0.019465
1475.81	0.012375
1485.46	0.006185
1495.11	0.003565
1504.75	0.002355
1514.4	0.001615
1524.04	0.0012485
1533.69	0.000974
1543.34	0.0008416
1552.98	0.0007813
1562.63	0.0007568
1572.27	0.0007257
1581.92	0.0007705
1591.57	0.0007476
1601.21	0.000722
1610.86	0.0007454
1620.5	0.0008625
1630.15	0.0010416
1639.79	0.0013903
1649.44	0.001635
1659.09	0.0014091
1668.73	0.0011337
1678.38	0.0011603
1688.02	0.0010607
1697.67	0.0008771
1707.32	0.0008302
1716.96	0.00065613
1726.61	0.000619093
1736.25	0.0005495
1745.9	0.000474
1755.55	0.000486
1765.19	0.00046
1774.84	0.000467
1784.48	0.00041
1794.13	0.000457
1803.78	0.000435
1813.42	0.00045
1823.07	0.000507
1832.71	0.000421
1842.36	0.000395
1852.01	0.000476
1861.65	0.000451
1871.3	0.000429
1880.94	0.000376
1890.59	0.000373
1900.24	0.000396
1909.88	0.000314
1919.53	0.000392
1929.17	0.0004
1938.82	0.000403
1948.47	0.000357
1958.11	0.000311
1967.76	0.000382
1977.4	0.000398
1987.05	0.000392
1996.7	0.000469
2006.34	0.000466
2015.99	0.000491
2025.63	0.0005316
2035.28	0.0005408
2044.93	0.0005817
2054.57	0.0005921
2064.22	0.0005433
2073.86	0.000515
2083.51	0.000479
2093.16	0.000447
2102.8	0.000442
2112.45	0.000459
2122.09	0.000401
2131.74	0.000459
2141.39	0.000475
2151.03	0.000508
2160.68	0.0005428
2170.32	0.000495
2179.97	0.0005393
2189.62	0.000525
2199.26	0.0005697
2208.91	0.000478
2218.55	0.0005453
2228.2	0.000447
2237.85	0.000482
2247.49	0.000489
2257.14	0.0005584
2266.78	0.00065716
2276.43	0.00054
2286.08	0.00060912
2295.72	0.000624501
2305.37	0.000514
2315.01	0.000577
2324.66	0.0005592
2334.31	0.0005538
2343.95	0.000509
2353.6	0.000479
2363.24	0.0005909
2372.89	0.0005295
2382.53	0.00065829
2392.18	0.00071168
2401.83	0.00067397
2411.47	0.00065668
2421.12	0.00066031
2430.76	0.00066878
2440.41	0.000623787
2450.06	0.00068432
2459.7	0.00067022
2469.35	0.00066019
2478.99	0.00067397
2488.64	0.0007487
2498.29	0.0008273
2507.93	0.0009149
2517.58	0.0009622
2527.22	0.0009533
2536.87	0.0009808
2546.52	0.0010152
2556.16	0.0010469
2565.81	0.0010923
2575.45	0.0011856
2585.1	0.0014213
2594.75	0.0014403
2604.39	0.001635
2614.04	0.001705
2623.68	0.001785
2633.33	0.001915
2642.98	0.002145
2652.62	0.002285
2662.27	0.002405
2671.91	0.002465
2681.56	0.002515
2691.21	0.002495
2700.85	0.002375
2710.5	0.002515
2720.14	0.002725
2729.79	0.002965
2739.44	0.003145
2749.08	0.003255
2758.73	0.003495
2768.37	0.003775
2778.02	0.004205
2787.67	0.004935
2797.31	0.006135
2806.96	0.007375
2816.6	0.009415
2826.25	0.012705
2835.9	0.018825
2845.54	0.033675
2855.19	0.066455
2864.83	0.088355
2874.48	0.072765
2884.13	0.063795
2893.77	0.062685
2903.42	0.080345
2913.06	0.112855
2922.71	0.174465
2932.36	0.236885
2942	0.180315
2951.65	0.119615
2961.29	0.118195
2970.94	0.093385
2980.59	0.043825
2990.23	0.024595
2999.88	0.020895
3009.52	0.028175
3019.17	0.021485
3028.82	0.010145
3038.46	0.006565
3048.11	0.005215
3057.75	0.004515
3067.4	0.004075
3077.04	0.003485
3086.69	0.003085
3096.34	0.002685
3105.98	0.002215
3115.63	0.002185
3125.27	0.001925
3134.92	0.001805
3144.57	0.001715
3154.21	0.0015588
3163.86	0.0015989
3173.5	0.0015815
3183.15	0.0013949
3192.8	0.0013552
3202.44	0.001228
3212.09	0.0009667
3221.73	0.0008694
3231.38	0.00068185
3241.03	0.000547
3250.67	0.000723
3260.32	0.00063008
3269.96	0.00067799
3279.61	0.000508
3289.26	0.0005216
3298.9	0.000486
3308.55	0.00049
3318.19	0.000401
3327.84	0.0005857
3337.49	0.000494
3347.13	0.0005572
3356.78	0.000438
3366.42	0.0005499
3376.07	0.000407
3385.72	0.000275
3395.36	0.000345
3405.01	0.00038
3414.65	0.000257
3424.3	0.000251
3433.95	0.000414
3443.59	0.000242
3453.24	0.000211
3462.88	0.000222
3472.53	0.00034
3482.18	0.000226
3491.82	0.000167
3501.47	0.000279
3511.11	0.000109
3520.76	0.000254
3530.41	0.000229
3540.05	0.000213
3549.7	0.00018
3559.34	0.000354
3568.99	0.000259
3578.64	0.000218
3588.28	0.000197
3597.93	0.000296
3607.57	0.000329
3617.22	0.00025
3626.87	0.000434
3636.51	0.000478
3646.16	0.000243
3655.8	0.000275
3665.45	0.000388
3675.1	0.000256
3684.74	0.000311
3694.39	0.000411
3704.03	0.0005623
3713.68	0.000344
3723.33	0.000614902
3732.97	0.000121
3742.62	0.000261
3752.26	0.000252
3761.91	0.000314
3771.56	0.000443
3781.2	0.000449
3790.85	0.000461
3800.49	0.00047
3810.14	0.000307
3819.78	0.000486
3829.43	0.000459
3839.08	0.000341
3848.72	0.000405
3858.37	0.000307
3868.01	0.000425
3877.66	0.000498
3887.31	0.000496
3896.95	0.000403
3906.6	0.0005304
3916.24	0.000356
3925.89	0.00044
3935.54	0.000307
3945.18	0.000485
3954.83	0.0005157
3964.47	0.000386
3974.12	0.000363
3983.77	0.0005262
3993.41	0.00062804
