Infrared Spectrum: 1-Bromo-5-methylhexane
Formula: C 7 H 15 Br
CAS: 35354-37-1
State: gas
Origin: EPA-IR VAPOR PHASE LIBRARY
1/CM	ABSORBANCE
549.8	0.002801
559.445	0.004101
569.09	0.007321
578.734	0.005511
588.379	0.002071
598.024	0.0008011
607.669	0.0012712
617.313	0.002011
626.958	0.003101
636.603	0.004391
646.248	0.007591
655.893	0.008651
665.537	0.004211
675.182	0.002521
684.827	0.001871
694.472	0.0014435
704.116	0.0016092
713.761	0.002471
723.406	0.004291
733.051	0.004401
742.695	0.004671
752.34	0.003411
761.985	0.0015243
771.63	0.001861
781.275	0.001781
790.919	0.002151
800.564	0.002831
810.209	0.003041
819.854	0.003041
829.498	0.002281
839.143	0.002531
848.788	0.002341
858.433	0.002511
868.078	0.002161
877.722	0.001921
887.367	0.001821
897.012	0.002071
906.657	0.002121
916.301	0.001751
925.946	0.001911
935.591	0.002171
945.236	0.002071
954.88	0.002131
964.525	0.002921
974.17	0.002391
983.815	0.002221
993.46	0.002071
1003.1	0.001971
1012.75	0.002591
1022.39	0.002481
1032.04	0.0015509
1041.68	0.001761
1051.33	0.001459
1060.97	0.0005911
1070.62	0.0013696
1080.26	0.001861
1089.91	0.002891
1099.55	0.0008746
1109.2	0.002071
1118.84	0.0007573
1128.49	0.002151
1138.13	0.002391
1147.78	0.0014787
1157.42	0.002171
1167.07	0.006231
1176.71	0.005101
1186.36	0.003941
1196	0.005621
1205.64	0.006661
1215.29	0.007641
1224.93	0.009001
1234.58	0.012791
1244.22	0.017651
1253.87	0.018461
1263.51	0.015251
1273.16	0.011341
1282.8	0.010881
1292.45	0.009951
1302.09	0.007761
1311.74	0.006991
1321.38	0.005951
1331.03	0.006071
1340.67	0.006511
1350.32	0.007111
1359.96	0.008811
1369.61	0.011161
1379.25	0.011781
1388.9	0.012311
1398.54	0.007371
1408.18	0.004121
1417.83	0.004291
1427.47	0.006611
1437.12	0.011771
1446.76	0.015291
1456.41	0.017261
1466.05	0.018721
1475.7	0.014941
1485.34	0.008421
1494.99	0.004811
1504.63	0.002631
1514.28	0.002251
1523.92	0.001911
1533.57	0.0012825
1543.21	0.0011702
1552.86	0.0013898
1562.5	0.0014289
1572.15	0.0011269
1581.79	0.0009949
1591.44	0.0007997
1601.08	0.0009047
1610.73	0.0011047
1620.37	0.0007798
1630.01	0.0010641
1639.66	0.0007816
1649.3	0.0010575
1658.95	0.0011006
1668.59	0.0012495
1678.24	0.0010283
1687.88	0.0012954
1697.53	0.0008595
1707.17	0.001018
1716.82	0.0008371
1726.46	0.0008076
1736.11	0.000645405
1745.75	0.000845
1755.4	0.0007871
1765.04	0.0008768
1774.69	0.00070328
1784.33	0.0008441
1793.98	0.0008741
1803.62	0.0008261
1813.27	0.0007843
1822.91	0.0008085
1832.55	0.00068215
1842.2	0.000882
1851.84	0.0008591
1861.49	0.000643809
1871.13	0.0007664
1880.78	0.0005415
1890.42	0.0006274
1900.07	0.0009011
1909.71	0.00066293
1919.36	0.0008238
1929	0.0011259
1938.65	0.0009145
1948.29	0.0007456
1957.94	0.0009554
1967.58	0.000876
1977.23	0.0009086
1986.87	0.0008858
1996.52	0.0010305
2006.16	0.0008352
2015.81	0.00069163
2025.45	0.0010351
2035.1	0.0010177
2044.74	0.0011971
2054.38	0.0008564
2064.03	0.0007757
2073.67	0.000904
2083.32	0.0008326
2092.96	0.0007663
2102.61	0.0010384
2112.25	0.00066108
2121.9	0.0009198
2131.54	0.0011732
2141.19	0.0009035
2150.83	0.0010761
2160.48	0.0009908
2170.12	0.001055
2179.77	0.0011389
2189.41	0.001161
2199.06	0.0011283
2208.7	0.0014116
2218.35	0.0009065
2227.99	0.00133
2237.64	0.0013094
2247.28	0.0011287
2256.92	0.0011069
2266.57	0.0010839
2276.21	0.0012501
2285.86	0.0011016
2295.5	0.0009847
2305.15	0.0011879
2314.79	0.0010424
2324.44	0.0013646
2334.08	0.0011644
2343.73	0.0014038
2353.37	0.0009916
2363.02	0.0013956
2372.66	0.0013544
2382.31	0.0013862
2391.95	0.0011662
2401.6	0.0011777
2411.24	0.0013624
2420.89	0.0010532
2430.53	0.0014545
2440.18	0.0015015
2449.82	0.0014456
2459.47	0.0013315
2469.11	0.0014059
2478.75	0.0011545
2488.4	0.0014968
2498.04	0.0014829
2507.69	0.0012097
2517.33	0.0014504
2526.98	0.0013448
2536.62	0.0013827
2546.27	0.0009868
2555.91	0.0015873
2565.56	0.0015364
2575.2	0.0013272
2584.85	0.0016221
2594.49	0.0013427
2604.14	0.001681
2613.78	0.002131
2623.43	0.002101
2633.07	0.002131
2642.72	0.002151
2652.36	0.002111
2662.01	0.001971
2671.65	0.002181
2681.29	0.001971
2690.94	0.002541
2700.58	0.002561
2710.23	0.002971
2719.87	0.002351
2729.52	0.003041
2739.16	0.003331
2748.81	0.003271
2758.45	0.003371
2768.1	0.003191
2777.74	0.003511
2787.39	0.003531
2797.03	0.004571
2806.68	0.005401
2816.32	0.006471
2825.97	0.007841
2835.61	0.012661
2845.26	0.020391
2854.9	0.029841
2864.55	0.037311
2874.19	0.047521
2883.84	0.053251
2893.48	0.053871
2903.12	0.060671
2912.77	0.072361
2922.41	0.079001
2932.06	0.090061
2941.7	0.100721
2951.35	0.105271
2960.99	0.134181
2970.64	0.125891
2980.28	0.056911
2989.93	0.025041
2999.57	0.015851
3009.22	0.015051
3018.86	0.012031
3028.51	0.006911
3038.15	0.005291
3047.8	0.004781
3057.44	0.003691
3067.09	0.003461
3076.73	0.003211
3086.38	0.002671
3096.02	0.002951
3105.67	0.002681
3115.31	0.002201
3124.95	0.002631
3134.6	0.002801
3144.24	0.002371
3153.89	0.002111
3163.53	0.002441
3173.18	0.002461
3182.82	0.002641
3192.47	0.001931
3202.11	0.001761
3211.76	0.001861
3221.4	0.0013563
3231.05	0.0016352
3240.69	0.0015268
3250.34	0.00073543
3259.98	0.0011778
3269.63	0.0012048
3279.27	0.00071855
3288.92	0.0008063
3298.56	0.0008194
3308.21	0.001641
3317.85	0.0009687
3327.49	0.000302
3337.14	0.0014402
3346.78	0.0013105
3356.43	0.0011476
3366.07	0.00063849
3375.72	0.0012899
3385.36	0.0007954
3395.01	0.00071116
3404.65	0.00070719
3414.3	0.0014504
3423.94	0.0005653
3433.59	0.0008761
3443.23	0.0012231
3452.88	0.0012011
3462.52	0.00051
3472.17	0.000311
3481.81	0.0007423
3491.46	0.000601
3501.1	0.0005524
3510.75	0.0007773
3520.39	0.0009541
3530.04	0.000291
3539.68	0.000271
3549.32	0.0009804
3558.97	0.0010465
3568.61	0.0010383
3578.26	0.0015613
3587.9	0.0012528
3597.55	0.0013044
3607.19	0.0010022
3616.84	0.00068091
3626.48	0.0007669
3636.13	0.0008446
3645.77	0.0010865
3655.42	0.0008096
3665.06	0.0008203
3674.71	0.0012412
3684.35	0.0008429
3694	0.0009347
3703.64	0.0008839
3713.29	0.000496
3722.93	0.0009973
3732.58	0.0008716
3742.22	0.0009373
3751.86	0.0011972
3761.51	0.0010987
3771.15	0.0006784
3780.8	0.0011404
3790.44	0.0009962
3800.09	0.001323
3809.73	0.001691
3819.38	0.0015497
3829.02	0.0008338
3838.67	0.0014304
3848.31	0.001771
3857.96	0.001299
3867.6	0.001355
3877.25	0.0015509
3886.89	0.00073965
3896.54	0.0008109
3906.18	0.0008672
3915.83	0.0009782
3925.47	0.001651
3935.12	0.0014917
3944.76	0.001444
3954.41	0.0008649
3964.05	0.0006144
3973.69	0.0010233
3983.34	0.001641
3992.98	0.0008017
