Infrared Spectrum: 2-(4-Chlorophenoxy)thioacetamide
Formula: C 8 H 8 Cl N O S
CAS: 35368-44-6
State: gas
Origin: EPA-IR VAPOR PHASE LIBRARY
1/CM	ABSORBANCE
549.8	0.00557
559.445	0.00606
569.09	0.00459
578.734	0.00369
588.379	0.00401
598.024	0.00346
607.669	0.004
617.313	0.00453
626.958	0.00692
636.603	0.01108
646.248	0.00987
655.893	0.00801
665.537	0.00768
675.182	0.00412
684.827	0.00285
694.472	0.0026
704.116	0.00212
713.761	0.00239
723.406	0.0018292
733.051	0.00245
742.695	0.00249
752.34	0.00263
761.985	0.00254
771.63	0.00301
781.275	0.0042
790.919	0.00502
800.564	0.00661
810.209	0.01144
819.854	0.01725
829.498	0.01977
839.143	0.01145
848.788	0.0073
858.433	0.00613
868.078	0.00567
877.722	0.00532
887.367	0.00545
897.012	0.00682
906.657	0.00733
916.301	0.00868
925.946	0.00922
935.591	0.0102
945.236	0.01287
954.88	0.01554
964.525	0.01701
974.17	0.01942
983.815	0.02147
993.46	0.02612
1003.1	0.03849
1012.75	0.0446
1022.39	0.04358
1032.04	0.03677
1041.68	0.02307
1051.33	0.01306
1060.97	0.01159
1070.62	0.01024
1080.26	0.01034
1089.91	0.02166
1099.55	0.02984
1109.2	0.0154
1118.84	0.00819
1128.49	0.00863
1138.13	0.0056
1147.78	0.00582
1157.42	0.0086
1167.07	0.02421
1176.71	0.02131
1186.36	0.01887
1196	0.04201
1205.64	0.06595
1215.29	0.06368
1224.93	0.06651
1234.58	0.07455
1244.22	0.04381
1253.87	0.02544
1263.51	0.02779
1273.16	0.03153
1282.8	0.02432
1292.45	0.02116
1302.09	0.01518
1311.74	0.01147
1321.38	0.01068
1331.03	0.01396
1340.67	0.02037
1350.32	0.02283
1359.96	0.02112
1369.61	0.02171
1379.25	0.03483
1388.9	0.06063
1398.54	0.04354
1408.18	0.0186
1417.83	0.01274
1427.47	0.01264
1437.12	0.01477
1446.76	0.0174
1456.41	0.01126
1466.05	0.01116
1475.7	0.02374
1485.34	0.08131
1494.99	0.09373
1504.63	0.02439
1514.28	0.01006
1523.92	0.0073
1533.57	0.00591
1543.21	0.00563
1552.86	0.00675
1562.5	0.01045
1572.15	0.02149
1581.79	0.04393
1591.44	0.05657
1601.08	0.04333
1610.73	0.02197
1620.37	0.01072
1630.01	0.00638
1639.66	0.00444
1649.3	0.00331
1658.95	0.00238
1668.59	0.00211
1678.24	0.0018616
1687.88	0.0014868
1697.53	0.0016853
1707.17	0.0017658
1716.82	0.0017125
1726.46	0.0018562
1736.11	0.00211
1745.75	0.00263
1755.4	0.00201
1765.04	0.00183
1774.69	0.0015782
1784.33	0.0016197
1793.98	0.0016176
1803.62	0.001753
1813.27	0.0019371
1822.91	0.0018777
1832.55	0.0017834
1842.2	0.00224
1851.84	0.0022
1861.49	0.00261
1871.13	0.00298
1880.78	0.00259
1890.42	0.00218
1900.07	0.0018521
1909.71	0.0016637
1919.36	0.0015056
1929	0.0012895
1938.65	0.001511
1948.29	0.0014835
1957.94	0.0016499
1967.58	0.0017086
1977.23	0.0015949
1986.87	0.0019746
1996.52	0.00204
2006.16	0.00203
2015.81	0.00213
2025.45	0.00204
2035.1	0.00214
2044.74	0.00223
2054.38	0.0018644
2064.03	0.0018954
2073.67	0.00207
2083.32	0.0017174
2092.96	0.0017854
2102.61	0.0015502
2112.25	0.0017065
2121.9	0.0011232
2131.54	0.0013643
2141.19	0.0013611
2150.83	0.001143
2160.48	0.00106515
2170.12	0.0011283
2179.77	0.0011948
2189.41	0.0014166
2199.06	0.0013006
2208.7	0.0014071
2218.35	0.001408
2227.99	0.0014924
2237.64	0.001288
2247.28	0.0015966
2256.92	0.0014442
2266.57	0.0009406
2276.21	0.0013186
2285.86	0.0017048
2295.5	0.0014057
2305.15	0.001469
2314.79	0.0012873
2324.44	0.0013804
2334.08	0.00105841
2343.73	0.00104889
2353.37	0.0012686
2363.02	0.00106705
2372.66	0.0013668
2382.31	0.0012805
2391.95	0.0013517
2401.6	0.0017204
2411.24	0.0015358
2420.89	0.0013413
2430.53	0.00108987
2440.18	0.0014218
2449.82	0.0016069
2459.47	0.0015925
2469.11	0.00104253
2478.75	0.000993269
2488.4	0.0015837
2498.04	0.0013513
2507.69	0.001184
2517.33	0.0011334
2526.98	0.00108039
2536.62	0.0013987
2546.27	0.0011959
2555.91	0.0009134
2565.56	0.0012707
2575.2	0.0010946
2584.85	0.00103828
2594.49	0.0011068
2604.14	0.0009582
2613.78	0.0008945
2623.43	0.00074
2633.07	0.000881
2642.72	0.00100342
2652.36	0.0011902
2662.01	0.000614
2671.65	0.000846
2681.29	0.0011509
2690.94	0.0012182
2700.58	0.00104033
2710.23	0.0012085
2719.87	0.0012223
2729.52	0.0011273
2739.16	0.0011462
2748.81	0.0013529
2758.45	0.00103921
2768.1	0.00101081
2777.74	0.0010832
2787.39	0.000644
2797.03	0.00108298
2806.68	0.00108887
2816.32	0.0011018
2825.97	0.0012512
2835.61	0.0011952
2845.26	0.0013092
2854.9	0.0017275
2864.55	0.0017309
2874.19	0.0014895
2883.84	0.0016774
2893.48	0.001492
2903.12	0.00225
2912.77	0.0018297
2922.41	0.00243
2932.06	0.00347
2941.7	0.0045
2951.35	0.00452
2960.99	0.00273
2970.64	0.0019583
2980.28	0.00235
2989.93	0.0012857
2999.57	0.0011686
3009.22	0.0016424
3018.86	0.0011548
3028.51	0.0018467
3038.15	0.00209
3047.8	0.00285
3057.44	0.0017613
3067.09	0.0018125
3076.73	0.0018483
3086.38	0.00206
3096.02	0.00265
3105.67	0.0019684
3115.31	0.0009799
3124.95	0.0008958
3134.6	0.0013771
3144.24	0.0011309
3153.89	0.0011249
3163.53	0.000846
3173.18	0.0013922
3182.82	0.0014506
3192.47	0.000881
3202.11	0.000852
3211.76	0.0012802
3221.4	0.00086
3231.05	0.0009219
3240.69	0.000815
3250.34	0.00101977
3259.98	0.0009009
3269.63	0.0010389
3279.27	0.0014357
3288.92	0.00105138
3298.56	0.0009533
3308.21	0.00079
3317.85	0.0009002
3327.49	0.0011099
3337.14	0.0015133
3346.78	0.00202
3356.43	0.00228
3366.07	0.00346
3375.72	0.00682
3385.36	0.01361
3395.01	0.02267
3404.65	0.01814
3414.3	0.00762
3423.94	0.00354
3433.59	0.0016492
3443.23	0.0016991
3452.88	0.001613
3462.52	0.0017432
3472.17	0.00299
3481.81	0.00373
3491.46	0.00648
3501.1	0.01034
3510.75	0.01559
3520.39	0.02547
3530.04	0.01562
3539.68	0.00444
3549.32	0.0017986
3558.97	0.0011685
3568.61	0.0013546
3578.26	0.001258
3587.9	0.000396
3597.55	0.000859
3607.19	0.0009141
3616.84	0.000662
3626.48	0.000646
3636.13	0.001348
3645.77	0.0011826
3655.42	0.0013325
3665.06	0.0009774
3674.71	0.000725
3684.35	0.0009596
3694	0.0014684
3703.64	0.0009331
3713.29	0.00074
3722.93	0.0009798
3732.58	0.000853
3742.22	0.000998919
3751.86	0.000346
3761.51	0.000303
3771.15	0.000161
3780.8	0.0011329
3790.44	0.0019434
3800.09	0.00101249
3809.73	0.0009664
3819.38	0.000657
3829.02	0.0012975
3838.67	0.0016539
3848.31	0.0011543
3857.96	0.0009627
3867.6	0.000768
3877.25	0.000454
3886.89	0.000598
3896.54	0.000661
3906.18	0.000427
3915.83	0.00072
3925.47	0.001653
3935.12	0.0011357
3944.76	0.00101866
3954.41	0.0017175
3964.05	0.000761
3973.69	0.00108419
3983.34	0.0009564
3992.98	0.000699
