Infrared Spectrum: 9-Octadecyne
Formula: C 18 H 34
CAS: 35365-59-4
State: gas
Instrument: HP-GC/MS/IRD
Origin: NIST Mass Spectrometry Data Center
1/CM	ABSORBANCE
550	0.000812
562	0.000287
574	0.00028
586	0.000189
598	0.000175
610	9.8e-05
622	4.9e-05
634	0
646	8.4e-05
658	8.4e-05
670	3.5e-05
682	0.000147
694	0.000231
706	0.000609
718	0.000917
730	0.000903
742	0.000672
754	0.000623
766	0.000497
778	0.000385
790	0.000336
802	0.000266
814	0.000175
826	0.000133
838	0.00014
850	0.000154
862	0.000147
874	0.000189
886	0.000238
898	0.000231
910	0.000203
922	0.000168
934	0.000182
946	0.000231
958	0.000217
970	0.000217
982	0.000238
994	0.000266
1006	0.000259
1018	0.000336
1030	0.00035
1042	0.000336
1054	0.000315
1066	0.000245
1078	0.000161
1090	0.000168
1102	0.00021
1114	0.000301
1126	0.000133
1138	0.000154
1150	0.000147
1162	0.000161
1174	0.000238
1186	0.000252
1198	0.000308
1210	0.000343
1222	0.00035
1234	0.000371
1246	0.000476
1258	0.000546
1270	0.000784
1282	0.001064
1294	0.001302
1306	0.001645
1318	0.002163
1330	0.003689
1342	0.003157
1354	0.002751
1366	0.002086
1378	0.001743
1390	0.001386
1402	0.000973
1414	0.001029
1426	0.001617
1438	0.00392
1450	0.004816
1462	0.005474
1474	0.003577
1486	0.001554
1498	0.000847
1510	0.000665
1522	0.000455
1534	0.000308
1546	0.000273
1558	0.000287
1570	0.000161
1582	0.000133
1594	0.000119
1606	0.000119
1618	0.000112
1630	7.7e-05
1642	9.8e-05
1654	0.000147
1666	6.3e-05
1678	9.8e-05
1690	9.1e-05
1702	0.000105
1714	0.000105
1726	5.6e-05
1738	0.000105
1750	9.1e-05
1762	5.6e-05
1774	5.6e-05
1786	4.9e-05
1798	4.2e-05
1810	2.8e-05
1822	2.1e-05
1834	2.8e-05
1846	4.2e-05
1858	2.1e-05
1870	4.2e-05
1882	1.4e-05
1894	7e-06
1906	1.4e-05
1918	3.5e-05
1930	1.4e-05
1942	3.5e-05
1954	7e-06
1966	0
1978	2.1e-05
1990	4.9e-05
2002	4.2e-05
2014	7e-05
2026	9.8e-05
2038	9.8e-05
2050	8.4e-05
2062	5.6e-05
2074	7e-05
2086	5.6e-05
2098	5.6e-05
2110	4.2e-05
2122	5.6e-05
2134	4.2e-05
2146	5.6e-05
2158	6.3e-05
2170	4.9e-05
2182	4.9e-05
2194	5.6e-05
2206	4.9e-05
2218	4.2e-05
2230	5.6e-05
2242	5.6e-05
2254	6.3e-05
2266	3.5e-05
2278	5.6e-05
2290	4.9e-05
2302	7e-05
2314	7.7e-05
2326	7e-05
2338	8.4e-05
2350	5.6e-05
2362	0.000105
2374	8.4e-05
2386	7e-05
2398	4.9e-05
2410	4.2e-05
2422	2.1e-05
2434	0
2446	2.8e-05
2458	2.8e-05
2470	3.5e-05
2482	4.9e-05
2494	6.3e-05
2506	7e-05
2518	8.4e-05
2530	0.000126
2542	0.000119
2554	0.000154
2566	0.000161
2578	0.000182
2590	0.000217
2602	0.000252
2614	0.00028
2626	0.000357
2638	0.000448
2650	0.000518
2662	0.000567
2674	0.000637
2686	0.000644
2698	0.000553
2710	0.000532
2722	0.00056
2734	0.000651
2746	0.000749
2758	0.000805
2770	0.000945
2782	0.001162
2794	0.001512
2806	0.001974
2818	0.00273
2830	0.004144
2842	0.007728
2854	0.017493
2866	0.025613
2878	0.019649
2890	0.016639
2902	0.020251
2914	0.033054
2926	0.056588
2938	0.069209
2950	0.041377
2962	0.027804
2974	0.019908
2986	0.008708
2998	0.004781
3010	0.003066
3022	0.002226
3034	0.001694
3046	0.001295
3058	0.001071
3070	0.000875
3082	0.000735
3094	0.000651
3106	0.000511
3118	0.000469
3130	0.000399
3142	0.000364
3154	0.000364
3166	0.000329
3178	0.000301
3190	0.000231
3202	0.000217
3214	0.000147
3226	0.000119
3238	0.000112
3250	4.9e-05
3262	0.000105
3274	6.3e-05
3286	7.7e-05
3298	6.3e-05
3310	9.1e-05
3322	7e-05
3334	9.1e-05
3346	0.000119
3358	6.3e-05
3370	8.4e-05
3382	7e-05
3394	3.5e-05
3406	8.4e-05
3418	4.2e-05
3430	7.7e-05
3442	7.7e-05
3454	6.3e-05
3466	2.1e-05
3478	5.6e-05
3490	2.1e-05
3502	9.1e-05
3514	7e-06
3526	2.1e-05
3538	0
3550	3.5e-05
3562	2.1e-05
3574	7e-06
3586	7e-05
3598	4.9e-05
3610	0.000119
3622	0.000119
3634	0.000112
3646	0.000175
3658	0.000119
3670	0.000112
3682	9.8e-05
3694	6.3e-05
3706	0.000126
3718	0.000112
3730	0.000126
3742	0.000161
3754	0.000105
3766	9.8e-05
3778	0.000105
3790	8.4e-05
3802	0.00014
3814	0.000126
3826	0.000119
3838	0.000168
