Infrared Spectrum: 4-Iodothioanisole
Formula: C 7 H 7 I S
CAS: 35371-03-0
State: gas
Origin: EPA-IR VAPOR PHASE LIBRARY
1/CM	ABSORBANCE
549.8	0.0016954
559.445	0.00055
569.09	0.0019581
578.734	0.0018449
588.379	0.0017876
598.024	0.0019922
607.669	0.000995
617.313	0.00217
626.958	0.00267
636.603	0.00268
646.248	0.0012481
655.893	0.0020612
665.537	0.0018297
675.182	0.0020267
684.827	0.00232
694.472	0.001728
704.116	0.00295
713.761	0.00313
723.406	0.00486
733.051	0.0016911
742.695	0.00256
752.34	0.00265
761.985	0.00387
771.63	0.00393
781.275	0.0057
790.919	0.01268
800.564	0.0221
810.209	0.02386
819.854	0.01846
829.498	0.00731
839.143	0.00239
848.788	0.00248
858.433	0.00229
868.078	0.00251
877.722	0.002112
887.367	0.0021158
897.012	0.00227
906.657	0.001925
916.301	0.00237
925.946	0.00246
935.591	0.00256
945.236	0.00381
954.88	0.00557
964.525	0.01164
974.17	0.01079
983.815	0.00533
993.46	0.01344
1003.1	0.05287
1012.75	0.02892
1022.39	0.00565
1032.04	0.0041
1041.68	0.00359
1051.33	0.00715
1060.97	0.00897
1070.62	0.00654
1080.26	0.0132
1089.91	0.0475
1099.55	0.02377
1109.2	0.00739
1118.84	0.00436
1128.49	0.00299
1138.13	0.00364
1147.78	0.00298
1157.42	0.00227
1167.07	0.0021051
1176.71	0.0015405
1186.36	0.00292
1196	0.00306
1205.64	0.00349
1215.29	0.00441
1224.93	0.00362
1234.58	0.0015036
1244.22	0.00232
1253.87	0.00222
1263.51	0.00245
1273.16	0.0018507
1282.8	0.0023
1292.45	0.00226
1302.09	0.00311
1311.74	0.00412
1321.38	0.00578
1331.03	0.00425
1340.67	0.00304
1350.32	0.00258
1359.96	0.00372
1369.61	0.00641
1379.25	0.0089
1388.9	0.00845
1398.54	0.00633
1408.18	0.0057
1417.83	0.00701
1427.47	0.00906
1437.12	0.01218
1446.76	0.01404
1456.41	0.01516
1466.05	0.03994
1475.7	0.04488
1485.34	0.00888
1494.99	0.00376
1504.63	0.00336
1514.28	0.0032
1523.92	0.00364
1533.57	0.00327
1543.21	0.00341
1552.86	0.00358
1562.5	0.00318
1572.15	0.00268
1581.79	0.00272
1591.44	0.00251
1601.08	0.0032
1610.73	0.00329
1620.37	0.00384
1630.01	0.0037
1639.66	0.00273
1649.3	0.00227
1658.95	0.0018933
1668.59	0.0017802
1678.24	0.0014176
1687.88	0.0014724
1697.53	0.0016056
1707.17	0.0014378
1716.82	0.0016696
1726.46	0.0015654
1736.11	0.0015849
1745.75	0.0017268
1755.4	0.0018709
1765.04	0.00235
1774.69	0.00227
1784.33	0.0014822
1793.98	0.0014575
1803.62	0.0014549
1813.27	0.0016001
1822.91	0.0014066
1832.55	0.0013958
1842.2	0.0014207
1851.84	0.0015598
1861.49	0.0019868
1871.13	0.0024
1880.78	0.00287
1890.42	0.00271
1900.07	0.00264
1909.71	0.0019646
1919.36	0.0014978
1929	0.0016485
1938.65	0.0016125
1948.29	0.00121496
1957.94	0.0012355
1967.58	0.0013022
1977.23	0.000963
1986.87	0.00117852
1996.52	0.00114928
2006.16	0.0012738
2015.81	0.0013153
2025.45	0.0015067
2035.1	0.0013426
2044.74	0.0014422
2054.38	0.0013891
2064.03	0.0014539
2073.67	0.0013034
2083.32	0.001008
2092.96	0.00120702
2102.61	0.00111865
2112.25	0.0014995
2121.9	0.0015413
2131.54	0.00121462
2141.19	0.0013614
2150.83	0.0013175
2160.48	0.000931
2170.12	0.00116475
2179.77	0.0013752
2189.41	0.0012509
2199.06	0.0012589
2208.7	0.0013274
2218.35	0.0012448
2227.99	0.0013434
2237.64	0.001329
2247.28	0.0013842
2256.92	0.00117262
2266.57	0.0013455
2276.21	0.0015522
2285.86	0.0016894
2295.5	0.001447
2305.15	0.0015541
2314.79	0.001292
2324.44	0.00112984
2334.08	0.0015542
2343.73	0.0010215
2353.37	0.0013988
2363.02	0.0013155
2372.66	0.0015719
2382.31	0.00117421
2391.95	0.0018002
2401.6	0.0013714
2411.24	0.0013147
2420.89	0.00116975
2430.53	0.0012944
2440.18	0.0014546
2449.82	0.000934
2459.47	0.0013056
2469.11	0.0012502
2478.75	0.00113357
2488.4	0.0014336
2498.04	0.0013911
2507.69	0.000905
2517.33	0.0018908
2526.98	0.0013321
2536.62	0.0014632
2546.27	0.0012868
2555.91	0.0016439
2565.56	0.0016699
2575.2	0.0017932
2584.85	0.0012239
2594.49	0.00115156
2604.14	0.0012473
2613.78	0.0013145
2623.43	0.000987
2633.07	0.0010796
2642.72	0.0014823
2652.36	0.00101
2662.01	0.0015035
2671.65	0.00113652
2681.29	0.001299
2690.94	0.0014298
2700.58	0.001519
2710.23	0.0011691
2719.87	0.000763
2729.52	0.000943
2739.16	0.0012404
2748.81	0.000899
2758.45	0.00116202
2768.1	0.0015974
2777.74	0.0015588
2787.39	0.0017617
2797.03	0.00162
2806.68	0.0013661
2816.32	0.001887
2825.97	0.0024
2835.61	0.00266
2845.26	0.00345
2854.9	0.0033
2864.55	0.00318
2874.19	0.00232
2883.84	0.00295
2893.48	0.00329
2903.12	0.00377
2912.77	0.00551
2922.41	0.00829
2932.06	0.01634
2941.7	0.01095
2951.35	0.00612
2960.99	0.00474
2970.64	0.00385
2980.28	0.00438
2989.93	0.00606
2999.57	0.00768
3009.22	0.00567
3018.86	0.00378
3028.51	0.00315
3038.15	0.00288
3047.8	0.00327
3057.44	0.00394
3067.09	0.0059
3076.73	0.00737
3086.38	0.00639
3096.02	0.00359
3105.67	0.0019901
3115.31	0.0018253
3124.95	0.0019025
3134.6	0.0013328
3144.24	0.0015273
3153.89	0.000785
3163.53	0.0014041
3173.18	0.0018516
3182.82	0.001036
3192.47	0.000676
3202.11	0.0012952
3211.76	0.000962
3221.4	0.001018
3231.05	0.001001
3240.69	0.001553
3250.34	0.000916
3259.98	0.0012629
3269.63	0.0010718
3279.27	0.0012219
3288.92	0.000934
3298.56	0.001009
3308.21	0.000807
3317.85	0.000528
3327.49	0.00055
3337.14	0.0013734
3346.78	0.001788
3356.43	0.000515
3366.07	0.000611
3375.72	0.000625
3385.36	0.000725
3395.01	0.0017065
3404.65	0.0013343
3414.3	0.0016343
3423.94	0.000749
3433.59	0.00035
3443.23	0.0011542
3452.88	0.0010368
3462.52	0.0012362
3472.17	0.000815
3481.81	0.000845
3491.46	0.0010823
3501.1	0.0013808
3510.75	0.0017157
3520.39	0.000762
3530.04	0.0013652
3539.68	0.000815
3549.32	0.000484
3558.97	0.000883
3568.61	0.000531
3578.26	0.000791
3587.9	0.000738
3597.55	0.000797
3607.19	0.000974
3616.84	0.00111426
3626.48	0.000926
3636.13	0.000633
3645.77	0.000497
3655.42	0.0014229
3665.06	0.0013864
3674.71	0.000952
3684.35	0.00118805
3694	0.00111054
3703.64	0.0013951
3713.29	0.0016463
3722.93	0.0010794
3732.58	0.0012842
3742.22	0.0013629
3751.86	0.000876
3761.51	0.000785
3771.15	0.0010823
3780.8	0.000728
3790.44	0.00116281
3800.09	0.0015792
3809.73	0.00111629
3819.38	0.000735
3829.02	0.00042
3838.67	0.00233
3848.31	0.000891
3857.96	0.000912
3867.6	0.000578
3877.25	0.000185
3886.89	0.000757
3896.54	0.000438
3906.18	0.000639
3915.83	0.0015481
3925.47	0.0012307
3935.12	0.0014523
3944.76	0.000904
3954.41	0.000955
3964.05	0.0010205
3973.69	0.000797
3983.34	0.0016103
3992.98	0.001014
