Infrared Spectrum: 2-(2-Chlorophenoxy)thioacetamide
Formula: C 8 H 8 Cl N O S
CAS: 35370-94-6
State: gas
Origin: EPA-IR VAPOR PHASE LIBRARY
1/CM	ABSORBANCE
549.8	0.00524
559.445	0.0045
569.09	0.00408
578.734	0.00344
588.379	0.00381
598.024	0.0027
607.669	0.00336
617.313	0.00273
626.958	0.001618
636.603	0.001721
646.248	0.0024
655.893	0.0013275
665.537	0.00252
675.182	0.00448
684.827	0.00737
694.472	0.00532
704.116	0.00371
713.761	0.0043
723.406	0.00525
733.051	0.00916
742.695	0.0208
752.34	0.01976
761.985	0.00839
771.63	0.00411
781.275	0.00307
790.919	0.00298
800.564	0.0033
810.209	0.0035
819.854	0.00318
829.498	0.00349
839.143	0.00282
848.788	0.00449
858.433	0.00456
868.078	0.00386
877.722	0.00354
887.367	0.00404
897.012	0.00369
906.657	0.00452
916.301	0.00518
925.946	0.00653
935.591	0.00864
945.236	0.00986
954.88	0.01239
964.525	0.01471
974.17	0.01557
983.815	0.01731
993.46	0.02115
1003.1	0.02678
1012.75	0.03266
1022.39	0.03079
1032.04	0.02588
1041.68	0.02034
1051.33	0.02
1060.97	0.03287
1070.62	0.02274
1080.26	0.01298
1089.91	0.00949
1099.55	0.00844
1109.2	0.00686
1118.84	0.00904
1128.49	0.0087
1138.13	0.00975
1147.78	0.00494
1157.42	0.00638
1167.07	0.00467
1176.71	0.0058
1186.36	0.0055
1196	0.00835
1205.64	0.01414
1215.29	0.02728
1224.93	0.03757
1234.58	0.04312
1244.22	0.05113
1253.87	0.03197
1263.51	0.0339
1273.16	0.03279
1282.8	0.02552
1292.45	0.01975
1302.09	0.01255
1311.74	0.00882
1321.38	0.00738
1331.03	0.00875
1340.67	0.01248
1350.32	0.01635
1359.96	0.0174
1369.61	0.01647
1379.25	0.02335
1388.9	0.04822
1398.54	0.04761
1408.18	0.01968
1417.83	0.01156
1427.47	0.0115
1437.12	0.02088
1446.76	0.02286
1456.41	0.01313
1466.05	0.01649
1475.7	0.03867
1485.34	0.044
1494.99	0.01923
1504.63	0.00934
1514.28	0.00579
1523.92	0.00428
1533.57	0.00358
1543.21	0.00424
1552.86	0.00518
1562.5	0.00911
1572.15	0.01792
1581.79	0.03361
1591.44	0.04617
1601.08	0.03985
1610.73	0.01896
1620.37	0.009
1630.01	0.00526
1639.66	0.00368
1649.3	0.00305
1658.95	0.00272
1668.59	0.00248
1678.24	0.0021283
1687.88	0.0018479
1697.53	0.0017724
1707.17	0.0020252
1716.82	0.0016671
1726.46	0.0017425
1736.11	0.0018292
1745.75	0.0017018
1755.4	0.0019651
1765.04	0.0022142
1774.69	0.0022064
1784.33	0.0017404
1793.98	0.0019959
1803.62	0.001868
1813.27	0.0019032
1822.91	0.0018558
1832.55	0.0015042
1842.2	0.00140044
1851.84	0.0017008
1861.49	0.0016448
1871.13	0.0017639
1880.78	0.0021494
1890.42	0.0022897
1900.07	0.0021138
1909.71	0.0017969
1919.36	0.0016781
1929	0.0020219
1938.65	0.0018522
1948.29	0.0016929
1957.94	0.00145736
1967.58	0.001311
1977.23	0.0015203
1986.87	0.00145611
1996.52	0.0015998
2006.16	0.0015305
2015.81	0.0016255
2025.45	0.0016959
2035.1	0.0017419
2044.74	0.0016732
2054.38	0.0016824
2064.03	0.0015844
2073.67	0.001751
2083.32	0.0020026
2092.96	0.0018415
2102.61	0.0017798
2112.25	0.001503
2121.9	0.0013516
2131.54	0.00145818
2141.19	0.0016821
2150.83	0.00145619
2160.48	0.001177
2170.12	0.00142333
2179.77	0.0016351
2189.41	0.0015155
2199.06	0.0016382
2208.7	0.00115
2218.35	0.001243
2227.99	0.0014824
2237.64	0.0012802
2247.28	0.0013047
2256.92	0.001095
2266.57	0.001266
2276.21	0.001237
2285.86	0.0013706
2295.5	0.00142237
2305.15	0.001117
2314.79	0.0015415
2324.44	0.001448
2334.08	0.0018256
2343.73	0.001199
2353.37	0.00139091
2363.02	0.001567
2372.66	0.001099
2382.31	0.001025
2391.95	0.001277
2401.6	0.0013374
2411.24	0.0015211
2420.89	0.0013274
2430.53	0.00145583
2440.18	0.00106
2449.82	0.0015957
2459.47	0.0015813
2469.11	0.00140875
2478.75	0.00137992
2488.4	0.0015461
2498.04	0.00127
2507.69	0.001167
2517.33	0.0016393
2526.98	0.0017061
2536.62	0.001507
2546.27	0.0017048
2555.91	0.0017058
2565.56	0.0018728
2575.2	0.0015545
2584.85	0.00147534
2594.49	0.001121
2604.14	0.000541
2613.78	0.000842
2623.43	0.001022
2633.07	0.001182
2642.72	0.001175
2652.36	0.001174
2662.01	0.001175
2671.65	0.001335
2681.29	0.001179
2690.94	0.001181
2700.58	0.001004
2710.23	0.00138841
2719.87	0.0015503
2729.52	0.0016724
2739.16	0.001301
2748.81	0.0021046
2758.45	0.001067
2768.1	0.001355
2777.74	0.001206
2787.39	0.00137178
2797.03	0.001272
2806.68	0.00106
2816.32	0.001151
2825.97	0.001186
2835.61	0.00140018
2845.26	0.0013467
2854.9	0.001191
2864.55	0.001205
2874.19	0.0019733
2883.84	0.0020357
2893.48	0.0018256
2903.12	0.0014958
2912.77	0.0018634
2922.41	0.00282
2932.06	0.00319
2941.7	0.00327
2951.35	0.00396
2960.99	0.00272
2970.64	0.0020825
2980.28	0.00246
2989.93	0.0018965
2999.57	0.0016158
3009.22	0.001041
3018.86	0.0023674
3028.51	0.0017909
3038.15	0.0020218
3047.8	0.0019024
3057.44	0.00278
3067.09	0.00402
3076.73	0.00694
3086.38	0.00509
3096.02	0.0026
3105.67	0.0021611
3115.31	0.0015513
3124.95	0.000971
3134.6	0.0021638
3144.24	0.0017535
3153.89	0.0015103
3163.53	0.0019186
3173.18	0.000755
3182.82	0.0017233
3192.47	0.001123
3202.11	0.001104
3211.76	0.001097
3221.4	0.00061
3231.05	0.001218
3240.69	0.001227
3250.34	0.00135
3259.98	0.000934
3269.63	0.001084
3279.27	0.001074
3288.92	0.000622
3298.56	0.000967
3308.21	0.00143999
3317.85	0.0017965
3327.49	0.001274
3337.14	0.002155
3346.78	0.00244
3356.43	0.00359
3366.07	0.0059
3375.72	0.01452
3385.36	0.02518
3395.01	0.02059
3404.65	0.00865
3414.3	0.00398
3423.94	0.00253
3433.59	0.001718
3443.23	0.0020665
3452.88	0.0019585
3462.52	0.0018512
3472.17	0.00291
3481.81	0.00417
3491.46	0.00756
3501.1	0.01245
3510.75	0.0208
3520.39	0.02129
3530.04	0.00706
3539.68	0.00271
3549.32	0.0017717
3558.97	0.0017726
3568.61	0.001598
3578.26	0.00143228
3587.9	0.00147226
3597.55	0.0018492
3607.19	0.000982
3616.84	0.001134
3626.48	0.001135
3636.13	0.001195
3645.77	0.001273
3655.42	0.000976
3665.06	0.00155
3674.71	0.000743
3684.35	0.0016803
3694	0.000624
3703.64	0.000397
3713.29	0.001174
3722.93	0.0015283
3732.58	0.0016633
3742.22	0.000759
3751.86	0.000603
3761.51	0.001143
3771.15	0.000652
3780.8	0.0019869
3790.44	0.0016133
3800.09	0.0016946
3809.73	0.001043
3819.38	0.001026
3829.02	0.0013331
3838.67	0.000626
3848.31	0.001048
3857.96	0.0019428
3867.6	0.001659
3877.25	0.001046
3886.89	0.001182
3896.54	0.001014
3906.18	0.001161
3915.83	0.000794
3925.47	0.000697
3935.12	0.000786
3944.76	0.00086
3954.41	0.000688
3964.05	0.0013394
3973.69	0.001266
3983.34	0.00141002
3992.98	0.000976
