Infrared Spectrum: 2-(3-Chlorophenoxy)thioacetamide
Formula: C 8 H 8 Cl N O S
CAS: 35370-95-7
State: gas
Origin: EPA-IR VAPOR PHASE LIBRARY
1/CM	ABSORBANCE
549.8	0.004385
559.445	0.004785
569.09	0.004875
578.734	0.003835
588.379	0.004085
598.024	0.004065
607.669	0.004435
617.313	0.003255
626.958	0.002975
636.603	0.001825
646.248	0.002695
655.893	0.003145
665.537	0.005775
675.182	0.012195
684.827	0.013095
694.472	0.007305
704.116	0.003905
713.761	0.002645
723.406	0.002345
733.051	0.001525
742.695	0.003475
752.34	0.006115
761.985	0.014955
771.63	0.022155
781.275	0.014375
790.919	0.006655
800.564	0.005745
810.209	0.006265
819.854	0.004995
829.498	0.006165
839.143	0.010545
848.788	0.020025
858.433	0.024975
868.078	0.020885
877.722	0.016465
887.367	0.017785
897.012	0.018795
906.657	0.015475
916.301	0.012535
925.946	0.013065
935.591	0.014095
945.236	0.016885
954.88	0.021435
964.525	0.024285
974.17	0.026685
983.815	0.028875
993.46	0.033465
1003.1	0.038225
1012.75	0.053225
1022.39	0.069165
1032.04	0.067525
1041.68	0.049805
1051.33	0.027365
1060.97	0.019795
1070.62	0.025055
1080.26	0.023875
1089.91	0.026255
1099.55	0.023245
1109.2	0.013965
1118.84	0.007215
1128.49	0.005855
1138.13	0.004725
1147.78	0.006385
1157.42	0.008475
1167.07	0.007915
1176.71	0.009145
1186.36	0.015945
1196	0.035595
1205.64	0.065925
1215.29	0.066145
1224.93	0.056105
1234.58	0.051845
1244.22	0.049695
1253.87	0.036885
1263.51	0.048825
1273.16	0.049435
1282.8	0.036235
1292.45	0.033575
1302.09	0.023575
1311.74	0.015555
1321.38	0.016035
1331.03	0.020665
1340.67	0.027795
1350.32	0.030905
1359.96	0.029625
1369.61	0.029035
1379.25	0.044895
1388.9	0.082255
1398.54	0.060715
1408.18	0.027315
1417.83	0.023775
1427.47	0.030665
1437.12	0.031575
1446.76	0.028315
1456.41	0.023025
1466.05	0.038305
1475.7	0.064325
1485.34	0.047445
1494.99	0.017285
1504.63	0.008085
1514.28	0.006275
1523.92	0.006845
1533.57	0.008055
1543.21	0.010045
1552.86	0.014365
1562.5	0.026855
1572.15	0.058435
1581.79	0.118155
1591.44	0.145205
1601.08	0.103055
1610.73	0.039865
1620.37	0.017335
1630.01	0.009055
1639.66	0.006095
1649.3	0.004485
1658.95	0.003555
1668.59	0.002965
1678.24	0.002715
1687.88	0.002015
1697.53	0.002105
1707.17	0.002205
1716.82	0.002255
1726.46	0.002455
1736.11	0.002225
1745.75	0.002295
1755.4	0.002425
1765.04	0.002145
1774.69	0.001885
1784.33	0.001995
1793.98	0.001595
1803.62	0.001715
1813.27	0.001755
1822.91	0.001885
1832.55	0.002295
1842.2	0.002175
1851.84	0.001835
1861.49	0.001575
1871.13	0.001635
1880.78	0.001695
1890.42	0.001655
1900.07	0.001685
1909.71	0.002205
1919.36	0.002385
1929	0.001965
1938.65	0.001295
1948.29	0.001295
1957.94	0.001255
1967.58	0.001175
1977.23	0.001205
1986.87	0.001315
1996.52	0.001345
2006.16	0.001445
2015.81	0.001395
2025.45	0.001705
2035.1	0.001775
2044.74	0.001945
2054.38	0.001975
2064.03	0.001755
2073.67	0.001805
2083.32	0.001685
2092.96	0.001595
2102.61	0.001455
2112.25	0.001585
2121.9	0.001485
2131.54	0.001485
2141.19	0.001365
2150.83	0.001455
2160.48	0.001505
2170.12	0.001395
2179.77	0.001525
2189.41	0.001345
2199.06	0.001415
2208.7	0.0011046
2218.35	0.0008553
2227.99	0.0011222
2237.64	0.0011146
2247.28	0.001145
2256.92	0.0009849
2266.57	0.0011136
2276.21	0.001255
2285.86	0.001245
2295.5	0.0009961
2305.15	0.001215
2314.79	0.001415
2324.44	0.001625
2334.08	0.001305
2343.73	0.0010949
2353.37	0.0009999
2363.02	0.0008135
2372.66	0.001145
2382.31	0.001285
2391.95	0.001315
2401.6	0.001325
2411.24	0.0010957
2420.89	0.001255
2430.53	0.001495
2440.18	0.001715
2449.82	0.001335
2459.47	0.001815
2469.11	0.001195
2478.75	0.001315
2488.4	0.001315
2498.04	0.001385
2507.69	0.001665
2517.33	0.001245
2526.98	0.001185
2536.62	0.0009571
2546.27	0.0010787
2555.91	0.001205
2565.56	0.001235
2575.2	0.001059
2584.85	0.001165
2594.49	0.0010778
2604.14	0.0010376
2613.78	0.0009672
2623.43	0.0009131
2633.07	0.0008083
2642.72	0.0010495
2652.36	0.0006892
2662.01	0.0009657
2671.65	0.0011007
2681.29	0.0008061
2690.94	0.001175
2700.58	0.001445
2710.23	0.0010875
2719.87	0.001235
2729.52	0.001395
2739.16	0.001505
2748.81	0.001665
2758.45	0.0010257
2768.1	0.0008231
2777.74	0.0008799
2787.39	0.000948
2797.03	0.001205
2806.68	0.0009054
2816.32	0.0007826
2825.97	0.0007851
2835.61	0.001465
2845.26	0.001225
2854.9	0.001665
2864.55	0.001415
2874.19	0.001855
2883.84	0.001735
2893.48	0.001985
2903.12	0.002275
2912.77	0.002435
2922.41	0.002965
2932.06	0.004235
2941.7	0.004485
2951.35	0.005155
2960.99	0.004035
2970.64	0.002985
2980.28	0.002245
2989.93	0.001915
2999.57	0.001635
3009.22	0.001385
3018.86	0.001715
3028.51	0.002195
3038.15	0.002035
3047.8	0.002065
3057.44	0.002265
3067.09	0.003925
3076.73	0.004995
3086.38	0.005495
3096.02	0.003525
3105.67	0.002135
3115.31	0.0010704
3124.95	0.0010524
3134.6	0.0005435
3144.24	0.0010952
3153.89	0.001205
3163.53	0.0008234
3173.18	0.0009234
3182.82	0.001275
3192.47	0.0008806
3202.11	0.001235
3211.76	0.000983
3221.4	0.000856
3231.05	0.0010002
3240.69	0.0007884
3250.34	0.0007324
3259.98	0.0005699
3269.63	0.0002352
3279.27	0.0005889
3288.92	0.000655
3298.56	0.0004778
3308.21	0.0010494
3317.85	0.0010799
3327.49	0.00079
3337.14	0.0009572
3346.78	0.001335
3356.43	0.001875
3366.07	0.004265
3375.72	0.008145
3385.36	0.017195
3395.01	0.029245
3404.65	0.025665
3414.3	0.009695
3423.94	0.004385
3433.59	0.003055
3443.23	0.002565
3452.88	0.002325
3462.52	0.001735
3472.17	0.003185
3481.81	0.004785
3491.46	0.008195
3501.1	0.013225
3510.75	0.020535
3520.39	0.034055
3530.04	0.022085
3539.68	0.005105
3549.32	0.002155
3558.97	0.001575
3568.61	0.001077
3578.26	0.0010199
3587.9	0.001165
3597.55	0.001175
3607.19	0.001585
3616.84	0.001485
3626.48	0.0007144
3636.13	0.0002641
3645.77	0.001345
3655.42	0.0010778
3665.06	0.001025
3674.71	0.0008447
3684.35	0.0008415
3694	0.0007487
3703.64	0.001185
3713.29	0.0007874
3722.93	0.0010019
3732.58	0.0005478
3742.22	0.001024
3751.86	0.0002449
3761.51	0.0005478
3771.15	0.0009292
3780.8	0.000701
3790.44	0.0007327
3800.09	0.0004194
3809.73	0.0005572
3819.38	0.0011178
3829.02	0.001495
3838.67	0.0006305
3848.31	0.0004674
3857.96	0.0005221
3867.6	0.0005676
3877.25	0.0009818
3886.89	0.000718
3896.54	0.0008518
3906.18	0.001455
3915.83	0.000331
3925.47	0.0010389
3935.12	0.0003995
3944.76	0.001405
3954.41	0.0007686
3964.05	0.0010273
3973.69	0.0009519
3983.34	0.0005553
3992.98	0.001165
