Infrared Spectrum: NAPHTHALENE, 3,4,4a,5,6,7,8,8a-OCTAHYDRO-7-ISOPROPYLENE-1,4a-DIMETHYL-
Formula: C15 H24
CAS: 35387-23-6
State: SOLUTION (10% IN CCl4 FOR 4000-1300 CM^-^1, 10% IN CS2 FOR 1300-450 CM^-^1) VS. SOLVENT
Class: COBLENTZ III
Instrument: CARY 90 (GRATING)
Instrument parameters: GRATING CHANGES AT 3000, 2000, 1200 CM^-^1
Sampling: TRANSMISSION
Path length: 0.010 CM, 0.010 CM
Resolution: 4
Origin: WESTERN REGIONAL RES. USDA
1/CM	TRANSMITTANCE
447.059	0.628
456.347	0.62
465.635	0.607
474.923	0.594
484.211	0.578
493.499	0.568
502.787	0.576
512.075	0.596
521.363	0.583
530.65	0.473
539.938	0.561
549.226	0.607
558.514	0.611
567.802	0.59
577.09	0.631
586.378	0.579
595.666	0.649
604.954	0.656
614.242	0.663
623.53	0.667
632.818	0.673
642.106	0.68
651.394	0.656
660.682	0.648
669.97	0.665
679.257	0.695
688.545	0.699
697.833	0.7
707.121	0.625
716.409	0.67
725.697	0.728
734.985	0.727
744.273	0.731
753.561	0.696
762.849	0.657
772.137	0.652
781.425	0.551
790.713	0.379
800.001	0.632
809.289	0.665
818.577	0.646
827.865	0.708
837.152	0.675
846.44	0.51
855.728	0.689
865.016	0.641
874.304	0.48
883.592	0.058
892.88	0.356
902.168	0.586
911.456	0.675
920.744	0.694
930.032	0.548
939.32	0.655
948.608	0.582
957.896	0.674
967.184	0.602
976.472	0.674
985.759	0.582
995.047	0.486
1004.34	0.578
1013.62	0.634
1022.91	0.575
1032.2	0.67
1041.49	0.702
1050.78	0.722
1060.06	0.672
1069.35	0.622
1078.64	0.706
1087.93	0.722
1097.21	0.733
1106.5	0.75
1115.79	0.731
1125.08	0.653
1134.37	0.681
1143.65	0.691
1152.94	0.571
1162.23	0.717
1171.52	0.658
1180.81	0.696
1190.09	0.748
1199.38	0.679
1208.67	0.709
1217.96	0.588
1227.25	0.734
1236.53	0.749
1245.82	0.755
1255.11	0.741
1264.4	0.687
1273.69	0.707
1282.97	0.641
1292.26	0.652
1301.55	0.627
1310.84	0.617
1320.13	0.593
1329.41	0.565
1338.7	0.546
1347.99	0.635
1357.28	0.627
1366.56	0.4839
1375.85	0.138
1385.14	0.604
1394.43	0.685
1403.72	0.693
1413	0.646
1422.29	0.547
1431.58	0.194
1440.87	0.136
1450.16	0.151
1459.44	0.285
1468.73	0.412
1478.02	0.594
1487.31	0.726
1496.6	0.762
1505.88	0.785
1515.17	0.798
1524.46	0.804
1533.75	0.814
1543.04	0.82
1552.32	0.826
1561.61	0.826
1570.9	0.81
1580.19	0.803
1589.48	0.799
1598.76	0.79
1608.05	0.762
1617.34	0.745
1626.63	0.705
1635.92	0.419
1645.2	0.254
1654.49	0.643
1663.78	0.706
1673.07	0.759
1682.35	0.783
1691.64	0.796
1700.93	0.797
1710.22	0.803
1719.51	0.798
1728.79	0.806
1738.08	0.806
1747.37	0.801
1756.66	0.813
1765.95	0.812
1775.23	0.785
1784.52	0.756
1793.81	0.791
1803.1	0.815
1812.39	0.822
1821.67	0.828
1830.96	0.832
1840.25	0.832
1849.54	0.834
1858.83	0.836
1868.11	0.837
1877.4	0.836
1886.69	0.834
1895.98	0.835
1905.27	0.836
1914.55	0.837
1923.84	0.84
1933.13	0.841
1942.42	0.842
1951.71	0.843
1960.99	0.844
1970.28	0.846
1979.57	0.848
1988.86	0.85
1998.14	0.851
2007.43	0.853
2016.72	0.853
2026.01	0.851
2035.3	0.851
2044.58	0.85
2053.87	0.85
2063.16	0.849
2072.45	0.849
2081.74	0.848
2091.02	0.848
2100.31	0.847
2109.6	0.847
2118.89	0.846
2128.18	0.846
2137.46	0.8441
2146.75	0.844
2156.04	0.843
2165.33	0.843
2174.62	0.842
2183.9	0.841
2193.19	0.841
2202.48	0.84
2211.77	0.84
2221.06	0.839
2230.34	0.837
2239.63	0.837
2248.92	0.836
2258.21	0.836
2267.5	0.835
2276.78	0.834
2286.07	0.834
2295.36	0.833
2304.65	0.8321
2313.93	0.832
2323.22	0.831
2332.51	0.829
2341.8	0.829
2351.09	0.828
2360.37	0.827
2369.66	0.8261
2378.95	0.826
2388.24	0.825
2397.53	0.824
2406.81	0.824
2416.1	0.822
2425.39	0.821
2434.68	0.821
2443.97	0.82
2453.25	0.821
2462.54	0.821
2471.83	0.821
2481.12	0.821
2490.41	0.821
2499.69	0.821
2508.98	0.82
2518.27	0.8191
2527.56	0.819
2536.85	0.8171
2546.13	0.815
2555.42	0.813
2564.71	0.8111
2574	0.808
2583.28	0.8051
2592.57	0.803
2601.86	0.7991
2611.15	0.7943
2620.44	0.7901
2629.72	0.7851
2639.01	0.7803
2648.3	0.7771
2657.59	0.7721
2666.88	0.7621
2676.16	0.7619
2685.45	0.7728
2694.74	0.78
2704.03	0.7763
2713.32	0.7655
2722.6	0.7498
2731.89	0.7383
2741.18	0.7579
2750.47	0.7902
2759.76	0.8002
2769.04	0.7835
2778.33	0.7669
2787.62	0.7318
2796.91	0.6433
2806.2	0.5108
2815.48	0.3659
2824.77	0.3755
2834.06	0.246
2843.35	0.0918
2852.64	0.0455
2861.92	0.0923
2871.21	0.0922
2880.5	0.0769
2889.79	0.0586
2899.07	0.039
2908.36	0.0172
2917.65	0.0082
2926.94	0.0032
2936.23	0.0028
2945.51	0.0114
2954.8	0.0558
2964.09	0.0592
2973.38	0.036
2982.67	0.0992
2991.95	0.2858
3001.24	0.4723
3010.53	0.5474
3019.82	0.5126
3029.11	0.4867
3038.39	0.5916
3047.68	0.7041
3056.97	0.6954
3066.26	0.6145
3075.55	0.5508
3084.83	0.5776
3094.12	0.6985
3103.41	0.7843
3112.7	0.7998
3121.99	0.8068
3131.27	0.81
3140.56	0.8128
3149.85	0.8165
3159.14	0.818
3168.43	0.8197
3177.71	0.8218
3187	0.825
3196.29	0.8287
3205.58	0.835
3214.86	0.839
3224.15	0.841
3233.44	0.842
3242.73	0.842
3252.02	0.841
3261.3	0.841
3270.59	0.839
3279.88	0.8375
3289.17	0.8353
3298.46	0.834
3307.74	0.832
3317.03	0.8296
3326.32	0.828
3335.61	0.826
3344.9	0.824
3354.18	0.8213
3363.47	0.82
3372.76	0.8173
3382.05	0.8143
3391.34	0.8113
3400.62	0.808
3409.91	0.8053
3419.2	0.804
3428.49	0.8
3437.78	0.797
3447.06	0.794
3456.35	0.7977
3465.64	0.8037
3474.93	0.8094
3484.22	0.8147
3493.5	0.8207
3502.79	0.8267
3512.08	0.8317
3521.37	0.8313
3530.65	0.8233
3539.94	0.7963
3549.23	0.765
3558.52	0.785
3567.81	0.8227
3577.09	0.8437
3586.38	0.8497
3595.67	0.853
3604.96	0.8567
3614.25	0.86
3623.53	0.8617
3632.82	0.863
3642.11	0.865
3651.4	0.867
3660.69	0.868
3669.97	0.8674
3679.26	0.865
3688.55	0.863
3697.84	0.862
3707.13	0.863
3716.41	0.864
3725.7	0.865
3734.99	0.865
3744.28	0.867
3753.57	0.867
3762.85	0.868
3772.14	0.867
3781.43	0.868
3790.72	0.868
3800	0.868
3809.29	0.868
3818.58	0.867
3827.87	0.867
3837.16	0.867
3846.44	0.865
3855.73	0.865
3865.02	0.8644
3874.31	0.863
3883.6	0.862
3892.88	0.864
3902.17	0.8662
3911.46	0.868
3920.75	0.8716
3930.04	0.876
3939.32	0.8802
3948.61	0.884
3957.9	0.8872
3967.19	0.89
3976.48	0.8926
3985.76	0.8966
3995.05	0.902
4004.34	0.906
