Infrared Spectrum: ETHANE, 1,1,2-TRICHLORO-1,2-DIFLUORO-
Formula: C2 H Cl3 F2
CAS: 354-15-4
State: SOLUTION (10% IN CCl4 FOR 3800-1333, AND 10% IN CS2 FOR 1333-450 CM^-^1)
Class: COBLENTZ III
Instrument: DOW KBr FOREPRISM-GRATING
Instrument parameters: BLAZED AT 3.5, 12.0, 20.0 MICRON, CHANGED AT 5.0, 7.5, 14.9 MICRON
Sampling: TRANSMISSION
Path length: 0.010, 0.010 CM
Resolution: 4
Origin: DOW CHEMICAL COMPANY
1/CM	TRANSMITTANCE
451.276	0.926
459.967	0.94
468.658	0.955
477.349	0.975
486.04	0.997
494.731	1.008
503.422	1.005
512.113	1.008
520.804	1.024
529.494	1.028
538.185	1.034
546.876	1.031
555.567	1.024
564.258	1.031
572.949	1.028
581.64	1.013
590.331	0.915
599.022	0.922
607.713	0.967
616.404	0.825
625.095	0.382
633.786	0.365
642.477	0.803
651.168	0.925
659.859	0.96
668.55	0.99
677.241	0.991
685.931	0.997
694.622	1
703.313	0.994
712.004	0.991
720.695	0.989
729.386	0.976
738.077	0.937
746.768	0.802
755.459	0.2
764.15	0.344
772.841	0.58
781.532	0.374
790.223	0.123
798.914	0.216
807.605	0.555
816.296	0.693
824.987	0.621
833.677	0.354
842.368	0.241
851.059	0.6
859.75	0.527
868.441	0.393
877.132	0.072
885.823	0.207
894.514	0.502
903.205	0.529
911.896	0.848
920.587	0.935
929.278	0.952
937.969	0.945
946.66	0.94
955.351	0.899
964.042	0.795
972.733	0.579
981.424	0.32
990.114	0.517
998.805	0.886
1007.5	0.914
1016.19	0.867
1024.88	0.752
1033.57	0.391
1042.26	0.064
1050.95	0.47
1059.64	0.57
1068.33	0.564
1077.02	0.344
1085.71	0.562
1094.41	0.378
1103.1	0.034
1111.79	0.482
1120.48	0.261
1129.17	0.209
1137.86	0.279
1146.55	0.662
1155.24	0.576
1163.93	0.442
1172.62	0.773
1181.32	0.707
1190.01	0.817
1198.7	0.807
1207.39	0.48
1216.08	0.722
1224.77	0.912
1233.46	0.952
1242.15	0.959
1250.84	0.937
1259.53	0.88
1268.22	0.7
1276.92	0.753
1285.61	0.79
1294.3	0.912
1302.99	0.945
1311.68	0.945
1320.37	0.912
1329.06	0.728
1337.75	0.848
1346.44	0.96
1355.13	0.995
1363.83	1.005
1372.52	1.008
1381.21	1.006
1389.9	1.008
1398.59	1.012
1407.28	1.005
1415.97	1.004
1424.66	1.002
1433.35	1
1442.04	0.998
1450.73	1.006
1459.43	1.001
1468.12	0.989
1476.81	0.982
1485.5	0.965
1494.19	0.931
1502.88	0.884
1511.57	0.835
1520.26	0.783
1528.95	0.735
1537.64	0.663
1546.33	0.558
1555.03	0.536
1563.72	0.611
1572.41	0.69
1581.1	0.713
1589.79	0.742
1598.48	0.82
1607.17	0.903
1615.86	0.955
1624.55	0.982
1633.24	0.99
1641.94	0.994
1650.63	0.995
1659.32	0.995
1668.01	1
1676.7	1.001
1685.39	1.009
1694.08	1.006
1702.77	1.017
1711.46	1.008
1720.15	1.009
1728.84	1.004
1737.54	1.013
1746.23	1
1754.92	1.009
1763.61	1.006
1772.3	1.01
1780.99	1.006
1789.68	1.01
1798.37	1.005
1807.06	1.005
1815.75	1
1824.45	1.002
1833.14	1.001
1841.83	1.001
1850.52	1
1859.21	0.993
1867.9	1
1876.59	1.002
1885.28	1.001
1893.97	1.008
1902.66	1.004
1911.35	1.005
1920.05	1.004
1928.74	1.001
1937.43	1.004
1946.12	1
1954.81	1.001
1963.5	1.009
1972.19	0.995
1980.88	0.994
1989.57	0.994
1998.26	0.997
2006.95	0.995
2015.65	0.994
2024.34	0.997
2033.03	1.0017
2041.72	0.998
2050.41	0.998
2059.1	0.9979
2067.79	1
2076.48	0.9977
2085.17	0.9941
2093.86	0.9982
2102.56	0.997
2111.25	0.9941
2119.94	0.994
2128.63	0.9861
2137.32	0.979
2146.01	0.9763
2154.7	0.976
2163.39	0.987
2172.08	0.989
2180.77	0.9898
2189.46	0.994
2198.16	0.991
2206.85	0.998
2215.54	0.9946
2224.23	0.9876
2232.92	0.9822
2241.61	0.9846
2250.3	0.9898
2258.99	0.986
2267.68	0.9828
2276.37	0.978
2285.06	0.976
2293.76	0.976
2302.45	0.975
2311.14	0.9774
2319.83	0.9801
2328.52	0.983
2337.21	0.9884
2345.9	0.9958
2354.59	0.9924
2363.28	1.0027
2371.97	1.0013
2380.67	0.9987
2389.36	0.994
2398.05	0.9944
2406.74	0.99
2415.43	0.993
2424.12	0.993
2432.81	0.9945
2441.5	0.9962
2450.19	1
2458.88	0.9974
2467.57	0.995
2476.27	0.9976
2484.96	0.995
2493.65	0.9976
2502.34	0.994
2511.03	0.9919
2519.72	0.99
2528.41	0.9921
2537.1	0.994
2545.79	0.995
2554.48	0.994
2563.18	0.992
2571.87	0.992
2580.56	0.9925
2589.25	0.991
2597.94	0.991
2606.63	0.9919
2615.32	0.9879
2624.01	0.991
2632.7	0.9906
2641.39	0.9866
2650.08	0.985
2658.78	0.9894
2667.47	0.9918
2676.16	0.993
2684.85	0.9918
2693.54	0.991
2702.23	0.99
2710.92	0.9919
2719.61	0.9894
2728.3	0.989
2736.99	0.989
2745.68	0.987
2754.38	0.983
2763.07	0.983
2771.76	0.9813
2780.45	0.98
2789.14	0.983
2797.83	0.982
2806.52	0.9844
2815.21	0.986
2823.9	0.9836
2832.59	0.986
2841.29	0.9867
2849.98	0.9895
2858.67	1.0017
2867.36	0.9902
2876.05	0.9908
2884.74	0.989
2893.43	0.993
2902.12	0.9916
2910.81	0.9948
2919.5	1.005
2928.19	1.0032
2936.89	0.9935
2945.58	0.9788
2954.27	0.9785
2962.96	0.9695
2971.65	0.956
2980.34	0.9158
2989.03	0.8961
2997.72	0.9042
3006.41	0.9038
3015.1	0.9374
3023.8	0.9532
3032.49	0.9572
3041.18	0.963
3049.87	0.9631
3058.56	0.967
3067.25	0.97
3075.94	0.964
3084.63	0.968
3093.32	0.965
3102.01	0.964
3110.7	0.964
3119.4	0.965
3128.09	0.965
3136.78	0.965
3145.47	0.967
3154.16	0.972
3162.85	0.971
3171.54	0.975
3180.23	0.972
3188.92	0.978
3197.61	0.979
3206.3	0.979
3215	0.9799
3223.69	0.9803
3232.38	0.98
3241.07	0.9846
3249.76	0.987
3258.45	0.982
3267.14	0.9823
3275.83	0.9888
3284.52	0.9855
3293.21	0.9869
3301.91	0.9864
3310.6	0.989
3319.29	0.99
3327.98	0.989
3336.67	0.987
3345.36	0.9892
3354.05	0.99
3362.74	0.99
3371.43	0.9914
3380.12	0.99
3388.81	0.9874
3397.51	0.9938
3406.2	0.9908
3414.89	0.9868
3423.58	0.9875
3432.27	0.9898
3440.96	0.9925
3449.65	0.9897
3458.34	0.989
3467.03	0.989
3475.72	0.9884
3484.42	0.989
3493.11	0.9936
3501.8	0.9935
3510.49	0.9937
3519.18	0.9924
3527.87	0.9907
3536.56	0.9913
3545.25	1.001
3553.94	0.993
3562.63	0.9956
3571.32	0.9968
3580.02	0.9934
3588.71	0.9836
3597.4	0.994
3606.09	0.9818
3614.78	0.9862
3623.47	0.9942
3632.16	0.994
3640.85	0.9961
3649.54	1.001
3658.23	1
3666.92	0.998
3675.62	0.998
3684.31	1.0015
3693	1.0005
3701.69	0.998
3710.38	0.9965
3719.07	0.994
3727.76	1
3736.45	1.001
3745.14	1
3753.83	0.9945
3762.53	0.994
3771.22	0.995
3779.91	0.997
3788.6	1
