Infrared Spectrum: PENTACHLORO FLUORO ETHANE
Formula: C2 Cl5 F
CAS: 354-56-3
State: SOLUTION (10% CCl4 FOR 5000-1330, 10% CS2 FOR 1330-625 CM^-^1)
Class: COBLENTZ
Instrument: Not specified, most likely a prism, grating, or hybrid spectrometer.
Sampling: TRANSMISSION
Path length: 0.0100 CM, 0.0119 CM
Resolution: 4
Origin: DOW CHEMICAL COMPANY
MICROMETERS	TRANSMITTANCE
2.027	0.891
2.06816	0.888
2.10931	0.89
2.15047	0.895
2.19163	0.895
2.23278	0.891
2.27394	0.89
2.31509	0.89
2.35625	0.89
2.39741	0.89
2.43856	0.89
2.47972	0.898
2.52088	0.902
2.56203	0.903
2.60319	0.903
2.64435	0.908
2.6855	0.907
2.72666	0.907
2.76781	0.898
2.80897	0.888
2.85013	0.886
2.89128	0.883
2.93244	0.886
2.9736	0.888
3.01475	0.896
3.05591	0.898
3.09707	0.9
3.13822	0.902
3.17938	0.907
3.22054	0.907
3.26169	0.908
3.30285	0.907
3.344	0.91
3.38516	0.915
3.42632	0.917
3.46747	0.915
3.50863	0.917
3.54979	0.912
3.59094	0.912
3.6321	0.912
3.67326	0.914
3.71441	0.915
3.75557	0.915
3.79672	0.915
3.83788	0.915
3.87904	0.915
3.92019	0.917
3.96135	0.919
4.00251	0.917
4.04366	0.919
4.08482	0.919
4.12598	0.919
4.16713	0.912
4.20829	0.912
4.24944	0.907
4.2906	0.871
4.33176	0.881
4.37291	0.895
4.41407	0.912
4.45523	0.914
4.49638	0.919
4.53754	0.903
4.5787	0.896
4.61985	0.92
4.66101	0.92
4.70216	0.922
4.74332	0.922
4.78448	0.926
4.82563	0.926
4.86679	0.922
4.90795	0.919
4.9491	0.914
4.99026	0.912
5.03142	0.92
5.07257	0.92
5.11373	0.924
5.15488	0.927
5.19604	0.931
5.2372	0.931
5.27835	0.929
5.31951	0.929
5.36067	0.922
5.40182	0.915
5.44298	0.92
5.48414	0.92
5.52529	0.92
5.56645	0.917
5.60761	0.917
5.64876	0.929
5.68992	0.931
5.73107	0.931
5.77223	0.931
5.81339	0.931
5.85454	0.931
5.8957	0.927
5.93686	0.927
5.97801	0.929
6.01917	0.929
6.06033	0.919
6.10148	0.91
6.14264	0.896
6.18379	0.86
6.22495	0.79
6.26611	0.709
6.30726	0.652
6.34842	0.618
6.38958	0.57
6.43073	0.486
6.47189	0.491
6.51305	0.604
6.5542	0.666
6.59536	0.721
6.63651	0.797
6.67767	0.831
6.71883	0.869
6.75998	0.886
6.80114	0.905
6.8423	0.917
6.88345	0.929
6.92461	0.929
6.96577	0.929
7.00692	0.927
7.04808	0.932
7.08923	0.932
7.13039	0.929
7.17155	0.932
7.2127	0.939
7.25386	0.939
7.29502	0.934
7.33617	0.919
7.37733	0.903
7.41849	0.902
7.45964	0.898
7.5008	0.895
7.54195	0.902
7.58311	0.902
7.62427	0.886
7.66542	0.902
7.70658	0.905
7.74774	0.9
7.78889	0.908
7.83005	0.915
7.87121	0.91
7.91236	0.902
7.95352	0.891
7.99468	0.881
8.03583	0.898
8.07699	0.895
8.11814	0.876
8.1593	0.869
8.20046	0.853
8.24161	0.847
8.28277	0.848
8.32393	0.816
8.36508	0.769
8.40624	0.718
8.4474	0.63
8.48855	0.408
8.52971	0.113
8.57086	0.017
8.61202	0.013
8.65318	0.025
8.69433	0.19
8.73549	0.505
8.77665	0.64
8.8178	0.702
8.85896	0.75
8.90012	0.78
8.94127	0.809
8.98243	0.804
9.02358	0.79
9.06474	0.795
9.1059	0.838
9.14705	0.857
9.18821	0.86
9.22937	0.831
9.27052	0.788
9.31168	0.785
9.35284	0.778
9.39399	0.786
9.43515	0.828
9.4763	0.84
9.51746	0.829
9.55862	0.795
9.59977	0.74
9.64093	0.62
9.68209	0.343
9.72324	0.075
9.7644	0.015
9.80556	0.056
9.84671	0.283
9.88787	0.594
9.92902	0.707
9.97018	0.735
10.0113	0.79
10.0525	0.852
10.0937	0.883
10.1348	0.902
10.176	0.907
10.2171	0.914
10.2583	0.914
10.2994	0.915
10.3406	0.92
10.3817	0.92
10.4229	0.907
10.4641	0.898
10.5052	0.898
10.5464	0.903
10.5875	0.902
10.6287	0.888
10.6698	0.876
10.711	0.872
10.7522	0.884
10.7933	0.893
10.8345	0.902
10.8756	0.903
10.9168	0.902
10.9579	0.89
10.9991	0.881
11.0402	0.872
11.0814	0.86
11.1226	0.848
11.1637	0.836
11.2049	0.823
11.246	0.769
11.2872	0.726
11.3283	0.658
11.3695	0.544
11.4107	0.467
11.4518	0.467
11.493	0.518
11.5341	0.542
11.5753	0.517
11.6164	0.417
11.6576	0.243
11.6987	0.072
11.7399	0.01
11.7811	0
11.8222	0
11.8634	0
11.9045	0.01
11.9457	0.104
11.9868	0.271
12.028	0.431
12.0692	0.551
12.1103	0.637
12.1515	0.694
12.1926	0.721
12.2338	0.74
12.2749	0.761
12.3161	0.792
12.3573	0.8
12.3984	0.802
12.4396	0.802
12.4807	0.793
12.5219	0.769
12.563	0.745
12.6042	0.709
12.6453	0.663
12.6865	0.599
12.7277	0.503
12.7688	0.353
12.81	0.201
12.8511	0.056
12.8923	0
12.9334	0
12.9746	0
13.0158	0.048
13.0569	0.194
13.0981	0.374
13.1392	0.5
13.1804	0.561
13.2215	0.58
13.2627	0.565
13.3038	0.517
13.345	0.482
13.3862	0.472
13.4273	0.505
13.4685	0.565
13.5096	0.632
13.5508	0.69
13.5919	0.725
13.6331	0.75
13.6743	0.768
13.7154	0.769
13.7566	0.771
13.7977	0.773
13.8389	0.769
13.88	0.764
13.9212	0.761
13.9624	0.754
14.0035	0.75
14.0447	0.747
14.0858	0.74
14.127	0.733
14.1681	0.726
14.2093	0.718
14.2504	0.711
14.2916	0.706
14.3328	0.699
14.3739	0.69
14.4151	0.683
14.4562	0.676
14.4974	0.671
14.5385	0.664
14.5797	0.654
14.6209	0.647
14.662	0.642
14.7032	0.632
14.7443	0.628
14.7855	0.616
14.8266	0.606
14.8678	0.603
14.9089	0.596
14.9501	0.591
14.9913	0.589
15.0324	0.575
15.0736	0.563
15.1147	0.551
15.1559	0.541
15.197	0.534
15.2382	0.524
15.2794	0.515
15.3205	0.512
15.3617	0.505
15.4028	0.503
15.444	0.501
15.4851	0.496
15.5263	0.491
15.5674	0.484
15.6086	0.479
15.6498	0.474
15.6909	0.47
15.7321	0.465
15.7732	0.463
15.8144	0.463
15.8555	0.462
15.8967	0.462
