Infrared Spectrum: Chlorodifluoroacetamide
Formula: C 2 H 2 Cl F 2 N O
CAS: 354-28-9
State: gas
Origin: EPA-IR VAPOR PHASE LIBRARY
1/CM	ABSORBANCE
549.8	0.004312
559.445	0.004162
569.09	0.003652
578.735	0.004232
588.38	0.006702
598.025	0.009432
607.67	0.010862
617.315	0.009922
626.96	0.006312
636.605	0.006472
646.251	0.009372
655.896	0.014312
665.541	0.017872
675.186	0.015402
684.831	0.010002
694.476	0.006912
704.121	0.005982
713.766	0.005782
723.411	0.006072
733.056	0.007392
742.701	0.008612
752.346	0.009212
761.991	0.008922
771.636	0.007762
781.281	0.006912
790.926	0.006752
800.571	0.006912
810.216	0.007512
819.861	0.007942
829.507	0.008652
839.152	0.009032
848.797	0.008892
858.442	0.008452
868.087	0.008102
877.732	0.008042
887.377	0.008272
897.022	0.009062
906.667	0.009722
916.312	0.011592
925.957	0.015932
935.602	0.023962
945.247	0.036842
954.892	0.054052
964.537	0.066412
974.182	0.060162
983.827	0.043502
993.472	0.027682
1003.12	0.021682
1012.76	0.017502
1022.41	0.012582
1032.05	0.009882
1041.7	0.007862
1051.34	0.006632
1060.99	0.006492
1070.63	0.008722
1080.28	0.013572
1089.92	0.023212
1099.57	0.039002
1109.21	0.060522
1118.86	0.078202
1128.5	0.066972
1138.15	0.046022
1147.79	0.034002
1157.44	0.032492
1167.08	0.038002
1176.73	0.044102
1186.37	0.042842
1196.02	0.034932
1205.66	0.024892
1215.31	0.016702
1224.95	0.010692
1234.6	0.006882
1244.24	0.004662
1253.89	0.003822
1263.53	0.003152
1273.18	0.002662
1282.82	0.002392
1292.47	0.002462
1302.11	0.002552
1311.76	0.003052
1321.4	0.004082
1331.05	0.005842
1340.69	0.009382
1350.34	0.015312
1359.98	0.020872
1369.63	0.021782
1379.27	0.015592
1388.92	0.007222
1398.56	0.003662
1408.21	0.002312
1417.85	0.0017041
1427.5	0.001398
1437.14	0.0011994
1446.79	0.001171
1456.43	0.0010783
1466.08	0.0010813
1475.73	0.0011327
1485.37	0.0011515
1495.02	0.0012459
1504.66	0.0012891
1514.31	0.0012617
1523.95	0.0013925
1533.6	0.0015606
1543.24	0.002022
1552.89	0.003482
1562.53	0.006802
1572.18	0.014042
1581.82	0.022452
1591.47	0.026412
1601.11	0.022622
1610.76	0.014152
1620.4	0.007532
1630.05	0.004082
1639.69	0.002482
1649.34	0.0017672
1658.98	0.0014253
1668.63	0.001348
1678.27	0.001546
1687.92	0.0018448
1697.56	0.002182
1707.21	0.002792
1716.85	0.004202
1726.5	0.007332
1736.14	0.014162
1745.79	0.025382
1755.43	0.046452
1765.08	0.075422
1774.72	0.095002
1784.37	0.088332
1794.01	0.067892
1803.66	0.030772
1813.3	0.014832
1822.95	0.006622
1832.59	0.003192
1842.24	0.002102
1851.88	0.0017575
1861.53	0.0014958
1871.17	0.0013377
1880.82	0.0011602
1890.46	0.0010643
1900.11	0.0010059
1909.75	0.00092819
1919.4	0.000881043
1929.04	0.000879698
1938.69	0.000875721
1948.33	0.000768
1957.98	0.0007843
1967.62	0.000688
1977.27	0.000762
1986.91	0.000654
1996.56	0.000673
2006.2	0.000658
2015.85	0.000651
2025.49	0.000696
2035.14	0.000671
2044.78	0.00061
2054.43	0.000605
2064.07	0.000574
2073.72	0.000605
2083.36	0.000576
2093.01	0.000621
2102.65	0.000607
2112.3	0.000591
2121.94	0.000598
2131.59	0.000604
2141.23	0.000584
2150.88	0.000622
2160.52	0.000671
2170.17	0.00061
2179.81	0.00059
2189.46	0.000671
2199.1	0.00072
2208.75	0.000748
2218.39	0.0008185
2228.04	0.0007879
2237.68	0.000756
2247.33	0.000621
2256.97	0.000448
2266.62	0.000435
2276.26	0.000477
2285.91	0.000409
2295.55	0.00046
2305.2	0.000568
2314.84	0.000421
2324.49	0.000457
2334.13	0.000445
2343.78	0.000519
2353.42	0.000531
2363.07	0.000486
2372.72	0.000441
2382.36	0.000438
2392.01	0.000446
2401.65	0.00035
2411.3	0.000372
2420.94	0.000344
2430.59	0.000452
2440.23	0.000466
2449.88	0.00052
2459.52	0.000494
2469.17	0.000475
2478.81	0.000375
2488.46	0.000331
2498.1	0.000284
2507.75	0.000256
2517.39	0.000268
2527.04	0.000243
2536.68	0.000241
2546.33	0.000293
2555.97	0.000231
2565.62	0.00017
2575.26	0.000115
2584.91	0.000124
2594.55	9.5e-05
2604.2	0.000156
2613.84	0.000141
2623.49	0.000128
2633.13	0.000228
2642.78	0.000156
2652.42	0.000202
2662.07	0.000131
2671.71	0.000165
2681.36	0.000221
2691	9.8e-05
2700.65	0.000167
2710.29	0.000208
2719.94	0.00019
2729.58	0.000172
2739.23	9.5e-05
2748.87	5.1e-05
2758.52	5.4e-05
2768.16	4.9e-05
2777.81	3.1e-05
2787.45	0.000137
2797.1	0.000104
2806.74	0.000122
2816.39	0.00022
2826.03	0.000145
2835.68	0.000249
2845.32	0.000362
2854.97	0.000522
2864.61	0.000613
2874.26	0.000583
2883.9	0.000434
2893.55	0.000193
2903.19	0.000266
2912.84	0.00023
2922.48	0.000198
2932.13	0.000261
2941.77	0.000262
2951.42	0.000528
2961.06	0.000292
2970.71	0.000396
2980.35	0.000149
2990	0.000278
2999.64	0.000374
3009.29	0.000294
3018.93	0.000369
3028.58	0.000447
3038.22	0.0004
3047.87	0.000232
3057.51	0.000239
3067.16	0.000235
3076.8	0.000365
3086.45	0.000331
3096.09	0.000374
3105.74	0.000474
3115.38	0.000546
3125.03	0.000549
3134.67	0.0008243
3144.32	0.0008921
3153.96	0.000718
3163.61	0.000706
3173.25	0.000666
3182.9	0.00067
3192.54	0.000547
3202.19	0.000516
3211.83	0.000418
3221.48	0.000467
3231.12	0.000448
3240.77	0.000412
3250.41	0.000431
3260.06	0.000477
3269.7	0.000114
3279.35	0.00045
3289	0.000338
3298.64	0.00043
3308.29	0.000623
3317.93	0.000681
3327.58	0.000469
3337.22	0.000765
3346.87	0.001032
3356.51	0.0009731
3366.16	0.0014018
3375.8	0.0016609
3385.45	0.002042
3395.09	0.002802
3404.74	0.004512
3414.38	0.007312
3424.03	0.010522
3433.67	0.014302
3443.32	0.015192
3452.96	0.012902
3462.61	0.009152
3472.25	0.004602
3481.9	0.003122
3491.54	0.003112
3501.19	0.003872
3510.83	0.005232
3520.48	0.007312
3530.12	0.009492
3539.77	0.011202
3549.41	0.015932
3559.06	0.018432
3568.7	0.017042
3578.35	0.010642
3587.99	0.003442
3597.64	0.0015942
3607.28	0.0011108
3616.93	0.00088617
3626.57	0.0007823
3636.22	0.0008278
3645.86	0.000747
3655.51	0.000641
3665.15	0.000759
3674.8	0.000619
3684.44	0.000877794
3694.09	0.000694
3703.73	0.000643
3713.38	0.000736
3723.02	0.000671
3732.67	0.000787
3742.31	0.00093632
3751.96	0.000763
3761.6	0.000868
3771.25	0.000839
3780.89	0.000725
3790.54	0.00075
3800.18	0.0007837
3809.83	0.0007915
3819.47	0.000768
3829.12	0.0007834
3838.76	0.000695
3848.41	0.0007877
3858.05	0.000707
3867.7	0.000531
3877.34	0.000724
3886.99	0.00063
3896.63	0.000686
3906.28	0.000697
3915.92	0.00057
3925.57	0.0006
3935.21	0.000569
3944.86	0.000657
3954.5	0.000477
3964.15	0.000568
3973.79	0.000434
3983.44	0.000538
3993.08	0.000623
