Infrared Spectrum: Pentafluoropropionamide
Formula: C 3 H 2 F 5 N O
CAS: 354-76-7
State: gas
Origin: EPA-IR VAPOR PHASE LIBRARY
1/CM	ABSORBANCE
549.8	0.01469
559.445	0.01017
569.09	0.00901
578.734	0.01023
588.379	0.01399
598.024	0.01903
607.669	0.02725
617.313	0.03411
626.958	0.0427
636.603	0.058
646.248	0.05973
655.893	0.03345
665.537	0.01483
675.182	0.0093
684.827	0.00746
694.472	0.00707
704.116	0.00775
713.761	0.00901
723.406	0.00992
733.051	0.01245
742.695	0.01852
752.34	0.03201
761.985	0.0403
771.63	0.03154
781.275	0.01842
790.919	0.01509
800.564	0.01434
810.209	0.01467
819.854	0.01626
829.498	0.01848
839.143	0.02037
848.788	0.0219
858.433	0.02201
868.078	0.02022
877.722	0.01946
887.367	0.01918
897.012	0.01894
906.657	0.01894
916.301	0.0193
925.946	0.0189
935.591	0.01786
945.236	0.0182
954.88	0.01821
964.525	0.01886
974.17	0.02277
983.815	0.02945
993.46	0.04464
1003.1	0.08521
1012.75	0.15872
1022.39	0.19739
1032.04	0.1325
1041.68	0.04541
1051.33	0.02319
1060.97	0.01933
1070.62	0.01764
1080.26	0.01704
1089.91	0.01959
1099.55	0.02651
1109.2	0.03629
1118.84	0.05739
1128.49	0.10455
1138.13	0.18854
1147.78	0.25866
1157.42	0.21327
1167.07	0.14855
1176.71	0.17936
1186.36	0.22487
1196	0.23273
1205.64	0.2837
1215.29	0.39533
1224.93	0.4576
1234.58	0.35568
1244.22	0.22185
1253.87	0.11338
1263.51	0.05463
1273.16	0.03404
1282.8	0.03212
1292.45	0.04072
1302.09	0.05776
1311.74	0.08378
1321.38	0.11427
1331.03	0.11891
1340.67	0.08778
1350.32	0.05842
1359.96	0.05638
1369.61	0.06329
1379.25	0.05969
1388.9	0.04297
1398.54	0.02743
1408.18	0.01721
1417.83	0.01079
1427.47	0.00722
1437.12	0.00531
1446.76	0.00451
1456.41	0.00386
1466.05	0.00334
1475.7	0.00312
1485.34	0.00317
1494.99	0.00349
1504.63	0.00379
1514.28	0.00401
1523.92	0.00419
1533.57	0.00457
1543.21	0.00608
1552.86	0.00883
1562.5	0.01531
1572.15	0.03117
1581.79	0.06427
1591.44	0.0858
1601.08	0.06962
1610.73	0.03717
1620.37	0.0204
1630.01	0.01232
1639.66	0.00797
1649.3	0.00584
1658.95	0.0049
1668.59	0.00488
1678.24	0.00529
1687.88	0.00614
1697.53	0.00806
1707.17	0.01119
1716.82	0.01743
1726.46	0.02955
1736.11	0.05162
1745.75	0.08553
1755.4	0.15317
1765.04	0.26952
1774.69	0.35025
1784.33	0.2631
1793.98	0.1352
1803.62	0.07122
1813.27	0.03589
1822.91	0.01704
1832.55	0.00959
1842.2	0.00673
1851.84	0.00513
1861.49	0.00419
1871.13	0.00346
1880.78	0.003
1890.42	0.00276
1900.07	0.00262
1909.71	0.00246
1919.36	0.00257
1929	0.00253
1938.65	0.00266
1948.29	0.00307
1957.94	0.00288
1967.58	0.00298
1977.23	0.00292
1986.87	0.00271
1996.52	0.00237
2006.16	0.0019931
2015.81	0.0019298
2025.45	0.0017428
2035.1	0.0018582
2044.74	0.0014868
2054.38	0.0014865
2064.03	0.0014925
2073.67	0.0013548
2083.32	0.0014901
2092.96	0.0014054
2102.61	0.0014625
2112.25	0.0013487
2121.9	0.0013582
2131.54	0.00126612
2141.19	0.001422
2150.83	0.00127742
2160.48	0.00121104
2170.12	0.0011686
2179.77	0.001097
2189.41	0.001167
2199.06	0.0014568
2208.7	0.0013351
2218.35	0.0016549
2227.99	0.0018862
2237.64	0.0018797
2247.28	0.0018317
2256.92	0.0019596
2266.57	0.0018109
2276.21	0.0018225
2285.86	0.0017695
2295.5	0.0014761
2305.15	0.0014894
2314.79	0.0013218
2324.44	0.0014209
2334.08	0.0017882
2343.73	0.001898
2353.37	0.0020042
2363.02	0.0020685
2372.66	0.0019272
2382.31	0.0020389
2391.95	0.00248
2401.6	0.00225
2411.24	0.00227
2420.89	0.0020268
2430.53	0.002076
2440.18	0.00227
2449.82	0.00268
2459.47	0.00284
2469.11	0.00276
2478.75	0.00263
2488.4	0.001968
2498.04	0.0019588
2507.69	0.001643
2517.33	0.0019035
2526.98	0.0018636
2536.62	0.002016
2546.27	0.0018765
2555.91	0.001912
2565.56	0.0018188
2575.2	0.0014139
2584.85	0.0013101
2594.49	0.0011443
2604.14	0.00123259
2613.78	0.001057
2623.43	0.000918
2633.07	0.001084
2642.72	0.000857
2652.36	0.0009
2662.01	0.000906
2671.65	0.00125964
2681.29	0.0011619
2690.94	0.000932
2700.58	0.000982
2710.23	0.000771
2719.87	0.000599
2729.52	0.0008
2739.16	0.000948
2748.81	0.000683
2758.45	0.000844
2768.1	0.000654
2777.74	0.000696
2787.39	0.000835
2797.03	0.00073
2806.68	0.000927
2816.32	0.000897
2825.97	0.000805
2835.61	0.0011
2845.26	0.00128141
2854.9	0.0017136
2864.55	0.0020975
2874.19	0.0014454
2883.84	0.0017782
2893.48	0.0011576
2903.12	0.000981
2912.77	0.0011819
2922.41	0.000865
2932.06	0.001021
2941.7	0.000869
2951.35	0.0016897
2960.99	0.0014588
2970.64	0.0014756
2980.28	0.00126212
2989.93	0.001051
2999.57	0.000959
3009.22	0.001048
3018.86	0.000851
3028.51	0.000944
3038.15	0.0011
3047.8	0.0011551
3057.44	0.000679
3067.09	0.00105
3076.73	0.000904
3086.38	0.0011817
3096.02	0.0013983
3105.67	0.0011254
3115.31	0.000915
3124.95	0.001635
3134.6	0.0020479
3144.24	0.0015444
3153.89	0.0021429
3163.53	0.0020051
3173.18	0.0018033
3182.82	0.001097
3192.47	0.001214
3202.11	0.00086
3211.76	0.000726
3221.4	0.000681
3231.05	0.000367
3240.69	0.000506
3250.34	0.000575
3259.98	0.000566
3269.63	0.000804
3279.27	0.000399
3288.92	0.000344
3298.56	0.000805
3308.21	0.000794
3317.85	0.000489
3327.49	0.000756
3337.14	0.001016
3346.78	0.0017074
3356.43	0.00239
3366.07	0.00239
3375.72	0.00354
3385.36	0.0046
3395.01	0.00668
3404.65	0.01187
3414.3	0.02019
3423.94	0.03061
3433.59	0.04602
3443.23	0.054
3452.88	0.04301
3462.52	0.02096
3472.17	0.0101
3481.81	0.00731
3491.46	0.00702
3501.1	0.00961
3510.75	0.01322
3520.39	0.01912
3530.04	0.0276
3539.68	0.03273
3549.32	0.04401
3558.97	0.06183
3568.61	0.05616
3578.26	0.02592
3587.9	0.00716
3597.55	0.00348
3607.19	0.0021948
3616.84	0.0015987
3626.48	0.00128878
3636.13	0.001016
3645.77	0.000947
3655.42	0.001073
3665.06	0.0013651
3674.71	0.000492
3684.35	0.000677
3694	0.0011828
3703.64	0.000735
3713.29	0.000659
3722.93	0
3732.58	0.000598
3742.22	0.000705
3751.86	0.000225
3761.51	0.000685
3771.15	0.000938
3780.8	0.0016153
3790.44	0.001106
3800.09	0.000865
3809.73	0.000513
3819.38	0.000876
3829.02	0.000671
3838.67	0.000654
3848.31	0.000795
3857.96	0.000639
3867.6	0.000972
3877.25	0.000325
3886.89	0.000365
3896.54	0.000658
3906.18	0.000501
3915.83	5e-05
3925.47	0.00014
3935.12	0.000433
3944.76	0.000455
3954.41	0.000517
3964.05	0.000463
3973.69	0.000219
3983.34	0.000664
3992.98	0.00015
