Infrared Spectrum: Pentafluoroethane
Formula: C2 H F5
CAS: 354-33-6
State: gas
Melting point: -102.78 C
Boiling point: -48.55 C
Class: IUPAC A
Instrument: IFS66V (Bruker)
Instrument parameters: KBr Beam Splitter; MCT Detector; Multipass cell
Sampling: 1 L/min Flow
Resolution: 1.9290
Temperature: 23 C
Pressure: 101.3 Pa
Origin: NIST, Analytical Chemistry Division, 301-975-3108
cm-1	(micromol/mol)-1m-1 (base 10)
575.652	8.24599e-05
584.33	0.000120524
593.008	3.03855e-05
601.687	6.7266e-06
610.365	1.49362e-06
619.043	1.5158e-06
627.721	1.00112e-06
636.399	4.88985e-07
645.077	1.62363e-06
653.756	2.67734e-06
662.434	2.28992e-06
671.112	1.89256e-06
679.79	5.58858e-07
688.468	4.19559e-08
697.146	3.88989e-06
705.825	3.40148e-05
714.503	0.000145296
723.181	0.000219566
731.859	0.000176047
740.537	7.13142e-05
749.215	6.37213e-06
757.894	2.52281e-06
766.572	2.27368e-06
775.25	3.72945e-06
783.928	4.82899e-06
792.606	4.88054e-06
801.284	2.57947e-06
809.963	3.26025e-06
818.641	2.01286e-06
827.319	4.29042e-06
835.997	5.65245e-06
844.675	2.89357e-05
853.354	0.00013535
862.032	0.000254689
870.71	0.00021859
879.388	0.000143112
888.066	2.59997e-05
896.744	1.4271e-05
905.423	1.13191e-05
914.101	4.18408e-06
922.779	5.73236e-06
931.457	7.4594e-06
940.135	8.19468e-06
948.813	4.36899e-06
957.492	1.7695e-06
966.17	1.37702e-06
974.848	1.74836e-06
983.526	2.36763e-06
992.204	1.58784e-06
1000.88	1.74283e-06
1009.56	1.11931e-06
1018.24	1.07664e-06
1026.92	7.05687e-07
1035.6	1.463e-06
1044.27	1.45714e-06
1052.95	2.72239e-06
1061.63	8.32411e-06
1070.31	1.84374e-05
1078.99	2.38213e-05
1087.66	3.09464e-05
1096.34	5.72485e-05
1105.02	0.00012039
1113.7	0.000161143
1122.38	0.000185781
1131.06	0.000534554
1139.73	0.0017538
1148.41	0.00198183
1157.09	0.000404397
1165.77	8.744e-05
1174.45	7.43452e-05
1183.12	0.000220702
1191.8	0.000654272
1200.48	0.00158152
1209.16	0.00291155
1217.84	0.0025482
1226.51	0.00172182
1235.19	0.000698047
1243.87	0.000116415
1252.55	5.98182e-05
1261.23	5.88533e-05
1269.91	7.12511e-05
1278.58	8.66917e-05
1287.26	0.000198953
1295.94	0.00070446
1304.62	0.000876001
1313.3	0.000535436
1321.97	0.000327786
1330.65	3.64532e-05
1339.33	1.49858e-05
1348.01	3.1395e-05
1356.69	5.55457e-05
1365.37	2.96229e-05
1374.04	1.72733e-05
1382.72	1.73079e-05
1391.4	2.81407e-05
1400.08	1.4451e-05
1408.76	8.14577e-06
1417.43	6.25747e-06
1426.11	1.27083e-05
1434.79	1.8259e-05
1443.47	2.70847e-05
1452.15	2.26275e-05
1460.83	1.09583e-05
1469.5	2.05786e-06
1478.18	1.68055e-06
1486.86	-4.25532e-07
1495.54	-8.0195e-07
1504.22	2.24569e-06
1512.89	1.24757e-06
1521.57	-3.5058e-06
1530.25	2.71e-06
1538.93	-6.11303e-06
1547.61	2.98534e-06
1556.29	3.44771e-06
1564.96	2.98593e-06
1573.64	2.84564e-06
1582.32	3.64331e-06
1591	2.17683e-06
1599.68	1.82543e-06
1608.35	7.058e-07
1617.03	-5.61338e-06
1625.71	1.23232e-06
1634.39	2.16008e-06
1643.07	2.51203e-06
1651.75	-6.99372e-07
1660.42	1.58269e-06
1669.1	-2.56631e-06
1677.78	1.22873e-06
1686.46	3.15689e-06
1695.14	-3.2607e-06
1703.81	1.71516e-06
1712.49	4.83816e-06
1721.17	7.2399e-06
1729.85	3.79328e-06
1738.53	3.16372e-06
1747.21	3.09629e-07
1755.88	5.69295e-07
1764.56	1.02097e-06
1773.24	-8.27109e-07
1781.92	2.38252e-06
1790.6	2.26096e-06
1799.27	1.98324e-06
1807.95	2.23798e-06
1816.63	1.06761e-06
1825.31	-5.75385e-07
1833.99	4.70439e-07
1842.67	1.28106e-06
1851.34	4.19534e-07
1860.02	1.36794e-06
1868.7	5.20765e-07
1877.38	1.21997e-06
1886.06	1.21986e-07
1894.73	1.63975e-07
1903.41	8.14853e-08
1912.09	1.36526e-06
1920.77	2.78311e-06
1929.45	5.91577e-06
1938.13	5.72648e-06
1946.8	3.95996e-06
1955.48	1.37939e-06
1964.16	6.10287e-07
1972.84	-2.08052e-08
1981.52	5.2102e-07
1990.19	-1.81058e-07
1998.87	3.57675e-07
2007.55	2.10525e-07
2016.23	6.12902e-07
2024.91	2.88977e-07
2033.59	5.20718e-07
2042.26	7.51346e-07
2050.94	2.10248e-06
2059.62	3.72526e-06
2068.3	3.56303e-06
2076.98	2.20992e-06
2085.65	1.54025e-06
2094.33	5.41687e-07
2103.01	9.96755e-07
2111.69	7.39592e-07
2120.37	4.11552e-07
2129.04	-2.80417e-07
2137.72	5.98456e-07
2146.4	1.29471e-06
2155.08	3.74658e-06
2163.76	3.88673e-06
2172.44	3.05118e-06
2181.11	1.27641e-06
2189.79	7.94245e-07
2198.47	-3.14111e-07
2207.15	3.55758e-07
2215.83	7.00114e-08
2224.5	3.72939e-07
2233.18	6.9983e-07
2241.86	2.20028e-06
2250.54	4.09009e-06
2259.22	6.31661e-06
2267.9	7.33007e-06
2276.57	1.31899e-05
2285.25	1.11072e-05
2293.93	3.91442e-06
2302.61	1.46782e-06
2311.29	6.25697e-07
2319.96	6.18778e-07
2328.64	-2.2453e-06
2337.32	-2.08605e-06
2346	-4.74433e-07
2354.68	-1.91964e-06
2363.36	-3.27444e-06
2372.03	-1.5191e-06
2380.71	2.42724e-07
2389.39	2.11723e-06
2398.07	5.33403e-06
2406.75	6.36336e-06
2415.42	6.13952e-06
2424.1	1.88632e-06
2432.78	1.45463e-06
2441.46	1.22844e-06
2450.14	9.71508e-07
2458.82	-4.5453e-07
2467.49	-5.05657e-07
2476.17	-7.4259e-07
2484.85	1.37332e-06
2493.53	3.3656e-06
2502.21	6.20394e-06
2510.88	3.8872e-06
2519.56	1.33678e-06
2528.24	3.96786e-08
2536.92	1.07969e-07
2545.6	-1.50282e-08
2554.28	4.68401e-07
2562.95	1.06464e-06
2571.63	1.22586e-06
2580.31	6.6838e-07
2588.99	8.35153e-07
2597.67	1.82372e-06
2606.34	2.11197e-06
2615.02	-1.19636e-06
2623.7	-4.17402e-07
2632.38	-7.00092e-07
2641.06	2.92876e-07
2649.74	3.96942e-07
2658.41	1.38161e-06
2667.09	8.01946e-07
2675.77	1.21757e-06
2684.45	2.23818e-07
2693.13	3.51498e-07
2701.8	-4.91287e-07
2710.48	-1.35377e-07
2719.16	-6.24144e-07
2727.84	-8.45812e-08
2736.52	3.92348e-08
2745.2	2.87914e-07
2753.87	-6.47455e-07
2762.55	-2.47301e-07
2771.23	9.14677e-08
2779.91	8.31315e-07
2788.59	3.18873e-07
2797.26	6.59566e-07
2805.94	-1.04575e-07
2814.62	5.52215e-07
2823.3	-1.16824e-07
2831.98	1.64137e-06
2840.66	2.25524e-06
2849.33	2.11395e-06
2858.01	1.05872e-06
2866.69	8.31136e-07
2875.37	1.38404e-07
2884.05	4.19726e-07
2892.72	-7.15222e-07
2901.4	-5.82755e-07
2910.08	-4.49564e-07
2918.76	-4.52529e-07
2927.44	-1.15397e-06
2936.11	2.36267e-07
2944.79	-1.94209e-07
2953.47	1.8199e-07
2962.15	-4.22629e-07
2970.83	2.2228e-06
2979.51	1.10448e-05
2988.18	4.73412e-05
2996.86	6.9947e-05
3005.54	6.18086e-05
3014.22	4.15903e-05
3022.9	5.84867e-06
3031.57	8.93505e-08
3040.25	2.30861e-08
3048.93	-3.54382e-07
3057.61	2.29533e-07
3066.29	3.99845e-07
3074.97	7.54006e-07
3083.64	-4.28657e-07
3092.32	-6.14041e-08
3101	-1.67689e-07
3109.68	-4.84972e-07
3118.36	-5.06163e-07
3127.03	-3.43825e-07
3135.71	-4.98571e-07
3144.39	8.72259e-08
3153.07	-7.96191e-07
3161.75	-8.29659e-08
3170.43	-3.84752e-07
3179.1	-1.84569e-07
3187.78	-4.58474e-07
3196.46	-2.80398e-07
3205.14	-5.16964e-07
3213.82	-5.49756e-07
3222.49	-8.24505e-07
3231.17	-2.12948e-07
3239.85	3.54986e-08
3248.53	3.15395e-07
3257.21	-5.51386e-07
3265.89	3.88815e-07
3274.56	4.13491e-07
3283.24	-3.13336e-07
3291.92	-3.10608e-07
3300.6	-5.79223e-07
3309.28	-8.44226e-07
3317.95	-2.238e-07
3326.63	-1.20624e-06
3335.31	5.01048e-08
3343.99	-1.1413e-06
3352.67	-7.50073e-07
3361.35	-9.24769e-07
3370.02	-2.94408e-07
3378.7	-8.3285e-07
3387.38	-1.43213e-07
3396.06	-8.48671e-07
3404.74	-5.10783e-07
3413.41	-1.2884e-06
3422.09	-1.19325e-06
3430.77	-1.6945e-06
3439.45	-8.75231e-07
3448.13	-6.46386e-07
3456.81	-1.19202e-06
3465.48	-1.73268e-06
3474.16	-1.12419e-06
3482.84	-1.89644e-06
3491.52	-1.01246e-06
3500.2	-1.68059e-06
3508.87	-2.71507e-07
3517.55	-1.79281e-06
3526.23	-8.65304e-07
3534.91	-1.57686e-06
3543.59	-1.02566e-06
3552.27	-2.0277e-06
3560.94	-7.15389e-07
3569.62	-7.80755e-07
3578.3	-9.87548e-07
3586.98	-2.89332e-06
3595.66	-2.04407e-06
3604.33	-1.40393e-06
3613.01	-2.27035e-06
3621.69	-2.66219e-06
3630.37	-2.45788e-06
3639.05	-2.53701e-06
3647.73	-2.61203e-06
3656.4	-5.02628e-06
3665.08	-1.30991e-06
3673.76	-1.82788e-06
3682.44	-2.34109e-06
3691.12	-4.4649e-06
3699.79	-1.98996e-06
3708.47	-2.3091e-06
3717.15	-1.11373e-06
3725.83	-2.20115e-06
3734.51	-5.04945e-06
3743.19	-8.94887e-07
3751.86	-9.22759e-06
3760.54	-2.78776e-06
3769.22	-2.56064e-06
3777.9	-1.29006e-06
3786.58	-1.3955e-06
3795.25	-2.31061e-06
3803.93	-2.26936e-06
3812.61	-5.4192e-07
3821.29	-4.54563e-06
3829.97	-1.97868e-06
3838.64	-3.52501e-06
3847.32	-1.8994e-06
3856	-5.73679e-07
3864.68	-3.58211e-06
3873.36	-2.03168e-06
3882.04	-1.86326e-06
3890.71	-2.938e-06
3899.39	-5.53362e-06
3908.07	-2.05996e-06
3916.75	-2.95005e-06
3925.43	-2.04376e-06
3934.1	-2.4196e-06
3942.78	-1.9642e-06
3951.46	-1.50126e-06
3960.14	-1.81656e-06
3968.82	-1.98062e-06
