Infrared Spectrum: 1,1,2-TRICHLORO-2,2-DIFLUORO ETHANE
Formula: C2 H F2 Cl3
CAS: 354-21-2
State: SOLUTION (10% CCl4 FOR 2.5-7.5, 10% CS2 FOR 7.5-16 MICRON)
Class: COBLENTZ
Instrument: Not specified, most likely a prism, grating, or hybrid spectrometer.
Sampling: TRANSMISSION
Path length: 0.01 CM, 0.01 CM
Resolution: 4
Origin: DOW CHEMICAL COMPANY
MICROMETERS	TRANSMITTANCE
2.085	0.899
2.12506	0.902
2.16511	0.905
2.20517	0.908
2.24522	0.908
2.28528	0.908
2.32533	0.89
2.36539	0.902
2.40544	0.912
2.4455	0.91
2.48555	0.913
2.52561	0.915
2.56566	0.915
2.60572	0.917
2.64577	0.917
2.68583	0.917
2.72588	0.913
2.76594	0.887
2.80599	0.892
2.84605	0.907
2.8861	0.892
2.92616	0.875
2.96621	0.879
3.00627	0.882
3.04632	0.887
3.08638	0.894
3.12643	0.9
3.16649	0.905
3.20654	0.908
3.2466	0.903
3.28665	0.894
3.32671	0.824
3.36676	0.874
3.40682	0.91
3.44687	0.917
3.48693	0.92
3.52698	0.932
3.56704	0.928
3.6071	0.93
3.64715	0.93
3.68721	0.93
3.72726	0.93
3.76732	0.93
3.80737	0.932
3.84743	0.93
3.88748	0.932
3.92754	0.933
3.96759	0.932
4.00765	0.932
4.0477	0.933
4.08776	0.933
4.12781	0.928
4.16787	0.933
4.20792	0.935
4.24798	0.935
4.28803	0.933
4.32809	0.927
4.36814	0.928
4.4082	0.93
4.44825	0.932
4.48831	0.933
4.52836	0.933
4.56842	0.93
4.60847	0.93
4.64853	0.937
4.68858	0.948
4.72864	0.948
4.76869	0.95
4.80875	0.948
4.8488	0.95
4.88886	0.95
4.92891	0.95
4.96897	0.95
5.00902	0.942
5.04908	0.942
5.08913	0.942
5.12919	0.94
5.16925	0.943
5.2093	0.945
5.24936	0.948
5.28941	0.948
5.32947	0.943
5.36952	0.938
5.40958	0.94
5.44963	0.938
5.48969	0.938
5.52974	0.94
5.5698	0.94
5.60985	0.94
5.64991	0.94
5.68996	0.938
5.73002	0.928
5.77007	0.93
5.81013	0.93
5.85018	0.92
5.89024	0.92
5.93029	0.933
5.97035	0.93
6.0104	0.928
6.05046	0.9
6.09051	0.879
6.13057	0.889
6.17062	0.877
6.21068	0.804
6.25073	0.706
6.29079	0.65
6.33084	0.639
6.3709	0.605
6.41095	0.538
6.45101	0.511
6.49106	0.564
6.53112	0.644
6.57117	0.678
6.61123	0.74
6.65129	0.778
6.69134	0.751
6.7314	0.793
6.77145	0.87
6.81151	0.884
6.85156	0.885
6.89162	0.892
6.93167	0.895
6.97173	0.88
7.01178	0.864
7.05184	0.89
7.09189	0.902
7.13195	0.908
7.172	0.912
7.21206	0.913
7.25211	0.912
7.29217	0.91
7.33222	0.908
7.37228	0.908
7.41233	0.908
7.45239	0.903
7.49244	0.892
7.5325	0.879
7.57255	0.87
7.61261	0.865
7.65266	0.849
7.69272	0.798
7.73277	0.69
7.77283	0.513
7.81288	0.402
7.85294	0.5
7.89299	0.673
7.93305	0.703
7.9731	0.741
8.01316	0.779
8.05321	0.793
8.09327	0.768
8.13333	0.703
8.17338	0.604
8.21344	0.339
8.25349	0.119
8.29355	0.079
8.3336	0.254
8.37366	0.422
8.41371	0.496
8.45377	0.551
8.49382	0.577
8.53388	0.576
8.57393	0.561
8.61399	0.461
8.65404	0.183
8.6941	0.245
8.73415	0.324
8.77421	0.198
8.81426	0.061
8.85432	0.072
8.89437	0.082
8.93443	0.034
8.97448	0.074
9.01454	0.251
9.05459	0.395
9.09465	0.543
9.1347	0.627
9.17476	0.672
9.21481	0.706
9.25487	0.721
9.29492	0.708
9.33498	0.639
9.37503	0.586
9.41509	0.574
9.45514	0.599
9.4952	0.625
9.53525	0.609
9.57531	0.45
9.61536	0.195
9.65542	0.038
9.69548	0.134
9.73553	0.349
9.77559	0.456
9.81564	0.534
9.8557	0.592
9.89575	0.65
9.93581	0.688
9.97586	0.71
10.0159	0.683
10.056	0.587
10.096	0.367
10.1361	0.15
10.1761	0.036
10.2162	0.039
10.2562	0.097
10.2963	0.279
10.3364	0.397
10.3764	0.435
10.4165	0.554
10.4565	0.642
10.4966	0.731
10.5366	0.784
10.5767	0.829
10.6167	0.846
10.6568	0.852
10.6969	0.847
10.7369	0.832
10.777	0.831
10.817	0.85
10.8571	0.867
10.8971	0.879
10.9372	0.884
10.9772	0.884
11.0173	0.879
11.0573	0.865
11.0974	0.849
11.1375	0.841
11.1775	0.841
11.2176	0.841
11.2576	0.824
11.2977	0.801
11.3377	0.774
11.3778	0.741
11.4178	0.728
11.4579	0.726
11.498	0.726
11.538	0.723
11.5781	0.708
11.6181	0.685
11.6582	0.655
11.6982	0.617
11.7383	0.557
11.7783	0.511
11.8184	0.49
11.8585	0.407
11.8985	0.293
11.9386	0.168
11.9786	0.104
12.0187	0.056
12.0587	0.046
12.0988	0.056
12.1388	0.14
12.1789	0.241
12.2189	0.336
12.259	0.387
12.2991	0.417
12.3391	0.357
12.3792	0.269
12.4192	0.336
12.4593	0.541
12.4993	0.64
12.5394	0.695
12.5794	0.728
12.6195	0.731
12.6596	0.73
12.6996	0.718
12.7397	0.697
12.7797	0.667
12.8198	0.642
12.8598	0.617
12.8999	0.577
12.9399	0.496
12.98	0.35
13.0201	0.185
13.0601	0.087
13.1002	0.031
13.1402	0.028
13.1803	0.051
13.2203	0.091
13.2604	0.182
13.3004	0.256
13.3405	0.298
13.3805	0.359
13.4206	0.461
13.4607	0.576
13.5007	0.644
13.5408	0.688
13.5808	0.723
13.6209	0.735
13.6609	0.741
13.701	0.743
13.741	0.75
13.7811	0.753
13.8212	0.756
13.8612	0.759
13.9013	0.761
13.9413	0.754
13.9814	0.75
14.0214	0.743
14.0615	0.741
14.1015	0.733
14.1416	0.726
14.1817	0.723
14.2217	0.716
14.2618	0.71
14.3018	0.705
14.3419	0.7
14.3819	0.695
14.422	0.692
14.462	0.685
14.5021	0.673
14.5421	0.67
14.5822	0.665
14.6223	0.658
14.6623	0.649
14.7024	0.64
14.7424	0.632
14.7825	0.624
14.8225	0.617
14.8626	0.614
14.9026	0.614
14.9427	0.612
14.9828	0.609
15.0228	0.599
15.0629	0.582
15.1029	0.569
15.143	0.561
15.183	0.554
15.2231	0.548
15.2631	0.541
15.3032	0.538
15.3432	0.526
15.3833	0.519
15.4234	0.513
15.4634	0.504
15.5035	0.5
15.5435	0.485
15.5836	0.473
15.6236	0.455
15.6637	0.443
15.7037	0.437
15.7438	0.432
15.7839	0.43
15.8239	0.43
15.864	0.432
15.904	0.432
