Infrared Spectrum: 4-tert-Butylurazole
Formula: C 6 H 11 N 3 O 2
CAS: 35403-67-9
State: gas
Origin: EPA-IR VAPOR PHASE LIBRARY
1/CM	ABSORBANCE
549.8	0.040505
559.445	0.041625
569.09	0.029055
578.734	0.014905
588.379	0.008375
598.024	0.006915
607.669	0.008545
617.313	0.012955
626.958	0.024205
636.603	0.037725
646.248	0.039125
655.893	0.024905
665.537	0.009735
675.182	0.005475
684.827	0.006655
694.472	0.012255
704.116	0.014255
713.761	0.009565
723.406	0.007895
733.051	0.011005
742.695	0.017605
752.34	0.033075
761.985	0.055585
771.63	0.074935
781.275	0.069645
790.919	0.040545
800.564	0.020245
810.209	0.013135
819.854	0.012235
829.498	0.011885
839.143	0.009925
848.788	0.008255
858.433	0.006595
868.078	0.005625
877.722	0.004635
887.367	0.003905
897.012	0.003605
906.657	0.003985
916.301	0.003725
925.946	0.004255
935.591	0.004345
945.236	0.003865
954.88	0.003995
964.525	0.003835
974.17	0.003945
983.815	0.005045
993.46	0.007685
1003.1	0.011735
1012.75	0.013245
1022.39	0.010365
1032.04	0.008235
1041.68	0.007495
1051.33	0.007565
1060.97	0.006945
1070.62	0.005655
1080.26	0.007115
1089.91	0.011245
1099.55	0.012095
1109.2	0.006985
1118.84	0.006055
1128.49	0.006005
1138.13	0.006265
1147.78	0.004905
1157.42	0.006985
1167.07	0.009245
1176.71	0.014115
1186.36	0.018485
1196	0.021775
1205.64	0.026385
1215.29	0.031745
1224.93	0.030925
1234.58	0.021415
1244.22	0.017605
1253.87	0.019265
1263.51	0.018235
1273.16	0.012765
1282.8	0.008585
1292.45	0.009695
1302.09	0.017495
1311.74	0.038255
1321.38	0.058785
1331.03	0.051995
1340.67	0.026415
1350.32	0.014405
1359.96	0.020585
1369.61	0.043655
1379.25	0.078515
1388.9	0.106355
1398.54	0.110275
1408.18	0.084535
1417.83	0.048645
1427.47	0.028115
1437.12	0.017595
1446.76	0.014215
1456.41	0.014485
1466.05	0.014815
1475.7	0.014655
1485.34	0.012955
1494.99	0.008995
1504.63	0.005845
1514.28	0.004265
1523.92	0.003625
1533.57	0.003325
1543.21	0.003105
1552.86	0.003025
1562.5	0.002515
1572.15	0.002335
1581.79	0.002115
1591.44	0.001855
1601.08	0.002145
1610.73	0.002335
1620.37	0.002655
1630.01	0.003145
1639.66	0.003645
1649.3	0.004005
1658.95	0.004395
1668.59	0.005505
1678.24	0.007015
1687.88	0.010355
1697.53	0.015935
1707.17	0.026485
1716.82	0.047095
1726.46	0.102225
1736.11	0.252765
1745.75	0.420625
1755.4	0.397225
1765.04	0.173375
1774.69	0.054395
1784.33	0.031225
1793.98	0.033885
1803.62	0.037265
1813.27	0.027805
1822.91	0.014835
1832.55	0.009955
1842.2	0.007525
1851.84	0.005905
1861.49	0.005025
1871.13	0.004595
1880.78	0.004505
1890.42	0.004375
1900.07	0.004395
1909.71	0.003595
1919.36	0.002765
1929	0.002465
1938.65	0.002485
1948.29	0.002635
1957.94	0.002655
1967.58	0.002295
1977.23	0.001935
1986.87	0.001555
1996.52	0.001435
2006.16	0.001395
2015.81	0.001635
2025.45	0.001565
2035.1	0.001325
2044.74	0.001235
2054.38	0.0010362
2064.03	0.0010434
2073.67	0.0011837
2083.32	0.001205
2092.96	0.001173
2102.61	0.001195
2112.25	0.001215
2121.9	0.001215
2131.54	0.001415
2141.19	0.001545
2150.83	0.001735
2160.48	0.001765
2170.12	0.001715
2179.77	0.001575
2189.41	0.001495
2199.06	0.0011723
2208.7	0.001172
2218.35	0.0009342
2227.99	0.0008276
2237.64	0.0008299
2247.28	0.000932
2256.92	0.0010364
2266.57	0.0010012
2276.21	0.0009841
2285.86	0.0009757
2295.5	0.0008224
2305.15	0.0008177
2314.79	0.0007055
2324.44	0.0006118
2334.08	0.0007219
2343.73	0.0006466
2353.37	0.0004312
2363.02	0.0006396
2372.66	0.0006107
2382.31	0.0006323
2391.95	0.0008353
2401.6	0.0008866
2411.24	0.0009135
2420.89	0.0009473
2430.53	0.001285
2440.18	0.001355
2449.82	0.001285
2459.47	0.0010483
2469.11	0.0008279
2478.75	0.0007236
2488.4	0.000835
2498.04	0.0009118
2507.69	0.0009387
2517.33	0.0011046
2526.98	0.0007739
2536.62	0.0008015
2546.27	0.0009505
2555.91	0.000883
2565.56	0.001535
2575.2	0.001515
2584.85	0.001375
2594.49	0.001275
2604.14	0.0010295
2613.78	0.0010993
2623.43	0.0010547
2633.07	0.0009684
2642.72	0.0011226
2652.36	0.0011064
2662.01	0.0008738
2671.65	0.0009234
2681.29	0.0010265
2690.94	0.00102
2700.58	0.0011758
2710.23	0.0011623
2719.87	0.0009012
2729.52	0.0010688
2739.16	0.0011342
2748.81	0.0011024
2758.45	0.0010807
2768.1	0.0009294
2777.74	0.0009208
2787.39	0.000771
2797.03	0.0011449
2806.68	0.001265
2816.32	0.001365
2825.97	0.001385
2835.61	0.001485
2845.26	0.001625
2854.9	0.002145
2864.55	0.002985
2874.19	0.004415
2883.84	0.005745
2893.48	0.006915
2903.12	0.008295
2912.77	0.010375
2922.41	0.012075
2932.06	0.014145
2941.7	0.016405
2951.35	0.017875
2960.99	0.020245
2970.64	0.026845
2980.28	0.030535
2989.93	0.025985
2999.57	0.019165
3009.22	0.013995
3018.86	0.009095
3028.51	0.004865
3038.15	0.002695
3047.8	0.001745
3057.44	0.001435
3067.09	0.001315
3076.73	0.0011116
3086.38	0.0009311
3096.02	0.0008244
3105.67	0.0009171
3115.31	0.0008559
3124.95	0.0011371
3134.6	0.000799
3144.24	0.0010054
3153.89	0.0008781
3163.53	0.0007373
3173.18	0.0009741
3182.82	0.0010738
3192.47	0.0010052
3202.11	0.0008924
3211.76	0.0009301
3221.4	0.0009519
3231.05	0.0008493
3240.69	0.0006422
3250.34	0.0006848
3259.98	0.0006674
3269.63	0.0006451
3279.27	0.0006418
3288.92	0.0006982
3298.56	0.0007791
3308.21	0.0006378
3317.85	0.0005966
3327.49	0.0006162
3337.14	0.0007312
3346.78	0.0006833
3356.43	0.001315
3366.07	0.002685
3375.72	0.011445
3385.36	0.040025
3395.01	0.048945
3404.65	0.023105
3414.3	0.005715
3423.94	0.002235
3433.59	0.001275
3443.23	0.001285
3452.88	0.0008558
3462.52	0.000701
3472.17	0.0008383
3481.81	0.0010887
3491.46	0.001415
3501.1	0.001635
3510.75	0.001705
3520.39	0.002415
3530.04	0.003015
3539.68	0.003025
3549.32	0.002465
3558.97	0.001325
3568.61	0.0007257
3578.26	0.0007197
3587.9	0.0007247
3597.55	0.0008823
3607.19	0.0007016
3616.84	0.0004276
3626.48	0.0004787
3636.13	0.0001393
3645.77	0.000446
3655.42	0.0004331
3665.06	0.0003922
3674.71	0.00062
3684.35	0.0003728
3694	0.00021183
3703.64	0.0006142
3713.29	3.9e-05
3722.93	0.00024767
3732.58	0.00025195
3742.22	0.00021043
3751.86	0.0004465
3761.51	0.0001225
3771.15	0.0003325
3780.8	0.00018072
3790.44	0.00023767
3800.09	0.0005092
3809.73	0.00022297
3819.38	0.0003282
3829.02	0.0003115
3838.67	0.0001295
3848.31	0.0002974
3857.96	0.0003005
3867.6	0.0004739
3877.25	0.0005716
3886.89	0.0003244
3896.54	0.0003774
3906.18	0.0005952
3915.83	0.0004322
3925.47	0.0006544
3935.12	0.0007658
3944.76	0.0005109
3954.41	0.0009313
3964.05	0.0008333
3973.69	0.0005867
3983.34	0.0005763
3992.98	0.0004378
