Infrared Spectrum: Methyl adipyl chloride
Formula: C 7 H 11 Cl O 3
CAS: 35444-44-1
State: gas
Origin: EPA-IR VAPOR PHASE LIBRARY
1/CM	ABSORBANCE
549.9	0.001764
559.547	0.001747
569.193	0.0019299
578.84	0.0021963
588.486	0.0023434
598.133	0.0025538
607.779	0.00281
617.426	0.00272
627.072	0.00271
636.719	0.0025527
646.365	0.0023937
656.012	0.0020767
665.658	0.001846
675.305	0.0019084
684.951	0.0018206
694.598	0.0021598
704.245	0.0023798
713.891	0.0024305
723.538	0.00267
733.184	0.00292
742.831	0.00339
752.477	0.00413
762.124	0.00466
771.77	0.00487
781.417	0.0051
791.063	0.00509
800.71	0.00536
810.356	0.00634
820.003	0.00771
829.649	0.00844
839.296	0.00831
848.943	0.00774
858.589	0.0073
868.236	0.00687
877.882	0.0063
887.529	0.00556
897.175	0.00491
906.822	0.00432
916.468	0.00369
926.115	0.00328
935.761	0.00312
945.408	0.00332
955.054	0.00359
964.701	0.00483
974.347	0.00673
983.994	0.00892
993.64	0.01234
1003.29	0.01723
1012.93	0.02127
1022.58	0.02078
1032.23	0.01809
1041.87	0.01763
1051.52	0.01914
1061.17	0.0217
1070.81	0.02278
1080.46	0.02213
1090.11	0.01992
1099.75	0.01838
1109.4	0.02065
1119.05	0.02868
1128.69	0.04527
1138.34	0.07238
1147.99	0.09948
1157.63	0.11455
1167.28	0.11964
1176.92	0.11373
1186.57	0.102
1196.22	0.09881
1205.86	0.09709
1215.51	0.09327
1225.16	0.09004
1234.8	0.0883
1244.45	0.08539
1254.1	0.0761
1263.74	0.06177
1273.39	0.04878
1283.04	0.04098
1292.68	0.03531
1302.33	0.03091
1311.98	0.02876
1321.62	0.02636
1331.27	0.0253
1340.92	0.0282
1350.56	0.03258
1360.21	0.03484
1369.86	0.02907
1379.5	0.0191
1389.15	0.01232
1398.79	0.00964
1408.44	0.01036
1418.09	0.01396
1427.73	0.02342
1437.38	0.04201
1447.03	0.03323
1456.67	0.02306
1466.32	0.01751
1475.97	0.01188
1485.61	0.00819
1495.26	0.00628
1504.91	0.00516
1514.55	0.00454
1524.2	0.00423
1533.85	0.00399
1543.49	0.00391
1553.14	0.00389
1562.79	0.00394
1572.43	0.00384
1582.08	0.00373
1591.73	0.00347
1601.37	0.00332
1611.02	0.00316
1620.67	0.00304
1630.31	0.00306
1639.96	0.00309
1649.6	0.00321
1659.25	0.00344
1668.9	0.0039
1678.54	0.00455
1688.19	0.00585
1697.84	0.00837
1707.48	0.01313
1717.13	0.02225
1726.78	0.03951
1736.42	0.07159
1746.07	0.12301
1755.72	0.18092
1765.36	0.16839
1775.01	0.103
1784.66	0.05153
1794.3	0.02319
1803.95	0.0112
1813.6	0.00643
1823.24	0.00437
1832.89	0.00342
1842.54	0.00293
1852.18	0.00265
1861.83	0.0025152
1871.47	0.0024583
1881.12	0.0023477
1890.77	0.0022739
1900.41	0.0021963
1910.06	0.0021329
1919.71	0.0021743
1929.35	0.0021899
1939	0.0022801
1948.65	0.0023772
1958.29	0.0024455
1967.94	0.0025945
1977.59	0.00273
1987.23	0.00292
1996.88	0.00303
2006.53	0.00313
2016.17	0.00316
2025.82	0.00318
2035.47	0.00309
2045.11	0.00309
2054.76	0.00302
2064.41	0.00289
2074.05	0.00273
2083.7	0.002423
2093.35	0.0022011
2102.99	0.0019193
2112.64	0.0017127
2122.28	0.00161326
2131.93	0.001508
2141.58	0.001391
2151.22	0.001385
2160.87	0.001364
2170.52	0.001298
2180.16	0.001239
2189.81	0.001265
2199.46	0.001144
2209.1	0.001109
2218.75	0.001058
2228.4	0.00108
2238.04	0.001072
2247.69	0.001032
2257.34	0.001088
2266.98	0.001137
2276.63	0.001128
2286.28	0.001121
2295.92	0.001093
2305.57	0.00114
2315.22	0.001114
2324.86	0.001149
2334.51	0.001154
2344.16	0.001154
2353.8	0.001157
2363.45	0.001169
2373.09	0.001109
2382.74	0.001116
2392.39	0.001107
2402.03	0.001055
2411.68	0.001037
2421.33	0.000975
2430.97	0.001015
2440.62	0.001013
2450.27	0.000961
2459.91	0.000915
2469.56	0.000913
2479.21	0.000863
2488.85	0.000835
2498.5	0.000821
2508.15	0.000843
2517.79	0.000785
2527.44	0.000789
2537.09	0.000785
2546.73	0.000832
2556.38	0.000772
2566.03	0.00077
2575.67	0.000837
2585.32	0.000886
2594.96	0.000997
2604.61	0.001024
2614.26	0.000925
2623.9	0.000873
2633.55	0.000829
2643.2	0.000866
2652.84	0.000885
2662.49	0.000859
2672.14	0.000831
2681.78	0.000842
2691.43	0.000826
2701.08	0.00078
2710.72	0.000728
2720.37	0.000713
2730.02	0.00056
2739.66	0.000628
2749.31	0.00063
2758.96	0.000774
2768.6	0.00088
2778.25	0.000913
2787.9	0.001052
2797.54	0.001245
2807.19	0.001508
2816.84	0.0021257
2826.48	0.00317
2836.13	0.00524
2845.77	0.00917
2855.42	0.0104
2865.07	0.00985
2874.71	0.01171
2884.36	0.01207
2894.01	0.0122
2903.65	0.01388
2913.3	0.01766
2922.95	0.02387
2932.59	0.03099
2942.24	0.0404
2951.89	0.0567
2961.53	0.06864
2971.18	0.04353
2980.83	0.02681
2990.47	0.01986
3000.12	0.01702
3009.77	0.01458
3019.41	0.01238
3029.06	0.01082
3038.71	0.00824
3048.35	0.00596
3058	0.00452
3067.64	0.00336
3077.29	0.00306
3086.94	0.00283
3096.58	0.0025543
3106.23	0.0022826
3115.88	0.0017347
3125.52	0.001468
3135.17	0.001161
3144.82	0.000938
3154.46	0.00084
3164.11	0.000631
3173.76	0.00045
3183.4	0.00044
3193.05	0.00032
3202.7	0.00041
3212.34	0.0003
3221.99	0.0003
3231.64	0.0001
3241.28	0.00016
3250.93	0.00019
3260.58	0.00013
3270.22	0.00021
3279.87	0.0003
3289.52	0.00026
3299.16	0.00022
3308.81	0.00032
3318.45	0.00029
3328.1	0.00038
3337.75	0.00038
3347.39	0.00035
3357.04	0.00034
3366.69	0.0005
3376.33	0.0005
3385.98	0.00052
3395.63	0.000684
3405.27	0.00076
3414.92	0.00059
3424.57	0.000766
3434.21	0.000683
3443.86	0.000891
3453.51	0.000949
3463.15	0.001235
3472.8	0.0015995
3482.45	0.0021198
3492.09	0.0024165
3501.74	0.00264
3511.39	0.0022202
3521.03	0.0015817
3530.68	0.001212
3540.33	0.001099
3549.97	0.00095
3559.62	0.000865
3569.26	0.000928
3578.91	0.000929
3588.56	0.000901
3598.2	0.0009
3607.85	0.000943
3617.5	0.000902
3627.14	0.000823
3636.79	0.000848
3646.44	0.000897
3656.08	0.00083
3665.73	0.000883
3675.38	0.000773
3685.02	0.000909
3694.67	0.000813
3704.32	0.000781
3713.96	0.000886
3723.61	0.000813
3733.26	0.000922
3742.9	0.001098
3752.55	0.000898
3762.2	0.000832
3771.84	0.000833
3781.49	0.001022
3791.13	0.000858
3800.78	0.001043
3810.43	0.001116
3820.07	0.000984
3829.72	0.001021
3839.37	0.000934
3849.01	0.001021
3858.66	0.001026
3868.31	0.00094
3877.95	0.00096
3887.6	0.000812
3897.25	0.000867
3906.89	0.00106
3916.54	0.000932
3926.19	0.001054
3935.83	0.000904
3945.48	0.001051
3955.13	0.000998
3964.77	0.000994
3974.42	0.001178
3984.07	0.001231
3993.71	0.001137
