Infrared Spectrum: m-Aminobenzamide
Formula: C 7 H 8 N 2 O
CAS: 3544-24-9
State: gas
Instrument: HP-GC/MS/IRD
Origin: NIST Mass Spectrometry Data Center
1/CM	ABSORBANCE
550	0.0008085
562	0.0008481
574	0.0006677
586	0.0005687
598	0.00077
610	0.0011748
622	0.0010769
634	0.0011979
646	0.0015565
658	0.0017193
670	0.0018084
682	0.0020108
694	0.0016654
706	0.0013838
718	0.001397
730	0.0020614
742	0.0029601
754	0.0024816
766	0.0015543
778	0.001177
790	0.001155
802	0.0010351
814	0.0008074
826	0.000715
838	0.0006919
850	0.0007128
862	0.0007656
874	0.0007909
886	0.0008195
898	0.0008437
910	0.000616
922	0.0002871
934	0.0002002
946	0.0001485
958	0.0001078
970	0.0001177
982	0.0001771
994	0.0002816
1006	0.000209
1018	1.32e-05
1030	3.41e-05
1042	0.0002024
1054	0.0003322
1066	0.0004246
1078	0.0003883
1090	0.0003168
1102	0.0002915
1114	0.0002376
1126	0.0002365
1138	0.0002178
1150	0.0001298
1162	0.0001078
1174	0.0001408
1186	0.0001144
1198	0.0001859
1210	0.0002673
1222	0.0004598
1234	0.0007535
1246	0.001232
1258	0.0015609
1270	0.0013629
1282	0.0010527
1294	0.001243
1306	0.0016621
1318	0.0021307
1330	0.0044682
1342	0.0097284
1354	0.0081037
1366	0.0021142
1378	0.0008371
1390	0.0004323
1402	0.000264
1414	0.0002519
1426	0.0003916
1438	0.0008041
1450	0.0016357
1462	0.0018029
1474	0.0009559
1486	0.0008547
1498	0.0007491
1510	0.0003322
1522	0.0003124
1534	0.0004169
1546	0.0005027
1558	0.0011451
1570	0.0034056
1582	0.0074646
1594	0.006919
1606	0.0042427
1618	0.0049016
1630	0.0044583
1642	0.0021835
1654	0.001265
1666	0.0012485
1678	0.0017072
1690	0.0023947
1702	0.0045507
1714	0.0105699
1726	0.0102707
1738	0.0032307
1750	0.0017732
1762	0.0011726
1774	0.0005214
1786	0.0002464
1798	0.0001507
1810	0.0001232
1822	0.0001254
1834	0.0001122
1846	8.8e-05
1858	7.81e-05
1870	4.84e-05
1882	4.4e-05
1894	7.26e-05
1906	9.68e-05
1918	0.0001166
1930	8.36e-05
1942	5.06e-05
1954	4.29e-05
1966	4.84e-05
1978	2.42e-05
1990	4.07e-05
2002	1.87e-05
2014	4.95e-05
2026	1.21e-05
2038	2.42e-05
2050	3.63e-05
2062	4.51e-05
2074	5.06e-05
2086	3.74e-05
2098	1.76e-05
2110	2.75e-05
2122	3.08e-05
2134	3.52e-05
2146	3.08e-05
2158	4.73e-05
2170	3.74e-05
2182	3.63e-05
2194	4.29e-05
2206	1.76e-05
2218	1.43e-05
2230	1.87e-05
2242	1.98e-05
2254	2.31e-05
2266	1.43e-05
2278	2.86e-05
2290	4.95e-05
2302	4.4e-06
2314	1.87e-05
2326	1.1e-06
2338	1.87e-05
2350	2.09e-05
2362	2.97e-05
2374	4.84e-05
2386	5.06e-05
2398	5.94e-05
2410	4.4e-05
2422	3.74e-05
2434	2.86e-05
2446	3.52e-05
2458	3.96e-05
2470	2.75e-05
2482	2.97e-05
2494	4.07e-05
2506	3.08e-05
2518	5.39e-05
2530	5.06e-05
2542	4.18e-05
2554	6.05e-05
2566	5.5e-05
2578	4.51e-05
2590	5.28e-05
2602	5.83e-05
2614	6.05e-05
2626	6.27e-05
2638	5.17e-05
2650	6.6e-05
2662	5.94e-05
2674	4.29e-05
2686	5.28e-05
2698	4.62e-05
2710	6.27e-05
2722	3.3e-05
2734	8.47e-05
2746	4.73e-05
2758	5.61e-05
2770	7.26e-05
2782	3.96e-05
2794	4.84e-05
2806	1.32e-05
2818	4.84e-05
2830	4.4e-05
2842	2.86e-05
2854	2.53e-05
2866	2.97e-05
2878	3.85e-05
2890	6.16e-05
2902	5.61e-05
2914	3.96e-05
2926	5.94e-05
2938	4.29e-05
2950	5.5e-05
2962	5.61e-05
2974	0.0001001
2986	8.8e-05
2998	0.0001232
3010	0.0003058
3022	0.0005137
3034	0.0006809
3046	0.0009493
3058	0.0010461
3070	0.0007557
3082	0.0005214
3094	0.0003443
3106	0.0001947
3118	0.0001485
3130	8.47e-05
3142	0.0001045
3154	0.0001023
3166	9.13e-05
3178	5.28e-05
3190	7.7e-05
3202	9.9e-05
3214	0.0001166
3226	0.0001419
3238	8.58e-05
3250	0.0001056
3262	8.8e-05
3274	7.37e-05
3286	5.61e-05
3298	5.83e-05
3310	6.6e-05
3322	4.84e-05
3334	7.59e-05
3346	0.0001023
3358	0.0001177
3370	0.0001749
3382	0.0002684
3394	0.000484
3406	0.0009273
3418	0.0013761
3430	0.001474
3442	0.0011088
3454	0.0005236
3466	0.0003586
3478	0.0003432
3490	0.0005368
3502	0.0006347
3514	0.0006259
3526	0.0006721
3538	0.0008833
3550	0.0010175
3562	0.0007711
3574	0.0002783
3586	0.0001254
3598	9.9e-05
3610	0.00011
3622	0.0001243
3634	9.24e-05
3646	7.04e-05
3658	7.7e-05
3670	2.42e-05
3682	1.87e-05
3694	8.8e-05
3706	4.4e-05
3718	6.71e-05
3730	3.85e-05
3742	0.0001045
3754	6.6e-05
3766	5.17e-05
3778	4.4e-05
3790	7.15e-05
3802	6.82e-05
3814	6.05e-05
3826	6.82e-05
3838	4.73e-05
