Infrared Spectrum: 2-Phenylnaphthalene
Formula: C 16 H 12
CAS: 35465-71-5
State: gas
Instrument: HP-GC/MS/IRD
Origin: NIST Mass Spectrometry Data Center
1/CM	ABSORBANCE
550	0.000776
562	0.000941
574	0.000195
586	7.7e-05
598	0.000158
610	6.8e-05
622	0.000433
634	0.000238
646	0.000191
658	0.00047
670	0.000832
682	0.001768
694	0.004961
706	0.00317
718	0.001157
730	0.001936
742	0.004043
754	0.007121
766	0.005393
778	0.002325
790	0.001026
802	0.001671
814	0.003035
826	0.001453
838	0.000968
850	0.002362
862	0.00148
874	0.000591
886	0.001122
898	0.000872
910	0.000378
922	0.000249
934	0.000524
946	0.001173
958	0.000461
970	0.000167
982	0.000123
994	0.00018
1006	0.000286
1018	0.001085
1030	0.00059
1042	0.000341
1054	0.000163
1066	0.000407
1078	0.000316
1090	6.1e-05
1102	5.6e-05
1114	0.000125
1126	0.000556
1138	0.000565
1150	0.000248
1162	0.000126
1174	0.000134
1186	0.00034
1198	0.000134
1210	0.000134
1222	0.00024
1234	0.000351
1246	0.000178
1258	0.000269
1270	0.000433
1282	0.000207
1294	0.000104
1306	6.2e-05
1318	0.000126
1330	0.000152
1342	0.000263
1354	0.00038
1366	0.000332
1378	0.000188
1390	0.000125
1402	4.8e-05
1414	0.000174
1426	0.000413
1438	0.000445
1450	0.000785
1462	0.001176
1474	0.000905
1486	0.001908
1498	0.003256
1510	0.000731
1522	0.000279
1534	0.000247
1546	0.000259
1558	0.000308
1570	0.000466
1582	0.001058
1594	0.002604
1606	0.001611
1618	0.000708
1630	0.000738
1642	0.000481
1654	0.000254
1666	0.000276
1678	0.000348
1690	0.000299
1702	0.000256
1714	0.00017
1726	0.000227
1738	0.000317
1750	0.000383
1762	0.000371
1774	0.000402
1786	0.000498
1798	0.000502
1810	0.000322
1822	0.000325
1834	0.000169
1846	0.000171
1858	0.000205
1870	0.00025
1882	0.000355
1894	0.00045
1906	0.000448
1918	0.000399
1930	0.000451
1942	0.00062
1954	0.000378
1966	9.8e-05
1978	2.7e-05
1990	3.5e-05
2002	4.4e-05
2014	4.6e-05
2026	3.1e-05
2038	3.4e-05
2050	3.8e-05
2062	1.9e-05
2074	3.2e-05
2086	3.4e-05
2098	4.8e-05
2110	1.3e-05
2122	2.5e-05
2134	2.9e-05
2146	3.3e-05
2158	2.2e-05
2170	3.1e-05
2182	1.3e-05
2194	2.7e-05
2206	4.1e-05
2218	3.8e-05
2230	1.5e-05
2242	2.8e-05
2254	4.8e-05
2266	6.9e-05
2278	4.9e-05
2290	0.000111
2302	7e-05
2314	8.5e-05
2326	4.2e-05
2338	6e-05
2350	2.5e-05
2362	5e-06
2374	1.8e-05
2386	3.9e-05
2398	5.8e-05
2410	4.4e-05
2422	3.6e-05
2434	4.8e-05
2446	5.4e-05
2458	4.7e-05
2470	6e-05
2482	6e-05
2494	6.5e-05
2506	6.4e-05
2518	2.1e-05
2530	3.7e-05
2542	5.1e-05
2554	6.9e-05
2566	4e-05
2578	5e-05
2590	6e-05
2602	3.8e-05
2614	6.6e-05
2626	4.9e-05
2638	4.2e-05
2650	6.3e-05
2662	2.6e-05
2674	3.9e-05
2686	2.8e-05
2698	2.3e-05
2710	3.2e-05
2722	4.9e-05
2734	5.8e-05
2746	5.8e-05
2758	4.6e-05
2770	6.8e-05
2782	7.1e-05
2794	5.3e-05
2806	5.5e-05
2818	4.9e-05
2830	7.4e-05
2842	6.7e-05
2854	9.4e-05
2866	0.000105
2878	0.00013
2890	0.000149
2902	0.000179
2914	0.000181
2926	0.000243
2938	0.000251
2950	0.000322
2962	0.000382
2974	0.000464
2986	0.000542
2998	0.000799
3010	0.001378
3022	0.002866
3034	0.003991
3046	0.004241
3058	0.00809
3070	0.009266
3082	0.004946
3094	0.002455
3106	0.001295
3118	0.000707
3130	0.000372
3142	0.000261
3154	0.000249
3166	0.000161
3178	0.000115
3190	9.2e-05
3202	5.3e-05
3214	8.9e-05
3226	0.00012
3238	7.1e-05
3250	4e-05
3262	8.3e-05
3274	3.3e-05
3286	4.9e-05
3298	3.8e-05
3310	5.4e-05
3322	2.4e-05
3334	5.1e-05
3346	5e-05
3358	5.7e-05
3370	3.1e-05
3382	1.6e-05
3394	4.5e-05
3406	2.4e-05
3418	6.4e-05
3430	2.4e-05
3442	7.1e-05
3454	5e-05
3466	1.3e-05
3478	4.2e-05
3490	3.2e-05
3502	3.2e-05
3514	2.5e-05
3526	2.6e-05
3538	5.5e-05
3550	5.5e-05
3562	4.5e-05
3574	6.1e-05
3586	7.3e-05
3598	5.3e-05
3610	5.1e-05
3622	6.3e-05
3634	5.9e-05
3646	6.7e-05
3658	8.4e-05
3670	2.9e-05
3682	6.2e-05
3694	8e-05
3706	0.000111
3718	9.1e-05
3730	7.1e-05
3742	6e-05
3754	7e-05
3766	6.6e-05
3778	0.000106
3790	9.7e-05
3802	4.5e-05
3814	3.3e-05
3826	5.8e-05
3838	6.3e-05
