Infrared Spectrum: 4-(p-Chlorophenoxy)butyric acid
Formula: C 10 H 11 Cl O 3
CAS: 3547-07-7
State: gas
Origin: EPA-IR VAPOR PHASE LIBRARY
1/CM	ABSORBANCE
549.8	0.0097672
559.445	0.0098872
569.09	0.0105772
578.734	0.0109672
588.379	0.0119372
598.024	0.0132072
607.669	0.0146172
617.313	0.0157772
626.958	0.0188072
636.603	0.0195672
646.248	0.0159172
655.893	0.0158772
665.537	0.0160972
675.182	0.0097272
684.827	0.0059072
694.472	0.0045472
704.116	0.0038972
713.761	0.0036272
723.406	0.0032772
733.051	0.0027172
742.695	0.0024272
752.34	0.0024372
761.985	0.0031772
771.63	0.0033172
781.275	0.0030872
790.919	0.0040072
800.564	0.0054772
810.209	0.0091472
819.854	0.0182572
829.498	0.0187372
839.143	0.0102072
848.788	0.0056572
858.433	0.0037372
868.078	0.0028472
877.722	0.0028072
887.367	0.0027872
897.012	0.0026472
906.657	0.0027272
916.301	0.0029272
925.946	0.0040472
935.591	0.0059572
945.236	0.0080272
954.88	0.0068072
964.525	0.0041172
974.17	0.0036572
983.815	0.0040872
993.46	0.0063372
1003.1	0.0142672
1012.75	0.0167872
1022.39	0.0173472
1032.04	0.0274872
1041.68	0.0378672
1051.33	0.0357072
1060.97	0.0277072
1070.62	0.0252272
1080.26	0.0282372
1089.91	0.0388372
1099.55	0.0402672
1109.2	0.0306072
1118.84	0.0353772
1128.49	0.0485572
1138.13	0.0530472
1147.78	0.0380872
1157.42	0.0300972
1167.07	0.0366372
1176.71	0.0211572
1186.36	0.0166472
1196	0.0189672
1205.64	0.0263672
1215.29	0.0381572
1224.93	0.0600072
1234.58	0.0886972
1244.22	0.0787872
1253.87	0.0405172
1263.51	0.0344172
1273.16	0.0356372
1282.8	0.0284472
1292.45	0.0194772
1302.09	0.0153072
1311.74	0.0112672
1321.38	0.0089672
1331.03	0.0082772
1340.67	0.0083672
1350.32	0.0089672
1359.96	0.0101172
1369.61	0.0126572
1379.25	0.0163972
1388.9	0.0182472
1398.54	0.0132972
1408.18	0.0088072
1417.83	0.0078472
1427.47	0.0088572
1437.12	0.0096572
1446.76	0.0106372
1456.41	0.0102372
1466.05	0.0167372
1475.7	0.0413472
1485.34	0.0706072
1494.99	0.0961372
1504.63	0.0229472
1514.28	0.0089372
1523.92	0.0057072
1533.57	0.0039572
1543.21	0.0032572
1552.86	0.0031772
1562.5	0.0037972
1572.15	0.0060872
1581.79	0.0106672
1591.44	0.0141572
1601.08	0.0117272
1610.73	0.0050272
1620.37	0.0027772
1630.01	0.0021172
1639.66	0.0017672
1649.3	0.0015872
1658.95	0.0014172
1668.59	0.0013272
1678.24	0.0015272
1687.88	0.0018572
1697.53	0.0024672
1707.17	0.0035772
1716.82	0.0052972
1726.46	0.0082372
1736.11	0.0135272
1745.75	0.0213572
1755.4	0.0327272
1765.04	0.0514272
1774.69	0.0739172
1784.33	0.0673172
1793.98	0.0434872
1803.62	0.0264072
1813.27	0.0142972
1822.91	0.0076872
1832.55	0.0045872
1842.2	0.0033672
1851.84	0.0028772
1861.49	0.0026772
1871.13	0.0026172
1880.78	0.0020872
1890.42	0.0017572
1900.07	0.0015172
1909.71	0.0011872
1919.36	0.0011272
1929	0.0009944
1938.65	0.0009857
1948.29	0.0009349
1957.94	0.0009189
1967.58	0.0009348
1977.23	0.0009473
1986.87	0.0010243
1996.52	0.0010672
2006.16	0.0010972
2015.81	0.0010372
2025.45	0.0010972
2035.1	0.0010872
2044.74	0.0011472
2054.38	0.0010972
2064.03	0.0011872
2073.67	0.0011172
2083.32	0.0009389
2092.96	0.0009007
2102.61	0.0008137
2112.25	0.0006933
2121.9	0.0005366
2131.54	0.0005977
2141.19	0.0005035
2150.83	0.0004577
2160.48	0.0005022
2170.12	0.000519
2179.77	0.0005435
2189.41	0.0005397
2199.06	0.0005854
2208.7	0.0005621
2218.35	0.0005781
2227.99	0.0005636
2237.64	0.0006415
2247.28	0.0006568
2256.92	0.0008098
2266.57	0.0007595
2276.21	0.0007126
2285.86	0.0007588
2295.5	0.0007619
2305.15	0.0006351
2314.79	0.0006748
2324.44	0.0006314
2334.08	0.0006759
2343.73	0.0005821
2353.37	0.000556
2363.02	0.000609
2372.66	0.0005863
2382.31	0.0006769
2391.95	0.0008103
2401.6	0.0008305
2411.24	0.000746
2420.89	0.0007543
2430.53	0.0007999
2440.18	0.0009005
2449.82	0.0008387
2459.47	0.0008666
2469.11	0.0008158
2478.75	0.0008177
2488.4	0.0008691
2498.04	0.0008822
2507.69	0.0010572
2517.33	0.0008975
2526.98	0.0008974
2536.62	0.0008219
2546.27	0.0006634
2555.91	0.0004927
2565.56	0.0004873
2575.2	0.0004918
2584.85	0.0004253
2594.49	0.0003457
2604.14	0.0003091
2613.78	0.00034
2623.43	0.000361
2633.07	0.0004338
2642.72	0.0003863
2652.36	0.0004082
2662.01	0.0004588
2671.65	0.0004622
2681.29	0.0004999
2690.94	0.0005755
2700.58	0.0005257
2710.23	0.0005209
2719.87	0.0005178
2729.52	0.000709
2739.16	0.0008858
2748.81	0.0008286
2758.45	0.0009162
2768.1	0.0008503
2777.74	0.0008686
2787.39	0.0008104
2797.03	0.0008804
2806.68	0.0009374
2816.32	0.0013072
2825.97	0.0015072
2835.61	0.0017172
2845.26	0.0021372
2854.9	0.0031272
2864.55	0.0043772
2874.19	0.0060472
2883.84	0.0073872
2893.48	0.0078472
2903.12	0.0076272
2912.77	0.0074772
2922.41	0.0082772
2932.06	0.0104672
2941.7	0.0129172
2951.35	0.0130672
2960.99	0.0129972
2970.64	0.0124572
2980.28	0.0093672
2989.93	0.0058272
2999.57	0.0033572
3009.22	0.0022972
3018.86	0.0017272
3028.51	0.0018072
3038.15	0.0025572
3047.8	0.0032472
3057.44	0.0022772
3067.09	0.0020872
3076.73	0.0021872
3086.38	0.0025072
3096.02	0.0030572
3105.67	0.0024072
3115.31	0.0012372
3124.95	0.0007537
3134.6	0.0004668
3144.24	0.0003507
3153.89	0.0003503
3163.53	0.0004023
3173.18	0.0002915
3182.82	0.0002496
3192.47	0.0003413
3202.11	0.0002739
3211.76	0.000271
3221.4	0.0002134
3231.05	0.0001463
3240.69	0.00010892
3250.34	0.0002657
3259.98	0.0003275
3269.63	0.0001708
3279.27	0.0002057
3288.92	0.000365
3298.56	0.0002877
3308.21	0.0001604
3317.85	0.0001192
3327.49	0.000349
3337.14	0.0002549
3346.78	0.000262
3356.43	0.0002275
3366.07	0.00022
3375.72	0.000244
3385.36	0.0002522
3395.01	0.0003546
3404.65	0.0002463
3414.3	0.0003093
3423.94	0.0003303
3433.59	0.0003701
3443.23	0.00038
3452.88	0.0003682
3462.52	0.000252
3472.17	0.0003451
3481.81	0.0004265
3491.46	0.0004624
3501.1	0.0005773
3510.75	0.000741
3520.39	0.0011172
3530.04	0.0013772
3539.68	0.0018372
3549.32	0.0029972
3558.97	0.0076972
3568.61	0.0226872
3578.26	0.0316672
3587.9	0.0096572
3597.55	0.0031272
3607.19	0.0015572
3616.84	0.0010372
3626.48	0.0006557
3636.13	0.0006048
3645.77	0.0005462
3655.42	0.0005686
3665.06	0.0002995
3674.71	0.0004597
3684.35	0.0003017
3694	0.0003441
3703.64	0.0003358
3713.29	0.0003102
3722.93	0.0002776
3732.58	0.0003122
3742.22	0.0003345
3751.86	0.0002117
3761.51	0.0001966
3771.15	0.0001816
3780.8	0.0003172
3790.44	0.0002123
3800.09	0
3809.73	0.0002858
3819.38	0.0001808
3829.02	0.00012567
3838.67	0.0001989
3848.31	0.0002423
3857.96	0.0001397
3867.6	0.0003543
3877.25	0.0002094
3886.89	0.0004052
3896.54	0.0003005
3906.18	0.0002184
3915.83	0.000359
3925.47	0.0001628
3935.12	0.000218
3944.76	0.0003254
3954.41	3.427e-05
3964.05	0.0003227
3973.69	0.0003565
3983.34	0.0001853
3992.98	0.0002954
