Infrared Spectrum: ETHANE, 1,1-BIS(4-CHLOROPHENYL)-
Formula: C14 H12 Cl2
CAS: 3547-04-4
State: SOLUTION (10% CCl4 FOR 3800-1330, 10% CS2 FOR 1330-450 CM^-^1)
Class: COBLENTZ III
Instrument: Not specified, most likely a prism, grating, or hybrid spectrometer.
Sampling: TRANSMISSION
Path length: 0.011 CM, 0.012 CM
Resolution: 4
Origin: DOW CHEMICAL COMPANY
1/CM	TRANSMITTANCE
452.128	0.864
461.247	0.862
470.365	0.832
479.484	0.798
488.602	0.8
497.721	0.85
506.839	0.835
515.958	0.4169
525.077	0.81
534.195	0.685
543.314	0.335
552.432	0.8919
561.551	0.985
570.669	1.008
579.788	1.014
588.907	1.026
598.025	1.023
607.144	1.021
616.262	1.008
625.381	0.923
634.499	0.98
643.618	0.951
652.737	0.885
661.855	0.8071
670.974	0.75
680.092	0.962
689.211	0.992
698.329	0.983
707.448	0.966
716.567	0.921
725.685	0.855
734.804	0.919
743.922	0.969
753.041	0.95
762.159	0.835
771.278	0.503
780.397	0.905
789.515	0.896
798.634	0.773
807.752	0.56
816.871	0.4189
825.989	0.096
835.108	0.119
844.227	0.6459
853.345	0.758
862.464	0.794
871.582	0.851
880.701	0.894
889.819	0.941
898.938	0.969
908.057	1.001
917.175	0.989
926.294	0.967
935.412	0.942
944.531	0.953
953.649	0.948
962.768	0.958
971.887	0.944
981.005	0.894
990.124	0.946
999.242	0.905
1008.36	0.6584
1017.48	0.4596
1026.6	0.921
1035.72	0.889
1044.84	0.776
1053.95	0.7962
1063.07	0.835
1072.19	0.776
1081.31	0.65
1090.43	0.1258
1099.55	0.2547
1108.67	0.728
1117.78	0.789
1126.9	0.95
1136.02	0.966
1145.14	0.973
1154.26	0.973
1163.38	0.962
1172.5	0.928
1181.61	0.883
1190.73	0.96
1199.85	0.98
1208.97	0.987
1218.09	0.98
1227.21	0.946
1236.33	0.976
1245.44	0.989
1254.56	0.975
1263.68	0.967
1272.8	0.933
1281.92	0.923
1291.04	0.887
1300.16	0.948
1309.27	0.951
1318.39	0.933
1327.51	0.941
1336.63	0.942
1345.75	0.937
1354.87	0.95
1363.99	0.942
1373.1	0.741
1382.22	0.919
1391.34	0.878
1400.46	0.6459
1409.58	0.5752
1418.7	0.891
1427.82	0.917
1436.93	0.903
1446.05	0.7569
1455.17	0.708
1464.29	0.753
1473.41	0.528
1482.53	0.339
1491.65	0.03
1500.76	0.5761
1509.88	0.675
1519	0.676
1528.12	0.646
1537.24	0.5229
1546.36	0.5
1555.48	0.5829
1564.59	0.619
1573.71	0.632
1582.83	0.675
1591.95	0.689
1601.07	0.83
1610.19	0.898
1619.31	0.941
1628.42	0.969
1637.54	0.975
1646.66	0.925
1655.78	0.925
1664.9	0.955
1674.02	0.966
1683.14	0.964
1692.25	0.969
1701.37	0.975
1710.49	0.975
1719.61	0.969
1728.73	0.966
1737.85	0.96
1746.97	0.957
1756.08	0.946
1765.2	0.928
1774.32	0.91
1783.44	0.955
1792.56	0.967
1801.68	0.967
1810.8	0.969
1819.91	0.971
1829.03	0.969
1838.15	0.966
1847.27	0.967
1856.39	0.964
1865.51	0.957
1874.63	0.941
1883.74	0.905
1892.86	0.801
1901.98	0.9281
1911.1	0.962
1920.22	0.971
1929.34	0.973
1938.46	0.975
1947.57	0.973
1956.69	1
1965.81	0.976
1974.93	0.975
1984.05	0.975
1993.17	0.975
2002.29	0.967
2011.4	0.964
2020.52	0.9689
2029.64	0.9709
2038.76	0.973
2047.88	0.976
2057	0.976
2066.12	0.976
2075.23	0.976
2084.35	0.976
2093.47	0.976
2102.59	0.976
2111.71	0.976
2120.83	0.976
2129.95	0.976
2139.06	0.976
2148.18	0.978
2157.3	0.976
2166.42	0.978
2175.54	0.978
2184.66	0.9771
2193.78	0.976
2202.89	0.975
2212.01	0.975
2221.13	0.973
2230.25	0.9721
2239.37	0.973
2248.49	0.971
2257.61	0.967
2266.72	0.9613
2275.84	0.9563
2284.96	0.9507
2294.08	0.9434
2303.2	0.9413
2312.32	0.9465
2321.44	0.9541
2330.55	0.962
2339.67	0.966
2348.79	0.967
2357.91	0.969
2367.03	0.9712
2376.15	0.973
2385.27	0.973
2394.38	0.973
2403.5	0.971
2412.62	0.971
2421.74	0.971
2430.86	0.9729
2439.98	0.975
2449.1	0.978
2458.21	0.978
2467.33	0.9777
2476.45	0.976
2485.57	0.9752
2494.69	0.975
2503.81	0.975
2512.93	0.978
2522.04	0.978
2531.16	0.978
2540.28	0.978
2549.4	0.9787
2558.52	0.9767
2567.64	0.973
2576.76	0.969
2585.87	0.971
2594.99	0.973
2604.11	0.9741
2613.23	0.975
2622.35	0.976
2631.47	0.976
2640.59	0.978
2649.7	0.978
2658.82	0.978
2667.94	0.978
2677.06	0.9787
2686.18	0.976
2695.3	0.978
2704.42	0.98
2713.53	0.9794
2722.65	0.9775
2731.77	0.9765
2740.89	0.98
2750.01	0.98
2759.13	0.98
2768.25	0.978
2777.36	0.978
2786.48	0.9818
2795.6	0.98
2804.72	0.9799
2813.84	0.9729
2822.96	0.964
2832.08	0.969
2841.19	0.9691
2850.31	0.9571
2859.43	0.9374
2868.55	0.8658
2877.67	0.7517
2886.79	0.8319
2895.91	0.855
2905.02	0.8469
2914.14	0.8717
2923.26	0.8683
2932.38	0.7762
2941.5	0.824
2950.62	0.875
2959.74	0.7625
2968.85	0.4572
2977.97	0.4051
2987.09	0.7983
2996.21	0.8621
3005.33	0.9092
3014.45	0.9325
3023.57	0.8549
3032.68	0.8133
3041.8	0.8461
3050.92	0.8492
3060.04	0.9151
3069.16	0.928
3078.28	0.9184
3087.4	0.8615
3096.51	0.9377
3105.63	0.9447
3114.75	0.9786
3123.87	0.9834
3132.99	0.9895
3142.11	0.991
3151.23	0.9924
3160.34	0.992
3169.46	0.992
3178.58	0.994
3187.7	0.9982
3196.82	1.001
3205.94	1.0028
3215.06	1.0049
3224.17	1.005
3233.29	1.007
3242.41	1.01
3251.53	1.012
3260.65	1.014
3269.77	1.016
3278.89	1.0188
3288	1.025
3297.12	1.026
3306.24	1.0283
3315.36	1.028
3324.48	1.0296
3333.6	1.032
3342.72	1.032
3351.83	1.033
3360.95	1.0344
3370.07	1.035
3379.19	1.037
3388.31	1.039
3397.43	1.037
3406.55	1.035
3415.66	1.035
3424.78	1.0309
3433.9	1.0264
3443.02	1.025
3452.14	1.024
3461.26	1.021
3470.38	1.017
3479.49	1.016
3488.61	1.0152
3497.73	1.01
3506.85	1.0076
3515.97	1.007
3525.09	1.005
3534.21	1.003
3543.32	1.003
3552.44	1.003
3561.56	1.0003
3570.68	1.0058
3579.8	0.9996
3588.92	0.9926
3598.04	0.998
3607.15	0.998
3616.27	0.9919
3625.39	0.9977
3634.51	1.001
3643.63	0.9979
3652.75	0.992
3661.87	0.994
3670.98	0.996
3680.1	0.996
3689.22	0.996
3698.34	0.9892
3707.46	0.9907
3716.58	0.992
3725.7	0.994
3734.81	0.9976
3743.93	1.001
3753.05	1.003
