Infrared Spectrum: CYCLOHEXENE, DECAFLUORO-
Formula: C6 F10
CAS: 355-75-9
State: SOLUTION (10% CCl4 FOR 3800-400 CM^-^1))
Class: COBLENTZ III
Instrument: BECKMAN IR-9 (GRATING)
Instrument parameters: ORDER CHANGES: 670, 1200, 2000 CM^-^1
Sampling: TRANSMISSION
Path length: 0.011 CM
Resolution: 2
Origin: DOW CHEMICAL COMPANY
1/CM	TRANSMITTANCE
401	0.5712
410	0.5735
419	0.594
428	0.6828
437	0.7147
446	0.7001
455	0.5744
464	0.7283
473	0.7447
482	0.7611
491	0.8367
500	0.8696
509	0.8773
518	0.847
527	0.8141
536	0.8644
545	0.8925
554	0.8923
563	0.7621
572	0.466
581	0.8466
590	0.9124
599	0.9075
608	0.8936
617	0.8446
626	0.6174
635	0.9018
644	0.9347
653	0.9141
662	0.5259
671	0.8654
680	0.8986
689	0.8747
698	0.7991
707	0.7721
716	0.6221
725	0.3692
734	0.0216
743	0.0001
752	0.0001
761	0
770	0
779	0
788	0
797	0
806	0.0001
815	0.0564
824	0.3236
833	0.5681
842	0.6953
851	0.7706
860	0.8169
869	0.8587
878	0.8865
887	0.898
896	0.9061
905	0.9148
914	0.9233
923	0.9241
932	0.8959
941	0.7451
950	0.7415
959	0.4857
968	0.0156
977	0
986	0.2091
995	0.0143
1004	0
1013	0.3151
1022	0.6575
1031	0.7692
1040	0.8171
1049	0.8342
1058	0.8328
1067	0.7958
1076	0.6805
1085	0.6339
1094	0.2028
1103	0.769
1112	0.7467
1121	0.7364
1130	0.5282
1139	0.0276
1148	0.0023
1157	0.4807
1166	0.556
1175	0.2741
1184	0.0001
1193	0.0005
1202	0.3071
1211	0.1425
1220	0.496
1229	0.6021
1238	0.4362
1247	0.0314
1256	0.4597
1265	0.6123
1274	0.503
1283	0.1395
1292	0.0002
1301	0.1613
1310	0.5365
1319	0.3347
1328	0.4682
1337	0.3987
1346	0.5324
1355	0.3447
1364	0
1373	0.5627
1382	0.7528
1391	0.8284
1400	0.8943
1409	0.9159
1418	0.8935
1427	0.9187
1436	0.9385
1445	0.9428
1454	0.9377
1463	0.9311
1472	0.9291
1481	0.9093
1490	0.8865
1499	0.8573
1508	0.7945
1517	0.7353
1526	0.6811
1535	0.6022
1544	0.5167
1553	0.4894
1562	0.5318
1571	0.6166
1580	0.6594
1589	0.6838
1598	0.7801
1607	0.8538
1616	0.8944
1625	0.9256
1634	0.9418
1643	0.9505
1652	0.9549
1661	0.9591
1670	0.9614
1679	0.9621
1688	0.9616
1697	0.9509
1706	0.9308
1715	0.8878
1724	0.9339
1733	0.8205
1742	0.1618
1751	0.7284
1760	0.7834
1769	0.8936
1778	0.944
1787	0.9585
1796	0.9607
1805	0.9615
1814	0.9623
1823	0.9621
1832	0.9617
1841	0.9575
1850	0.9514
1859	0.955
1868	0.9664
1877	0.9724
1886	0.9627
1895	0.9647
1904	0.9671
1913	0.9699
1922	0.9721
1931	0.9733
1940	0.9731
1949	0.9725
1958	0.9697
1967	0.9749
1976	0.9757
1985	0.9747
1994	0.9747
2003	0.9648
2012	0.961
2021	0.9614
2030	0.9613
2039	0.9616
2048	0.9621
2057	0.9625
2066	0.9637
2075	0.9639
2084	0.9643
2093	0.9647
2102	0.965
2111	0.9648
2120	0.9653
2129	0.9735
2138	0.9725
2147	0.9696
2156	0.9705
2165	0.9716
2174	0.9703
2183	0.9713
2192	0.9731
2201	0.9715
2210	0.9639
2219	0.9596
2228	0.9621
2237	0.9673
2246	0.9682
2255	0.9618
2264	0.9516
2273	0.9413
2282	0.9331
2291	0.9337
2300	0.9357
2309	0.9383
2318	0.9409
2327	0.9428
2336	0.9445
2345	0.9491
2354	0.9527
2363	0.9553
2372	0.9568
2381	0.9481
2390	0.9406
2399	0.9486
2408	0.9577
2417	0.9598
2426	0.9539
2435	0.9456
2444	0.9401
2453	0.951
2462	0.9605
2471	0.9649
2480	0.9663
2489	0.9638
2498	0.9575
2507	0.9527
2516	0.9528
2525	0.9578
2534	0.9655
2543	0.9694
2552	0.9717
2561	0.9732
2570	0.9738
2579	0.9734
2588	0.9732
2597	0.9732
2606	0.9728
2615	0.9718
2624	0.971
2633	0.9703
2642	0.9689
2651	0.9664
2660	0.964
2669	0.9657
2678	0.9715
2687	0.9734
2696	0.9735
2705	0.9732
2714	0.9728
2723	0.9724
2732	0.9721
2741	0.9734
2750	0.9764
2759	0.978
2768	0.9792
2777	0.9797
2786	0.9801
2795	0.98
2804	0.9797
2813	0.9786
2822	0.9775
2831	0.9763
2840	0.9751
2849	0.9739
2858	0.9735
2867	0.9735
2876	0.9731
2885	0.9721
2894	0.9714
2903	0.9707
2912	0.9701
2921	0.9694
2930	0.9688
2939	0.9677
2948	0.9691
2957	0.9711
2966	0.9718
2975	0.9728
2984	0.9734
2993	0.9738
3002	0.9741
3011	0.9745
3020	0.9743
3029	0.9728
3038	0.9706
3047	0.9698
3056	0.9724
3065	0.9725
3074	0.9714
3083	0.969
3092	0.9644
3101	0.9581
3110	0.9543
3119	0.9616
3128	0.9687
3137	0.9728
3146	0.9747
3155	0.9752
3164	0.9753
3173	0.9754
3182	0.9756
3191	0.9759
3200	0.9762
3209	0.9762
3218	0.9761
3227	0.9759
3236	0.9758
3245	0.9757
3254	0.9754
3263	0.9751
3272	0.9748
3281	0.9744
3290	0.9747
3299	0.9749
3308	0.9752
3317	0.9751
3326	0.975
3335	0.9749
3344	0.9748
3353	0.9744
3362	0.9741
3371	0.9737
3380	0.9734
3389	0.9734
3398	0.9735
3407	0.9736
3416	0.9738
3425	0.9738
3434	0.9738
3443	0.9737
3452	0.9737
3461	0.9737
3470	0.9737
3479	0.9738
3488	0.9739
3497	0.974
3506	0.9742
3515	0.9743
3524	0.9744
3533	0.9745
3542	0.9746
3551	0.9748
3560	0.9751
3569	0.9754
3578	0.9758
3587	0.9762
3596	0.9766
3605	0.977
3614	0.9771
3623	0.9771
3632	0.9771
3641	0.9771
3650	0.9771
3659	0.977
3668	0.9768
3677	0.9768
3686	0.9768
3695	0.9768
3704	0.9768
3713	0.9768
3722	0.9771
3731	0.9771
3740	0.9775
3749	0.9778
3758	0.9785
3767	0.9791
3776	0.9798
3785	0.9804
3794	0.9811
