Infrared Spectrum: 1H,1H,5H-Octafluoropentyl methacrylate
Formula: C 9 H 8 F 8 O 2
CAS: 355-93-1
State: gas
Origin: EPA-IR VAPOR PHASE LIBRARY
1/CM	ABSORBANCE
549.8	0.012093
559.445	0.011243
569.09	0.010043
578.734	0.010183
588.379	0.009673
598.024	0.010433
607.669	0.009513
617.313	0.008883
626.958	0.010053
636.603	0.009893
646.248	0.009603
655.893	0.007363
665.537	0.005633
675.182	0.004843
684.827	0.005953
694.472	0.007323
704.116	0.006413
713.761	0.005783
723.406	0.005033
733.051	0.007983
742.695	0.011223
752.34	0.011833
761.985	0.009293
771.63	0.007433
781.275	0.007643
790.919	0.013773
800.564	0.033173
810.209	0.041663
819.854	0.020873
829.498	0.012303
839.143	0.009543
848.788	0.009493
858.433	0.009213
868.078	0.009513
877.722	0.010633
887.367	0.014553
897.012	0.021213
906.657	0.018083
916.301	0.015993
925.946	0.019143
935.591	0.026143
945.236	0.029753
954.88	0.023513
964.525	0.020793
974.17	0.020623
983.815	0.018873
993.46	0.018843
1003.1	0.014143
1012.75	0.012533
1022.39	0.011443
1032.04	0.012703
1041.68	0.012923
1051.33	0.012643
1060.97	0.012893
1070.62	0.016613
1080.26	0.020623
1089.91	0.022573
1099.55	0.031613
1109.2	0.053773
1118.84	0.095413
1128.49	0.162173
1138.13	0.229993
1147.78	0.216963
1157.42	0.173723
1167.07	0.177373
1176.71	0.200933
1186.36	0.150433
1196	0.089923
1205.64	0.067843
1215.29	0.055073
1224.93	0.046743
1234.58	0.041553
1244.22	0.037313
1253.87	0.031263
1263.51	0.029613
1273.16	0.033303
1282.8	0.045523
1292.45	0.052043
1302.09	0.041763
1311.74	0.041613
1321.38	0.037233
1331.03	0.022713
1340.67	0.013763
1350.32	0.011093
1359.96	0.011543
1369.61	0.010003
1379.25	0.011543
1388.9	0.015943
1398.54	0.022083
1408.18	0.022383
1417.83	0.014603
1427.47	0.009953
1437.12	0.009643
1446.76	0.011913
1456.41	0.014893
1466.05	0.013713
1475.7	0.007393
1485.34	0.004983
1494.99	0.003683
1504.63	0.003493
1514.28	0.003083
1523.92	0.002893
1533.57	0.002703
1543.21	0.002263
1552.86	0.002613
1562.5	0.002503
1572.15	0.002883
1581.79	0.003043
1591.44	0.003523
1601.08	0.003853
1610.73	0.004203
1620.37	0.004893
1630.01	0.006633
1639.66	0.008033
1649.3	0.005273
1658.95	0.003573
1668.59	0.003043
1678.24	0.003253
1687.88	0.003923
1697.53	0.004603
1707.17	0.006563
1716.82	0.008523
1726.46	0.012663
1736.11	0.026143
1745.75	0.060943
1755.4	0.090113
1765.04	0.054063
1774.69	0.021093
1784.33	0.009493
1793.98	0.006013
1803.62	0.005193
1813.27	0.004593
1822.91	0.003573
1832.55	0.002623
1842.2	0.002403
1851.84	0.002353
1861.49	0.002163
1871.13	0.002573
1880.78	0.002963
1890.42	0.003243
1900.07	0.002933
1909.71	0.002143
1919.36	0.001923
1929	0.001913
1938.65	0.001883
1948.29	0.001613
1957.94	0.001593
1967.58	0.001623
1977.23	0.001553
1986.87	0.001353
1996.52	0.001483
2006.16	0.001423
2015.81	0.001653
2025.45	0.001423
2035.1	0.001633
2044.74	0.001763
2054.38	0.001503
2064.03	0.001523
2073.67	0.001533
2083.32	0.002123
2092.96	0.001743
2102.61	0.001953
2112.25	0.001563
2121.9	0.001423
2131.54	0.001583
2141.19	0.001583
2150.83	0.001593
2160.48	0.001583
2170.12	0.0012906
2179.77	0.001563
2189.41	0.001563
2199.06	0.001433
2208.7	0.001753
2218.35	0.001463
2227.99	0.001653
2237.64	0.001923
2247.28	0.001623
2256.92	0.002033
2266.57	0.001803
2276.21	0.001803
2285.86	0.001823
2295.5	0.001773
2305.15	0.001513
2314.79	0.001483
2324.44	0.001803
2334.08	0.001693
2343.73	0.001473
2353.37	0.001373
2363.02	0.0011489
2372.66	0.001303
2382.31	0.0012619
2391.95	0.001363
2401.6	0.0011583
2411.24	0.001373
2420.89	0.001373
2430.53	0.001303
2440.18	0.001563
2449.82	0.0010726
2459.47	0.0012628
2469.11	0.001593
2478.75	0.001343
2488.4	0.0012737
2498.04	0.001393
2507.69	0.001313
2517.33	0.001393
2526.98	0.0012515
2536.62	0.0010891
2546.27	0.001393
2555.91	0.000847
2565.56	0.0012789
2575.2	0.0012255
2584.85	0.0010686
2594.49	0.001343
2604.14	0.0012762
2613.78	0.0011469
2623.43	0.0007028
2633.07	0.0011495
2642.72	0.000929
2652.36	0.001189
2662.01	0.0008895
2671.65	0.001132
2681.29	0.0005699
2690.94	0.0010132
2700.58	0.0008181
2710.23	0.0007446
2719.87	0.0009636
2729.52	0.0006879
2739.16	0.0009895
2748.81	0.0007301
2758.45	0.001383
2768.1	0.0012812
2777.74	0.0006941
2787.39	0.0010117
2797.03	0.001323
2806.68	0.001069
2816.32	0.0010816
2825.97	0.001493
2835.61	0.001523
2845.26	0.001553
2854.9	0.002103
2864.55	0.001803
2874.19	0.002113
2883.84	0.003013
2893.48	0.003333
2903.12	0.003233
2912.77	0.002543
2922.41	0.003533
2932.06	0.004303
2941.7	0.007323
2951.35	0.005643
2960.99	0.007313
2970.64	0.011023
2980.28	0.012633
2989.93	0.011683
2999.57	0.009143
3009.22	0.008363
3018.86	0.005663
3028.51	0.004693
3038.15	0.002753
3047.8	0.002703
3057.44	0.002753
3067.09	0.001913
3076.73	0.001303
3086.38	0.001723
3096.02	0.001903
3105.67	0.002523
3115.31	0.002383
3124.95	0.0011905
3134.6	0.0010306
3144.24	0.001313
3153.89	0.0010479
3163.53	0.0011076
3173.18	0.001513
3182.82	0.0009353
3192.47	0.0008288
3202.11	0.0010961
3211.76	0.001563
3221.4	0.0011195
3231.05	0.0011514
3240.69	0.0002829
3250.34	0.001453
3259.98	0.0011151
3269.63	0.001413
3279.27	0.0006017
3288.92	0.0004962
3298.56	0.001343
3308.21	0.001563
3317.85	0.0010555
3327.49	0.0007693
3337.14	0.0012022
3346.78	0.001713
3356.43	0.001493
3366.07	0.0009447
3375.72	0.0011005
3385.36	0.0011586
3395.01	0.001453
3404.65	0.001353
3414.3	0.001443
3423.94	0.0010199
3433.59	0.0004758
3443.23	0.0009759
3452.88	0.0009076
3462.52	0.001703
3472.17	0.001833
3481.81	0.002043
3491.46	0.001683
3501.1	0.001963
3510.75	0.001583
3520.39	0.001683
3530.04	0.001253
3539.68	0.001923
3549.32	0.001373
3558.97	0.0011212
3568.61	0.0008004
3578.26	0.001413
3587.9	0.0011942
3597.55	0.0010204
3607.19	0.001002
3616.84	0.0012651
3626.48	0.0008369
3636.13	0.001293
3645.77	0.0008962
3655.42	0.0010139
3665.06	0.0005527
3674.71	0.001503
3684.35	0.0011614
3694	0.002053
3703.64	0.001743
3713.29	0.001151
3722.93	0.000855
3732.58	0.0007103
3742.22	0.0002273
3751.86	0.0011657
3761.51	0.0009205
3771.15	0.0008673
3780.8	0.0010181
3790.44	0.0009131
3800.09	0.0008209
3809.73	0.0011141
3819.38	0.0008656
3829.02	0.0007304
3838.67	0.0006739
3848.31	0.0011466
3857.96	0.0008481
3867.6	0.001603
3877.25	0.0009432
3886.89	0.0009483
3896.54	0.0011476
3906.18	0.0009537
3915.83	0.001373
3925.47	0.001423
3935.12	0.0008641
3944.76	0.0010384
3954.41	0.0005219
3964.05	0.0006913
3973.69	0.0008103
3983.34	0.0011414
3992.98	0.001313
