Infrared Spectrum: 2,3-Dichlorooctafluorobutane
Formula: C 4 Cl 2 F 8
CAS: 355-20-4
State: gas
Origin: EPA-IR VAPOR PHASE LIBRARY
1/CM	ABSORBANCE
549.8	0.00687
559.445	0.00569
569.09	0.00437
578.734	0.0042
588.379	0.00381
598.024	0.00251
607.669	0.00212
617.313	0.00349
626.958	0.00245
636.603	0.00235
646.248	0.00285
655.893	0.0019907
665.537	0.0018426
675.182	0.00204
684.827	0.00411
694.472	0.02405
704.116	0.0538
713.761	0.03616
723.406	0.03474
733.051	0.02116
742.695	0.02165
752.34	0.01167
761.985	0.00368
771.63	0.00233
781.275	0.00292
790.919	0.00317
800.564	0.00298
810.209	0.00461
819.854	0.01243
829.498	0.0336
839.143	0.04768
848.788	0.04819
858.433	0.03118
868.078	0.01434
877.722	0.02141
887.367	0.03571
897.012	0.02738
906.657	0.01785
916.301	0.0168
925.946	0.03034
935.591	0.04943
945.236	0.04581
954.88	0.03397
964.525	0.04303
974.17	0.04194
983.815	0.02241
993.46	0.01132
1003.1	0.00564
1012.75	0.0043
1022.39	0.00275
1032.04	0.00475
1041.68	0.00715
1051.33	0.01089
1060.97	0.01283
1070.62	0.01315
1080.26	0.0108
1089.91	0.0081
1099.55	0.01706
1109.2	0.02356
1118.84	0.03426
1128.49	0.03703
1138.13	0.03066
1147.78	0.02532
1157.42	0.01584
1167.07	0.0157
1176.71	0.01933
1186.36	0.0281
1196	0.06179
1205.64	0.16479
1215.29	0.2999
1224.93	0.42302
1234.58	0.49835
1244.22	0.41281
1253.87	0.22262
1263.51	0.12226
1273.16	0.10868
1282.8	0.08367
1292.45	0.0446
1302.09	0.02325
1311.74	0.01493
1321.38	0.01212
1331.03	0.00882
1340.67	0.00592
1350.32	0.00466
1359.96	0.00385
1369.61	0.00325
1379.25	0.00292
1388.9	0.00258
1398.54	0.00272
1408.18	0.00316
1417.83	0.00343
1427.47	0.00354
1437.12	0.00359
1446.76	0.00321
1456.41	0.003
1466.05	0.00258
1475.7	0.00253
1485.34	0.00238
1494.99	0.00229
1504.63	0.00252
1514.28	0.00254
1523.92	0.00263
1533.57	0.00235
1543.21	0.00228
1552.86	0.00227
1562.5	0.00218
1572.15	0.00208
1581.79	0.0018426
1591.44	0.001615
1601.08	0.0017857
1610.73	0.0012342
1620.37	0.0011692
1630.01	0.0013968
1639.66	0.0011165
1649.3	0.0011969
1658.95	0.0013868
1668.59	0.001313
1678.24	0.0012261
1687.88	0.00109302
1697.53	0.0009817
1707.17	0.0012536
1716.82	0.00107998
1726.46	0.0012768
1736.11	0.0011738
1745.75	0.0014727
1755.4	0.001412
1765.04	0.0012764
1774.69	0.001497
1784.33	0.00107111
1793.98	0.0012586
1803.62	0.0012271
1813.27	0.0013779
1822.91	0.0013017
1832.55	0.001366
1842.2	0.0012816
1851.84	0.0014349
1861.49	0.00106896
1871.13	0.0009921
1880.78	0.000961
1890.42	0.00107826
1900.07	0.001277
1909.71	0.0009974
1919.36	0.0013636
1929	0.0013437
1938.65	0.0013297
1948.29	0.0012862
1957.94	0.0014665
1967.58	0.0017165
1977.23	0.0015621
1986.87	0.0017394
1996.52	0.0013333
2006.16	0.0013337
2015.81	0.0012055
2025.45	0.0013622
2035.1	0.0013334
2044.74	0.0014259
2054.38	0.00101366
2064.03	0.0016051
2073.67	0.0013904
2083.32	0.001454
2092.96	0.0015858
2102.61	0.0013746
2112.25	0.0012586
2121.9	0.0012804
2131.54	0.0012911
2141.19	0.0013695
2150.83	0.0017606
2160.48	0.0014179
2170.12	0.0016319
2179.77	0.0015767
2189.41	0.00218
2199.06	0.00211
2208.7	0.0019913
2218.35	0.0017647
2227.99	0.001658
2237.64	0.0017903
2247.28	0.0016414
2256.92	0.001693
2266.57	0.0012506
2276.21	0.0015095
2285.86	0.0014067
2295.5	0.0012824
2305.15	0.0013271
2314.79	0.0013884
2324.44	0.0016921
2334.08	0.0014368
2343.73	0.0014981
2353.37	0.0015124
2363.02	0.0014073
2372.66	0.0012825
2382.31	0.0015468
2391.95	0.0017641
2401.6	0.0019097
2411.24	0.0019595
2420.89	0.00205
2430.53	0.00214
2440.18	0.00255
2449.82	0.00218
2459.47	0.00252
2469.11	0.00249
2478.75	0.00222
2488.4	0.0019612
2498.04	0.00209
2507.69	0.0018596
2517.33	0.0015863
2526.98	0.0016634
2536.62	0.0015888
2546.27	0.0015649
2555.91	0.0012984
2565.56	0.000896
2575.2	0.0009459
2584.85	0.001156
2594.49	0.0011308
2604.14	0.0009602
2613.78	0.0013232
2623.43	0.0014714
2633.07	0.0009138
2642.72	0.000512
2652.36	0.0009539
2662.01	0.001131
2671.65	0.00101178
2681.29	0.0014068
2690.94	0.0014351
2700.58	0.0011742
2710.23	0.0009888
2719.87	0.0015997
2729.52	0.0009902
2739.16	0.0012335
2748.81	0.000657
2758.45	0.000776
2768.1	0.0013184
2777.74	0.001449
2787.39	0.0011677
2797.03	0.00107411
2806.68	0.0011925
2816.32	0.0012212
2825.97	0.0012423
2835.61	0.0009175
2845.26	0.0009905
2854.9	0.000607
2864.55	0.0013888
2874.19	0.00106089
2883.84	0.000542
2893.48	0.0011705
2903.12	0.000862
2912.77	0.00103564
2922.41	0.0014859
2932.06	0.000909
2941.7	0.0009921
2951.35	0.000898
2960.99	0.0009132
2970.64	0.001312
2980.28	0.0012753
2989.93	0.0011295
2999.57	0.0011425
3009.22	0.00105577
3018.86	0.0013861
3028.51	0.000906
3038.15	0.0014525
3047.8	0.0009828
3057.44	0.0009695
3067.09	0.0014605
3076.73	0.0014642
3086.38	0.00109671
3096.02	0.000878
3105.67	0.000839
3115.31	0.0011915
3124.95	0.0009668
3134.6	0.0011315
3144.24	1.3e-05
3153.89	0.00105436
3163.53	0.0009711
3173.18	0.000788
3182.82	0.000882
3192.47	0.0016317
3202.11	0.001457
3211.76	0.000503
3221.4	0.0012298
3231.05	0.0010573
3240.69	0.0009654
3250.34	0.0011552
3259.98	0.001325
3269.63	0.0012849
3279.27	0.000533
3288.92	0.000735
3298.56	0.0013013
3308.21	0.000628
3317.85	0.00100084
3327.49	0.000689
3337.14	0.000788
3346.78	0.000862
3356.43	0.0009315
3366.07	0.0014502
3375.72	0.0011561
3385.36	0.0016152
3395.01	0.0013121
3404.65	0.00109169
3414.3	0.0016804
3423.94	0.0013807
3433.59	0.0009796
3443.23	0.000801
3452.88	0.00102192
3462.52	0.000627
3472.17	0.000705
3481.81	0.0007
3491.46	0.000323
3501.1	0.000884
3510.75	0.0012119
3520.39	0.00067
3530.04	0.000788
3539.68	0.00109541
3549.32	0.0013496
3558.97	0.0016161
3568.61	0.000717
3578.26	0.0009413
3587.9	0.000674
3597.55	0.0009584
3607.19	0.0013551
3616.84	0.000822
3626.48	0.0013725
3636.13	0.001111
3645.77	0.000883
3655.42	0.0009952
3665.06	0.000866
3674.71	0.00107085
3684.35	0.000901
3694	0.0013225
3703.64	0.0009669
3713.29	0.000479
3722.93	7e-05
3732.58	0.00064
3742.22	0.00106295
3751.86	0.000732
3761.51	0.000888
3771.15	0.00138
3780.8	0.00103822
3790.44	0.0017517
3800.09	0.0009872
3809.73	0.0013644
3819.38	0.00107172
3829.02	0.0012598
3838.67	0.000731
3848.31	0.0011446
3857.96	0.0011523
3867.6	0.000356
3877.25	0.00110614
3886.89	0.0011346
3896.54	0.0009503
3906.18	0.0011479
3915.83	0.00105012
3925.47	0.000807
3935.12	0.0016661
3944.76	0.0013295
3954.41	0.001381
3964.05	0.0016214
3973.69	0.0014111
3983.34	0.000706
3992.98	0.0009651
