Infrared Spectrum: CYCLOHEXANE, DODECAFLUORO-
Formula: C6 F12
CAS: 355-68-0
State: SOLUTION (10% CCl4 FOR 3800-400 CM^-^1)
Class: COBLENTZ III
Instrument: DOW KBr FOREPRISM-GRATING
Instrument parameters: BLAZED AT 3.5, 12.0, 20.0 MICRON AND CHANGED AT 5.0, 7.5, 14.9 MICRON
Sampling: TRANSMISSION
Path length: 0.011 CM
Resolution: 2
Origin: DOW CHEMICAL COMPANY
1/CM	TRANSMITTANCE
387	0.7186
396	0.7204
405	0.7278
414	0.7411
423	0.7538
432	0.7468
441	0.7336
450	0.7326
459	0.7353
468	0.5396
477	0.5027
486	0.7571
495	0.8332
504	0.847
513	0.852
522	0.8383
531	0.7997
540	0.8281
549	0.8557
558	0.8689
567	0.8585
576	0.859
585	0.8718
594	0.8739
603	0.8865
612	0.8768
621	0.851
630	0.6732
639	0.3228
648	0.8554
657	0.8494
666	0.8589
675	0.7384
684	0.8223
693	0.8201
702	0.7139
711	0.5246
720	0.4123
729	0.1862
738	0.0091
747	0.0002
756	0.0002
765	0.0001
774	0.0001
783	0.0001
792	0.0001
801	0.0031
810	0.0107
819	0.1684
828	0.4226
837	0.5746
846	0.7089
855	0.7476
864	0.6935
873	0.7498
882	0.7871
891	0.8065
900	0.839
909	0.8393
918	0.8616
927	0.8439
936	0.8105
945	0.8094
954	0.6968
963	0.5157
972	0.0458
981	0.0059
990	0.2626
999	0.4175
1008	0.4906
1017	0.5962
1026	0.6924
1035	0.7918
1044	0.7811
1053	0.7541
1062	0.7658
1071	0.7525
1080	0.7653
1089	0.7511
1098	0.6858
1107	0.759
1116	0.7395
1125	0.7051
1134	0.6215
1143	0.4976
1152	0.4989
1161	0.6371
1170	0.5735
1179	0.4343
1188	0.091
1197	0.0089
1206	0.1374
1215	0.1694
1224	0.1194
1233	0.0642
1242	0.0187
1251	0.0258
1260	0.0113
1269	0.1924
1278	0.3664
1287	0.3924
1296	0.1678
1305	0.1096
1314	0.1465
1323	0.2011
1332	0.4587
1341	0.5668
1350	0.542
1359	0.6164
1368	0.6362
1377	0.7514
1386	0.7645
1395	0.829
1404	0.8418
1413	0.8414
1422	0.8466
1431	0.8403
1440	0.8362
1449	0.8521
1458	0.8515
1467	0.8489
1476	0.8286
1485	0.8139
1494	0.7749
1503	0.7372
1512	0.6912
1521	0.6391
1530	0.5905
1539	0.507
1548	0.4628
1557	0.4839
1566	0.5731
1575	0.6123
1584	0.6337
1593	0.7196
1602	0.7968
1611	0.8371
1620	0.8538
1629	0.8643
1638	0.8718
1647	0.8771
1656	0.8806
1665	0.8857
1674	0.8861
1683	0.8838
1692	0.8833
1701	0.8832
1710	0.8842
1719	0.8825
1728	0.8761
1737	0.8675
1746	0.8805
1755	0.8848
1764	0.8874
1773	0.8851
1782	0.8852
1791	0.8903
1800	0.8854
1809	0.8793
1818	0.8917
1827	0.8952
1836	0.8959
1845	0.8954
1854	0.8959
1863	0.8975
1872	0.8968
1881	0.8939
1890	0.8971
1899	0.9006
1908	0.9008
1917	0.8996
1926	0.8981
1935	0.897
1944	0.8974
1953	0.9004
1962	0.8998
1971	0.8989
1980	0.898
1989	0.8984
1998	0.906
2007	0.9065
2016	0.9055
2025	0.9049
2034	0.9068
2043	0.9095
2052	0.9116
2061	0.9128
2070	0.9139
2079	0.9147
2088	0.9153
2097	0.9161
2106	0.917
2115	0.918
2124	0.9184
2133	0.9178
2142	0.9165
2151	0.9149
2160	0.9143
2169	0.9175
2178	0.9196
2187	0.9188
2196	0.9178
2205	0.9167
2214	0.9152
2223	0.9135
2232	0.9113
2241	0.9086
2250	0.9041
2259	0.9047
2268	0.9053
2277	0.9018
2286	0.8966
2295	0.8915
2304	0.8925
2313	0.8975
2322	0.9043
2331	0.912
2340	0.9162
2349	0.913
2358	0.9118
2367	0.9116
2376	0.9118
2385	0.9125
2394	0.9128
2403	0.913
2412	0.913
2421	0.912
2430	0.9107
2439	0.9109
2448	0.9125
2457	0.9166
2466	0.9153
2475	0.9075
2484	0.9011
2493	0.8975
2502	0.8977
2511	0.9042
2520	0.9131
2529	0.9198
2538	0.9214
2547	0.9201
2556	0.9177
2565	0.9162
2574	0.9181
2583	0.9221
2592	0.9253
2601	0.9256
2610	0.9247
2619	0.9254
2628	0.9286
2637	0.9305
2646	0.9315
2655	0.9318
2664	0.9317
2673	0.9315
2682	0.9314
2691	0.9313
2700	0.9314
2709	0.9314
2718	0.9315
2727	0.9315
2736	0.9313
2745	0.9311
2754	0.9309
2763	0.9309
2772	0.931
2781	0.9311
2790	0.931
2799	0.9307
2808	0.9305
2817	0.9296
2826	0.9285
2835	0.927
2844	0.9253
2853	0.9253
2862	0.9267
2871	0.9278
2880	0.9285
2889	0.9287
2898	0.9285
2907	0.9275
2916	0.9258
2925	0.9258
2934	0.927
2943	0.929
2952	0.9298
2961	0.93
2970	0.9304
2979	0.931
2988	0.9394
2997	0.9401
3006	0.9407
3015	0.9415
3024	0.9417
3033	0.9415
3042	0.9414
3051	0.9416
3060	0.9418
3069	0.9416
3078	0.9411
3087	0.9403
3096	0.9404
3105	0.941
3114	0.9423
3123	0.9438
3132	0.9448
3141	0.9454
3150	0.946
3159	0.9465
3168	0.947
3177	0.9474
3186	0.9477
3195	0.9477
3204	0.9478
3213	0.9482
3222	0.9486
3231	0.9489
3240	0.9493
3249	0.9496
3258	0.9499
3267	0.9502
3276	0.951
3285	0.9518
3294	0.9525
3303	0.9534
3312	0.9544
3321	0.9554
3330	0.9564
3339	0.9574
3348	0.9584
3357	0.9593
3366	0.9603
3375	0.9613
3384	0.962
3393	0.9627
3402	0.9635
3411	0.9647
3420	0.9659
3429	0.9666
3438	0.9671
3447	0.9675
3456	0.968
3465	0.9682
3474	0.9685
3483	0.9687
3492	0.9689
3501	0.9694
3510	0.9704
3519	0.9714
3528	0.9724
3537	0.9734
3546	0.9744
3555	0.9754
3564	0.9767
3573	0.978
3582	0.9794
3591	0.9802
3600	0.981
3609	0.9818
3618	0.9825
3627	0.9833
3636	0.984
3645	0.9846
3654	0.9851
3663	0.9852
3672	0.9847
3681	0.9824
3690	0.98
3699	0.9808
3708	0.9837
3717	0.9868
3726	0.9889
3735	0.9895
3744	0.9896
3753	0.9896
3762	0.9896
3771	0.9895
3780	0.9895
3789	0.9897
3798	0.9899
