Infrared Spectrum: Perfluorohexane
Formula: C 6 F 14
CAS: 355-42-0
State: gas
Instrument: HP-GC/MS/IRD
Origin: NIST Mass Spectrometry Data Center
1/CM	ABSORBANCE
550	0.000374
562	0.0004048
574	0.0004422
586	0.000341
598	0.0003278
610	0.000275
622	0.0003058
634	0.0004972
646	0.0003608
658	0.0003652
670	0.000143
682	0.0001716
694	0.000132
706	0.0007414
718	0.001397
730	0.0020724
742	0.0019074
754	0.000462
766	0.000121
778	0.0001144
790	0.000297
802	0.0004906
814	0.0008492
826	0.000704
838	0.000616
850	0.0010406
862	0.0009416
874	0.0003564
886	0.0001848
898	0.000121
910	0.0002464
922	0.0002442
934	0.0001408
946	0.0001584
958	0.0003784
970	0.0005456
982	0.000968
994	0.0006314
1006	0.000352
1018	0.0003608
1030	0.0003058
1042	0.0006182
1054	0.0006424
1066	0.0007458
1078	0.0007722
1090	0.0009548
1102	0.0010736
1114	0.000803
1126	0.0015994
1138	0.003036
1150	0.0032604
1162	0.0018942
1174	0.0021736
1186	0.0031878
1198	0.0048862
1210	0.0065956
1222	0.0069872
1234	0.0113498
1246	0.0215468
1258	0.0145794
1270	0.0065934
1282	0.0041096
1294	0.0029656
1306	0.0020856
1318	0.0018326
1330	0.002134
1342	0.0014564
1354	0.0007084
1366	0.0003586
1378	0.000231
1390	0.0001408
1402	8.36e-05
1414	5.72e-05
1426	9.02e-05
1438	9.46e-05
1450	8.14e-05
1462	0.000121
1474	9.68e-05
1486	5.06e-05
1498	9.46e-05
1510	9.24e-05
1522	9.9e-05
1534	7.26e-05
1546	9.02e-05
1558	0.0001518
1570	0.0001254
1582	6.82e-05
1594	0.0001342
1606	0.0001166
1618	0.0001056
1630	9.68e-05
1642	0.0001122
1654	0.0001342
1666	0.0001078
1678	0.0001056
1690	7.7e-05
1702	0.000165
1714	0.0001122
1726	3.08e-05
1738	0.0001122
1750	0.0001144
1762	7.7e-05
1774	7.7e-05
1786	8.14e-05
1798	8.8e-05
1810	6.82e-05
1822	0.0001078
1834	7.92e-05
1846	7.26e-05
1858	6.38e-05
1870	8.8e-05
1882	4.18e-05
1894	7.26e-05
1906	9.9e-05
1918	0.0001188
1930	6.38e-05
1942	0.0001056
1954	9.24e-05
1966	7.04e-05
1978	6.38e-05
1990	7.26e-05
2002	7.92e-05
2014	0.0001056
2026	9.46e-05
2038	0.0001012
2050	9.46e-05
2062	0.0001012
2074	0.0001188
2086	9.68e-05
2098	0.0001056
2110	0.0001012
2122	0.000121
2134	0.000143
2146	6.6e-05
2158	9.02e-05
2170	9.9e-05
2182	0.0001166
2194	0.0001232
2206	0.0001518
2218	0.000121
2230	0.000132
2242	0.0001254
2254	7.7e-05
2266	0.00011
2278	0.0001386
2290	0.0001144
2302	0.0001166
2314	0.0002002
2326	0.0001848
2338	0.0002574
2350	0.000187
2362	0.0002024
2374	0.0002332
2386	0.0001738
2398	0.0001716
2410	0.0001122
2422	0.0001386
2434	0.000176
2446	0.0001804
2458	0.000165
2470	0.000187
2482	0.0001144
2494	0.0001496
2506	0.0001342
2518	0.0001034
2530	0.0001166
2542	0.000132
2554	0.0001298
2566	0.0001298
2578	0.000121
2590	0.0001034
2602	0.0001672
2614	0.0001144
2626	0.0001144
2638	9.9e-05
2650	0.0001166
2662	0.0001122
2674	6.82e-05
2686	7.48e-05
2698	7.48e-05
2710	7.92e-05
2722	9.02e-05
2734	0.0001342
2746	9.68e-05
2758	0.0001452
2770	7.7e-05
2782	6.6e-05
2794	4.4e-05
2806	6.6e-06
2818	5.06e-05
2830	5.5e-05
2842	0.00011
2854	0.0001056
2866	7.92e-05
2878	0.0001628
2890	7.26e-05
2902	8.8e-05
2914	0.00011
2926	0.000165
2938	7.7e-05
2950	0.0001452
2962	0.0001936
2974	0.0001848
2986	0.0001144
2998	0.0001144
3010	8.58e-05
3022	0.000176
3034	0.0001672
3046	0.0001298
3058	0.0001188
3070	0.0001276
3082	0.000143
3094	0.0001848
3106	0.000165
3118	0.0001166
3130	0.0001562
3142	0.0001584
3154	8.36e-05
3166	0.0002354
3178	0.0001144
3190	0.0001452
3202	0.0001386
3214	0.0001188
3226	0.0001672
3238	0.000209
3250	0.0001738
3262	0.0001342
3274	0.0002002
3286	0.0001782
3298	0.0002684
3310	0.0002156
3322	0.000242
3334	0.0002398
3346	0.0001782
3358	0.0002552
3370	0.000286
3382	0.0002156
3394	0.000264
3406	0.000286
3418	0.000319
3430	0.000231
3442	0.0002332
3454	0.0002486
3466	0.0002046
3478	0.0002706
3490	0.0003014
3502	0.0003476
3514	0.0003388
3526	0.0003212
3538	0.0002948
3550	0.0003234
3562	0.000231
3574	0.0002706
3586	0.0003476
3598	0.0003168
3610	0.0003938
3622	0.0002728
3634	0.0002926
3646	0.000363
3658	0.0003938
3670	0.0003454
3682	0.0003652
3694	0.0003344
3706	0.0003674
3718	0.0002574
3730	0.0003762
3742	0.0004246
3754	0.0003344
3766	0.00033
3778	0.0003432
3790	0.000297
3802	0.0003938
3814	0.0003212
3826	0.000319
3838	0.000352
