Infrared Spectrum: Benzhydryl isothiocyanate
Formula: C 14 H 11 N S
CAS: 3550-21-8
State: gas
Origin: EPA-IR VAPOR PHASE LIBRARY
1/CM	ABSORBANCE
549.8	0.013288
559.445	0.008628
569.09	0.007648
578.734	0.010388
588.379	0.015848
598.024	0.048538
607.669	0.043278
617.313	0.030128
626.958	0.028638
636.603	0.029458
646.248	0.014038
655.893	0.010498
665.537	0.016278
675.182	0.027218
684.827	0.051318
694.472	0.104288
704.116	0.091718
713.761	0.068328
723.406	0.072358
733.051	0.072598
742.695	0.075198
752.34	0.040488
761.985	0.018678
771.63	0.013148
781.275	0.013248
790.919	0.014488
800.564	0.012158
810.209	0.010308
819.854	0.011888
829.498	0.007588
839.143	0.006758
848.788	0.014068
858.433	0.015308
868.078	0.006798
877.722	0.004468
887.367	0.003828
897.012	0.003648
906.657	0.004348
916.301	0.004508
925.946	0.004358
935.591	0.003758
945.236	0.003198
954.88	0.002718
964.525	0.002218
974.17	0.002138
983.815	0.002288
993.46	0.003538
1003.1	0.006318
1012.75	0.003928
1022.39	0.009778
1032.04	0.015458
1041.68	0.004308
1051.33	0.003798
1060.97	0.005678
1070.62	0.007078
1080.26	0.005338
1089.91	0.003748
1099.55	0.003058
1109.2	0.003268
1118.84	0.002888
1128.49	0.002558
1138.13	0.002338
1147.78	0.002698
1157.42	0.003728
1167.07	0.005358
1176.71	0.010298
1186.36	0.012598
1196	0.006558
1205.64	0.004578
1215.29	0.004618
1224.93	0.005948
1234.58	0.009728
1244.22	0.013448
1253.87	0.018128
1263.51	0.023898
1273.16	0.033468
1282.8	0.045388
1292.45	0.052218
1302.09	0.037958
1311.74	0.032098
1321.38	0.036878
1331.03	0.034928
1340.67	0.029188
1350.32	0.016198
1359.96	0.008298
1369.61	0.006388
1379.25	0.005518
1388.9	0.003678
1398.54	0.002848
1408.18	0.003048
1417.83	0.004158
1427.47	0.006808
1437.12	0.013428
1446.76	0.028768
1456.41	0.031768
1466.05	0.014698
1475.7	0.010518
1485.34	0.018208
1494.99	0.036638
1504.63	0.016858
1514.28	0.004708
1523.92	0.003588
1533.57	0.003648
1543.21	0.003358
1552.86	0.003338
1562.5	0.003908
1572.15	0.005018
1581.79	0.008158
1591.44	0.014538
1601.08	0.016568
1610.73	0.008748
1620.37	0.004638
1630.01	0.003628
1639.66	0.003188
1649.3	0.003208
1658.95	0.003048
1668.59	0.002678
1678.24	0.002498
1687.88	0.002528
1697.53	0.002608
1707.17	0.002798
1716.82	0.003068
1726.46	0.003358
1736.11	0.003968
1745.75	0.004608
1755.4	0.004288
1765.04	0.003668
1774.69	0.004078
1784.33	0.005198
1793.98	0.008828
1803.62	0.006858
1813.27	0.004038
1822.91	0.003458
1832.55	0.003018
1842.2	0.003218
1851.84	0.003988
1861.49	0.005498
1871.13	0.007908
1880.78	0.009778
1890.42	0.011878
1900.07	0.012518
1909.71	0.013858
1919.36	0.018008
1929	0.024998
1938.65	0.035688
1948.29	0.048158
1957.94	0.065138
1967.58	0.085148
1977.23	0.112768
1986.87	0.150538
1996.52	0.197958
2006.16	0.255028
2015.81	0.319258
2025.45	0.380908
2035.1	0.422088
2044.74	0.416178
2054.38	0.364278
2064.03	0.312488
2073.67	0.263258
2083.32	0.215618
2092.96	0.189878
2102.61	0.170548
2112.25	0.142208
2121.9	0.117418
2131.54	0.099428
2141.19	0.085558
2150.83	0.075168
2160.48	0.066958
2170.12	0.059018
2179.77	0.052698
2189.41	0.045218
2199.06	0.037598
2208.7	0.030788
2218.35	0.024058
2227.99	0.018318
2237.64	0.014188
2247.28	0.011398
2256.92	0.009448
2266.57	0.007898
2276.21	0.006618
2285.86	0.005448
2295.5	0.004528
2305.15	0.003938
2314.79	0.004078
2324.44	0.003368
2334.08	0.003238
2343.73	0.003308
2353.37	0.003268
2363.02	0.003178
2372.66	0.003298
2382.31	0.003118
2391.95	0.002878
2401.6	0.002658
2411.24	0.002628
2420.89	0.002448
2430.53	0.002278
2440.18	0.002148
2449.82	0.002108
2459.47	0.002228
2469.11	0.002228
2478.75	0.002428
2488.4	0.002548
2498.04	0.002668
2507.69	0.002868
2517.33	0.003198
2526.98	0.003478
2536.62	0.003708
2546.27	0.003958
2555.91	0.004498
2565.56	0.004888
2575.2	0.004968
2584.85	0.004458
2594.49	0.003678
2604.14	0.003198
2613.78	0.002808
2623.43	0.002468
2633.07	0.002388
2642.72	0.002278
2652.36	0.002148
2662.01	0.002168
2671.65	0.002188
2681.29	0.002158
2690.94	0.001998
2700.58	0.001938
2710.23	0.001878
2719.87	0.002028
2729.52	0.002238
2739.16	0.002308
2748.81	0.002488
2758.45	0.002698
2768.1	0.002948
2777.74	0.003208
2787.39	0.003408
2797.03	0.003248
2806.68	0.003298
2816.32	0.003338
2825.97	0.003528
2835.61	0.003658
2845.26	0.003448
2854.9	0.003248
2864.55	0.003348
2874.19	0.003718
2883.84	0.004618
2893.48	0.006908
2903.12	0.011618
2912.77	0.011838
2922.41	0.007278
2932.06	0.004848
2941.7	0.004008
2951.35	0.003088
2960.99	0.002668
2970.64	0.002408
2980.28	0.002528
2989.93	0.002998
2999.57	0.004018
3009.22	0.007258
3018.86	0.014028
3028.51	0.031518
3038.15	0.043258
3047.8	0.029708
3057.44	0.028018
3067.09	0.051798
3076.73	0.061688
3086.38	0.033508
3096.02	0.025598
3105.67	0.016858
3115.31	0.009748
3124.95	0.004208
3134.6	0.002358
3144.24	0.0013812
3153.89	0.0013149
3163.53	0.0014379
3173.18	0.0012798
3182.82	0.0007353
3192.47	0.0007745
3202.11	0.0005238
3211.76	0.0004886
3221.4	0.000223
3231.05	0.000347
3240.69	0.000357
3250.34	0.000327
3259.98	0.00031
3269.63	0.000328
3279.27	0.000283
3288.92	9.3e-05
3298.56	0.000411
3308.21	0.000247
3317.85	0.000257
3327.49	0.000325
3337.14	0.000234
3346.78	8.9e-05
3356.43	0.000382
3366.07	0.000396
3375.72	0.000266
3385.36	0.00033
3395.01	0.0003
3404.65	0.000394
3414.3	0.000469
3423.94	0.000321
3433.59	0.00035
3443.23	0.000416
3452.88	0.000314
3462.52	0.000376
3472.17	0.000419
3481.81	0.00045
3491.46	0.000238
3501.1	0.000352
3510.75	0.000268
3520.39	0.0005723
3530.04	0.000462
3539.68	0.000417
3549.32	0.000596773
3558.97	0.000416
3568.61	0.000269
3578.26	0.000377
3587.9	0.000148
3597.55	0.000329
3607.19	0.000448
3616.84	0.00061138
3626.48	0.00063345
3636.13	0.0007523
3645.77	0.0008623
3655.42	0.0010165
3665.06	0.0009259
3674.71	0.0007469
3684.35	0.0009021
3694	0.0009855
3703.64	0.0007644
3713.29	0.0010384
3722.93	0.00065904
3732.58	0.0007745
3742.22	0.000736
3751.86	0.0009138
3761.51	0.0005686
3771.15	0.0007302
3780.8	0.00058878
3790.44	0.0007042
3800.09	0.0005867
3809.73	0.00065451
3819.38	0.0007524
3829.02	0.00067218
3838.67	0.0005734
3848.31	0.00067603
3857.96	0.0007269
3867.6	0.000942
3877.25	0.001072
3886.89	0.0011085
3896.54	0.0010156
3906.18	0.0011648
3915.83	0.001424
3925.47	0.0013117
3935.12	0.0014615
3944.76	0.0015239
3954.41	0.001588
3964.05	0.001808
3973.69	0.001778
3983.34	0.001958
3992.98	0.002098
