Infrared Spectrum: 2-Norbornanecarboxylic acid, methyl ester
Formula: C9 H14 O2
CAS: 35520-81-1
State: LIQUID (NEAT)
Class: COBLENTZ III
Instrument: CARY 90 (GRATING)
Instrument parameters: ORDER CHANGES: 3000, 2000, 1200 CM^-^1
Path length: 0.0028 CM
Resolution: 2
Origin: WESTERN REGIONAL RES. USDA
1/CM	TRANSMITTANCE
479	0.708
488	0.716
497	0.7224
506	0.7272
515	0.7287
524	0.7285
533	0.7282
542	0.7293
551	0.7357
560	0.7504
569	0.7644
578	0.7763
587	0.7818
596	0.7781
605	0.7572
614	0.7271
623	0.7084
632	0.7132
641	0.7339
650	0.7545
659	0.7717
668	0.7854
677	0.7984
686	0.8172
695	0.8363
704	0.851
713	0.8559
722	0.8479
731	0.7955
740	0.6061
749	0.2837
758	0.6303
767	0.589
776	0.627
785	0.8188
794	0.7816
803	0.6613
812	0.6964
821	0.4534
830	0.7108
839	0.5343
848	0.7747
857	0.784
866	0.8389
875	0.4836
884	0.5784
893	0.8161
902	0.5569
911	0.2528
920	0.5342
929	0.7267
938	0.8033
947	0.6707
956	0.6567
965	0.7139
974	0.8148
983	0.7182
992	0.5554
1001	0.7052
1010	0.694
1019	0.4373
1028	0.174
1037	0.0438
1046	0.4733
1055	0.334
1064	0.2361
1073	0.1801
1082	0.6435
1091	0.6687
1100	0.6318
1109	0.3343
1118	0.03
1127	0.2553
1136	0.2963
1145	0.152
1154	0.039
1163	0.0079
1172	0.0071
1181	0.006
1190	0.0053
1199	0.0059
1208	0.0103
1217	0.0228
1226	0.0918
1235	0.0975
1244	0.1136
1253	0.0323
1262	0.1329
1271	0.2018
1280	0.3875
1289	0.2933
1298	0.1471
1307	0.0676
1316	0.1358
1325	0.4367
1334	0.2854
1343	0.0884
1352	0.0245
1361	0.1119
1370	0.3062
1379	0.4271
1388	0.5459
1397	0.6138
1406	0.6343
1415	0.6039
1424	0.4043
1433	0.0047
1442	0.09
1451	0.0637
1460	0.1189
1469	0.3734
1478	0.4333
1487	0.6271
1496	0.6884
1505	0.7164
1514	0.7297
1523	0.7533
1532	0.7767
1541	0.7904
1550	0.808
1559	0.8202
1568	0.8196
1577	0.8247
1586	0.8346
1595	0.8408
1604	0.8452
1613	0.8484
1622	0.8471
1631	0.8432
1640	0.8356
1649	0.8157
1658	0.7851
1667	0.7423
1676	0.674
1685	0.529
1694	0.3979
1703	0.376
1712	0.2987
1721	0.0796
1730	0.008
1739	0.0073
1748	0.0061
1757	0.161
1766	0.3991
1775	0.5247
1784	0.6099
1793	0.6965
1802	0.7619
1811	0.8085
1820	0.8426
1829	0.863
1838	0.8815
1847	0.9019
1856	0.9083
1865	0.9106
1874	0.9198
1883	0.9285
1892	0.9355
1901	0.9403
1910	0.9423
1919	0.9416
1928	0.9365
1937	0.9255
1946	0.9174
1955	0.9199
1964	0.9292
1973	0.9298
1982	0.9221
1991	0.9126
2000	0.9066
2009	0.9093
2018	0.9123
2027	0.9147
2036	0.9187
2045	0.9189
2054	0.9103
2063	0.897
2072	0.8849
2081	0.881
2090	0.8831
2099	0.8855
2108	0.8889
2117	0.9016
2126	0.914
2135	0.923
2144	0.9261
2153	0.928
2162	0.9262
2171	0.924
2180	0.9222
2189	0.9228
2198	0.9234
2207	0.924
2216	0.9249
2225	0.9246
2234	0.9221
2243	0.9205
2252	0.9178
2261	0.9124
2270	0.912
2279	0.9142
2288	0.9128
2297	0.9081
2306	0.9018
2315	0.8941
2324	0.885
2333	0.8751
2342	0.8636
2351	0.8552
2360	0.849
2369	0.8459
2378	0.8524
2387	0.8604
2396	0.8652
2405	0.8722
2414	0.8778
2423	0.8827
2432	0.8875
2441	0.8914
2450	0.8936
2459	0.8953
2468	0.8971
2477	0.8974
2486	0.8951
2495	0.8889
2504	0.8829
2513	0.8816
2522	0.8811
2531	0.8806
2540	0.8802
2549	0.8775
2558	0.8719
2567	0.8747
2576	0.8767
2585	0.8714
2594	0.8652
2603	0.8598
2612	0.8572
2621	0.8697
2630	0.883
2639	0.8883
2648	0.8827
2657	0.8823
2666	0.898
2675	0.904
2684	0.904
2693	0.9026
2702	0.9002
2711	0.8964
2720	0.8939
2729	0.891
2738	0.8866
2747	0.8809
2756	0.8713
2765	0.8548
2774	0.8426
2783	0.8334
2792	0.8266
2801	0.8291
2810	0.8164
2819	0.7678
2828	0.6996
2837	0.5056
2846	0.4263
2855	0.3359
2864	0.1499
2873	0.0052
2882	0.054
2891	0.1486
2900	0.1662
2909	0.1022
2918	0.0431
2927	0.0236
2936	0.0122
2945	0.0061
2954	0.0048
2963	0.0067
2972	0.011
2981	0.0308
2990	0.0628
2999	0.1643
3008	0.2907
3017	0.3843
3026	0.4327
3035	0.4776
3044	0.6274
3053	0.6802
3062	0.7195
3071	0.747
3080	0.7712
3089	0.7877
3098	0.7993
3107	0.8087
3116	0.818
3125	0.8266
3134	0.8317
3143	0.8368
3152	0.8419
3161	0.8449
3170	0.848
3179	0.8514
3188	0.8558
3197	0.8601
3206	0.865
3215	0.8738
3224	0.8813
3233	0.8872
3242	0.8912
3251	0.8874
3260	0.8856
3269	0.8841
3278	0.882
3287	0.8798
3296	0.8778
3305	0.8772
3314	0.877
3323	0.8772
3332	0.8775
3341	0.8789
3350	0.8793
3359	0.8796
3368	0.88
3377	0.8829
3386	0.8875
3395	0.8891
3404	0.883
3413	0.8788
3422	0.8743
3431	0.8636
3440	0.8347
3449	0.8004
3458	0.7817
3467	0.8265
3476	0.8684
3485	0.8902
3494	0.894
3503	0.8916
3512	0.8894
3521	0.887
3530	0.8836
3539	0.8789
3548	0.8752
3557	0.8769
3566	0.8793
3575	0.8839
3584	0.8893
3593	0.8946
3602	0.8968
3611	0.8971
3620	0.8976
3629	0.8975
3638	0.8925
3647	0.881
3656	0.8755
3665	0.8743
3674	0.8743
3683	0.8738
3692	0.8714
3701	0.8698
3710	0.8677
3719	0.8629
3728	0.8582
3737	0.8556
3746	0.8536
3755	0.8539
3764	0.856
3773	0.8594
3782	0.8611
3791	0.8622
3800	0.863
3809	0.8623
3818	0.8609
3827	0.862
3836	0.865
3845	0.8689
3854	0.8719
3863	0.8727
3872	0.8693
3881	0.8646
3890	0.8613
3899	0.8633
3908	0.8662
3917	0.8708
3926	0.876
3935	0.8829
3944	0.8872
3953	0.8895
3962	0.8973
3971	0.9051
3980	0.905
3989	0.9047
3998	0.9045
