Infrared Spectrum: 6-METHYL-4-OXO-1,3,3a,7-TETRAZAINDENE
Formula: C6 H6 N4 O
CAS: 35523-67-2
State: SOLID (KBr PRESSING)
Melting point: 278 C
Class: COBLENTZ
Instrument: Not specified, most likely a prism, grating, or hybrid spectrometer.
Sampling: TRANSMISSION
Resolution: 4
Origin: EASTMAN KODAK COMPANY, RESEARCH LABORATORIES, ROCHESTER, N.Y.
MICROMETERS	TRANSMITTANCE
2.028	0.434
2.06314	0.445
2.09828	0.452
2.13342	0.441
2.16856	0.443
2.2037	0.458
2.23884	0.467
2.27399	0.472
2.30913	0.485
2.34427	0.485
2.37941	0.504
2.41455	0.511
2.44969	0.514
2.48483	0.521
2.51997	0.532
2.55511	0.547
2.59025	0.554
2.62539	0.574
2.66053	0.579
2.69568	0.588
2.73082	0.589
2.76596	0.593
2.8011	0.589
2.83624	0.568
2.87138	0.565
2.90652	0.56
2.94166	0.558
2.9768	0.57
3.01194	0.591
3.04708	0.596
3.08222	0.568
3.11737	0.551
3.15251	0.528
3.18765	0.431
3.22279	0.371
3.25793	0.277
3.29307	0.226
3.32821	0.193
3.36335	0.181
3.39849	0.165
3.43363	0.115
3.46877	0.089
3.50391	0.095
3.53905	0.13
3.5742	0.073
3.60934	0.078
3.64448	0.089
3.67962	0.125
3.71476	0.137
3.7499	0.172
3.78504	0.178
3.82018	0.225
3.85532	0.289
3.89046	0.326
3.9256	0.34
3.96074	0.338
3.99589	0.38
4.03103	0.415
4.06617	0.443
4.10131	0.469
4.13645	0.481
4.17159	0.492
4.20673	0.514
4.24187	0.523
4.27701	0.534
4.31215	0.553
4.34729	0.565
4.38243	0.595
4.41758	0.623
4.45272	0.635
4.48786	0.657
4.523	0.661
4.55814	0.671
4.59328	0.684
4.62842	0.694
4.66356	0.691
4.6987	0.703
4.73384	0.732
4.76898	0.743
4.80412	0.755
4.83927	0.771
4.87441	0.774
4.90955	0.774
4.94469	0.783
4.97983	0.794
5.01497	0.801
5.05011	0.806
5.08525	0.795
5.12039	0.823
5.15553	0.863
5.19067	0.87
5.22581	0.888
5.26095	0.904
5.2961	0.917
5.33124	0.916
5.36638	0.865
5.40152	0.883
5.43666	0.898
5.4718	0.671
5.50694	0.804
5.54208	0.832
5.57722	0.828
5.61236	0.766
5.6475	0.731
5.68264	0.684
5.71779	0.652
5.75293	0.595
5.78807	0.488
5.82321	0.31
5.85835	0.226
5.89349	0.09
5.92863	0.075
5.96377	0.069
5.99891	0.059
6.03405	0.05
6.06919	0.055
6.10433	0.033
6.13948	0.031
6.17462	0.02
6.20976	0.012
6.2449	0.043
6.28004	0.095
6.31518	0.041
6.35032	0.022
6.38546	0.022
6.4206	0.026
6.45574	0.041
6.49088	0.062
6.52602	0.09
6.56116	0.094
6.59631	0.094
6.63145	0.104
6.66659	0.137
6.70173	0.167
6.73687	0.19
6.77201	0.151
6.80715	0.172
6.84229	0.232
6.87743	0.223
6.91257	0.202
6.94771	0.254
6.98285	0.268
7.018	0.204
7.05314	0.134
7.08828	0.071
7.12342	0.034
7.15856	0.092
7.1937	0.157
7.22884	0.162
7.26398	0.171
7.29912	0.26
7.33426	0.293
7.3694	0.305
7.40454	0.331
7.43969	0.31
7.47483	0.204
7.50997	0.111
7.54511	0.179
7.58025	0.251
7.61539	0.212
7.65053	0.221
7.68567	0.263
7.72081	0.273
7.75595	0.289
7.79109	0.315
7.82623	0.375
7.86137	0.401
7.89652	0.42
7.93166	0.432
7.9668	0.298
8.00194	0.155
8.03708	0.256
8.07222	0.343
8.10736	0.394
8.1425	0.443
8.17764	0.474
8.21278	0.506
8.24792	0.514
8.28306	0.434
8.31821	0.455
8.35335	0.413
8.38849	0.12
8.42363	0.041
8.45877	0.132
8.49391	0.223
8.52905	0.284
8.56419	0.345
8.59933	0.363
8.63447	0.287
8.66961	0.275
8.70475	0.305
8.7399	0.233
8.77504	0.212
8.81018	0.307
8.84532	0.354
8.88046	0.366
8.9156	0.394
8.95074	0.404
8.98588	0.413
9.02102	0.425
9.05616	0.443
9.0913	0.445
9.12644	0.448
9.16159	0.453
9.19673	0.458
9.23187	0.472
9.26701	0.476
9.30215	0.478
9.33729	0.479
9.37243	0.474
9.40757	0.455
9.44271	0.403
9.47785	0.331
9.51299	0.354
9.54813	0.415
9.58327	0.445
9.61842	0.476
9.65356	0.485
9.6887	0.492
9.72384	0.504
9.75898	0.479
9.79412	0.326
9.82926	0.3
9.8644	0.373
9.89954	0.385
9.93468	0.417
9.96982	0.455
10.005	0.471
10.0401	0.479
10.0752	0.492
10.1104	0.502
10.1455	0.502
10.1807	0.502
10.2158	0.502
10.251	0.507
10.2861	0.507
10.3212	0.507
10.3564	0.518
10.3915	0.518
10.4267	0.499
10.4618	0.452
10.4969	0.472
10.5321	0.488
10.5672	0.493
10.6024	0.497
10.6375	0.493
10.6726	0.493
10.7078	0.492
10.7429	0.483
10.7781	0.465
10.8132	0.413
10.8483	0.261
10.8835	0.223
10.9186	0.406
10.9538	0.46
10.9889	0.465
11.024	0.476
11.0592	0.481
11.0943	0.478
11.1295	0.474
11.1646	0.469
11.1998	0.469
11.2349	0.464
11.27	0.453
11.3052	0.443
11.3403	0.427
11.3755	0.415
11.4106	0.392
11.4457	0.364
11.4809	0.354
11.516	0.326
11.5512	0.303
11.5863	0.268
11.6214	0.244
11.6566	0.212
11.6917	0.19
11.7269	0.171
11.762	0.16
11.7971	0.164
11.8323	0.162
11.8674	0.169
11.9026	0.193
11.9377	0.212
11.9729	0.226
12.008	0.237
12.0431	0.233
12.0783	0.19
12.1134	0.113
12.1486	0.087
12.1837	0.125
12.2188	0.139
12.254	0.122
12.2891	0.127
12.3243	0.19
12.3594	0.221
12.3945	0.258
12.4297	0.282
12.4648	0.301
12.5	0.328
12.5351	0.342
12.5702	0.35
12.6054	0.366
12.6405	0.378
12.6757	0.383
12.7108	0.397
12.7459	0.397
12.7811	0.411
12.8162	0.417
12.8514	0.42
12.8865	0.424
12.9217	0.441
12.9568	0.446
12.9919	0.446
13.0271	0.455
13.0622	0.452
13.0974	0.441
13.1325	0.438
13.1676	0.397
13.2028	0.294
13.2379	0.106
13.2731	0.076
13.3082	0.137
13.3433	0.207
13.3785	0.27
13.4136	0.298
13.4488	0.319
13.4839	0.343
13.519	0.352
13.5542	0.373
13.5893	0.38
13.6245	0.385
13.6596	0.392
13.6947	0.403
13.7299	0.404
13.765	0.404
13.8002	0.415
13.8353	0.41
13.8705	0.413
13.9056	0.422
13.9407	0.418
13.9759	0.413
14.011	0.406
14.0462	0.394
14.0813	0.376
14.1164	0.35
14.1516	0.34
14.1867	0.359
14.2219	0.392
14.257	0.399
14.2921	0.404
14.3273	0.413
14.3624	0.41
14.3976	0.431
14.4327	0.431
14.4678	0.432
14.503	0.441
14.5381	0.443
14.5733	0.452
14.6084	0.453
14.6436	0.45
14.6787	0.458
14.7138	0.458
14.749	0.465
14.7841	0.471
14.8193	0.469
14.8544	0.462
14.8895	0.46
14.9247	0.458
14.9598	0.453
14.995	0.361
15.0301	0.23
15.0652	0.195
15.1004	0.209
15.1355	0.228
15.1707	0.249
15.2058	0.279
15.2409	0.319
15.2761	0.352
15.3112	0.378
15.3464	0.396
15.3815	0.363
15.4166	0.324
15.4518	0.258
15.4869	0.26
15.5221	0.291
15.5572	0.338
15.5924	0.357
15.6275	0.366
15.6626	0.354
15.6978	0.331
15.7329	0.331
15.7681	0.356
15.8032	0.389
15.8383	0.399
15.8735	0.404
15.9086	0.408
15.9438	0.415
15.9789	0.417
16.014	0.422
