Infrared Spectrum: n-BUTYL(TRIMETHYL)MERCAPTOSILANE
Formula: C7 H18 S Si
CAS: 3553-78-4
State: SOLUTION (5% CCl4 FOR 3800-1300, 3% CS2 FOR 1300-500, AND 5% CCl4 FOR 500-250)
Class: COBLENTZ III
Instrument: PERKIN-ELMER 521 (GRATING)
Instrument parameters: FILTERS AT 3150, 2500, 2000, 1150, 700, 410. GRATING CHANGES: 2000, 630
Path length: 0.011 CM, 0.011 CM, AND 0.021 CM
Resolution: 2
Origin: DOW CORNING CORP.
1/CM	TRANSMITTANCE
252	0.902
261	0.9127
270	0.9183
279	0.9285
288	0.9224
297	0.9336
306	0.9323
315	0.9223
324	0.9264
333	0.9224
342	0.9346
351	0.9229
360	0.9296
369	0.9246
378	0.9288
387	0.9306
396	0.9226
405	0.9142
414	0.9124
423	0.9053
432	0.8787
441	0.859
450	0.7428
459	0.617
468	0.5694
477	0.6106
486	0.5455
495	0.6998
504	0.926
513	0.9561
522	0.9622
531	0.9685
540	0.9676
549	0.967
558	0.9665
567	0.9659
576	0.9614
585	0.9573
594	0.9547
603	0.9496
612	0.9426
621	0.9232
630	0.7773
639	0.7949
648	0.8855
657	0.8831
666	0.9111
675	0.9057
684	0.868
693	0.7956
702	0.8467
711	0.8584
720	0.8438
729	0.8106
738	0.7996
747	0.6451
756	0.669
765	0.822
774	0.8359
783	0.8373
792	0.822
801	0.8018
810	0.7672
819	0.6608
828	0.4531
837	0.1914
846	0.1643
855	0.4637
864	0.6494
873	0.7605
882	0.8133
891	0.8443
900	0.8594
909	0.8674
918	0.8868
927	0.9
936	0.9036
945	0.9059
954	0.9041
963	0.9027
972	0.9045
981	0.9056
990	0.8992
999	0.8931
1008	0.8865
1017	0.8787
1026	0.8673
1035	0.85
1044	0.8281
1053	0.8262
1062	0.828
1071	0.8349
1080	0.8374
1089	0.8387
1098	0.8464
1107	0.8604
1116	0.866
1125	0.8669
1134	0.8879
1143	0.8963
1152	0.8992
1161	0.8999
1170	0.8983
1179	0.8939
1188	0.8897
1197	0.8884
1206	0.8835
1215	0.8553
1224	0.7698
1233	0.8144
1242	0.5579
1251	0.2595
1260	0.7789
1269	0.7504
1278	0.8497
1287	0.8524
1296	0.8488
1305	0.8638
1314	0.8666
1323	0.8789
1332	0.8837
1341	0.8836
1350	0.8767
1359	0.8763
1368	0.8476
1377	0.7941
1386	0.8393
1395	0.7484
1404	0.7537
1413	0.8191
1422	0.7784
1431	0.7038
1440	0.7331
1449	0.6424
1458	0.6212
1467	0.7939
1476	0.8807
1485	0.8967
1494	0.8991
1503	0.8982
1512	0.8961
1521	0.8901
1530	0.8916
1539	0.8971
1548	0.9046
1557	0.9104
1566	0.9142
1575	0.9174
1584	0.9196
1593	0.9215
1602	0.9222
1611	0.9222
1620	0.9207
1629	0.9178
1638	0.9187
1647	0.9205
1656	0.9212
1665	0.9215
1674	0.9218
1683	0.9222
1692	0.9224
1701	0.9223
1710	0.9235
1719	0.9286
1728	0.9354
1737	0.9411
1746	0.945
1755	0.9472
1764	0.9494
1773	0.9503
1782	0.9511
1791	0.9517
1800	0.9521
1809	0.9524
1818	0.9529
1827	0.9532
1836	0.9535
1845	0.9507
1854	0.949
1863	0.9453
1872	0.9275
1881	0.9406
1890	0.9534
1899	0.9535
1908	0.9503
1917	0.9466
1926	0.9433
1935	0.9393
1944	0.9417
1953	0.9464
1962	0.9479
1971	0.9482
1980	0.9468
1989	0.9447
1998	0.9436
2007	0.943
2016	0.9433
2025	0.9435
2034	0.9438
2043	0.944
2052	0.9442
2061	0.9444
2070	0.9446
2079	0.9444
2088	0.9442
2097	0.944
2106	0.9438
2115	0.9435
2124	0.9432
2133	0.9427
2142	0.9422
2151	0.9416
2160	0.9412
2169	0.9406
2178	0.9401
2187	0.9395
2196	0.9389
2205	0.9382
2214	0.9374
2223	0.9369
2232	0.9387
2241	0.9408
2250	0.9421
2259	0.9466
2268	0.9484
2277	0.9482
2286	0.948
2295	0.9478
2304	0.9476
2313	0.9472
2322	0.9469
2331	0.9465
2340	0.946
2349	0.9452
2358	0.9446
2367	0.9439
2376	0.9434
2385	0.9428
2394	0.9424
2403	0.9419
2412	0.9415
2421	0.941
2430	0.9406
2439	0.94
2448	0.9396
2457	0.9391
2466	0.9384
2475	0.9377
2484	0.937
2493	0.9363
2502	0.9352
2511	0.9339
2520	0.9327
2529	0.9311
2538	0.9294
2547	0.9278
2556	0.9257
2565	0.9227
2574	0.9225
2583	0.9234
2592	0.9239
2601	0.9236
2610	0.9234
2619	0.9231
2628	0.9228
2637	0.9228
2646	0.923
2655	0.9232
2664	0.9234
2673	0.9235
2682	0.9219
2691	0.92
2700	0.9176
2709	0.9149
2718	0.9123
2727	0.9099
2736	0.9102
2745	0.9094
2754	0.902
2763	0.8941
2772	0.8846
2781	0.8742
2790	0.8671
2799	0.8624
2808	0.856
2817	0.8422
2826	0.8205
2835	0.7847
2844	0.6641
2853	0.6496
2862	0.6234
2871	0.512
2880	0.5899
2889	0.6071
2898	0.5495
2907	0.5273
2916	0.4787
2925	0.3353
2934	0.2773
2943	0.3528
2952	0.2851
2961	0.165
2970	0.2722
2979	0.6064
2988	0.7172
2997	0.7638
3006	0.8031
3015	0.8278
3024	0.8436
3033	0.8521
3042	0.8535
3051	0.8561
3060	0.8606
3069	0.8676
3078	0.8722
3087	0.8736
3096	0.8741
3105	0.8744
3114	0.8751
3123	0.877
3132	0.8791
3141	0.8777
3150	0.874
3159	0.8758
3168	0.8768
3177	0.8784
3186	0.8802
3195	0.8819
3204	0.8836
3213	0.8853
3222	0.8883
3231	0.8915
3240	0.8942
3249	0.8967
3258	0.8982
3267	0.8991
3276	0.9001
3285	0.9014
3294	0.9029
3303	0.9042
3312	0.9052
3321	0.9055
3330	0.9058
3339	0.9061
3348	0.9065
3357	0.9068
3366	0.9072
3375	0.9076
3384	0.908
3393	0.9084
3402	0.9088
3411	0.9092
3420	0.9096
3429	0.91
3438	0.9103
3447	0.9106
3456	0.911
3465	0.9112
3474	0.9116
3483	0.9122
3492	0.9129
3501	0.9136
3510	0.9144
3519	0.9151
3528	0.916
3537	0.917
3546	0.918
3555	0.919
3564	0.9199
3573	0.9208
3582	0.9222
3591	0.9247
3600	0.9205
3609	0.9177
3618	0.917
3627	0.9165
3636	0.9148
3645	0.9125
3654	0.9117
3663	0.9109
3672	0.9109
3681	0.9107
3690	0.9106
3699	0.9103
3708	0.9101
3717	0.9098
3726	0.9098
3735	0.9098
3744	0.9109
3753	0.9139
3762	0.9167
3771	0.9175
3780	0.9166
3789	0.9158
3798	0.9157
3807	0.9166
3816	0.9174
