Infrared Spectrum: RHODANINE, 5-(P-DIMETHYLAMINOBENZYLIDENE)-3-(P-DIMETHYLAMINOBENZYLIDENEAMINO)-
Formula: C21 H22 N4 O S2
CAS: 35532-35-5
State: SOLID (KBr PELLET)
Melting point: 266-268 C
Class: COBLENTZ
Instrument: Not specified, most likely a prism, grating, or hybrid spectrometer.
Sampling: TRANSMISSION
Resolution: 4
Origin: TENNESSEE EASTMAN COMPANY, RESEARCH LABORATORIES
MICROMETERS	TRANSMITTANCE
2.014	0.521
2.05496	0.519
2.09591	0.519
2.13687	0.531
2.17782	0.543
2.21878	0.555
2.25974	0.563
2.30069	0.574
2.34165	0.587
2.3826	0.596
2.42356	0.603
2.46451	0.614
2.50547	0.623
2.54643	0.632
2.58738	0.64
2.62834	0.647
2.66929	0.657
2.71025	0.662
2.75121	0.637
2.79216	0.586
2.83312	0.541
2.87407	0.504
2.91503	0.492
2.95599	0.509
2.99694	0.557
3.0379	0.613
3.07885	0.64
3.11981	0.669
3.16076	0.695
3.20172	0.71
3.24268	0.71
3.28363	0.713
3.32459	0.712
3.36554	0.708
3.4065	0.652
3.44746	0.642
3.48841	0.678
3.52937	0.701
3.57032	0.72
3.61128	0.771
3.65223	0.781
3.69319	0.8
3.73415	0.8
3.7751	0.798
3.81606	0.8
3.85701	0.822
3.89797	0.827
3.93893	0.829
3.97988	0.834
4.02084	0.85
4.06179	0.851
4.10275	0.853
4.14371	0.853
4.18466	0.86
4.22562	0.867
4.26657	0.867
4.30753	0.868
4.34848	0.868
4.38944	0.885
4.4304	0.892
4.47135	0.901
4.51231	0.904
4.55326	0.906
4.59422	0.906
4.63518	0.908
4.67613	0.911
4.71709	0.916
4.75804	0.916
4.799	0.918
4.83996	0.919
4.88091	0.919
4.92187	0.921
4.96282	0.923
5.00378	0.926
5.04473	0.93
5.08569	0.93
5.12665	0.93
5.1676	0.93
5.20856	0.931
5.24951	0.931
5.29047	0.93
5.33143	0.931
5.37238	0.936
5.41334	0.942
5.45429	0.942
5.49525	0.942
5.5362	0.942
5.57716	0.942
5.61812	0.94
5.65907	0.93
5.70003	0.926
5.74098	0.897
5.78194	0.805
5.8229	0.742
5.86385	0.579
5.90481	0.24
5.94576	0.614
5.98672	0.778
6.02768	0.798
6.06863	0.756
6.10959	0.696
6.15054	0.594
6.1915	0.202
6.23245	0.446
6.27341	0.074
6.31437	0.042
6.35532	0.059
6.39628	0.115
6.43723	0.238
6.47819	0.115
6.51915	0.063
6.5601	0.161
6.60106	0.505
6.64201	0.671
6.68297	0.674
6.72393	0.659
6.76488	0.715
6.80584	0.725
6.84679	0.637
6.88775	0.41
6.9287	0.386
6.96966	0.611
7.01062	0.718
7.05157	0.717
7.09253	0.77
7.13348	0.688
7.17444	0.442
7.2154	0.131
7.25635	0.109
7.29731	0.274
7.33826	0.483
7.37922	0.543
7.42017	0.534
7.46113	0.555
7.50209	0.516
7.54304	0.492
7.584	0.511
7.62495	0.534
7.66591	0.579
7.70687	0.669
7.74782	0.7
7.78878	0.71
7.82973	0.698
7.87069	0.632
7.91165	0.386
7.9526	0.218
7.99356	0.381
8.03451	0.456
8.07547	0.448
8.11642	0.403
8.15738	0.194
8.19834	0.088
8.23929	0.269
8.28025	0.499
8.3212	0.361
8.36216	0.095
8.40312	0.047
8.44407	0.047
8.48503	0.051
8.52598	0.098
8.56694	0.293
8.6079	0.471
8.64885	0.58
8.68981	0.638
8.73076	0.669
8.77172	0.684
8.81267	0.688
8.85363	0.7
8.89459	0.724
8.93554	0.749
8.9765	0.754
9.01745	0.741
9.05841	0.609
9.09937	0.318
9.14032	0.137
9.18128	0.185
9.22223	0.395
9.26319	0.519
9.30415	0.567
9.3451	0.596
9.38606	0.66
9.42701	0.712
9.46797	0.739
9.50892	0.751
9.54988	0.751
9.59084	0.764
9.63179	0.798
9.67275	0.812
9.7137	0.826
9.75466	0.833
9.79562	0.841
9.83657	0.843
9.87753	0.843
9.91848	0.834
9.95944	0.821
10.0004	0.821
10.0414	0.848
10.0823	0.853
10.1233	0.856
10.1642	0.856
10.2052	0.814
10.2461	0.775
10.2871	0.792
10.328	0.797
10.369	0.742
10.41	0.587
10.4509	0.393
10.4919	0.337
10.5328	0.408
10.5738	0.54
10.6147	0.671
10.6557	0.756
10.6966	0.792
10.7376	0.827
10.7786	0.851
10.8195	0.863
10.8605	0.87
10.9014	0.884
10.9424	0.89
10.9833	0.894
11.0243	0.896
11.0652	0.899
11.1062	0.901
11.1472	0.906
11.1881	0.909
11.2291	0.911
11.27	0.914
11.311	0.916
11.3519	0.919
11.3929	0.925
11.4339	0.928
11.4748	0.93
11.5158	0.93
11.5567	0.931
11.5977	0.926
11.6386	0.911
11.6796	0.902
11.7205	0.911
11.7615	0.921
11.8025	0.925
11.8434	0.926
11.8844	0.928
11.9253	0.926
11.9663	0.923
12.0072	0.892
12.0482	0.81
12.0891	0.635
12.1301	0.502
12.1711	0.475
12.212	0.442
12.253	0.553
12.2939	0.706
12.3349	0.788
12.3758	0.821
12.4168	0.833
12.4577	0.838
12.4987	0.863
12.5397	0.894
12.5806	0.919
12.6216	0.921
12.6625	0.921
12.7035	0.918
12.7444	0.902
12.7854	0.913
12.8263	0.933
12.8673	0.942
12.9083	0.952
12.9492	0.955
12.9902	0.957
13.0311	0.959
13.0721	0.962
13.113	0.962
13.154	0.962
13.195	0.962
13.2359	0.962
13.2769	0.955
13.3178	0.954
13.3588	0.955
13.3997	0.96
13.4407	0.964
13.4816	0.964
13.5226	0.962
13.5636	0.948
13.6045	0.933
13.6455	0.938
13.6864	0.952
13.7274	0.957
13.7683	0.957
13.8093	0.938
13.8502	0.899
13.8912	0.879
13.9322	0.896
13.9731	0.923
14.0141	0.928
14.055	0.928
14.096	0.928
14.1369	0.93
14.1779	0.943
14.2188	0.969
14.2598	0.982
14.3008	0.998
14.3417	1.001
14.3827	1.001
14.4236	1.001
14.4646	1.001
14.5055	1.001
14.5465	1
14.5875	0.993
14.6284	0.962
14.6694	0.94
14.7103	0.935
14.7513	0.947
14.7922	0.974
14.8332	0.986
14.8741	0.993
14.9151	0.993
14.9561	0.993
14.997	0.993
15.038	0.993
15.0789	0.993
15.1199	0.993
15.1608	0.993
15.2018	0.993
15.2427	0.993
15.2837	0.991
15.3247	0.989
15.3656	0.989
15.4066	0.982
15.4475	0.976
15.4885	0.965
15.5294	0.959
15.5704	0.948
15.6113	0.928
15.6523	0.916
15.6933	0.908
15.7342	0.897
15.7752	0.882
15.8161	0.865
15.8571	0.85
15.898	0.834
15.939	0.822
