Infrared Spectrum: Aniline, 2-methyl-4,6-di-tert-butyl-
Formula: C15 H25 N
CAS: 35532-73-1
State: LIQUID (NEAT)
Class: COBLENTZ III
Instrument: BECKMAN IR-4 (HYBRID PRISM-GRATING)
Instrument parameters: NaCl PRISM
Sampling: TRANSMISSION
Path length: CAPILLARY
Resolution: 2
Origin: MONSANTO (J. FREEMAN)
1/CM	TRANSMITTANCE
626	0.6672
635	0.7022
644	0.7059
653	0.735
662	0.7704
671	0.7993
680	0.8142
689	0.8228
698	0.8407
707	0.8497
716	0.8596
725	0.871
734	0.8694
743	0.8641
752	0.6932
761	0.7941
770	0.8499
779	0.8667
788	0.866
797	0.8818
806	0.8519
815	0.8028
824	0.8825
833	0.9105
842	0.9192
851	0.9159
860	0.9024
869	0.489
878	0.7857
887	0.8736
896	0.8889
905	0.907
914	0.8941
923	0.8721
932	0.8354
941	0.89
950	0.9117
959	0.9206
968	0.9238
977	0.9224
986	0.8882
995	0.8242
1004	0.8532
1013	0.886
1022	0.8577
1031	0.8809
1040	0.9318
1049	0.9331
1058	0.9293
1067	0.9189
1076	0.8982
1085	0.8702
1094	0.8412
1103	0.8592
1112	0.9051
1121	0.8839
1130	0.8333
1139	0.9271
1148	0.9308
1157	0.9171
1166	0.8952
1175	0.7828
1184	0.8158
1193	0.6545
1202	0.7071
1211	0.8013
1220	0.7138
1229	0.5827
1238	0.4124
1247	0.7379
1256	0.7125
1265	0.634
1274	0.6703
1283	0.7524
1292	0.5975
1301	0.6417
1310	0.7825
1319	0.8498
1328	0.9016
1337	0.9002
1346	0.8531
1355	0.4964
1364	0.553
1373	0.7755
1382	0.7463
1391	0.6571
1400	0.7857
1409	0.691
1418	0.6668
1427	0.4643
1436	0.463
1445	0.5408
1454	0.4722
1463	0.4757
1472	0.2997
1481	0.1777
1490	0.657
1499	0.7107
1508	0.6497
1517	0.7832
1526	0.8644
1535	0.8845
1544	0.8933
1553	0.8908
1562	0.8745
1571	0.8152
1580	0.7856
1589	0.6669
1598	0.6239
1607	0.4512
1616	0.4067
1625	0.6126
1634	0.7771
1643	0.8505
1652	0.8758
1661	0.8936
1670	0.9107
1679	0.925
1688	0.9352
1697	0.9419
1706	0.9456
1715	0.9472
1724	0.9439
1733	0.9327
1742	0.9162
1751	0.9117
1760	0.9219
1769	0.9323
1778	0.937
1787	0.9382
1796	0.9384
1805	0.9384
1814	0.9381
1823	0.9376
1832	0.9372
1841	0.9371
1850	0.9372
1859	0.9367
1868	0.9364
1877	0.9363
1886	0.9361
1895	0.936
1904	0.9372
1913	0.939
1922	0.9393
1931	0.9393
1940	0.9389
1949	0.9387
1958	0.9386
1967	0.9384
1976	0.9384
1985	0.9387
1994	0.9389
2003	0.9391
2012	0.9392
2021	0.9391
2030	0.9391
2039	0.939
2048	0.939
2057	0.9389
2066	0.9389
2075	0.9387
2084	0.9382
2093	0.9378
2102	0.9391
2111	0.9401
2120	0.9384
2129	0.9366
2138	0.9351
2147	0.9354
2156	0.9358
2165	0.9362
2174	0.9366
2183	0.9369
2192	0.9372
2201	0.9375
2210	0.9378
2219	0.9373
2228	0.9366
2237	0.9358
2246	0.934
2255	0.9321
2264	0.9304
2273	0.9311
2282	0.9318
2291	0.9326
2300	0.9335
2309	0.9343
2318	0.9352
2327	0.9361
2336	0.937
2345	0.9372
2354	0.9355
2363	0.9311
2372	0.9273
2381	0.9256
2390	0.9248
2399	0.9242
2408	0.9236
2417	0.9235
2426	0.9233
2435	0.9232
2444	0.923
2453	0.923
2462	0.9228
2471	0.9227
2480	0.9226
2489	0.9222
2498	0.9209
2507	0.9195
2516	0.918
2525	0.9161
2534	0.9142
2543	0.9125
2552	0.9109
2561	0.9106
2570	0.9103
2579	0.9104
2588	0.9105
2597	0.91
2606	0.9091
2615	0.9083
2624	0.9073
2633	0.9063
2642	0.9052
2651	0.9036
2660	0.9018
2669	0.8999
2678	0.896
2687	0.8901
2696	0.884
2705	0.8796
2714	0.8772
2723	0.8779
2732	0.8815
2741	0.8893
2750	0.8909
2759	0.8887
2768	0.884
2777	0.878
2786	0.8693
2795	0.8534
2804	0.839
2813	0.8226
2822	0.7802
2831	0.6583
2840	0.5373
2849	0.419
2858	0.3899
2867	0.3848
2876	0.3797
2885	0.3384
2894	0.3257
2903	0.3186
2912	0.3133
2921	0.3051
2930	0.239
2939	0.1439
2948	0.1219
2957	0.2381
2966	0.3673
2975	0.4957
2984	0.5813
2993	0.6336
3002	0.6855
3011	0.7385
3020	0.7783
3029	0.8116
3038	0.828
3047	0.8395
3056	0.8494
3065	0.8582
3074	0.8662
3083	0.8737
3092	0.8809
3101	0.8878
3110	0.892
3119	0.8953
3128	0.8968
3137	0.8977
3146	0.8972
3155	0.8965
3164	0.8957
3173	0.8949
3182	0.8946
3191	0.8943
3200	0.8946
3209	0.8951
3218	0.8964
3227	0.8978
3236	0.8995
3245	0.9015
3254	0.9023
3263	0.9024
3272	0.9023
3281	0.9001
3290	0.8978
3299	0.8931
3308	0.8885
3317	0.8815
3326	0.8714
3335	0.8511
3344	0.8295
3353	0.8079
3362	0.7865
3371	0.7651
3380	0.749
3389	0.7498
3398	0.7663
3407	0.8023
3416	0.8343
3425	0.8409
3434	0.8346
3443	0.8179
3452	0.8013
3461	0.7848
3470	0.7684
3479	0.7594
3488	0.7648
3497	0.8108
3506	0.8616
3515	0.8823
3524	0.8921
3533	0.8984
3542	0.9009
3551	0.9026
3560	0.9037
3569	0.9047
3578	0.9057
3587	0.9065
3596	0.9072
3605	0.9079
3614	0.9086
3623	0.9093
3632	0.9101
3641	0.9105
3650	0.911
3659	0.9112
3668	0.9111
3677	0.9111
3686	0.911
3695	0.9107
3704	0.9101
3713	0.9096
3722	0.9091
3731	0.9086
3740	0.908
3749	0.9075
3758	0.9069
3767	0.9064
3776	0.9059
3785	0.9054
3794	0.9048
3803	0.9044
3812	0.9038
3821	0.9033
3830	0.9028
3839	0.9023
3848	0.9018
3857	0.9013
3866	0.9007
3875	0.9002
3884	0.8996
3893	0.899
3902	0.8985
3911	0.8979
3920	0.8974
3929	0.8969
3938	0.8964
3947	0.8959
3956	0.8954
3965	0.895
3974	0.8945
3983	0.8941
3992	0.8936
