Infrared Spectrum: RHODANINE, 3-SALICYLIDENEAMINO-
Formula: C10 H8 N2 O2 S2
CAS: 35533-29-0
State: SOLID (KBr PELLET)
Melting point: 174-175.5 C
Class: COBLENTZ
Instrument: Not specified, most likely a prism, grating, or hybrid spectrometer.
Sampling: TRANSMISSION
Resolution: 4
Origin: TENNESSEE EASTMAN COMPANY, RESEARCH LABORATORIES
MICROMETERS	TRANSMITTANCE
2.048	0.576
2.08907	0.578
2.13015	0.584
2.17122	0.596
2.21229	0.605
2.25337	0.614
2.29444	0.622
2.33551	0.631
2.37659	0.639
2.41766	0.65
2.45873	0.662
2.49981	0.672
2.54088	0.682
2.58195	0.689
2.62303	0.692
2.6641	0.701
2.70517	0.703
2.74625	0.701
2.78732	0.672
2.8284	0.641
2.86947	0.614
2.91054	0.603
2.95162	0.603
2.99269	0.641
3.03376	0.67
3.07484	0.686
3.11591	0.691
3.15698	0.694
3.19806	0.694
3.23913	0.691
3.2802	0.68
3.32128	0.677
3.36235	0.667
3.40342	0.665
3.4445	0.742
3.48557	0.775
3.52664	0.794
3.56772	0.806
3.60879	0.813
3.64986	0.821
3.69094	0.83
3.73201	0.835
3.77308	0.838
3.81416	0.842
3.85523	0.847
3.8963	0.852
3.93738	0.859
3.97845	0.864
4.01952	0.866
4.0606	0.871
4.10167	0.878
4.14274	0.885
4.18382	0.888
4.22489	0.895
4.26596	0.9
4.30704	0.9
4.34811	0.9
4.38919	0.905
4.43026	0.91
4.47133	0.915
4.51241	0.919
4.55348	0.921
4.59455	0.921
4.63563	0.926
4.6767	0.926
4.71777	0.927
4.75885	0.931
4.79992	0.934
4.84099	0.934
4.88207	0.934
4.92314	0.933
4.96421	0.934
5.00529	0.941
5.04636	0.939
5.08743	0.929
5.12851	0.927
5.16958	0.933
5.21065	0.933
5.25173	0.936
5.2928	0.938
5.33387	0.939
5.37495	0.939
5.41602	0.941
5.45709	0.941
5.49817	0.939
5.53924	0.938
5.58031	0.927
5.62139	0.919
5.66246	0.85
5.70353	0.787
5.74461	0.516
5.78568	0.19
5.82675	0.5
5.86783	0.749
5.9089	0.802
5.94998	0.821
5.99105	0.845
6.03212	0.847
6.0732	0.849
6.11427	0.845
6.15534	0.739
6.19642	0.624
6.23749	0.483
6.27856	0.797
6.31964	0.84
6.36071	0.732
6.40178	0.838
6.44286	0.888
6.48393	0.89
6.525	0.902
6.56608	0.902
6.60715	0.895
6.64822	0.866
6.6893	0.602
6.73037	0.802
6.77144	0.754
6.81252	0.694
6.85359	0.804
6.89466	0.814
6.93574	0.819
6.97681	0.826
7.01788	0.831
7.05896	0.83
7.10003	0.821
7.1411	0.656
7.18218	0.675
7.22325	0.782
7.26432	0.813
7.3054	0.837
7.34647	0.84
7.38754	0.84
7.42862	0.842
7.46969	0.85
7.51077	0.85
7.55184	0.78
7.59291	0.699
7.63399	0.692
7.67506	0.656
7.71613	0.312
7.75721	0.18
7.79828	0.233
7.83935	0.142
7.88043	0.264
7.9215	0.387
7.96257	0.288
8.00365	0.19
8.04472	0.384
8.08579	0.267
8.12687	0.2
8.16794	0.252
8.20901	0.212
8.25009	0.202
8.29116	0.197
8.33223	0.487
8.37331	0.684
8.41438	0.77
8.45545	0.804
8.49653	0.823
8.5376	0.833
8.57867	0.821
8.61975	0.768
8.66082	0.814
8.70189	0.842
8.74297	0.857
8.78404	0.859
8.82511	0.859
8.86619	0.859
8.90726	0.854
8.94833	0.835
8.98941	0.862
9.03048	0.864
9.07156	0.864
9.11263	0.852
9.1537	0.771
9.19478	0.811
9.23585	0.852
9.27692	0.861
9.318	0.862
9.35907	0.857
9.40014	0.84
9.44122	0.732
9.48229	0.684
9.52336	0.778
9.56444	0.838
9.60551	0.854
9.64658	0.852
9.68766	0.854
9.72873	0.871
9.7698	0.876
9.81088	0.885
9.85195	0.888
9.89302	0.902
9.9341	0.903
9.97517	0.91
10.0162	0.914
10.0573	0.917
10.0984	0.915
10.1395	0.89
10.1805	0.833
10.2216	0.763
10.2627	0.816
10.3038	0.881
10.3448	0.903
10.3859	0.917
10.427	0.922
10.4681	0.922
10.5091	0.924
10.5502	0.926
10.5913	0.926
10.6323	0.927
10.6734	0.927
10.7145	0.929
10.7556	0.933
10.7966	0.936
10.8377	0.936
10.8788	0.934
10.9199	0.936
10.9609	0.926
11.002	0.912
11.0431	0.919
11.0842	0.921
11.1252	0.852
11.1663	0.668
11.2074	0.627
11.2484	0.771
11.2895	0.831
11.3306	0.83
11.3717	0.83
11.4127	0.873
11.4538	0.921
11.4949	0.933
11.536	0.936
11.577	0.936
11.6181	0.939
11.6592	0.941
11.7003	0.945
11.7413	0.945
11.7824	0.945
11.8235	0.946
11.8645	0.948
11.9056	0.95
11.9467	0.95
11.9878	0.951
12.0288	0.951
12.0699	0.951
12.111	0.953
12.1521	0.951
12.1931	0.951
12.2342	0.951
12.2753	0.951
12.3164	0.951
12.3574	0.95
12.3985	0.933
12.4396	0.862
12.4806	0.814
12.5217	0.823
12.5628	0.861
12.6039	0.795
12.6449	0.703
12.686	0.684
12.7271	0.777
12.7682	0.845
12.8092	0.849
12.8503	0.72
12.8914	0.567
12.9325	0.409
12.9735	0.377
13.0146	0.552
13.0557	0.734
13.0968	0.809
13.1378	0.849
13.1789	0.873
13.22	0.883
13.261	0.893
13.3021	0.907
13.3432	0.914
13.3843	0.917
13.4253	0.915
13.4664	0.915
13.5075	0.915
13.5486	0.919
13.5896	0.924
13.6307	0.924
13.6718	0.926
13.7129	0.926
13.7539	0.926
13.795	0.924
13.8361	0.914
13.8771	0.885
13.9182	0.842
13.9593	0.778
14.0004	0.728
14.0414	0.713
14.0825	0.715
14.1236	0.718
14.1647	0.72
14.2057	0.718
14.2468	0.718
14.2879	0.718
14.329	0.727
14.37	0.737
14.4111	0.753
14.4522	0.766
14.4932	0.785
14.5343	0.804
14.5754	0.826
14.6165	0.843
14.6575	0.864
14.6986	0.876
14.7397	0.893
14.7808	0.912
14.8218	0.926
14.8629	0.933
14.904	0.939
14.9451	0.939
14.9861	0.939
15.0272	0.939
15.0683	0.946
15.1093	0.96
15.1504	0.967
15.1915	0.967
15.2326	0.967
15.2736	0.967
15.3147	0.969
15.3558	0.967
15.3969	0.967
15.4379	0.963
15.479	0.957
15.5201	0.951
15.5612	0.934
15.6022	0.927
15.6433	0.921
15.6844	0.912
15.7254	0.903
15.7665	0.898
15.8076	0.876
15.8487	0.866
15.8897	0.861
15.9308	0.852
15.9719	0.845
16.013	0.845
