Infrared Spectrum: 4-Pyrrolidinobutyronitrile
Formula: C 8 H 14 N 2
CAS: 35543-25-0
State: gas
Origin: EPA-IR VAPOR PHASE LIBRARY
1/CM	ABSORBANCE
549.9	0.0010661
559.547	0.0006442
569.193	0.0005171
578.84	0.0006347
588.486	0.0005643
598.133	0.0005484
607.779	0.00043434
617.426	0.0005539
627.072	0.00035942
636.719	0.00042191
646.365	0.000366107
656.012	0.000263
665.658	0.0002993
675.305	0.00041556
684.951	0.000399
694.598	0.0005424
704.245	0.0005351
713.891	0.0006988
723.538	0.0007796
733.184	0.0007019
742.831	0.0009062
752.477	0.0010203
762.124	0.0011806
771.77	0.0010641
781.417	0.0008488
791.063	0.0007942
800.71	0.0009035
810.356	0.0010321
820.003	0.001453
829.649	0.001873
839.296	0.002613
848.943	0.003143
858.589	0.003483
868.236	0.003703
877.882	0.003243
887.529	0.002673
897.175	0.002663
906.822	0.002743
916.468	0.002083
926.115	0.001723
935.761	0.001653
945.408	0.001653
955.054	0.001713
964.701	0.002003
974.347	0.002433
983.994	0.002113
993.64	0.001523
1003.29	0.001503
1012.93	0.001853
1022.58	0.002313
1032.23	0.002903
1041.87	0.003243
1051.52	0.003623
1061.17	0.003923
1070.81	0.003663
1080.46	0.003373
1090.11	0.003193
1099.75	0.003603
1109.4	0.005003
1119.05	0.008233
1128.69	0.012403
1138.34	0.014883
1147.99	0.014353
1157.63	0.011893
1167.28	0.009463
1176.92	0.008233
1186.57	0.007453
1196.22	0.007353
1205.86	0.007633
1215.51	0.007713
1225.16	0.007453
1234.8	0.007373
1244.45	0.007113
1254.1	0.006033
1263.74	0.004883
1273.39	0.004503
1283.04	0.005013
1292.68	0.005453
1302.33	0.005373
1311.98	0.005243
1321.62	0.006183
1331.27	0.008063
1340.92	0.011943
1350.56	0.013193
1360.21	0.008753
1369.86	0.005603
1379.5	0.005743
1389.15	0.005443
1398.79	0.003773
1408.44	0.002873
1418.09	0.003473
1427.73	0.005403
1437.38	0.006953
1447.03	0.008303
1456.67	0.009033
1466.32	0.006853
1475.97	0.004313
1485.61	0.002953
1495.26	0.002213
1504.91	0.001483
1514.55	0.0011295
1524.2	0.0008708
1533.85	0.0007016
1543.49	0.0006014
1553.14	0.000547
1562.79	0.000512
1572.43	0.00041492
1582.08	0.0004825
1591.73	0.000365785
1601.37	0.0004463
1611.02	0.00038802
1620.67	0.00038004
1630.31	0.0003361
1639.96	0.0003119
1649.6	0.0002641
1659.25	0.0003456
1668.9	0.000243
1678.54	0.00036034
1688.19	0.00035387
1697.84	0.00019
1707.48	0.000245
1717.13	0.000149
1726.78	0.000172
1736.42	0.000109
1746.07	0.000173
1755.72	0.000145
1765.36	0.000216
1775.01	0.000179
1784.66	0.000162
1794.3	0.000236
1803.95	0.000192
1813.6	0.000142
1823.24	0.00013
1832.89	0.000133
1842.54	0.000109
1852.18	0.000163
1861.83	8.5e-05
1871.47	0.000146
1881.12	6.5e-05
1890.77	0.000156
1900.41	0.000122
1910.06	0.000129
1919.71	0.000102
1929.35	0.000152
1939	0.000144
1948.65	0.000165
1958.29	0.000144
1967.94	0.000127
1977.59	0.000165
1987.23	0.000205
1996.88	0.000201
2006.53	0.000199
2016.17	0.000204
2025.82	0.000148
2035.47	0.000141
2045.11	0.000165
2054.76	9.1e-05
2064.41	0.000171
2074.05	8.5e-05
2083.7	0.000138
2093.35	0.000128
2102.99	0.000145
2112.64	0.000127
2122.28	0.00015
2131.93	8.1e-05
2141.58	7.8e-05
2151.22	6.6e-05
2160.87	6.3e-05
2170.52	0.000162
2180.16	0.000153
2189.81	0.000225
2199.46	0.0002725
2209.1	0.000238
2218.75	0.000242
2228.4	0.0004409
2238.04	0.0009869
2247.69	0.001623
2257.34	0.001453
2266.98	0.0006498
2276.63	0.0003493
2286.28	0.00036522
2295.92	0.00035561
2305.57	0.0003294
2315.22	0.000257
2324.86	0.000268
2334.51	0.00018
2344.16	0.000179
2353.8	0.000224
2363.45	0.000134
2373.09	0.0002878
2382.74	0.00022
2392.39	0.0002665
2402.03	0.000214
2411.68	0.000147
2421.33	0.000174
2430.97	0.000114
2440.62	8.9e-05
2450.27	0.000133
2459.91	0.000129
2469.56	5.8e-05
2479.21	0.000169
2488.85	0.0002838
2498.5	0.0003054
2508.15	0.0003168
2517.79	0.0002956
2527.44	0.00022
2537.09	0.0003452
2546.73	0.000465
2556.38	0.000532
2566.03	0.000618
2575.67	0.0008285
2585.32	0.0008465
2594.96	0.0009023
2604.61	0.0011766
2614.26	0.001373
2623.9	0.001573
2633.55	0.001973
2643.2	0.002033
2652.84	0.002263
2662.49	0.002533
2672.14	0.003003
2681.78	0.003413
2691.43	0.003903
2701.08	0.004073
2710.72	0.004413
2720.37	0.005033
2730.02	0.006503
2739.66	0.008403
2749.31	0.010413
2758.96	0.012533
2768.6	0.016003
2778.25	0.024043
2787.9	0.036013
2797.54	0.043783
2807.19	0.041283
2816.84	0.031453
2826.48	0.020853
2836.13	0.013803
2845.77	0.010693
2855.42	0.009863
2865.07	0.011153
2874.71	0.016013
2884.36	0.021233
2894.01	0.021923
2903.65	0.022163
2913.3	0.025203
2922.95	0.028503
2932.59	0.032873
2942.24	0.039073
2951.89	0.045863
2961.53	0.053763
2971.18	0.055543
2980.83	0.041183
2990.47	0.019853
3000.12	0.009153
3009.77	0.005673
3019.41	0.003953
3029.06	0.003003
3038.71	0.001943
3048.35	0.0012557
3058	0.0009681
3067.64	0.0008318
3077.29	0.0006554
3086.94	0.00039015
3096.58	0.0003422
3106.23	0.00043121
3115.88	0.0003204
3125.52	0.0002889
3135.17	0.00014
3144.82	0.000171
3154.46	0.000226
3164.11	0.0003258
3173.76	0.000248
3183.4	0.0004352
3193.05	0.00038987
3202.7	0.000209
3212.34	9.6e-05
3221.99	0.000126
3231.64	0.00016
3241.28	0.000139
3250.93	0.0002744
3260.58	0.000122
3270.22	0.000258
3279.87	0.000259
3289.52	0.00035656
3299.16	0.0002
3308.81	0.000226
3318.45	0.0005721
3328.1	0.000262
3337.75	0.0003326
3347.39	0.0004705
3357.04	0.00038099
3366.69	0.000232
3376.33	7.4e-05
3385.98	0.0002741
3395.63	0.00044142
3405.27	0.000159
3414.92	0.0002691
3424.57	0.000264
3434.21	0.000263
3443.86	0.000246
3453.51	0.000103
3463.15	0.00039318
3472.8	0.000236
3482.45	0.000157
3492.09	0.000189
3501.74	0.0002798
3511.39	0.0003511
3521.03	0.000238
3530.68	0.0004745
3540.33	0.000182
3549.97	0.000116
3559.62	0.00038406
3569.26	0.0002923
3578.91	0.000106
3588.56	0.0003119
3598.2	0.0002799
3607.85	0.000182
3617.5	0.000154
3627.14	0.000103
3636.79	0.000212
3646.44	0.000201
3656.08	0.000213
3665.73	0.000154
3675.38	0.000197
3685.02	0.000145
3694.67	8.3e-05
3704.32	0.000159
3713.96	0.000249
3723.61	0.000186
3733.26	0.000139
3742.9	0.000147
3752.55	0.0003193
3762.2	0.000209
3771.84	0.000145
3781.49	8.7e-05
3791.13	0.00021
3800.78	0.000126
3810.43	0.000199
3820.07	0.000128
3829.72	0.0002
3839.37	4.8e-05
3849.01	0.000178
3858.66	0.000117
3868.31	8.3e-05
3877.95	0.000166
3887.6	0.000113
3897.25	9.9e-05
3906.89	0.000169
3916.54	0.0002687
3926.19	0.000189
3935.83	0.00015
3945.48	0.000119
3955.13	0.00015
3964.77	0.000206
3974.42	0.000152
3984.07	0.00014
3993.71	0.000196
