Infrared Spectrum: BENZOPHENONE, 2,4-DIMETHOXY-
Formula: C15 H14 O3
CAS: 3555-84-8
State: SOLID (NUJOL MULL)
Class: COBLENTZ
Instrument: Not specified, most likely a prism, grating, or hybrid spectrometer.
Sampling: TRANSMISSION
Resolution: 4
Origin: TENNESSEE EASTMAN COMPANY, RESEARCH LABORATORIES
MICROMETERS	TRANSMITTANCE
2.048	0.656
2.08914	0.661
2.13028	0.673
2.17142	0.678
2.21256	0.683
2.2537	0.692
2.29484	0.69
2.33598	0.692
2.37712	0.697
2.41826	0.707
2.4594	0.705
2.50054	0.716
2.54168	0.733
2.58282	0.741
2.62396	0.74
2.6651	0.755
2.70624	0.748
2.74738	0.752
2.78852	0.75
2.82966	0.75
2.8708	0.758
2.91194	0.765
2.95308	0.772
2.99422	0.776
3.03536	0.779
3.0765	0.779
3.11764	0.784
3.15878	0.782
3.19992	0.786
3.24106	0.781
3.2822	0.752
3.32334	0.705
3.36448	0.48
3.40562	0.198
3.44676	0.393
3.4879	0.393
3.52904	0.659
3.57018	0.793
3.61132	0.81
3.65246	0.818
3.6936	0.818
3.73474	0.82
3.77588	0.827
3.81702	0.83
3.85816	0.834
3.8993	0.835
3.94044	0.842
3.98158	0.842
4.02272	0.842
4.06386	0.849
4.105	0.849
4.14614	0.851
4.18728	0.852
4.22842	0.856
4.26956	0.859
4.3107	0.863
4.35184	0.864
4.39297	0.868
4.43411	0.873
4.47525	0.873
4.51639	0.875
4.55753	0.876
4.59867	0.878
4.63981	0.878
4.68095	0.88
4.72209	0.885
4.76323	0.887
4.80437	0.887
4.84551	0.885
4.88665	0.882
4.92779	0.888
4.96893	0.89
5.01007	0.899
5.05121	0.897
5.09235	0.897
5.13349	0.899
5.17463	0.888
5.21577	0.899
5.25691	0.899
5.29805	0.905
5.33919	0.917
5.38033	0.909
5.42147	0.912
5.46261	0.911
5.50375	0.904
5.54489	0.911
5.58603	0.917
5.62717	0.917
5.66831	0.919
5.70945	0.924
5.75059	0.923
5.79173	0.923
5.83287	0.921
5.87401	0.917
5.91515	0.905
5.95629	0.897
5.99743	0.856
6.03857	0.709
6.07971	0.418
6.12085	0.755
6.16199	0.827
6.20313	0.615
6.24427	0.22
6.28541	0.476
6.32655	0.526
6.36769	0.735
6.40883	0.796
6.44997	0.854
6.49111	0.851
6.53225	0.856
6.57339	0.851
6.61453	0.753
6.65567	0.796
6.69681	0.837
6.73795	0.818
6.77909	0.454
6.82023	0.535
6.86137	0.432
6.90251	0.611
6.94365	0.675
6.98479	0.808
7.02593	0.682
7.06707	0.699
7.10821	0.811
7.14935	0.847
7.19049	0.849
7.23163	0.777
7.27277	0.767
7.31391	0.817
7.35505	0.852
7.39619	0.871
7.43733	0.873
7.47847	0.866
7.51961	0.75
7.56075	0.548
7.60189	0.541
7.64303	0.659
7.68417	0.707
7.72531	0.62
7.76645	0.519
7.80759	0.261
7.84873	0.242
7.88987	0.569
7.93101	0.649
7.97215	0.656
8.01329	0.791
8.05443	0.846
8.09557	0.852
8.13671	0.856
8.17785	0.83
8.21899	0.67
8.26013	0.28
8.30127	0.705
8.34241	0.827
8.38355	0.849
8.42469	0.847
8.46583	0.8
8.50697	0.594
8.54811	0.683
8.58925	0.776
8.63039	0.786
8.67153	0.852
8.71267	0.876
8.75381	0.885
8.79495	0.887
8.83609	0.858
8.87723	0.724
8.91837	0.576
8.95951	0.629
9.00065	0.752
9.04178	0.829
9.08292	0.864
9.12406	0.885
9.1652	0.894
9.20634	0.899
9.24748	0.851
9.28862	0.854
9.32976	0.89
9.3709	0.9
9.41204	0.907
9.45318	0.907
9.49432	0.907
9.53546	0.904
9.5766	0.878
9.61774	0.777
9.65888	0.558
9.70002	0.444
9.74116	0.608
9.7823	0.774
9.82344	0.849
9.86458	0.873
9.90572	0.89
9.94686	0.876
9.988	0.887
10.0291	0.902
10.0703	0.914
10.1114	0.921
10.1526	0.926
10.1937	0.911
10.2348	0.897
10.276	0.907
10.3171	0.917
10.3583	0.924
10.3994	0.926
10.4405	0.924
10.4817	0.9
10.5228	0.733
10.564	0.487
10.6051	0.673
10.6462	0.823
10.6874	0.849
10.7285	0.839
10.7697	0.873
10.8108	0.895
10.8519	0.866
10.8931	0.764
10.9342	0.825
10.9754	0.894
11.0165	0.924
11.0576	0.938
11.0988	0.941
11.1399	0.945
11.1811	0.948
11.2222	0.95
11.2633	0.95
11.3045	0.952
11.3456	0.953
11.3868	0.953
11.4279	0.953
11.469	0.953
11.5102	0.953
11.5513	0.952
11.5925	0.95
11.6336	0.928
11.6747	0.887
11.7159	0.815
11.757	0.649
11.7982	0.644
11.8393	0.765
11.8804	0.83
11.9216	0.89
11.9627	0.912
12.0039	0.924
12.045	0.89
12.0861	0.719
12.1273	0.623
12.1684	0.813
12.2096	0.892
12.2507	0.917
12.2918	0.929
12.333	0.935
12.3741	0.933
12.4153	0.863
12.4564	0.813
12.4975	0.842
12.5387	0.897
12.5798	0.923
12.621	0.931
12.6621	0.936
12.7032	0.938
12.7444	0.938
12.7855	0.941
12.8267	0.94
12.8678	0.94
12.9089	0.94
12.9501	0.94
12.9912	0.938
13.0324	0.936
13.0735	0.931
13.1146	0.929
13.1558	0.921
13.1969	0.892
13.2381	0.849
13.2792	0.765
13.3203	0.748
13.3615	0.81
13.4026	0.852
13.4438	0.861
13.4849	0.866
13.526	0.866
13.5672	0.866
13.6083	0.863
13.6495	0.852
13.6906	0.803
13.7317	0.747
13.7729	0.75
13.814	0.789
13.8552	0.801
13.8963	0.791
13.9374	0.717
13.9786	0.617
14.0197	0.536
14.0609	0.545
14.102	0.658
14.1431	0.741
14.1843	0.758
14.2254	0.758
14.2666	0.752
14.3077	0.758
14.3488	0.772
14.39	0.781
14.4311	0.779
14.4723	0.779
14.5134	0.779
14.5545	0.782
14.5957	0.788
14.6368	0.788
14.678	0.788
14.7191	0.788
14.7602	0.788
14.8014	0.786
14.8425	0.781
14.8837	0.777
14.9248	0.774
14.9659	0.776
15.0071	0.774
15.0482	0.764
15.0894	0.752
15.1305	0.747
15.1716	0.738
15.2128	0.733
15.2539	0.719
15.2951	0.709
15.3362	0.699
15.3773	0.688
15.4185	0.682
15.4596	0.68
15.5008	0.678
15.5419	0.678
15.583	0.678
15.6242	0.678
15.6653	0.678
15.7065	0.678
15.7476	0.678
15.7887	0.678
15.8299	0.678
15.871	0.678
15.9122	0.678
15.9533	0.68
15.9944	0.678
