Infrared Spectrum: m-Xylene, Alpha,Alpha,Alpha,Alpha',Alpha',Alpha',5-heptafluoro-
Formula: C8 H3 F7
CAS: 35564-19-3
State: SOLUTION (5% CCl4 FOR 3800-1340, 5% CS2 FOR 1340-400 CM^-^1)
Class: COBLENTZ III
Instrument: DOW KBr FOREPRISM-GRATING
Instrument parameters: BLAZED AT 3.5, 12.0, 20.0 MICRON AND CHANGED AT 5.0, 7.5, 14.9 MICRON
Sampling: TRANSMISSION
Path length: 0.010 CM, 0.011 CM
Resolution: 2
Origin: DOW CHEMICAL COMPANY
1/CM	TRANSMITTANCE
395	0.1245
404	0.2297
413	0.516
422	0.6289
431	0.6879
440	0.7128
449	0.7363
458	0.7549
467	0.7649
476	0.7749
485	0.7844
494	0.7915
503	0.7969
512	0.8001
521	0.7799
530	0.6771
539	0.8143
548	0.8169
557	0.8252
566	0.8301
575	0.8324
584	0.8328
593	0.8319
602	0.8277
611	0.7945
620	0.8269
629	0.8255
638	0.8196
647	0.808
656	0.8014
665	0.8189
674	0.8075
683	0.2476
692	0.8084
701	0.1777
710	0.8403
719	0.8587
728	0.6038
737	0.8523
746	0.8652
755	0.8658
764	0.8642
773	0.8608
782	0.8576
791	0.8565
800	0.8575
809	0.8531
818	0.8558
827	0.8476
836	0.8181
845	0.6092
854	0.6253
863	0.7013
872	0.7131
881	0.4674
890	0.3331
899	0.6536
908	0.7742
917	0.7776
926	0.7344
935	0.0265
944	0.6364
953	0.7788
962	0.7864
971	0.7881
980	0.7912
989	0.7955
998	0.7876
1007	0.7852
1016	0.7954
1025	0.7932
1034	0.7907
1043	0.786
1052	0.7799
1061	0.7728
1070	0.7634
1079	0.7228
1088	0.7529
1097	0.7221
1106	0.6456
1115	0.6616
1124	0.5309
1133	0.2242
1142	0.003
1151	0.0741
1160	0.2934
1169	0.135
1178	0.0029
1187	0.2055
1196	0.4589
1205	0.5091
1214	0.5596
1223	0.6741
1232	0.6736
1241	0.6192
1250	0.1932
1259	0.5616
1268	0.3773
1277	0.0011
1286	0.4337
1295	0.6942
1304	0.743
1313	0.7517
1322	0.7553
1331	0.7611
1340	0.7484
1349	0.7426
1358	0.7047
1367	0.5743
1376	0.0815
1385	0.0552
1394	0.6408
1403	0.7298
1412	0.7564
1421	0.7674
1430	0.7675
1439	0.7523
1448	0.725
1457	0.5128
1466	0.3199
1475	0.56
1484	0.7044
1493	0.734
1502	0.6964
1511	0.662
1520	0.618
1529	0.5791
1538	0.5097
1547	0.4446
1556	0.434
1565	0.5061
1574	0.5547
1583	0.5597
1592	0.5803
1601	0.5945
1610	0.6278
1619	0.6818
1628	0.6148
1637	0.7616
1646	0.7909
1655	0.7949
1664	0.8069
1673	0.8127
1682	0.8153
1691	0.8178
1700	0.8194
1709	0.8237
1718	0.8184
1727	0.8199
1736	0.8214
1745	0.8216
1754	0.8194
1763	0.8192
1772	0.7951
1781	0.7775
1790	0.7993
1799	0.8004
1808	0.8293
1817	0.83
1826	0.8331
1835	0.8362
1844	0.8354
1853	0.8341
1862	0.8328
1871	0.8326
1880	0.838
1889	0.8407
1898	0.8363
1907	0.8377
1916	0.8438
1925	0.8412
1934	0.8462
1943	0.8425
1952	0.8455
1961	0.8573
1970	0.8423
1979	0.8397
1988	0.8329
1997	0.8182
2006	0.8318
2015	0.8361
2024	0.8396
2033	0.8414
2042	0.843
2051	0.8442
2060	0.8453
2069	0.8445
2078	0.8434
2087	0.8422
2096	0.8411
2105	0.8401
2114	0.839
2123	0.8371
2132	0.8299
2141	0.8251
2150	0.8358
2159	0.8471
2168	0.848
2177	0.8473
2186	0.8458
2195	0.8429
2204	0.839
2213	0.834
2222	0.8311
2231	0.8335
2240	0.832
2249	0.8298
2258	0.8267
2267	0.8236
2276	0.8195
2285	0.8178
2294	0.821
2303	0.8243
2312	0.827
2321	0.8314
2330	0.8357
2339	0.8396
2348	0.8411
2357	0.8409
2366	0.8407
2375	0.8405
2384	0.8403
2393	0.8396
2402	0.8388
2411	0.8393
2420	0.84
2429	0.8408
2438	0.843
2447	0.8454
2456	0.8461
2465	0.846
2474	0.846
2483	0.8459
2492	0.8458
2501	0.8456
2510	0.8454
2519	0.8453
2528	0.8452
2537	0.8444
2546	0.8401
2555	0.8401
2564	0.8408
2573	0.8422
2582	0.8442
2591	0.8456
2600	0.8449
2609	0.8438
2618	0.8428
2627	0.8421
2636	0.842
2645	0.8421
2654	0.8431
2663	0.8442
2672	0.8457
2681	0.8474
2690	0.8492
2699	0.8505
2708	0.8513
2717	0.8516
2726	0.8519
2735	0.8515
2744	0.851
2753	0.8503
2762	0.8495
2771	0.8486
2780	0.8477
2789	0.8467
2798	0.8458
2807	0.8449
2816	0.8439
2825	0.8427
2834	0.8385
2843	0.8308
2852	0.8365
2861	0.8379
2870	0.8365
2879	0.8334
2888	0.8306
2897	0.8278
2906	0.8254
2915	0.824
2924	0.8244
2933	0.8253
2942	0.8269
2951	0.8292
2960	0.8328
2969	0.836
2978	0.8389
2987	0.8409
2996	0.8415
3005	0.8416
3014	0.8415
3023	0.8417
3032	0.8414
3041	0.8386
3050	0.834
3059	0.8256
3068	0.7994
3077	0.7796
3086	0.7891
3095	0.7919
3104	0.7972
3113	0.8203
3122	0.8351
3131	0.8389
3140	0.8395
3149	0.8396
3158	0.8397
3167	0.8399
3176	0.8401
3185	0.84
3194	0.8399
3203	0.8397
3212	0.8396
3221	0.8396
3230	0.8395
3239	0.8398
3248	0.8403
3257	0.8408
3266	0.8418
3275	0.8428
3284	0.8438
3293	0.8452
3302	0.8468
3311	0.8482
3320	0.849
3329	0.8494
3338	0.8491
3347	0.8489
3356	0.8488
3365	0.8488
3374	0.8488
3383	0.849
3392	0.8492
3401	0.8494
3410	0.8497
3419	0.8498
3428	0.8504
3437	0.851
3446	0.8516
3455	0.8522
3464	0.8528
3473	0.8534
3482	0.8543
3491	0.8551
3500	0.8559
3509	0.8568
3518	0.8573
3527	0.8575
3536	0.8577
3545	0.8579
3554	0.8581
3563	0.8583
3572	0.8579
3581	0.8574
3590	0.8615
3599	0.8678
3608	0.8694
3617	0.8712
3626	0.8721
3635	0.8726
3644	0.8732
3653	0.8737
3662	0.8742
3671	0.8746
3680	0.8747
3689	0.8746
3698	0.8745
3707	0.8743
3716	0.8739
3725	0.8733
3734	0.8728
3743	0.8724
3752	0.8725
3761	0.8725
3770	0.873
3779	0.8739
3788	0.8747
3797	0.8756
