Infrared Spectrum: Propionaldehyde, 3-chloro-, diethyl acetal
Formula: C7 H15 Cl O2
CAS: 35573-93-4
State: SOLUTION (10% CCl4 FOR 3800-1330, 10% CS2 FOR 1330-460 CM^-^1) VS SOLVENT
Class: COBLENTZ III
Instrument: DOW KBr FOREPRISM-GRATING
Instrument parameters: BLAZED AT 3.5, 12.0, 20.0 MICRON AND CHANGED AT 5.0, 7.5, 14.9 MICRON
Sampling: TRANSMISSION
Path length: 0.011 CM, 0.011 CM
Resolution: 2
Origin: DOW CHEMICAL COMPANY
1/CM	TRANSMITTANCE
462	0.8157
471	0.8148
480	0.814
489	0.8156
498	0.8138
507	0.8064
516	0.818
525	0.8218
534	0.8121
543	0.7866
552	0.7947
561	0.7931
570	0.8068
579	0.8263
588	0.8166
597	0.7944
606	0.8331
615	0.8421
624	0.7998
633	0.8259
642	0.7859
651	0.6815
660	0.5596
669	0.6978
678	0.7504
687	0.8053
696	0.8317
705	0.8662
714	0.8637
723	0.82
732	0.7125
741	0.7416
750	0.8205
759	0.821
768	0.808
777	0.8134
786	0.8097
795	0.8103
804	0.8035
813	0.7959
822	0.7706
831	0.8289
840	0.8364
849	0.7815
858	0.7405
867	0.6456
876	0.7221
885	0.7308
894	0.8031
903	0.8198
912	0.8024
921	0.7531
930	0.6341
939	0.5691
948	0.5308
957	0.5695
966	0.6174
975	0.6019
984	0.5232
993	0.4622
1002	0.4492
1011	0.3958
1020	0.3172
1029	0.2955
1038	0.2028
1047	0.1017
1056	0.0282
1065	0.0226
1074	0.0621
1083	0.1767
1092	0.2073
1101	0.1824
1110	0.1103
1119	0.0481
1128	0.033
1137	0.0763
1146	0.2413
1155	0.2849
1164	0.3254
1173	0.2703
1182	0.3355
1191	0.4886
1200	0.6047
1209	0.7055
1218	0.7245
1227	0.6738
1236	0.5713
1245	0.6415
1254	0.7174
1263	0.6682
1272	0.6516
1281	0.6385
1290	0.5387
1299	0.6207
1308	0.6712
1317	0.6327
1326	0.5926
1335	0.5627
1344	0.4722
1353	0.479
1362	0.562
1371	0.3124
1380	0.3274
1389	0.4701
1398	0.5915
1407	0.6201
1416	0.6731
1425	0.608
1434	0.6069
1443	0.336
1452	0.513
1461	0.7071
1470	0.7184
1479	0.6713
1488	0.7446
1497	0.8334
1506	0.8519
1515	0.8609
1524	0.8659
1533	0.8758
1542	0.8838
1551	0.8817
1560	0.8796
1569	0.8792
1578	0.8797
1587	0.8801
1596	0.8782
1605	0.876
1614	0.8724
1623	0.866
1632	0.8608
1641	0.8659
1650	0.8703
1659	0.8682
1668	0.8653
1677	0.8524
1686	0.8412
1695	0.8336
1704	0.8254
1713	0.8322
1722	0.793
1731	0.7718
1740	0.7828
1749	0.8263
1758	0.8524
1767	0.8615
1776	0.8664
1785	0.8695
1794	0.8708
1803	0.8719
1812	0.8723
1821	0.8722
1830	0.8718
1839	0.8717
1848	0.8717
1857	0.8718
1866	0.8711
1875	0.8701
1884	0.8688
1893	0.8673
1902	0.8657
1911	0.862
1920	0.8591
1929	0.8567
1938	0.8544
1947	0.8547
1956	0.8558
1965	0.8552
1974	0.8538
1983	0.8543
1992	0.8559
2001	0.8604
2010	0.8634
2019	0.8657
2028	0.8679
2037	0.8693
2046	0.8705
2055	0.8719
2064	0.8722
2073	0.8701
2082	0.8688
2091	0.8687
2100	0.8686
2109	0.8685
2118	0.8684
2127	0.8686
2136	0.8687
2145	0.8688
2154	0.8685
2163	0.8681
2172	0.8678
2181	0.8676
2190	0.8679
2199	0.8681
2208	0.8684
2217	0.8684
2226	0.8684
2235	0.8683
2244	0.8685
2253	0.8688
2262	0.8694
2271	0.8715
2280	0.8765
2289	0.8745
2298	0.8761
2307	0.88
2316	0.8817
2325	0.8897
2334	0.8884
2343	0.8861
2352	0.8837
2361	0.881
2370	0.8783
2379	0.8753
2388	0.872
2397	0.8695
2406	0.8678
2415	0.8666
2424	0.8662
2433	0.8659
2442	0.8658
2451	0.8657
2460	0.8664
2469	0.867
2478	0.8676
2487	0.868
2496	0.8685
2505	0.8689
2514	0.8688
2523	0.8688
2532	0.8687
2541	0.8676
2550	0.8665
2559	0.8652
2568	0.8624
2577	0.8593
2586	0.8534
2595	0.8462
2604	0.8389
2613	0.8385
2622	0.839
2631	0.8388
2640	0.837
2649	0.8334
2658	0.8295
2667	0.8241
2676	0.8183
2685	0.8116
2694	0.8046
2703	0.7968
2712	0.7886
2721	0.7793
2730	0.7756
2739	0.7736
2748	0.7674
2757	0.7609
2766	0.7555
2775	0.748
2784	0.7314
2793	0.7068
2802	0.6921
2811	0.6873
2820	0.6769
2829	0.6517
2838	0.6094
2847	0.5364
2856	0.4353
2865	0.3049
2874	0.2011
2883	0.2001
2892	0.2419
2901	0.2454
2910	0.2974
2919	0.2889
2928	0.2294
2937	0.291
2946	0.3959
2955	0.3627
2964	0.2023
2973	0.0674
2982	0.0589
2991	0.191
3000	0.5627
3009	0.643
3018	0.7097
3027	0.7687
3036	0.7902
3045	0.8033
3054	0.8125
3063	0.8214
3072	0.8286
3081	0.8337
3090	0.8383
3099	0.842
3108	0.8451
3117	0.846
3126	0.8468
3135	0.8471
3144	0.8474
3153	0.8474
3162	0.8475
3171	0.8475
3180	0.8476
3189	0.8467
3198	0.8456
3207	0.8439
3216	0.843
3225	0.8424
3234	0.8433
3243	0.8472
3252	0.8507
3261	0.8511
3270	0.851
3279	0.8507
3288	0.8497
3297	0.8483
3306	0.847
3315	0.8444
3324	0.8418
3333	0.8387
3342	0.8353
3351	0.8319
3360	0.8283
3369	0.8246
3378	0.8209
3387	0.8176
3396	0.815
3405	0.8123
3414	0.8101
3423	0.8078
3432	0.8057
3441	0.8044
3450	0.8031
3459	0.8018
3468	0.8005
3477	0.799
3486	0.7977
3495	0.7966
3504	0.7979
3513	0.8014
3522	0.8059
3531	0.8106
3540	0.8151
3549	0.8195
3558	0.8232
3567	0.8259
3576	0.828
3585	0.8281
3594	0.8241
3603	0.8191
3612	0.8123
3621	0.8054
3630	0.8116
3639	0.8425
3648	0.8502
3657	0.8527
3666	0.8512
3675	0.8483
3684	0.8469
3693	0.8502
3702	0.8562
3711	0.8565
3720	0.8567
3729	0.8569
3738	0.8562
3747	0.8553
3756	0.8543
3765	0.8536
3774	0.8547
3783	0.8569
3792	0.8605
