Infrared Spectrum: i-AMYLGLYCINE
Formula: C7 H15 N O2
CAS: 3558-32-5
State: SOLID (KBr PELLET)
Class: COBLENTZ
Instrument: PERKIN-ELMER
Sampling: TRANSMISSION
Resolution: 4
Origin: ABBOTT LABORATORIES - WASHBURN
MICROMETERS	TRANSMITTANCE
2.063	0.555
2.0966	0.567
2.1302	0.57
2.1638	0.57
2.1974	0.5787
2.231	0.5822
2.2646	0.5787
2.2982	0.584
2.3318	0.589
2.3654	0.589
2.399	0.592
2.4326	0.59
2.4662	0.595
2.4998	0.601
2.5334	0.604
2.567	0.6108
2.6006	0.6139
2.6342	0.6189
2.6678	0.617
2.7014	0.6209
2.735	0.624
2.7686	0.614
2.8022	0.5889
2.8358	0.5629
2.8694	0.5375
2.903	0.4988
2.9366	0.4831
2.9702	0.473
3.0038	0.4859
3.0374	0.5059
3.071	0.516
3.1046	0.4981
3.1382	0.4416
3.1718	0.3647
3.2054	0.2952
3.239	0.2674
3.2726	0.259
3.3062	0.2492
3.3398	0.2351
3.3734	0.2232
3.407	0.127
3.4406	0.121
3.4742	0.1582
3.5078	0.1901
3.5414	0.2221
3.575	0.2832
3.6086	0.3077
3.6422	0.3188
3.6758	0.324
3.7094	0.3259
3.743	0.34
3.7766	0.355
3.8102	0.3629
3.8438	0.361
3.8774	0.355
3.911	0.3362
3.9446	0.3359
3.9782	0.3447
4.0118	0.3678
4.0454	0.3849
4.079	0.387
4.1126	0.4089
4.1462	0.4356
4.1798	0.4612
4.2134	0.479
4.247	0.489
4.2806	0.4939
4.3142	0.5097
4.3478	0.5368
4.3814	0.547
4.415	0.548
4.4486	0.55
4.4822	0.558
4.5158	0.553
4.5494	0.547
4.583	0.5373
4.6166	0.5155
4.6502	0.5099
4.6838	0.5149
4.7174	0.5279
4.751	0.548
4.7846	0.562
4.8182	0.5749
4.8518	0.58
4.8854	0.5895
4.919	0.5938
4.9526	0.6009
4.9862	0.6039
5.0198	0.6058
5.0534	0.6136
5.087	0.6159
5.1206	0.617
5.1542	0.6203
5.1878	0.6211
5.2214	0.628
5.255	0.6317
5.2886	0.6276
5.3222	0.631
5.3558	0.634
5.3894	0.6323
5.42299	0.6378
5.45659	0.639
5.49019	0.6344
5.52379	0.641
5.55739	0.6327
5.59099	0.6298
5.62459	0.627
5.65819	0.6251
5.69179	0.616
5.72539	0.6133
5.75899	0.602
5.79259	0.5938
5.82619	0.5868
5.85979	0.5751
5.89339	0.5671
5.92699	0.5474
5.96059	0.5073
5.99419	0.4382
6.02779	0.3703
6.06139	0.2815
6.09499	0.2014
6.12859	0.1302
6.16219	0.118
6.19579	0.1197
6.22939	0.1268
6.26299	0.0961
6.29659	0.0601
6.33019	0.0742
6.36379	0.1642
6.39739	0.2309
6.43099	0.2809
6.46459	0.319
6.49819	0.3219
6.53179	0.2849
6.56539	0.2401
6.59899	0.1724
6.63259	0.1037
6.66619	0.0724
6.69979	0.0655
6.73339	0.1632
6.76699	0.2654
6.80059	0.309
6.83419	0.2936
6.86779	0.3236
6.90139	0.3019
6.93499	0.3577
6.96859	0.3924
7.00219	0.3972
7.03579	0.336
7.06939	0.2306
7.10299	0.1646
7.13659	0.2054
7.17019	0.3169
7.20379	0.3607
7.23739	0.367
7.27099	0.43
7.30459	0.3809
7.33819	0.3173
7.37179	0.2986
7.40539	0.223
7.43899	0.2931
7.47259	0.3374
7.50619	0.3448
7.53979	0.301
7.57339	0.2564
7.60699	0.198
7.64059	0.3321
7.67419	0.4484
7.70779	0.493
7.74139	0.4783
7.77499	0.4385
7.80859	0.479
7.84219	0.5219
7.87579	0.512
7.90939	0.5255
7.94299	0.5729
7.97659	0.5872
8.01019	0.595
8.04379	0.5971
8.07739	0.594
8.11099	0.594
8.14459	0.5824
8.17819	0.5675
8.21179	0.5574
8.24539	0.551
8.27899	0.5656
8.31259	0.5972
8.34619	0.609
8.37979	0.6112
8.41339	0.6018
8.44699	0.5834
8.48059	0.5693
8.51419	0.55
8.54779	0.542
8.58139	0.5619
8.61499	0.5825
8.64859	0.5933
8.68219	0.5946
8.71579	0.593
8.74939	0.5788
8.78299	0.5615
8.81659	0.53
8.85019	0.5047
8.88379	0.4915
8.91739	0.5251
8.95099	0.5645
8.98459	0.5865
9.01819	0.5964
9.05179	0.606
9.08539	0.6081
9.11899	0.606
9.15259	0.6031
9.18619	0.5982
9.21979	0.5947
9.25339	0.597
9.28699	0.5994
9.32059	0.602
9.35419	0.604
9.38779	0.5922
9.42139	0.5804
9.45499	0.5816
9.48859	0.5925
9.52219	0.6017
9.55579	0.604
9.58939	0.6152
9.62299	0.617
9.65659	0.621
9.69019	0.617
9.72379	0.6107
9.75739	0.6122
9.79099	0.621
9.82459	0.626
9.85819	0.632
9.89179	0.638
9.92539	0.643
9.95899	0.644
9.99259	0.6451
10.0262	0.651
10.0598	0.6501
10.0934	0.6429
10.127	0.6337
10.1606	0.6069
10.1942	0.59
10.2278	0.5899
10.2614	0.582
10.295	0.592
10.3286	0.6018
10.3622	0.621
10.3958	0.6281
10.4294	0.6315
10.463	0.6316
10.4966	0.6347
10.5302	0.641
10.5638	0.6465
10.5974	0.649
10.631	0.6478
10.6646	0.644
10.6982	0.646
10.7318	0.648
10.7654	0.6433
10.799	0.6383
10.8326	0.6327
10.8662	0.632
10.8998	0.636
10.9334	0.6348
10.967	0.638
11.0006	0.646
11.0342	0.6513
11.0678	0.6561
11.1014	0.659
11.135	0.6591
11.1686	0.6639
11.2022	0.6614
11.2358	0.6544
11.2694	0.654
11.303	0.65
11.3366	0.636
11.3702	0.632
11.4038	0.6217
11.4374	0.6084
11.471	0.594
11.5046	0.5745
11.5382	0.5579
11.5718	0.5616
11.6054	0.5745
11.639	0.5913
11.6726	0.6034
11.7062	0.6097
11.7398	0.6216
11.7734	0.6256
11.807	0.634
11.8406	0.634
11.8742	0.6334
11.9078	0.6327
11.9414	0.639
11.975	0.641
12.0086	0.643
12.0422	0.6459
12.0758	0.6527
12.1094	0.649
12.143	0.6434
12.1766	0.6399
12.2102	0.6409
12.2438	0.6523
12.2774	0.659
12.311	0.659
12.3446	0.654
12.3782	0.6537
12.4118	0.6391
12.4454	0.6311
12.479	0.6273
12.5126	0.631
12.5462	0.624
12.5798	0.6111
12.6134	0.602
12.647	0.612
12.6806	0.6232
12.7142	0.6366
12.7478	0.6415
12.7814	0.643
12.815	0.6358
12.8486	0.6392
12.8822	0.644
12.9158	0.6427
12.9494	0.6455
12.983	0.641
13.0166	0.6384
13.0502	0.625
13.0838	0.6065
13.1174	0.5857
13.151	0.5654
13.1846	0.553
13.2182	0.5571
13.2518	0.5653
13.2854	0.592
13.319	0.609
13.3526	0.6256
13.3862	0.6306
13.4198	0.6453
13.4534	0.6504
13.487	0.6585
13.5206	0.6619
13.5542	0.6668
13.5878	0.671
13.6214	0.673
13.655	0.675
13.6886	0.676
13.7222	0.6751
13.7558	0.676
13.7894	0.675
13.823	0.6764
13.8566	0.673
13.8902	0.676
13.9238	0.6756
13.9574	0.671
13.991	0.6621
14.0246	0.664
14.0582	0.666
14.0918	0.6683
14.1254	0.659
14.159	0.658
14.1926	0.663
14.2262	0.6591
14.2598	0.6581
14.2934	0.6523
14.327	0.6478
14.3606	0.651
14.3942	0.6471
14.4278	0.643
14.4614	0.638
14.495	0.6354
14.5286	0.627
14.5622	0.6219
14.5958	0.601
14.6294	0.5825
14.663	0.5674
14.6966	0.5413
14.7302	0.5285
14.7638	0.5274
14.7974	0.5389
14.831	0.5452
14.8646	0.5624
14.8982	0.58
14.9318	0.582
14.9654	0.5962
14.999	0.622
15.0326	0.617
15.0662	0.616
15.0998	0.619
15.1334	0.6217
15.167	0.6248
15.2006	0.629
15.2342	0.6264
15.2678	0.63
15.3014	0.6301
15.335	0.627
15.3686	0.6276
15.4022	0.632
15.4358	0.632
