Infrared Spectrum: 1H,1H-Pentafluoro-n-propyl acrylate
Formula: C 6 H 5 F 5 O 2
CAS: 356-86-5
State: gas
Origin: EPA-IR VAPOR PHASE LIBRARY
1/CM	ABSORBANCE
549.8	0.004698
559.445	0.003438
569.09	0.003238
578.734	0.005088
588.379	0.006468
598.024	0.009948
607.669	0.010878
617.313	0.011058
626.958	0.015988
636.603	0.016228
646.248	0.014958
655.893	0.016378
665.537	0.016708
675.182	0.014348
684.827	0.013178
694.472	0.009988
704.116	0.007108
713.761	0.011208
723.406	0.021708
733.051	0.015688
742.695	0.005088
752.34	0.003098
761.985	0.004188
771.63	0.005458
781.275	0.008418
790.919	0.014188
800.564	0.023438
810.209	0.022608
819.854	0.015688
829.498	0.012548
839.143	0.011758
848.788	0.012468
858.433	0.011448
868.078	0.011888
877.722	0.013008
887.367	0.014918
897.012	0.015548
906.657	0.014418
916.301	0.014458
925.946	0.018308
935.591	0.027808
945.236	0.039008
954.88	0.044688
964.525	0.051718
974.17	0.058038
983.815	0.055968
993.46	0.046978
1003.1	0.043898
1012.75	0.051808
1022.39	0.053698
1032.04	0.065908
1041.68	0.068158
1051.33	0.045308
1060.97	0.044848
1070.62	0.071548
1080.26	0.101728
1089.91	0.100928
1099.55	0.090908
1109.2	0.124978
1118.84	0.121988
1128.49	0.103988
1138.13	0.139308
1147.78	0.238678
1157.42	0.354808
1167.07	0.353038
1176.71	0.263298
1186.36	0.203528
1196	0.263768
1205.64	0.504818
1215.29	0.603708
1224.93	0.312298
1234.58	0.155938
1244.22	0.139998
1253.87	0.160868
1263.51	0.162718
1273.16	0.113568
1282.8	0.076318
1292.45	0.074038
1302.09	0.066868
1311.74	0.041428
1321.38	0.026608
1331.03	0.024268
1340.67	0.029898
1350.32	0.035108
1359.96	0.030258
1369.61	0.027088
1379.25	0.022308
1388.9	0.022908
1398.54	0.038218
1408.18	0.076828
1417.83	0.072058
1427.47	0.026948
1437.12	0.017008
1446.76	0.018228
1456.41	0.019098
1466.05	0.013538
1475.7	0.008538
1485.34	0.007058
1494.99	0.006348
1504.63	0.005698
1514.28	0.005098
1523.92	0.004498
1533.57	0.004348
1543.21	0.003968
1552.86	0.004018
1562.5	0.004018
1572.15	0.004058
1581.79	0.004608
1591.44	0.005218
1601.08	0.006718
1610.73	0.008098
1620.37	0.011148
1630.01	0.017438
1639.66	0.018318
1649.3	0.008328
1658.95	0.004758
1668.59	0.004148
1678.24	0.004268
1687.88	0.004858
1697.53	0.006048
1707.17	0.008638
1716.82	0.013268
1726.46	0.020588
1736.11	0.034418
1745.75	0.069438
1755.4	0.147498
1765.04	0.207568
1774.69	0.140468
1784.33	0.062598
1793.98	0.028338
1803.62	0.014588
1813.27	0.009148
1822.91	0.007038
1832.55	0.005338
1842.2	0.003898
1851.84	0.003228
1861.49	0.003048
1871.13	0.002768
1880.78	0.002678
1890.42	0.002388
1900.07	0.002488
1909.71	0.002678
1919.36	0.003108
1929	0.004438
1938.65	0.005398
1948.29	0.005128
1957.94	0.003998
1967.58	0.003168
1977.23	0.003398
1986.87	0.003748
1996.52	0.003438
2006.16	0.003038
2015.81	0.002688
2025.45	0.002648
2035.1	0.002648
2044.74	0.002538
2054.38	0.002768
2064.03	0.003088
2073.67	0.003288
2083.32	0.003448
2092.96	0.003128
2102.61	0.002698
2112.25	0.002268
2121.9	0.002258
2131.54	0.002198
2141.19	0.002228
2150.83	0.002148
2160.48	0.002128
2170.12	0.001978
2179.77	0.001938
2189.41	0.001718
2199.06	0.001828
2208.7	0.002078
2218.35	0.002058
2227.99	0.001868
2237.64	0.001878
2247.28	0.001768
2256.92	0.002088
2266.57	0.001988
2276.21	0.002068
2285.86	0.001968
2295.5	0.002238
2305.15	0.002188
2314.79	0.002148
2324.44	0.002398
2334.08	0.002308
2343.73	0.001938
2353.37	0.001998
2363.02	0.001888
2372.66	0.001978
2382.31	0.001908
2391.95	0.002268
2401.6	0.002108
2411.24	0.001978
2420.89	0.002228
2430.53	0.002388
2440.18	0.002238
2449.82	0.001978
2459.47	0.001908
2469.11	0.002088
2478.75	0.001918
2488.4	0.0015167
2498.04	0.001668
2507.69	0.0014678
2517.33	0.0014221
2526.98	0.0011693
2536.62	0.0014321
2546.27	0.0013755
2555.91	0.001758
2565.56	0.0014957
2575.2	0.001698
2584.85	0.0016507
2594.49	0.0013426
2604.14	0.0013763
2613.78	0.0012407
2623.43	0.001311
2633.07	0.0012639
2642.72	0.001147
2652.36	0.0014079
2662.01	0.0010398
2671.65	0.0010413
2681.29	0.0012574
2690.94	0.0008758
2700.58	0.00147
2710.23	0.0013229
2719.87	0.0010437
2729.52	0.0010303
2739.16	0.0012248
2748.81	0.0009279
2758.45	0.0009246
2768.1	0.00073923
2777.74	0.0010241
2787.39	0.0012135
2797.03	0.0013153
2806.68	0.0012892
2816.32	0.0013843
2825.97	0.0012697
2835.61	0.0012635
2845.26	0.0014599
2854.9	0.0014035
2864.55	0.0014101
2874.19	0.0015586
2883.84	0.002088
2893.48	0.002868
2903.12	0.003388
2912.77	0.002738
2922.41	0.002248
2932.06	0.002268
2941.7	0.002758
2951.35	0.003768
2960.99	0.009008
2970.64	0.018108
2980.28	0.015728
2989.93	0.006948
2999.57	0.005358
3009.22	0.004068
3018.86	0.003138
3028.51	0.003558
3038.15	0.004338
3047.8	0.005188
3057.44	0.003318
3067.09	0.001678
3076.73	0.001506
3086.38	0.001908
3096.02	0.001998
3105.67	0.003238
3115.31	0.004198
3124.95	0.002288
3134.6	0.0008683
3144.24	0.0011967
3153.89	0.0010133
3163.53	0.00052
3173.18	0.0011543
3182.82	0.0008944
3192.47	0.0014324
3202.11	0.00069763
3211.76	0.0009837
3221.4	0.0008819
3231.05	0.0010166
3240.69	0.0013001
3250.34	0.000431
3259.98	0.0011428
3269.63	0.0008574
3279.27	0.000262
3288.92	0.00073313
3298.56	0.000328
3308.21	0.00072824
3317.85	0.000447
3327.49	0.0007528
3337.14	0.000662507
3346.78	0.0010413
3356.43	0.0005964
3366.07	0.0010696
3375.72	0.0013639
3385.36	0.0011221
3395.01	0.0010404
3404.65	0.0008627
3414.3	0.0015485
3423.94	0.0008645
3433.59	0.0011262
3443.23	0.0009817
3452.88	0.0006108
3462.52	0.0011102
3472.17	0.0010606
3481.81	0.0014805
3491.46	0.002098
3501.1	0.002608
3510.75	0.002858
3520.39	0.002428
3530.04	0.001668
3539.68	0.0014992
3549.32	0.0010017
3558.97	0.00069642
3568.61	0.000252
3578.26	0.00069203
3587.9	0.0011733
3597.55	0.0009801
3607.19	0.0008019
3616.84	0.00054
3626.48	0.0008441
3636.13	0.0007647
3645.77	0.0005921
3655.42	0.000289
3665.06	0.000667501
3674.71	0.000660002
3684.35	0.0009462
3694	0.0010367
3703.64	0.00109
3713.29	0.0005914
3722.93	0.000371
3732.58	0.0005934
3742.22	0.0008517
3751.86	0.0011686
3761.51	0.0009117
3771.15	0.0010394
3780.8	0.0006135
3790.44	0.000948
3800.09	0.0011176
3809.73	0.0006497
3819.38	0.0008729
3829.02	0.000935
3838.67	0.0005878
3848.31	0.000443
3857.96	0.000224
3867.6	0.0008226
3877.25	0
3886.89	0.000436
3896.54	0.00072627
3906.18	0.000374
3915.83	0.0009828
3925.47	0.0008558
3935.12	0.0013267
3944.76	0.0010496
3954.41	0.0008348
3964.05	0.000662384
3973.69	0.00074285
3983.34	0.000663885
3992.98	0.0010764
