Infrared Spectrum: VINYL PERFLUORO BUTYRATE
Formula: C6 H3 F7 O2
CAS: 356-28-5
State: SOLUTION (10% CCl4 FOR 5000-1330, 10% CS2 FOR 1330-625 CM^-^1)
Class: COBLENTZ
Instrument: Not specified, most likely a prism, grating, or hybrid spectrometer.
Sampling: TRANSMISSION
Path length: 0.0120 CM, 0.0117 CM
Resolution: 4
Origin: DOW CHEMICAL COMPANY
MICROMETERS	TRANSMITTANCE
2.021	0.911
2.06211	0.902
2.10323	0.895
2.14434	0.904
2.18546	0.901
2.22657	0.892
2.26769	0.892
2.3088	0.897
2.34992	0.897
2.39103	0.901
2.43215	0.902
2.47326	0.902
2.51438	0.899
2.55549	0.912
2.59661	0.918
2.63772	0.911
2.67884	0.911
2.71995	0.916
2.76107	0.911
2.80218	0.889
2.8433	0.901
2.88441	0.909
2.92553	0.912
2.96664	0.909
3.00776	0.911
3.04887	0.912
3.08999	0.912
3.1311	0.911
3.17222	0.892
3.21333	0.853
3.25445	0.901
3.29556	0.911
3.33668	0.899
3.37779	0.911
3.41891	0.916
3.46002	0.918
3.50114	0.923
3.54225	0.923
3.58337	0.921
3.62448	0.919
3.6656	0.919
3.70671	0.919
3.74783	0.916
3.78894	0.916
3.83006	0.901
3.87117	0.901
3.91229	0.901
3.9534	0.902
3.99452	0.901
4.03563	0.887
4.07675	0.89
4.11786	0.887
4.15898	0.894
4.20009	0.872
4.24121	0.89
4.28232	0.899
4.32344	0.899
4.36455	0.894
4.40567	0.899
4.44678	0.909
4.4879	0.912
4.52901	0.909
4.57013	0.909
4.61124	0.911
4.65236	0.906
4.69347	0.914
4.73459	0.912
4.7757	0.914
4.81682	0.912
4.85793	0.909
4.89905	0.911
4.94016	0.897
4.98128	0.899
5.02239	0.892
5.06351	0.902
5.10462	0.892
5.14574	0.907
5.18685	0.909
5.22797	0.906
5.26908	0.897
5.3102	0.878
5.35131	0.86
5.39243	0.846
5.43354	0.81
5.47466	0.738
5.51577	0.534
5.55689	0.155
5.598	0.051
5.63912	0.464
5.68023	0.737
5.72135	0.769
5.76246	0.831
5.80358	0.849
5.84469	0.878
5.88581	0.882
5.92692	0.889
5.96804	0.854
6.00915	0.728
6.05026	0.506
6.09138	0.556
6.13249	0.807
6.17361	0.815
6.21472	0.79
6.25584	0.703
6.29695	0.626
6.33807	0.602
6.37918	0.568
6.4203	0.501
6.46141	0.476
6.50253	0.566
6.54364	0.636
6.58476	0.68
6.62587	0.73
6.66699	0.802
6.7081	0.836
6.74922	0.861
6.79033	0.877
6.83145	0.878
6.87256	0.887
6.91368	0.883
6.95479	0.875
6.99591	0.872
7.03702	0.861
7.07814	0.848
7.11925	0.844
7.16037	0.829
7.20148	0.771
7.2426	0.721
7.28371	0.655
7.32483	0.498
7.36594	0.404
7.40706	0.501
7.44817	0.578
7.48929	0.539
7.5304	0.409
7.57152	0.189
7.61263	0.08
7.65375	0.059
7.69486	0.085
7.73598	0.107
7.77709	0.141
7.81821	0.182
7.85932	0.109
7.90044	0.04
7.94155	0.061
7.98267	0.088
8.02378	0.046
8.0649	0.008
8.10601	0.006
8.14713	0.01
8.18824	0.006
8.22936	0.008
8.27047	0.015
8.31159	0.037
8.3527	0.037
8.39382	0.018
8.43493	0.032
8.47605	0.078
8.51716	0.182
8.55828	0.252
8.59939	0.249
8.64051	0.163
8.68162	0.059
8.72274	0.01
8.76385	0.032
8.80497	0.1
8.84608	0.187
8.8872	0.165
8.92831	0.127
8.96943	0.093
9.01054	0.1
9.05166	0.261
9.09277	0.397
9.13389	0.406
9.175	0.302
9.21612	0.16
9.25723	0.117
9.29835	0.348
9.33946	0.542
9.38058	0.631
9.42169	0.697
9.46281	0.721
9.50392	0.738
9.54504	0.747
9.58615	0.757
9.62727	0.762
9.66838	0.764
9.7095	0.769
9.75061	0.771
9.79173	0.769
9.83284	0.767
9.87396	0.761
9.91507	0.75
9.95619	0.738
9.9973	0.723
10.0384	0.703
10.0795	0.668
10.1206	0.602
10.1618	0.481
10.2029	0.291
10.244	0.119
10.2851	0.105
10.3262	0.184
10.3673	0.238
10.4084	0.237
10.4496	0.215
10.4907	0.196
10.5318	0.196
10.5729	0.257
10.614	0.332
10.6551	0.325
10.6963	0.189
10.7374	0.209
10.7785	0.424
10.8196	0.587
10.8607	0.65
10.9018	0.682
10.9429	0.696
10.9841	0.699
11.0252	0.691
11.0663	0.655
11.1074	0.595
11.1485	0.51
11.1896	0.395
11.2307	0.237
11.2719	0.203
11.313	0.331
11.3541	0.489
11.3952	0.559
11.4363	0.598
11.4774	0.617
11.5186	0.626
11.5597	0.626
11.6008	0.622
11.6419	0.612
11.683	0.609
11.7241	0.605
11.7652	0.602
11.8064	0.588
11.8475	0.532
11.8886	0.455
11.9297	0.38
11.9708	0.325
12.0119	0.315
12.053	0.395
12.0942	0.534
12.1353	0.598
12.1764	0.645
12.2175	0.667
12.2586	0.694
12.2997	0.718
12.3409	0.733
12.382	0.749
12.4231	0.761
12.4642	0.769
12.5053	0.771
12.5464	0.778
12.5875	0.776
12.6287	0.778
12.6698	0.781
12.7109	0.778
12.752	0.778
12.7931	0.778
12.8342	0.774
12.8753	0.774
12.9165	0.771
12.9576	0.762
12.9987	0.757
13.0398	0.742
13.0809	0.72
13.122	0.687
13.1632	0.61
13.2043	0.515
13.2454	0.455
13.2865	0.457
13.3276	0.467
13.3687	0.465
13.4098	0.445
13.451	0.431
13.4921	0.435
13.5332	0.452
13.5743	0.474
13.6154	0.489
13.6565	0.484
13.6976	0.464
13.7388	0.433
13.7799	0.409
13.821	0.397
13.8621	0.414
13.9032	0.464
13.9443	0.529
13.9854	0.569
14.0266	0.6
14.0677	0.619
14.1088	0.626
14.1499	0.631
14.191	0.633
14.2321	0.631
14.2733	0.622
14.3144	0.612
14.3555	0.6
14.3966	0.59
14.4377	0.58
14.4788	0.573
14.5199	0.571
14.5611	0.573
14.6022	0.578
14.6433	0.578
14.6844	0.578
14.7255	0.573
14.7666	0.571
14.8077	0.568
14.8489	0.563
14.89	0.559
14.9311	0.556
14.9722	0.551
15.0133	0.542
15.0544	0.532
15.0956	0.52
15.1367	0.508
15.1778	0.496
15.2189	0.476
15.26	0.464
15.3011	0.45
15.3422	0.441
15.3834	0.431
15.4245	0.431
15.4656	0.431
15.5067	0.43
15.5478	0.431
15.5889	0.43
15.63	0.43
15.6712	0.43
15.7123	0.431
15.7534	0.431
15.7945	0.428
15.8356	0.423
15.8767	0.424
