Infrared Spectrum: Butyric acid, heptafluoro-, methyl ester
Formula: C5 H3 F7 O2
CAS: 356-24-1
State: LIQUID (NEAT)
Class: COBLENTZ III
Instrument: BAIRD (PRISM)
Instrument parameters: NaCl PRISM
Sampling: TRANSMISSION
Resolution: 2
Origin: WYANDOTTE CHEMICALS CORP.
1/CM	TRANSMITTANCE
626	0.7249
635	0.671
644	0.6522
653	0.6943
662	0.7713
671	0.8281
680	0.8648
689	0.8942
698	0.8643
707	0.8258
716	0.3796
725	0.2824
734	0.4448
743	0.1763
752	0.5629
761	0.4507
770	0.835
779	0.8661
788	0.8747
797	0.8314
806	0.5204
815	0.2399
824	0.8263
833	0.9251
842	0.9379
851	0.9382
860	0.9272
869	0.8986
878	0.819
887	0.8129
896	0.7425
905	0.5263
914	0.2989
923	0.3782
932	0.462
941	0.4694
950	0.4534
959	0.2328
968	0.0644
977	0.0289
986	0.0296
995	0.2354
1004	0.5629
1013	0.702
1022	0.7501
1031	0.7689
1040	0.7685
1049	0.7663
1058	0.7408
1067	0.6489
1076	0.3415
1085	0.0444
1094	0.0375
1103	0.2778
1112	0.4072
1121	0.118
1130	0.0525
1139	0.0356
1148	0.0292
1157	0.0406
1166	0.0636
1175	0.0445
1184	0.0244
1193	0.0202
1202	0.0206
1211	0.0215
1220	0.0209
1229	0.0203
1238	0.0204
1247	0.021
1256	0.0205
1265	0.0313
1274	0.0257
1283	0.0537
1292	0.0924
1301	0.0526
1310	0.0231
1319	0.0272
1328	0.0413
1337	0.1197
1346	0.2233
1355	0.1849
1364	0.1754
1373	0.2342
1382	0.5774
1391	0.7411
1400	0.7705
1409	0.8019
1418	0.8112
1427	0.7998
1436	0.7789
1445	0.6154
1454	0.2009
1463	0.4069
1472	0.4834
1481	0.6717
1490	0.7799
1499	0.819
1508	0.8429
1517	0.8584
1526	0.8561
1535	0.8702
1544	0.8666
1553	0.8796
1562	0.8809
1571	0.8795
1580	0.8756
1589	0.872
1598	0.8933
1607	0.8999
1616	0.902
1625	0.901
1634	0.898
1643	0.8955
1652	0.8887
1661	0.8803
1670	0.8784
1679	0.8798
1688	0.8803
1697	0.8809
1706	0.8821
1715	0.879
1724	0.8554
1733	0.8161
1742	0.7504
1751	0.682
1760	0.5564
1769	0.1271
1778	0.0317
1787	0.0286
1796	0.0458
1805	0.2791
1814	0.6041
1823	0.7132
1832	0.8066
1841	0.8489
1850	0.8846
1859	0.9077
1868	0.9234
1877	0.9358
1886	0.9511
1895	0.9619
1904	0.9661
1913	0.9661
1922	0.9654
1931	0.9642
1940	0.9624
1949	0.9621
1958	0.9632
1967	0.967
1976	0.975
1985	0.9807
1994	0.985
2003	0.9893
2012	0.9915
2021	0.9924
2030	0.9925
2039	0.9928
2048	0.993
2057	0.9923
2066	0.9913
2075	0.9897
2084	0.9877
2093	0.9856
2102	0.9859
2111	0.9881
2120	0.9906
2129	0.9926
2138	0.9936
2147	0.9937
2156	0.9915
2165	0.9889
2174	0.9863
2183	0.9834
2192	0.9803
2201	0.9795
2210	0.9812
2219	0.98
2228	0.9755
2237	0.9709
2246	0.9675
2255	0.9649
2264	0.9629
2273	0.9614
2282	0.96
2291	0.9585
2300	0.9559
2309	0.9528
2318	0.9505
2327	0.9503
2336	0.9512
2345	0.9491
2354	0.9451
2363	0.9404
2372	0.9356
2381	0.9298
2390	0.924
2399	0.9183
2408	0.9181
2417	0.9198
2426	0.9147
2435	0.9092
2444	0.9082
2453	0.9088
2462	0.9098
2471	0.9112
2480	0.9128
2489	0.9159
2498	0.9225
2507	0.9259
2516	0.9276
2525	0.928
2534	0.9278
2543	0.9274
2552	0.9269
2561	0.9256
2570	0.9241
2579	0.9221
2588	0.9182
2597	0.9162
2606	0.9183
2615	0.9246
2624	0.9312
2633	0.9361
2642	0.9381
2651	0.9387
2660	0.9388
2669	0.9388
2678	0.9379
2687	0.937
2696	0.9359
2705	0.9349
2714	0.9341
2723	0.9335
2732	0.9329
2741	0.9327
2750	0.9326
2759	0.9326
2768	0.9325
2777	0.9324
2786	0.9321
2795	0.9311
2804	0.9291
2813	0.9257
2822	0.9233
2831	0.9215
2840	0.9165
2849	0.9015
2858	0.8864
2867	0.8716
2876	0.8582
2885	0.8673
2894	0.8837
2903	0.882
2912	0.8764
2921	0.8697
2930	0.8665
2939	0.8652
2948	0.8641
2957	0.8619
2966	0.8533
2975	0.7928
2984	0.7328
2993	0.6729
3002	0.6665
3011	0.7322
3020	0.7991
3029	0.8228
3038	0.8221
3047	0.8237
3056	0.8378
3065	0.8676
3074	0.8825
3083	0.8957
3092	0.907
3101	0.9211
3110	0.9304
3119	0.9356
3128	0.94
3137	0.9434
3146	0.9458
3155	0.948
3164	0.9493
3173	0.9504
3182	0.9507
3191	0.9511
3200	0.9514
3209	0.9517
3218	0.9521
3227	0.9523
3236	0.9526
3245	0.953
3254	0.9536
3263	0.9543
3272	0.9549
3281	0.9557
3290	0.9569
3299	0.9583
3308	0.9597
3317	0.9613
3326	0.963
3335	0.9651
3344	0.9673
3353	0.9696
3362	0.9709
3371	0.9716
3380	0.9721
3389	0.9719
3398	0.9716
3407	0.9722
3416	0.9738
3425	0.9752
3434	0.977
3443	0.979
3452	0.981
3461	0.983
3470	0.9847
3479	0.9857
3488	0.9848
3497	0.9832
3506	0.981
3515	0.977
3524	0.9732
3533	0.9698
3542	0.9665
3551	0.9632
3560	0.9594
3569	0.9557
3578	0.9543
3587	0.9541
3596	0.9547
3605	0.9564
3614	0.9597
3623	0.9649
3632	0.9711
3641	0.9773
3650	0.9829
3659	0.9899
3668	0.995
3677	0.9983
3686	1.0001
3695	1.0017
3704	1.0032
3713	1.004
3722	1.0048
3731	1.0056
3740	1.0063
3749	1.0068
3758	1.0073
3767	1.0078
3776	1.0081
3785	1.0083
3794	1.0086
3803	1.0087
3812	1.009
3821	1.0091
3830	1.0093
3839	1.0095
3848	1.0098
3857	1.01
3866	1.0103
3875	1.0105
3884	1.0105
3893	1.0104
3902	1.0101
3911	1.01
3920	1.0097
3929	1.0102
3938	1.0113
3947	1.012
3956	1.0127
3965	1.0126
3974	1.0125
3983	1.0123
3992	1.0122
