Infrared Spectrum: RHODANINE, 5-CYCLOHEXYLIDENE-3-PHENYL
Formula: C15 H15 N O S2
CAS: 35610-74-3
State: SOLID (KBr PELLET)
Melting point: 124 C
Class: COBLENTZ
Instrument: Not specified, most likely a prism, grating, or hybrid spectrometer.
Sampling: TRANSMISSION
Resolution: 4
Origin: TENNESSEE EASTMAN COMPANY, RESEARCH LABORATORIES
MICROMETERS	TRANSMITTANCE
2.034	0.727
2.07497	0.732
2.11594	0.739
2.1569	0.751
2.19787	0.758
2.23884	0.761
2.27981	0.766
2.32077	0.77
2.36174	0.778
2.40271	0.785
2.44368	0.787
2.48465	0.795
2.52561	0.799
2.56658	0.802
2.60755	0.809
2.64852	0.814
2.68948	0.818
2.73045	0.816
2.77142	0.785
2.81239	0.77
2.85335	0.749
2.89432	0.74
2.93529	0.74
2.97626	0.778
3.01723	0.797
3.05819	0.806
3.09916	0.825
3.14013	0.831
3.1811	0.843
3.22206	0.845
3.26303	0.797
3.304	0.837
3.34497	0.751
3.38594	0.382
3.4269	0.753
3.46787	0.629
3.50884	0.843
3.54981	0.878
3.59077	0.891
3.63174	0.905
3.67271	0.912
3.71368	0.914
3.75465	0.914
3.79561	0.919
3.83658	0.919
3.87755	0.919
3.91852	0.924
3.95948	0.936
4.00045	0.939
4.04142	0.939
4.08239	0.939
4.12335	0.941
4.16432	0.941
4.20529	0.943
4.24626	0.948
4.28723	0.948
4.32819	0.948
4.36916	0.948
4.41013	0.95
4.4511	0.95
4.49206	0.951
4.53303	0.953
4.574	0.951
4.61497	0.955
4.65594	0.957
4.6969	0.958
4.73787	0.958
4.77884	0.958
4.81981	0.958
4.86077	0.96
4.90174	0.962
4.94271	0.965
4.98368	0.97
5.02465	0.965
5.06561	0.962
5.10658	0.957
5.14755	0.957
5.18852	0.96
5.22948	0.962
5.27045	0.955
5.31142	0.955
5.35239	0.958
5.39335	0.958
5.43432	0.957
5.47529	0.955
5.51626	0.951
5.55723	0.936
5.59819	0.927
5.63916	0.929
5.68013	0.929
5.7211	0.881
5.76206	0.62
5.80303	0.066
5.844	0.301
5.88497	0.74
5.92594	0.801
5.9669	0.813
6.00787	0.854
6.04884	0.864
6.08981	0.857
6.13077	0.838
6.17174	0.648
6.21271	0.259
6.25368	0.49
6.29465	0.783
6.33561	0.869
6.37658	0.902
6.41755	0.914
6.45852	0.922
6.49948	0.922
6.54045	0.912
6.58142	0.838
6.62239	0.662
6.66335	0.566
6.70432	0.847
6.74529	0.888
6.78626	0.867
6.82723	0.711
6.86819	0.653
6.90916	0.722
6.95013	0.797
6.9911	0.85
7.03206	0.891
7.07303	0.912
7.114	0.91
7.15497	0.905
7.19594	0.888
7.2369	0.837
7.27787	0.785
7.31884	0.66
7.35981	0.322
7.40077	0.217
7.44174	0.514
7.48271	0.718
7.52368	0.778
7.56465	0.723
7.60561	0.739
7.64658	0.807
7.68755	0.816
7.72852	0.703
7.76948	0.727
7.81045	0.615
7.85142	0.391
7.89239	0.248
7.93335	0.2
7.97432	0.128
8.01529	0.036
8.05626	0.036
8.09723	0.096
8.13819	0.221
8.17916	0.523
8.22013	0.66
8.2611	0.78
8.30206	0.825
8.34303	0.828
8.384	0.813
8.42497	0.682
8.46594	0.451
8.5069	0.428
8.54787	0.341
8.58884	0.226
8.62981	0.277
8.67077	0.602
8.71174	0.746
8.75271	0.766
8.79368	0.735
8.83465	0.771
8.87561	0.819
8.91658	0.835
8.95755	0.818
8.99852	0.675
9.03948	0.533
9.08045	0.756
9.12142	0.804
9.16239	0.814
9.20335	0.823
9.24432	0.806
9.28529	0.771
9.32626	0.804
9.36723	0.83
9.40819	0.806
9.44916	0.771
9.49013	0.789
9.5311	0.842
9.57206	0.855
9.61303	0.859
9.654	0.849
9.69497	0.802
9.73594	0.794
9.7769	0.794
9.81787	0.806
9.85884	0.847
9.89981	0.85
9.94077	0.847
9.98174	0.783
10.0227	0.684
10.0637	0.732
10.1046	0.804
10.1456	0.842
10.1866	0.862
10.2275	0.876
10.2685	0.881
10.3095	0.891
10.3505	0.902
10.3914	0.91
10.4324	0.917
10.4734	0.926
10.5143	0.929
10.5553	0.933
10.5963	0.934
10.6372	0.934
10.6782	0.936
10.7192	0.936
10.7601	0.936
10.8011	0.922
10.8421	0.905
10.883	0.9
10.924	0.9
10.965	0.903
11.0059	0.891
11.0469	0.902
11.0879	0.921
11.1288	0.924
11.1698	0.914
11.2108	0.819
11.2517	0.783
11.2927	0.821
11.3337	0.878
11.3746	0.917
11.4156	0.934
11.4566	0.939
11.4975	0.943
11.5385	0.945
11.5795	0.939
11.6205	0.879
11.6614	0.843
11.7024	0.861
11.7434	0.902
11.7843	0.921
11.8253	0.924
11.8663	0.893
11.9072	0.775
11.9482	0.668
11.9892	0.663
12.0301	0.74
12.0711	0.78
12.1121	0.807
12.153	0.84
12.194	0.854
12.235	0.869
12.2759	0.881
12.3169	0.902
12.3579	0.91
12.3988	0.915
12.4398	0.919
12.4808	0.921
12.5217	0.921
12.5627	0.921
12.6037	0.921
12.6446	0.921
12.6856	0.919
12.7266	0.903
12.7675	0.862
12.8085	0.807
12.8495	0.789
12.8905	0.802
12.9314	0.85
12.9724	0.871
13.0134	0.885
13.0543	0.886
13.0953	0.859
13.1363	0.768
13.1772	0.653
13.2182	0.614
13.2592	0.72
13.3001	0.801
13.3411	0.838
13.3821	0.847
13.423	0.799
13.464	0.704
13.505	0.555
13.5459	0.346
13.5869	0.236
13.6279	0.272
13.6688	0.523
13.7098	0.704
13.7508	0.801
13.7917	0.849
13.8327	0.873
13.8737	0.89
13.9146	0.905
13.9556	0.915
13.9966	0.924
14.0375	0.929
14.0785	0.934
14.1195	0.936
14.1605	0.939
14.2014	0.938
14.2424	0.939
14.2834	0.929
14.3243	0.895
14.3653	0.843
14.4063	0.766
14.4472	0.696
14.4882	0.653
14.5292	0.646
14.5701	0.718
14.6111	0.806
14.6521	0.873
14.693	0.909
14.734	0.931
14.775	0.945
14.8159	0.953
14.8569	0.955
14.8979	0.955
14.9388	0.953
14.9798	0.926
15.0208	0.876
15.0617	0.852
15.1027	0.84
15.1437	0.838
15.1846	0.845
15.2256	0.862
15.2666	0.873
15.3075	0.879
15.3485	0.883
15.3895	0.883
15.4305	0.883
15.4714	0.881
15.5124	0.881
15.5534	0.876
15.5943	0.873
15.6353	0.859
15.6763	0.855
15.7172	0.849
15.7582	0.837
15.7992	0.823
15.8401	0.806
15.8811	0.782
15.9221	0.771
15.963	0.758
16.004	0.754
