Infrared Spectrum: Bis(phenylthio)methane
Formula: C 13 H 12 S 2
CAS: 3561-67-9
State: gas
Origin: EPA-IR VAPOR PHASE LIBRARY
1/CM	ABSORBANCE
549.8	0.001032
559.445	0.0007797
569.09	0.0008412
578.735	0.0009629
588.38	0.000522458
598.025	0.0011137
607.67	0.0010736
617.315	0.001721
626.96	0.002441
636.605	0.003001
646.251	0.005301
655.896	0.009901
665.541	0.019201
675.186	0.035301
684.831	0.066001
694.476	0.077651
704.121	0.065261
713.766	0.059351
723.411	0.073361
733.056	0.101701
742.701	0.107951
752.346	0.054701
761.991	0.021461
771.636	0.009281
781.281	0.005071
790.926	0.003921
800.571	0.004571
810.216	0.008231
819.861	0.015811
829.507	0.014451
839.152	0.007081
848.797	0.004131
858.442	0.003181
868.087	0.002961
877.732	0.002841
887.377	0.003091
897.022	0.003751
906.667	0.005081
916.312	0.004571
925.957	0.002641
935.602	0.002061
945.247	0.001921
954.892	0.001911
964.537	0.002091
974.182	0.001961
983.827	0.002091
993.472	0.003541
1003.12	0.007001
1012.76	0.009281
1022.41	0.035371
1032.05	0.017171
1041.7	0.005071
1051.34	0.006711
1060.99	0.010411
1070.63	0.012841
1080.28	0.022631
1089.92	0.024501
1099.57	0.011901
1109.21	0.010041
1118.86	0.008161
1128.5	0.005681
1138.15	0.004321
1147.79	0.003871
1157.44	0.004261
1167.08	0.006251
1176.73	0.012291
1186.37	0.032861
1196.02	0.069171
1205.66	0.026611
1215.31	0.006531
1224.95	0.004361
1234.6	0.003481
1244.24	0.002701
1253.89	0.002291
1263.53	0.002361
1273.18	0.002441
1282.82	0.002991
1292.47	0.004251
1302.11	0.004941
1311.76	0.004241
1321.4	0.003661
1331.05	0.003001
1340.69	0.002431
1350.34	0.002531
1359.98	0.003221
1369.63	0.004761
1379.27	0.007151
1388.92	0.008691
1398.56	0.010031
1408.21	0.009481
1417.85	0.008551
1427.5	0.014421
1437.14	0.021921
1446.79	0.020231
1456.43	0.017911
1466.08	0.026151
1475.73	0.060251
1485.37	0.052891
1495.02	0.014001
1504.66	0.006161
1514.31	0.004381
1523.95	0.003791
1533.6	0.003641
1543.24	0.004411
1552.89	0.006541
1562.53	0.011861
1572.18	0.025661
1581.82	0.044441
1591.47	0.027121
1601.11	0.010251
1610.76	0.005791
1620.4	0.004381
1630.05	0.003761
1639.69	0.003611
1649.34	0.003401
1658.98	0.002761
1668.63	0.002241
1678.27	0.001841
1687.92	0.001791
1697.56	0.002031
1707.21	0.002371
1716.85	0.002541
1726.5	0.002611
1736.14	0.002801
1745.79	0.002791
1755.43	0.002411
1765.08	0.002721
1774.72	0.004051
1784.37	0.005451
1794.01	0.005591
1803.66	0.003951
1813.3	0.002981
1822.95	0.002501
1832.59	0.002421
1842.24	0.002801
1851.88	0.003351
1861.53	0.004341
1871.17	0.005341
1880.82	0.004951
1890.46	0.003501
1900.11	0.002531
1909.75	0.002481
1919.4	0.003361
1929.04	0.004491
1938.69	0.005911
1948.33	0.006711
1957.98	0.005221
1967.62	0.002531
1977.27	0.0014756
1986.91	0.0011198
1996.56	0.0009139
2006.2	0.0008395
2015.85	0.0008673
2025.49	0.0008789
2035.14	0.0006866
2044.78	0.0006893
2054.43	0.0007174
2064.07	0.0007058
2073.72	0.0007458
2083.36	0.0007354
2093.01	0.0008184
2102.65	0.0007265
2112.3	0.0007365
2121.94	0.0006481
2131.59	0.0006155
2141.23	0.0006306
2150.88	0.0007158
2160.52	0.0006931
2170.17	0.000737
2179.81	0.0007547
2189.46	0.0007665
2199.1	0.0008185
2208.75	0.0008249
2218.39	0.0008187
2228.04	0.0008279
2237.68	0.00087
2247.33	0.0008875
2256.97	0.0008943
2266.62	0.0008743
2276.26	0.0009381
2285.91	0.0008086
2295.55	0.0008451
2305.2	0.0011302
2314.84	0.001781
2324.49	0.0013766
2334.13	0.0012558
2343.78	0.001172
2353.42	0.0009862
2363.07	0.0008506
2372.72	0.0008017
2382.36	0.000899
2392.01	0.0009654
2401.65	0.0008763
2411.3	0.0008468
2420.94	0.0008111
2430.59	0.0006441
2440.23	0.0005635
2449.88	0.0004996
2459.52	0.00056802
2469.17	0.00054853
2478.81	0.00055128
2488.46	0.00056044
2498.1	0.00058136
2507.75	0.00057601
2517.39	0.00059532
2527.04	0.0006361
2536.68	0.0007162
2546.33	0.0007133
2555.97	0.0008443
2565.62	0.0010213
2575.26	0.0011988
2584.91	0.0014507
2594.55	0.0014086
2604.2	0.0011278
2613.84	0.0008899
2623.49	0.000666
2633.13	0.00058766
2642.78	0.00060044
2652.42	0.0006504
2662.07	0.0008609
2671.71	0.00076
2681.36	0.0005627
2691	0.00051862
2700.65	0.000408
2710.29	0.000287
2719.94	0.000372
2729.58	0.000279
2739.23	0.000346
2748.87	0.000396
2758.52	0.0004315
2768.16	0.00045
2777.81	0.0005073
2787.45	0.00045
2797.1	0.000387
2806.74	0.0005047
2816.39	0.00057308
2826.03	0.00060977
2835.68	0.0006822
2845.32	0.0007021
2854.97	0.0007427
2864.61	0.0008667
2874.26	0.0009144
2883.9	0.0010592
2893.55	0.0011956
2903.19	0.001641
2912.84	0.003321
2922.48	0.007811
2932.13	0.011421
2941.77	0.006781
2951.42	0.002671
2961.06	0.002251
2970.71	0.002811
2980.35	0.003731
2990	0.005081
2999.64	0.007711
3009.29	0.011551
3018.93	0.016521
3028.58	0.017141
3038.22	0.013861
3047.87	0.019021
3057.51	0.041011
3067.16	0.080591
3076.8	0.067471
3086.45	0.048511
3096.09	0.023111
3105.74	0.008491
3115.38	0.003931
3125.03	0.002651
3134.67	0.002731
3144.32	0.003001
3153.96	0.002271
3163.61	0.0011655
3173.25	0.0007376
3182.9	0.000639
3192.54	0.0003
3202.19	0.000377
3211.83	0.000227
3221.48	7.8e-05
3231.12	0.000238
3240.77	0.000232
3250.41	0.000287
3260.06	0.000156
3269.7	0.000306
3279.35	0.000246
3289	0.000165
3298.64	0.000172
3308.29	0.000242
3317.93	0.000116
3327.58	0.000252
3337.22	0.000297
3346.87	0.000278
3356.51	5.9e-05
3366.16	0.0003
3375.8	0.000295
3385.45	0.000228
3395.09	0.000154
3404.74	0.000367
3414.38	0.000233
3424.03	0.000124
3433.67	0.000238
3443.32	0.00038
3452.96	0.000343
3462.61	0.000297
3472.25	0.000318
3481.9	0.000161
3491.54	0.000279
3501.19	0.000238
3510.83	5.8e-05
3520.48	0.0004318
3530.12	0.000224
3539.77	0.000322
3549.41	0.000301
3559.06	0.000323
3568.7	0.000175
3578.35	0.000365
3587.99	9.3e-05
3597.64	0.000401
3607.28	0.000319
3616.93	0.000356
3626.57	0.00056779
3636.22	0.00054448
3645.86	0.0004588
3655.51	0.000274
3665.15	0.0004245
3674.8	0.00060529
3684.44	0.0008133
3694.09	0.0009988
3703.73	0.0008465
3713.38	0.00056762
3723.02	0.000392
3732.67	0.000349
3742.31	0.00054762
3751.96	0.0007911
3761.6	0.0009225
3771.25	0.0008058
3780.89	0.0004482
3790.54	0.000521933
3800.18	0.0004325
3809.83	0.000216
3819.47	0.000212
3829.12	0.000133
3838.76	0.000207
3848.41	0.000105
3858.05	8.8e-05
3867.7	0.000208
3877.34	0.000156
3886.99	0.000158
3896.63	0.000195
3906.28	0.000152
3915.92	0.000194
3925.57	0.000178
3935.21	0.000132
3944.86	0.000289
3954.5	0.000325
3964.15	0.00023
3973.79	0.000194
3983.44	0.000312
3993.08	0.0004436
