Infrared Spectrum: 2-Phenoxynicotinic acid
Formula: C 12 H 9 N O 3
CAS: 35620-71-4
State: gas
Origin: EPA-IR VAPOR PHASE LIBRARY
1/CM	ABSORBANCE
549.8	0.004306
559.445	0.005236
569.09	0.005916
578.735	0.006096
588.38	0.005976
598.025	0.004496
607.67	0.003706
617.315	0.003926
626.96	0.006636
636.605	0.007386
646.251	0.004566
655.896	0.003496
665.541	0.003396
675.186	0.003786
684.831	0.006396
694.476	0.005376
704.121	0.003636
713.766	0.004466
723.411	0.008226
733.056	0.011746
742.701	0.009036
752.346	0.007326
761.991	0.008156
771.636	0.012536
781.281	0.012076
790.926	0.009836
800.571	0.006846
810.216	0.005076
819.861	0.004426
829.507	0.002756
839.152	0.001866
848.797	0.001666
858.442	0.001526
868.087	0.001806
877.732	0.003476
887.377	0.008986
897.022	0.009956
906.667	0.006546
916.312	0.002216
925.957	0.0013726
935.602	0.0011479
945.247	0.0009507
954.892	0.0010391
964.537	0.0011195
974.182	0.001476
983.827	0.0012723
993.472	0.0013964
1003.12	0.002246
1012.76	0.003296
1022.41	0.006106
1032.05	0.007466
1041.7	0.012456
1051.34	0.010486
1060.99	0.008136
1070.63	0.008036
1080.28	0.006796
1089.92	0.006246
1099.57	0.006666
1109.21	0.013276
1118.86	0.018306
1128.5	0.010806
1138.15	0.006516
1147.79	0.007306
1157.44	0.013786
1167.08	0.014466
1176.73	0.018496
1186.37	0.022886
1196.02	0.024406
1205.66	0.024036
1215.31	0.020116
1224.95	0.026406
1234.6	0.036406
1244.24	0.040856
1253.89	0.032616
1263.53	0.021896
1273.18	0.025046
1282.82	0.031196
1292.47	0.026646
1302.11	0.020846
1311.76	0.017716
1321.4	0.015616
1331.05	0.014646
1340.69	0.015666
1350.34	0.018086
1359.98	0.020276
1369.63	0.021786
1379.27	0.019876
1388.92	0.014846
1398.56	0.012976
1408.21	0.023566
1417.85	0.059066
1427.5	0.077256
1437.14	0.039656
1446.79	0.012936
1456.43	0.009886
1466.08	0.007276
1475.73	0.007466
1485.37	0.018836
1495.02	0.024456
1504.66	0.007346
1514.31	0.003676
1523.95	0.002856
1533.6	0.002916
1543.24	0.003806
1552.89	0.006996
1562.53	0.016296
1572.18	0.032146
1581.82	0.033996
1591.47	0.027356
1601.11	0.015966
1610.76	0.005826
1620.4	0.003136
1630.05	0.002226
1639.69	0.001736
1649.34	0.001566
1658.98	0.0013998
1668.63	0.001476
1678.27	0.001636
1687.92	0.001936
1697.56	0.002686
1707.21	0.003736
1716.85	0.005066
1726.5	0.007416
1736.14	0.012586
1745.79	0.028166
1755.43	0.031326
1765.08	0.034646
1774.72	0.063636
1784.37	0.037146
1794.01	0.011076
1803.66	0.006216
1813.3	0.003266
1822.95	0.002106
1832.59	0.001836
1842.24	0.001726
1851.88	0.001456
1861.53	0.0012444
1871.17	0.0011319
1880.82	0.0010257
1890.46	0.0010356
1900.11	0.0011413
1909.75	0.0013024
1919.4	0.0014287
1929.04	0.001516
1938.69	0.001476
1948.33	0.0014019
1957.98	0.0011861
1967.62	0.0009825
1977.27	0.0009865
1986.91	0.0008628
1996.56	0.0007963
2006.2	0.0007499
2015.85	0.0007717
2025.49	0.0006419
2035.14	0.0006802
2044.78	0.000746
2054.43	0.0007951
2064.07	0.0008026
2073.72	0.0007318
2083.36	0.0006938
2093.01	0.0006829
2102.65	0.0005622
2112.3	0.000562
2121.94	0.00054271
2131.59	0.0005846
2141.23	0.0005831
2150.88	0.000705
2160.52	0.0007435
2170.17	0.0005635
2179.81	0.00052179
2189.46	0.00046833
2199.1	0.000551
2208.75	0.00047908
2218.39	0.0005541
2228.04	0.0005903
2237.68	0.00051545
2247.33	0.00047924
2256.97	0.00046825
2266.62	0.0004175
2276.26	0.0003893
2285.91	0.00053803
2295.55	0.0006045
2305.2	0.0007037
2314.84	0.0009115
2324.49	0.0007689
2334.13	0.0007296
2343.78	0.0006664
2353.42	0.0007436
2363.07	0.0007355
2372.72	0.000835
2382.36	0.000619
2392.01	0.0006505
2401.65	0.0006475
2411.3	0.00054477
2420.94	0.0006287
2430.59	0.00051503
2440.23	0.0005586
2449.88	0.00052509
2459.52	0.00052147
2469.17	0.0005583
2478.81	0.000609
2488.46	0.0006574
2498.1	0.0007141
2507.75	0.0005791
2517.39	0.0006237
2527.04	0.0006249
2536.68	0.0005641
2546.33	0.0005461
2555.97	0.0005178
2565.62	0.00046548
2575.26	0.00049109
2584.91	0.0004169
2594.55	0.0003603
2604.2	0.000263
2613.84	0.0004192
2623.49	0.00032
2633.13	0.0003524
2642.78	0.0003862
2652.42	0.000263
2662.07	0.00034
2671.71	0.0003975
2681.36	0.0003788
2691	0.00045885
2700.65	0.0004099
2710.29	0.0003647
2719.94	0.0003607
2729.58	0.0003887
2739.23	0.0003535
2748.87	0.000263
2758.52	0.000272
2768.16	0.000291
2777.81	0.0003667
2787.45	0.0003616
2797.1	0.000282
2806.74	0.000189
2816.39	0.0003473
2826.03	0.0003
2835.68	0.0003695
2845.32	0.0003542
2854.97	0.0003468
2864.61	0.000254
2874.26	0.000243
2883.9	0.0003946
2893.55	0.0003979
2903.19	0.000345
2912.84	0.000292
2922.48	0.000305
2932.13	0.00022
2941.77	0.000146
2951.42	0.000166
2961.06	0.000275
2970.71	0.000308
2980.35	0.00042
2990	0.0007864
2999.64	0.0006811
3009.29	0.0009645
3018.93	0.0012421
3028.58	0.001956
3038.22	0.003126
3047.87	0.005296
3057.51	0.006266
3067.16	0.005736
3076.8	0.005966
3086.45	0.006266
3096.09	0.003656
3105.74	0.002226
3115.38	0.0011722
3125.03	0.0008863
3134.67	0.0007207
3144.32	0.00050725
3153.96	0.0005763
3163.61	0.0003584
3173.25	0.000146
3182.9	0.000262
3192.54	0.0003653
3202.19	0.000264
3211.83	0.000199
3221.48	0.000166
3231.12	0.000198
3240.77	0.000268
3250.41	0.000341
3260.06	0.0004302
3269.7	0.00051743
3279.35	0.00047416
3289	0.0004173
3298.64	0.000305
3308.29	0.00026
3317.93	0.000223
3327.58	0.00044308
3337.22	0.00048931
3346.87	0.0006752
3356.51	0.000916
3366.16	0.000972
3375.8	0.00123
3385.45	0.001516
3395.09	0.001596
3404.74	0.002076
3414.38	0.002776
3424.03	0.004126
3433.67	0.006716
3443.32	0.010106
3452.96	0.012556
3462.61	0.012176
3472.25	0.010236
3481.9	0.007896
3491.54	0.005796
3501.19	0.004056
3510.83	0.002876
3520.48	0.002326
3530.12	0.001936
3539.77	0.001656
3549.41	0.001716
3559.06	0.004336
3568.7	0.011066
3578.35	0.008946
3587.99	0.003436
3597.64	0.001056
3607.28	0.0007735
3616.93	0.0005598
3626.57	0.000454194
3636.22	0.0005474
3645.86	0.0003712
3655.51	0.000278
3665.15	0.0003917
3674.8	0.000421
3684.44	0.000271
3694.09	0.000344
3703.73	0.000307
3713.38	0.000323
3723.02	0.0003779
3732.67	0.000281
3742.31	0.000248
3751.96	0.0003901
3761.6	0.000152
3771.25	0.000186
3780.89	0.0003584
3790.54	0.0003495
3800.18	0.000142
3809.83	0.000348
3819.47	0.000104
3829.12	0.000178
3838.76	0.0003471
3848.41	0.000258
3858.05	0.0003541
3867.7	0.0003508
3877.34	0.000121
3886.99	0.0003649
3896.63	0.0003764
3906.28	0.00044366
3915.92	0.000148
3925.57	0.000314
3935.21	0.0003491
3944.86	0.000192
3954.5	0.000198
3964.15	0.0003637
3973.79	0.000323
3983.44	0.000224
3993.08	0.000134
