Infrared Spectrum: ANHALONINE HYDROCHLORIDE
Formula: C12 H16 Cl N O3
CAS: 35646-05-0
State: SOLID (KCl DISC) VS KCl
Melting point: 255 C DECOMP.
Class: COBLENTZ III
Instrument: PERKIN-ELMER 21 (GRATING)
Instrument parameters: FILTER AT ABOUT 10 MICRONS
Sampling: TRANSMISSION
Resolution: 2
1/CM	TRANSMITTANCE
4000	0.5223
3991	0.5239
3982	0.5256
3973	0.5272
3964	0.5289
3955	0.5306
3946	0.5323
3937	0.534
3928	0.5357
3919	0.5374
3910	0.5394
3901	0.5412
3892	0.5432
3883	0.545
3874	0.547
3865	0.5489
3856	0.5509
3847	0.5529
3838	0.5548
3829	0.5568
3820	0.5588
3811	0.5609
3802	0.563
3793	0.565
3784	0.567
3775	0.5692
3766	0.5712
3757	0.5726
3748	0.574
3739	0.5754
3730	0.5769
3721	0.5783
3712	0.5798
3703	0.581
3694	0.5822
3685	0.5833
3676	0.5845
3667	0.5857
3658	0.5869
3649	0.5877
3640	0.5885
3631	0.5892
3622	0.5899
3613	0.59
3604	0.59
3595	0.5887
3586	0.5864
3577	0.5843
3568	0.5804
3559	0.5757
3550	0.571
3541	0.566
3532	0.5607
3523	0.5553
3514	0.5498
3505	0.5438
3496	0.5377
3487	0.5315
3478	0.525
3469	0.5183
3460	0.5123
3451	0.5074
3442	0.5027
3433	0.4987
3424	0.4948
3415	0.492
3406	0.49
3397	0.4891
3388	0.4886
3379	0.4886
3370	0.4898
3361	0.4952
3352	0.504
3343	0.5153
3334	0.5241
3325	0.5323
3316	0.5404
3307	0.5473
3298	0.554
3289	0.5607
3280	0.5675
3271	0.5752
3262	0.5838
3253	0.5918
3244	0.5989
3235	0.606
3226	0.6137
3217	0.6214
3208	0.628
3199	0.6339
3190	0.6389
3181	0.6441
3172	0.6515
3163	0.6593
3154	0.6668
3145	0.6711
3136	0.6741
3127	0.6771
3118	0.6792
3109	0.681
3100	0.6822
3091	0.6828
3082	0.6825
3073	0.6786
3064	0.6696
3055	0.6548
3046	0.6305
3037	0.6078
3028	0.5833
3019	0.5385
3010	0.5215
3001	0.4814
2992	0.4293
2983	0.3798
2974	0.33
2965	0.2799
2956	0.2464
2947	0.2092
2938	0.1869
2929	0.1754
2920	0.1712
2911	0.1704
2902	0.1704
2893	0.1733
2884	0.2
2875	0.2268
2866	0.2531
2857	0.2585
2848	0.2545
2839	0.2422
2830	0.2267
2821	0.2144
2812	0.1985
2803	0.1472
2794	0.1316
2785	0.1
2776	0.0725
2767	0.0591
2758	0.0515
2749	0.0483
2740	0.0465
2731	0.0473
2722	0.0564
2713	0.0674
2704	0.0729
2695	0.0757
2686	0.0769
2677	0.0779
2668	0.0784
2659	0.0788
2650	0.0791
2641	0.0795
2632	0.0798
2623	0.0835
2614	0.1046
2605	0.131
2596	0.1576
2587	0.1798
2578	0.18
2569	0.2014
2560	0.2266
2551	0.223
2542	0.208
2533	0.2333
2524	0.2645
2515	0.2484
2506	0.1792
2497	0.1534
2488	0.1565
2479	0.1584
2470	0.1563
2461	0.1687
2452	0.197
2443	0.2255
2434	0.2502
2425	0.2884
2416	0.3284
2407	0.3688
2398	0.4095
2389	0.4499
2380	0.463
2371	0.4667
2362	0.471
2353	0.4753
2344	0.48
2335	0.485
2326	0.5019
2317	0.5175
2308	0.5032
2299	0.4916
2290	0.5234
2281	0.5446
2272	0.5656
2263	0.582
2254	0.5948
2245	0.606
2236	0.6168
2227	0.6269
2218	0.634
2209	0.6396
2200	0.6448
2191	0.6485
2182	0.6475
2173	0.6394
2164	0.6367
2155	0.6401
2146	0.6454
2137	0.6418
2128	0.6115
2119	0.6128
2110	0.6492
2101	0.6743
2092	0.6771
2083	0.6818
2074	0.69
2065	0.6993
2056	0.7048
2047	0.7055
2038	0.704
2029	0.7021
2020	0.7001
2011	0.6947
2002	0.6853
1993	0.6896
1984	0.7087
1975	0.7131
1966	0.7122
1957	0.7251
1948	0.739
1939	0.7449
1930	0.7436
1921	0.7439
1912	0.7445
1903	0.7394
1894	0.7364
1885	0.7443
1876	0.7542
1867	0.7585
1858	0.7595
1849	0.7606
1840	0.764
1831	0.7685
1822	0.7697
1813	0.7833
1804	0.7903
1795	0.7946
1786	0.7919
1777	0.7856
1768	0.7864
1759	0.795
1750	0.8028
1741	0.8046
1732	0.794
1723	0.7882
1714	0.7797
1705	0.7715
1696	0.7728
1687	0.773
1678	0.7671
1669	0.7415
1660	0.6611
1651	0.32
1642	0.07
1633	0.3131
1624	0.5708
1615	0.5971
1606	0.3332
1597	0.4289
1588	0.6674
1579	0.7244
1570	0.7528
1561	0.7765
1552	0.7838
1543	0.7825
1534	0.74
1525	0.5396
1516	0.1149
1507	0.2229
1498	0.465
1489	0.6153
1480	0.6575
1471	0.3916
1462	0.0673
1453	0.1095
1444	0.0741
1435	0.0423
1426	0.1751
1417	0.3429
1408	0.408
1399	0.5412
1390	0.5371
1381	0.4395
1372	0.1463
1363	0.3027
1354	0.5487
1345	0.264
1336	0.4285
1327	0.1685
1318	0.4694
1309	0.4322
1300	0.0754
1291	0.3828
1282	0.5948
1273	0.6748
1264	0.7284
1255	0.7376
1246	0.6052
1237	0.7294
1228	0.7401
1219	0.6904
1210	0.3703
1201	0.1498
1192	0.5774
1183	0.4586
1174	0.6388
1165	0.618
1156	0.1949
1147	0.0304
1138	0.0453
1129	0.2439
1120	0.1204
1111	0.4459
1102	0.2058
1093	0.4178
1084	0.101
1075	0.4566
1066	0.6083
1057	0.6491
1048	0.3382
1039	0.1108
1030	0.3825
1021	0.1479
1012	0.5417
1003	0.4965
994	0.3998
985	0.5535
976	0.6714
967	0.5939
958	0.4295
949	0.6891
940	0.6868
931	0.2998
922	0.476
913	0.6687
904	0.7406
895	0.6472
886	0.333
877	0.5012
868	0.7167
859	0.7542
850	0.4301
841	0.5416
832	0.6753
823	0.6671
814	0.7583
805	0.7864
796	0.8012
787	0.8091
778	0.8137
769	0.823
760	0.8294
751	0.8146
742	0.7604
733	0.7983
724	0.8225
715	0.816
706	0.5732
697	0.7901
688	0.8238
679	0.7493
670	0.8084
