Infrared Spectrum: 5-NITROSO-8-QUINOLINOL
Formula: C9 H6 N2 O2
CAS: 3565-26-2
State: SOLID (MINERAL OIL MULL)
Melting point: 240-245 C (DECOMPOSE)
Class: COBLENTZ
Instrument: Not specified, most likely a prism, grating, or hybrid spectrometer.
Sampling: TRANSMISSION
Resolution: 4
Origin: WYANDOTTE CHEMICALS CORP., WYANDOTTE, MICHIGAN, USA
MICROMETERS	TRANSMITTANCE
2.012	0.231
2.04917	0.228
2.08634	0.248
2.1235	0.227
2.16067	0.23
2.19784	0.222
2.23501	0.233
2.27218	0.23
2.30934	0.228
2.34651	0.228
2.38368	0.231
2.42085	0.241
2.45802	0.245
2.49519	0.248
2.53235	0.248
2.56952	0.247
2.60669	0.251
2.64386	0.261
2.68103	0.27
2.71819	0.278
2.75536	0.281
2.79253	0.292
2.8297	0.297
2.86687	0.298
2.90403	0.3
2.9412	0.301
2.97837	0.306
3.01554	0.318
3.05271	0.309
3.08988	0.298
3.12704	0.281
3.16421	0.253
3.20138	0.223
3.23855	0.205
3.27572	0.16
3.31288	0.141
3.35005	0.073
3.38722	0.026
3.42439	0.024
3.46156	0.023
3.49872	0.026
3.53589	0.031
3.57306	0.09
3.61023	0.124
3.6474	0.124
3.68457	0.113
3.72173	0.113
3.7589	0.107
3.79607	0.119
3.83324	0.113
3.87041	0.119
3.90757	0.122
3.94474	0.122
3.98191	0.13
4.01908	0.127
4.05625	0.141
4.09341	0.147
4.13058	0.157
4.16775	0.163
4.20492	0.171
4.24209	0.18
4.27925	0.172
4.31642	0.192
4.35359	0.213
4.39076	0.245
4.42793	0.259
4.4651	0.255
4.50226	0.262
4.53943	0.267
4.5766	0.269
4.61377	0.273
4.65094	0.293
4.6881	0.314
4.72527	0.323
4.76244	0.339
4.79961	0.353
4.83678	0.359
4.87394	0.36
4.91111	0.374
4.94828	0.387
4.98545	0.401
5.02262	0.415
5.05979	0.407
5.09695	0.426
5.13412	0.426
5.17129	0.432
5.20846	0.447
5.24563	0.441
5.28279	0.46
5.31996	0.463
5.35713	0.479
5.3943	0.488
5.43147	0.485
5.46863	0.489
5.5058	0.497
5.54297	0.502
5.58014	0.505
5.61731	0.502
5.65448	0.496
5.69164	0.511
5.72881	0.514
5.76598	0.533
5.80315	0.555
5.84032	0.559
5.87748	0.55
5.91465	0.53
5.95182	0.5
5.98899	0.279
6.02616	0.038
6.06332	0.08
6.10049	0.195
6.13766	0.267
6.17483	0.349
6.212	0.272
6.24916	0.27
6.28633	0.161
6.3235	0.191
6.36067	0.192
6.39784	0.253
6.43501	0.298
6.47217	0.368
6.50934	0.433
6.54651	0.474
6.58368	0.51
6.62085	0.562
6.65801	0.556
6.69518	0.51
6.73235	0.325
6.76952	0.127
6.80669	0.027
6.84385	0.034
6.88102	0.066
6.91819	0.119
6.95536	0.237
6.99253	0.354
7.0297	0.424
7.06686	0.381
7.10403	0.219
7.1412	0.314
7.17837	0.188
7.21554	0.094
7.2527	0.085
7.28987	0.174
7.32704	0.261
7.36421	0.37
7.40138	0.409
7.43854	0.377
7.47571	0.152
7.51288	0.071
7.55005	0.2
7.58722	0.082
7.62439	0.155
7.66155	0.261
7.69872	0.345
7.73589	0.363
7.77306	0.371
7.81023	0.39
7.84739	0.303
7.88456	0.272
7.92173	0.418
7.9589	0.494
7.99607	0.527
8.03323	0.562
8.0704	0.586
8.10757	0.606
8.14474	0.612
8.18191	0.595
8.21907	0.55
8.25624	0.516
8.29341	0.393
8.33058	0.479
8.36775	0.631
8.40492	0.685
8.44208	0.713
8.47925	0.749
8.51642	0.698
8.55359	0.415
8.59076	0.357
8.62792	0.597
8.66509	0.732
8.70226	0.847
8.73943	0.849
8.7766	0.511
8.81376	0.181
8.85093	0.101
8.8881	0.205
8.92527	0.365
8.96244	0.412
8.99961	0.483
9.03677	0.388
9.07394	0.175
9.11111	0.116
9.14828	0.234
9.18545	0.396
9.22261	0.497
9.25978	0.541
9.29695	0.587
9.33412	0.632
9.37129	0.682
9.40845	0.718
9.44562	0.632
9.48279	0.34
9.51996	0.444
9.55713	0.598
9.5943	0.622
9.63146	0.578
9.66863	0.622
9.7058	0.679
9.74297	0.721
9.78014	0.78
9.8173	0.827
9.85447	0.846
9.89164	0.79
9.92881	0.642
9.96598	0.55
10.0031	0.544
10.0403	0.409
10.0775	0.241
10.1146	0.135
10.1518	0.082
10.189	0.052
10.2262	0.035
10.2633	0.04
10.3005	0.057
10.3377	0.076
10.3748	0.101
10.412	0.133
10.4492	0.163
10.4863	0.197
10.5235	0.237
10.5607	0.264
10.5978	0.276
10.635	0.304
10.6722	0.32
10.7093	0.331
10.7465	0.343
10.7837	0.343
10.8208	0.354
10.858	0.376
10.8952	0.382
10.9323	0.384
10.9695	0.391
11.0067	0.391
11.0439	0.387
11.081	0.387
11.1182	0.384
11.1554	0.367
11.1925	0.342
11.2297	0.318
11.2669	0.301
11.304	0.286
11.3412	0.273
11.3784	0.27
11.4155	0.283
11.4527	0.301
11.4899	0.325
11.527	0.345
11.5642	0.371
11.6014	0.396
11.6385	0.399
11.6757	0.356
11.7129	0.342
11.75	0.314
11.7872	0.374
11.8244	0.508
11.8616	0.553
11.8987	0.569
11.9359	0.567
11.9731	0.561
12.0102	0.542
12.0474	0.496
12.0846	0.415
12.1217	0.278
12.1589	0.119
12.1961	0.087
12.2332	0.16
12.2704	0.272
12.3076	0.401
12.3447	0.479
12.3819	0.539
12.4191	0.57
12.4562	0.558
12.4934	0.5
12.5306	0.435
12.5677	0.292
12.6049	0.149
12.6421	0.068
12.6792	0.073
12.7164	0.22
12.7536	0.419
12.7908	0.528
12.8279	0.587
12.8651	0.604
12.9023	0.609
12.9394	0.6
12.9766	0.559
13.0138	0.471
13.0509	0.429
13.0881	0.502
13.1253	0.612
13.1624	0.681
13.1996	0.735
13.2368	0.771
13.2739	0.799
13.3111	0.821
13.3483	0.822
13.3854	0.824
13.4226	0.828
13.4598	0.836
13.4969	0.839
13.5341	0.835
13.5713	0.827
13.6085	0.833
13.6456	0.83
13.6828	0.827
13.72	0.828
13.7571	0.807
13.7943	0.788
13.8315	0.741
13.8686	0.749
13.9058	0.791
13.943	0.833
13.9801	0.869
14.0173	0.903
14.0545	0.92
14.0916	0.93
14.1288	0.942
14.166	0.948
14.2031	0.945
14.2403	0.934
14.2775	0.92
14.3146	0.889
14.3518	0.825
14.389	0.72
14.4261	0.566
14.4633	0.433
14.5005	0.36
14.5377	0.34
14.5748	0.371
14.612	0.457
14.6492	0.547
14.6863	0.64
14.7235	0.716
14.7607	0.766
14.7978	0.805
14.835	0.824
14.8722	0.842
14.9093	0.864
14.9465	0.87
14.9837	0.861
15.0208	0.814
15.058	0.771
15.0952	0.751
15.1323	0.716
15.1695	0.611
15.2067	0.485
15.2438	0.41
15.281	0.413
15.3182	0.46
15.3554	0.508
15.3925	0.541
15.4297	0.567
15.4669	0.59
15.504	0.601
15.5412	0.614
15.5784	0.608
15.6155	0.608
15.6527	0.609
15.6899	0.603
15.727	0.59
15.7642	0.578
15.8014	0.57
15.8385	0.556
15.8757	0.53
15.9129	0.511
15.95	0.496
15.9872	0.493
