Infrared Spectrum: Acetic acid, [(3,4-dimethyl-2-oxo-2H-1-benzopyran-7-yl)oxy]-, ethyl ester
Formula: C15 H16 O5
CAS: 35679-90-4
State: SOLID (OIL MULL)
Class: COBLENTZ III
Instrument: PERKIN-ELMER 21 (GRATING)
Instrument parameters: NaCl PRISM
Sampling: TRANSMISSION
Resolution: 2
Origin: SMITH KLINE & FRENCH LABS.
1/CM	TRANSMITTANCE
648	0.8081
657	0.8382
666	0.8343
675	0.8233
684	0.7442
693	0.8539
702	0.7741
711	0.7695
720	0.6193
729	0.5148
738	0.7402
747	0.7233
756	0.583
765	0.4611
774	0.6465
783	0.6253
792	0.5127
801	0.5465
810	0.7275
819	0.5793
828	0.5259
837	0.6888
846	0.5315
855	0.4268
864	0.4458
873	0.5496
882	0.5956
891	0.5943
900	0.595
909	0.5712
918	0.5549
927	0.5219
936	0.5043
945	0.4858
954	0.466
963	0.448
972	0.4086
981	0.376
990	0.2746
999	0.3423
1008	0.3864
1017	0.3242
1026	0.2579
1035	0.3346
1044	0.2651
1053	0.2272
1062	0.2071
1071	0.1926
1080	0.112
1089	0.1254
1098	0.197
1107	0.5431
1116	0.4265
1125	0.4388
1134	0.3374
1143	0.2295
1152	0.3214
1161	0.2421
1170	0.1743
1179	0.1122
1188	0.188
1197	0.2399
1206	0.1273
1215	0.0873
1224	0.1161
1233	0.201
1242	0.2256
1251	0.3129
1260	0.2523
1269	0.4311
1278	0.4376
1287	0.2889
1296	0.4262
1305	0.5096
1314	0.4995
1323	0.468
1332	0.3608
1341	0.3583
1350	0.2708
1359	0.1571
1368	0.2039
1377	0.172
1386	0.111
1395	0.1851
1404	0.3305
1413	0.2776
1422	0.2262
1431	0.1185
1440	0.1946
1449	0.175
1458	0.1178
1467	0.1095
1476	0.2094
1485	0.3308
1494	0.3687
1503	0.3699
1512	0.2916
1521	0.4091
1530	0.4883
1539	0.4727
1548	0.4345
1557	0.4048
1566	0.3352
1575	0.336
1584	0.2819
1593	0.2389
1602	0.2054
1611	0.118
1620	0.0811
1629	0.2025
1638	0.3106
1647	0.391
1656	0.4098
1665	0.4029
1674	0.3456
1683	0.2592
1692	0.2107
1701	0.1652
1710	0.0977
1719	0.1113
1728	0.2116
1737	0.3138
1746	0.4365
1755	0.3798
1764	0.1837
1773	0.285
1782	0.4225
1791	0.5289
1800	0.6275
1809	0.6939
1818	0.7705
1827	0.8221
1836	0.8564
1845	0.8742
1854	0.8775
1863	0.8721
1872	0.8605
1881	0.8454
1890	0.823
1899	0.7931
1908	0.7683
1917	0.7618
1926	0.7871
1935	0.7797
1944	0.7679
1953	0.754
1962	0.7324
1971	0.7186
1980	0.7073
1989	0.6972
1998	0.6884
2007	0.6798
2016	0.6712
2025	0.6613
2034	0.6525
2043	0.6443
2052	0.6362
2061	0.6288
2070	0.6218
2079	0.6176
2088	0.6155
2097	0.6154
2106	0.601
2115	0.5869
2124	0.5824
2133	0.5762
2142	0.5697
2151	0.5635
2160	0.5591
2169	0.556
2178	0.5536
2187	0.5483
2196	0.5413
2205	0.5338
2214	0.5253
2223	0.5174
2232	0.5116
2241	0.506
2250	0.5007
2259	0.4954
2268	0.4909
2277	0.4866
2286	0.4798
2295	0.4723
2304	0.4635
2313	0.4544
2322	0.4464
2331	0.444
2340	0.4432
2349	0.4427
2358	0.4423
2367	0.4418
2376	0.4438
2385	0.4476
2394	0.449
2403	0.4496
2412	0.4483
2421	0.4471
2430	0.4459
2439	0.4448
2448	0.4435
2457	0.4422
2466	0.4402
2475	0.4382
2484	0.4362
2493	0.4343
2502	0.4324
2511	0.4303
2520	0.4279
2529	0.4255
2538	0.4231
2547	0.4218
2556	0.4205
2565	0.4194
2574	0.4184
2583	0.4122
2592	0.4077
2601	0.4058
2610	0.4041
2619	0.4039
2628	0.4024
2637	0.4004
2646	0.3984
2655	0.3934
2664	0.3903
2673	0.3893
2682	0.39
2691	0.3916
2700	0.3933
2709	0.3938
2718	0.3942
2727	0.3944
2736	0.3915
2745	0.3882
2754	0.3844
2763	0.3801
2772	0.3699
2781	0.3527
2790	0.3302
2799	0.2922
2808	0.2837
2817	0.2703
2826	0.2056
2835	0.1347
2844	0.0732
2853	0.0572
2862	0.0499
2871	0.0495
2880	0.0495
2889	0.05
2898	0.0504
2907	0.0509
2916	0.0518
2925	0.0529
2934	0.0589
2943	0.0672
2952	0.0779
2961	0.0802
2970	0.0935
2979	0.1364
2988	0.1778
2997	0.2076
3006	0.2427
3015	0.2528
3024	0.2626
3033	0.2672
3042	0.2688
3051	0.27
3060	0.2718
3069	0.2735
3078	0.2758
3087	0.2806
3096	0.2884
3105	0.2894
3114	0.2901
3123	0.2908
3132	0.2909
3141	0.2911
3150	0.2912
3159	0.2913
3168	0.2915
3177	0.2917
3186	0.2918
3195	0.2919
3204	0.292
3213	0.2919
3222	0.2918
3231	0.2918
3240	0.2918
3249	0.2917
3258	0.2917
3267	0.2916
3276	0.2916
3285	0.2915
3294	0.2915
3303	0.2914
3312	0.2913
3321	0.2912
3330	0.291
3339	0.2909
3348	0.2908
3357	0.2906
3366	0.2905
3375	0.2905
3384	0.2907
3393	0.2909
3402	0.2911
3411	0.2915
3420	0.2925
3429	0.2934
3438	0.2943
3447	0.295
3456	0.2955
3465	0.2961
3474	0.2964
3483	0.2965
3492	0.2965
3501	0.2965
3510	0.2965
3519	0.296
3528	0.2953
3537	0.2947
3546	0.294
3555	0.2933
3564	0.2926
3573	0.292
3582	0.2909
3591	0.2896
3600	0.2883
3609	0.287
3618	0.2857
3627	0.2844
3636	0.2831
3645	0.2816
3654	0.2802
3663	0.2788
3672	0.2773
3681	0.2759
3690	0.2746
3699	0.2737
3708	0.2728
3717	0.2719
3726	0.271
3735	0.2702
3744	0.2694
3753	0.2691
3762	0.2691
3771	0.2691
3780	0.2691
3789	0.2692
3798	0.2692
3807	0.2692
3816	0.2692
3825	0.2692
3834	0.2692
3843	0.2692
3852	0.2691
3861	0.2689
3870	0.2688
3879	0.2687
3888	0.2686
3897	0.2684
3906	0.2683
3915	0.268
3924	0.2675
3933	0.2669
3942	0.2664
3951	0.2659
3960	0.2653
3969	0.2647
3978	0.2642
3987	0.2637
3996	0.2631
