Infrared Spectrum: 1-Butene, 1,3,4,4-tetrachloro-1,2,3,4-tetrafluoro-
Formula: C4 Cl4 F4
CAS: 357-20-0
State: GAS (10 mmHg, N2 ADDED, TOTAL PRESSURE 600 mmHg)
Class: COBLENTZ
Instrument: DOW KBr FOREPRISM-GRATING
Instrument parameters: GRATING CHANGED AT 5.0, 7.5, 15.0 MICRON
Sampling: TRANSMISSION
Path length: 5 CM
Resolution: 2
Origin: DOW CHEMICAL COMPANY
1/CM	TRANSMITTANCE
462	0.8513
471	0.8518
480	0.8521
489	0.8523
498	0.8522
507	0.8507
516	0.8478
525	0.8484
534	0.8452
543	0.8376
552	0.8425
561	0.8366
570	0.8116
579	0.8241
588	0.8493
597	0.847
606	0.8373
615	0.8213
624	0.8183
633	0.837
642	0.8189
651	0.8305
660	0.8543
669	0.8514
678	0.8336
687	0.837
696	0.8329
705	0.7882
714	0.5326
723	0.6331
732	0.7155
741	0.7683
750	0.6349
759	0.5379
768	0.6671
777	0.7411
786	0.7165
795	0.4973
804	0.4776
813	0.6228
822	0.5786
831	0.6489
840	0.5783
849	0.5984
858	0.6214
867	0.6626
876	0.6906
885	0.6809
894	0.565
903	0.589
912	0.5797
921	0.6701
930	0.7901
939	0.8093
948	0.8167
957	0.8479
966	0.8489
975	0.832
984	0.7792
993	0.7455
1002	0.7128
1011	0.6749
1020	0.6993
1029	0.7573
1038	0.7854
1047	0.7786
1056	0.7789
1065	0.7023
1074	0.6674
1083	0.6535
1092	0.6831
1101	0.7333
1110	0.7327
1119	0.6167
1128	0.5239
1137	0.4809
1146	0.6032
1155	0.6437
1164	0.646
1173	0.583
1182	0.5269
1191	0.5516
1200	0.5841
1209	0.6471
1218	0.3259
1227	0.2465
1236	0.6871
1245	0.7754
1254	0.7907
1263	0.8087
1272	0.8239
1281	0.7613
1290	0.6727
1299	0.6463
1308	0.6874
1317	0.7812
1326	0.8243
1335	0.8529
1344	0.8581
1353	0.8569
1362	0.8537
1371	0.8522
1380	0.853
1389	0.8546
1398	0.8565
1407	0.8589
1416	0.8618
1425	0.8636
1434	0.8614
1443	0.8604
1452	0.8558
1461	0.8512
1470	0.8602
1479	0.8615
1488	0.8618
1497	0.8606
1506	0.8599
1515	0.8616
1524	0.8616
1533	0.8638
1542	0.8556
1551	0.8634
1560	0.8551
1569	0.8605
1578	0.8278
1587	0.8362
1596	0.8669
1605	0.8656
1614	0.8605
1623	0.8571
1632	0.8364
1641	0.7895
1650	0.7466
1659	0.7592
1668	0.7534
1677	0.8123
1686	0.8075
1695	0.7338
1704	0.6157
1713	0.7124
1722	0.8496
1731	0.8529
1740	0.8522
1749	0.8513
1758	0.8547
1767	0.8606
1776	0.8608
1785	0.8645
1794	0.8654
1803	0.8672
1812	0.8669
1821	0.8669
1830	0.8669
1839	0.8671
1848	0.8676
1857	0.8688
1866	0.8695
1875	0.8699
1884	0.8704
1893	0.8708
1902	0.8712
1911	0.8717
1920	0.8722
1929	0.8721
1938	0.872
1947	0.8722
1956	0.8725
1965	0.8733
1974	0.8768
1983	0.88
1992	0.8802
2001	0.88
2010	0.8797
2019	0.8791
2028	0.8786
2037	0.878
2046	0.8776
2055	0.8774
2064	0.8773
2073	0.8771
2082	0.8769
2091	0.8767
2100	0.8766
2109	0.8764
2118	0.8762
2127	0.876
2136	0.8759
2145	0.8759
2154	0.8759
2163	0.8759
2172	0.876
2181	0.876
2190	0.8763
2199	0.8766
2208	0.8769
2217	0.8772
2226	0.8776
2235	0.8776
2244	0.8776
2253	0.8775
2262	0.8774
2271	0.8773
2280	0.8773
2289	0.8773
2298	0.8774
2307	0.8774
2316	0.8766
2325	0.8757
2334	0.8748
2343	0.8745
2352	0.8744
2361	0.8755
2370	0.8763
2379	0.8767
2388	0.8767
2397	0.8772
2406	0.8779
2415	0.878
2424	0.878
2433	0.878
2442	0.8782
2451	0.8784
2460	0.8784
2469	0.8784
2478	0.8784
2487	0.8782
2496	0.8781
2505	0.8785
2514	0.8791
2523	0.8795
2532	0.88
2541	0.8803
2550	0.8804
2559	0.8803
2568	0.8802
2577	0.8799
2586	0.8796
2595	0.8793
2604	0.8791
2613	0.8793
2622	0.8796
2631	0.8798
2640	0.88
2649	0.8801
2658	0.8802
2667	0.8803
2676	0.8803
2685	0.8802
2694	0.8801
2703	0.88
2712	0.8801
2721	0.8801
2730	0.8801
2739	0.8799
2748	0.8796
2757	0.8793
2766	0.8789
2775	0.8786
2784	0.8783
2793	0.8776
2802	0.877
2811	0.8764
2820	0.8758
2829	0.8752
2838	0.875
2847	0.874
2856	0.8705
2865	0.8689
2874	0.8688
2883	0.8694
2892	0.8694
2901	0.8692
2910	0.868
2919	0.8633
2928	0.8566
2937	0.8538
2946	0.8545
2955	0.8555
2964	0.8564
2973	0.8569
2982	0.8575
2991	0.8582
3000	0.859
3009	0.8616
3018	0.8657
3027	0.8685
3036	0.871
3045	0.8726
3054	0.873
3063	0.8733
3072	0.8737
3081	0.8741
3090	0.8745
3099	0.8748
3108	0.8752
3117	0.8755
3126	0.8759
3135	0.8762
3144	0.8766
3153	0.877
3162	0.8775
3171	0.878
3180	0.8785
3189	0.879
3198	0.8791
3207	0.8792
3216	0.8793
3225	0.8794
3234	0.8796
3243	0.8798
3252	0.8801
3261	0.8804
3270	0.8807
3279	0.8808
3288	0.8811
3297	0.8812
3306	0.8814
3315	0.8816
3324	0.882
3333	0.8823
3342	0.8827
3351	0.8829
3360	0.8832
3369	0.8832
3378	0.8832
3387	0.8832
3396	0.8833
3405	0.8833
3414	0.8832
3423	0.883
3432	0.8829
3441	0.8827
3450	0.8826
3459	0.8827
3468	0.8829
3477	0.883
3486	0.8832
3495	0.8834
3504	0.8835
3513	0.8836
3522	0.8837
3531	0.8838
3540	0.8839
3549	0.8831
3558	0.8822
3567	0.8813
3576	0.8805
3585	0.8798
3594	0.879
3603	0.8783
3612	0.8776
3621	0.8775
3630	0.8787
3639	0.8792
3648	0.8792
3657	0.8786
3666	0.8783
3675	0.8784
3684	0.8784
3693	0.8788
3702	0.879
3711	0.8783
3720	0.8776
3729	0.8779
3738	0.8792
3747	0.8836
3756	0.885
3765	0.8851
3774	0.8843
3783	0.8828
3792	0.8817
