Infrared Spectrum: 2,2-DICHLORO-3,3,3-TRIFLUOROPROPIONIC ACID, n-PROPYL ESTER
Formula: C6 H7 Cl2 F3 O2
CAS: 357-49-3
State: LIQUID (NEAT)
Class: COBLENTZ III
Instrument: BAIRD (PRISM)
Instrument parameters: NaCl PRISM
Sampling: TRANSMISSION
Path length: 0.003 CM
Resolution: 2
Origin: WYANDOTTE CHEMICALS CORP.
MICROMETERS	TRANSMITTANCE
1.961	0.996
1.99931	0.996
2.03761	0.997
2.07592	1.001
2.11423	0.99
2.15254	0.985
2.19084	0.985
2.22915	0.989
2.26746	0.991
2.30577	0.994
2.34407	0.992
2.38238	0.994
2.42069	0.994
2.45899	0.992
2.4973	0.991
2.53561	0.989
2.57392	0.99
2.61222	0.998
2.65053	0.994
2.68884	0.992
2.72715	0.989
2.76545	0.98
2.80376	0.94
2.84207	0.931
2.88037	0.94
2.91868	0.941
2.95699	0.938
2.9953	0.943
3.0336	0.949
3.07191	0.952
3.11022	0.946
3.14853	0.937
3.18683	0.94
3.22514	0.925
3.26345	0.898
3.30175	0.633
3.34006	0.212
3.37837	0.41
3.41668	0.579
3.45498	0.58
3.49329	0.77
3.5316	0.869
3.56991	0.907
3.60821	0.905
3.64652	0.911
3.68483	0.931
3.72313	0.928
3.76144	0.942
3.79975	0.941
3.83806	0.947
3.87636	0.953
3.91467	0.949
3.95298	0.924
3.99128	0.928
4.02959	0.918
4.0679	0.917
4.10621	0.924
4.14451	0.917
4.18282	0.914
4.22113	0.919
4.25944	0.931
4.29774	0.923
4.33605	0.929
4.37436	0.949
4.41266	0.962
4.45097	0.96
4.48928	0.964
4.52759	0.968
4.56589	0.967
4.6042	0.959
4.64251	0.953
4.68082	0.949
4.71912	0.944
4.75743	0.952
4.79574	0.967
4.83404	0.965
4.87235	0.974
4.91066	0.965
4.94897	0.978
4.98727	0.971
5.02558	0.97
5.06389	0.965
5.1022	0.962
5.1405	0.968
5.17881	0.968
5.21712	0.961
5.25542	0.956
5.29373	0.953
5.33204	0.955
5.37035	0.949
5.40865	0.932
5.44696	0.922
5.48527	0.905
5.52358	0.848
5.56188	0.725
5.60019	0.521
5.6385	0.076
5.6768	0.023
5.71511	0.051
5.75342	0.462
5.79173	0.641
5.83003	0.811
5.86834	0.847
5.90665	0.863
5.94496	0.88
5.98326	0.899
6.02157	0.895
6.05988	0.887
6.09818	0.888
6.13649	0.894
6.1748	0.889
6.21311	0.892
6.25141	0.895
6.28972	0.9
6.32803	0.895
6.36634	0.902
6.40464	0.899
6.44295	0.904
6.48126	0.894
6.51956	0.901
6.55787	0.878
6.59618	0.87
6.63449	0.86
6.67279	0.822
6.7111	0.721
6.74941	0.556
6.78772	0.269
6.82602	0.365
6.86433	0.613
6.90264	0.637
6.94094	0.643
6.97925	0.739
7.01756	0.747
7.05587	0.75
7.09417	0.754
7.13248	0.711
7.17079	0.45
7.20909	0.49
7.2474	0.594
7.28571	0.741
7.32402	0.761
7.36232	0.717
7.40063	0.604
7.43894	0.669
7.47725	0.643
7.51555	0.601
7.55386	0.503
7.59217	0.304
7.63047	0.244
7.66878	0.231
7.70709	0.082
7.7454	0.027
7.7837	0.017
7.82201	0.014
7.86032	0.014
7.89863	0.014
7.93693	0.014
7.97524	0.014
8.01355	0.014
8.05185	0.015
8.09016	0.015
8.12847	0.014
8.16678	0.014
8.20508	0.015
8.24339	0.014
8.2817	0.013
8.32001	0.013
8.35831	0.015
8.39662	0.019
8.43493	0.025
8.47323	0.082
8.51154	0.231
8.54985	0.371
8.58816	0.474
8.62646	0.564
8.66477	0.625
8.70308	0.689
8.74139	0.748
8.77969	0.757
8.818	0.756
8.85631	0.762
8.89461	0.749
8.93292	0.757
8.97123	0.76
9.00954	0.754
9.04784	0.731
9.08615	0.715
9.12446	0.735
9.16277	0.751
9.20107	0.76
9.23938	0.754
9.27769	0.749
9.31599	0.718
9.3543	0.663
9.39261	0.559
9.43092	0.335
9.46922	0.141
9.50753	0.122
9.54584	0.303
9.58415	0.424
9.62245	0.438
9.66076	0.394
9.69907	0.436
9.73737	0.453
9.77568	0.333
9.81399	0.164
9.8523	0.083
9.8906	0.043
9.92891	0.027
9.96722	0.029
10.0055	0.039
10.0438	0.071
10.0821	0.161
10.1204	0.255
10.1588	0.384
10.1971	0.484
10.2354	0.57
10.2737	0.594
10.312	0.603
10.3503	0.586
10.3886	0.532
10.4269	0.425
10.4652	0.273
10.5035	0.135
10.5418	0.065
10.5801	0.061
10.6184	0.11
10.6567	0.191
10.6951	0.242
10.7334	0.294
10.7717	0.316
10.81	0.311
10.8483	0.286
10.8866	0.276
10.9249	0.28
10.9632	0.297
11.0015	0.296
11.0398	0.27
11.0781	0.244
11.1164	0.214
11.1547	0.201
11.1931	0.181
11.2314	0.158
11.2697	0.121
11.308	0.081
11.3463	0.051
11.3846	0.029
11.4229	0.026
11.4612	0.041
11.4995	0.129
11.5378	0.243
11.5761	0.38
11.6144	0.446
11.6527	0.501
11.691	0.539
11.7294	0.595
11.7677	0.652
11.806	0.705
11.8443	0.741
11.8826	0.778
11.9209	0.8
11.9592	0.833
11.9975	0.844
12.0358	0.862
12.0741	0.866
12.1124	0.869
12.1507	0.875
12.189	0.884
12.2273	0.899
12.2657	0.894
12.304	0.886
12.3423	0.887
12.3806	0.877
12.4189	0.868
12.4572	0.851
12.4955	0.846
12.5338	0.808
12.5721	0.76
12.6104	0.684
12.6487	0.528
12.687	0.351
12.7253	0.285
12.7636	0.35
12.802	0.426
12.8403	0.509
12.8786	0.597
12.9169	0.663
12.9552	0.717
12.9935	0.732
13.0318	0.748
13.0701	0.735
13.1084	0.725
13.1467	0.719
13.185	0.723
13.2233	0.731
13.2616	0.73
13.2999	0.725
13.3383	0.712
13.3766	0.699
13.4149	0.669
13.4532	0.63
13.4915	0.598
13.5298	0.581
13.5681	0.573
13.6064	0.57
13.6447	0.568
13.683	0.562
13.7213	0.558
13.7596	0.546
13.7979	0.528
13.8363	0.5
13.8746	0.468
13.9129	0.429
13.9512	0.363
13.9895	0.315
14.0278	0.275
14.0661	0.249
14.1044	0.236
14.1427	0.232
14.181	0.236
14.2193	0.252
14.2576	0.287
14.2959	0.321
14.3342	0.372
14.3726	0.402
14.4109	0.443
14.4492	0.473
14.4875	0.5
14.5258	0.514
14.5641	0.533
14.6024	0.544
14.6407	0.553
14.679	0.557
14.7173	0.557
14.7556	0.557
14.7939	0.558
14.8322	0.553
14.8705	0.552
14.9089	0.546
14.9472	0.54
14.9855	0.533
15.0238	0.528
15.0621	0.544
15.1004	0.544
15.1387	0.545
15.177	0.559
15.2153	0.599
15.2536	0.637
15.2919	0.666
15.3302	0.7
15.3685	0.73
15.4068	0.744
15.4452	0.755
15.4835	0.769
15.5218	0.774
15.5601	0.775
15.5984	0.776
15.6367	0.781
15.675	0.78
15.7133	0.78
15.7516	0.785
15.7899	0.779
15.8282	0.769
15.8665	0.764
15.9048	0.768
15.9432	0.769
15.9815	0.768
