Infrared Spectrum: N,N'-Di-sec-butylthiourea
Formula: C 9 H 20 N 2 S
CAS: 35700-30-2
State: gas
Origin: EPA-IR VAPOR PHASE LIBRARY
1/CM	ABSORBANCE
501.5	0.001877
513.074	0.001587
524.648	0.001597
536.222	0.001507
547.796	0.001557
559.37	0.001477
570.944	0.001437
582.518	0.001297
594.092	0.001437
605.666	0.001417
617.24	0.001407
628.814	0.001537
640.388	0.001657
651.962	0.001467
663.536	0.001297
675.11	0.001217
686.684	0.001237
698.258	0.001217
709.832	0.001367
721.406	0.001587
732.98	0.001617
744.554	0.001617
756.128	0.001687
767.702	0.001917
779.276	0.002247
790.85	0.002167
802.423	0.001987
813.997	0.001737
825.571	0.001497
837.145	0.001447
848.719	0.001327
860.293	0.0010499
871.867	0.001016
883.441	0.0009969
895.015	0.0010657
906.589	0.001157
918.163	0.001167
929.737	0.001247
941.311	0.001377
952.885	0.001407
964.459	0.001477
976.033	0.001837
987.607	0.002197
999.181	0.002667
1010.76	0.002687
1022.33	0.002457
1033.9	0.002257
1045.48	0.001947
1057.05	0.001627
1068.63	0.001607
1080.2	0.001717
1091.77	0.002147
1103.35	0.003017
1114.92	0.003697
1126.49	0.005037
1138.07	0.006777
1149.64	0.008557
1161.22	0.008337
1172.79	0.006017
1184.36	0.004417
1195.94	0.005117
1207.51	0.008457
1219.09	0.013187
1230.66	0.012787
1242.23	0.008687
1253.81	0.006857
1265.38	0.007337
1276.96	0.006987
1288.53	0.006497
1300.1	0.007337
1311.68	0.008447
1323.25	0.010477
1334.83	0.012697
1346.4	0.012247
1357.97	0.009567
1369.55	0.010267
1381.12	0.009547
1392.7	0.006027
1404.27	0.003837
1415.84	0.003477
1427.42	0.004017
1438.99	0.006217
1450.57	0.010597
1462.14	0.012987
1473.71	0.016607
1485.29	0.028087
1496.86	0.034507
1508.44	0.029577
1520.01	0.020077
1531.58	0.010737
1543.16	0.005657
1554.73	0.003477
1566.31	0.002427
1577.88	0.001827
1589.45	0.001497
1601.03	0.001297
1612.6	0.0011349
1624.18	0.0010401
1635.75	0.0009303
1647.32	0.0008221
1658.9	0.0007486
1670.47	0.0006775
1682.05	0.0006154
1693.62	0.0005509
1705.19	0.0004945
1716.77	0.0004382
1728.34	0.0004288
1739.92	0.0004248
1751.49	0.0003921
1763.06	0.0003825
1774.64	0.0003909
1786.21	0.0003574
1797.79	0.0003607
1809.36	0.0003683
1820.93	0.0003573
1832.51	0.0003375
1844.08	0.000346
1855.66	0.0003326
1867.23	0.0003406
1878.8	0.0003815
1890.38	0.0004068
1901.95	0.0004266
1913.53	0.0004608
1925.1	0.0005154
1936.67	0.0005901
1948.25	0.0007084
1959.82	0.000822
1971.4	0.0009729
1982.97	0.001227
1994.54	0.001537
2006.12	0.001997
2017.69	0.002667
2029.27	0.003367
2040.84	0.003997
2052.41	0.004377
2063.99	0.004267
2075.56	0.003757
2087.14	0.003037
2098.71	0.002317
2110.28	0.001777
2121.86	0.001767
2133.43	0.001727
2145.01	0.001417
2156.58	0.001197
2168.15	0.0010086
2179.73	0.0008345
2191.3	0.0007032
2202.88	0.0005342
2214.45	0.0004546
2226.02	0.0004017
2237.6	0.0003698
2249.17	0.0003484
2260.74	0.0003216
2272.32	0.0003007
2283.89	0.0002982
2295.47	0.0003006
2307.04	0.0002564
2318.61	0.0002505
2330.19	0.0002496
2341.76	0.0002596
2353.34	0.00019277
2364.91	0.00024163
2376.48	0.0002545
2388.06	0.0002677
2399.63	0.0002529
2411.21	0.00026
2422.78	0.00024161
2434.35	0.00022657
2445.93	0.00023522
2457.5	0.0002757
2469.08	0.0002781
2480.65	0.0002566
2492.22	0.0002881
2503.8	0.00024606
2515.37	0.0002841
2526.95	0.0002985
2538.52	0.0002889
2550.09	0.000305
2561.67	0.0003045
2573.24	0.0003339
2584.82	0.0003245
2596.39	0.0003523
2607.96	0.0003305
2619.54	0.0003344
2631.11	0.0003346
2642.69	0.000341
2654.26	0.0003299
2665.83	0.0003581
2677.41	0.00042
2688.98	0.0004876
2700.56	0.0005512
2712.13	0.0005196
2723.7	0.0006236
2735.28	0.0006773
2746.85	0.0006517
2758.43	0.0006942
2770	0.0006005
2781.57	0.0006634
2793.15	0.0007783
2804.72	0.0009078
2816.3	0.0010963
2827.87	0.001417
2839.44	0.001867
2851.02	0.003017
2862.59	0.004967
2874.17	0.006347
2885.74	0.007897
2897.31	0.007437
2908.89	0.007187
2920.46	0.008777
2932.04	0.012387
2943.61	0.013037
2955.18	0.011257
2966.76	0.018337
2978.33	0.021197
2989.91	0.010937
3001.48	0.004047
3013.05	0.002077
3024.63	0.001377
3036.2	0.0011244
3047.78	0.0009889
3059.35	0.0008594
3070.92	0.0008027
3082.5	0.0008065
3094.07	0.0006946
3105.65	0.0005988
3117.22	0.0005146
3128.79	0.0004873
3140.37	0.0004964
3151.94	0.0003986
3163.52	0.0004217
3175.09	0.0004038
3186.66	0.0004148
3198.24	0.0003568
3209.81	0.0002575
3221.39	0.00023636
3232.96	0.00014463
3244.53	8.32e-05
3256.11	0.0001025
3267.68	0.000146506
3279.26	0.00013822
3290.83	7.46e-05
3302.4	0.0001132
3313.98	0.00017994
3325.55	0.0001231
3337.13	0.00020656
3348.7	0.00017567
3360.27	0.00022232
3371.85	0.0003239
3383.42	0.0005598
3395	0.001287
3406.57	0.002147
3418.14	0.002527
3429.72	0.002567
3441.29	0.001567
3452.86	0.0007861
3464.44	0.0004198
3476.01	0.0003002
3487.59	0.00017271
3499.16	0.00017087
3510.73	0.000119
3522.31	0.00016262
3533.88	0.0001307
3545.46	0.0001294
3557.03	0.0001157
3568.6	0.0001244
3580.18	0.0001143
3591.75	0.0001343
3603.33	6.27e-05
3614.9	7.68e-05
3626.47	4.3e-05
3638.05	0.0001321
3649.62	2.8e-05
3661.2	0.000106
3672.77	0.0001211
3684.34	0.00013915
3695.92	0.0001297
3707.49	0.0001285
3719.07	0.00016119
3730.64	0.000103
3742.21	0.0001229
3753.79	0.0001159
3765.36	0.0001076
3776.94	0.00019128
3788.51	7.75e-05
3800.08	0.0001336
3811.66	0.0001368
3823.23	6.18e-05
3834.81	0.0001312
3846.38	0.0001172
3857.95	0.0001149
3869.53	0.00016156
3881.1	0.00016472
3892.68	0.0001637
3904.25	0.00014374
3915.82	0.0001122
3927.4	0.00016567
3938.97	0.0001086
3950.55	0.000149245
3962.12	0.0001334
3973.69	0.00018021
3985.27	0.00021388
3996.84	0.0001194
