Infrared Spectrum: 2-METHYLBUTYLGLYCINE
Formula: C7 H15 N O2
CAS: 3570-21-6
State: SOLID (KBr PELLET)
Class: COBLENTZ
Instrument: PERKIN-ELMER
Sampling: TRANSMISSION
Resolution: 4
Origin: ABBOTT LABORATORIES - WASHBURN
MICROMETERS	TRANSMITTANCE
2.038	0.621
2.07151	0.625
2.10502	0.626
2.13853	0.628
2.17204	0.63
2.20555	0.633
2.23906	0.635
2.27257	0.638
2.30608	0.635
2.33959	0.636
2.3731	0.63
2.40661	0.628
2.44012	0.645
2.47363	0.64
2.50714	0.6381
2.54065	0.647
2.57416	0.647
2.60767	0.648
2.64118	0.6471
2.67469	0.6481
2.7082	0.653
2.74171	0.647
2.77522	0.636
2.80873	0.628
2.84224	0.6096
2.87575	0.5659
2.90926	0.5269
2.94277	0.5208
2.97628	0.499
3.00979	0.5072
3.0433	0.531
3.07681	0.5259
3.11032	0.4989
3.14383	0.4527
3.17734	0.3947
3.21085	0.2965
3.24436	0.2326
3.27787	0.2098
3.31138	0.2011
3.34489	0.2029
3.3784	0.1959
3.41191	0.1234
3.44542	0.1071
3.47893	0.1222
3.51244	0.1573
3.54595	0.2133
3.57946	0.2555
3.61297	0.2921
3.64648	0.3019
3.67999	0.3021
3.7135	0.307
3.74701	0.305
3.78052	0.3152
3.81403	0.329
3.84754	0.3253
3.88105	0.2899
3.91456	0.2868
3.94807	0.2729
3.98158	0.2852
4.01509	0.2891
4.0486	0.3024
4.08211	0.3177
4.11562	0.3522
4.14913	0.3631
4.18264	0.3768
4.21615	0.4233
4.24966	0.4485
4.28317	0.4782
4.31668	0.4907
4.35019	0.509
4.3837	0.5122
4.41721	0.5219
4.45072	0.5172
4.48423	0.5242
4.51774	0.5211
4.55125	0.5099
4.58476	0.4988
4.61827	0.4802
4.65178	0.4694
4.68529	0.4573
4.7188	0.4688
4.75231	0.5055
4.78582	0.5358
4.81933	0.5508
4.85284	0.5659
4.88635	0.5809
4.91986	0.5889
4.95337	0.598
4.98688	0.6009
5.02039	0.601
5.0539	0.61
5.08741	0.6147
5.12092	0.616
5.15443	0.6207
5.18794	0.6222
5.22145	0.6256
5.25496	0.6274
5.28847	0.6285
5.32198	0.63
5.35549	0.63
5.389	0.6329
5.42251	0.63
5.45602	0.636
5.48953	0.6302
5.52304	0.633
5.55655	0.628
5.59006	0.63
5.62357	0.6272
5.65708	0.6157
5.69059	0.61
5.7241	0.603
5.75761	0.5908
5.79112	0.5809
5.82463	0.561
5.85814	0.5492
5.89165	0.547
5.92516	0.5199
5.95867	0.4832
5.99218	0.4412
6.02569	0.3801
6.0592	0.3124
6.09271	0.2252
6.12622	0.1402
6.15973	0.1018
6.19324	0.09
6.22675	0.087
6.26026	0.0564
6.29377	0.0237
6.32728	0.0301
6.36079	0.0978
6.3943	0.1787
6.42781	0.256
6.46132	0.3056
6.49483	0.3109
6.52834	0.2691
6.56185	0.1824
6.59536	0.1076
6.62887	0.0511
6.66238	0.0294
6.69589	0.0429
6.7294	0.1452
6.76291	0.2229
6.79642	0.2585
6.82993	0.267
6.86344	0.262
6.89695	0.278
6.93046	0.332
6.96397	0.3572
6.99748	0.3723
7.03099	0.3969
7.0645	0.2622
7.09801	0.1192
7.13152	0.0823
7.16503	0.2006
7.19854	0.2946
7.23205	0.3113
7.26556	0.3043
7.29907	0.3764
7.33258	0.3641
7.36609	0.2576
7.3996	0.1444
7.43311	0.1824
7.46662	0.189
7.50013	0.2718
7.53364	0.3542
7.56715	0.398
7.60066	0.4157
7.63417	0.3741
7.66768	0.248
7.70119	0.3678
7.7347	0.447
7.76821	0.4425
7.80172	0.4355
7.83523	0.4947
7.86874	0.529
7.90225	0.504
7.93576	0.48
7.96927	0.5226
8.00278	0.5553
8.03629	0.5643
8.0698	0.5578
8.10331	0.5017
8.13682	0.5237
8.17033	0.547
8.20384	0.5324
8.23735	0.5422
8.27086	0.5736
8.30437	0.5908
8.33788	0.593
8.37139	0.598
8.4049	0.5883
8.43841	0.5719
8.47192	0.5382
8.50543	0.482
8.53894	0.5202
8.57245	0.5514
8.60596	0.5756
8.63947	0.5684
8.67298	0.5475
8.70649	0.5364
8.74001	0.5365
8.77352	0.4963
8.80703	0.4462
8.84054	0.4283
8.87405	0.464
8.90756	0.512
8.94107	0.5368
8.97458	0.557
9.00809	0.564
9.0416	0.573
9.07511	0.5775
9.10862	0.583
9.14213	0.5749
9.17564	0.5666
9.20915	0.569
9.24266	0.5657
9.27617	0.559
9.30968	0.569
9.34319	0.573
9.3767	0.586
9.41021	0.583
9.44372	0.5749
9.47723	0.567
9.51074	0.556
9.54425	0.554
9.57776	0.556
9.61127	0.574
9.64478	0.5807
9.67829	0.576
9.7118	0.5827
9.74531	0.5933
9.77882	0.6007
9.81233	0.61
9.84584	0.6119
9.87935	0.613
9.91286	0.6106
9.94637	0.603
9.97988	0.5975
10.0134	0.6086
10.0469	0.613
10.0804	0.623
10.1139	0.6113
10.1474	0.5972
10.1809	0.5866
10.2144	0.566
10.248	0.5479
10.2815	0.5609
10.315	0.5934
10.3485	0.6036
10.382	0.6064
10.4155	0.611
10.449	0.613
10.4825	0.6148
10.516	0.6274
10.5495	0.6375
10.5831	0.647
10.6166	0.648
10.6501	0.652
10.6836	0.652
10.7171	0.6513
10.7506	0.6428
10.7841	0.628
10.8176	0.5959
10.8511	0.5929
10.8846	0.6048
10.9182	0.611
10.9517	0.5965
10.9852	0.589
11.0187	0.5802
11.0522	0.584
11.0857	0.583
11.1192	0.5832
11.1527	0.5935
11.1862	0.6131
11.2197	0.6311
11.2533	0.6425
11.2868	0.6515
11.3203	0.653
11.3538	0.6623
11.3873	0.6626
11.4208	0.662
11.4543	0.6677
11.4878	0.6642
11.5213	0.6604
11.5548	0.6633
11.5884	0.6549
11.6219	0.638
11.6554	0.6114
11.6889	0.57
11.7224	0.5141
11.7559	0.4931
11.7894	0.5249
11.8229	0.5864
11.8564	0.623
11.8899	0.6377
11.9235	0.6522
11.957	0.657
11.9905	0.665
12.024	0.66
12.0575	0.6582
12.091	0.6435
12.1245	0.6254
12.158	0.626
12.1915	0.6355
12.225	0.638
12.2586	0.6287
12.2921	0.6315
12.3256	0.6384
12.3591	0.6502
12.3926	0.6531
12.4261	0.6599
12.4596	0.6572
12.4931	0.665
12.5266	0.66
12.5601	0.662
12.5937	0.66
12.6272	0.655
12.6607	0.648
12.6942	0.6406
12.7277	0.6226
12.7612	0.6053
12.7947	0.5796
12.8282	0.55
12.8617	0.541
12.8952	0.5663
12.9288	0.5836
12.9623	0.585
12.9958	0.5514
13.0293	0.531
13.0628	0.5618
13.0963	0.6191
13.1298	0.6331
13.1633	0.643
13.1968	0.6526
13.2303	0.655
13.2639	0.6505
13.2974	0.6581
13.3309	0.66
13.3644	0.666
13.3979	0.665
13.4314	0.6631
13.4649	0.6625
13.4984	0.6699
13.5319	0.665
13.5654	0.662
13.599	0.6597
13.6325	0.6628
13.666	0.662
13.6995	0.6537
13.733	0.6432
13.7665	0.623
13.8	0.5909
13.8335	0.5405
13.867	0.4852
13.9005	0.4581
13.9341	0.4901
13.9676	0.5265
14.0011	0.5647
14.0346	0.5829
14.0681	0.6045
14.1016	0.6193
14.1351	0.629
14.1686	0.6353
14.2021	0.642
14.2356	0.65
14.2692	0.647
14.3027	0.648
14.3362	0.6431
14.3697	0.6479
14.4032	0.645
14.4367	0.6385
14.4702	0.645
14.5037	0.634
14.5372	0.6242
14.5707	0.6093
14.6043	0.5818
14.6378	0.5442
14.6713	0.5085
14.7048	0.4972
14.7383	0.5218
14.7718	0.5498
14.8053	0.5754
14.8388	0.5948
14.8723	0.6005
14.9058	0.6046
14.9394	0.598
14.9729	0.6112
15.0064	0.635
15.0399	0.63
15.0734	0.623
15.1069	0.6281
15.1404	0.6281
15.1739	0.6315
15.2074	0.6297
15.2409	0.633
15.2745	0.6315
15.308	0.638
15.3415	0.6393
15.375	0.633
15.4085	0.6335
