Infrared Spectrum: METHANESULFONIC ACID, 2-CHLOROETHYL ESTER
Formula: C3 H7 Cl O3 S
CAS: 3570-58-9
State: SOLUTION (10% CCl4 FOR 3800-400 CM^-^1))
Boiling point: 125 C AT 9 mmHg
Class: COBLENTZ
Instrument: BECKMAN IR-9 (GRATING)
Instrument parameters: ORDER CHANGES: 670, 1200, 2000 CM^-^1
Sampling: TRANSMISSION
Path length: 0.011 CM
Resolution: 2
Origin: DOW CHEMICAL COMPANY
1/CM	TRANSMITTANCE
404	0.5373
413	0.5292
422	0.5224
431	0.564
440	0.6236
449	0.6352
458	0.6415
467	0.6392
476	0.6414
485	0.6444
494	0.7687
503	0.7943
512	0.7151
521	0.4748
530	0.4781
539	0.6071
548	0.6562
557	0.7958
566	0.8527
575	0.8844
584	0.8993
593	0.9051
602	0.9024
611	0.8841
620	0.845
629	0.8138
638	0.8791
647	0.876
656	0.8453
665	0.7569
674	0.6377
683	0.6907
692	0.7214
701	0.632
710	0.4037
719	0.2941
728	0.1842
737	0.0233
746	0
755	0
764	0
773	0.0001
782	0.0001
791	0.0002
800	0.0002
809	0.0003
818	0.0248
827	0.1752
836	0.4022
845	0.5293
854	0.6492
863	0.7208
872	0.6882
881	0.5712
890	0.432
899	0.2976
908	0.594
917	0.7217
926	0.7414
935	0.72
944	0.5006
953	0.2206
962	0.1625
971	0.2385
980	0.3777
989	0.3734
998	0.3791
1007	0.3163
1016	0.1822
1025	0.6307
1034	0.7685
1043	0.8251
1052	0.8125
1061	0.7021
1070	0.5737
1079	0.638
1088	0.8154
1097	0.8452
1106	0.8524
1115	0.859
1124	0.888
1133	0.8989
1142	0.8948
1151	0.8739
1160	0.821
1169	0.5078
1178	0.0315
1187	0.2348
1196	0.5432
1205	0.5752
1214	0.6545
1223	0.6924
1232	0.7375
1241	0.7311
1250	0.6807
1259	0.6485
1268	0.7499
1277	0.8509
1286	0.873
1295	0.8474
1304	0.6462
1313	0.7668
1322	0.7414
1331	0.4535
1340	0.3482
1349	0.1136
1358	0.0914
1367	0.0962
1376	0.0889
1385	0.2654
1394	0.6788
1403	0.8449
1412	0.8204
1421	0.7918
1430	0.7974
1439	0.8538
1448	0.8707
1457	0.829
1466	0.8085
1475	0.8763
1484	0.8936
1493	0.8804
1502	0.8453
1511	0.7926
1520	0.7333
1529	0.6617
1538	0.5745
1547	0.4971
1556	0.4804
1565	0.5482
1574	0.6254
1583	0.6457
1592	0.6951
1601	0.7893
1610	0.8554
1619	0.8908
1628	0.9162
1637	0.9353
1646	0.9493
1655	0.9553
1664	0.9564
1673	0.9568
1682	0.9584
1691	0.9598
1700	0.9611
1709	0.9608
1718	0.9615
1727	0.9625
1736	0.9639
1745	0.9654
1754	0.9668
1763	0.97
1772	0.9713
1781	0.9694
1790	0.9688
1799	0.9689
1808	0.9674
1817	0.9655
1826	0.9633
1835	0.9628
1844	0.9634
1853	0.9639
1862	0.9645
1871	0.965
1880	0.9655
1889	0.9661
1898	0.9668
1907	0.9675
1916	0.9681
1925	0.9687
1934	0.9687
1943	0.9683
1952	0.972
1961	0.9671
1970	0.9627
1979	0.9643
1988	0.968
1997	0.9694
2006	0.9736
2015	0.9808
2024	0.9821
2033	0.9821
2042	0.9823
2051	0.9824
2060	0.9827
2069	0.9828
2078	0.9831
2087	0.9833
2096	0.9838
2105	0.9841
2114	0.9846
2123	0.9852
2132	0.9858
2141	0.9863
2150	0.9868
2159	0.987
2168	0.9873
2177	0.9875
2186	0.9877
2195	0.9878
2204	0.988
2213	0.9871
2222	0.9856
2231	0.9841
2240	0.982
2249	0.979
2258	0.9761
2267	0.973
2276	0.9694
2285	0.9657
2294	0.9628
2303	0.9621
2312	0.9625
2321	0.9637
2330	0.9645
2339	0.9652
2348	0.9657
2357	0.9661
2366	0.9662
2375	0.9678
2384	0.9721
2393	0.9788
2402	0.9857
2411	0.9883
2420	0.9904
2429	0.9915
2438	0.9925
2447	0.9932
2456	0.9931
2465	0.9928
2474	0.9918
2483	0.9905
2492	0.9892
2501	0.9871
2510	0.9846
2519	0.9818
2528	0.9786
2537	0.978
2546	0.9804
2555	0.9835
2564	0.9853
2573	0.9878
2582	0.9895
2591	0.991
2600	0.9921
2609	0.9923
2618	0.9924
2627	0.9921
2636	0.9918
2645	0.9917
2654	0.9916
2663	0.9915
2672	0.9913
2681	0.9911
2690	0.9909
2699	0.9906
2708	0.9904
2717	0.9899
2726	0.9892
2735	0.9884
2744	0.9877
2753	0.9868
2762	0.9858
2771	0.9846
2780	0.9835
2789	0.9834
2798	0.9834
2807	0.9835
2816	0.9835
2825	0.9835
2834	0.9818
2843	0.9765
2852	0.9694
2861	0.9675
2870	0.9682
2879	0.9628
2888	0.9562
2897	0.9504
2906	0.9505
2915	0.9515
2924	0.9556
2933	0.9406
2942	0.9068
2951	0.8749
2960	0.8657
2969	0.8461
2978	0.859
2987	0.8823
2996	0.9168
3005	0.9308
3014	0.9393
3023	0.9284
3032	0.918
3041	0.9144
3050	0.9206
3059	0.9418
3068	0.9568
3077	0.9636
3086	0.9666
3095	0.9675
3104	0.9685
3113	0.969
3122	0.9692
3131	0.9693
3140	0.9695
3149	0.9697
3158	0.9699
3167	0.9701
3176	0.9703
3185	0.9705
3194	0.9707
3203	0.9708
3212	0.971
3221	0.9712
3230	0.9715
3239	0.9717
3248	0.972
3257	0.9723
3266	0.9725
3275	0.9728
3284	0.9731
3293	0.9728
3302	0.9727
3311	0.9724
3320	0.9721
3329	0.9718
3338	0.9716
3347	0.9714
3356	0.9708
3365	0.97
3374	0.9691
3383	0.9682
3392	0.9674
3401	0.9665
3410	0.9656
3419	0.9647
3428	0.9639
3437	0.9631
3446	0.9624
3455	0.9617
3464	0.9611
3473	0.9604
3482	0.9597
3491	0.959
3500	0.9585
3509	0.9581
3518	0.9577
3527	0.9573
3536	0.957
3545	0.9565
3554	0.9562
3563	0.9556
3572	0.9551
3581	0.9546
3590	0.9541
3599	0.9536
3608	0.9533
3617	0.9528
3626	0.9521
3635	0.9513
3644	0.9506
3653	0.9501
3662	0.9501
3671	0.9502
3680	0.9502
3689	0.9498
3698	0.9489
3707	0.9482
3716	0.9482
3725	0.9482
3734	0.9488
3743	0.95
3752	0.9512
3761	0.9523
3770	0.9534
3779	0.9537
3788	0.9542
3797	0.9546
