Infrared Spectrum: N-Benzylisatoic anhydride
Formula: C 15 H 11 N O 3
CAS: 35710-05-5
State: gas
Origin: EPA-IR VAPOR PHASE LIBRARY
1/CM	ABSORBANCE
551.7	0.000579
563.274	0.0004393
574.848	0.0005258
586.421	0.0004347
597.995	0.0005276
609.569	0.0005944
621.143	0.0005379
632.717	0.0006024
644.291	0.0007949
655.864	0.001239
667.438	0.003029
679.012	0.004989
690.586	0.004309
702.16	0.005959
713.734	0.004699
725.307	0.002849
736.881	0.003629
748.455	0.009219
760.029	0.006959
771.603	0.001409
783.177	0.000938
794.75	0.0008184
806.324	0.0008172
817.898	0.0007632
829.472	0.0007108
841.046	0.0008476
852.619	0.000956
864.193	0.0006222
875.767	0.0005669
887.341	0.0006478
898.915	0.0006571
910.489	0.0007126
922.062	0.0009065
933.636	0.0008435
945.21	0.000794
956.784	0.001129
968.358	0.0008481
979.932	0.001129
991.505	0.001839
1003.08	0.003279
1014.65	0.008479
1026.23	0.020079
1037.8	0.011729
1049.37	0.003529
1060.95	0.004829
1072.52	0.003689
1084.1	0.002399
1095.67	0.001669
1107.24	0.001149
1118.82	0.001029
1130.39	0.001789
1141.97	0.001929
1153.54	0.001759
1165.11	0.002849
1176.69	0.003199
1188.26	0.005769
1199.83	0.002619
1211.41	0.001639
1222.98	0.001529
1234.56	0.003629
1246.13	0.008279
1257.7	0.009599
1269.28	0.007339
1280.85	0.006029
1292.42	0.007129
1304	0.009339
1315.57	0.015929
1327.15	0.013239
1338.72	0.007269
1350.29	0.006319
1361.87	0.008839
1373.44	0.007839
1385.02	0.004769
1396.59	0.002139
1408.16	0.001409
1419.74	0.001289
1431.31	0.001749
1442.88	0.003389
1454.46	0.005879
1466.03	0.010629
1477.61	0.016989
1489.18	0.014509
1500.75	0.009529
1512.33	0.004309
1523.9	0.001819
1535.48	0.001459
1547.05	0.001279
1558.62	0.001539
1570.2	0.001859
1581.77	0.003709
1593.34	0.008949
1604.92	0.013279
1616.49	0.009539
1628.07	0.004039
1639.64	0.001769
1651.21	0.001349
1662.79	0.001449
1674.36	0.001509
1685.93	0.001659
1697.51	0.002199
1709.08	0.002649
1720.66	0.004229
1732.23	0.007909
1743.8	0.012559
1755.38	0.034219
1766.95	0.062819
1778.53	0.018939
1790.1	0.015419
1801.67	0.034969
1813.25	0.033559
1824.82	0.009019
1836.39	0.004239
1847.97	0.002619
1859.54	0.001779
1871.12	0.001319
1882.69	0.001069
1894.26	0.0009474
1905.84	0.0009891
1917.41	0.001039
1928.99	0.001199
1940.56	0.001189
1952.13	0.001079
1963.71	0.0009046
1975.28	0.0005886
1986.85	0.0005284
1998.43	0.0004756
2010	0.0004628
2021.58	0.0004424
2033.15	0.0004628
2044.72	0.0004905
2056.3	0.0004696
2067.87	0.0004381
2079.44	0.0004379
2091.02	0.000438
2102.59	0.0003697
2114.17	0.0004031
2125.74	0.0003502
2137.31	0.0003959
2148.89	0.0003611
2160.46	0.0004076
2172.04	0.0004163
2183.61	0.0004102
2195.18	0.0004193
2206.76	0.0004322
2218.33	0.0004273
2229.9	0.0003709
2241.48	0.0004043
2253.05	0.0003504
2264.63	0.0004426
2276.2	0.0005245
2287.77	0.0004929
2299.35	0.0004506
2310.92	0.0004634
2322.5	0.0004405
2334.07	0.0004641
2345.64	0.000554
2357.22	0.0004582
2368.79	0.0003907
2380.36	0.0003692
2391.94	0.0003654
2403.51	0.0003135
2415.09	0.0003213
2426.66	0.0002774
2438.23	0.0003398
2449.81	0.0003404
2461.38	0.0003106
2472.96	0.0003141
2484.53	0.0003331
2496.1	0.0003548
2507.68	0.0003624
2519.25	0.0003501
2530.82	0.0003392
2542.4	0.0003315
2553.97	0.0002804
2565.55	0.0002527
2577.12	0.0003106
2588.69	0.0002402
2600.27	0.0003108
2611.84	0.0003428
2623.41	0.000374
2634.99	0.0003511
2646.56	0.0003784
2658.14	0.0003339
2669.71	0.0002804
2681.28	0.0003205
2692.86	0.0002724
2704.43	0.0003009
2716.01	0.0001913
2727.58	0.000253
2739.15	0.0002403
2750.73	0.0003546
2762.3	0.0002796
2773.87	0.0002639
2785.45	0.0003512
2797.02	0.0004044
2808.6	0.0003371
2820.17	0.0002935
2831.74	0.0002876
2843.32	0.0003667
2854.89	0.0003438
2866.47	0.0004016
2878.04	0.0005627
2889.61	0.0004661
2901.19	0.0005087
2912.76	0.0005661
2924.33	0.0006475
2935.91	0.0009412
2947.48	0.001169
2959.06	0.000917
2970.63	0.0008103
2982.2	0.0009041
2993.78	0.0008021
3005.35	0.0008196
3016.92	0.0010022
3028.5	0.001809
3040.07	0.002329
3051.65	0.001779
3063.22	0.002239
3074.79	0.003009
3086.37	0.002319
3097.94	0.001929
3109.52	0.0010149
3121.09	0.000537
3132.66	0.000435
3144.24	0.0002666
3155.81	0.0001845
3167.38	0.0002236
3178.96	0.0001914
3190.53	0.000299
3202.11	0.0001719
3213.68	0.000155
3225.25	0.0001783
3236.83	0.0002431
3248.4	0.0001995
3259.98	0.0001873
3271.55	0.0002177
3283.12	0.00029
3294.7	0.0002096
3306.27	0.0001848
3317.84	0.0001818
3329.42	0.0001433
3340.99	9.371e-05
3352.57	0.0002162
3364.14	0.0001796
3375.71	0.000184
3387.29	0.0001607
3398.86	0.0001955
3410.43	0.0003191
3422.01	0.0002325
3433.58	0.0001771
3445.16	0.0001914
3456.73	0.0001821
3468.3	0.0001825
3479.88	0.0003618
3491.45	0.000359
3503.03	0.0003766
3514.6	0.0003312
3526.17	0.0005884
3537.75	0.000416
3549.32	0.0006074
3560.89	0.0005452
3572.47	0.0003634
3584.04	0.0001939
3595.62	0.0003477
3607.19	0.000264
3618.76	0.0003423
3630.34	0.000215
3641.91	0.0001345
3653.49	0.0002538
3665.06	7.397e-05
3676.63	0.000165
3688.21	0.00012729
3699.78	8.218e-05
3711.35	0.0003022
3722.93	0.0002304
3734.5	0.0001464
3746.08	0.0002042
3757.65	0.0002287
3769.22	8.604e-05
3780.8	0.0001799
3792.37	0.0001794
3803.94	0.0001299
3815.52	0.00011606
3827.09	0.0001358
3838.67	7.349e-05
3850.24	0.00010943
3861.81	0.00010493
3873.39	0.0001524
3884.96	0.0002133
3896.54	0.0001677
3908.11	0.0001968
3919.68	0.00011971
3931.26	0.0001532
3942.83	0.0001406
3954.4	7.209e-05
3965.98	5.906e-05
3977.55	8.79e-05
3989.13	0.0002046
4000.7	9.948e-05
