Infrared Spectrum: Diethyl 5-amino-3-methylthiophene-2,4-dicarboxylate
Formula: C 11 H 15 N O 4 S
CAS: 35728-99-5
State: gas
Origin: EPA-IR VAPOR PHASE LIBRARY
1/CM	ABSORBANCE
549.8	0.01232
559.446	0.01137
569.092	0.01114
578.738	0.0119
588.384	0.01204
598.03	0.01173
607.676	0.01159
617.322	0.01187
626.968	0.01215
636.614	0.01349
646.26	0.01534
655.906	0.01592
665.552	0.01341
675.198	0.01084
684.844	0.00855
694.49	0.00738
704.136	0.00732
713.782	0.00745
723.428	0.00751
733.073	0.00857
742.719	0.01081
752.365	0.01763
762.011	0.02178
771.657	0.01742
781.303	0.01909
790.949	0.01989
800.595	0.01601
810.241	0.01368
819.887	0.01257
829.533	0.01171
839.179	0.01132
848.825	0.01183
858.471	0.01198
868.117	0.01039
877.763	0.0093
887.409	0.00996
897.055	0.01208
906.701	0.01114
916.347	0.00866
925.993	0.00757
935.639	0.00735
945.285	0.00772
954.931	0.00827
964.577	0.00948
974.223	0.01205
983.869	0.01508
993.515	0.0204
1003.16	0.03123
1012.81	0.04148
1022.45	0.05985
1032.1	0.06541
1041.74	0.06811
1051.39	0.09014
1061.04	0.0926
1070.68	0.07716
1080.33	0.09336
1089.97	0.1389
1099.62	0.14307
1109.27	0.11299
1118.91	0.11849
1128.56	0.07795
1138.2	0.04715
1147.85	0.03703
1157.5	0.0357
1167.14	0.04018
1176.79	0.04757
1186.43	0.06249
1196.08	0.10574
1205.73	0.16322
1215.37	0.26755
1225.02	0.49772
1234.66	0.39621
1244.31	0.21525
1253.96	0.1157
1263.6	0.08704
1273.25	0.08433
1282.89	0.06543
1292.54	0.04686
1302.19	0.04796
1311.83	0.06076
1321.48	0.07158
1331.12	0.05164
1340.77	0.02483
1350.42	0.02095
1360.06	0.02999
1369.71	0.04772
1379.35	0.05355
1389	0.06499
1398.65	0.06624
1408.29	0.08673
1417.94	0.06853
1427.58	0.05084
1437.23	0.05418
1446.88	0.06443
1456.52	0.09151
1466.17	0.12319
1475.81	0.09589
1485.46	0.04941
1495.11	0.03455
1504.75	0.0387
1514.4	0.05862
1524.04	0.10201
1533.69	0.14183
1543.34	0.09823
1552.98	0.05758
1562.63	0.05022
1572.27	0.07548
1581.92	0.12782
1591.57	0.11448
1601.21	0.06101
1610.86	0.03094
1620.5	0.01933
1630.15	0.0164
1639.79	0.0173
1649.44	0.0205
1659.09	0.02616
1668.73	0.04199
1678.38	0.09877
1688.02	0.17948
1697.67	0.13577
1707.32	0.12779
1716.96	0.13541
1726.61	0.17999
1736.25	0.10708
1745.9	0.05365
1755.55	0.02293
1765.19	0.0147
1774.84	0.01122
1784.48	0.00905
1794.13	0.00738
1803.78	0.00609
1813.42	0.00529
1823.07	0.00452
1832.71	0.00397
1842.36	0.0035
1852.01	0.00338
1861.65	0.00321
1871.3	0.00313
1880.94	0.00315
1890.59	0.00309
1900.24	0.00301
1909.88	0.00303
1919.53	0.00309
1929.17	0.00326
1938.82	0.00326
1948.47	0.00317
1958.11	0.00319
1967.76	0.0032
1977.4	0.00316
1987.05	0.00294
1996.7	0.00274
2006.34	0.00264
2015.99	0.00254
2025.63	0.00244
2035.28	0.00227
2044.93	0.0022003
2054.57	0.00225
2064.22	0.00238
2073.86	0.0024
2083.51	0.00243
2093.16	0.00241
2102.8	0.00238
2112.45	0.0022045
2122.09	0.0021258
2131.74	0.002026
2141.39	0.0018705
2151.03	0.0016539
2160.68	0.0013909
2170.32	0.0013916
2179.97	0.00126551
2189.62	0.0012067
2199.26	0.0012033
2208.91	0.00127065
2218.55	0.0013641
2228.2	0.0014475
2237.85	0.00138
2247.49	0.0013246
2257.14	0.0013265
2266.78	0.00122892
2276.43	0.00126961
2286.08	0.00125082
2295.72	0.0014115
2305.37	0.0015223
2315.01	0.0016182
2324.66	0.0015689
2334.31	0.0013626
2343.95	0.0014131
2353.6	0.0013326
2363.24	0.001385
2372.89	0.00130688
2382.53	0.00123815
2392.18	0.0011441
2401.83	0.001091
2411.47	0.001029
2421.12	0.001053
2430.76	0.001058
2440.41	0.000908
2450.06	0.000865
2459.7	0.000929
2469.35	0.000932
2478.99	0.00086
2488.64	0.000849
2498.29	0.000745
2507.93	0.000799
2517.58	0.000854
2527.22	0.001119
2536.87	0.0011605
2546.52	0.00126216
2556.16	0.0011233
2565.81	0.000932
2575.45	0.000876
2585.1	0.000896
2594.75	0.000947
2604.39	0.000905
2614.04	0.000879
2623.68	0.000806
2633.33	0.000711
2642.98	0.000562
2652.62	0.000685
2662.27	0.000743
2671.91	0.001077
2681.56	0.0015347
2691.21	0.0016753
2700.85	0.0017487
2710.5	0.0015041
2720.14	0.0016133
2729.79	0.0015559
2739.44	0.0015698
2749.08	0.0017444
2758.73	0.0016466
2768.37	0.0018124
2778.02	0.0017079
2787.67	0.0018164
2797.31	0.001936
2806.96	0.0021986
2816.6	0.00268
2826.25	0.00297
2835.9	0.00325
2845.54	0.0041
2855.19	0.00525
2864.83	0.00662
2874.48	0.00903
2884.13	0.01254
2893.77	0.01222
2903.42	0.01423
2913.06	0.01741
2922.71	0.01789
2932.36	0.02325
2942	0.03799
2951.65	0.03343
2961.29	0.03171
2970.94	0.03974
2980.59	0.05826
2990.23	0.05643
2999.88	0.03354
3009.52	0.02072
3019.17	0.01293
3028.82	0.00856
3038.46	0.00619
3048.11	0.00462
3057.75	0.00364
3067.4	0.00304
3077.04	0.00242
3086.69	0.0021447
3096.34	0.0018946
3105.98	0.0016756
3115.63	0.0015608
3125.27	0.0014883
3134.92	0.0013589
3144.57	0.0013665
3154.21	0.0015612
3163.86	0.0014976
3173.5	0.0013824
3183.15	0.0014423
3192.8	0.0013463
3202.44	0.00127183
3212.09	0.0011817
3221.73	0.001067
3231.38	0.0013376
3241.03	0.0016112
3250.67	0.0020629
3260.32	0.00311
3269.96	0.00327
3279.61	0.003
3289.26	0.00282
3298.9	0.0034
3308.55	0.00502
3318.19	0.00884
3327.84	0.0184
3337.49	0.03305
3347.13	0.03368
3356.78	0.02334
3366.42	0.01363
3376.07	0.00783
3385.72	0.00613
3395.36	0.00892
3405.01	0.01391
3414.65	0.00812
3424.3	0.00405
3433.95	0.0032
3443.59	0.00256
3453.24	0.00275
3462.88	0.00372
3472.53	0.00575
3482.18	0.00948
3491.82	0.01562
3501.47	0.02318
3511.11	0.02345
3520.76	0.01492
3530.41	0.00733
3540.05	0.0035
3549.7	0.0020216
3559.34	0.0011825
3568.99	0.000803
3578.64	0.000726
3588.28	0.000456
3597.93	0.000341
3607.57	0.000286
3617.22	0.00015
3626.87	0.000232
3636.51	0.000334
3646.16	0.000321
3655.8	0.000284
3665.45	0.0002
3675.1	6e-05
3684.74	0.00021
3694.39	0.000338
3704.03	0.00019
3713.68	0.00013
3723.33	0.00019
3732.97	0.000252
3742.62	0.000324
3752.26	0.000221
3761.91	0.000413
3771.56	0.000296
3781.2	0.000277
3790.85	0.000452
3800.49	0.000281
3810.14	0.000431
3819.78	0.000274
3829.43	0.000391
3839.08	0.000357
3848.72	0.000255
3858.37	0.00019
3868.01	0.00037
3877.66	0.000391
3887.31	0.00012
3896.95	0.000338
3906.6	0.00022
3916.24	0.00019
3925.89	0.000225
3935.54	0.000242
3945.18	0.000289
3954.83	0.000283
3964.47	0.000434
3974.12	0.000432
3983.77	0.000322
3993.41	0.000521
