Infrared Spectrum: Aniline, 2,4-dimethyl-6-tert-butyl-
Formula: C12 H19 N
CAS: 35735-32-1
State: LIQUID (NEAT)
Class: COBLENTZ III
Instrument: BECKMAN IR-4 (HYBRID PRISM-GRATING)
Instrument parameters: NaCl PRISM
Sampling: TRANSMISSION
Path length: CAPILLARY
Resolution: 2
Origin: MONSANTO (J. FREEMAN)
1/CM	TRANSMITTANCE
626	0.5841
635	0.5542
644	0.5491
653	0.5555
662	0.5816
671	0.592
680	0.6303
689	0.6534
698	0.6808
707	0.7114
716	0.7416
725	0.7702
734	0.7859
743	0.7408
752	0.422
761	0.6867
770	0.7273
779	0.7406
788	0.7424
797	0.7869
806	0.8154
815	0.8323
824	0.8395
833	0.8385
842	0.8143
851	0.4481
860	0.2702
869	0.7324
878	0.8103
887	0.7923
896	0.8262
905	0.8608
914	0.8618
923	0.8386
932	0.8119
941	0.8729
950	0.8562
959	0.7972
968	0.8601
977	0.8687
986	0.8466
995	0.7651
1004	0.7104
1013	0.5606
1022	0.6018
1031	0.6531
1040	0.7417
1049	0.8275
1058	0.8444
1067	0.841
1076	0.8193
1085	0.7892
1094	0.7375
1103	0.6899
1112	0.7624
1121	0.8716
1130	0.8854
1139	0.8771
1148	0.8268
1157	0.6037
1166	0.8457
1175	0.8767
1184	0.8513
1193	0.6875
1202	0.7061
1211	0.7983
1220	0.6566
1229	0.424
1238	0.5978
1247	0.4434
1256	0.2706
1265	0.3926
1274	0.3264
1283	0.6732
1292	0.714
1301	0.5223
1310	0.6743
1319	0.8246
1328	0.8781
1337	0.8859
1346	0.8799
1355	0.8597
1364	0.8006
1373	0.4827
1382	0.528
1391	0.7022
1400	0.5439
1409	0.5134
1418	0.5736
1427	0.5311
1436	0.3605
1445	0.1707
1454	0.1638
1463	0.2569
1472	0.2781
1481	0.2637
1490	0.0922
1499	0.0711
1508	0.3923
1517	0.663
1526	0.7242
1535	0.7491
1544	0.7884
1553	0.8005
1562	0.8027
1571	0.7923
1580	0.7742
1589	0.748
1598	0.637
1607	0.4509
1616	0.2476
1625	0.2649
1634	0.1632
1643	0.2034
1652	0.4079
1661	0.6362
1670	0.7111
1679	0.7614
1688	0.8275
1697	0.8696
1706	0.8978
1715	0.9008
1724	0.9054
1733	0.8894
1742	0.862
1751	0.8358
1760	0.8553
1769	0.8938
1778	0.8952
1787	0.8983
1796	0.9152
1805	0.9197
1814	0.922
1823	0.9233
1832	0.9241
1841	0.9249
1850	0.9256
1859	0.9262
1868	0.9267
1877	0.927
1886	0.9268
1895	0.9217
1904	0.9182
1913	0.9192
1922	0.9202
1931	0.9219
1940	0.9242
1949	0.927
1958	0.9304
1967	0.9306
1976	0.9301
1985	0.9293
1994	0.9279
2003	0.927
2012	0.9266
2021	0.9306
2030	0.9321
2039	0.9315
2048	0.9294
2057	0.9275
2066	0.9268
2075	0.9289
2084	0.931
2093	0.9321
2102	0.9325
2111	0.9319
2120	0.9312
2129	0.9304
2138	0.9296
2147	0.9288
2156	0.9281
2165	0.9274
2174	0.9268
2183	0.9264
2192	0.9259
2201	0.9255
2210	0.9253
2219	0.9251
2228	0.9249
2237	0.9246
2246	0.9242
2255	0.9238
2264	0.9235
2273	0.9231
2282	0.923
2291	0.9228
2300	0.9225
2309	0.9224
2318	0.9218
2327	0.9209
2336	0.9199
2345	0.9186
2354	0.9172
2363	0.9157
2372	0.9142
2381	0.9123
2390	0.9105
2399	0.9082
2408	0.9077
2417	0.9094
2426	0.9123
2435	0.9154
2444	0.9164
2453	0.9164
2462	0.9154
2471	0.9141
2480	0.9129
2489	0.9111
2498	0.9107
2507	0.9109
2516	0.912
2525	0.9126
2534	0.9119
2543	0.9088
2552	0.9049
2561	0.9013
2570	0.8991
2579	0.8993
2588	0.899
2597	0.8978
2606	0.8957
2615	0.8942
2624	0.8956
2633	0.8992
2642	0.9021
2651	0.9026
2660	0.9019
2669	0.9005
2678	0.8981
2687	0.8949
2696	0.891
2705	0.8862
2714	0.88
2723	0.8679
2732	0.8547
2741	0.841
2750	0.8151
2759	0.8027
2768	0.8152
2777	0.8355
2786	0.8557
2795	0.858
2804	0.8517
2813	0.8379
2822	0.8206
2831	0.7901
2840	0.7386
2849	0.6691
2858	0.6
2867	0.5313
2876	0.4631
2885	0.3953
2894	0.328
2903	0.2609
2912	0.2265
2921	0.2156
2930	0.2105
2939	0.19
2948	0.1643
2957	0.1511
2966	0.1386
2975	0.1267
2984	0.1144
2993	0.0975
3002	0.0829
3011	0.0805
3020	0.0817
3029	0.1553
3038	0.2617
3047	0.3674
3056	0.4726
3065	0.5717
3074	0.6481
3083	0.6643
3092	0.6802
3101	0.7713
3110	0.7959
3119	0.8154
3128	0.8345
3137	0.8422
3146	0.8442
3155	0.8454
3164	0.8462
3173	0.8465
3182	0.8462
3191	0.8452
3200	0.8436
3209	0.8406
3218	0.8367
3227	0.8348
3236	0.8352
3245	0.8398
3254	0.845
3263	0.8473
3272	0.8484
3281	0.8494
3290	0.8493
3299	0.8487
3308	0.8474
3317	0.8451
3326	0.8424
3335	0.8254
3344	0.7955
3353	0.7658
3362	0.7364
3371	0.707
3380	0.6778
3389	0.6487
3398	0.6198
3407	0.591
3416	0.5624
3425	0.534
3434	0.5058
3443	0.5034
3452	0.5929
3461	0.7133
3470	0.7335
3479	0.7128
3488	0.6817
3497	0.6507
3506	0.62
3515	0.5893
3524	0.5589
3533	0.5361
3542	0.557
3551	0.6435
3560	0.7202
3569	0.7479
3578	0.7734
3587	0.796
3596	0.8172
3605	0.8371
3614	0.8447
3623	0.8473
3632	0.8497
3641	0.8518
3650	0.854
3659	0.8559
3668	0.8572
3677	0.8584
3686	0.8597
3695	0.8607
3704	0.8618
3713	0.8619
3722	0.8616
3731	0.8612
3740	0.8608
3749	0.8602
3758	0.8595
3767	0.8589
3776	0.8584
3785	0.8578
3794	0.8571
3803	0.8564
3812	0.8558
3821	0.8552
3830	0.8545
3839	0.8539
3848	0.8533
3857	0.8526
3866	0.852
3875	0.8513
3884	0.8505
3893	0.8497
3902	0.849
3911	0.8483
3920	0.8475
3929	0.8467
3938	0.846
3947	0.8451
3956	0.8441
3965	0.843
3974	0.8419
3983	0.8409
3992	0.8398
