Infrared Spectrum: Cyclohexylamine, 2-tert-butyl
Formula: C10 H21 N
CAS: 35735-41-2
State: LIQUID (NEAT)
Class: COBLENTZ III
Instrument: BECKMAN IR-4 (HYBRID PRISM-GRATING)
Instrument parameters: NaCl PRISM
Sampling: TRANSMISSION
Path length: CAPILLARY
Resolution: 2
Origin: MONSANTO (J. FREEMAN)
1/CM	TRANSMITTANCE
627	0.5538
636	0.5415
645	0.5382
654	0.6569
663	0.8047
672	0.8411
681	0.8575
690	0.8515
699	0.8411
708	0.8239
717	0.7933
726	0.7439
735	0.609
744	0.5751
753	0.5961
762	0.4682
771	0.336
780	0.224
789	0.3161
798	0.3346
807	0.2777
816	0.37
825	0.2925
834	0.3263
843	0.3778
852	0.2429
861	0.4138
870	0.4933
879	0.5797
888	0.5419
897	0.5705
906	0.5721
915	0.4642
924	0.5012
933	0.5853
942	0.7018
951	0.7361
960	0.7784
969	0.813
978	0.765
987	0.5279
996	0.8081
1005	0.7763
1014	0.7012
1023	0.7572
1032	0.7453
1041	0.7227
1050	0.84
1059	0.8602
1068	0.7964
1077	0.7852
1086	0.7994
1095	0.8033
1104	0.8366
1113	0.8532
1122	0.8235
1131	0.8332
1140	0.7849
1149	0.7934
1158	0.8519
1167	0.8454
1176	0.828
1185	0.7037
1194	0.6736
1203	0.7505
1212	0.7483
1221	0.7543
1230	0.5815
1239	0.4505
1248	0.7324
1257	0.7456
1266	0.7609
1275	0.8102
1284	0.8777
1293	0.8948
1302	0.8745
1311	0.7894
1320	0.7261
1329	0.7454
1338	0.7832
1347	0.7356
1356	0.6731
1365	0.5439
1374	0.208
1383	0.3698
1392	0.5389
1401	0.4401
1410	0.5159
1419	0.7905
1428	0.7929
1437	0.7744
1446	0.5643
1455	0.2588
1464	0.2943
1473	0.3097
1482	0.2901
1491	0.2866
1500	0.4651
1509	0.6883
1518	0.7567
1527	0.7903
1536	0.7979
1545	0.7984
1554	0.7923
1563	0.7749
1572	0.7518
1581	0.7218
1590	0.6758
1599	0.623
1608	0.5708
1617	0.5192
1626	0.4681
1635	0.451
1644	0.532
1653	0.601
1662	0.7087
1671	0.7773
1680	0.8299
1689	0.8682
1698	0.8925
1707	0.9109
1716	0.9185
1725	0.9186
1734	0.9272
1743	0.9453
1752	0.9526
1761	0.9536
1770	0.9531
1779	0.9526
1788	0.9516
1797	0.9507
1806	0.9508
1815	0.951
1824	0.9512
1833	0.9513
1842	0.9514
1851	0.9515
1860	0.9516
1869	0.9517
1878	0.9518
1887	0.9519
1896	0.9522
1905	0.9524
1914	0.9528
1923	0.9535
1932	0.9544
1941	0.9553
1950	0.9562
1959	0.9571
1968	0.9581
1977	0.9591
1986	0.9602
1995	0.9607
2004	0.9609
2013	0.9609
2022	0.9606
2031	0.9602
2040	0.9599
2049	0.9598
2058	0.9602
2067	0.9603
2076	0.9602
2085	0.9595
2094	0.9573
2103	0.9553
2112	0.9534
2121	0.9532
2130	0.9547
2139	0.9557
2148	0.9546
2157	0.9525
2166	0.9502
2175	0.9497
2184	0.9492
2193	0.9493
2202	0.9497
2211	0.95
2220	0.95
2229	0.95
2238	0.9499
2247	0.9497
2256	0.9495
2265	0.9493
2274	0.9491
2283	0.9482
2292	0.9468
2301	0.9452
2310	0.9437
2319	0.9445
2328	0.9463
2337	0.9486
2346	0.9508
2355	0.9511
2364	0.9514
2373	0.9515
2382	0.9511
2391	0.9503
2400	0.9494
2409	0.9486
2418	0.9478
2427	0.947
2436	0.9458
2445	0.9446
2454	0.9434
2463	0.9421
2472	0.9406
2481	0.9391
2490	0.9376
2499	0.9365
2508	0.9354
2517	0.9343
2526	0.9332
2535	0.932
2544	0.9308
2553	0.9296
2562	0.9285
2571	0.9268
2580	0.9247
2589	0.9218
2598	0.9164
2607	0.9083
2616	0.8969
2625	0.8875
2634	0.8763
2643	0.8683
2652	0.8647
2661	0.8625
2670	0.8604
2679	0.8529
2688	0.8362
2697	0.8055
2706	0.7868
2715	0.7681
2724	0.7636
2733	0.7728
2742	0.7844
2751	0.789
2760	0.7892
2769	0.7872
2778	0.7837
2787	0.783
2796	0.7862
2805	0.7919
2814	0.7924
2823	0.7901
2832	0.775
2841	0.7615
2850	0.7447
2859	0.6757
2868	0.6271
2877	0.6017
2886	0.5615
2895	0.4797
2904	0.2249
2913	0.0962
2922	0.0921
2931	0.0867
2940	0.0761
2949	0.0596
2958	0.0448
2967	0.0345
2976	0.0273
2985	0.0242
2994	0.0234
3003	0.0249
3012	0.0601
3021	0.1299
3030	0.1992
3039	0.2682
3048	0.3367
3057	0.4048
3066	0.4931
3075	0.6268
3084	0.7168
3093	0.8171
3102	0.8285
3111	0.8369
3120	0.8424
3129	0.8455
3138	0.8461
3147	0.846
3156	0.8448
3165	0.8437
3174	0.8409
3183	0.8368
3192	0.8316
3201	0.8262
3210	0.8204
3219	0.8138
3228	0.8069
3237	0.7994
3246	0.7916
3255	0.7843
3264	0.7794
3273	0.7744
3282	0.7693
3291	0.7641
3300	0.7587
3309	0.7518
3318	0.7449
3327	0.7393
3336	0.7344
3345	0.7296
3354	0.7244
3363	0.7188
3372	0.7135
3381	0.7088
3390	0.7048
3399	0.7019
3408	0.699
3417	0.6962
3426	0.6936
3435	0.6933
3444	0.6941
3453	0.6975
3462	0.709
3471	0.7181
3480	0.726
3489	0.7337
3498	0.741
3507	0.7482
3516	0.7553
3525	0.7624
3534	0.7691
3543	0.7758
3552	0.7824
3561	0.789
3570	0.7955
3579	0.8017
3588	0.8064
3597	0.8107
3606	0.815
3615	0.8192
3624	0.8241
3633	0.8292
3642	0.8343
3651	0.8397
3660	0.8452
3669	0.8505
3678	0.8549
3687	0.859
3696	0.863
3705	0.8667
3714	0.8702
3723	0.8734
3732	0.8759
3741	0.8774
3750	0.878
3759	0.8785
3768	0.8791
3777	0.8797
3786	0.8803
3795	0.8811
3804	0.8841
3813	0.8892
3822	0.8938
3831	0.897
3840	0.8983
3849	0.899
3858	0.8995
3867	0.9001
3876	0.9002
3885	0.9002
3894	0.9002
3903	0.9001
3912	0.9001
3921	0.9
3930	0.8999
3939	0.8996
3948	0.8989
3957	0.8982
3966	0.8976
3975	0.8969
3984	0.8962
3993	0.8955
