Infrared Spectrum: VALERIC ACID, 3-HYDROXY-2,2,4-TRIMETHYL-
Formula: C8 H16 O3
CAS: 35763-45-2
State: SOLID (KBr PELLET)
Melting point: 95-98 C
Class: COBLENTZ
Instrument: Not specified, most likely a prism, grating, or hybrid spectrometer.
Sampling: TRANSMISSION
Resolution: 4
Origin: TENNESSEE EASTMAN COMPANY, RESEARCH LABORATORIES
MICROMETERS	TRANSMITTANCE
2.027	0.548
2.06796	0.559
2.10891	0.571
2.14987	0.579
2.19082	0.59
2.23178	0.6
2.27274	0.605
2.31369	0.62
2.35465	0.624
2.3956	0.636
2.43656	0.641
2.47751	0.65
2.51847	0.655
2.55943	0.665
2.60038	0.67
2.64134	0.674
2.68229	0.679
2.72325	0.686
2.76421	0.682
2.80516	0.644
2.84612	0.566
2.88707	0.291
2.92803	0.154
2.96899	0.48
3.00994	0.571
3.0509	0.634
3.09185	0.648
3.13281	0.627
3.17376	0.574
3.21472	0.552
3.25568	0.512
3.29663	0.439
3.33759	0.255
3.37854	0.2
3.4195	0.262
3.46046	0.327
3.50141	0.408
3.54237	0.382
3.58332	0.406
3.62428	0.452
3.66523	0.471
3.70619	0.485
3.74715	0.466
3.7881	0.418
3.82906	0.401
3.87001	0.433
3.91097	0.447
3.95193	0.506
3.99288	0.56
4.03384	0.612
4.07479	0.655
4.11575	0.696
4.15671	0.734
4.19766	0.756
4.23862	0.777
4.27957	0.783
4.32053	0.802
4.36148	0.823
4.40244	0.838
4.4434	0.843
4.48435	0.845
4.52531	0.849
4.56626	0.854
4.60722	0.864
4.64818	0.862
4.68913	0.864
4.73009	0.864
4.77104	0.864
4.812	0.873
4.85296	0.873
4.89391	0.869
4.93487	0.869
4.97582	0.869
5.01678	0.873
5.05773	0.862
5.09869	0.861
5.13965	0.857
5.1806	0.854
5.22156	0.847
5.26251	0.842
5.30347	0.837
5.34443	0.833
5.38538	0.83
5.42634	0.826
5.46729	0.823
5.50825	0.816
5.5492	0.811
5.59016	0.806
5.63112	0.797
5.67207	0.783
5.71303	0.72
5.75398	0.65
5.79494	0.336
5.8359	0.061
5.87685	0.075
5.91781	0.334
5.95876	0.535
5.99972	0.713
6.04068	0.78
6.08163	0.821
6.12259	0.849
6.16354	0.861
6.2045	0.873
6.24545	0.883
6.28641	0.898
6.32737	0.907
6.36832	0.902
6.40928	0.907
6.45023	0.898
6.49119	0.885
6.53215	0.864
6.5731	0.873
6.61406	0.891
6.65501	0.89
6.69597	0.864
6.73693	0.674
6.77788	0.55
6.81884	0.559
6.85979	0.619
6.90075	0.691
6.9417	0.765
6.98266	0.783
7.02362	0.807
7.06457	0.816
7.10553	0.78
7.14648	0.684
7.18744	0.567
7.2284	0.632
7.26935	0.675
7.31031	0.783
7.35126	0.79
7.39222	0.825
7.43317	0.802
7.47413	0.713
7.51509	0.396
7.55604	0.322
7.597	0.584
7.63795	0.665
7.67891	0.742
7.71987	0.74
7.76082	0.596
7.80178	0.382
7.84273	0.322
7.88369	0.492
7.92465	0.636
7.9656	0.694
8.00656	0.65
8.04751	0.614
8.08847	0.656
8.12942	0.716
8.17038	0.747
8.21134	0.708
8.25229	0.656
8.29325	0.73
8.3342	0.795
8.37516	0.799
8.41612	0.77
8.45707	0.629
8.49803	0.59
8.53898	0.663
8.57994	0.535
8.6209	0.307
8.66185	0.312
8.70281	0.581
8.74376	0.753
8.78472	0.813
8.82567	0.83
8.86663	0.818
8.90759	0.819
8.94854	0.826
8.9895	0.849
9.03045	0.873
9.07141	0.885
9.11237	0.874
9.15332	0.843
9.19428	0.859
9.23523	0.886
9.27619	0.9
9.31715	0.9
9.3581	0.9
9.39906	0.898
9.44001	0.89
9.48097	0.867
9.52192	0.852
9.56288	0.821
9.60384	0.73
9.64479	0.586
9.68575	0.289
9.7267	0.147
9.76766	0.193
9.80862	0.375
9.84957	0.619
9.89053	0.701
9.93148	0.692
9.97244	0.696
10.0134	0.699
10.0544	0.516
10.0953	0.332
10.1363	0.43
10.1772	0.578
10.2182	0.703
10.2591	0.747
10.3001	0.758
10.341	0.734
10.382	0.656
10.423	0.622
10.4639	0.644
10.5049	0.696
10.5458	0.684
10.5868	0.591
10.6277	0.602
10.6687	0.686
10.7096	0.74
10.7506	0.754
10.7916	0.74
10.8325	0.742
10.8735	0.758
10.9144	0.77
10.9554	0.775
10.9963	0.775
11.0373	0.77
11.0782	0.766
11.1192	0.763
11.1602	0.759
11.2011	0.765
11.2421	0.775
11.283	0.785
11.324	0.792
11.3649	0.778
11.4059	0.699
11.4469	0.662
11.4878	0.699
11.5288	0.763
11.5697	0.811
11.6107	0.84
11.6516	0.867
11.6926	0.883
11.7335	0.888
11.7745	0.895
11.8155	0.902
11.8564	0.9
11.8974	0.862
11.9383	0.823
11.9793	0.801
12.0202	0.83
12.0612	0.871
12.1021	0.897
12.1431	0.91
12.1841	0.919
12.225	0.927
12.266	0.936
12.3069	0.941
12.3479	0.948
12.3888	0.953
12.4298	0.96
12.4707	0.967
12.5117	0.969
12.5527	0.969
12.5936	0.97
12.6346	0.972
12.6755	0.974
12.7165	0.975
12.7574	0.977
12.7984	0.974
12.8393	0.958
12.8803	0.945
12.9213	0.945
12.9622	0.946
13.0032	0.939
13.0441	0.905
13.0851	0.888
13.126	0.903
13.167	0.939
13.208	0.955
13.2489	0.963
13.2899	0.967
13.3308	0.969
13.3718	0.975
13.4127	0.977
13.4537	0.977
13.4946	0.977
13.5356	0.977
13.5766	0.977
13.6175	0.975
13.6585	0.975
13.6994	0.972
13.7404	0.972
13.7813	0.972
13.8223	0.972
13.8632	0.972
13.9042	0.972
13.9452	0.969
13.9861	0.967
14.0271	0.963
14.068	0.96
14.109	0.958
14.1499	0.958
14.1909	0.957
14.2318	0.955
14.2728	0.955
14.3138	0.955
14.3547	0.948
14.3957	0.941
14.4366	0.933
14.4776	0.926
14.5185	0.915
14.5595	0.903
14.6005	0.888
14.6414	0.854
14.6824	0.823
14.7233	0.77
14.7643	0.71
14.8052	0.632
14.8462	0.543
14.8871	0.512
14.9281	0.536
14.9691	0.6
15.01	0.682
15.051	0.753
15.0919	0.79
15.1329	0.802
15.1738	0.811
15.2148	0.814
15.2557	0.814
15.2967	0.811
15.3377	0.802
15.3786	0.797
15.4196	0.792
15.4605	0.787
15.5015	0.782
15.5424	0.777
15.5834	0.773
15.6243	0.766
15.6653	0.763
15.7063	0.756
15.7472	0.753
15.7882	0.747
15.8291	0.74
15.8701	0.735
15.911	0.73
15.952	0.723
