Infrared Spectrum: p-Diethylaminobenzylidine rhodanine
Formula: C 14 H 16 N 2 O S
CAS: 35778-58-6
State: gas
Origin: EPA-IR VAPOR PHASE LIBRARY
1/CM	ABSORBANCE
501.5	0.001241
513.074	0.001141
524.648	0.0008383
536.222	0.0007714
547.796	0.0007221
559.37	0.0003609
570.944	0.0003297
582.518	0.0004873
594.092	0.0006453
605.666	0.0008315
617.24	0.001131
628.814	0.0009835
640.388	0.0004882
651.962	0.0004072
663.536	0.001131
675.11	0.001521
686.684	0.0003528
698.258	0.0003435
709.832	0.0003715
721.406	0.0005143
732.98	0.0005
744.554	0.0003553
756.128	0.0003013
767.702	0.0003061
779.276	0.0003536
790.85	0.0006345
802.423	0.0007663
813.997	0.001271
825.571	0.0006103
837.145	0.0003994
848.719	0.0003478
860.293	0.0003073
871.867	0.0003459
883.441	0.0003903
895.015	0.0005199
906.589	0.0004478
918.163	0.0003211
929.737	0.0003618
941.311	0.0002852
952.885	0.0002418
964.459	0.0002944
976.033	0.0004429
987.607	0.0007465
999.181	0.001301
1010.76	0.0008974
1022.33	0.0006669
1033.9	0.000465
1045.48	0.0006528
1057.05	0.001271
1068.63	0.001561
1080.2	0.001371
1091.77	0.001151
1103.35	0.0010579
1114.92	0.001351
1126.49	0.002781
1138.07	0.005841
1149.64	0.009561
1161.22	0.009211
1172.79	0.015631
1184.36	0.004991
1195.94	0.003631
1207.51	0.002591
1219.09	0.001961
1230.66	0.002091
1242.23	0.002611
1253.81	0.003111
1265.38	0.005691
1276.96	0.003951
1288.53	0.003741
1300.1	0.001781
1311.68	0.001281
1323.25	0.001541
1334.83	0.002511
1346.4	0.003611
1357.97	0.004021
1369.55	0.002661
1381.12	0.003371
1392.7	0.005051
1404.27	0.011261
1415.84	0.005231
1427.42	0.002101
1438.99	0.001131
1450.57	0.0009552
1462.14	0.0009987
1473.71	0.0011201
1485.29	0.0010727
1496.86	0.001641
1508.44	0.005281
1520.01	0.008051
1531.58	0.002871
1543.16	0.001631
1554.73	0.001781
1566.31	0.002711
1577.88	0.006361
1589.45	0.014871
1601.03	0.007261
1612.6	0.002851
1624.18	0.001501
1635.75	0.0009437
1647.32	0.0006717
1658.9	0.0005518
1670.47	0.0005466
1682.05	0.0005736
1693.62	0.0007305
1705.19	0.0010462
1716.77	0.001651
1728.34	0.003191
1739.92	0.008651
1751.49	0.006121
1763.06	0.001921
1774.64	0.0008911
1786.21	0.0006633
1797.79	0.0005442
1809.36	0.0004181
1820.93	0.0003542
1832.51	0.0003157
1844.08	0.0002967
1855.66	0.0002818
1867.23	0.0002835
1878.8	0.0003192
1890.38	0.0002797
1901.95	0.0002274
1913.53	0.00021554
1925.1	0.00020131
1936.67	0.00019524
1948.25	0.0002098
1959.82	0.00019062
1971.4	0.0001964
1982.97	0.0002421
1994.54	0.0002606
2006.12	0.0002421
2017.69	0.00019138
2029.27	0.00016994
2040.84	0.00020684
2052.41	0.00018827
2063.99	0.00017818
2075.56	0.000198
2087.14	0.00020308
2098.71	0.00020025
2110.28	0.00016495
2121.86	0.000191
2133.43	0.00017162
2145.01	0.00020971
2156.58	0.00019263
2168.15	0.00018374
2179.73	0.00016892
2191.3	0.00019487
2202.88	0.00019825
2214.45	0.00021855
2226.02	0.00022068
2237.6	0.0002426
2249.17	0.000229
2260.74	0.00021012
2272.32	0.0002614
2283.89	0.00021945
2295.47	0.0002268
2307.04	0.00021306
2318.61	0.00020458
2330.19	0.00019638
2341.76	0.00014889
2353.34	0.00017926
2364.91	0.0001671
2376.48	0.00015609
2388.06	0.00017888
2399.63	0.00021411
2411.21	0.00020254
2422.78	0.00017315
2434.35	0.00018647
2445.93	0.00019172
2457.5	0.000257
2469.08	0.0002572
2480.65	0.0002256
2492.22	0.0002334
2503.8	0.0002346
2515.37	0.0002499
2526.95	0.0002614
2538.52	0.0002758
2550.09	0.0002438
2561.67	0.0002265
2573.24	0.0002767
2584.82	0.0002646
2596.39	0.000308
2607.96	0.0002461
2619.54	0.0002648
2631.11	0.000256
2642.69	0.0002629
2654.26	0.0002289
2665.83	0.0002129
2677.41	0.00019291
2688.98	0.00017608
2700.56	0.00019417
2712.13	0.00019446
2723.7	0.00022041
2735.28	0.0002421
2746.85	0.0002865
2758.43	0.0003029
2770	0.0002993
2781.57	0.0003207
2793.15	0.000287
2804.72	0.0003796
2816.3	0.0004133
2827.87	0.0004407
2839.44	0.0004797
2851.02	0.0005782
2862.59	0.000695
2874.17	0.0008482
2885.74	0.0010679
2897.31	0.0009681
2908.89	0.0009303
2920.46	0.0009793
2932.04	0.001171
2943.61	0.001531
2955.18	0.001181
2966.76	0.001291
2978.33	0.002141
2989.91	0.001911
3001.48	0.0008695
3013.05	0.0005543
3024.63	0.0005187
3036.2	0.0005393
3047.78	0.0005194
3059.35	0.000364
3070.92	0.0003448
3082.5	0.0004646
3094.07	0.0004904
3105.65	0.0004359
3117.22	0.000324
3128.79	0.0002636
3140.37	0.000226
3151.94	0.00020844
3163.52	0.00019817
3175.09	0.0002473
3186.66	0.00017746
3198.24	0.00021679
3209.81	0.0001738
3221.39	0.00014466
3232.96	0.00014367
3244.53	0.0001066
3256.11	0.00014606
3267.68	0.00013835
3279.26	8.59e-05
3290.83	0.00011257
3302.4	0.00016543
3313.98	0.00014544
3325.55	0.00018171
3337.13	0.00012747
3348.7	0.00016833
3360.27	0.00019602
3371.85	0.00015353
3383.42	0.00014208
3395	0.00014427
3406.57	0.0002923
3418.14	0.0004786
3429.72	0.001461
3441.29	0.002081
3452.86	0.0003935
3464.44	0.0003268
3476.01	0.0002411
3487.59	0.00021903
3499.16	0.00018723
3510.73	0.000124524
3522.31	0.00017478
3533.88	8.16e-05
3545.46	0.00013852
3557.03	0.000129833
3568.6	0.00019846
3580.18	0.00011243
3591.75	0.00013462
3603.33	8.04e-05
3614.9	8.69e-05
3626.47	9.64e-05
3638.05	0.00013449
3649.62	0.00014334
3661.2	0.0001184
3672.77	8.71e-05
3684.34	4.46e-05
3695.92	0.00011633
3707.49	9.3e-05
3719.07	0.0001045
3730.64	0.00014748
3742.21	5.42e-05
3753.79	9.98e-05
3765.36	8.36e-05
3776.94	6.75e-05
3788.51	8.29e-05
3800.08	0.0001054
3811.66	0.0001059
3823.23	0.00014047
3834.81	0.000129373
3846.38	5.05e-05
3857.95	0.0001048
3869.53	0.00014403
3881.1	0.0001356
3892.68	9.39e-05
3904.25	7.09e-05
3915.82	0.00014138
3927.4	7.94e-05
3938.97	0.00018485
3950.55	0.0001113
3962.12	9.26e-05
3973.69	0.000129071
3985.27	0.00015861
3996.84	0.0001013
