Infrared Spectrum: PHOSPHOROUS ACID, METHYL DIPHENYL ESTER
Formula: C13 H13 O3 P
CAS: 3577-87-5
Boiling point: 123-125 C AT 0.2 mmHg
Class: COBLENTZ
Instrument: Not specified, most likely a prism, grating, or hybrid spectrometer.
Sampling: TRANSMISSION
Path length: SMEAR
Resolution: 4
Origin: TENNESSEE EASTMAN COMPANY, RESEARCH LABORATORIES
MICROMETERS	TRANSMITTANCE
2.051	0.908
2.0908	0.908
2.13061	0.906
2.17041	0.906
2.21021	0.905
2.25001	0.905
2.28982	0.906
2.32962	0.908
2.36942	0.908
2.40922	0.908
2.44903	0.908
2.48883	0.908
2.52863	0.908
2.56844	0.908
2.60824	0.908
2.64804	0.908
2.68784	0.91
2.72765	0.911
2.76745	0.911
2.80725	0.911
2.84706	0.911
2.88686	0.911
2.92666	0.91
2.96646	0.896
3.00627	0.88
3.04607	0.88
3.08587	0.895
3.12567	0.908
3.16548	0.908
3.20528	0.886
3.24508	0.785
3.28489	0.738
3.32469	0.792
3.36449	0.763
3.40429	0.851
3.4441	0.881
3.4839	0.886
3.5237	0.903
3.5635	0.93
3.60331	0.936
3.64311	0.938
3.68291	0.94
3.72272	0.941
3.76252	0.943
3.80232	0.943
3.84212	0.943
3.88193	0.941
3.92173	0.94
3.96153	0.94
4.00134	0.946
4.04114	0.941
4.08094	0.923
4.12074	0.905
4.16055	0.903
4.20035	0.926
4.24015	0.918
4.27995	0.9
4.31976	0.901
4.35956	0.945
4.39936	0.951
4.43917	0.951
4.47897	0.951
4.51877	0.95
4.55857	0.95
4.59838	0.95
4.63818	0.951
4.67798	0.951
4.71778	0.943
4.75759	0.938
4.79739	0.933
4.83719	0.93
4.877	0.93
4.9168	0.93
4.9566	0.931
4.9964	0.921
5.03621	0.911
5.07601	0.896
5.11581	0.866
5.15562	0.891
5.19542	0.911
5.23522	0.923
5.27502	0.91
5.31483	0.905
5.35463	0.891
5.39443	0.911
5.43423	0.931
5.47404	0.931
5.51384	0.93
5.55364	0.888
5.59345	0.873
5.63325	0.875
5.67305	0.906
5.71285	0.898
5.75266	0.878
5.79246	0.895
5.83226	0.903
5.87206	0.89
5.91187	0.913
5.95167	0.905
5.99147	0.908
6.03128	0.905
6.07108	0.885
6.11088	0.863
6.15068	0.841
6.19049	0.73
6.23029	0.366
6.27009	0.289
6.30989	0.64
6.3497	0.82
6.3895	0.835
6.4293	0.866
6.46911	0.833
6.50891	0.82
6.54871	0.758
6.58851	0.617
6.62832	0.362
6.66812	0.128
6.70792	0.272
6.74773	0.52
6.78753	0.677
6.82733	0.572
6.86713	0.747
6.90694	0.8
6.94674	0.841
6.98654	0.861
7.02634	0.865
7.06615	0.873
7.10595	0.871
7.14575	0.863
7.18556	0.873
7.22536	0.875
7.26516	0.868
7.30496	0.87
7.34477	0.875
7.38457	0.876
7.42437	0.871
7.46417	0.85
7.50398	0.86
7.54378	0.861
7.58358	0.851
7.62339	0.833
7.66319	0.816
7.70299	0.772
7.74279	0.697
7.7826	0.68
7.8224	0.683
7.8622	0.68
7.90201	0.668
7.94181	0.638
7.98161	0.565
8.02141	0.422
8.06122	0.357
8.10102	0.311
8.14082	0.281
8.18062	0.304
8.22043	0.227
8.26023	0.111
8.30003	0.076
8.33984	0.104
8.37964	0.193
8.41944	0.356
8.45924	0.427
8.49905	0.377
8.53885	0.271
8.57865	0.334
8.61845	0.497
8.65826	0.632
8.69806	0.71
8.73786	0.755
8.77767	0.777
8.81747	0.79
8.85727	0.798
8.89707	0.801
8.93688	0.801
8.97668	0.798
9.01648	0.792
9.05629	0.792
9.09609	0.792
9.13589	0.788
9.17569	0.757
9.2155	0.688
9.2553	0.562
9.2951	0.507
9.3349	0.61
9.37471	0.637
9.41451	0.61
9.45431	0.572
9.49412	0.502
9.53392	0.409
9.57372	0.301
9.61352	0.209
9.65333	0.164
9.69313	0.129
9.73293	0.116
9.77273	0.129
9.81254	0.227
9.85234	0.319
9.89214	0.427
9.93195	0.47
9.97175	0.535
10.0116	0.603
10.0514	0.628
10.0912	0.633
10.131	0.633
10.1708	0.63
10.2106	0.63
10.2504	0.635
10.2902	0.64
10.33	0.642
10.3698	0.637
10.4096	0.625
10.4494	0.613
10.4892	0.6
10.529	0.584
10.5688	0.579
10.6086	0.579
10.6484	0.58
10.6882	0.585
10.728	0.592
10.7678	0.595
10.8076	0.595
10.8474	0.562
10.8872	0.49
10.927	0.414
10.9668	0.351
11.0066	0.316
11.0464	0.309
11.0862	0.309
11.126	0.309
11.1658	0.309
11.2056	0.296
11.2454	0.274
11.2852	0.252
11.325	0.251
11.3648	0.246
11.4046	0.249
11.4445	0.246
11.4843	0.212
11.5241	0.161
11.5639	0.121
11.6037	0.093
11.6435	0.081
11.6833	0.089
11.7231	0.138
11.7629	0.236
11.8027	0.361
11.8425	0.467
11.8823	0.522
11.9221	0.554
11.9619	0.554
12.0017	0.53
12.0415	0.509
12.0813	0.502
12.1211	0.52
12.1609	0.564
12.2007	0.625
12.2405	0.662
12.2803	0.692
12.3201	0.703
12.3599	0.705
12.3997	0.703
12.4395	0.682
12.4793	0.65
12.5191	0.615
12.5589	0.575
12.5987	0.517
12.6385	0.454
12.6783	0.396
12.7181	0.341
12.7579	0.276
12.7977	0.251
12.8375	0.237
12.8773	0.229
12.9172	0.219
12.957	0.207
12.9968	0.199
13.0366	0.191
13.0764	0.186
13.1162	0.183
13.156	0.184
13.1958	0.194
13.2356	0.237
13.2754	0.266
13.3152	0.291
13.355	0.317
13.3948	0.331
13.4346	0.337
13.4744	0.344
13.5142	0.352
13.554	0.364
13.5938	0.381
13.6336	0.386
13.6734	0.389
13.7132	0.387
13.753	0.372
13.7928	0.347
13.8326	0.314
13.8724	0.286
13.9122	0.277
13.952	0.274
13.9918	0.282
14.0316	0.311
14.0714	0.347
14.1112	0.386
14.151	0.439
14.1908	0.462
14.2306	0.482
14.2704	0.48
14.3102	0.444
14.3501	0.392
14.3899	0.316
14.4297	0.252
14.4695	0.222
14.5093	0.224
14.5491	0.311
14.5889	0.415
14.6287	0.499
14.6685	0.57
14.7083	0.633
14.7481	0.67
14.7879	0.693
14.8277	0.703
14.8675	0.712
14.9073	0.712
14.9471	0.713
14.9869	0.72
15.0267	0.725
15.0665	0.723
15.1063	0.725
15.1461	0.725
15.1859	0.725
15.2257	0.727
15.2655	0.727
15.3053	0.727
15.3451	0.727
15.3849	0.727
15.4247	0.727
15.4645	0.725
15.5043	0.722
15.5441	0.722
15.5839	0.72
15.6237	0.715
15.6635	0.705
15.7033	0.698
15.7431	0.693
15.783	0.69
15.8228	0.692
15.8626	0.685
15.9024	0.677
15.9422	0.667
15.982	0.667
