Infrared Spectrum: 3-Methyl-4-nonanone
Formula: C 10 H 20 O
CAS: 35778-39-3
State: gas
Instrument: HP-GC/MS/IRD
Origin: NIST Mass Spectrometry Data Center
1/CM	ABSORBANCE
550	0.0002112
562	0.0001824
574	0.000224
586	0.00016
598	0.0001952
610	0.0002336
622	0.0001728
634	0
646	0.0001024
658	0.0001536
670	0.0001216
682	0.0001216
694	0.0001632
706	0.0002688
718	0.0004288
730	0.0005888
742	0.0006784
754	0.0006464
766	0.0006688
778	0.0006912
790	0.0006912
802	0.0005376
814	0.0003808
826	0.0004128
838	0.0003136
850	0.0003776
862	0.0002752
874	0.0003104
886	0.000304
898	0.0003648
910	0.0003872
922	0.0005952
934	0.000976
946	0.0013888
958	0.0016736
970	0.002016
982	0.002384
994	0.0027552
1006	0.0031296
1018	0.0030848
1030	0.00272
1042	0.003536
1054	0.0037632
1066	0.0027424
1078	0.0022688
1090	0.002032
1102	0.002224
1114	0.0025504
1126	0.0023744
1138	0.00176
1150	0.0015712
1162	0.0020608
1174	0.0021952
1186	0.0017312
1198	0.0016576
1210	0.0014752
1222	0.0013184
1234	0.001312
1246	0.0014208
1258	0.0016032
1270	0.001744
1282	0.0019168
1294	0.0021952
1306	0.0020704
1318	0.0018496
1330	0.002208
1342	0.0031104
1354	0.0040672
1366	0.0043264
1378	0.0043168
1390	0.0036544
1402	0.0023232
1414	0.0021888
1426	0.0022048
1438	0.0027712
1450	0.0045856
1462	0.0065024
1474	0.0046368
1486	0.002048
1498	0.001072
1510	0.0006848
1522	0.0005024
1534	0.0004288
1546	0.0003424
1558	0.0002944
1570	0.0002848
1582	0.0002848
1594	0.0002688
1606	0.0002592
1618	0.0002784
1630	0.000368
1642	0.0004416
1654	0.0005696
1666	0.0008928
1678	0.0014784
1690	0.0027424
1702	0.0066496
1714	0.0148576
1726	0.0164256
1738	0.0068064
1750	0.0021088
1762	0.0009536
1774	0.0005376
1786	0.0003456
1798	0.0002432
1810	0.000208
1822	0.0001504
1834	9.28e-05
1846	9.92e-05
1858	8.96e-05
1870	5.12e-05
1882	5.12e-05
1894	6.08e-05
1906	3.84e-05
1918	3.84e-05
1930	2.56e-05
1942	2.88e-05
1954	6.4e-06
1966	9.6e-06
1978	0
1990	3.2e-06
2002	3.2e-06
2014	3.84e-05
2026	3.2e-05
2038	4.48e-05
2050	1.6e-05
2062	3.52e-05
2074	2.24e-05
2086	2.88e-05
2098	9.6e-06
2110	2.24e-05
2122	2.88e-05
2134	2.24e-05
2146	1.6e-05
2158	1.6e-05
2170	2.56e-05
2182	2.88e-05
2194	1.28e-05
2206	2.24e-05
2218	2.24e-05
2230	2.56e-05
2242	3.2e-05
2254	6.4e-06
2266	9.6e-06
2278	1.92e-05
2290	3.2e-05
2302	3.84e-05
2314	2.88e-05
2326	5.12e-05
2338	4.8e-05
2350	4.16e-05
2362	2.24e-05
2374	5.76e-05
2386	7.36e-05
2398	8.32e-05
2410	8e-05
2422	7.04e-05
2434	5.76e-05
2446	6.08e-05
2458	3.2e-05
2470	6.08e-05
2482	4.16e-05
2494	4.48e-05
2506	2.56e-05
2518	4.8e-05
2530	4.8e-05
2542	4.8e-05
2554	6.08e-05
2566	0.000112
2578	0.0001152
2590	0.0001088
2602	0.000144
2614	0.0001504
2626	0.0001792
2638	0.0002336
2650	0.000272
2662	0.000272
2674	0.0003136
2686	0.0003296
2698	0.0003264
2710	0.0003584
2722	0.0004192
2734	0.0005472
2746	0.0006432
2758	0.0006592
2770	0.0006816
2782	0.0008256
2794	0.0010528
2806	0.0013664
2818	0.00176
2830	0.0023648
2842	0.0036
2854	0.0063616
2866	0.0107552
2878	0.0142752
2890	0.0154624
2902	0.0145216
2914	0.017008
2926	0.0238464
2938	0.0288256
2950	0.026736
2962	0.0283296
2974	0.0306528
2986	0.016192
2998	0.006864
3010	0.0034784
3022	0.0022208
3034	0.0016224
3046	0.0012896
3058	0.001104
3070	0.000944
3082	0.0008704
3094	0.0007712
3106	0.0006624
3118	0.00056
3130	0.0005312
3142	0.0004992
3154	0.000448
3166	0.0004512
3178	0.0003584
3190	0.000336
3202	0.0002656
3214	0.0002048
3226	0.0001472
3238	0.0001056
3250	8.64e-05
3262	8.64e-05
3274	7.36e-05
3286	7.68e-05
3298	2.88e-05
3310	2.88e-05
3322	5.44e-05
3334	6.72e-05
3346	7.04e-05
3358	5.44e-05
3370	6.4e-05
3382	0.0001088
3394	0.0001696
3406	0.0002272
3418	0.0003232
3430	0.0003008
3442	0.0002048
3454	0.0001152
3466	5.12e-05
3478	2.88e-05
3490	1.28e-05
3502	2.88e-05
3514	1.6e-05
3526	0
3538	2.56e-05
3550	9.6e-06
3562	4.48e-05
3574	4.8e-05
3586	6.08e-05
3598	3.2e-05
3610	4.48e-05
3622	5.44e-05
3634	3.84e-05
3646	5.12e-05
3658	3.2e-05
3670	1.92e-05
3682	4.8e-05
3694	5.12e-05
3706	9.28e-05
3718	9.6e-05
3730	7.68e-05
3742	8.96e-05
3754	5.12e-05
3766	8.96e-05
3778	0.0001088
3790	7.68e-05
3802	8.32e-05
3814	4.8e-05
3826	7.36e-05
3838	6.4e-05
