Infrared Spectrum: 4-Ethoxycoumarin
Formula: C 11 H 10 O 3
CAS: 35817-27-7
State: gas
Origin: EPA-IR VAPOR PHASE LIBRARY
1/CM	ABSORBANCE
549.9	0.0010353
559.547	0.0010919
569.193	0.0007727
578.84	0.0009577
588.486	0.0010584
598.133	0.0008636
607.779	0.0010835
617.426	0.0007986
627.072	0.0006687
636.719	0.0007238
646.365	0.0007748
656.012	0.0007959
665.658	0.0012306
675.305	0.001844
684.951	0.0015256
694.598	0.000729
704.245	0.00062959
713.891	0.0007429
723.538	0.0007757
733.184	0.0012654
742.831	0.004074
752.477	0.009994
762.124	0.010034
771.77	0.003584
781.417	0.0010482
791.063	0.000821
800.71	0.0010938
810.356	0.002454
820.003	0.005464
829.649	0.004684
839.296	0.002484
848.943	0.001854
858.589	0.002144
868.236	0.001954
877.882	0.002844
887.529	0.005394
897.175	0.007134
906.822	0.006254
916.468	0.008114
926.115	0.009484
935.761	0.004234
945.408	0.001814
955.054	0.0011158
964.701	0.000936
974.347	0.0008853
983.994	0.0009665
993.64	0.0012146
1003.29	0.002024
1012.93	0.003634
1022.58	0.005154
1032.23	0.005144
1041.87	0.002304
1051.52	0.0012999
1061.17	0.0014086
1070.81	0.0015105
1080.46	0.001844
1090.11	0.003344
1099.75	0.008474
1109.4	0.013414
1119.05	0.007924
1128.69	0.009684
1138.34	0.012984
1147.99	0.005924
1157.63	0.008434
1167.28	0.014674
1176.92	0.017454
1186.57	0.012034
1196.22	0.006944
1205.86	0.005994
1215.51	0.009154
1225.16	0.018024
1234.8	0.019054
1244.45	0.008884
1254.1	0.004294
1263.74	0.004694
1273.39	0.006164
1283.04	0.004174
1292.68	0.002954
1302.33	0.003134
1311.98	0.004664
1321.62	0.005114
1331.27	0.002834
1340.92	0.004084
1350.56	0.009464
1360.21	0.014764
1369.86	0.012164
1379.5	0.016334
1389.15	0.015374
1398.79	0.007684
1408.44	0.006754
1418.09	0.004454
1427.73	0.002314
1437.38	0.002214
1447.03	0.004194
1456.67	0.005064
1466.32	0.003014
1475.97	0.004124
1485.61	0.006094
1495.26	0.004644
1504.91	0.002344
1514.55	0.0014922
1524.2	0.0014021
1533.85	0.0013897
1543.49	0.0015537
1553.14	0.002324
1562.79	0.004534
1572.43	0.004764
1582.08	0.003254
1591.73	0.004224
1601.37	0.008154
1611.02	0.014364
1620.67	0.025494
1630.31	0.029554
1639.96	0.013174
1649.6	0.004444
1659.25	0.002884
1668.9	0.002464
1678.54	0.002304
1688.19	0.002114
1697.84	0.002184
1707.48	0.002484
1717.13	0.003434
1726.78	0.004794
1736.42	0.008564
1746.07	0.020404
1755.72	0.042884
1765.36	0.063904
1775.01	0.052294
1784.66	0.025634
1794.3	0.011714
1803.95	0.006034
1813.6	0.003714
1823.24	0.002474
1832.89	0.001874
1842.54	0.001614
1852.18	0.0014619
1861.83	0.0013248
1871.47	0.0011864
1881.12	0.0009962
1890.77	0.0008681
1900.41	0.0008211
1910.06	0.0009757
1919.71	0.0009947
1929.35	0.0007302
1939	0.0008369
1948.65	0.0008168
1958.29	0.00065259
1967.94	0.0005169
1977.59	0.0004914
1987.23	0.0005073
1996.88	0.0005301
2006.53	0.00059329
2016.17	0.00056093
2025.82	0.0005746
2035.47	0.00056058
2045.11	0.0005033
2054.76	0.0005116
2064.41	0.0004913
2074.05	0.0005261
2083.7	0.0005424
2093.35	0.0005041
2102.99	0.000445
2112.64	0.000452
2122.28	0.000424
2131.93	0.000414
2141.58	0.000367
2151.22	0.00037
2160.87	0.000385
2170.52	0.00037
2180.16	0.000403
2189.81	0.000343
2199.46	0.00033
2209.1	0.000301
2218.75	0.000331
2228.4	0.000362
2238.04	0.000385
2247.69	0.000363
2257.34	0.000356
2266.98	0.000342
2276.63	0.000342
2286.28	0.00038
2295.92	0.000407
2305.57	0.0005367
2315.22	0.00055705
2324.86	0.0004711
2334.51	0.0004984
2344.16	0.000431
2353.8	0.000402
2363.45	0.000451
2373.09	0.0004674
2382.74	0.000401
2392.39	0.000378
2402.03	0.000414
2411.68	0.000354
2421.33	0.000407
2430.97	0.0004662
2440.62	0.00046
2450.27	0.000456
2459.91	0.00043
2469.56	0.000383
2479.21	0.000342
2488.85	0.000388
2498.5	0.000341
2508.15	0.000357
2517.79	0.000276
2527.44	0.000247
2537.09	0.00024
2546.73	0.00023
2556.38	0.000188
2566.03	0.000171
2575.67	0.00021
2585.32	0.000169
2594.96	0.000136
2604.61	0.000107
2614.26	0.000183
2623.9	0.000144
2633.55	0.000163
2643.2	9.3e-05
2652.84	9.9e-05
2662.49	9.8e-05
2672.14	4.3e-05
2681.78	3.2e-05
2691.43	2.9e-05
2701.08	4.2e-05
2710.72	2.8e-05
2720.37	7.7e-05
2730.02	5.8e-05
2739.66	6.2e-05
2749.31	0.000124
2758.96	0.000162
2768.6	0.000168
2778.25	0.000139
2787.9	9.5e-05
2797.54	0.000113
2807.19	0.000257
2816.84	0.000161
2826.48	0.000174
2836.13	0.000187
2845.77	0.000235
2855.42	0.000171
2865.07	0.00035
2874.71	0.00061582
2884.36	0.0009177
2894.01	0.001313
2903.65	0.001584
2913.3	0.001604
2922.95	0.00153
2932.59	0.001634
2942.24	0.002764
2951.89	0.002714
2961.53	0.001584
2971.18	0.001604
2980.83	0.002844
2990.47	0.004944
3000.12	0.003894
3009.77	0.001764
3019.41	0.0008299
3029.06	0.00062455
3038.71	0.0007411
3048.35	0.0008286
3058	0.0010327
3067.64	0.0014382
3077.29	0.001854
3086.94	0.002164
3096.58	0.0011504
3106.23	0.0006037
3115.88	0.000378
3125.52	0.000168
3135.17	0.000151
3144.82	5.5e-05
3154.46	0.000108
3164.11	0.000136
3173.76	0.000185
3183.4	0.000249
3193.05	0.000128
3202.7	9.3e-05
3212.34	0.000222
3221.99	0.000195
3231.64	0.000118
3241.28	0.000131
3250.93	0.000218
3260.58	0.000209
3270.22	0.000201
3279.87	0.000267
3289.52	0.000177
3299.16	6.9e-05
3308.81	0.000184
3318.45	0.000327
3328.1	0.000253
3337.75	0.000301
3347.39	0.000306
3357.04	0.000389
3366.69	0.00033
3376.33	0.000321
3385.98	0.000282
3395.63	0.0004727
3405.27	0.000304
3414.92	0.000404
3424.57	0.000438
3434.21	0.000436
3443.86	0.0004948
3453.51	0.000423
3463.15	0.00055591
3472.8	0.0004995
3482.45	0.00063102
3492.09	0.0007858
3501.74	0.0009713
3511.39	0.0010006
3521.03	0.001006
3530.68	0.0008258
3540.33	0.0006939
3549.97	0.0005459
3559.62	0.00065227
3569.26	0.000529
3578.91	0.0005141
3588.56	0.00056158
3598.2	0.000425
3607.85	0.000488
3617.5	0.0004674
3627.14	0.000457
3636.79	0.000408
3646.44	0.000401
3656.08	0.0004662
3665.73	0.000408
3675.38	0.0004649
3685.02	0.0004766
3694.67	0.0004739
3704.32	0.0004673
3713.96	0.000411
3723.61	0.000414
3733.26	0.000409
3742.9	0.0004817
3752.55	0.0005106
3762.2	0.0005334
3771.84	0.000419
3781.49	0.000424
3791.13	0.0004748
3800.78	0.000421
3810.43	0.000459
3820.07	0.0004646
3829.72	0.000455
3839.37	0.0005385
3849.01	0.000414
3858.66	0.00034
3868.31	0.0004775
3877.95	0.000384
3887.6	0.00041
3897.25	0.000417
3906.89	0.000431
3916.54	0.000435
3926.19	0.0005314
3935.83	0.000399
3945.48	0.0004821
3955.13	0.000372
3964.77	0.000375
3974.42	0.000405
3984.07	0.0005166
3993.71	0.000321
