Infrared Spectrum: 1,5-DICHLOROHEXAMETHYLTRISILOXANE
Formula: C6 H18 Cl2 O2 Si3
CAS: 3582-71-6
State: SOLUTION (6% IN CCl4 FOR 3800-1300, 2% IN CS2 FOR 1300-425, AND 6% IN CCl4 FOR 425-250 CM^-^1) VS. SOLVENT
Boiling point: 45 C AT 4 mmHg
Class: COBLENTZ III
Instrument: PERKIN-ELMER 521 (GRATING)
Instrument parameters: FILTERS AT 3150, 2500, 2000, 1150, 700, 410. GRATING CHANGES: 2000, 630 CM^-^1
Sampling: TRANSMISSION
Path length: 0.011 CM, 0.011 CM, AND 0.021 CM
Resolution: 2
Origin: DOW CORNING CORP.
1/CM	TRANSMITTANCE
209.81	0.75
219.043	0.747
228.275	0.745
237.508	0.747
246.74	0.75
255.973	0.75
265.205	0.749
274.438	0.718
283.67	0.652
292.903	0.596
302.136	0.618
311.368	0.681
320.601	0.716
329.833	0.713
339.066	0.656
348.298	0.527
357.531	0.278
366.764	0.291
375.996	0.405
385.229	0.581
394.461	0.713
403.694	0.887
412.926	0.887
422.159	0.887
431.391	0.887
440.624	0.887
449.857	0.887
459.089	0.719
468.322	0.532
477.554	0.664
486.787	0.824
496.019	0.864
505.252	0.869
514.485	0.855
523.717	0.827
532.95	0.755
542.182	0.774
551.415	0.839
560.647	0.863
569.88	0.872
579.112	0.867
588.345	0.845
597.578	0.775
606.81	0.789
616.043	0.864
625.275	0.881
634.508	0.874
643.74	0.868
652.973	0.847
662.205	0.66
671.438	0.693
680.671	0.811
689.903	0.766
699.136	0.789
708.368	0.81
717.601	0.852
726.833	0.851
736.066	0.838
745.299	0.831
754.531	0.821
763.764	0.797
772.996	0.737
782.229	0.588
791.461	0.3159
800.694	0.077
809.926	0.167
819.159	0.208
828.392	0.2022
837.624	0.593
846.857	0.652
856.089	0.652
865.322	0.687
874.554	0.751
883.787	0.8
893.02	0.821
902.252	0.84
911.485	0.854
920.717	0.859
929.95	0.86
939.182	0.86
948.415	0.856
957.647	0.856
966.88	0.848
976.113	0.829
985.345	0.795
994.578	0.729
1003.81	0.562
1013.04	0.433
1022.28	0.44
1031.51	0.2869
1040.74	0.084
1049.97	0.097
1059.21	0.216
1068.44	0.299
1077.67	0.274
1086.9	0.215
1096.14	0.257
1105.37	0.382
1114.6	0.519
1123.83	0.633
1133.07	0.692
1142.3	0.755
1151.53	0.789
1160.76	0.816
1170	0.831
1179.23	0.847
1188.46	0.858
1197.69	0.86
1206.93	0.858
1216.16	0.851
1225.39	0.834
1234.62	0.792
1243.86	0.6929
1253.09	0.2309
1262.32	0.5002
1271.55	0.78
1280.79	0.822
1290.02	0.822
1299.25	0.822
1308.48	0.822
1317.72	0.822
1326.95	0.822
1336.18	0.822
1345.42	0.82
1354.65	0.81
1363.88	0.807
1373.11	0.787
1382.35	0.762
1391.58	0.636
1400.81	0.627
1410.04	0.659
1419.28	0.741
1428.51	0.796
1437.74	0.794
1446.97	0.795
1456.21	0.816
1465.44	0.827
1474.67	0.829
1483.9	0.829
1493.14	0.83
1502.37	0.83
1511.6	0.83
1520.83	0.83
1530.07	0.83
1539.3	0.83
1548.53	0.83
1557.76	0.831
1567	0.831
1576.23	0.83
1585.46	0.829
1594.69	0.839
1603.93	0.846
1613.16	0.848
1622.39	0.845
1631.62	0.839
1640.86	0.84
1650.09	0.846
1659.32	0.854
1668.55	0.855
1677.79	0.854
1687.02	0.853
1696.25	0.854
1705.48	0.858
1714.72	0.863
1723.95	0.863
1733.18	0.866
1742.42	0.866
1751.65	0.862
1760.88	0.866
1770.11	0.864
1779.35	0.868
1788.58	0.866
1797.81	0.868
1807.04	0.87
1816.28	0.872
1825.51	0.874
1834.74	0.874
1843.97	0.872
1853.21	0.872
1862.44	0.872
1871.67	0.871
1880.9	0.871
1890.14	0.872
1899.37	0.869
1908.6	0.867
1917.83	0.866
1927.07	0.856
1936.3	0.86
1945.53	0.855
1954.76	0.861
1964	0.866
1973.23	0.869
1982.46	0.875
1991.69	0.882
2000.93	0.885
2010.16	0.885
2019.39	0.886
2028.62	0.886
2037.86	0.887
2047.09	0.8833
2056.32	0.881
2065.55	0.8807
2074.79	0.882
2084.02	0.885
2093.25	0.89
2102.49	0.891
2111.72	0.892
2120.95	0.893
2130.18	0.893
2139.42	0.8932
2148.65	0.894
2157.88	0.8943
2167.11	0.895
2176.35	0.897
2185.58	0.897
2194.81	0.897
2204.04	0.897
2213.28	0.897
2222.51	0.898
2231.74	0.898
2240.97	0.8988
2250.21	0.899
2259.44	0.9
2268.67	0.901
2277.9	0.903
2287.14	0.905
2296.37	0.905
2305.6	0.905
2314.83	0.906
2324.07	0.906
2333.3	0.907
2342.53	0.907
2351.76	0.907
2361	0.907
2370.23	0.906
2379.46	0.905
2388.69	0.9026
2397.93	0.905
2407.16	0.906
2416.39	0.905
2425.62	0.903
2434.86	0.903
2444.09	0.903
2453.32	0.903
2462.55	0.903
2471.79	0.903
2481.02	0.903
2490.25	0.903
2499.49	0.9033
2508.72	0.905
2517.95	0.905
2527.18	0.9053
2536.42	0.906
2545.65	0.906
2554.88	0.906
2564.11	0.906
2573.35	0.906
2582.58	0.906
2591.81	0.906
2601.04	0.906
2610.28	0.906
2619.51	0.905
2628.74	0.9022
2637.97	0.902
2647.21	0.902
2656.44	0.902
2665.67	0.902
2674.9	0.902
2684.14	0.902
2693.37	0.902
2702.6	0.902
2711.83	0.902
2721.07	0.902
2730.3	0.901
2739.53	0.8996
2748.76	0.898
2758	0.895
2767.23	0.892
2776.46	0.8881
2785.69	0.8853
2794.93	0.8884
2804.16	0.89
2813.39	0.89
2822.62	0.8861
2831.86	0.885
2841.09	0.884
2850.32	0.882
2859.56	0.8809
2868.79	0.8767
2878.02	0.8677
2887.25	0.8544
2896.49	0.8229
2905.72	0.8106
2914.95	0.8436
2924.18	0.8468
2933.42	0.8322
2942.65	0.8049
2951.88	0.7332
2961.11	0.4717
2970.35	0.4636
2979.58	0.6538
2988.81	0.8291
2998.04	0.8754
3007.28	0.8849
3016.51	0.891
3025.74	0.893
3034.97	0.893
3044.21	0.893
3053.44	0.893
3062.67	0.893
3071.9	0.893
3081.14	0.893
3090.37	0.893
3099.6	0.893
3108.83	0.894
3118.07	0.8963
3127.3	0.9055
3136.53	0.9065
3145.76	0.908
3155	0.9106
3164.23	0.911
3173.46	0.911
3182.69	0.911
3191.93	0.911
3201.16	0.913
3210.39	0.913
3219.62	0.914
3228.86	0.915
3238.09	0.915
3247.32	0.916
3256.56	0.916
3265.79	0.916
3275.02	0.916
3284.25	0.916
3293.49	0.916
3302.72	0.916
3311.95	0.916
3321.18	0.916
3330.42	0.916
3339.65	0.916
3348.88	0.916
3358.11	0.916
3367.35	0.916
3376.58	0.918
3385.81	0.918
3395.04	0.918
3404.28	0.918
3413.51	0.918
3422.74	0.918
3431.97	0.918
3441.21	0.918
3450.44	0.918
3459.67	0.918
3468.9	0.918
3478.14	0.918
3487.37	0.918
3496.6	0.918
3505.83	0.919
3515.07	0.919
3524.3	0.919
3533.53	0.919
3542.76	0.919
3552	0.918
3561.23	0.9172
3570.46	0.916
3579.69	0.9091
3588.93	0.907
3598.16	0.913
3607.39	0.914
3616.63	0.914
3625.86	0.914
3635.09	0.911
3644.32	0.9098
3653.56	0.906
3662.79	0.909
3672.02	0.9056
3681.25	0.902
3690.49	0.9005
3699.72	0.895
3708.95	0.895
3718.18	0.8976
3727.42	0.899
3736.65	0.897
3745.88	0.895
3755.11	0.8978
3764.35	0.902
3773.58	0.9009
3782.81	0.902
3792.04	0.907
