Infrared Spectrum: cis-6-Nonen-1-ol
Formula: C 9 H 18 O
CAS: 35854-86-5
State: gas
Origin: EPA-IR VAPOR PHASE LIBRARY
1/CM	ABSORBANCE
549.8	0.00323
559.445	0.00299
569.09	0.00404
578.734	0.00397
588.379	0.00386
598.024	0.00382
607.669	0.00328
617.313	0.00274
626.958	0.00372
636.603	0.00448
646.248	0.00513
655.893	0.00528
665.537	0.00594
675.182	0.00723
684.827	0.00915
694.472	0.0116
704.116	0.01354
713.761	0.01333
723.406	0.01194
733.051	0.00977
742.695	0.00843
752.34	0.00707
761.985	0.00552
771.63	0.00491
781.275	0.00488
790.919	0.00504
800.564	0.0047
810.209	0.0051
819.854	0.00424
829.498	0.00413
839.143	0.0037
848.788	0.00462
858.433	0.00534
868.078	0.00628
877.722	0.00714
887.367	0.00662
897.012	0.00633
906.657	0.00579
916.301	0.00632
925.946	0.00634
935.591	0.00656
945.236	0.00804
954.88	0.00948
964.525	0.00998
974.17	0.01167
983.815	0.0132
993.46	0.0153
1003.1	0.0183
1012.75	0.02166
1022.39	0.02777
1032.04	0.03656
1041.68	0.04272
1051.33	0.04239
1060.97	0.03575
1070.62	0.03243
1080.26	0.02473
1089.91	0.0152
1099.55	0.01156
1109.2	0.00822
1118.84	0.00659
1128.49	0.00702
1138.13	0.00603
1147.78	0.00579
1157.42	0.00631
1167.07	0.00659
1176.71	0.00774
1186.36	0.00915
1196	0.00932
1205.64	0.01082
1215.29	0.00937
1224.93	0.0101
1234.58	0.01128
1244.22	0.01124
1253.87	0.0115
1263.51	0.01154
1273.16	0.01108
1282.8	0.01123
1292.45	0.01122
1302.09	0.01274
1311.74	0.01166
1321.38	0.00986
1331.03	0.00903
1340.67	0.0098
1350.32	0.01063
1359.96	0.01086
1369.61	0.0115
1379.25	0.01359
1388.9	0.01427
1398.54	0.01387
1408.18	0.01171
1417.83	0.00892
1427.47	0.00892
1437.12	0.01122
1446.76	0.01414
1456.41	0.01644
1466.05	0.01544
1475.7	0.01217
1485.34	0.00823
1494.99	0.00498
1504.63	0.00358
1514.28	0.00307
1523.92	0.00251
1533.57	0.00263
1543.21	0.00239
1552.86	0.0015934
1562.5	0.0020025
1572.15	0.0023
1581.79	0.00229
1591.44	0.0017212
1601.08	0.0021372
1610.73	0.0019058
1620.37	0.00247
1630.01	0.00261
1639.66	0.00352
1649.3	0.0038
1658.95	0.0038
1668.59	0.00333
1678.24	0.00295
1687.88	0.00257
1697.53	0.00246
1707.17	0.00233
1716.82	0.0020457
1726.46	0.0019421
1736.11	0.0019075
1745.75	0.0018502
1755.4	0.0016737
1765.04	0.002116
1774.69	0.0016465
1784.33	0.0015538
1793.98	0.0016262
1803.62	0.001618
1813.27	0.0017176
1822.91	0.0015299
1832.55	0.0014965
1842.2	0.0015042
1851.84	0.0014985
1861.49	0.0016022
1871.13	0.0013017
1880.78	0.0015673
1890.42	0.0013437
1900.07	0.0011204
1909.71	0.0014265
1919.36	0.0016175
1929	0.001412
1938.65	0.0014943
1948.29	0.0013763
1957.94	0.0013501
1967.58	0.0014304
1977.23	0.0015695
1986.87	0.0015356
1996.52	0.0014168
2006.16	0.0013636
2015.81	0.0013041
2025.45	0.0017928
2035.1	0.0016942
2044.74	0.0020367
2054.38	0.0017805
2064.03	0.0016927
2073.67	0.0015071
2083.32	0.0015257
2092.96	0.0013991
2102.61	0.0014255
2112.25	0.0014246
2121.9	0.0013007
2131.54	0.0013987
2141.19	0.0013542
2150.83	0.0011319
2160.48	0.001076
2170.12	0.00119846
2179.77	0.0013941
2189.41	0.0014107
2199.06	0.0012972
2208.7	0.001374
2218.35	0.0011478
2227.99	0.0015532
2237.64	0.0011242
2247.28	0.0011147
2256.92	0.0012907
2266.57	0.0015177
2276.21	0.0015082
2285.86	0.0012989
2295.5	0.00127183
2305.15	0.0015853
2314.79	0.001313
2324.44	0.0017077
2334.08	0.0016225
2343.73	0.0015692
2353.37	0.001372
2363.02	0.0018508
2372.66	0.00138
2382.31	0.0015774
2391.95	0.0015573
2401.6	0.0015851
2411.24	0.0013445
2420.89	0.0014187
2430.53	0.0015331
2440.18	0.0015114
2449.82	0.00127504
2459.47	0.0015693
2469.11	0.0016207
2478.75	0.0018149
2488.4	0.0016545
2498.04	0.0015759
2507.69	0.0013032
2517.33	0.0018049
2526.98	0.001918
2536.62	0.0018079
2546.27	0.0018168
2555.91	0.0019436
2565.56	0.0014921
2575.2	0.0018324
2584.85	0.0019899
2594.49	0.0011796
2604.14	0.0019985
2613.78	0.0017621
2623.43	0.0024
2633.07	0.0021716
2642.72	0.00227
2652.36	0.00292
2662.01	0.00283
2671.65	0.00255
2681.29	0.00277
2690.94	0.00321
2700.58	0.00339
2710.23	0.00329
2719.87	0.00343
2729.52	0.00379
2739.16	0.0043
2748.81	0.00492
2758.45	0.00506
2768.1	0.00492
2777.74	0.00578
2787.39	0.00634
2797.03	0.00704
2806.68	0.00817
2816.32	0.01042
2825.97	0.01259
2835.61	0.01899
2845.26	0.02849
2854.9	0.04563
2864.55	0.06246
2874.19	0.06988
2883.84	0.07103
2893.48	0.06739
2903.12	0.07031
2912.77	0.08605
2922.41	0.11198
2932.06	0.14216
2941.7	0.14481
2951.35	0.11231
2960.99	0.0894
2970.64	0.08136
2980.28	0.05976
2989.93	0.03813
2999.57	0.03562
3009.22	0.04388
3018.86	0.03802
3028.51	0.02065
3038.15	0.01067
3047.8	0.0075
3057.44	0.0063
3067.09	0.00527
3076.73	0.00472
3086.38	0.00312
3096.02	0.00362
3105.67	0.00264
3115.31	0.00303
3124.95	0.00221
3134.6	0.00258
3144.24	0.0026
3153.89	0.0015487
3163.53	0.00278
3173.18	0.000998
3182.82	0.0017682
3192.47	0.000999
3202.11	0.0020072
3211.76	0.000901
3221.4	0.001086
3231.05	0.0011786
3240.69	0.000728
3250.34	0.0014769
3259.98	0.000733
3269.63	0.000894
3279.27	0.000679
3288.92	0.00127335
3298.56	0.001046
3308.21	0.000784
3317.85	0.001003
3327.49	0.000817
3337.14	0.000438
3346.78	0.0011527
3356.43	0.00126393
3366.07	0.000504
3375.72	0.00119987
3385.36	0.0004
3395.01	0.0013342
3404.65	0.0016717
3414.3	0.0013352
3423.94	0.0014556
3433.59	0.000998
3443.23	0.0014201
3452.88	0.00118208
3462.52	0.0013708
3472.17	0.0016112
3481.81	0.00218
3491.46	0.0015086
3501.1	0.0013276
3510.75	0.0013894
3520.39	0.000474
3530.04	0.000792
3539.68	0.000356
3549.32	0.00087
3558.97	0.00125888
3568.61	0.001325
3578.26	0.000639
3587.9	0.0013072
3597.55	0.0014409
3607.19	0.0014173
3616.84	0.00229
3626.48	0.00227
3636.13	0.00326
3645.77	0.00567
3655.42	0.00915
3665.06	0.01161
3674.71	0.01084
3684.35	0.00712
3694	0.00403
3703.64	0.00245
3713.29	0.00239
3722.93	0.0012942
3732.58	0.001063
3742.22	0.0014694
3751.86	0.00125478
3761.51	0.0014376
3771.15	0.0019495
3780.8	0.0015897
3790.44	0.0014398
3800.09	0.00124794
3809.73	0.001061
3819.38	0.001668
3829.02	0.00125415
3838.67	0.00098
3848.31	0.000725
3857.96	0.0018443
3867.6	0.000858
3877.25	0.00096
3886.89	0.0013158
3896.54	0.0013088
3906.18	0.0018266
3915.83	0.001777
3925.47	0.0014604
3935.12	0.000756
3944.76	0.0013593
3954.41	0.0013492
3964.05	0.0011715
3973.69	0.00088
3983.34	0.001013
3992.98	0.000974
