Infrared Spectrum: 3,3,3-Trifluoro-1,2-epoxypropane
Formula: C 3 H 3 F 3 O
CAS: 359-41-1
State: gas
Origin: EPA-IR VAPOR PHASE LIBRARY
1/CM	ABSORBANCE
549.8	0.007679
559.445	0.004059
569.09	0.002589
578.734	0.002589
588.379	0.003469
598.024	0.003509
607.669	0.003859
617.313	0.004249
626.958	0.012459
636.603	0.024199
646.248	0.036309
655.893	0.031319
665.537	0.019629
675.182	0.008439
684.827	0.003779
694.472	0.002829
704.116	0.001789
713.761	0.002039
723.406	0.0012894
733.051	0.002379
742.695	0.001919
752.34	0.003439
761.985	0.004239
771.63	0.006919
781.275	0.008809
790.919	0.008839
800.564	0.006049
810.209	0.003519
819.854	0.003979
829.498	0.006519
839.143	0.013459
848.788	0.022239
858.433	0.029149
868.078	0.027109
877.722	0.018949
887.367	0.022789
897.012	0.041839
906.657	0.058529
916.301	0.061489
925.946	0.043359
935.591	0.024089
945.236	0.011829
954.88	0.006859
964.525	0.008989
974.17	0.019669
983.815	0.040059
993.46	0.058359
1003.1	0.055179
1012.75	0.039729
1022.39	0.021019
1032.04	0.011539
1041.68	0.011089
1051.33	0.013279
1060.97	0.019089
1070.62	0.022539
1080.26	0.019659
1089.91	0.014929
1099.55	0.010379
1109.2	0.014459
1118.84	0.021939
1128.49	0.045289
1138.13	0.085539
1147.78	0.169209
1157.42	0.342309
1167.07	0.660799
1176.71	0.806419
1186.36	0.532269
1196	0.207509
1205.64	0.081189
1215.29	0.048979
1224.93	0.044729
1234.58	0.058699
1244.22	0.099739
1253.87	0.120329
1263.51	0.128959
1273.16	0.150919
1282.8	0.170389
1292.45	0.189849
1302.09	0.142629
1311.74	0.084639
1321.38	0.043729
1331.03	0.022989
1340.67	0.013399
1350.32	0.008929
1359.96	0.008159
1369.61	0.008409
1379.25	0.009549
1388.9	0.010589
1398.54	0.014939
1408.18	0.028009
1417.83	0.052839
1427.47	0.072249
1437.12	0.068889
1446.76	0.044739
1456.41	0.016829
1466.05	0.005689
1475.7	0.004269
1485.34	0.005269
1494.99	0.005769
1504.63	0.004979
1514.28	0.003749
1523.92	0.002649
1533.57	0.002229
1543.21	0.002079
1552.86	0.001789
1562.5	0.001889
1572.15	0.001869
1581.79	0.001639
1591.44	0.0012416
1601.08	0.0015075
1610.73	0.001202
1620.37	0.001639
1630.01	0.001949
1639.66	0.001799
1649.3	0.001789
1658.95	0.001869
1668.59	0.0012901
1678.24	0.001579
1687.88	0.001979
1697.53	0.002179
1707.17	0.002419
1716.82	0.002189
1726.46	0.001749
1736.11	0.0014362
1745.75	0.001569
1755.4	0.001529
1765.04	0.001819
1774.69	0.001979
1784.33	0.002159
1793.98	0.001779
1803.62	0.002069
1813.27	0.001949
1822.91	0.001999
1832.55	0.0013862
1842.2	0.0011887
1851.84	0.0011936
1861.49	0.0009792
1871.13	0.0011977
1880.78	0.0009805
1890.42	0.0011088
1900.07	0.0012105
1909.71	0.0014149
1919.36	0.0014195
1929	0.001879
1938.65	0.002109
1948.29	0.002389
1957.94	0.002449
1967.58	0.002249
1977.23	0.002039
1986.87	0.001699
1996.52	0.001729
2006.16	0.0015093
2015.81	0.001519
2025.45	0.001649
2035.1	0.001919
2044.74	0.002159
2054.38	0.002179
2064.03	0.002299
2073.67	0.001849
2083.32	0.001539
2092.96	0.0014096
2102.61	0.0011503
2112.25	0.0012591
2121.9	0.0012895
2131.54	0.001639
2141.19	0.0014
2150.83	0.001609
2160.48	0.001609
2170.12	0.001699
2179.77	0.0014969
2189.41	0.001559
2199.06	0.001629
2208.7	0.001889
2218.35	0.001539
2227.99	0.001719
2237.64	0.001649
2247.28	0.001859
2256.92	0.002519
2266.57	0.002939
2276.21	0.003359
2285.86	0.003269
2295.5	0.003429
2305.15	0.002859
2314.79	0.002959
2324.44	0.003209
2334.08	0.003149
2343.73	0.003169
2353.37	0.002759
2363.02	0.002549
2372.66	0.002109
2382.31	0.0013802
2391.95	0.001559
2401.6	0.0012599
2411.24	0.0013871
2420.89	0.0013118
2430.53	0.0014068
2440.18	0.001659
2449.82	0.001539
2459.47	0.001107
2469.11	0.0008177
2478.75	0.0013621
2488.4	0.0010537
2498.04	0.0009245
2507.69	0.0008859
2517.33	0.0007232
2526.98	0.0009507
2536.62	0.0008301
2546.27	0.0007519
2555.91	0.0006667
2565.56	0.0010549
2575.2	0.0010048
2584.85	0.0012582
2594.49	0.001004
2604.14	0.0010926
2613.78	0.0013799
2623.43	0.0011743
2633.07	0.0009254
2642.72	0.0006863
2652.36	0.0006553
2662.01	0.000326
2671.65	0.00054624
2681.29	0.000527861
2690.94	0.00061811
2700.58	0.0008705
2710.23	0.0011106
2719.87	0.0006933
2729.52	0.001629
2739.16	0.00059089
2748.81	0.0010388
2758.45	0.00032
2768.1	0.00060352
2777.74	0.00053138
2787.39	0.0008692
2797.03	0.001011
2806.68	0.000525578
2816.32	0.0010129
2825.97	0.0008807
2835.61	0.0013357
2845.26	0.0010998
2854.9	0.0007634
2864.55	0.00057179
2874.19	0.000649
2883.84	0.001141
2893.48	0.0010724
2903.12	0.001889
2912.77	0.002319
2922.41	0.002469
2932.06	0.003619
2941.7	0.005179
2951.35	0.006479
2960.99	0.006719
2970.64	0.005479
2980.28	0.003789
2989.93	0.004929
2999.57	0.008479
3009.22	0.015589
3018.86	0.021519
3028.51	0.023229
3038.15	0.018969
3047.8	0.011309
3057.44	0.007849
3067.09	0.009069
3076.73	0.012449
3086.38	0.013119
3096.02	0.008689
3105.67	0.004229
3115.31	0.001809
3124.95	0.0004912
3134.6	0.0009581
3144.24	0.000181
3153.89	0.0008977
3163.53	0.00060374
3173.18	0.0010071
3182.82	0.0006295
3192.47	0.0009658
3202.11	0.0009731
3211.76	0.0008195
3221.4	0.0005041
3231.05	0.00034
3240.69	0.0008296
3250.34	0.000501
3259.98	0.0006795
3269.63	0.0008238
3279.27	0.0008709
3288.92	0.0006353
3298.56	0.000355
3308.21	5.1e-05
3317.85	0.0007821
3327.49	0.0011553
3337.14	0.000351
3346.78	0.000333
3356.43	0.0009324
3366.07	0.0010051
3375.72	0.0008762
3385.36	0.000406
3395.01	0.0009488
3404.65	0.0008749
3414.3	0.0009579
3423.94	0.0008946
3433.59	0.0006325
3443.23	0.000554
3452.88	0.000377
3462.52	0.0009766
3472.17	0.0004521
3481.81	0.0008719
3491.46	0.0005049
3501.1	0.00057536
3510.75	0.0009039
3520.39	0.0007666
3530.04	0.000302
3539.68	0.0007698
3549.32	0.0009562
3558.97	0.000342
3568.61	0.0004367
3578.26	0.0007334
3587.9	0.0009187
3597.55	0.0011564
3607.19	0.0009637
3616.84	0.0008568
3626.48	0.0006244
3636.13	0.0008417
3645.77	0.0010073
3655.42	0.000371
3665.06	0.000309
3674.71	0.000195
3684.35	0.0010819
3694	0.00058885
3703.64	0.000382
3713.29	0.0009163
3722.93	0.000124
3732.58	0.0009264
3742.22	0.0009403
3751.86	0.0009984
3761.51	0.0008635
3771.15	0.000767
3780.8	0.0012387
3790.44	0.00061679
3800.09	0.0009158
3809.73	0.000635
3819.38	0.001529
3829.02	0.001619
3838.67	0.0005069
3848.31	0.0008233
3857.96	0.0012942
3867.6	0.0014177
3877.25	0.001919
3886.89	0.001529
3896.54	0.0013084
3906.18	0.001559
3915.83	0.0011473
3925.47	0.001699
3935.12	0.001929
3944.76	0.001829
3954.41	0.001709
3964.05	0.0010656
3973.69	0.0010415
3983.34	0.0011879
3992.98	0.00057222
