Infrared Spectrum: 4-Methyl-5-nonanone
Formula: C 10 H 20 O
CAS: 35900-26-6
State: gas
Instrument: HP-GC/MS/IRD
Origin: NIST Mass Spectrometry Data Center
1/CM	ABSORBANCE
550	0.0001421
562	7.35e-05
574	0.000147
586	4.41e-05
598	0.0002107
610	0.0002499
622	0.0001323
634	0.0002058
646	4.9e-05
658	0.0001127
670	5.88e-05
682	0.0001127
694	0.0001764
706	0.0003332
718	0.0004606
730	0.0007791
742	0.0012397
754	0.0013132
766	0.000931
778	0.0007497
790	0.0005635
802	0.0003871
814	0.0003185
826	0.0001813
838	0.0002303
850	0.0003038
862	0.0003479
874	0.0005488
886	0.0006468
898	0.0008281
910	0.0010094
922	0.0011711
934	0.0010976
946	0.0012299
958	0.0018375
970	0.0024696
982	0.002989
994	0.0029204
1006	0.0030478
1018	0.0045129
1030	0.0060025
1042	0.006027
1054	0.004459
1066	0.0031752
1078	0.0025872
1090	0.0027979
1102	0.0036701
1114	0.0044835
1126	0.0042728
1138	0.0029939
1150	0.0026313
1162	0.0027881
1174	0.002499
1186	0.0019306
1198	0.0016072
1210	0.0015533
1222	0.0017346
1234	0.0023667
1246	0.0026068
1258	0.0025872
1270	0.0022736
1282	0.0020727
1294	0.0022932
1306	0.0026215
1318	0.0028714
1330	0.0036652
1342	0.004949
1354	0.005733
1366	0.0055664
1378	0.0059535
1390	0.0050421
1402	0.0031801
1414	0.0030772
1426	0.003087
1438	0.0039739
1450	0.0063651
1462	0.0087612
1474	0.0064043
1486	0.0028322
1498	0.0014553
1510	0.000931
1522	0.0006958
1534	0.0005439
1546	0.0004704
1558	0.0004263
1570	0.000392
1582	0.0003724
1594	0.0003381
1606	0.0003871
1618	0.0004263
1630	0.00049
1642	0.0005929
1654	0.0008036
1666	0.0011907
1678	0.002009
1690	0.0037436
1702	0.0092022
1714	0.0212513
1726	0.023618
1738	0.0092414
1750	0.0028371
1762	0.0012985
1774	0.000735
1786	0.0004753
1798	0.0003479
1810	0.0002597
1822	0.000196
1834	0.0001568
1846	0.0001323
1858	0.0001127
1870	8.33e-05
1882	6.86e-05
1894	6.37e-05
1906	4.41e-05
1918	4.41e-05
1930	4.9e-06
1942	4.41e-05
1954	2.45e-05
1966	1.47e-05
1978	9.8e-06
1990	1.47e-05
2002	4.9e-06
2014	1.47e-05
2026	3.92e-05
2038	4.41e-05
2050	4.9e-05
2062	4.9e-06
2074	9.8e-06
2086	1.47e-05
2098	1.47e-05
2110	2.45e-05
2122	3.43e-05
2134	2.94e-05
2146	3.92e-05
2158	2.45e-05
2170	2.94e-05
2182	4.9e-05
2194	5.39e-05
2206	4.41e-05
2218	3.92e-05
2230	2.45e-05
2242	4.9e-05
2254	5.88e-05
2266	5.88e-05
2278	4.9e-05
2290	6.37e-05
2302	5.88e-05
2314	6.86e-05
2326	8.33e-05
2338	0.0001029
2350	0.0001078
2362	0.0001421
2374	0.0001421
2386	0.0001519
2398	0.0001421
2410	0.0001372
2422	0.0001127
2434	0.0001176
2446	0.0001078
2458	9.31e-05
2470	9.8e-05
2482	0.0001274
2494	0.0001127
2506	0.0001274
2518	0.0001323
2530	0.0001323
2542	0.0001519
2554	0.0001666
2566	0.0002009
2578	0.0002548
2590	0.0002548
2602	0.0002793
2614	0.000294
2626	0.0003283
2638	0.0003577
2650	0.0004067
2662	0.0004802
2674	0.0004998
2686	0.0005341
2698	0.000539
2710	0.0005929
2722	0.0006762
2734	0.0008428
2746	0.0010192
2758	0.0010045
2770	0.0010535
2782	0.0012348
2794	0.0015778
2806	0.0019943
2818	0.0025921
2830	0.0034153
2842	0.004949
2854	0.0085946
2866	0.0144011
2878	0.0209132
2890	0.0220353
2902	0.0199577
2914	0.0234857
2926	0.0306152
2938	0.0394205
2950	0.0380779
2962	0.0437766
2974	0.0453152
2986	0.0212758
2998	0.0091434
3010	0.004998
3022	0.0034006
3034	0.0026264
3046	0.0020874
3058	0.0016856
3070	0.0014504
3082	0.0012985
3094	0.0012005
3106	0.0010241
3118	0.000882
3130	0.0008134
3142	0.0007399
3154	0.0006958
3166	0.0006713
3178	0.0006174
3190	0.0005978
3202	0.0004998
3214	0.0003773
3226	0.0002891
3238	0.0002401
3250	0.0002254
3262	0.0001813
3274	0.0001764
3286	0.000147
3298	0.0001764
3310	0.0001372
3322	0.0001225
3334	0.0001421
3346	0.0001421
3358	0.0001519
3370	0.0001715
3382	0.0002058
3394	0.000245
3406	0.0003773
3418	0.0005047
3430	0.0004851
3442	0.0003332
3454	0.0002107
3466	0.0001225
3478	9.8e-05
3490	7.84e-05
3502	8.82e-05
3514	8.82e-05
3526	5.88e-05
3538	5.88e-05
3550	3.92e-05
3562	5.39e-05
3574	3.92e-05
3586	2.94e-05
3598	7.35e-05
3610	7.35e-05
3622	8.82e-05
3634	5.88e-05
3646	0.0001323
3658	0.0001274
3670	0.0001029
3682	0.0001421
3694	0.0001568
3706	0.0001274
3718	0.0001274
3730	0.0001274
3742	0.000147
3754	0.0001421
3766	0.0001323
3778	0.0001519
3790	0.0001813
3802	0.0001813
3814	0.0001519
3826	0.000147
3838	0.0001764
