Infrared Spectrum: Pentafluorophenyl isothiocyanate
Formula: C 7 F 5 N S
CAS: 35923-79-6
State: gas
Origin: EPA-IR VAPOR PHASE LIBRARY
1/CM	ABSORBANCE
549.8	0.025127
559.445	0.017867
569.09	0.010317
578.734	0.008047
588.379	0.005947
598.024	0.007307
607.669	0.007467
617.313	0.004097
626.958	0.002547
636.603	0.002307
646.248	0.002187
655.893	0.001907
665.537	0.003547
675.182	0.005617
684.827	0.006067
694.472	0.002937
704.116	0.0014454
713.761	0.0014525
723.406	0.002047
733.051	0.003417
742.695	0.007077
752.34	0.016287
761.985	0.040117
771.63	0.070537
781.275	0.068207
790.919	0.054857
800.564	0.069217
810.209	0.082927
819.854	0.047607
829.498	0.016307
839.143	0.007647
848.788	0.006797
858.433	0.007187
868.078	0.006517
877.722	0.006187
887.367	0.006447
897.012	0.008307
906.657	0.011067
916.301	0.012857
925.946	0.012827
935.591	0.011837
945.236	0.010857
954.88	0.014107
964.525	0.023197
974.17	0.047927
983.815	0.148167
993.46	0.249527
1003.1	0.189387
1012.75	0.167877
1022.39	0.162757
1032.04	0.116317
1041.68	0.170197
1051.33	0.109657
1060.97	0.024477
1070.62	0.015237
1080.26	0.011997
1089.91	0.005527
1099.55	0.002717
1109.2	0.002297
1118.84	0.002587
1128.49	0.002177
1138.13	0.002137
1147.78	0.003097
1157.42	0.003877
1167.07	0.004307
1176.71	0.015387
1186.36	0.017287
1196	0.003777
1205.64	0.0015818
1215.29	0.0015125
1224.93	0.001857
1234.58	0.003187
1244.22	0.004887
1253.87	0.003947
1263.51	0.002537
1273.16	0.002567
1282.8	0.003427
1292.45	0.003577
1302.09	0.003407
1311.74	0.004367
1321.38	0.005567
1331.03	0.005887
1340.67	0.005807
1350.32	0.009287
1359.96	0.018367
1369.61	0.018747
1379.25	0.009067
1388.9	0.004397
1398.54	0.003937
1408.18	0.003917
1417.83	0.005107
1427.47	0.008157
1437.12	0.009367
1446.76	0.015597
1456.41	0.035687
1466.05	0.059477
1475.7	0.058227
1485.34	0.078097
1494.99	0.175797
1504.63	0.536417
1514.28	0.887217
1523.92	0.654597
1533.57	0.177747
1543.21	0.060687
1552.86	0.032737
1562.5	0.016747
1572.15	0.011257
1581.79	0.010297
1591.44	0.012997
1601.08	0.014947
1610.73	0.016277
1620.37	0.022757
1630.01	0.026617
1639.66	0.016477
1649.3	0.010047
1658.95	0.006947
1668.59	0.006667
1678.24	0.006607
1687.88	0.004847
1697.53	0.003567
1707.17	0.003627
1716.82	0.004227
1726.46	0.005337
1736.11	0.007557
1745.75	0.007637
1755.4	0.007137
1765.04	0.008287
1774.69	0.007367
1784.33	0.005247
1793.98	0.004257
1803.62	0.004157
1813.27	0.004917
1822.91	0.005807
1832.55	0.005947
1842.2	0.006307
1851.84	0.007197
1861.49	0.008427
1871.13	0.011177
1880.78	0.015167
1890.42	0.018287
1900.07	0.022797
1909.71	0.032817
1919.36	0.048857
1929	0.067847
1938.65	0.093547
1948.29	0.129907
1957.94	0.182237
1967.58	0.258367
1977.23	0.335637
1986.87	0.396357
1996.52	0.479237
2006.16	0.668537
2015.81	0.943427
2025.45	0.856947
2035.1	0.480337
2044.74	0.290717
2054.38	0.249347
2064.03	0.297967
2073.67	0.398177
2083.32	0.428967
2092.96	0.362687
2102.61	0.249907
2112.25	0.148997
2121.9	0.104717
2131.54	0.095767
2141.19	0.092007
2150.83	0.074887
2160.48	0.051627
2170.12	0.034087
2179.77	0.024327
2189.41	0.020337
2199.06	0.018437
2208.7	0.018707
2218.35	0.023857
2227.99	0.025347
2237.64	0.014397
2247.28	0.007887
2256.92	0.006477
2266.57	0.005927
2276.21	0.005027
2285.86	0.004407
2295.5	0.003977
2305.15	0.004147
2314.79	0.004747
2324.44	0.005857
2334.08	0.006287
2343.73	0.006117
2353.37	0.006567
2363.02	0.007147
2372.66	0.006427
2382.31	0.005777
2391.95	0.006397
2401.6	0.006447
2411.24	0.005527
2420.89	0.004767
2430.53	0.004477
2440.18	0.004787
2449.82	0.005597
2459.47	0.006257
2469.11	0.007367
2478.75	0.009027
2488.4	0.010467
2498.04	0.012997
2507.69	0.015307
2517.33	0.011877
2526.98	0.008137
2536.62	0.008127
2546.27	0.009757
2555.91	0.012417
2565.56	0.014227
2575.2	0.013417
2584.85	0.010947
2594.49	0.009387
2604.14	0.009597
2613.78	0.008757
2623.43	0.006387
2633.07	0.005187
2642.72	0.005037
2652.36	0.005457
2662.01	0.006247
2671.65	0.006607
2681.29	0.006137
2690.94	0.006897
2700.58	0.005957
2710.23	0.003207
2719.87	0.002037
2729.52	0.001767
2739.16	0.002007
2748.81	0.002227
2758.45	0.002707
2768.1	0.003007
2777.74	0.003817
2787.39	0.004907
2797.03	0.005477
2806.68	0.005947
2816.32	0.006917
2825.97	0.008617
2835.61	0.009697
2845.26	0.007757
2854.9	0.005407
2864.55	0.004417
2874.19	0.004177
2883.84	0.004387
2893.48	0.004547
2903.12	0.004757
2912.77	0.005067
2922.41	0.004817
2932.06	0.003877
2941.7	0.003437
2951.35	0.003747
2960.99	0.004587
2970.64	0.004987
2980.28	0.004477
2989.93	0.003127
2999.57	0.002097
3009.22	0.001837
3018.86	0.001817
3028.51	0.0015445
3038.15	0.001571
3047.8	0.0013293
3057.44	0.0013413
3067.09	0.0011558
3076.73	0.0009656
3086.38	0.0008095
3096.02	0.000656208
3105.67	0.00067681
3115.31	0.0006015
3124.95	0.0007463
3134.6	0.0009081
3144.24	0.0009256
3153.89	0.0008523
3163.53	0.0008974
3173.18	0.00065239
3182.82	0.000304
3192.47	0.000315
3202.11	0.000199
3211.76	0.000285
3221.4	0.000132
3231.05	0.000216
3240.69	0.000147
3250.34	0.000331
3259.98	0.000249
3269.63	0.000246
3279.27	0.000292
3288.92	0.0003
3298.56	0.000411
3308.21	4.7e-05
3317.85	0.000381
3327.49	0.000214
3337.14	0.000431
3346.78	0.000292
3356.43	0.000497
3366.07	0.000418
3375.72	0.000435
3385.36	0.000523
3395.01	0.000428
3404.65	0.000579
3414.3	0.000488
3423.94	0.000533
3433.59	0.000461
3443.23	0.000451
3452.88	0.000294
3462.52	0.0006107
3472.17	0.0006225
3481.81	0.000549
3491.46	0.000465
3501.1	0.0005
3510.75	0.000447
3520.39	0.0006909
3530.04	0.00070128
3539.68	0.00065354
3549.32	0.0005651
3558.97	0.000439
3568.61	0.0006024
3578.26	0.00051
3587.9	0.0006096
3597.55	0.000407
3607.19	0.0006188
3616.84	0.000469
3626.48	0.00073296
3636.13	0.0006849
3645.77	0.00077
3655.42	0.00074667
3665.06	0.0006213
3674.71	0.00066889
3684.35	0.0006407
3694	0.0006221
3703.64	0.000356
3713.29	0.00072336
3722.93	0.00068753
3732.58	0.0005798
3742.22	0.000527
3751.86	0.00065541
3761.51	0.0008749
3771.15	0.00065125
3780.8	0.0008424
3790.44	0.0007916
3800.09	0.0008927
3809.73	0.0008776
3819.38	0.0009732
3829.02	0.000931
3838.67	0.0012071
3848.31	0.0012154
3857.96	0.0012921
3867.6	0.001348
3877.25	0.0014385
3886.89	0.0014784
3896.54	0.001697
3906.18	0.001817
3915.83	0.001777
3925.47	0.002077
3935.12	0.002397
3944.76	0.002587
3954.41	0.002767
3964.05	0.002837
3973.69	0.002767
3983.34	0.002887
3992.98	0.003207
