Infrared Spectrum: 5,5-Dimethyl-1,3-dioxan-2-one
Formula: C 6 H 10 O 3
CAS: 3592-12-9
State: gas
Origin: EPA-IR VAPOR PHASE LIBRARY
1/CM	ABSORBANCE
549.8	0.000146
559.445	0.0006459
569.09	0.0008466
578.734	0.0010413
588.379	0.001767
598.024	0.0012876
607.669	0.0008021
617.313	0.00054879
626.958	0.0004467
636.603	0.000484953
646.248	0.00016
655.893	0.0004211
665.537	0.0003783
675.182	0.0006259
684.827	0.00055282
694.472	0.00049227
704.116	0.00033
713.761	0.0006847
723.406	0.00057358
733.051	0.0011877
742.695	0.001947
752.34	0.003057
761.985	0.003577
771.63	0.002657
781.275	0.002317
790.919	0.002117
800.564	0.001827
810.209	0.001727
819.854	0.001286
829.498	0.0011413
839.143	0.0010379
848.788	0.0007291
858.433	0.00057625
868.078	0.00056739
877.722	0.0007525
887.367	0.000555
897.012	0.0008773
906.657	0.0006638
916.301	0.0009667
925.946	0.0008762
935.591	0.0012061
945.236	0.0010964
954.88	0.0012285
964.525	0.0010838
974.17	0.0011721
983.815	0.0011718
993.46	0.0013475
1003.1	0.001777
1012.75	0.001907
1022.39	0.002177
1032.04	0.001867
1041.68	0.001857
1051.33	0.001867
1060.97	0.002157
1070.62	0.003637
1080.26	0.006547
1089.91	0.012007
1099.55	0.024817
1109.2	0.043297
1118.84	0.063797
1128.49	0.077727
1138.13	0.075957
1147.78	0.058267
1157.42	0.033307
1167.07	0.013337
1176.71	0.005627
1186.36	0.004377
1196	0.003977
1205.64	0.006507
1215.29	0.008847
1224.93	0.008577
1234.58	0.006247
1244.22	0.004037
1253.87	0.002237
1263.51	0.002347
1273.16	0.002227
1282.8	0.002747
1292.45	0.003107
1302.09	0.002807
1311.74	0.002607
1321.38	0.001937
1331.03	0.001517
1340.67	0.0014064
1350.32	0.001787
1359.96	0.003037
1369.61	0.005897
1379.25	0.009487
1388.9	0.011247
1398.54	0.011167
1408.18	0.008327
1417.83	0.004547
1427.47	0.002277
1437.12	0.002167
1446.76	0.002697
1456.41	0.004887
1466.05	0.008227
1475.7	0.009537
1485.34	0.007407
1494.99	0.004077
1504.63	0.002607
1514.28	0.002237
1523.92	0.001937
1533.57	0.001517
1543.21	0.001327
1552.86	0.0011567
1562.5	0.0010892
1572.15	0.0010942
1581.79	0.0011171
1591.44	0.0014376
1601.08	0.001517
1610.73	0.001767
1620.37	0.001567
1630.01	0.0011511
1639.66	0.0010253
1649.3	0.000927
1658.95	0.0008625
1668.59	0.0008383
1678.24	0.0008495
1687.88	0.00079
1697.53	0.0009444
1707.17	0.0012228
1716.82	0.001567
1726.46	0.001777
1736.11	0.001837
1745.75	0.002087
1755.4	0.003227
1765.04	0.004627
1774.69	0.006877
1784.33	0.013737
1793.98	0.047667
1803.62	0.123187
1813.27	0.159457
1822.91	0.116027
1832.55	0.043577
1842.2	0.014207
1851.84	0.006057
1861.49	0.003917
1871.13	0.003047
1880.78	0.002807
1890.42	0.003117
1900.07	0.003397
1909.71	0.003467
1919.36	0.003267
1929	0.002677
1938.65	0.002057
1948.29	0.001497
1957.94	0.0011601
1967.58	0.0009717
1977.23	0.000877
1986.87	0.0007956
1996.52	0.000783
2006.16	0.0008912
2015.81	0.000736
2025.45	0.0008049
2035.1	0.0007389
2044.74	0.0007216
2054.38	0.0008618
2064.03	0.0009087
2073.67	0.0008157
2083.32	0.0006832
2092.96	0.00051869
2102.61	0.0006236
2112.25	0.00053227
2121.9	0.0005903
2131.54	0.00052604
2141.19	0.0005137
2150.83	0.0006573
2160.48	0.00056694
2170.12	0.0006694
2179.77	0.0007215
2189.41	0.0007612
2199.06	0.000674
2208.7	0.0005946
2218.35	0.0007614
2227.99	0.000694
2237.64	0.0008272
2247.28	0.0010787
2256.92	0.0013833
2266.57	0.001637
2276.21	0.001967
2285.86	0.001837
2295.5	0.0014653
2305.15	0.0009285
2314.79	0.0008089
2324.44	0.000615
2334.08	0.000578
2343.73	0.0006458
2353.37	0.0006751
2363.02	0.0006471
2372.66	0.0006229
2382.31	0.00056939
2391.95	0.0006009
2401.6	0.0005288
2411.24	0.0004432
2420.89	0.00054845
2430.53	0.00051642
2440.18	0.0004224
2449.82	0.0004489
2459.47	0.00049174
2469.11	0.00047042
2478.75	0.0003782
2488.4	0.000478192
2498.04	0.00053677
2507.69	0.000698
2517.33	0.0007055
2526.98	0.0008572
2536.62	0.0006733
2546.27	0.000608
2555.91	0.0004543
2565.56	0.00051738
2575.2	0.00051439
2584.85	0.0005945
2594.49	0.0007371
2604.14	0.0008714
2613.78	0.0008515
2623.43	0.0007076
2633.07	0.0005516
2642.72	0.00055628
2652.36	0.000629
2662.01	0.00053357
2671.65	0.000586
2681.29	0.00052773
2690.94	0.00050548
2700.58	0.00056939
2710.23	0.0006297
2719.87	0.0007125
2729.52	0.0007877
2739.16	0.0010916
2748.81	0.0010991
2758.45	0.0011954
2768.1	0.0012323
2777.74	0.0010953
2787.39	0.0009423
2797.03	0.0008925
2806.68	0.0008902
2816.32	0.0009649
2825.97	0.0011246
2835.61	0.0014391
2845.26	0.001597
2854.9	0.002067
2864.55	0.003017
2874.19	0.004787
2883.84	0.007877
2893.48	0.011927
2903.12	0.013637
2912.77	0.011297
2922.41	0.008617
2932.06	0.008257
2941.7	0.010427
2951.35	0.013857
2960.99	0.019167
2970.64	0.024707
2980.28	0.021227
2989.93	0.012177
2999.57	0.004647
3009.22	0.002047
3018.86	0.0014083
3028.51	0.0012003
3038.15	0.0011326
3047.8	0.0008458
3057.44	0.0008114
3067.09	0.0009527
3076.73	0.0006276
3086.38	0.0006905
3096.02	0.00063
3105.67	0.0007162
3115.31	0.0007621
3124.95	0.000721
3134.6	0.00056743
3144.24	0.0006021
3153.89	0.0006513
3163.53	0.00052924
3173.18	0.00055636
3182.82	0.000788
3192.47	0.00052181
3202.11	0.0007394
3211.76	0.0006905
3221.4	0.00050855
3231.05	0.0005864
3240.69	0.0006221
3250.34	0.0006917
3259.98	0.0004349
3269.63	0.000466
3279.27	0.0005779
3288.92	0.0004444
3298.56	0.000372
3308.21	0.0004295
3317.85	0.000316
3327.49	0.000205
3337.14	0.0004562
3346.78	0.00055505
3356.43	0.0003805
3366.07	0.0004021
3375.72	0.000345
3385.36	0.0006292
3395.01	0.0005196
3404.65	0.000374
3414.3	0.0004311
3423.94	0.000362
3433.59	0.0004548
3443.23	0.0003819
3452.88	0.0004065
3462.52	0.00049975
3472.17	0.00036
3481.81	0.0003908
3491.46	0.000445
3501.1	0.0004169
3510.75	0.00049006
3520.39	0.000485058
3530.04	0.00056803
3539.68	0.0005391
3549.32	0.000529
3558.97	0.0004622
3568.61	0.0006428
3578.26	0.00057427
3587.9	0.0013674
3597.55	0.001717
3607.19	0.001867
3616.84	0.0014366
3626.48	0.0010539
3636.13	0.0010389
3645.77	0.0007215
3655.42	0.0008016
3665.06	0.000482543
3674.71	0.000657
3684.35	0.00049435
3694	0.0003994
3703.64	0.00053312
3713.29	0.0004577
3722.93	0.000256
3732.58	0.000282
3742.22	0.00056021
3751.86	0.0005776
3761.51	0.0005844
3771.15	0.000479775
3780.8	0.0004065
3790.44	0.0004207
3800.09	0.00056053
3809.73	0.0004203
3819.38	0.000318
3829.02	0.0006216
3838.67	0.0006536
3848.31	0.000478627
3857.96	0.000313
3867.6	0.0004588
3877.25	0.0004003
3886.89	0.00050413
3896.54	0.00052278
3906.18	0.0008218
3915.83	0.0005457
3925.47	0.0005961
3935.12	0.0006587
3944.76	0.00055556
3954.41	0.0004177
3964.05	0.00053865
3973.69	0.0006023
3983.34	0.00053087
3992.98	0.0004401
