Infrared Spectrum: 2,2'-Ethylidene bis(4,6-di-t-butylphenol)
Formula: C 30 H 46 O 2
CAS: 35958-30-6
State: gas
Origin: EPA-IR VAPOR PHASE LIBRARY
1/CM	ABSORBANCE
549.8	0.00677
559.445	0.00606
569.09	0.00563
578.734	0.00516
588.379	0.00608
598.024	0.00578
607.669	0.00698
617.313	0.00772
626.958	0.00854
636.603	0.00928
646.248	0.01056
655.893	0.00693
665.537	0.00576
675.182	0.00627
684.827	0.0049
694.472	0.00491
704.116	0.00501
713.761	0.00622
723.406	0.01074
733.051	0.01134
742.695	0.00623
752.34	0.00685
761.985	0.01401
771.63	0.01134
781.275	0.00923
790.919	0.0099
800.564	0.00951
810.209	0.01528
819.854	0.01582
829.498	0.00504
839.143	0.00351
848.788	0.0032
858.433	0.0044
868.078	0.00778
877.722	0.02548
887.367	0.01316
897.012	0.01379
906.657	0.01012
916.301	0.00971
925.946	0.01186
935.591	0.01032
945.236	0.00478
954.88	0.00315
964.525	0.00259
974.17	0.00273
983.815	0.00255
993.46	0.00317
1003.1	0.00341
1012.75	0.00411
1022.39	0.00534
1032.04	0.00406
1041.68	0.00349
1051.33	0.00368
1060.97	0.00524
1070.62	0.0066
1080.26	0.00556
1089.91	0.00487
1099.55	0.00667
1109.2	0.01195
1118.84	0.01978
1128.49	0.02632
1138.13	0.02136
1147.78	0.02748
1157.42	0.03052
1167.07	0.02904
1176.71	0.03982
1186.36	0.06107
1196	0.06994
1205.64	0.06869
1215.29	0.06474
1224.93	0.05591
1234.58	0.06147
1244.22	0.05904
1253.87	0.05045
1263.51	0.0412
1273.16	0.02736
1282.8	0.0317
1292.45	0.03771
1302.09	0.02774
1311.74	0.02511
1321.38	0.02351
1331.03	0.0197
1340.67	0.01512
1350.32	0.02
1359.96	0.03976
1369.61	0.05946
1379.25	0.033
1388.9	0.02964
1398.54	0.04613
1408.18	0.03049
1417.83	0.034
1427.47	0.03211
1437.12	0.05704
1446.76	0.09987
1456.41	0.08973
1466.05	0.08794
1475.7	0.09497
1485.34	0.06502
1494.99	0.0222
1504.63	0.01126
1514.28	0.00748
1523.92	0.00582
1533.57	0.00458
1543.21	0.00388
1552.86	0.00323
1562.5	0.00317
1572.15	0.00351
1581.79	0.00475
1591.44	0.00637
1601.08	0.00665
1610.73	0.00363
1620.37	0.00244
1630.01	0.00212
1639.66	0.00195
1649.3	0.00199
1658.95	0.00181
1668.59	0.00177
1678.24	0.00155
1687.88	0.00154
1697.53	0.00155
1707.17	0.00146
1716.82	0.00157
1726.46	0.00161
1736.11	0.00202
1745.75	0.00277
1755.4	0.00441
1765.04	0.00522
1774.69	0.00446
1784.33	0.00311
1793.98	0.00208
1803.62	0.00164
1813.27	0.00131
1822.91	0.00119
1832.55	0.00101
1842.2	0.001
1851.84	0.0008876
1861.49	0.0007586
1871.13	0.0007623
1880.78	0.0008323
1890.42	0.000755
1900.07	0.00103
1909.71	0.00111
1919.36	0.00113
1929	0.00104
1938.65	0.0011
1948.29	0.0009705
1957.94	0.0008863
1967.58	0.0008223
1977.23	0.0008322
1986.87	0.0008035
1996.52	0.0006812
2006.16	0.0008414
2015.81	0.0008265
2025.45	0.0007742
2035.1	0.0007099
2044.74	0.0007034
2054.38	0.0006013
2064.03	0.0005993
2073.67	0.0006149
2083.32	0.000651
2092.96	0.000536
2102.61	0.0004717
2112.25	0.0005472
2121.9	0.0005087
2131.54	0.0005371
2141.19	0.0005969
2150.83	0.0006567
2160.48	0.0006653
2170.12	0.0006675
2179.77	0.0005844
2189.41	0.0006293
2199.06	0.0006578
2208.7	0.0005453
2218.35	0.0005219
2227.99	0.0006397
2237.64	0.0007266
2247.28	0.0006511
2256.92	0.0008172
2266.57	0.0007934
2276.21	0.00103
2285.86	0.00112
2295.5	0.0011
2305.15	0.00101
2314.79	0.0009961
2324.44	0.0009635
2334.08	0.0008841
2343.73	0.00106
2353.37	0.00125
2363.02	0.00139
2372.66	0.00172
2382.31	0.00198
2391.95	0.00201
2401.6	0.00177
2411.24	0.0016
2420.89	0.0016
2430.53	0.00163
2440.18	0.00161
2449.82	0.00158
2459.47	0.00167
2469.11	0.00162
2478.75	0.0016
2488.4	0.00166
2498.04	0.00161
2507.69	0.00166
2517.33	0.00161
2526.98	0.00175
2536.62	0.00162
2546.27	0.00161
2555.91	0.00176
2565.56	0.00186
2575.2	0.00169
2584.85	0.00177
2594.49	0.00181
2604.14	0.00175
2613.78	0.0019
2623.43	0.00193
2633.07	0.00221
2642.72	0.00246
2652.36	0.00267
2662.01	0.00268
2671.65	0.00248
2681.29	0.0025
2690.94	0.0024
2700.58	0.00279
2710.23	0.00348
2719.87	0.00444
2729.52	0.00414
2739.16	0.00366
2748.81	0.00393
2758.45	0.00374
2768.1	0.00365
2777.74	0.00435
2787.39	0.00541
2797.03	0.00522
2806.68	0.00605
2816.32	0.00758
2825.97	0.00857
2835.61	0.0109
2845.26	0.01528
2854.9	0.02599
2864.55	0.04959
2874.19	0.08318
2883.84	0.09347
2893.48	0.08144
2903.12	0.09146
2912.77	0.11384
2922.41	0.11223
2932.06	0.11171
2941.7	0.13211
2951.35	0.20283
2960.99	0.33924
2970.64	0.34646
2980.28	0.14381
2989.93	0.05724
2999.57	0.03755
3009.22	0.02863
3018.86	0.0144
3028.51	0.01049
3038.15	0.00929
3047.8	0.00887
3057.44	0.0083
3067.09	0.00817
3076.73	0.00813
3086.38	0.00859
3096.02	0.00869
3105.67	0.00807
3115.31	0.00646
3124.95	0.00487
3134.6	0.00453
3144.24	0.00415
3153.89	0.00426
3163.53	0.00448
3173.18	0.00479
3182.82	0.00475
3192.47	0.00459
3202.11	0.00439
3211.76	0.004
3221.4	0.0041
3231.05	0.00378
3240.69	0.00345
3250.34	0.0032
3259.98	0.00291
3269.63	0.00289
3279.27	0.00304
3288.92	0.00299
3298.56	0.0027
3308.21	0.00263
3317.85	0.00262
3327.49	0.00253
3337.14	0.0025
3346.78	0.00273
3356.43	0.00258
3366.07	0.0028
3375.72	0.00292
3385.36	0.00325
3395.01	0.00346
3404.65	0.00413
3414.3	0.00458
3423.94	0.00522
3433.59	0.00577
3443.23	0.00698
3452.88	0.00891
3462.52	0.01299
3472.17	0.01908
3481.81	0.02799
3491.46	0.04814
3501.1	0.08018
3510.75	0.09688
3520.39	0.09365
3530.04	0.08328
3539.68	0.06827
3549.32	0.05405
3558.97	0.04281
3568.61	0.03552
3578.26	0.02658
3587.9	0.01863
3597.55	0.01308
3607.19	0.00987
3616.84	0.00886
3626.48	0.0117
3636.13	0.01329
3645.77	0.01532
3655.42	0.02257
3665.06	0.02593
3674.71	0.01634
3684.35	0.00898
3694	0.00523
3703.64	0.00342
3713.29	0.00249
3722.93	0.00196
3732.58	0.00169
3742.22	0.00117
3751.86	0.00147
3761.51	0.00122
3771.15	0.00121
3780.8	0.00125
3790.44	0.00133
3800.09	0.00126
3809.73	0.00134
3819.38	0.00139
3829.02	0.00139
3838.67	0.0014
3848.31	0.00153
3857.96	0.00161
3867.6	0.00159
3877.25	0.00158
3886.89	0.00167
3896.54	0.00178
3906.18	0.00184
3915.83	0.00175
3925.47	0.0016
3935.12	0.0016
3944.76	0.00164
3954.41	0.00155
3964.05	0.00153
3973.69	0.00119
3983.34	0.0014
3992.98	0.00127
