Infrared Spectrum: 2-Chloro-2,4-dimethylpentane
Formula: C 7 H 15 Cl
CAS: 35951-33-8
State: gas
Instrument: HP-GC/MS/IRD
Origin: NIST Mass Spectrometry Data Center
1/CM	ABSORBANCE
550	0.0004228
562	0.00133
574	0.0027748
586	0.00357
598	0.0019824
610	0.0008372
622	0.0010976
634	0.0014448
646	0.000826
658	0.000336
670	0.0002128
682	0.0001092
694	0.0001148
706	8.12e-05
718	0.0001176
730	0.0001372
742	0.0002072
754	0.0002436
766	0.000476
778	0.0006244
790	0.0006832
802	0.0009296
814	0.0009716
826	0.0007672
838	0.0007168
850	0.000686
862	0.0007196
874	0.000798
886	0.0006048
898	0.0004872
910	0.000476
922	0.0006188
934	0.0005992
946	0.000476
958	0.000392
970	0.0005544
982	0.0009212
994	0.0008092
1006	0.000476
1018	0.0004228
1030	0.0003556
1042	0.000364
1054	0.000462
1066	0.0008176
1078	0.001442
1090	0.0020216
1102	0.0020888
1114	0.002156
1126	0.0034916
1138	0.0052948
1150	0.005558
1162	0.0049924
1174	0.003906
1186	0.002296
1198	0.0015764
1210	0.0021028
1222	0.0023016
1234	0.0013832
1246	0.0009828
1258	0.0012516
1270	0.0013272
1282	0.0010612
1294	0.000798
1306	0.0006776
1318	0.0006244
1330	0.00077
1342	0.0013944
1354	0.0029008
1366	0.0050876
1378	0.006188
1390	0.0052164
1402	0.0029148
1414	0.0012516
1426	0.0014224
1438	0.0025116
1450	0.0041776
1462	0.0053228
1474	0.0048244
1486	0.0026684
1498	0.0011424
1510	0.0006356
1522	0.0004508
1534	0.0003416
1546	0.0002828
1558	0.0002436
1570	0.0002408
1582	0.0001848
1594	0.000168
1606	0.0001512
1618	0.0001596
1630	0.0001932
1642	0.00021
1654	0.0001792
1666	0.0001428
1678	0.0001148
1690	0.0001064
1702	9.8e-05
1714	8.12e-05
1726	6.72e-05
1738	7.56e-05
1750	4.48e-05
1762	9.52e-05
1774	7.84e-05
1786	5.32e-05
1798	7.56e-05
1810	5.88e-05
1822	3.92e-05
1834	4.2e-05
1846	5.6e-05
1858	4.48e-05
1870	5.04e-05
1882	2.8e-05
1894	3.64e-05
1906	3.92e-05
1918	1.12e-05
1930	5.6e-06
1942	2.24e-05
1954	1.4e-05
1966	5.6e-06
1978	2.8e-05
1990	1.96e-05
2002	2.8e-05
2014	2.8e-05
2026	1.68e-05
2038	2.8e-05
2050	2.24e-05
2062	1.96e-05
2074	3.08e-05
2086	1.68e-05
2098	3.08e-05
2110	4.2e-05
2122	5.6e-05
2134	3.08e-05
2146	5.6e-05
2158	8.12e-05
2170	9.52e-05
2182	0.0001064
2194	0.0001176
2206	9.52e-05
2218	8.96e-05
2230	6.44e-05
2242	9.8e-05
2254	6.72e-05
2266	7.84e-05
2278	7.56e-05
2290	9.24e-05
2302	8.68e-05
2314	0.0001064
2326	6.72e-05
2338	5.32e-05
2350	6.16e-05
2362	9.52e-05
2374	7e-05
2386	8.96e-05
2398	9.52e-05
2410	8.96e-05
2422	8.68e-05
2434	0.0001008
2446	7e-05
2458	0.0001176
2470	0.000112
2482	0.0001064
2494	9.52e-05
2506	0.0001008
2518	0.0001036
2530	0.0001456
2542	0.0001428
2554	0.000168
2566	0.0002044
2578	0.0002072
2590	0.0002156
2602	0.0002408
2614	0.0002296
2626	0.000266
2638	0.0002576
2650	0.0002604
2662	0.0002744
2674	0.000308
2686	0.0003304
2698	0.0003472
2710	0.0004508
2722	0.0005852
2734	0.000714
2746	0.0006384
2758	0.0005572
2770	0.0006356
2782	0.0006944
2794	0.0007672
2806	0.0009884
2818	0.0013048
2830	0.0017444
2842	0.0025004
2854	0.0033712
2866	0.0057092
2878	0.009562
2890	0.0108332
2902	0.0106904
2914	0.0126924
2926	0.0172816
2938	0.0199164
2950	0.0195552
2962	0.0251384
2974	0.0277144
2986	0.021406
2998	0.0118636
3010	0.0048048
3022	0.0019656
3034	0.0011564
3046	0.0008876
3058	0.0007868
3070	0.0007672
3082	0.0007504
3094	0.0006608
3106	0.0005824
3118	0.0005488
3130	0.0004984
3142	0.0005488
3154	0.0005404
3166	0.000532
3178	0.0005432
3190	0.0005012
3202	0.0005208
3214	0.0004424
3226	0.0004004
3238	0.0004032
3250	0.0003192
3262	0.0003108
3274	0.0002604
3286	0.0002576
3298	0.0001988
3310	0.0002352
3322	0.0002268
3334	0.000182
3346	0.0001932
3358	0.0002324
3370	0.0001596
3382	0.0002016
3394	0.0002044
3406	0.0001512
3418	0.000154
3430	0.0001848
3442	0.0001652
3454	8.96e-05
3466	0.000112
3478	6.16e-05
3490	0.0001008
3502	0.0001176
3514	9.52e-05
3526	0.000112
3538	0.00014
3550	0.0001008
3562	0.0001176
3574	6.44e-05
3586	9.8e-05
3598	0.0001176
3610	6.72e-05
3622	0.0001092
3634	8.12e-05
3646	8.96e-05
3658	9.24e-05
3670	0.0001064
3682	0.0001176
3694	0.0001176
3706	7.84e-05
3718	8.4e-05
3730	5.04e-05
3742	0.0001484
3754	8.12e-05
3766	8.4e-05
3778	0.0001232
3790	0.0001316
3802	0.000154
3814	0.0001176
3826	0.0001596
3838	0.000238
