Infrared Spectrum: 3,4,5-Trimethoxyphenyl isothiocyanate
Formula: C 10 H 11 N O 3 S
CAS: 35967-24-9
State: gas
Origin: EPA-IR VAPOR PHASE LIBRARY
1/CM	ABSORBANCE
549.8	0.002147
559.445	0.002587
569.09	0.003237
578.734	0.003787
588.379	0.004777
598.024	0.004827
607.669	0.003737
617.313	0.003077
626.958	0.002347
636.603	0.002357
646.248	0.002177
655.893	0.002227
665.537	0.002177
675.182	0.003227
684.827	0.007027
694.472	0.018237
704.116	0.030927
713.761	0.022647
723.406	0.010767
733.051	0.009517
742.695	0.008977
752.34	0.005907
761.985	0.004857
771.63	0.005557
781.275	0.007577
790.919	0.012037
800.564	0.020727
810.209	0.024167
819.854	0.014877
829.498	0.007867
839.143	0.008767
848.788	0.013857
858.433	0.016047
868.078	0.017867
877.722	0.011267
887.367	0.005697
897.012	0.004547
906.657	0.005047
916.301	0.006967
925.946	0.008747
935.591	0.007507
945.236	0.006937
954.88	0.006857
964.525	0.006307
974.17	0.007367
983.815	0.009717
993.46	0.012417
1003.1	0.016497
1012.75	0.026037
1022.39	0.042587
1032.04	0.066637
1041.68	0.104667
1051.33	0.110517
1060.97	0.059687
1070.62	0.022817
1080.26	0.012607
1089.91	0.010007
1099.55	0.014957
1109.2	0.021527
1118.84	0.019997
1128.49	0.015277
1138.13	0.014517
1147.78	0.022527
1157.42	0.028397
1167.07	0.028557
1176.71	0.037797
1186.36	0.037247
1196	0.037097
1205.64	0.061707
1215.29	0.137387
1224.93	0.253537
1234.58	0.244307
1244.22	0.122567
1253.87	0.060677
1263.51	0.049867
1273.16	0.059637
1282.8	0.059907
1292.45	0.044457
1302.09	0.038827
1311.74	0.036817
1321.38	0.032027
1331.03	0.020197
1340.67	0.011077
1350.32	0.008057
1359.96	0.006747
1369.61	0.006167
1379.25	0.006137
1388.9	0.007117
1398.54	0.010347
1408.18	0.020247
1417.83	0.041447
1427.47	0.063127
1437.12	0.053637
1446.76	0.042517
1456.41	0.044847
1466.05	0.059937
1475.7	0.063887
1485.34	0.092007
1494.99	0.211477
1504.63	0.256057
1514.28	0.121877
1523.92	0.042787
1533.57	0.020127
1543.21	0.012197
1552.86	0.009207
1562.5	0.008447
1572.15	0.009337
1581.79	0.012877
1591.44	0.016137
1601.08	0.016197
1610.73	0.016707
1620.37	0.012967
1630.01	0.007937
1639.66	0.005407
1649.3	0.004467
1658.95	0.004077
1668.59	0.003807
1678.24	0.003417
1687.88	0.003137
1697.53	0.003077
1707.17	0.002717
1716.82	0.002567
1726.46	0.002727
1736.11	0.002737
1745.75	0.002357
1755.4	0.002057
1765.04	0.001907
1774.69	0.001967
1784.33	0.002127
1793.98	0.002327
1803.62	0.002557
1813.27	0.002547
1822.91	0.002537
1832.55	0.002757
1842.2	0.002907
1851.84	0.003047
1861.49	0.002687
1871.13	0.002007
1880.78	0.001527
1890.42	0.001377
1900.07	0.0012931
1909.71	0.0013339
1919.36	0.001437
1929	0.001577
1938.65	0.001837
1948.29	0.002437
1957.94	0.002967
1967.58	0.003457
1977.23	0.003577
1986.87	0.003707
1996.52	0.004167
2006.16	0.004127
2015.81	0.003787
2025.45	0.003537
2035.1	0.003457
2044.74	0.003437
2054.38	0.003587
2064.03	0.003717
2073.67	0.003387
2083.32	0.002897
2092.96	0.002227
2102.61	0.001777
2112.25	0.001577
2121.9	0.001587
2131.54	0.001757
2141.19	0.001877
2150.83	0.001917
2160.48	0.001807
2170.12	0.001767
2179.77	0.001687
2189.41	0.001717
2199.06	0.001597
2208.7	0.001487
2218.35	0.0013478
2227.99	0.001467
2237.64	0.002217
2247.28	0.003297
2256.92	0.003767
2266.57	0.003067
2276.21	0.002187
2285.86	0.001607
2295.5	0.001427
2305.15	0.001377
2314.79	0.001377
2324.44	0.001357
2334.08	0.001427
2343.73	0.001377
2353.37	0.0011549
2363.02	0.0010686
2372.66	0.0008795
2382.31	0.0009152
2391.95	0.0010492
2401.6	0.0010187
2411.24	0.0011545
2420.89	0.0010407
2430.53	0.001038
2440.18	0.001077
2449.82	0.0011833
2459.47	0.001377
2469.11	0.001667
2478.75	0.002127
2488.4	0.002477
2498.04	0.002597
2507.69	0.002267
2517.33	0.002097
2526.98	0.001907
2536.62	0.001867
2546.27	0.001667
2555.91	0.001457
2565.56	0.001437
2575.2	0.001567
2584.85	0.001607
2594.49	0.001707
2604.14	0.001807
2613.78	0.001597
2623.43	0.001517
2633.07	0.001417
2642.72	0.001387
2652.36	0.0012354
2662.01	0.0011604
2671.65	0.0010795
2681.29	0.0011366
2690.94	0.0012327
2700.58	0.0012675
2710.23	0.001397
2719.87	0.001377
2729.52	0.001557
2739.16	0.001657
2748.81	0.001757
2758.45	0.001847
2768.1	0.002257
2777.74	0.002837
2787.39	0.003677
2797.03	0.004617
2806.68	0.006297
2816.32	0.008977
2825.97	0.013727
2835.61	0.027747
2845.26	0.040097
2854.9	0.028427
2864.55	0.017897
2874.19	0.015927
2883.84	0.015657
2893.48	0.017287
2903.12	0.022457
2912.77	0.031497
2922.41	0.036217
2932.06	0.041277
2941.7	0.057137
2951.35	0.062457
2960.99	0.051007
2970.64	0.033537
2980.28	0.023707
2989.93	0.023817
2999.57	0.037077
3009.22	0.047857
3018.86	0.027777
3028.51	0.014157
3038.15	0.012777
3047.8	0.011867
3057.44	0.010437
3067.09	0.010457
3076.73	0.009837
3086.38	0.008407
3096.02	0.006527
3105.67	0.005047
3115.31	0.004257
3124.95	0.003377
3134.6	0.002817
3144.24	0.002247
3153.89	0.001937
3163.53	0.001677
3173.18	0.001647
3182.82	0.001517
3192.47	0.001407
3202.11	0.001437
3211.76	0.0010597
3221.4	0.0008791
3231.05	0.000723
3240.69	0.0006563
3250.34	0.0006012
3259.98	0.0004981
3269.63	0.00044468
3279.27	0.000358509
3288.92	0.000361336
3298.56	0.00024
3308.21	0.00038129
3317.85	0.0003268
3327.49	0.000244
3337.14	0.00038645
3346.78	0.0002921
3356.43	0.000319
3366.07	0.000222
3375.72	0.000219
3385.36	0.000241
3395.01	0.0003238
3404.65	0.00037131
3414.3	0.00039067
3423.94	0.00043134
3433.59	0.000241
3443.23	0.000208
3452.88	0.000185
3462.52	0.000168
3472.17	0.000219
3481.81	0.0003208
3491.46	0.000234
3501.1	0.00039959
3510.75	0.0003083
3520.39	0.0003118
3530.04	0.0004031
3539.68	0.00044156
3549.32	0.0006262
3558.97	0.0004583
3568.61	0.00036304
3578.26	0.0003265
3587.9	0.000178
3597.55	0.000363837
3607.19	0.00031
3616.84	0.00044494
3626.48	0.0003165
3636.13	0.000143
3645.77	0.0003303
3655.42	0.0003408
3665.06	0.000223
3674.71	0.000131
3684.35	0.0002621
3694	0.0004966
3703.64	0.00044924
3713.29	0.0002649
3722.93	0.0004377
3732.58	0.0004752
3742.22	0.0004321
3751.86	0.000257
3761.51	0.00037545
3771.15	0.0005279
3780.8	0.0005502
3790.44	0.00043574
3800.09	0.0003379
3809.73	0.0004687
3819.38	0.0005001
3829.02	0.00042388
3838.67	0.00040983
3848.31	0.0006582
3857.96	0.0006209
3867.6	0.0006111
3877.25	0.0008733
3886.89	0.000668
3896.54	0.0006174
3906.18	0.0006216
3915.83	0.0005833
3925.47	0.0005935
3935.12	0.0005257
3944.76	0.0007021
3954.41	0.0007962
3964.05	0.0007282
3973.69	0.0007887
3983.34	0.0007832
3992.98	0.0008001
