Infrared Spectrum: ADENINE, 9-CYCLOPENTYL-, 1-OXIDE
Formula: C10 H13 N5 O
CAS: 35966-97-3
State: SOLID (1 mg / 650 mg KBr DISC)
Class: COBLENTZ III
Instrument: PERKIN-ELMER 521 (GRATING)
Instrument parameters: FILTERS AT 3150, 2500, 2000, 1150, 700, 410 CM ^-^1, GRATING CHANGES AT 2000, 630 CM^-^1
Sampling: TRANSMISSION
Resolution: 4
Origin: SOUTHERN RES. INSTITUTE
1/CM	TRANSMITTANCE
239.47	0.284
248.557	0.297
257.643	0.33
266.73	0.374
275.816	0.452
284.903	0.504
293.99	0.561
303.076	0.609
312.163	0.639
321.249	0.664
330.336	0.675
339.423	0.695
348.509	0.708
357.596	0.731
366.683	0.722
375.769	0.706
384.856	0.761
393.942	0.757
403.029	0.779
412.116	0.81
421.202	0.821
430.289	0.809
439.375	0.798
448.462	0.838
457.549	0.843
466.635	0.844
475.722	0.844
484.808	0.838
493.895	0.794
502.982	0.754
512.068	0.81
521.155	0.815
530.242	0.798
539.328	0.785
548.415	0.783
557.501	0.787
566.588	0.806
575.675	0.812
584.761	0.814
593.848	0.795
602.934	0.734
612.021	0.788
621.108	0.818
630.194	0.814
639.281	0.81
648.367	0.777
657.454	0.732
666.541	0.804
675.627	0.838
684.714	0.858
693.8	0.843
702.887	0.829
711.974	0.816
721.06	0.754
730.147	0.758
739.234	0.832
748.32	0.859
757.407	0.864
766.493	0.869
775.58	0.866
784.667	0.868
793.753	0.876
802.84	0.872
811.926	0.863
821.013	0.792
830.1	0.767
839.186	0.817
848.273	0.848
857.359	0.872
866.446	0.894
875.533	0.89
884.619	0.869
893.706	0.855
902.793	0.849
911.879	0.854
920.966	0.877
930.052	0.875
939.139	0.863
948.226	0.842
957.312	0.829
966.399	0.848
975.485	0.875
984.572	0.88
993.659	0.879
1002.75	0.878
1011.83	0.875
1020.92	0.869
1030.01	0.854
1039.09	0.816
1048.18	0.823
1057.26	0.758
1066.35	0.788
1075.44	0.835
1084.52	0.841
1093.61	0.834
1102.7	0.827
1111.78	0.819
1120.87	0.813
1129.96	0.804
1139.04	0.757
1148.13	0.639
1157.22	0.621
1166.3	0.708
1175.39	0.76
1184.48	0.776
1193.56	0.772
1202.65	0.763
1211.74	0.749
1220.82	0.68
1229.91	0.444
1239	0.541
1248.08	0.694
1257.17	0.68
1266.26	0.669
1275.34	0.748
1284.43	0.816
1293.52	0.817
1302.6	0.816
1311.69	0.81
1320.78	0.807
1329.86	0.783
1338.95	0.697
1348.04	0.747
1357.12	0.798
1366.21	0.784
1375.3	0.734
1384.38	0.629
1393.47	0.618
1402.56	0.729
1411.64	0.706
1420.73	0.747
1429.82	0.821
1438.9	0.852
1447.99	0.841
1457.08	0.805
1466.16	0.811
1475.25	0.839
1484.34	0.823
1493.42	0.704
1502.51	0.534
1511.6	0.788
1520.68	0.834
1529.77	0.859
1538.86	0.865
1547.94	0.866
1557.03	0.855
1566.12	0.774
1575.2	0.697
1584.29	0.809
1593.37	0.809
1602.46	0.822
1611.55	0.838
1620.63	0.817
1629.72	0.792
1638.81	0.742
1647.89	0.679
1656.98	0.328
1666.07	0.212
1675.15	0.313
1684.24	0.462
1693.33	0.641
1702.41	0.792
1711.5	0.845
1720.59	0.891
1729.67	0.901
1738.76	0.906
1747.85	0.906
1756.93	0.906
1766.02	0.905
1775.11	0.906
1784.19	0.911
1793.28	0.913
1802.37	0.916
1811.45	0.919
1820.54	0.923
1829.63	0.925
1838.71	0.925
1847.8	0.922
1856.89	0.922
1865.97	0.921
1875.06	0.919
1884.15	0.919
1893.23	0.919
1902.32	0.918
1911.41	0.918
1920.49	0.917
1929.58	0.916
1938.67	0.915
1947.75	0.916
1956.84	0.916
1965.93	0.916
1975.01	0.915
1984.1	0.914
1993.19	0.913
2002.27	0.913
2011.36	0.912
2020.45	0.911
2029.53	0.91
2038.62	0.909
2047.71	0.909
2056.79	0.906
2065.88	0.905
2074.97	0.904
2084.05	0.904
2093.14	0.904
2102.23	0.904
2111.31	0.904
2120.4	0.904
2129.48	0.904
2138.57	0.903
2147.66	0.903
2156.74	0.903
2165.83	0.903
2174.92	0.903
2184	0.902
2193.09	0.902
2202.18	0.901
2211.26	0.901
2220.35	0.9
2229.44	0.9
2238.52	0.9
2247.61	0.9
2256.7	0.9
2265.78	0.9
2274.87	0.9
2283.96	0.899
2293.04	0.898
2302.13	0.897
2311.22	0.896
2320.3	0.894
2329.39	0.894
2338.48	0.892
2347.56	0.89
2356.65	0.888
2365.74	0.888
2374.82	0.89
2383.91	0.89
2393	0.89
2402.08	0.889
2411.17	0.889
2420.26	0.888
2429.34	0.887
2438.43	0.885
2447.52	0.883
2456.6	0.881
2465.69	0.878
2474.78	0.877
2483.86	0.875
2492.95	0.874
2502.04	0.872
2511.12	0.872
2520.21	0.871
2529.3	0.869
2538.38	0.869
2547.47	0.868
2556.56	0.867
2565.64	0.866
2574.73	0.866
2583.82	0.865
2592.9	0.864
2601.99	0.863
2611.08	0.863
2620.16	0.86
2629.25	0.858
2638.33	0.856
2647.42	0.854
2656.51	0.854
2665.59	0.852
2674.68	0.85
2683.77	0.847
2692.85	0.844
2701.94	0.841
2711.03	0.839
2720.11	0.838
2729.2	0.837
2738.29	0.835
2747.37	0.835
2756.46	0.833
2765.55	0.831
2774.63	0.828
2783.72	0.82
2792.81	0.816
2801.89	0.813
2810.98	0.81
2820.07	0.807
2829.15	0.801
2838.24	0.787
2847.33	0.771
2856.41	0.745
2865.5	0.699
2874.59	0.727
2883.67	0.75
2892.76	0.742
2901.85	0.713
2910.93	0.698
2920.02	0.691
2929.11	0.675
2938.19	0.645
2947.28	0.632
2956.37	0.633
2965.45	0.644
2974.54	0.688
2983.63	0.697
2992.71	0.695
3001.8	0.684
3010.89	0.666
3019.97	0.657
3029.06	0.639
3038.15	0.611
3047.23	0.594
3056.32	0.585
3065.41	0.559
3074.49	0.543
3083.58	0.54
3092.67	0.546
3101.75	0.557
3110.84	0.57
3119.93	0.577
3129.01	0.582
3138.1	0.599
3147.19	0.618
3156.27	0.63
3165.36	0.632
3174.44	0.63
3183.53	0.622
3192.62	0.624
3201.7	0.639
3210.79	0.649
3219.88	0.655
3228.96	0.655
3238.05	0.649
3247.14	0.624
3256.22	0.618
3265.31	0.626
3274.4	0.639
3283.48	0.652
3292.57	0.661
3301.66	0.669
3310.74	0.67
3319.83	0.67
3328.92	0.668
3338	0.664
3347.09	0.65
3356.18	0.63
3365.26	0.63
3374.35	0.641
3383.44	0.664
3392.52	0.686
3401.61	0.707
3410.7	0.725
3419.78	0.741
3428.87	0.746
3437.96	0.751
3447.04	0.755
3456.13	0.76
3465.22	0.763
3474.3	0.766
3483.39	0.771
3492.48	0.773
3501.56	0.783
3510.65	0.788
3519.74	0.794
3528.82	0.798
3537.91	0.805
3547	0.809
3556.08	0.815
3565.17	0.82
3574.26	0.827
3583.34	0.832
3592.43	0.839
3601.52	0.845
3610.6	0.849
3619.69	0.854
3628.78	0.859
3637.86	0.861
3646.95	0.862
3656.04	0.862
3665.12	0.86
3674.21	0.86
3683.3	0.86
3692.38	0.863
3701.47	0.865
3710.55	0.863
3719.64	0.863
3728.73	0.86
3737.81	0.857
3746.9	0.858
3755.99	0.862
3765.07	0.864
3774.16	0.864
3783.25	0.863
