Infrared Spectrum: ADENINE, 6-N-BENZYL-9-CYCLOPENTYL-
Formula: C17 H19 N5
CAS: 35966-95-1
State: SOLID (1 mg / 650 mg KBr DISC)
Class: COBLENTZ III
Instrument: PERKIN-ELMER 521 (GRATING)
Instrument parameters: FILTER CHANGE AT 3130, 2500, 2000, 1150, 700, 410 CM^-^1, GRATING CHANGES AT 2000, 620 CM^-^1
Sampling: TRANSMISSION
Resolution: 4
Origin: SOUTHERN RESEARCH INSTITUTE
1/CM	TRANSMITTANCE
237.758	0.333
246.959	0.374
256.161	0.445
265.362	0.53
274.564	0.615
283.765	0.675
292.967	0.716
302.168	0.753
311.37	0.786
320.571	0.817
329.773	0.844
338.974	0.868
348.176	0.891
357.377	0.911
366.579	0.918
375.78	0.925
384.982	0.924
394.183	0.928
403.385	0.933
412.586	0.938
421.788	0.956
430.989	0.955
440.191	0.949
449.392	0.947
458.594	0.931
467.795	0.838
476.997	0.867
486.198	0.911
495.4	0.929
504.601	0.967
513.803	0.953
523.004	0.921
532.205	0.88
541.407	0.947
550.608	0.946
559.81	0.917
569.011	0.902
578.213	0.915
587.414	0.886
596.616	0.905
605.817	0.875
615.019	0.837
624.22	0.842
633.422	0.832
642.623	0.477
651.825	0.798
661.026	0.786
670.228	0.807
679.429	0.856
688.631	0.747
697.832	0.495
707.034	0.799
716.235	0.803
725.437	0.632
734.638	0.573
743.84	0.846
753.041	0.905
762.243	0.928
771.444	0.927
780.646	0.926
789.847	0.814
799.048	0.716
808.25	0.933
817.451	0.932
826.653	0.928
835.854	0.899
845.056	0.877
854.257	0.94
863.459	0.937
872.66	0.93
881.862	0.853
891.063	0.849
900.265	0.891
909.466	0.93
918.668	0.935
927.869	0.933
937.071	0.91
946.272	0.898
955.474	0.893
964.675	0.773
973.877	0.805
983.078	0.9
992.28	0.917
1001.48	0.89
1010.68	0.895
1019.88	0.89
1029.09	0.776
1038.29	0.914
1047.49	0.914
1056.69	0.898
1065.89	0.816
1075.09	0.832
1084.29	0.867
1093.5	0.826
1102.7	0.808
1111.9	0.839
1121.1	0.874
1130.3	0.87
1139.5	0.775
1148.7	0.671
1157.91	0.724
1167.11	0.845
1176.31	0.844
1185.51	0.837
1194.71	0.827
1203.91	0.805
1213.12	0.778
1222.32	0.688
1231.52	0.663
1240.72	0.603
1249.92	0.553
1259.12	0.741
1268.32	0.763
1277.53	0.726
1286.73	0.558
1295.93	0.408
1305.13	0.735
1314.33	0.733
1323.53	0.528
1332.73	0.572
1341.94	0.628
1351.14	0.385
1360.34	0.825
1369.54	0.751
1378.74	0.768
1387.94	0.81
1397.14	0.662
1406.35	0.647
1415.55	0.769
1424.75	0.811
1433.95	0.758
1443.15	0.635
1452.35	0.509
1461.56	0.682
1470.76	0.602
1479.96	0.571
1489.16	0.544
1498.36	0.585
1507.56	0.865
1516.76	0.864
1525.97	0.707
1535.17	0.678
1544.37	0.803
1553.57	0.826
1562.77	0.803
1571.97	0.608
1581.17	0.437
1590.38	0.59
1599.58	0.608
1608.78	0.465
1617.98	0.276
1627.18	0.118
1636.38	0.2
1645.58	0.518
1654.79	0.738
1663.99	0.864
1673.19	0.913
1682.39	0.895
1691.59	0.939
1700.79	0.968
1710	0.983
1719.2	0.992
1728.4	1.003
1737.6	1.007
1746.8	1.009
1756	1.008
1765.2	1.006
1774.41	1.004
1783.61	1.001
1792.81	0.999
1802.01	0.996
1811.21	0.984
1820.41	0.977
1829.61	0.977
1838.82	0.982
1848.02	0.98
1857.22	0.977
1866.42	0.974
1875.62	0.973
1884.82	0.973
1894.03	0.973
1903.23	0.971
1912.43	0.962
1921.63	0.952
1930.83	0.933
1940.03	0.94
1949.23	0.963
1958.44	0.967
1967.64	0.966
1976.84	0.961
1986.04	0.955
1995.24	0.95
2004.44	0.949
2013.64	0.947
2022.85	0.946
2032.05	0.946
2041.25	0.944
2050.45	0.943
2059.65	0.942
2068.85	0.941
2078.05	0.94
2087.26	0.939
2096.46	0.938
2105.66	0.937
2114.86	0.937
2124.06	0.936
2133.26	0.936
2142.47	0.936
2151.67	0.934
2160.87	0.933
2170.07	0.931
2179.27	0.93
2188.47	0.929
2197.67	0.928
2206.88	0.927
2216.08	0.927
2225.28	0.927
2234.48	0.926
2243.68	0.921
2252.88	0.92
2262.08	0.92
2271.29	0.918
2280.49	0.915
2289.69	0.913
2298.89	0.91
2308.09	0.908
2317.29	0.908
2326.49	0.908
2335.7	0.908
2344.9	0.902
2354.1	0.902
2363.3	0.908
2372.5	0.91
2381.7	0.911
2390.91	0.91
2400.11	0.908
2409.31	0.902
2418.51	0.901
2427.71	0.899
2436.91	0.898
2446.11	0.896
2455.32	0.896
2464.52	0.895
2473.72	0.894
2482.92	0.894
2492.12	0.894
2501.32	0.891
2510.52	0.887
2519.73	0.884
2528.93	0.881
2538.13	0.88
2547.33	0.88
2556.53	0.88
2565.73	0.878
2574.93	0.877
2584.14	0.877
2593.34	0.875
2602.54	0.874
2611.74	0.871
2620.94	0.871
2630.14	0.869
2639.35	0.867
2648.55	0.864
2657.75	0.862
2666.95	0.859
2676.15	0.858
2685.35	0.858
2694.55	0.858
2703.76	0.857
2712.96	0.856
2722.16	0.855
2731.36	0.853
2740.56	0.852
2749.76	0.846
2758.96	0.839
2768.17	0.835
2777.37	0.834
2786.57	0.83
2795.77	0.824
2804.97	0.823
2814.17	0.815
2823.37	0.801
2832.58	0.784
2841.78	0.75
2850.98	0.704
2860.18	0.636
2869.38	0.688
2878.58	0.745
2887.79	0.729
2896.99	0.695
2906.19	0.666
2915.39	0.658
2924.59	0.64
2933.79	0.604
2942.99	0.578
2952.2	0.59
2961.4	0.622
2970.6	0.698
2979.8	0.743
2989	0.763
2998.2	0.77
3007.4	0.766
3016.61	0.729
3025.81	0.729
3035.01	0.723
3044.21	0.695
3053.41	0.709
3062.61	0.742
3071.81	0.728
3081.02	0.748
3090.22	0.761
3099.42	0.761
3108.62	0.741
3117.82	0.713
3127.02	0.707
3136.23	0.726
3145.43	0.739
3154.63	0.735
3163.83	0.721
3173.03	0.702
3182.23	0.655
3191.43	0.632
3200.64	0.64
3209.84	0.601
3219.04	0.612
3228.24	0.646
3237.44	0.621
3246.64	0.562
3255.84	0.501
3265.05	0.453
3274.25	0.465
3283.45	0.542
3292.65	0.644
3301.85	0.713
3311.05	0.756
3320.25	0.781
3329.46	0.795
3338.66	0.803
3347.86	0.811
3357.06	0.816
3366.26	0.817
3375.46	0.815
3384.67	0.814
3393.87	0.811
3403.07	0.809
3412.27	0.808
3421.47	0.807
3430.67	0.807
3439.87	0.806
3449.08	0.806
3458.28	0.806
3467.48	0.806
3476.68	0.806
3485.88	0.807
3495.08	0.808
3504.28	0.808
3513.49	0.81
3522.69	0.811
3531.89	0.814
3541.09	0.817
3550.29	0.82
3559.49	0.821
3568.7	0.823
3577.9	0.825
3587.1	0.827
3596.3	0.827
3605.5	0.829
3614.7	0.83
3623.9	0.831
3633.11	0.833
3642.31	0.833
3651.51	0.833
3660.71	0.833
3669.91	0.832
3679.11	0.831
3688.31	0.832
3697.52	0.832
3706.72	0.831
3715.92	0.83
3725.12	0.83
3734.32	0.83
3743.52	0.83
3752.72	0.829
3761.93	0.829
3771.13	0.828
3780.33	0.828
3789.53	0.827
3798.73	0.826
