Infrared Spectrum: BENZOIC ACID, o-(3,3-DIMETHYL-1-TRIAZENO)-, METHYL ESTER
Formula: C10 H13 N3 O2
CAS: 35967-28-3
State: LIQUID (NEAT)
Class: COBLENTZ III
Instrument: PERKIN-ELMER 221 (GRATING)
Instrument parameters: FILTER CHANGE AT 2490, 980 CM^-^1, GRATING FOR 4000-1428 CM^-^1, NaCl PRISM FOR 1428-650 CM^-^1
Sampling: TRANSMISSION
Path length: CAPILLARY
Resolution: 4
Origin: SOUTHERN RESEARCH INSTITUTE
1/CM	TRANSMITTANCE
606.215	0.855
615.538	0.85
624.861	0.802
634.184	0.866
643.507	0.905
652.83	0.902
662.153	0.881
671.476	0.831
680.799	0.829
690.122	0.909
699.445	0.882
708.768	0.794
718.091	0.815
727.414	0.875
736.737	0.902
746.06	0.87
755.383	0.52
764.706	0.555
774.029	0.822
783.351	0.921
792.674	0.972
801.997	0.971
811.32	0.959
820.643	0.991
829.966	0.898
839.289	0.902
848.612	0.995
857.935	0.992
867.258	0.97
876.581	0.985
885.904	0.996
895.227	0.996
904.55	0.98
913.873	0.954
923.196	0.976
932.519	0.967
941.842	0.919
951.165	0.874
960.488	0.872
969.811	0.915
979.134	0.966
988.457	0.964
997.78	0.952
1007.1	0.923
1016.43	0.911
1025.75	0.858
1035.07	0.764
1044.39	0.742
1053.72	0.762
1063.04	0.554
1072.36	0.335
1081.69	0.4
1091.01	0.462
1100.33	0.476
1109.66	0.701
1118.98	0.575
1128.3	0.556
1137.62	0.732
1146.95	0.805
1156.27	0.723
1165.59	0.827
1174.92	0.81
1184.24	0.756
1193.56	0.722
1202.89	0.683
1212.21	0.665
1221.53	0.74
1230.85	0.66
1240.18	0.472
1249.5	0.303
1258.82	0.427
1268.15	0.578
1277.47	0.531
1286.79	0.384
1296.12	0.303
1305.44	0.386
1314.76	0.394
1324.08	0.502
1333.41	0.481
1342.73	0.4
1352.05	0.457
1361.38	0.637
1370.7	0.705
1380.02	0.673
1389.34	0.511
1398.67	0.437
1407.99	0.68
1417.31	0.646
1426.64	0.545
1435.96	0.427
1445.28	0.336
1454.61	0.333
1463.93	0.458
1473.25	0.377
1482.57	0.401
1491.9	0.632
1501.22	0.706
1510.54	0.821
1519.87	0.861
1529.19	0.875
1538.51	0.9
1547.84	0.903
1557.16	0.89
1566.48	0.877
1575.8	0.83
1585.13	0.855
1594.45	0.748
1603.77	0.818
1613.1	0.899
1622.42	0.903
1631.74	0.903
1641.07	0.885
1650.39	0.875
1659.71	0.869
1669.03	0.851
1678.36	0.804
1687.68	0.752
1697	0.588
1706.33	0.393
1715.65	0.245
1724.97	0.204
1734.29	0.454
1743.62	0.746
1752.94	0.854
1762.26	0.888
1771.59	0.916
1780.91	0.941
1790.23	0.947
1799.56	0.952
1808.88	0.956
1818.2	0.959
1827.52	0.961
1836.85	0.962
1846.17	0.962
1855.49	0.963
1864.82	0.963
1874.14	0.962
1883.46	0.962
1892.79	0.962
1902.11	0.962
1911.43	0.962
1920.75	0.963
1930.08	0.963
1939.4	0.963
1948.72	0.964
1958.05	0.965
1967.37	0.965
1976.69	0.965
1986.02	0.965
1995.34	0.965
2004.66	0.965
2013.98	0.965
2023.31	0.965
2032.63	0.965
2041.95	0.963
2051.28	0.962
2060.6	0.961
2069.92	0.96
2079.24	0.959
2088.57	0.958
2097.89	0.957
2107.21	0.956
2116.54	0.956
2125.86	0.956
2135.18	0.955
2144.51	0.955
2153.83	0.954
2163.15	0.954
2172.47	0.953
2181.8	0.952
2191.12	0.952
2200.44	0.952
2209.77	0.951
2219.09	0.95
2228.41	0.949
2237.74	0.947
2247.06	0.946
2256.38	0.946
2265.7	0.945
2275.03	0.944
2284.35	0.943
2293.67	0.942
2303	0.942
2312.32	0.942
2321.64	0.942
2330.97	0.942
2340.29	0.942
2349.61	0.94
2358.93	0.939
2368.26	0.938
2377.58	0.936
2386.9	0.934
2396.23	0.933
2405.55	0.934
2414.87	0.935
2424.19	0.936
2433.52	0.936
2442.84	0.936
2452.16	0.936
2461.49	0.936
2470.81	0.936
2480.13	0.933
2489.46	0.929
2498.78	0.925
2508.1	0.922
2517.42	0.919
2526.75	0.919
2536.07	0.92
2545.39	0.921
2554.72	0.919
2564.04	0.918
2573.36	0.919
2582.69	0.92
2592.01	0.922
2601.33	0.922
2610.65	0.921
2619.98	0.92
2629.3	0.919
2638.62	0.918
2647.95	0.916
2657.27	0.915
2666.59	0.916
2675.92	0.917
2685.24	0.918
2694.56	0.919
2703.88	0.918
2713.21	0.915
2722.53	0.911
2731.85	0.906
2741.18	0.901
2750.5	0.89
2759.82	0.881
2769.14	0.873
2778.47	0.862
2787.79	0.843
2797.11	0.85
2806.44	0.855
2815.76	0.826
2825.08	0.783
2834.41	0.761
2843.73	0.787
2853.05	0.773
2862.37	0.759
2871.7	0.753
2881.02	0.727
2890.34	0.683
2899.67	0.648
2908.99	0.653
2918.31	0.657
2927.64	0.649
2936.96	0.625
2946.28	0.544
2955.6	0.605
2964.93	0.727
2974.25	0.767
2983.57	0.749
2992.9	0.738
3002.22	0.748
3011.54	0.767
3020.87	0.778
3030.19	0.793
3039.51	0.808
3048.83	0.803
3058.16	0.787
3067.48	0.788
3076.8	0.811
3086.13	0.845
3095.45	0.857
3104.77	0.871
3114.09	0.874
3123.42	0.875
3132.74	0.876
3142.06	0.879
3151.39	0.882
3160.71	0.885
3170.03	0.889
3179.36	0.891
3188.68	0.892
3198	0.892
3207.32	0.892
3216.65	0.89
3225.97	0.889
3235.29	0.888
3244.62	0.89
3253.94	0.89
3263.26	0.888
3272.59	0.888
3281.91	0.887
3291.23	0.885
3300.55	0.885
3309.88	0.883
3319.2	0.882
3328.52	0.881
3337.85	0.879
3347.17	0.878
3356.49	0.876
3365.82	0.876
3375.14	0.875
3384.46	0.875
3393.78	0.874
3403.11	0.872
3412.43	0.868
3421.75	0.862
3431.08	0.858
3440.4	0.858
3449.72	0.859
3459.04	0.859
3468.37	0.861
3477.69	0.859
3487.01	0.858
3496.34	0.859
3505.66	0.859
3514.98	0.857
3524.31	0.858
3533.63	0.859
3542.95	0.861
3552.27	0.861
3561.6	0.86
3570.92	0.857
3580.24	0.854
3589.57	0.852
3598.89	0.851
3608.21	0.849
3617.54	0.848
3626.86	0.848
3636.18	0.848
3645.5	0.848
3654.83	0.847
3664.15	0.847
3673.47	0.847
3682.8	0.847
3692.12	0.847
3701.44	0.848
3710.77	0.851
3720.09	0.851
3729.41	0.851
3738.73	0.848
3748.06	0.847
3757.38	0.848
3766.7	0.849
3776.03	0.849
3785.35	0.849
3794.67	0.85
3803.99	0.85
3813.32	0.849
3822.64	0.848
