Infrared Spectrum: 3-QUINOLINECARBOXYLIC ACID, 6-CHLORO-4-HYDROXY-
Formula: C10 H6 Cl N O3
CAS: 35973-14-9
State: SOLID (SPLIT MULL), FLUOROLUBE FOR 3800-1330 CM^-^1, NUJOL FOR 1330-400 CM^-^1
Class: COBLENTZ III
Instrument: BECKMAN IR-9 (GRATING)
Instrument parameters: ORDER CHANGES: 670, 1200, 2000 CM^-^1
Sampling: TRANSMISSION
Resolution: 2
Origin: DOW CHEMICAL COMPANY
1/CM	TRANSMITTANCE
403	0.5492
412	0.5579
421	0.6088
430	0.5981
439	0.6956
448	0.7536
457	0.7738
466	0.7951
475	0.8198
484	0.836
493	0.8383
502	0.8119
511	0.7561
520	0.7753
529	0.8282
538	0.7301
547	0.7872
556	0.8371
565	0.7578
574	0.7071
583	0.8144
592	0.8735
601	0.8804
610	0.8904
619	0.8908
628	0.8861
637	0.8621
646	0.8751
655	0.7534
664	0.7198
673	0.5129
682	0.8307
691	0.8309
700	0.8218
709	0.8364
718	0.7751
727	0.7661
736	0.7756
745	0.7418
754	0.665
763	0.8242
772	0.8281
781	0.8247
790	0.8049
799	0.7475
808	0.556
817	0.54
826	0.3049
835	0.6622
844	0.7649
853	0.7711
862	0.7628
871	0.7274
880	0.7067
889	0.6784
898	0.6636
907	0.7261
916	0.6699
925	0.7497
934	0.6875
943	0.6119
952	0.6498
961	0.6257
970	0.6223
979	0.574
988	0.6896
997	0.7249
1006	0.7438
1015	0.7481
1024	0.7572
1033	0.7546
1042	0.7412
1051	0.7507
1060	0.7495
1069	0.7305
1078	0.6812
1087	0.6401
1096	0.6924
1105	0.7269
1114	0.7034
1123	0.6357
1132	0.6646
1141	0.6991
1150	0.7271
1159	0.6012
1168	0.6993
1177	0.5352
1186	0.6661
1195	0.6592
1204	0.6521
1213	0.568
1222	0.6125
1231	0.6706
1240	0.6747
1249	0.628
1258	0.6219
1267	0.621
1276	0.6421
1285	0.5399
1294	0.4492
1303	0.5659
1312	0.5859
1321	0.6328
1330	0.5351
1339	0.4215
1348	0.4207
1357	0.3791
1366	0.4152
1375	0.3827
1384	0.398
1393	0.3773
1402	0.4432
1411	0.4217
1420	0.3778
1429	0.2525
1438	0.1156
1447	0.0876
1456	0.0878
1465	0.0473
1474	0.0703
1483	0.2033
1492	0.2289
1501	0.2198
1510	0.3019
1519	0.3605
1528	0.2974
1537	0.2397
1546	0.255
1555	0.2925
1564	0.2711
1573	0.3639
1582	0.365
1591	0.3457
1600	0.3712
1609	0.1435
1618	0.0985
1627	0.1991
1636	0.3228
1645	0.459
1654	0.515
1663	0.4666
1672	0.4203
1681	0.35
1690	0.2112
1699	0.1618
1708	0.1737
1717	0.1656
1726	0.1534
1735	0.56
1744	0.6925
1753	0.7712
1762	0.8383
1771	0.8696
1780	0.8878
1789	0.8892
1798	0.8802
1807	0.8861
1816	0.8846
1825	0.8717
1834	0.8693
1843	0.8662
1852	0.8589
1861	0.8468
1870	0.833
1879	0.8266
1888	0.8217
1897	0.8181
1906	0.8125
1915	0.8064
1924	0.8008
1933	0.7943
1942	0.7861
1951	0.7947
1960	0.8022
1969	0.7975
1978	0.789
1987	0.7828
1996	0.7754
2005	0.7861
2014	0.7828
2023	0.779
2032	0.7741
2041	0.769
2050	0.7645
2059	0.7604
2068	0.7562
2077	0.7517
2086	0.7471
2095	0.7419
2104	0.7364
2113	0.7298
2122	0.723
2131	0.7206
2140	0.7171
2149	0.7121
2158	0.7068
2167	0.7012
2176	0.695
2185	0.6885
2194	0.6821
2203	0.6756
2212	0.6689
2221	0.6614
2230	0.654
2239	0.6468
2248	0.6401
2257	0.6337
2266	0.6274
2275	0.6212
2284	0.6154
2293	0.6104
2302	0.606
2311	0.6019
2320	0.5986
2329	0.5952
2338	0.5922
2347	0.5894
2356	0.588
2365	0.5867
2374	0.5866
2383	0.5765
2392	0.5729
2401	0.571
2410	0.568
2419	0.5647
2428	0.5617
2437	0.5585
2446	0.5551
2455	0.5516
2464	0.5483
2473	0.5451
2482	0.5417
2491	0.5374
2500	0.5331
2509	0.5289
2518	0.5251
2527	0.5212
2536	0.5174
2545	0.5126
2554	0.5076
2563	0.5027
2572	0.4986
2581	0.4944
2590	0.4904
2599	0.4853
2608	0.48
2617	0.4746
2626	0.4686
2635	0.4627
2644	0.4573
2653	0.452
2662	0.4472
2671	0.4423
2680	0.4378
2689	0.4339
2698	0.43
2707	0.426
2716	0.422
2725	0.4179
2734	0.4142
2743	0.4106
2752	0.4066
2761	0.4028
2770	0.3993
2779	0.3966
2788	0.3938
2797	0.387
2806	0.3796
2815	0.3744
2824	0.3778
2833	0.3787
2842	0.378
2851	0.3753
2860	0.3734
2869	0.3722
2878	0.3724
2887	0.373
2896	0.3745
2905	0.3766
2914	0.3809
2923	0.3845
2932	0.3852
2941	0.3853
2950	0.3839
2959	0.3816
2968	0.3778
2977	0.3809
2986	0.4003
2995	0.401
3004	0.4012
3013	0.4016
3022	0.4126
3031	0.4133
3040	0.3879
3049	0.3696
3058	0.3792
3067	0.3766
3076	0.3753
3085	0.3918
3094	0.4104
3103	0.4321
3112	0.4515
3121	0.4579
3130	0.462
3139	0.4653
3148	0.4653
3157	0.4614
3166	0.4566
3175	0.4557
3184	0.4634
3193	0.4654
3202	0.4609
3211	0.4549
3220	0.4541
3229	0.4588
3238	0.4601
3247	0.4588
3256	0.4517
3265	0.4483
3274	0.4534
3283	0.4587
3292	0.463
3301	0.4668
3310	0.467
3319	0.4668
3328	0.4664
3337	0.4658
3346	0.4645
3355	0.4626
3364	0.4607
3373	0.4588
3382	0.4568
3391	0.4546
3400	0.4524
3409	0.4502
3418	0.4481
3427	0.4467
3436	0.4453
3445	0.4439
3454	0.4425
3463	0.441
3472	0.4402
3481	0.4396
3490	0.4391
3499	0.4385
3508	0.4379
3517	0.4373
3526	0.4368
3535	0.4364
3544	0.4362
3553	0.436
3562	0.4358
3571	0.4356
3580	0.4355
3589	0.4353
3598	0.4351
3607	0.4349
3616	0.4347
3625	0.4344
3634	0.4343
3643	0.434
3652	0.4337
3661	0.4332
3670	0.4328
3679	0.4323
3688	0.4318
3697	0.4309
3706	0.4299
3715	0.4289
3724	0.428
3733	0.427
3742	0.4258
3751	0.4243
3760	0.4228
3769	0.4212
3778	0.4198
3787	0.4183
3796	0.4167
