Infrared Spectrum: 5-Amino-6-nitroquinoline
Formula: C 9 H 7 N 3 O 2
CAS: 35975-00-9
State: gas
Origin: EPA-IR VAPOR PHASE LIBRARY
1/CM	ABSORBANCE
549.8	0.00297
559.445	0.00391
569.09	0.00385
578.734	0.00367
588.379	0.00371
598.024	0.0037
607.669	0.00179
617.313	0.00233
626.958	0.00226
636.603	0.00221
646.248	0.00197
655.893	0.00197
665.537	0.00213
675.182	0.00228
684.827	0.00182
694.472	0.00158
704.116	0.00199
713.761	0.00149
723.406	0.00206
733.051	0.00201
742.695	0.00218
752.34	0.00233
761.985	0.00497
771.63	0.00853
781.275	0.0054
790.919	0.00393
800.564	0.00751
810.209	0.00891
819.854	0.00557
829.498	0.00684
839.143	0.00387
848.788	0.00188
858.433	0.00176
868.078	0.00192
877.722	0.0023
887.367	0.00309
897.012	0.00317
906.657	0.00206
916.301	0.00143
925.946	0.0012945
935.591	0.00148
945.236	0.0012613
954.88	0.0010135
964.525	0.0011393
974.17	0.0010269
983.815	0.00143
993.46	0.0011117
1003.1	0.0008015
1012.75	0.0010688
1022.39	0.001076
1032.04	0.0012185
1041.68	0.000642
1051.33	0.0007693
1060.97	0.00178
1070.62	0.00429
1080.26	0.00403
1089.91	0.00266
1099.55	0.0012491
1109.2	0.0010197
1118.84	0.00173
1128.49	0.0013255
1138.13	0.00221
1147.78	0.00204
1157.42	0.00286
1167.07	0.00457
1176.71	0.00537
1186.36	0.00413
1196	0.0034
1205.64	0.00208
1215.29	0.0011251
1224.93	0.00233
1234.58	0.00198
1244.22	0.00307
1253.87	0.00536
1263.51	0.0101
1273.16	0.00718
1282.8	0.00438
1292.45	0.00831
1302.09	0.02116
1311.74	0.02671
1321.38	0.02261
1331.03	0.01561
1340.67	0.00587
1350.32	0.00403
1359.96	0.00399
1369.61	0.00438
1379.25	0.00514
1388.9	0.00725
1398.54	0.01603
1408.18	0.0175
1417.83	0.007
1427.47	0.00383
1437.12	0.00266
1446.76	0.00298
1456.41	0.00391
1466.05	0.00701
1475.7	0.01189
1485.34	0.01104
1494.99	0.00598
1504.63	0.00483
1514.28	0.00815
1523.92	0.01324
1533.57	0.01313
1543.21	0.00697
1552.86	0.00393
1562.5	0.00352
1572.15	0.00518
1581.79	0.00968
1591.44	0.01547
1601.08	0.02436
1610.73	0.03609
1620.37	0.03111
1630.01	0.01349
1639.66	0.00529
1649.3	0.00288
1658.95	0.00204
1668.59	0.00151
1678.24	0.00147
1687.88	0.00147
1697.53	0.0011729
1707.17	0.0011019
1716.82	0.0008653
1726.46	0.0011054
1736.11	0.000924
1745.75	0.0009953
1755.4	0.0008672
1765.04	0.0009331
1774.69	0.000941
1784.33	0.0008778
1793.98	0.0008701
1803.62	0.0006172
1813.27	0.000499
1822.91	0.0005852
1832.55	0.0006936
1842.2	0.000545
1851.84	0.00064
1861.49	0.0006689
1871.13	0.0007697
1880.78	0.0007576
1890.42	0.0007843
1900.07	0.0008617
1909.71	0.001063
1919.36	0.0009948
1929	0.0010155
1938.65	0.001038
1948.29	0.0009071
1957.94	0.0005272
1967.58	0.0005234
1977.23	0.0005011
1986.87	0.0005646
1996.52	0.0005616
2006.16	0.0005203
2015.81	0.0004964
2025.45	0.0006184
2035.1	0.000556
2044.74	0.0004637
2054.38	0.0006627
2064.03	0.0006115
2073.67	0.0006433
2083.32	0.0005776
2092.96	0.0004596
2102.61	0.0006049
2112.25	0.0006293
2121.9	0.000482
2131.54	0.0005621
2141.19	0.0006233
2150.83	0.00036155
2160.48	0.00039654
2170.12	0.0005778
2179.77	0.0004511
2189.41	0.0006733
2199.06	0.00053
2208.7	0.0007584
2218.35	0.0006554
2227.99	0.0005332
2237.64	0.0005903
2247.28	0.0005313
2256.92	0.0006715
2266.57	0.0007287
2276.21	0.0004837
2285.86	0.0006326
2295.5	0.0005866
2305.15	0.0005697
2314.79	0.0006758
2324.44	0.0006643
2334.08	0.0005124
2343.73	0.0004913
2353.37	0.0005225
2363.02	0.000322
2372.66	0.0006409
2382.31	0.0006123
2391.95	0.0006086
2401.6	0.000623
2411.24	0.0006055
2420.89	0.000633
2430.53	0.0005519
2440.18	0.0006687
2449.82	0.0004887
2459.47	0.0004903
2469.11	0.0006819
2478.75	0.0010437
2488.4	0.0007707
2498.04	0.0006051
2507.69	0.00037868
2517.33	0.0005854
2526.98	0.0004603
2536.62	0.00044124
2546.27	0.0004869
2555.91	0.0005423
2565.56	0.000683
2575.2	0.000533
2584.85	0.0005857
2594.49	0.0006731
2604.14	0.0005424
2613.78	0.0005296
2623.43	0.0005095
2633.07	0.0005566
2642.72	0.0005775
2652.36	0.0005199
2662.01	0.0005503
2671.65	0.0005532
2681.29	0.0006016
2690.94	0.0005031
2700.58	0.0006836
2710.23	0.0006075
2719.87	0.0005777
2729.52	0.0006077
2739.16	0.0005272
2748.81	0.0006139
2758.45	0.0008947
2768.1	0.0004995
2777.74	0.0006356
2787.39	0.0006146
2797.03	0.0005511
2806.68	0.0007378
2816.32	0.000657
2825.97	0.0006684
2835.61	0.0004727
2845.26	0.0007055
2854.9	0.0006266
2864.55	0.0008394
2874.19	0.0007521
2883.84	0.0007132
2893.48	0.0006624
2903.12	0.0006474
2912.77	0.0006912
2922.41	0.0006815
2932.06	0.0005166
2941.7	0.0006033
2951.35	0.00039138
2960.99	0.0005714
2970.64	0.0008532
2980.28	0.0008107
2989.93	0.001051
2999.57	0.0011325
3009.22	0.0010692
3018.86	0.0011351
3028.51	0.00144
3038.15	0.00179
3047.8	0.0024
3057.44	0.00234
3067.09	0.0024
3076.73	0.00291
3086.38	0.0022
3096.02	0.0012781
3105.67	0.0008643
3115.31	0.0005075
3124.95	0.0005226
3134.6	0.0002576
3144.24	0.0006321
3153.89	0.0004727
3163.53	0.0005597
3173.18	0.000353284
3182.82	0.0007094
3192.47	0.00039153
3202.11	0.0006913
3211.76	0.00043219
3221.4	0.0004608
3231.05	0.0004942
3240.69	0.0004515
3250.34	0.000224
3259.98	0.000155
3269.63	0.00039402
3279.27	0.00043488
3288.92	0.0003026
3298.56	0.00039997
3308.21	0.0005175
3317.85	0.0004952
3327.49	0.0008284
3337.14	0.0009616
3346.78	0.0014
3356.43	0.00223
3366.07	0.00432
3375.72	0.00635
3385.36	0.00583
3395.01	0.0037
3404.65	0.00213
3414.3	0.00151
3423.94	0.000859
3433.59	0.0007064
3443.23	0.0004598
3452.88	0.0008084
3462.52	0.0006806
3472.17	0.0010159
3481.81	0.0009786
3491.46	0.0010612
3501.1	0.00177
3510.75	0.00273
3520.39	0.00389
3530.04	0.00349
3539.68	0.00242
3549.32	0.001284
3558.97	0.0007655
3568.61	0.0006608
3578.26	0.0004827
3587.9	0.0003431
3597.55	0.00037789
3607.19	0.00041767
3616.84	0.0005003
3626.48	0.000209
3636.13	0
3645.77	0.000215
3655.42	0.00022
3665.06	0.000177
3674.71	0.0004953
3684.35	0.0003236
3694	0.0003993
3703.64	0.000733
3713.29	0.000229
3722.93	0.0003175
3732.58	0.0004721
3742.22	0.000213
3751.86	0.000214
3761.51	0.00038224
3771.15	0.0005007
3780.8	0.0003395
3790.44	0.00040636
3800.09	0.0002772
3809.73	0.0005064
3819.38	0.00042818
3829.02	0.0004972
3838.67	0.000234
3848.31	0.0004721
3857.96	0.00038664
3867.6	0.0002662
3877.25	0.00037739
3886.89	0.000248
3896.54	0.0004511
3906.18	0.000355958
3915.83	0.00038429
3925.47	8.5e-05
3935.12	0.0005862
3944.76	0.0005406
3954.41	0.0005997
3964.05	0.0005242
3973.69	0.0004242
3983.34	0.0006078
3992.98	0.000524
