Infrared Spectrum: 3-(2,6-Dichlorophenoxy)prop-1-yne
Formula: C 9 H 6 Cl 2 O
CAS: 3598-66-1
State: gas
Origin: EPA-IR VAPOR PHASE LIBRARY
1/CM	ABSORBANCE
549.8	0.002975
559.445	0.002565
569.09	0.002845
578.734	0.002605
588.379	0.002965
598.024	0.003495
607.669	0.007085
617.313	0.010945
626.958	0.018015
636.603	0.018895
646.248	0.013425
655.893	0.011365
665.537	0.020055
675.182	0.019895
684.827	0.008205
694.472	0.003955
704.116	0.002705
713.761	0.003035
723.406	0.005325
733.051	0.007855
742.695	0.008795
752.34	0.006835
761.985	0.018415
771.63	0.045435
781.275	0.035345
790.919	0.036895
800.564	0.026205
810.209	0.009265
819.854	0.005365
829.498	0.003895
839.143	0.003745
848.788	0.003155
858.433	0.002565
868.078	0.002255
877.722	0.0013557
887.367	0.002075
897.012	0.003365
906.657	0.003615
916.301	0.005155
925.946	0.008105
935.591	0.008485
945.236	0.007885
954.88	0.008085
964.525	0.010465
974.17	0.015245
983.815	0.028005
993.46	0.054055
1003.1	0.051515
1012.75	0.023405
1022.39	0.009555
1032.04	0.007965
1041.68	0.006505
1051.33	0.004775
1060.97	0.010855
1070.62	0.015935
1080.26	0.010445
1089.91	0.004615
1099.55	0.006825
1109.2	0.004805
1118.84	0.002845
1128.49	0.001725
1138.13	0.001945
1147.78	0.005275
1157.42	0.004405
1167.07	0.003135
1176.71	0.002555
1186.36	0.003665
1196	0.009635
1205.64	0.012525
1215.29	0.013715
1224.93	0.033575
1234.58	0.054485
1244.22	0.048685
1253.87	0.032535
1263.51	0.021525
1273.16	0.014525
1282.8	0.010045
1292.45	0.006375
1302.09	0.004805
1311.74	0.004035
1321.38	0.004255
1331.03	0.004935
1340.67	0.006325
1350.32	0.009155
1359.96	0.017675
1369.61	0.018785
1379.25	0.007785
1388.9	0.003805
1398.54	0.004175
1408.18	0.005665
1417.83	0.009125
1427.47	0.024575
1437.12	0.054915
1446.76	0.061505
1456.41	0.052945
1466.05	0.036285
1475.7	0.014745
1485.34	0.007895
1494.99	0.004295
1504.63	0.003655
1514.28	0.002865
1523.92	0.001985
1533.57	0.002555
1543.21	0.003225
1552.86	0.006325
1562.5	0.013545
1572.15	0.011325
1581.79	0.003925
1591.44	0.002015
1601.08	0.001965
1610.73	0.001321
1620.37	0.0014699
1630.01	0.0013529
1639.66	0.0014026
1649.3	0.001725
1658.95	0.002095
1668.59	0.001665
1678.24	0.0009715
1687.88	0.0011091
1697.53	0.0010634
1707.17	0.0012704
1716.82	0.0011649
1726.46	0.0010727
1736.11	0.0007349
1745.75	0.0009726
1755.4	0.0010987
1765.04	0.0015555
1774.69	0.002065
1784.33	0.0014988
1793.98	0.0013406
1803.62	0.0014744
1813.27	0.0012545
1822.91	0.0012635
1832.55	0.001645
1842.2	0.002255
1851.84	0.002055
1861.49	0.0012912
1871.13	0.0013718
1880.78	0.0014091
1890.42	0.0014418
1900.07	0.001905
1909.71	0.002235
1919.36	0.002385
1929	0.001745
1938.65	0.0014658
1948.29	0.0013369
1957.94	0.0014613
1967.58	0.001665
1977.23	0.0013105
1986.87	0.0013568
1996.52	0.0012444
2006.16	0.001309
2015.81	0.0012812
2025.45	0.0012751
2035.1	0.0013261
2044.74	0.0012415
2054.38	0.0012059
2064.03	0.0011259
2073.67	0.0012379
2083.32	0.0011452
2092.96	0.0009076
2102.61	0.0013536
2112.25	0.001398
2121.9	0.001895
2131.54	0.001675
2141.19	0.0014377
2150.83	0.0009663
2160.48	0.0008414
2170.12	0.0007457
2179.77	0.0008304
2189.41	0.0008468
2199.06	0.0008081
2208.7	0.0009382
2218.35	0.0010814
2227.99	0.0008854
2237.64	0.00093
2247.28	0.0009202
2256.92	0.0013408
2266.57	0.0013592
2276.21	0.0009017
2285.86	0.0011938
2295.5	0.0007738
2305.15	0.0009268
2314.79	0.001047
2324.44	0.0010867
2334.08	0.000908
2343.73	0.0010401
2353.37	0.0007184
2363.02	0.0008033
2372.66	0.00061412
2382.31	0.0006676
2391.95	0.0008193
2401.6	0.0009565
2411.24	0.0012038
2420.89	0.0010048
2430.53	0.0011568
2440.18	0.0011719
2449.82	0.0010598
2459.47	0.0009325
2469.11	0.0011566
2478.75	0.0014459
2488.4	0.0013444
2498.04	0.0015455
2507.69	0.001565
2517.33	0.0011141
2526.98	0.0010749
2536.62	0.0007596
2546.27	0.0007866
2555.91	0.0012802
2565.56	0.0007348
2575.2	0.0008051
2584.85	0.00065068
2594.49	0.0008759
2604.14	0.0008745
2613.78	0.0008608
2623.43	0.000572543
2633.07	0.0010106
2642.72	0.0008566
2652.36	0.0008481
2662.01	0.0013522
2671.65	0.0012989
2681.29	0.00059966
2690.94	0.0011413
2700.58	0.001136
2710.23	0.0012499
2719.87	0.00064434
2729.52	0.0010238
2739.16	0.00059391
2748.81	0.000424
2758.45	0.0008539
2768.1	0.00055542
2777.74	0.0009112
2787.39	0.0010902
2797.03	0.0012699
2806.68	0.0012248
2816.32	0.0008751
2825.97	0.0013388
2835.61	0.0007888
2845.26	0.0008773
2854.9	0.0015458
2864.55	0.002205
2874.19	0.002765
2883.84	0.002835
2893.48	0.002495
2903.12	0.002425
2912.77	0.002505
2922.41	0.003075
2932.06	0.005075
2941.7	0.006275
2951.35	0.005965
2960.99	0.004825
2970.64	0.004185
2980.28	0.003135
2989.93	0.001905
2999.57	0.0013432
3009.22	0.0011323
3018.86	0.0009707
3028.51	0.0010042
3038.15	0.0010045
3047.8	0.0014062
3057.44	0.002025
3067.09	0.004085
3076.73	0.004655
3086.38	0.003545
3096.02	0.0014713
3105.67	0.0013273
3115.31	0.0014488
3124.95	0.0012373
3134.6	0.0012781
3144.24	0.0009055
3153.89	0.0004703
3163.53	0.0007759
3173.18	0.000344
3182.82	0.0006996
3192.47	0.0010472
3202.11	0.0011938
3211.76	0.0011179
3221.4	0.00064028
3231.05	0.0011275
3240.69	0.0010912
3250.34	0.000936
3259.98	0.0012368
3269.63	0.0014632
3279.27	0.003215
3288.92	0.003725
3298.56	0.007025
3308.21	0.011575
3317.85	0.014265
3327.49	0.022845
3337.14	0.013435
3346.78	0.004115
3356.43	0.002495
3366.07	0.001526
3375.72	0.0014581
3385.36	0.0013783
3395.01	0.0006704
3404.65	0.0011746
3414.3	0.000457
3423.94	0.0008023
3433.59	8.2e-05
3443.23	0.00059397
3452.88	0.0009262
3462.52	0.0010631
3472.17	0.0008747
3481.81	0.0011707
3491.46	0.0007971
3501.1	0.0009054
3510.75	0.0008634
3520.39	0.0004833
3530.04	0.0008178
3539.68	0.0008852
3549.32	0.000336
3558.97	0.000312
3568.61	0.0007024
3578.26	4.3e-05
3587.9	0.0010361
3597.55	0.000244
3607.19	0.00059927
3616.84	0.00065256
3626.48	0.0011364
3636.13	0.0009276
3645.77	0.000174
3655.42	0.000367
3665.06	0.00062512
3674.71	0.000262
3684.35	0.000172
3694	0.0012322
3703.64	0.0010602
3713.29	0.0008654
3722.93	0.00064803
3732.58	0.000211
3742.22	0.0010424
3751.86	0.0008797
3761.51	0.0006813
3771.15	0.0006906
3780.8	0.0008397
3790.44	0.000379
3800.09	0.0010847
3809.73	0.0010946
3819.38	0.000814
3829.02	0.0005036
3838.67	0.0015215
3848.31	0.0008128
3857.96	0.0009166
3867.6	0.001
3877.25	0.0012628
3886.89	0.000399
3896.54	0.0015178
3906.18	0.0005114
3915.83	0.0009977
3925.47	0.0013618
3935.12	0.0004919
3944.76	0.001216
3954.41	0.001735
3964.05	0.001277
3973.69	0.0011558
3983.34	0.001344
3992.98	0.0008986
