Infrared Spectrum: 2-Trifluoromethylbenzamide
Formula: C 8 H 6 F 3 N O
CAS: 360-64-5
State: gas
Origin: EPA-IR VAPOR PHASE LIBRARY
1/CM	ABSORBANCE
549.9	0.00801
559.547	0.00749
569.193	0.0067
578.84	0.00683
588.486	0.00788
598.133	0.01045
607.779	0.01993
617.426	0.02866
627.072	0.01557
636.719	0.00879
646.365	0.01979
656.012	0.02521
665.658	0.01464
675.305	0.01253
684.951	0.01386
694.598	0.01466
704.245	0.01459
713.891	0.01612
723.538	0.02075
733.184	0.02578
742.831	0.02979
752.477	0.04061
762.124	0.06419
771.77	0.05391
781.417	0.02643
791.063	0.01561
800.71	0.01373
810.356	0.01302
820.003	0.01301
829.649	0.0133
839.296	0.01344
848.943	0.013
858.589	0.01215
868.236	0.01173
877.882	0.01212
887.529	0.01228
897.175	0.01173
906.822	0.01074
916.468	0.0099
926.115	0.00965
935.761	0.00999
945.408	0.01118
955.054	0.01289
964.701	0.01025
974.347	0.00809
983.994	0.00746
993.64	0.00721
1003.29	0.00778
1012.93	0.01055
1022.58	0.02562
1032.23	0.06045
1041.87	0.07261
1051.52	0.06191
1061.17	0.03812
1070.81	0.01694
1080.46	0.01726
1090.11	0.02358
1099.75	0.04161
1109.4	0.07313
1119.05	0.08992
1128.69	0.12782
1138.34	0.18123
1147.99	0.15885
1157.63	0.11841
1167.28	0.11972
1176.92	0.1685
1186.57	0.18132
1196.22	0.10436
1205.86	0.03817
1215.51	0.02064
1225.16	0.01564
1234.8	0.0147
1244.45	0.0176
1254.1	0.02934
1263.74	0.05189
1273.39	0.06088
1283.04	0.05338
1292.68	0.06069
1302.33	0.13397
1311.98	0.2765
1321.62	0.24608
1331.27	0.13156
1340.92	0.16453
1350.56	0.17362
1360.21	0.09448
1369.86	0.0366
1379.5	0.02121
1389.15	0.01478
1398.79	0.01065
1408.44	0.00832
1418.09	0.00682
1427.73	0.00662
1437.38	0.00812
1447.03	0.00952
1456.67	0.0072
1466.32	0.00537
1475.97	0.00583
1485.61	0.0072
1495.26	0.00737
1504.91	0.00591
1514.55	0.00534
1524.2	0.00535
1533.85	0.00585
1543.49	0.00671
1553.14	0.00888
1562.79	0.01491
1572.43	0.03351
1582.08	0.07385
1591.73	0.09387
1601.37	0.05883
1611.02	0.02698
1620.67	0.0158
1630.31	0.0136
1639.96	0.01362
1649.6	0.01198
1659.25	0.01101
1668.9	0.01399
1678.54	0.02104
1688.19	0.02761
1697.84	0.03127
1707.48	0.05323
1717.13	0.15017
1726.78	0.28206
1736.42	0.19445
1746.07	0.06826
1755.72	0.03054
1765.36	0.02362
1775.01	0.01667
1784.66	0.01014
1794.3	0.00677
1803.95	0.00546
1813.6	0.00552
1823.24	0.0067
1832.89	0.00675
1842.54	0.00511
1852.18	0.00435
1861.83	0.00447
1871.47	0.00433
1881.12	0.0037879
1890.77	0.0033452
1900.41	0.0032975
1910.06	0.0034707
1919.71	0.0034721
1929.35	0.00422
1939	0.00471
1948.65	0.0038193
1958.29	0.0035588
1967.94	0.0039861
1977.59	0.0032598
1987.23	0.00237
1996.88	0.00212
2006.53	0.00208
2016.17	0.00211
2025.82	0.002141
2035.47	0.00213
2045.11	0.00207
2054.76	0.00207
2064.41	0.00206
2074.05	0.00205
2083.7	0.00208
2093.35	0.002244
2102.99	0.002454
2112.64	0.002382
2122.28	0.00207
2131.93	0.00196
2141.58	0.00191
2151.22	0.00194
2160.87	0.00191
2170.52	0.00195
2180.16	0.00197
2189.81	0.00206
2199.46	0.00212
2209.1	0.002221
2218.75	0.002341
2228.4	0.002379
2238.04	0.002281
2247.69	0.002256
2257.34	0.002173
2266.98	0.002193
2276.63	0.002238
2286.28	0.002158
2295.92	0.00214
2305.57	0.002197
2315.22	0.002311
2324.86	0.002404
2334.51	0.002528
2344.16	0.002395
2353.8	0.00207
2363.45	0.002
2373.09	0.00203
2382.74	0.00198
2392.39	0.0019
2402.03	0.00192
2411.68	0.00191
2421.33	0.00199
2430.97	0.00209
2440.62	0.00211
2450.27	0.00207
2459.91	0.00197
2469.56	0.00178
2479.21	0.0017
2488.85	0.00163
2498.5	0.00157
2508.15	0.00144
2517.79	0.00141
2527.44	0.00129
2537.09	0.00128
2546.73	0.00126
2556.38	0.0012
2566.03	0.00125
2575.67	0.00126
2585.32	0.00132
2594.96	0.00132
2604.61	0.00134
2614.26	0.00143
2623.9	0.00152
2633.55	0.00156
2643.2	0.00133
2652.84	0.00131
2662.49	0.00127
2672.14	0.00123
2681.78	0.00109
2691.43	0.00098
2701.08	0.00089
2710.72	0.00085
2720.37	0.00091
2730.02	0.00095
2739.66	0.00081
2749.31	0.00082
2758.96	0.0009
2768.6	0.00088
2778.25	0.00083
2787.9	0.00091
2797.54	0.00118
2807.19	0.00149
2816.84	0.00148
2826.48	0.00104
2836.13	0.00069
2845.77	0.00066
2855.42	0.00064
2865.07	0.00066
2874.71	0.0008
2884.36	0.00081
2894.01	0.0009
2903.65	0.0009
2913.3	0.0009
2922.95	0.00099
2932.59	0.00084
2942.24	0.00074
2951.89	0.00044
2961.53	0.00035
2971.18	0.00028
2980.83	0.00037
2990.47	0.00053
3000.12	0.00099
3009.77	0.00118
3019.41	0.00124
3029.06	0.00191
3038.71	0.00282
3048.35	0.00314899
3058	0.0043
3067.64	0.00832
3077.29	0.01369
3086.94	0.01215
3096.58	0.00475
3106.23	0.00202
3115.88	0.00147
3125.52	0.00096
3135.17	0.00067
3144.82	0.00096
3154.46	0.00111
3164.11	0.00122
3173.76	0.00076
3183.4	0.00054
3193.05	0.00034
3202.7	3e-05
3212.34	0.00011
3221.99	0.00013
3231.64	0.0002
3241.28	4e-05
3250.93	7e-05
3260.58	0.00017
3270.22	0.00031
3279.87	0.00041
3289.52	0.00048
3299.16	0.00073
3308.81	0.00114
3318.45	0.00111
3328.1	0.00098
3337.75	0.00073
3347.39	0.00105
3357.04	0.00106
3366.69	0.00147
3376.33	0.002187
3385.98	0.0034061
3395.63	0.0057
3405.27	0.01021
3414.92	0.0181
3424.57	0.02965
3434.21	0.03383
3443.86	0.0195
3453.51	0.00751
3463.15	0.00457
3472.8	0.0039041
3482.45	0.0036634
3492.09	0.0038686
3501.74	0.0052
3511.39	0.00712
3521.03	0.00949
3530.68	0.01314
3540.33	0.01911
3549.97	0.02642
3559.62	0.02273
3569.26	0.01036
3578.91	0.00486
3588.56	0.003786
3598.2	0.003485
3607.85	0.002846
3617.5	0.002429
3627.14	0.00206
3636.79	0.002
3646.44	0.00184
3656.08	0.00196
3665.73	0.00173
3675.38	0.00173
3685.02	0.00184
3694.67	0.00186
3704.32	0.00179
3713.96	0.00178
3723.61	0.00178
3733.26	0.00183
3742.9	0.00198
3752.55	0.00204
3762.2	0.00207
3771.84	0.00194
3781.49	0.00196
3791.13	0.00188
3800.78	0.00199
3810.43	0.00186
3820.07	0.00183
3829.72	0.00189
3839.37	0.00185
3849.01	0.00196
3858.66	0.002
3868.31	0.00202
3877.95	0.00198
3887.6	0.00191
3897.25	0.00186
3906.89	0.0018
3916.54	0.00185
3926.19	0.00179
3935.83	0.0019
3945.48	0.00178
3955.13	0.00181
3964.77	0.00176
3974.42	0.00182
3984.07	0.00173
3993.71	0.00184
