Infrared Spectrum: 2,3-Diflurophenylacetic acid
Formula: C 8 H 6 F 2 O 2
CAS: 360-03-2
State: gas
Origin: EPA-IR VAPOR PHASE LIBRARY
1/CM	ABSORBANCE
549.8	0.007968
559.445	0.011268
569.09	0.010368
578.734	0.008058
588.379	0.006638
598.024	0.006458
607.669	0.008188
617.313	0.009318
626.958	0.008498
636.603	0.008308
646.248	0.007338
655.893	0.006258
665.537	0.006188
675.182	0.006358
684.827	0.003798
694.472	0.003808
704.116	0.004588
713.761	0.005308
723.406	0.005098
733.051	0.005238
742.695	0.006568
752.34	0.007498
761.985	0.006928
771.63	0.006788
781.275	0.005968
790.919	0.003868
800.564	0.003248
810.209	0.002898
819.854	0.003888
829.498	0.004458
839.143	0.004488
848.788	0.002438
858.433	0.002638
868.078	0.002738
877.722	0.002168
887.367	0.0019047
897.012	0.002828
906.657	0.002558
916.301	0.0018678
925.946	0.002278
935.591	0.002108
945.236	0.002108
954.88	0.002188
964.525	0.0019139
974.17	0.0017893
983.815	0.002688
993.46	0.006128
1003.1	0.006108
1012.75	0.003208
1022.39	0.002808
1032.04	0.003328
1041.68	0.003398
1051.33	0.002748
1060.97	0.003578
1070.62	0.005618
1080.26	0.005828
1089.91	0.008668
1099.55	0.015178
1109.2	0.026998
1118.84	0.034588
1128.49	0.027928
1138.13	0.016248
1147.78	0.012528
1157.42	0.008058
1167.07	0.006108
1176.71	0.007178
1186.36	0.008598
1196	0.010268
1205.64	0.014408
1215.29	0.014558
1224.93	0.012408
1234.58	0.009888
1244.22	0.009608
1253.87	0.008848
1263.51	0.010038
1273.16	0.012628
1282.8	0.017548
1292.45	0.016068
1302.09	0.011058
1311.74	0.007398
1321.38	0.005988
1331.03	0.005868
1340.67	0.005778
1350.32	0.006538
1359.96	0.007258
1369.61	0.007288
1379.25	0.005908
1388.9	0.004298
1398.54	0.003238
1408.18	0.003198
1417.83	0.003268
1427.47	0.003458
1437.12	0.003488
1446.76	0.002918
1456.41	0.003798
1466.05	0.007088
1475.7	0.014988
1485.34	0.025198
1494.99	0.032088
1504.63	0.023768
1514.28	0.009818
1523.92	0.004638
1533.57	0.002718
1543.21	0.002658
1552.86	0.002538
1562.5	0.002258
1572.15	0.002298
1581.79	0.003248
1591.44	0.004688
1601.08	0.005058
1610.73	0.004388
1620.37	0.005648
1630.01	0.005608
1639.66	0.003138
1649.3	0.0017448
1658.95	0.002128
1668.59	0.001988
1678.24	0.002068
1687.88	0.002538
1697.53	0.002518
1707.17	0.002778
1716.82	0.003398
1726.46	0.004018
1736.11	0.006098
1745.75	0.008838
1755.4	0.013588
1765.04	0.019968
1774.69	0.030878
1784.33	0.037938
1793.98	0.029328
1803.62	0.017008
1813.27	0.009868
1822.91	0.005678
1832.55	0.003898
1842.2	0.002818
1851.84	0.002228
1861.49	0.001978
1871.13	0.0018028
1880.78	0.001666
1890.42	0.0016456
1900.07	0.0016881
1909.71	0.00182
1919.36	0.001938
1929	0.0014
1938.65	0.0016234
1948.29	0.0013388
1957.94	0.0016874
1967.58	0.0015212
1977.23	0.0012809
1986.87	0.0016386
1996.52	0.00134
2006.16	0.0014953
2015.81	0.0015778
2025.45	0.0013902
2035.1	0.0014258
2044.74	0.0014488
2054.38	0.0013664
2064.03	0.001385
2073.67	0.001235
2083.32	0.00163
2092.96	0.0014578
2102.61	0.0012765
2112.25	0.0011436
2121.9	0.0012469
2131.54	0.0012089
2141.19	0.0012246
2150.83	0.0014513
2160.48	0.001292
2170.12	0.0013846
2179.77	0.00100286
2189.41	0.0014496
2199.06	0.0012368
2208.7	0.0014629
2218.35	0.0013207
2227.99	0.0012763
2237.64	0.001605
2247.28	0.0014529
2256.92	0.0016318
2266.57	0.0011633
2276.21	0.0013974
2285.86	0.0013569
2295.5	0.0014517
2305.15	0.0012922
2314.79	0.0012051
2324.44	0.0013261
2334.08	0.0014063
2343.73	0.0011545
2353.37	0.0011831
2363.02	0.00101218
2372.66	0.00155
2382.31	0.0012241
2391.95	0.0013529
2401.6	0.001256
2411.24	0.0013891
2420.89	0.0014957
2430.53	0.0013692
2440.18	0.0011157
2449.82	0.00100982
2459.47	0.0013231
2469.11	0.0010992
2478.75	0.0014308
2488.4	0.00100603
2498.04	0.0013031
2507.69	0.0011136
2517.33	0.0009673
2526.98	0.0013405
2536.62	0.000899
2546.27	0.0011464
2555.91	0.0013788
2565.56	0.0010446
2575.2	0.0013888
2584.85	0.0012472
2594.49	0.0014251
2604.14	0.0011098
2613.78	0.0013704
2623.43	0.0011995
2633.07	0.0013889
2642.72	0.00093852
2652.36	0.00095852
2662.01	0.0012491
2671.65	0.001212
2681.29	0.0012851
2690.94	0.000798
2700.58	0.00099678
2710.23	0.0012077
2719.87	0.00094411
2729.52	0.0012257
2739.16	0.0011971
2748.81	0.0011532
2758.45	0.0011101
2768.1	0.0014571
2777.74	0.0014943
2787.39	0.0011548
2797.03	0.0011443
2806.68	0.0013591
2816.32	0.0014587
2825.97	0.0011889
2835.61	0.0012276
2845.26	0.0012777
2854.9	0.0013804
2864.55	0.0016462
2874.19	0.0011901
2883.84	0.00097566
2893.48	0.0015703
2903.12	0.00092473
2912.77	0.0012608
2922.41	0.001694
2932.06	0.0013964
2941.7	0.0015819
2951.35	0.0018655
2960.99	0.0012582
2970.64	0.0013522
2980.28	0.0010652
2989.93	0.001403
2999.57	0.0010684
3009.22	0.0013657
3018.86	0.0011553
3028.51	0.0014132
3038.15	0.00098812
3047.8	0.002088
3057.44	0.0018979
3067.09	0.002758
3076.73	0.002188
3086.38	0.002528
3096.02	0.0016273
3105.67	0.0014739
3115.31	0.0009067
3124.95	0.0013158
3134.6	0.0011293
3144.24	0.000723
3153.89	0.0008403
3163.53	0.0013143
3173.18	0.000931954
3182.82	0.000582
3192.47	0.0015563
3202.11	0.000775
3211.76	0.0009007
3221.4	0.0008973
3231.05	0.0013584
3240.69	0.0011116
3250.34	0.002038
3259.98	0.001231
3269.63	0.00094902
3279.27	0.0010712
3288.92	0.0014521
3298.56	0.001052
3308.21	0.00016
3317.85	0.0013119
3327.49	0.0012818
3337.14	0.000792
3346.78	0.0014666
3356.43	0.00096726
3366.07	0.0008892
3375.72	0.0014167
3385.36	0.00095045
3395.01	0.0012143
3404.65	0.0014316
3414.3	0.000231
3423.94	0.000703
3433.59	0.0012779
3443.23	0.00096361
3452.88	0.0011423
3462.52	0.000398
3472.17	0.00102218
3481.81	0.0010863
3491.46	0.000556
3501.1	0.001988
3510.75	0.0014614
3520.39	0.0012148
3530.04	0.0018273
3539.68	0.002168
3549.32	0.002608
3558.97	0.004788
3568.61	0.013278
3578.26	0.016498
3587.9	0.006388
3597.55	0.002918
3607.19	0.002058
3616.84	0.001797
3626.48	0.001469
3636.13	0.002048
3645.77	0.0014547
3655.42	0.00102423
3665.06	0.0011793
3674.71	0.0017992
3684.35	0.0011583
3694	0.0010654
3703.64	0.00100444
3713.29	0.0012239
3722.93	0.0019123
3732.58	0.0011213
3742.22	0.000487
3751.86	0.0008961
3761.51	0.00100332
3771.15	0.0013572
3780.8	0.000707
3790.44	0.00098036
3800.09	0.000803
3809.73	0.000562
3819.38	0.000928666
3829.02	0.0008504
3838.67	0.0011453
3848.31	0.0010511
3857.96	0.0008828
3867.6	0.000709
3877.25	0.000741
3886.89	0.00071
3896.54	0.0010429
3906.18	0.000665
3915.83	0.00096976
3925.47	0.0010399
3935.12	0.0011865
3944.76	0.000599
3954.41	0.000661
3964.05	0.0011613
3973.69	0.0011493
3983.34	0.0012963
3992.98	0.0013441
