Infrared Spectrum: 2,5-Dimethoxyphenethylamine
Formula: C 10 H 15 N O 2
CAS: 3600-86-0
State: gas
Origin: EPA-IR VAPOR PHASE LIBRARY
1/CM	ABSORBANCE
549.8	0.0053852
559.445	0.0056752
569.09	0.0059852
578.734	0.0063652
588.379	0.0068352
598.024	0.0067652
607.669	0.0068052
617.313	0.0073152
626.958	0.0079252
636.603	0.0081352
646.248	0.0077952
655.893	0.0075252
665.537	0.0082452
675.182	0.0094852
684.827	0.0128152
694.472	0.0232752
704.116	0.0371752
713.761	0.0355752
723.406	0.0284852
733.051	0.0312852
742.695	0.0332852
752.34	0.0338152
761.985	0.0369652
771.63	0.0429052
781.275	0.0458352
790.919	0.0474152
800.564	0.0495552
810.209	0.0422752
819.854	0.0262352
829.498	0.0176852
839.143	0.0173052
848.788	0.0194352
858.433	0.0189052
868.078	0.0187252
877.722	0.0172752
887.367	0.0118152
897.012	0.0086552
906.657	0.0071952
916.301	0.0069252
925.946	0.0071452
935.591	0.0072752
945.236	0.0072852
954.88	0.0075852
964.525	0.0084952
974.17	0.0104052
983.815	0.0139252
993.46	0.0177552
1003.1	0.0214352
1012.75	0.0286652
1022.39	0.0428352
1032.04	0.0642252
1041.68	0.100185
1051.33	0.122335
1060.97	0.0884852
1070.62	0.0474952
1080.26	0.0273052
1089.91	0.0203452
1099.55	0.0222552
1109.2	0.0254752
1118.84	0.0240352
1128.49	0.0211352
1138.13	0.0205152
1147.78	0.0289452
1157.42	0.0373952
1167.07	0.0392552
1176.71	0.0516452
1186.36	0.0515452
1196	0.0572552
1205.64	0.105025
1215.29	0.216505
1224.93	0.274905
1234.58	0.164855
1244.22	0.0751552
1253.87	0.0495552
1263.51	0.0488652
1273.16	0.0590452
1282.8	0.0577152
1292.45	0.0437352
1302.09	0.0336452
1311.74	0.0251552
1321.38	0.0191452
1331.03	0.0159852
1340.67	0.0147452
1350.32	0.0145852
1359.96	0.0139052
1369.61	0.0132652
1379.25	0.0135252
1388.9	0.0134052
1398.54	0.0156952
1408.18	0.0281952
1417.83	0.0437052
1427.47	0.0432552
1437.12	0.0429052
1446.76	0.0467052
1456.41	0.0482652
1466.05	0.0671852
1475.7	0.0803452
1485.34	0.125935
1494.99	0.231025
1504.63	0.193695
1514.28	0.0695652
1523.92	0.0273252
1533.57	0.0160052
1543.21	0.0120552
1552.86	0.0108452
1562.5	0.0116552
1572.15	0.0151852
1581.79	0.0212852
1591.44	0.0240752
1601.08	0.0253652
1610.73	0.0269452
1620.37	0.0230852
1630.01	0.0168452
1639.66	0.0112252
1649.3	0.0077952
1658.95	0.0060252
1668.59	0.0050152
1678.24	0.0044552
1687.88	0.0040052
1697.53	0.0038652
1707.17	0.0035052
1716.82	0.0034852
1726.46	0.0033652
1736.11	0.0033652
1745.75	0.0032152
1755.4	0.0029952
1765.04	0.0027852
1774.69	0.0028352
1784.33	0.0028552
1793.98	0.0029252
1803.62	0.0030552
1813.27	0.0031052
1822.91	0.0034452
1832.55	0.0036152
1842.2	0.0035852
1851.84	0.0033952
1861.49	0.0028352
1871.13	0.0022652
1880.78	0.0018752
1890.42	0.0016052
1900.07	0.0015552
1909.71	0.0015452
1919.36	0.0016552
1929	0.0017952
1938.65	0.0021252
1948.29	0.0026852
1957.94	0.0034052
1967.58	0.0037852
1977.23	0.0038552
1986.87	0.0038052
1996.52	0.0036852
2006.16	0.0033952
2015.81	0.0032352
2025.45	0.0030652
2035.1	0.0032352
2044.74	0.0034552
2054.38	0.0036852
2064.03	0.0038252
2073.67	0.0037552
2083.32	0.0034252
2092.96	0.0028652
2102.61	0.0023452
2112.25	0.0018852
2121.9	0.0017252
2131.54	0.0016852
2141.19	0.0017352
2150.83	0.0018552
2160.48	0.0018452
2170.12	0.0017452
2179.77	0.0016252
2189.41	0.0016552
2199.06	0.0015552
2208.7	0.0016252
2218.35	0.0016352
2227.99	0.0015752
2237.64	0.0016952
2247.28	0.0016952
2256.92	0.0016852
2266.57	0.0014952
2276.21	0.0013852
2285.86	0.0013452
2295.5	0.0013152
2305.15	0.0013252
2314.79	0.0013652
2324.44	0.0012552
2334.08	0.0011452
2343.73	0.0010852
2353.37	0.0011052
2363.02	0.0009786
2372.66	0.0010218
2382.31	0.0010752
2391.95	0.0009478
2401.6	0.0009792
2411.24	0.0010552
2420.89	0.0011652
2430.53	0.0013052
2440.18	0.0014052
2449.82	0.0014352
2459.47	0.0016452
2469.11	0.0020252
2478.75	0.0022652
2488.4	0.0023252
2498.04	0.0020952
2507.69	0.0019452
2517.33	0.0018152
2526.98	0.0017552
2536.62	0.0016952
2546.27	0.0016152
2555.91	0.0014252
2565.56	0.0014952
2575.2	0.0015052
2584.85	0.0016752
2594.49	0.0019152
2604.14	0.0020452
2613.78	0.0020052
2623.43	0.0019952
2633.07	0.0020152
2642.72	0.0021052
2652.36	0.0021552
2662.01	0.0020852
2671.65	0.0022652
2681.29	0.0024152
2690.94	0.0024952
2700.58	0.0024852
2710.23	0.0027952
2719.87	0.0030052
2729.52	0.0034152
2739.16	0.0036852
2748.81	0.0040452
2758.45	0.0042152
2768.1	0.0045852
2777.74	0.0052752
2787.39	0.0065152
2797.03	0.0086252
2806.68	0.0113752
2816.32	0.0159252
2825.97	0.0257252
2835.61	0.0496852
2845.26	0.0568252
2854.9	0.0450052
2864.55	0.0430852
2874.19	0.0424552
2883.84	0.0399252
2893.48	0.0400152
2903.12	0.0496052
2912.77	0.0680152
2922.41	0.0768552
2932.06	0.0843852
2941.7	0.100515
2951.35	0.0984152
2960.99	0.0728852
2970.64	0.0465352
2980.28	0.0355752
2989.93	0.0416552
2999.57	0.0598152
3009.22	0.0457052
3018.86	0.0217252
3028.51	0.0181252
3038.15	0.0182452
3047.8	0.0154552
3057.44	0.0136052
3067.09	0.0134952
3076.73	0.0123752
3086.38	0.0103552
3096.02	0.0079452
3105.67	0.0064752
3115.31	0.0053952
3124.95	0.0039652
3134.6	0.0031652
3144.24	0.0024352
3153.89	0.0021552
3163.53	0.0019252
3173.18	0.0017452
3182.82	0.0015752
3192.47	0.0016152
3202.11	0.0011752
3211.76	0.0010852
3221.4	0.0009076
3231.05	0.0010652
3240.69	0.0009146
3250.34	0.0007055
3259.98	0.0007284
3269.63	0.0006211
3279.27	0.000577
3288.92	0.0005837
3298.56	0.0005867
3308.21	0.0006629
3317.85	0.0005329
3327.49	0.0010652
3337.14	0.0013852
3346.78	0.0014652
3356.43	0.0011152
3366.07	0.000843
3375.72	0.0007641
3385.36	0.0005154
3395.01	0.0007353
3404.65	0.0007942
3414.3	0.000839
3423.94	0.0007856
3433.59	0.0004364
3443.23	0.0006333
3452.88	0.000622
3462.52	0.0006523
3472.17	0.0006211
3481.81	0.0005035
3491.46	0.0005556
3501.1	0.0005705
3510.75	0.0001681
3520.39	0.0004771
3530.04	0.0003259
3539.68	0.0005692
3549.32	0.0003849
3558.97	0.0001293
3568.61	0.0004856
3578.26	0.0005821
3587.9	0.0005572
3597.55	0.0003109
3607.19	0.0004386
3616.84	0.0002837
3626.48	0.0003716
3636.13	0.0003801
3645.77	0.0002509
3655.42	0.0003022
3665.06	0.0003924
3674.71	0.0005855
3684.35	0.0003022
3694	0.0002128
3703.64	0.000388
3713.29	0.0002539
3722.93	0.0003436
3732.58	0.0004458
3742.22	0.000499
3751.86	0.00055
3761.51	0.000418
3771.15	0.0004596
3780.8	0.0005622
3790.44	0.000564
3800.09	0.00067
3809.73	0.0003678
3819.38	0.0004174
3829.02	0.0004757
3838.67	0.0003709
3848.31	0.0005212
3857.96	0.00061
3867.6	0.0005411
3877.25	0.0007699
3886.89	0.0006459
3896.54	0.0006066
3906.18	0.000574
3915.83	0.0004872
3925.47	0.0006635
3935.12	0.0007402
3944.76	0.0008025
3954.41	0.000718
3964.05	0.0010198
3973.69	0.0008598
3983.34	0.0011052
3992.98	0.0010652
