Infrared Spectrum: 3,6-Dimethyl-6-hepten-4-yn-3-ol
Formula: C 9 H 14 O
CAS: 3601-67-0
State: gas
Origin: EPA-IR VAPOR PHASE LIBRARY
1/CM	ABSORBANCE
549.9	0.00794
559.547	0.00726
569.193	0.00669
578.84	0.0067
588.486	0.00661
598.133	0.00611
607.779	0.00537
617.426	0.0048
627.072	0.00421
636.719	0.00453
646.365	0.00476
656.012	0.00398
665.658	0.00298
675.305	0.00245
684.951	0.00208
694.598	0.0020003
704.245	0.001994
713.891	0.0018681
723.538	0.0017983
733.184	0.0016509
742.831	0.0017283
752.477	0.0017678
762.124	0.0020087
771.77	0.00256
781.417	0.00311
791.063	0.00331
800.71	0.00377
810.356	0.00518
820.003	0.00447
829.649	0.00283
839.296	0.00289
848.943	0.00368
858.589	0.00565
868.236	0.0104
877.882	0.01914
887.529	0.03158
897.175	0.04858
906.822	0.05827
916.468	0.05623
926.115	0.03142
935.761	0.01319
945.408	0.00756
955.054	0.00801
964.701	0.01246
974.347	0.01892
983.994	0.02044
993.64	0.01837
1003.29	0.01947
1012.93	0.02244
1022.58	0.02408
1032.23	0.02273
1041.87	0.01851
1051.52	0.01466
1061.17	0.01056
1070.81	0.00869
1080.46	0.00939
1090.11	0.01162
1099.75	0.01515
1109.4	0.02055
1119.05	0.02764
1128.69	0.03523
1138.34	0.03854
1147.99	0.03777
1157.63	0.03603
1167.28	0.03163
1176.92	0.02517
1186.57	0.02026
1196.22	0.01715
1205.86	0.01475
1215.51	0.01304
1225.16	0.0125
1234.8	0.01302
1244.45	0.01423
1254.1	0.01601
1263.74	0.01987
1273.39	0.02627
1283.04	0.03338
1292.68	0.03753
1302.33	0.03894
1311.98	0.0417
1321.62	0.04629
1331.27	0.05
1340.92	0.05348
1350.56	0.04827
1360.21	0.03639
1369.86	0.03882
1379.5	0.04094
1389.15	0.02672
1398.79	0.01507
1408.44	0.011
1418.09	0.01084
1427.73	0.01281
1437.38	0.0162
1447.03	0.01927
1456.67	0.02203
1466.32	0.01948
1475.97	0.01218
1485.61	0.00649
1495.26	0.0042
1504.91	0.0033
1514.55	0.00301
1524.2	0.00302
1533.85	0.00313
1543.49	0.00326
1553.14	0.00357
1562.79	0.00411
1572.43	0.00525
1582.08	0.0074
1591.73	0.01129
1601.37	0.01677
1611.02	0.02096
1620.67	0.01909
1630.31	0.0115
1639.96	0.00585
1649.6	0.00315
1659.25	0.0020214
1668.9	0.0016479
1678.54	0.001487
1688.19	0.0013758
1697.84	0.00112789
1707.48	0.000928
1717.13	0.000811
1726.78	0.000727
1736.42	0.000714
1746.07	0.000777
1755.72	0.00092
1765.36	0.0013058
1775.01	0.0018885
1784.66	0.00332
1794.3	0.00523
1803.95	0.00516
1813.6	0.00328
1823.24	0.0019496
1832.89	0.0012011
1842.54	0.00072
1852.18	0.000577
1861.83	0.00048
1871.47	0.000472
1881.12	0.000575
1890.77	0.000587
1900.41	0.000577
1910.06	0.000544
1919.71	0.000517
1929.35	0.000575
1939	0.000532
1948.65	0.000487
1958.29	0.000437
1967.94	0.000463
1977.59	0.000436
1987.23	0.000443
1996.88	0.000354
2006.53	0.000436
2016.17	0.000404
2025.82	0.000421
2035.47	0.000479
2045.11	0.000505
2054.76	0.000481
2064.41	0.000557
2074.05	0.000506
2083.7	0.000512
2093.35	0.000481
2102.99	0.000482
2112.64	0.000522
2122.28	0.000561
2131.93	0.000529
2141.58	0.00058
2151.22	0.0006
2160.87	0.000627
2170.52	0.000622
2180.16	0.000715
2189.81	0.000799
2199.46	0.0010008
2209.1	0.00104976
2218.75	0.0009863
2228.4	0.000807
2238.04	0.000744
2247.69	0.00069
2257.34	0.000748
2266.98	0.000814
2276.63	0.000881
2286.28	0.000878
2295.92	0.000764
2305.57	0.000679
2315.22	0.000592
2324.86	0.000571
2334.51	0.000584
2344.16	0.000632
2353.8	0.000697
2363.45	0.0007
2373.09	0.000792
2382.74	0.000853
2392.39	0.000913
2402.03	0.000881
2411.68	0.00083
2421.33	0.000795
2430.97	0.000759
2440.62	0.000729
2450.27	0.000744
2459.91	0.000819
2469.56	0.000788
2479.21	0.000766
2488.85	0.00071
2498.5	0.000713
2508.15	0.000699
2517.79	0.000692
2527.44	0.000688
2537.09	0.000643
2546.73	0.000647
2556.38	0.000693
2566.03	0.000724
2575.67	0.00073
2585.32	0.000792
2594.96	0.000794
2604.61	0.000831
2614.26	0.000891
2623.9	0.000842
2633.55	0.000865
2643.2	0.0009765
2652.84	0.0009883
2662.49	0.000916
2672.14	0.000926
2681.78	0.000869
2691.43	0.000814
2701.08	0.000846
2710.72	0.0010059
2720.37	0.0012705
2730.02	0.00164
2739.66	0.0019349
2749.31	0.0019615
2758.96	0.0018328
2768.6	0.0019563
2778.25	0.0020371
2787.9	0.00224
2797.54	0.00257
2807.19	0.00312
2816.84	0.00363
2826.48	0.00448
2836.13	0.00573
2845.77	0.00812
2855.42	0.01228
2865.07	0.01654
2874.71	0.02043
2884.36	0.02533
2894.01	0.02753
2903.65	0.02576
2913.3	0.02844
2922.95	0.04256
2932.59	0.06371
2942.24	0.07292
2951.89	0.05881
2961.53	0.05118
2971.18	0.07754
2980.83	0.11435
2990.47	0.09515
3000.12	0.04601
3009.77	0.0208
3019.41	0.01271
3029.06	0.00917
3038.71	0.00704
3048.35	0.00655
3058	0.00604
3067.64	0.00562
3077.29	0.00656
3086.94	0.00855
3096.58	0.01545
3106.23	0.01548
3115.88	0.00659
3125.52	0.00362
3135.17	0.00258
3144.82	0.0020035
3154.46	0.0016116
3164.11	0.0013791
3173.76	0.0012899
3183.4	0.0012188
3193.05	0.00113543
3202.7	0.0010008
3212.34	0.000907
3221.99	0.00094
3231.64	0.000699
3241.28	0.000758
3250.93	0.000506
3260.58	0.00029
3270.22	0.00028
3279.87	0.000229
3289.52	0.000254
3299.16	0.000193
3308.81	0.000164
3318.45	0.000232
3328.1	0.000393
3337.75	0.000286
3347.39	0.000627
3357.04	0.000675
3366.69	0.00044
3376.33	0.00048
3385.98	0.00066
3395.63	0.000581
3405.27	0.000461
3414.92	0.000619
3424.57	0.000536
3434.21	0.000515
3443.86	0.000601
3453.51	0.000519
3463.15	0.000684
3472.8	0.0007
3482.45	0.000718
3492.09	0.000786
3501.74	0.000736
3511.39	0.000657
3521.03	0.000591
3530.68	0.000515
3540.33	0.000632
3549.97	0.000595
3559.62	0.000633
3569.26	0.000608
3578.91	0.0007
3588.56	0.000635
3598.2	0.00077
3607.85	0.0013297
3617.5	0.00297
3627.14	0.00806
3636.79	0.01518
3646.44	0.01589
3656.08	0.008
3665.73	0.00268
3675.38	0.00110036
3685.02	0.000633
3694.67	0.000598
3704.32	0.000699
3713.96	0.000724
3723.61	0.000505
3733.26	0.000539
3742.9	0.000346
3752.55	0.000554
3762.2	0.00058
3771.84	0.000612
3781.49	0.000725
3791.13	0.000861
3800.78	0.000691
3810.43	0.000647
3820.07	0.000685
3829.72	0.000709
3839.37	0.000669
3849.01	0.00068
3858.66	0.00068
3868.31	0.000715
3877.95	0.000699
3887.6	0.000853
3897.25	0.000839
3906.89	0.000804
3916.54	0.000858
3926.19	0.000895
3935.83	0.000905
3945.48	0.000864
3955.13	0.000652
3964.77	0.000627
3974.42	0.000811
3984.07	0.0009715
3993.71	0.000897
