Infrared Spectrum: 5-METHOXY-8-NITRO-QUINOLINE
Formula: C10 H8 N2 O3
CAS: 36020-53-8
State: SOLID (1.0% IN KBr PELLET)
Class: COBLENTZ
Instrument: Not specified, most likely a prism, grating, or hybrid spectrometer.
Sampling: TRANSMISSION
Path length: 0.0355 CM THICK
Resolution: 4
Origin: ANDERSON PHYSICAL LABORATORY
1/CM	TRANSMITTANCE
671.563	0.884
680.001	0.883
688.438	0.878
696.876	0.883
705.313	0.883
713.751	0.7891
722.188	0.808
730.626	0.868
739.063	0.813
747.501	0.849
755.938	0.865
764.376	0.856
772.813	0.81
781.251	0.6383
789.688	0.2
798.126	0.6208
806.563	0.76
815.001	0.75
823.439	0.52
831.876	0.585
840.314	0.349
848.751	0.8488
857.189	0.928
865.626	0.943
874.064	0.946
882.501	0.94
890.939	0.931
899.376	0.923
907.814	0.919
916.251	0.914
924.689	0.901
933.126	0.886
941.564	0.846
950.002	0.847
958.439	0.85
966.877	0.837
975.314	0.6991
983.752	0.795
992.189	0.816
1000.63	0.783
1009.06	0.769
1017.5	0.6981
1025.94	0.6229
1034.38	0.793
1042.81	0.804
1051.25	0.786
1059.69	0.76
1068.13	0.726
1076.56	0.662
1085	0.533
1093.44	0.321
1101.88	0.142
1110.31	0.5177
1118.75	0.796
1127.19	0.855
1135.63	0.856
1144.06	0.85
1152.5	0.81
1160.94	0.754
1169.38	0.724
1177.81	0.662
1186.25	0.707
1194.69	0.6091
1203.13	0.506
1211.56	0.473
1220	0.547
1228.44	0.693
1236.88	0.621
1245.32	0.491
1253.75	0.379
1262.19	0.397
1270.63	0.1881
1279.07	0.133
1287.5	0.3119
1295.94	0.511
1304.38	0.457
1312.82	0.245
1321.25	0.282
1329.69	0.27
1338.13	0.219
1346.57	0.216
1355	0.218
1363.44	0.339
1371.88	0.527
1380.32	0.609
1388.75	0.638
1397.19	0.663
1405.63	0.508
1414.07	0.454
1422.5	0.55
1430.94	0.6961
1439.38	0.837
1447.82	0.826
1456.25	0.738
1464.69	0.718
1473.13	0.56
1481.57	0.445
1490	0.547
1498.44	0.499
1506.88	0.306
1515.32	0.221
1523.75	0.215
1532.19	0.203
1540.63	0.336
1549.07	0.461
1557.5	0.521
1565.94	0.497
1574.38	0.269
1582.82	0.165
1591.25	0.373
1599.69	0.213
1608.13	0.4939
1616.57	0.654
1625	0.593
1633.44	0.568
1641.88	0.79
1650.32	0.877
1658.75	0.91
1667.19	0.935
1675.63	0.944
1684.07	0.955
1692.5	0.962
1700.94	0.964
1709.38	0.964
1717.82	0.968
1726.25	0.968
1734.69	0.956
1743.13	0.953
1751.57	0.946
1760	0.932
1768.44	0.925
1776.88	0.922
1785.32	0.919
1793.75	0.911
1802.19	0.907
1810.63	0.904
1819.07	0.902
1827.5	0.902
1835.94	0.899
1844.38	0.893
1852.82	0.886
1861.25	0.862
1869.69	0.859
1878.13	0.869
1886.57	0.872
1895	0.874
1903.44	0.869
1911.88	0.866
1920.32	0.863
1928.76	0.859
1937.19	0.852
1945.63	0.847
1954.07	0.843
1962.51	0.832
1970.94	0.825
1979.38	0.829
1987.82	0.829
1996.26	0.823
2004.69	0.8265
2013.13	0.8315
2021.57	0.8365
2030.01	0.835
2038.44	0.835
2046.88	0.8329
2055.32	0.832
2063.76	0.8339
2072.19	0.83
2080.63	0.825
2089.07	0.823
2097.51	0.825
2105.94	0.8254
2114.38	0.825
2122.82	0.825
2131.26	0.8228
2139.69	0.8187
2148.13	0.8163
2156.57	0.8111
2165.01	0.811
2173.44	0.811
2181.88	0.811
2190.32	0.81
2198.76	0.8072
2207.19	0.804
2215.63	0.799
2224.07	0.796
2232.51	0.793
2240.94	0.7909
2249.38	0.7874
2257.82	0.787
2266.26	0.786
2274.69	0.786
2283.13	0.784
2291.57	0.7809
2300.01	0.7758
2308.44	0.7697
2316.88	0.766
2325.32	0.762
2333.76	0.762
2342.19	0.762
2350.63	0.763
2359.07	0.765
2367.51	0.765
2375.94	0.766
2384.38	0.765
2392.82	0.765
2401.26	0.7625
2409.69	0.7604
2418.13	0.759
2426.57	0.757
2435.01	0.7543
2443.44	0.751
2451.88	0.7467
2460.32	0.7433
2468.76	0.741
2477.19	0.741
2485.63	0.738
2494.07	0.7356
2502.51	0.731
2510.94	0.7291
2519.38	0.7256
2527.82	0.7235
2536.26	0.721
2544.69	0.721
2553.13	0.72
2561.57	0.719
2570.01	0.717
2578.44	0.715
2586.88	0.7125
2595.32	0.71
2603.76	0.7084
2612.2	0.71
2620.63	0.71
2629.07	0.71
2637.51	0.71
2645.95	0.708
2654.38	0.705
2662.82	0.704
2671.26	0.704
2679.7	0.7018
2688.13	0.7002
2696.57	0.6983
2705.01	0.698
2713.45	0.698
2721.88	0.696
2730.32	0.696
2738.76	0.696
2747.2	0.695
2755.63	0.693
2764.07	0.692
2772.51	0.689
2780.95	0.6816
2789.38	0.6733
2797.82	0.671
2806.26	0.6625
2814.7	0.6511
2823.13	0.6302
2831.57	0.6214
2840.01	0.6179
2848.45	0.6163
2856.88	0.614
2865.32	0.614
2873.76	0.614
2882.2	0.614
2890.63	0.614
2899.07	0.614
2907.51	0.6118
2915.95	0.6071
2924.38	0.5993
2932.82	0.596
2941.26	0.59
2949.7	0.5875
2958.13	0.587
2966.57	0.585
2975.01	0.585
2983.45	0.585
2991.88	0.5866
3000.32	0.5911
3008.76	0.5933
3017.2	0.596
3025.63	0.596
3034.07	0.5961
3042.51	0.597
3050.95	0.599
3059.38	0.599
3067.82	0.6
3076.26	0.6
3084.7	0.6
3093.13	0.6
3101.57	0.5934
3110.01	0.5891
3118.45	0.5855
3126.88	0.582
3135.32	0.5843
3143.76	0.5885
3152.2	0.59
3160.63	0.591
3169.07	0.591
3177.51	0.593
3185.95	0.593
3194.38	0.591
3202.82	0.5893
3211.26	0.5874
3219.7	0.5853
3228.13	0.585
3236.57	0.585
3245.01	0.585
3253.45	0.585
3261.88	0.5837
3270.32	0.5801
3278.76	0.578
3287.2	0.576
3295.64	0.5746
3304.07	0.572
3312.51	0.571
3320.95	0.569
3329.39	0.566
3337.82	0.563
3346.26	0.5604
3354.7	0.5568
3363.14	0.551
3371.57	0.5489
3380.01	0.5453
3388.45	0.5389
3396.89	0.5349
3405.32	0.5324
3413.76	0.5273
3422.2	0.5269
3430.64	0.5252
3439.07	0.5233
3447.51	0.5212
3455.95	0.5196
3464.39	0.5175
3472.82	0.517
3481.26	0.517
3489.7	0.517
3498.14	0.517
3506.57	0.517
3515.01	0.517
3523.45	0.515
3531.89	0.514
3540.32	0.512
3548.76	0.512
3557.2	0.5126
3565.64	0.514
3574.07	0.514
3582.51	0.514
3590.95	0.5144
3599.39	0.515
3607.82	0.515
3616.26	0.5172
3624.7	0.5188
3633.14	0.521
3641.57	0.523
3650.01	0.5236
3658.45	0.529
3666.89	0.529
3675.32	0.529
3683.76	0.5268
3692.2	0.526
3700.64	0.526
3709.07	0.526
3717.51	0.526
3725.95	0.5265
3734.39	0.527
3742.82	0.529
3751.26	0.5293
3759.7	0.53
3768.14	0.53
3776.57	0.5288
3785.01	0.5253
3793.45	0.5217
3801.89	0.5182
3810.32	0.5178
3818.76	0.5146
3827.2	0.5126
3835.64	0.512
3844.07	0.512
3852.51	0.514
3860.95	0.512
3869.39	0.512
3877.82	0.5117
3886.26	0.509
3894.7	0.5082
3903.14	0.5079
3911.57	0.506
3920.01	0.5039
3928.45	0.5004
3936.89	0.499
3945.32	0.497
3953.76	0.4948
3962.2	0.4931
3970.64	0.4898
3979.07	0.487
