Infrared Spectrum: 1-Cyano-4-methylnaphthalene
Formula: C 12 H 9 N
CAS: 36062-93-8
State: gas
Origin: EPA-IR VAPOR PHASE LIBRARY
1/CM	ABSORBANCE
549.8	0.0011344
559.445	0.0008793
569.09	0.0008753
578.734	0.000732
588.379	0.0009669
598.024	0.001789
607.669	0.001629
617.313	0.0006793
626.958	0.0005985
636.603	0.0008844
646.248	0.0009401
655.893	0.0006086
665.537	0.0008323
675.182	0.001629
684.827	0.003589
694.472	0.003189
704.116	0.001569
713.761	0.002619
723.406	0.002579
733.051	0.004039
742.695	0.019209
752.34	0.048899
761.985	0.044219
771.63	0.016859
781.275	0.003709
790.919	0.003249
800.564	0.003409
810.209	0.005119
819.854	0.020529
829.498	0.048609
839.143	0.021269
848.788	0.005409
858.433	0.003269
868.078	0.002449
877.722	0.001509
887.367	0.001459
897.012	0.001319
906.657	0.0011843
916.301	0.0010455
925.946	0.001709
935.591	0.001899
945.236	0.002119
954.88	0.002709
964.525	0.002189
974.17	0.0010141
983.815	0.0008614
993.46	0.001399
1003.1	0.002889
1012.75	0.005459
1022.39	0.005449
1032.04	0.003859
1041.68	0.002469
1051.33	0.001599
1060.97	0.0007048
1070.62	0.00078
1080.26	0.0007232
1089.91	0.001409
1099.55	0.0011305
1109.2	0.0006591
1118.84	0.001011
1128.49	0.000946
1138.13	0.001389
1147.78	0.001869
1157.42	0.004069
1167.07	0.004719
1176.71	0.001769
1186.36	0.001309
1196	0.001759
1205.64	0.002579
1215.29	0.004059
1224.93	0.004189
1234.58	0.002729
1244.22	0.001829
1253.87	0.0010523
1263.51	0.001529
1273.16	0.002259
1282.8	0.002309
1292.45	0.001979
1302.09	0.001809
1311.74	0.003379
1321.38	0.004429
1331.03	0.003189
1340.67	0.003029
1350.32	0.004409
1359.96	0.006489
1369.61	0.007129
1379.25	0.008619
1388.9	0.017399
1398.54	0.013509
1408.18	0.005119
1417.83	0.007079
1427.47	0.008419
1437.12	0.007049
1446.76	0.006139
1456.41	0.006389
1466.05	0.005269
1475.7	0.003539
1485.34	0.002879
1494.99	0.004329
1504.63	0.011849
1514.28	0.014459
1523.92	0.006099
1533.57	0.002429
1543.21	0.002429
1552.86	0.002689
1562.5	0.003559
1572.15	0.006489
1581.79	0.013649
1591.44	0.015439
1601.08	0.007429
1610.73	0.004079
1620.37	0.003339
1630.01	0.001979
1639.66	0.001829
1649.3	0.002769
1658.95	0.003189
1668.59	0.002039
1678.24	0.001249
1687.88	0.001449
1697.53	0.002109
1707.17	0.002879
1716.82	0.002279
1726.46	0.001349
1736.11	0.0011194
1745.75	0.001369
1755.4	0.001569
1765.04	0.0011482
1774.69	0.0009271
1784.33	0.0009165
1793.98	0.0011795
1803.62	0.002249
1813.27	0.002519
1822.91	0.001869
1832.55	0.002259
1842.2	0.002019
1851.84	0.001549
1861.49	0.002729
1871.13	0.004719
1880.78	0.003999
1890.42	0.001719
1900.07	0.001659
1909.71	0.001639
1919.36	0.001829
1929	0.002309
1938.65	0.001809
1948.29	0.002109
1957.94	0.002059
1967.58	0.0010865
1977.23	0.0006552
1986.87	0.0004856
1996.52	0.0004977
2006.16	0.0004522
2015.81	0.00041
2025.45	0.0005428
2035.1	0.0004986
2044.74	0.0005185
2054.38	0.0005291
2064.03	0.0006258
2073.67	0.0005747
2083.32	0.0006007
2092.96	0.0005826
2102.61	0.000506
2112.25	0.0004822
2121.9	0.0004227
2131.54	0.0003545
2141.19	0.0003305
2150.83	0.0003616
2160.48	0.000432
2170.12	0.0006178
2179.77	0.0007572
2189.41	0.0008193
2199.06	0.0012275
2208.7	0.003209
2218.35	0.010099
2227.99	0.015089
2237.64	0.008249
2247.28	0.002569
2256.92	0.001639
2266.57	0.001349
2276.21	0.0011652
2285.86	0.0010286
2295.5	0.0008719
2305.15	0.0010086
2314.79	0.000922
2324.44	0.0007805
2334.08	0.0007964
2343.73	0.0005912
2353.37	0.0005405
2363.02	0.0005248
2372.66	0.0006472
2382.31	0.0006925
2391.95	0.000703
2401.6	0.0007099
2411.24	0.0008124
2420.89	0.0006013
2430.53	0.0005977
2440.18	0.0005046
2449.82	0.0005476
2459.47	0.0005973
2469.11	0.0006836
2478.75	0.0006583
2488.4	0.0005855
2498.04	0.0006167
2507.69	0.0006484
2517.33	0.0007602
2526.98	0.0008125
2536.62	0.000665
2546.27	0.0006621
2555.91	0.0005259
2565.56	0.000484
2575.2	0.0004684
2584.85	0.0005201
2594.49	0.0005513
2604.14	0.0006245
2613.78	0.0005931
2623.43	0.0006692
2633.07	0.0008808
2642.72	0.0006624
2652.36	0.0005739
2662.01	0.000549
2671.65	0.0005455
2681.29	0.0005907
2690.94	0.0006211
2700.58	0.0005744
2710.23	0.0004831
2719.87	0.0004521
2729.52	0.0006621
2739.16	0.0009194
2748.81	0.0010582
2758.45	0.0008062
2768.1	0.0006676
2777.74	0.0006595
2787.39	0.0007048
2797.03	0.0007375
2806.68	0.0009685
2816.32	0.0011655
2825.97	0.001439
2835.61	0.001559
2845.26	0.001899
2854.9	0.002539
2864.55	0.004079
2874.19	0.005409
2883.84	0.005479
2893.48	0.005109
2903.12	0.005839
2912.77	0.006589
2922.41	0.008009
2932.06	0.012219
2941.7	0.013139
2951.35	0.010589
2960.99	0.011299
2970.64	0.009969
2980.28	0.011409
2989.93	0.011489
2999.57	0.007969
3009.22	0.006599
3018.86	0.006999
3028.51	0.008229
3038.15	0.010749
3047.8	0.013889
3057.44	0.014919
3067.09	0.017049
3076.73	0.021989
3086.38	0.021529
3096.02	0.014479
3105.67	0.008299
3115.31	0.004079
3124.95	0.001969
3134.6	0.001389
3144.24	0.0010301
3153.89	0.0008734
3163.53	0.0008663
3173.18	0.0009335
3182.82	0.000694
3192.47	0.0006123
3202.11	0.0006413
3211.76	0.0007987
3221.4	0.0005279
3231.05	0.0004465
3240.69	0.0004588
3250.34	0.0003892
3259.98	0.0004685
3269.63	0.0003338
3279.27	0.00029994
3288.92	0.0001688
3298.56	0.00028614
3308.21	0.0001862
3317.85	0.0001794
3327.49	0.00029459
3337.14	0.0002015
3346.78	0.00030426
3356.43	0.000236421
3366.07	0.0003453
3375.72	0.0001563
3385.36	0.000351
3395.01	0.0001853
3404.65	0.00029622
3414.3	0.00029067
3423.94	0.00031357
3433.59	0.0003706
3443.23	0.0003992
3452.88	0.0003842
3462.52	0.0005392
3472.17	0.00026517
3481.81	0.0004097
3491.46	0.00028002
3501.1	0.0004026
3510.75	0.00022341
3520.39	0.0003409
3530.04	0.00030295
3539.68	0.00027707
3549.32	0.00031229
3558.97	6.5e-05
3568.61	0.00028992
3578.26	0.000229797
3587.9	0.00025954
3597.55	0.000236606
3607.19	0.00027094
3616.84	0.0003768
3626.48	0.00030985
3636.13	0.000122
3645.77	0.0001581
3655.42	0.00030764
3665.06	0.00030694
3674.71	0.00024445
3684.35	0.0002146
3694	0.000119
3703.64	0.0003803
3713.29	0.00027138
3722.93	0.00030849
3732.58	0.0003906
3742.22	0.0003398
3751.86	0.00027773
3761.51	0.0005518
3771.15	0.0004524
3780.8	0.0005048
3790.44	0.0004008
3800.09	0.000426
3809.73	0.0006822
3819.38	0.0005366
3829.02	0.0004631
3838.67	0.0004641
3848.31	0.0006857
3857.96	0.0005853
3867.6	0.0004919
3877.25	0.0004005
3886.89	0.0004073
3896.54	0.000232795
3906.18	0.0004608
3915.83	0.0002134
3925.47	0.00026519
3935.12	0.0003557
3944.76	0.0004496
3954.41	0.0001519
3964.05	0.00028127
3973.69	0.00032655
3983.34	0.0002113
3992.98	0
