Infrared Spectrum: P-BENZENEDIACETIC ACID, DIMETHYL ESTER
Formula: C12 H14 O4
CAS: 36076-25-2
State: SOLID (MELT)
Melting point: 50-53 C
Class: COBLENTZ
Instrument: Not specified, most likely a prism, grating, or hybrid spectrometer.
Sampling: TRANSMISSION
Resolution: 4
Origin: TENNESSEE EASTMAN COMPANY, RESEARCH LABORATORIES
MICROMETERS	TRANSMITTANCE
2.034	0.996
2.07496	1
2.11591	1
2.15687	1
2.19782	0.977
2.23878	0.967
2.27974	0.972
2.32069	0.974
2.36165	0.974
2.4026	0.974
2.44356	0.974
2.48451	0.977
2.52547	0.977
2.56643	0.981
2.60738	0.979
2.64834	0.984
2.68929	0.981
2.73025	0.979
2.77121	0.972
2.81216	0.962
2.85312	0.946
2.89407	0.893
2.93503	0.933
2.97599	0.931
3.01694	0.922
3.0579	0.917
3.09885	0.916
3.13981	0.914
3.18076	0.895
3.22172	0.849
3.26268	0.71
3.30363	0.493
3.34459	0.53
3.38554	0.505
3.4265	0.724
3.46746	0.803
3.50841	0.847
3.54937	0.94
3.59032	0.95
3.63128	0.95
3.67223	0.953
3.71319	0.957
3.75415	0.957
3.7951	0.952
3.83606	0.941
3.87701	0.943
3.91797	0.952
3.95893	0.953
3.99988	0.955
4.04084	0.955
4.08179	0.955
4.12275	0.953
4.16371	0.953
4.20466	0.953
4.24562	0.952
4.28657	0.95
4.32753	0.941
4.36848	0.946
4.40944	0.953
4.4504	0.955
4.49135	0.958
4.53231	0.96
4.57326	0.957
4.61422	0.943
4.65518	0.929
4.69613	0.916
4.73709	0.912
4.77804	0.916
4.819	0.917
4.85996	0.9
4.90091	0.881
4.94187	0.869
4.98282	0.871
5.02378	0.869
5.06473	0.89
5.10569	0.9
5.14665	0.897
5.1876	0.868
5.22856	0.868
5.26951	0.883
5.31047	0.898
5.35143	0.883
5.39238	0.878
5.43334	0.863
5.47429	0.823
5.51525	0.761
5.5562	0.671
5.59716	0.541
5.63812	0.306
5.67907	0.059
5.72003	0.029
5.76098	0.027
5.80194	0.09
5.8429	0.255
5.88385	0.363
5.92481	0.494
5.96576	0.63
6.00672	0.695
6.04768	0.724
6.08863	0.758
6.12959	0.761
6.17054	0.736
6.2115	0.772
6.25245	0.797
6.29341	0.789
6.33437	0.785
6.37532	0.799
6.41628	0.791
6.45723	0.772
6.49819	0.729
6.53915	0.436
6.5801	0.296
6.62106	0.671
6.66201	0.69
6.70297	0.66
6.74393	0.594
6.78488	0.453
6.82584	0.366
6.86679	0.279
6.90775	0.125
6.9487	0.078
6.98966	0.167
7.03062	0.306
7.07157	0.486
7.11253	0.619
7.15348	0.667
7.19444	0.674
7.2354	0.648
7.27635	0.595
7.31731	0.505
7.35826	0.345
7.39922	0.21
7.44017	0.135
7.48113	0.145
7.52209	0.186
7.56304	0.191
7.604	0.169
7.64495	0.157
7.68591	0.15
7.72687	0.157
7.76782	0.148
7.80878	0.106
7.84973	0.075
7.89069	0.044
7.93165	0.037
7.9726	0.035
8.01356	0.046
8.05451	0.058
8.09547	0.07
8.13642	0.068
8.17738	0.075
8.21834	0.148
8.25929	0.202
8.30025	0.145
8.3412	0.107
8.38216	0.099
8.42312	0.111
8.46407	0.107
8.50503	0.059
8.54598	0.032
8.58694	0.027
8.6279	0.027
8.66885	0.029
8.70981	0.034
8.75076	0.042
8.79172	0.094
8.83267	0.222
8.87363	0.34
8.91459	0.386
8.95554	0.41
8.9965	0.469
9.03745	0.537
9.07841	0.599
9.11937	0.657
9.16032	0.698
9.20128	0.729
9.24223	0.748
9.28319	0.758
9.32415	0.765
9.3651	0.772
9.40606	0.777
9.44701	0.777
9.48797	0.772
9.52892	0.76
9.56988	0.732
9.61084	0.688
9.65179	0.604
9.69275	0.417
9.7337	0.217
9.77466	0.147
9.81562	0.107
9.85657	0.111
9.89753	0.148
9.93848	0.203
9.97944	0.296
10.0204	0.428
10.0614	0.559
10.1023	0.657
10.1433	0.717
10.1842	0.756
10.2252	0.773
10.2661	0.784
10.3071	0.787
10.348	0.787
10.389	0.782
10.43	0.779
10.4709	0.773
10.5119	0.768
10.5528	0.758
10.5938	0.746
10.6347	0.741
10.6757	0.743
10.7166	0.736
10.7576	0.726
10.7986	0.717
10.8395	0.729
10.8805	0.755
10.9214	0.77
10.9624	0.77
11.0033	0.738
11.0443	0.69
11.0852	0.638
11.1262	0.621
11.1672	0.64
11.2081	0.669
11.2491	0.691
11.29	0.707
11.331	0.719
11.3719	0.719
11.4129	0.717
11.4539	0.717
11.4948	0.71
11.5358	0.705
11.5767	0.698
11.6177	0.676
11.6586	0.648
11.6996	0.599
11.7405	0.549
11.7815	0.513
11.8225	0.501
11.8634	0.503
11.9044	0.518
11.9453	0.535
11.9863	0.553
12.0272	0.568
12.0682	0.587
12.1091	0.59
12.1501	0.592
12.1911	0.583
12.232	0.566
12.273	0.527
12.3139	0.494
12.3549	0.488
12.3958	0.523
12.4368	0.568
12.4777	0.59
12.5187	0.59
12.5597	0.551
12.6006	0.505
12.6416	0.467
12.6825	0.46
12.7235	0.484
12.7644	0.523
12.8054	0.58
12.8463	0.633
12.8873	0.669
12.9283	0.684
12.9692	0.696
13.0102	0.69
13.0511	0.674
13.0921	0.666
13.133	0.657
13.174	0.65
13.215	0.647
13.2559	0.643
13.2969	0.643
13.3378	0.642
13.3788	0.633
13.4197	0.619
13.4607	0.607
13.5016	0.592
13.5426	0.59
13.5836	0.589
13.6245	0.582
13.6655	0.571
13.7064	0.551
13.7474	0.535
13.7883	0.518
13.8293	0.491
13.8702	0.462
13.9112	0.443
13.9522	0.433
13.9931	0.438
14.0341	0.457
14.075	0.476
14.116	0.498
14.1569	0.513
14.1979	0.522
14.2388	0.529
14.2798	0.539
14.3208	0.542
14.3617	0.546
14.4027	0.551
14.4436	0.553
14.4846	0.554
14.5255	0.558
14.5665	0.563
14.6075	0.571
14.6484	0.582
14.6894	0.592
14.7303	0.601
14.7713	0.606
14.8122	0.607
14.8532	0.607
14.8941	0.602
14.9351	0.601
14.9761	0.599
15.017	0.597
15.058	0.592
15.0989	0.583
15.1399	0.578
15.1808	0.573
15.2218	0.566
15.2627	0.556
15.3037	0.547
15.3447	0.539
15.3856	0.53
15.4266	0.523
15.4675	0.52
15.5085	0.515
15.5494	0.511
15.5904	0.508
15.6313	0.505
15.6723	0.501
15.7133	0.501
15.7542	0.501
15.7952	0.5
15.8361	0.498
15.8771	0.5
15.918	0.5
15.959	0.503
