Infrared Spectrum: 1-Benzyl-4-piperidine
Formula: C 12 H 15 N O
CAS: 3612-20-2
State: gas
Instrument: HP-GC/MS/IRD
Origin: NIST Mass Spectrometry Data Center
1/CM	ABSORBANCE
550	0.000182
562	5.6e-05
574	0
586	0.000532
598	0.002436
610	0.00294
622	0.001232
634	0.000504
646	0.000742
658	0.001792
670	0.003836
682	0.008848
694	0.025872
706	0.021266
718	0.014994
730	0.026894
742	0.023436
754	0.019978
766	0.012824
778	0.00574
790	0.003766
802	0.004956
814	0.005824
826	0.00315
838	0.001218
850	0.000896
862	0.000728
874	0.000798
886	0.001302
898	0.003038
910	0.004018
922	0.002436
934	0.003136
946	0.003332
958	0.00343
970	0.006384
982	0.009464
994	0.010178
1006	0.012306
1018	0.01057
1030	0.013188
1042	0.005838
1054	0.006062
1066	0.01449
1078	0.01533
1090	0.010682
1102	0.007504
1114	0.016226
1126	0.0364
1138	0.020818
1150	0.011424
1162	0.009996
1174	0.012614
1186	0.020608
1198	0.023744
1210	0.017038
1222	0.016254
1234	0.014056
1246	0.011116
1258	0.010724
1270	0.011438
1282	0.014882
1294	0.014112
1306	0.013454
1318	0.020118
1330	0.02632
1342	0.03871
1354	0.034468
1366	0.02072
1378	0.01288
1390	0.011046
1402	0.00952
1414	0.013888
1426	0.014126
1438	0.009394
1450	0.011942
1462	0.010696
1474	0.00854
1486	0.008078
1498	0.009282
1510	0.00294
1522	0.001582
1534	0.001456
1546	0.001358
1558	0.00133
1570	0.001708
1582	0.002464
1594	0.00427
1606	0.004256
1618	0.002562
1630	0.002142
1642	0.00231
1654	0.00308
1666	0.004536
1678	0.006482
1690	0.010024
1702	0.015008
1714	0.027748
1726	0.084938
1738	0.14
1750	0.073556
1762	0.020006
1774	0.00938
1786	0.006118
1798	0.004648
1810	0.002884
1822	0.001736
1834	0.00119
1846	0.000966
1858	0.001288
1870	0.001736
1882	0.00182
1894	0.001232
1906	0.000896
1918	0.000994
1930	0.00147
1942	0.002114
1954	0.001806
1966	0.000812
1978	0.00028
1990	0.000224
2002	0.000196
2014	0.000154
2026	0.000126
2038	0.00014
2050	0.000168
2062	0.000154
2074	0.000252
2086	0.00028
2098	0.000182
2110	5.6e-05
2122	4.2e-05
2134	5.6e-05
2146	4.2e-05
2158	2.8e-05
2170	9.8e-05
2182	0.000126
2194	0.00014
2206	0.000126
2218	0.000112
2230	8.4e-05
2242	8.4e-05
2254	4.2e-05
2266	5.6e-05
2278	7e-05
2290	5.6e-05
2302	9.8e-05
2314	0.00021
2326	7e-05
2338	0.000112
2350	4.2e-05
2362	7e-05
2374	5.6e-05
2386	8.4e-05
2398	8.4e-05
2410	0.000126
2422	0.000182
2434	0.00014
2446	1.4e-05
2458	2.8e-05
2470	0
2482	5.6e-05
2494	8.4e-05
2506	8.4e-05
2518	5.6e-05
2530	8.4e-05
2542	0.000168
2554	0.00028
2566	0.00035
2578	0.00049
2590	0.000812
2602	0.001288
2614	0.001596
2626	0.00182
2638	0.002254
2650	0.002856
2662	0.003206
2674	0.00385
2686	0.004942
2698	0.00581
2710	0.006958
2722	0.007868
2734	0.00882
2746	0.013188
2758	0.019978
2770	0.021378
2782	0.025998
2794	0.046676
2806	0.05936
2818	0.044002
2830	0.023156
2842	0.012852
2854	0.009016
2866	0.008456
2878	0.010332
2890	0.011886
2902	0.016324
2914	0.030156
2926	0.033068
2938	0.024192
2950	0.02506
2962	0.031388
2974	0.03451
2986	0.014574
2998	0.006062
3010	0.006496
3022	0.01218
3034	0.020034
3046	0.014028
3058	0.012222
3070	0.022036
3082	0.015764
3094	0.01001
3106	0.005292
3118	0.0028
3130	0.001176
3142	0.000658
3154	0.000602
3166	0.00063
3178	0.00042
3190	0.00021
3202	0.000196
3214	0.00014
3226	0.000126
3238	4.2e-05
3250	9.8e-05
3262	5.6e-05
3274	0
3286	0.000112
3298	5.6e-05
3310	8.4e-05
3322	7e-05
3334	7e-05
3346	0.000112
3358	0.000196
3370	0.000168
3382	0.000252
3394	0.000308
3406	0.000462
3418	0.000602
3430	0.000966
3442	0.001666
3454	0.002352
3466	0.001708
3478	0.001064
3490	0.000714
3502	0.000406
3514	0.000294
3526	0.000168
3538	0.000182
3550	0.00014
3562	0.00021
3574	0.000196
3586	0.000196
3598	0.000266
3610	0.000266
3622	0.00028
3634	0.000294
3646	0.000392
3658	0.000462
3670	0.000448
3682	0.00042
3694	0.00042
3706	0.000462
3718	0.000392
3730	0.000476
3742	0.000434
3754	0.000406
3766	0.000406
3778	0.000434
3790	0.000462
3802	0.000462
3814	0.000406
3826	0.000462
3838	0.000462
