Infrared Spectrum: Oxadiazole, 1,2,4-, 3-(benzylaminomethyl)-5-(5-nitrofuran-2-yl)-, hydrochloride
Formula: C14 H13 Cl N4 O4
CAS: 36123-04-3
State: SOLID (NUJOL MULL)
Melting point: 192 C DECOMPOSES
Class: COBLENTZ III
Instrument: PERKIN-ELMER 521 (GRATING)
Instrument parameters: GRATINGS: 2000 CM^-^1
Sampling: TRANSMISSION
Resolution: 2
Origin: ABBOTT LABORATORIES - WASHBURN
1/CM	TRANSMITTANCE
647	0.6603
656	0.6572
665	0.4273
674	0.6979
683	0.7006
692	0.4989
701	0.717
710	0.7021
719	0.6787
728	0.6684
737	0.5709
746	0.5869
755	0.5953
764	0.7622
773	0.5509
782	0.8187
791	0.8122
800	0.7769
809	0.4469
818	0.4933
827	0.7511
836	0.8114
845	0.8296
854	0.8297
863	0.811
872	0.7771
881	0.7664
890	0.7953
899	0.6626
908	0.3468
917	0.7889
926	0.7868
935	0.7805
944	0.771
953	0.7117
962	0.4007
971	0.7218
980	0.6085
989	0.766
998	0.7722
1007	0.6751
1016	0.6826
1025	0.6034
1034	0.3776
1043	0.7659
1052	0.7898
1061	0.7942
1070	0.786
1079	0.7678
1088	0.7752
1097	0.7971
1106	0.7905
1115	0.7792
1124	0.7529
1133	0.6574
1142	0.7434
1151	0.7224
1160	0.6914
1169	0.733
1178	0.7089
1187	0.7118
1196	0.7062
1205	0.6696
1214	0.7382
1223	0.7336
1232	0.7129
1241	0.6138
1250	0.6214
1259	0.6638
1268	0.6505
1277	0.5898
1286	0.4406
1295	0.3291
1304	0.5176
1313	0.5083
1322	0.4977
1331	0.1785
1340	0.0546
1349	0.3562
1358	0.3115
1367	0.2073
1376	0.3109
1385	0.6107
1394	0.6071
1403	0.5996
1412	0.5959
1421	0.5035
1430	0.2428
1439	0.244
1448	0.1549
1457	0.1254
1466	0.3224
1475	0.5591
1484	0.6139
1493	0.5939
1502	0.4422
1511	0.2244
1520	0.568
1529	0.6599
1538	0.6667
1547	0.5042
1556	0.2122
1565	0.6833
1574	0.7398
1583	0.714
1592	0.5606
1601	0.5273
1610	0.6404
1619	0.5414
1628	0.2946
1637	0.5021
1646	0.7635
1655	0.7853
1664	0.7975
1673	0.7939
1682	0.7944
1691	0.7961
1700	0.797
1709	0.7957
1718	0.7913
1727	0.7814
1736	0.7803
1745	0.7848
1754	0.7884
1763	0.79
1772	0.7973
1781	0.7982
1790	0.795
1799	0.7815
1808	0.771
1817	0.7702
1826	0.7746
1835	0.7776
1844	0.7709
1853	0.7599
1862	0.7539
1871	0.7571
1880	0.766
1889	0.7616
1898	0.7607
1907	0.7617
1916	0.7497
1925	0.7496
1934	0.7497
1943	0.7487
1952	0.7459
1961	0.7429
1970	0.7484
1979	0.743
1988	0.7359
1997	0.7427
2006	0.7362
2015	0.7283
2024	0.7203
2033	0.7151
2042	0.7119
2051	0.7055
2060	0.6974
2069	0.6899
2078	0.6819
2087	0.6765
2096	0.6738
2105	0.6694
2114	0.6591
2123	0.6483
2132	0.6365
2141	0.6248
2150	0.6125
2159	0.6001
2168	0.5858
2177	0.5689
2186	0.5511
2195	0.5355
2204	0.5272
2213	0.5113
2222	0.4892
2231	0.4713
2240	0.4738
2249	0.465
2258	0.4351
2267	0.4094
2276	0.4135
2285	0.3891
2294	0.3602
2303	0.3276
2312	0.3278
2321	0.3505
2330	0.3661
2339	0.3645
2348	0.3669
2357	0.3829
2366	0.4131
2375	0.4339
2384	0.3938
2393	0.3308
2402	0.3372
2411	0.3684
2420	0.3947
2429	0.4162
2438	0.4768
2447	0.5256
2456	0.5652
2465	0.5749
2474	0.536
2483	0.4208
2492	0.3824
2501	0.4034
2510	0.4447
2519	0.4694
2528	0.4902
2537	0.5212
2546	0.5453
2555	0.5589
2564	0.5702
2573	0.5777
2582	0.576
2591	0.5783
2600	0.5787
2609	0.5679
2618	0.5503
2627	0.545
2636	0.5693
2645	0.5686
2654	0.5511
2663	0.5575
2672	0.5772
2681	0.5791
2690	0.5696
2699	0.5687
2708	0.5644
2717	0.5621
2726	0.5685
2735	0.5826
2744	0.5845
2753	0.5818
2762	0.5759
2771	0.5626
2780	0.5274
2789	0.5002
2798	0.4935
2807	0.4593
2816	0.4172
2825	0.3437
2834	0.0887
2843	0.0307
2852	0.0325
2861	0.0373
2870	0.0475
2879	0.0411
2888	0.0242
2897	0.01
2906	0.0045
2915	0.004
2924	0.0073
2933	0.0139
2942	0.0185
2951	0.0238
2960	0.0389
2969	0.0852
2978	0.1455
2987	0.2635
2996	0.3263
3005	0.36
3014	0.3609
3023	0.3461
3032	0.3066
3041	0.256
3050	0.235
3059	0.2547
3068	0.2919
3077	0.3527
3086	0.47
3095	0.5259
3104	0.5316
3113	0.5236
3122	0.5069
3131	0.3764
3140	0.5875
3149	0.5977
3158	0.6042
3167	0.6034
3176	0.5947
3185	0.5846
3194	0.5894
3203	0.6126
3212	0.6197
3221	0.6203
3230	0.6201
3239	0.6193
3248	0.618
3257	0.6163
3266	0.6147
3275	0.6137
3284	0.6123
3293	0.6104
3302	0.6078
3311	0.6063
3320	0.6048
3329	0.6035
3338	0.6025
3347	0.6021
3356	0.6017
3365	0.6013
3374	0.6008
3383	0.6005
3392	0.6001
3401	0.5999
3410	0.6002
3419	0.6005
3428	0.6004
3437	0.6
3446	0.5997
3455	0.5996
3464	0.5998
3473	0.5999
3482	0.6002
3491	0.6006
3500	0.601
3509	0.6008
3518	0.6006
3527	0.6004
3536	0.6002
3545	0.6001
3554	0.5997
3563	0.5987
3572	0.5976
3581	0.5962
3590	0.5948
3599	0.5923
3608	0.5868
3617	0.5848
3626	0.5837
3635	0.5828
3644	0.5822
3653	0.5816
3662	0.5811
3671	0.5807
3680	0.5805
3689	0.5799
3698	0.579
3707	0.5781
3716	0.5772
3725	0.576
3734	0.5747
3743	0.5731
3752	0.5709
3761	0.5685
3770	0.5661
3779	0.564
3788	0.5625
3797	0.561
3806	0.5583
3815	0.5559
3824	0.5542
3833	0.5522
3842	0.5504
3851	0.5491
3860	0.5484
3869	0.5479
3878	0.5479
3887	0.5478
3896	0.5432
