Infrared Spectrum: 9,10-DIBENZYLANTHRACENE
Formula: C28 H22
CAS: 3613-42-1
State: SOLID (KBr PELLET)
Melting point: 245 C
Class: COBLENTZ
Instrument: Not specified, most likely a prism, grating, or hybrid spectrometer.
Sampling: TRANSMISSION
Resolution: 4
Origin: UNION CARBIDE CORPORATION (CARBON PRODUCTS DIVISION)
MICROMETERS	TRANSMITTANCE
2.02	0.366
2.05325	0.366
2.08649	0.368
2.11974	0.369
2.15299	0.369
2.18624	0.37
2.21948	0.372
2.25273	0.374
2.28598	0.377
2.31923	0.38
2.35247	0.38
2.38572	0.385
2.41897	0.388
2.45222	0.389
2.48546	0.392
2.51871	0.398
2.55196	0.405
2.58521	0.406
2.61845	0.412
2.6517	0.412
2.68495	0.412
2.7182	0.412
2.75144	0.416
2.78469	0.42
2.81794	0.428
2.85119	0.432
2.88443	0.434
2.91768	0.438
2.95093	0.448
2.98418	0.452
3.01742	0.469
3.05067	0.476
3.08392	0.48
3.11717	0.489
3.15041	0.496
3.18366	0.498
3.21691	0.501
3.25016	0.486
3.2834	0.48
3.31665	0.478
3.3499	0.493
3.38315	0.498
3.41639	0.5
3.44964	0.498
3.48289	0.501
3.51614	0.52
3.54938	0.529
3.58263	0.542
3.61588	0.545
3.64913	0.548
3.68237	0.549
3.71562	0.55
3.74887	0.556
3.78212	0.56
3.81536	0.561
3.84861	0.57
3.88186	0.572
3.9151	0.576
3.94835	0.578
3.9816	0.585
4.01485	0.589
4.04809	0.592
4.08134	0.596
4.11459	0.601
4.14784	0.605
4.18108	0.61
4.21433	0.61
4.24758	0.609
4.28083	0.608
4.31407	0.61
4.34732	0.616
4.38057	0.621
4.41382	0.633
4.44706	0.637
4.48031	0.641
4.51356	0.642
4.54681	0.648
4.58005	0.649
4.6133	0.65
4.64655	0.658
4.6798	0.661
4.71304	0.661
4.74629	0.662
4.77954	0.665
4.81279	0.666
4.84603	0.672
4.87928	0.68
4.91253	0.68
4.94578	0.682
4.97902	0.685
5.01227	0.688
5.04552	0.692
5.07877	0.692
5.11201	0.681
5.14526	0.682
5.17851	0.688
5.21176	0.69
5.245	0.69
5.27825	0.698
5.3115	0.7
5.34475	0.701
5.37799	0.704
5.41124	0.709
5.44449	0.709
5.47774	0.709
5.51098	0.705
5.54423	0.708
5.57748	0.712
5.61073	0.716
5.64397	0.721
5.67722	0.717
5.71047	0.72
5.74371	0.728
5.77696	0.737
5.81021	0.736
5.84346	0.73
5.8767	0.74
5.90995	0.74
5.9432	0.742
5.97645	0.752
6.00969	0.75
6.04294	0.76
6.07619	0.762
6.10944	0.753
6.14268	0.738
6.17593	0.758
6.20918	0.6
6.24243	0.69
6.27567	0.73
6.30892	0.73
6.34217	0.756
6.37542	0.757
6.40866	0.766
6.44191	0.766
6.47516	0.774
6.50841	0.78
6.54165	0.778
6.5749	0.782
6.60815	0.789
6.6414	0.806
6.67464	0.4
6.70789	0.702
6.74114	0.761
6.77439	0.73
6.80763	0.528
6.84088	0.598
6.87413	0.449
6.90738	0.476
6.94062	0.645
6.97387	0.698
7.00712	0.717
7.04037	0.737
7.07361	0.765
7.10686	0.781
7.14011	0.777
7.17336	0.784
7.2066	0.774
7.23985	0.74
7.2731	0.74
7.30635	0.718
7.33959	0.745
7.37284	0.778
7.40609	0.789
7.43934	0.773
7.47258	0.721
7.50583	0.726
7.53908	0.722
7.57232	0.754
7.60557	0.773
7.63882	0.778
7.67207	0.778
7.70531	0.772
7.73856	0.77
7.77181	0.78
7.80506	0.782
7.8383	0.784
7.87155	0.782
7.9048	0.781
7.93805	0.781
7.97129	0.789
8.00454	0.798
8.03779	0.8
8.07104	0.801
8.10428	0.802
8.13753	0.802
8.17078	0.809
8.20403	0.812
8.23727	0.812
8.27052	0.812
8.30377	0.812
8.33702	0.813
8.37026	0.818
8.40351	0.801
8.43676	0.77
8.47001	0.77
8.50325	0.796
8.5365	0.81
8.56975	0.817
8.603	0.821
8.63624	0.814
8.66949	0.802
8.70274	0.809
8.73599	0.821
8.76923	0.826
8.80248	0.833
8.83573	0.837
8.86898	0.841
8.90222	0.849
8.93547	0.85
8.96872	0.85
9.00197	0.85
9.03521	0.85
9.06846	0.849
9.10171	0.85
9.13496	0.852
9.1682	0.854
9.20145	0.86
9.2347	0.853
9.26795	0.8
9.30119	0.718
9.33444	0.78
9.36769	0.82
9.40093	0.837
9.43418	0.852
9.46743	0.854
9.50068	0.861
9.53392	0.865
9.56717	0.856
9.60042	0.83
9.63367	0.825
9.66691	0.782
9.70016	0.717
9.73341	0.716
9.76666	0.802
9.7999	0.829
9.83315	0.845
9.8664	0.852
9.89965	0.864
9.93289	0.86
9.96614	0.822
9.99939	0.848
10.0326	0.856
10.0659	0.857
10.0991	0.858
10.1324	0.858
10.1656	0.857
10.1989	0.854
10.2321	0.853
10.2654	0.85
10.2986	0.853
10.3319	0.858
10.3651	0.861
10.3984	0.849
10.4316	0.728
10.4649	0.705
10.4981	0.749
10.5313	0.804
10.5646	0.829
10.5978	0.841
10.6311	0.848
10.6643	0.85
10.6976	0.852
10.7308	0.853
10.7641	0.857
10.7973	0.86
10.8306	0.861
10.8638	0.86
10.8971	0.861
10.9303	0.861
10.9636	0.865
10.9968	0.862
11.0301	0.861
11.0633	0.864
11.0966	0.862
11.1298	0.861
11.163	0.856
11.1963	0.858
11.2295	0.861
11.2628	0.864
11.296	0.865
11.3293	0.865
11.3625	0.866
11.3958	0.87
11.429	0.877
11.4623	0.874
11.4955	0.873
11.5288	0.876
11.562	0.877
11.5953	0.88
11.6285	0.88
11.6618	0.878
11.695	0.88
11.7283	0.881
11.7615	0.88
11.7948	0.876
11.828	0.866
11.8612	0.866
11.8945	0.862
11.9277	0.87
11.961	0.877
11.9942	0.878
12.0275	0.878
12.0607	0.878
12.094	0.872
12.1272	0.86
12.1605	0.844
12.1937	0.833
12.227	0.822
12.2602	0.81
12.2935	0.793
12.3267	0.756
12.36	0.685
12.3932	0.664
12.4265	0.601
12.4597	0.553
12.4929	0.554
12.5262	0.622
12.5594	0.7
12.5927	0.76
12.6259	0.794
12.6592	0.81
12.6924	0.829
12.7257	0.837
12.7589	0.842
12.7922	0.845
12.8254	0.85
12.8587	0.852
12.8919	0.858
12.9252	0.858
12.9584	0.861
12.9917	0.864
13.0249	0.865
13.0582	0.865
13.0914	0.864
13.1246	0.861
13.1579	0.849
13.1911	0.833
13.2244	0.81
13.2576	0.749
13.2909	0.574
13.3241	0.316
13.3574	0.256
13.3906	0.232
13.4239	0.236
13.4571	0.386
13.4904	0.534
13.5236	0.59
13.5569	0.593
13.5901	0.588
13.6234	0.604
13.6566	0.61
13.6899	0.612
13.7231	0.63
13.7564	0.642
13.7896	0.633
13.8228	0.573
13.8561	0.478
13.8893	0.384
13.9226	0.314
13.9558	0.312
13.9891	0.365
14.0223	0.45
14.0556	0.545
14.0888	0.592
14.1221	0.626
14.1553	0.65
14.1886	0.669
14.2218	0.672
14.2551	0.668
14.2883	0.634
14.3216	0.589
14.3548	0.58
14.3881	0.57
14.4213	0.505
14.4545	0.457
14.4878	0.45
14.521	0.526
14.5543	0.6
14.5875	0.633
14.6208	0.66
14.654	0.672
14.6873	0.672
14.7205	0.672
14.7538	0.677
14.787	0.681
14.8203	0.685
14.8535	0.688
14.8868	0.672
14.92	0.622
14.9533	0.574
14.9865	0.578
15.0198	0.614
15.053	0.626
