Infrared Spectrum: 4-IMIDAZOLE CARBOXYLIC ACID, 5[3-(Beta-HYDROXYETHYL)-3-METHYL-1-TRIAZENO]-, METHYL ESTER
Formula: C8 H13 N5 O3
CAS: 36137-85-6
State: SOLID (1 mg / 650 mg KBr DISC)
Class: COBLENTZ III
Instrument: PERKIN-ELMER 521 (GRATING)
Instrument parameters: FILTER CHANGE AT 3130, 2475, 2000, 620 CM^-^1, GRATING CHANGES AT 2000, 620 CM^-^1
Sampling: TRANSMISSION
Resolution: 4
Origin: SOUTHERN RESEARCH INSTITUTE
1/CM	TRANSMITTANCE
251.733	0.397
260.872	0.417
270.01	0.451
279.149	0.511
288.288	0.567
297.426	0.61
306.565	0.654
315.704	0.68
324.842	0.69
333.981	0.707
343.12	0.71
352.258	0.69
361.397	0.7
370.536	0.747
379.674	0.768
388.813	0.788
397.952	0.8
407.09	0.782
416.229	0.791
425.367	0.8
434.506	0.807
443.645	0.797
452.783	0.769
461.922	0.783
471.061	0.802
480.199	0.809
489.338	0.809
498.477	0.797
507.615	0.765
516.754	0.746
525.893	0.8
535.031	0.809
544.17	0.811
553.309	0.809
562.447	0.801
571.586	0.772
580.725	0.783
589.863	0.813
599.002	0.811
608.141	0.796
617.279	0.771
626.418	0.694
635.557	0.725
644.695	0.623
653.834	0.753
662.973	0.819
672.111	0.831
681.25	0.831
690.389	0.824
699.527	0.822
708.666	0.819
717.805	0.812
726.943	0.791
736.082	0.778
745.22	0.78
754.359	0.783
763.498	0.787
772.636	0.785
781.775	0.689
790.914	0.68
800.052	0.73
809.191	0.763
818.33	0.804
827.468	0.805
836.607	0.795
845.746	0.789
854.884	0.749
864.023	0.685
873.162	0.741
882.3	0.799
891.439	0.768
900.578	0.73
909.716	0.808
918.855	0.809
927.994	0.786
937.132	0.758
946.271	0.728
955.41	0.673
964.548	0.762
973.687	0.76
982.826	0.716
991.964	0.752
1001.1	0.781
1010.24	0.767
1019.38	0.737
1028.52	0.622
1037.66	0.638
1046.8	0.591
1055.93	0.526
1065.07	0.454
1074.21	0.407
1083.35	0.447
1092.49	0.516
1101.63	0.604
1110.77	0.642
1119.91	0.743
1129.04	0.717
1138.18	0.685
1147.32	0.648
1156.46	0.4
1165.6	0.302
1174.74	0.548
1183.88	0.623
1193.01	0.501
1202.15	0.53
1211.29	0.671
1220.43	0.697
1229.57	0.713
1238.71	0.71
1247.85	0.57
1256.99	0.585
1266.12	0.629
1275.26	0.619
1284.4	0.694
1293.54	0.699
1302.68	0.599
1311.82	0.493
1320.96	0.371
1330.09	0.491
1339.23	0.521
1348.37	0.416
1357.51	0.287
1366.65	0.251
1375.79	0.374
1384.93	0.52
1394.07	0.595
1403.2	0.649
1412.34	0.633
1421.48	0.603
1430.62	0.467
1439.76	0.532
1448.9	0.327
1458.04	0.485
1467.17	0.574
1476.31	0.41
1485.45	0.503
1494.59	0.641
1503.73	0.681
1512.87	0.567
1522.01	0.622
1531.15	0.788
1540.28	0.797
1549.42	0.776
1558.56	0.704
1567.7	0.57
1576.84	0.693
1585.98	0.787
1595.12	0.817
1604.25	0.816
1613.39	0.809
1622.53	0.795
1631.67	0.792
1640.81	0.772
1649.95	0.748
1659.09	0.704
1668.22	0.629
1677.36	0.518
1686.5	0.306
1695.64	0.155
1704.78	0.238
1713.92	0.535
1723.06	0.651
1732.2	0.749
1741.33	0.798
1750.47	0.818
1759.61	0.822
1768.75	0.825
1777.89	0.833
1787.03	0.839
1796.17	0.841
1805.3	0.841
1814.44	0.839
1823.58	0.834
1832.72	0.833
1841.86	0.832
1851	0.83
1860.14	0.825
1869.28	0.82
1878.41	0.816
1887.55	0.814
1896.69	0.817
1905.83	0.819
1914.97	0.822
1924.11	0.829
1933.25	0.832
1942.38	0.834
1951.52	0.838
1960.66	0.841
1969.8	0.846
1978.94	0.85
1988.08	0.853
1997.22	0.852
2006.36	0.85
2015.49	0.85
2024.63	0.85
2033.77	0.85
2042.91	0.851
2052.05	0.851
2061.19	0.852
2070.33	0.852
2079.46	0.853
2088.6	0.853
2097.74	0.851
2106.88	0.85
2116.02	0.849
2125.16	0.848
2134.3	0.848
2143.44	0.847
2152.57	0.847
2161.71	0.845
2170.85	0.844
2179.99	0.843
2189.13	0.841
2198.27	0.839
2207.41	0.837
2216.54	0.834
2225.68	0.832
2234.82	0.831
2243.96	0.831
2253.1	0.825
2262.24	0.822
2271.38	0.821
2280.51	0.818
2289.65	0.812
2298.79	0.808
2307.93	0.802
2317.07	0.798
2326.21	0.783
2335.35	0.778
2344.49	0.775
2353.62	0.765
2362.76	0.763
2371.9	0.762
2381.04	0.761
2390.18	0.757
2399.32	0.752
2408.46	0.744
2417.59	0.741
2426.73	0.732
2435.87	0.734
2445.01	0.742
2454.15	0.743
2463.29	0.734
2472.43	0.74
2481.57	0.721
2490.7	0.716
2499.84	0.712
2508.98	0.704
2518.12	0.7
2527.26	0.695
2536.4	0.691
2545.54	0.688
2554.67	0.685
2563.81	0.682
2572.95	0.68
2582.09	0.677
2591.23	0.671
2600.37	0.662
2609.51	0.657
2618.65	0.656
2627.78	0.657
2636.92	0.66
2646.06	0.663
2655.2	0.666
2664.34	0.667
2673.48	0.67
2682.62	0.679
2691.75	0.697
2700.89	0.698
2710.03	0.688
2719.17	0.685
2728.31	0.681
2737.45	0.676
2746.59	0.672
2755.73	0.665
2764.86	0.672
2774	0.676
2783.14	0.675
2792.28	0.655
2801.42	0.641
2810.56	0.639
2819.7	0.638
2828.83	0.633
2837.97	0.624
2847.11	0.619
2856.25	0.621
2865.39	0.633
2874.53	0.635
2883.67	0.641
2892.8	0.654
2901.94	0.657
2911.08	0.654
2920.22	0.636
2929.36	0.626
2938.5	0.626
2947.64	0.596
2956.78	0.624
2965.91	0.666
2975.05	0.664
2984.19	0.663
2993.33	0.682
3002.47	0.695
3011.61	0.699
3020.75	0.702
3029.88	0.706
3039.02	0.704
3048.16	0.698
3057.3	0.697
3066.44	0.697
3075.58	0.699
3084.72	0.698
3093.86	0.693
3102.99	0.682
3112.13	0.663
3121.27	0.663
3130.41	0.627
3139.55	0.633
3148.69	0.641
3157.83	0.631
3166.96	0.619
3176.1	0.615
3185.24	0.609
3194.38	0.601
3203.52	0.592
3212.66	0.589
3221.8	0.591
3230.94	0.599
3240.07	0.619
3249.21	0.635
3258.35	0.652
3267.49	0.67
3276.63	0.682
3285.77	0.693
3294.91	0.701
3304.04	0.706
3313.18	0.71
3322.32	0.713
3331.46	0.714
3340.6	0.714
3349.74	0.711
3358.88	0.708
3368.02	0.705
3377.15	0.702
3386.29	0.698
3395.43	0.696
3404.57	0.694
3413.71	0.692
3422.85	0.691
3431.99	0.691
3441.12	0.693
3450.26	0.695
3459.4	0.697
3468.54	0.703
3477.68	0.709
3486.82	0.717
3495.96	0.724
3505.09	0.731
3514.23	0.74
3523.37	0.748
3532.51	0.754
3541.65	0.765
3550.79	0.776
3559.93	0.782
3569.07	0.794
3578.2	0.801
3587.34	0.811
3596.48	0.819
3605.62	0.827
3614.76	0.838
3623.9	0.844
3633.04	0.849
3642.17	0.853
3651.31	0.856
3660.45	0.857
3669.59	0.856
3678.73	0.853
3687.87	0.855
3697.01	0.858
3706.15	0.858
3715.28	0.857
3724.42	0.857
3733.56	0.857
3742.7	0.857
3751.84	0.857
3760.98	0.857
3770.12	0.857
3779.25	0.857
3788.39	0.857
3797.53	0.857
3806.67	0.857
