Infrared Spectrum: IMIDAZOLE-4-CARBOXYLIC ACID, 5-(3-METHYL-3-OCTYLTRIAZENO)-, ETHYL ESTER
Formula: C15 H27 N5 O2
CAS: 36137-96-9
State: SOLID (1 mg / 650 mg KBr DISC)
Class: COBLENTZ III
Instrument: PERKIN-ELMER 521 (GRATING)
Instrument parameters: FILTERS AT 3150, 2500, 2000, 1150, 700, 410 CM ^-^1, GRATING CHANGES AT 2000, 630 CM^-^1
Sampling: TRANSMISSION
Resolution: 4
Origin: SOUTHERN RES. INSTITUTE
1/CM	TRANSMITTANCE
244.364	0.271
253.481	0.3174
262.598	0.3921
271.714	0.4656
280.831	0.536
289.948	0.595
299.065	0.6451
308.182	0.6906
317.298	0.7124
326.415	0.7344
335.532	0.7499
344.649	0.7859
353.766	0.8107
362.883	0.8337
371.999	0.8492
381.116	0.8734
390.233	0.8865
399.35	0.8936
408.467	0.9
417.583	0.9011
426.7	0.9089
435.817	0.9209
444.934	0.923
454.051	0.918
463.167	0.915
472.284	0.9185
481.401	0.9421
490.518	0.955
499.635	0.9527
508.752	0.9423
517.868	0.9599
526.985	0.962
536.102	0.962
545.219	0.962
554.336	0.959
563.452	0.9565
572.569	0.953
581.686	0.949
590.803	0.924
599.92	0.9021
609.036	0.9231
618.153	0.8667
627.27	0.741
636.387	0.7462
645.504	0.9006
654.621	0.7468
663.737	0.8852
672.854	0.9453
681.971	0.949
691.088	0.95
700.205	0.945
709.321	0.944
718.438	0.9323
727.555	0.862
736.672	0.92
745.789	0.94
754.905	0.93
764.022	0.9098
773.139	0.894
782.256	0.8767
791.373	0.762
800.49	0.8819
809.606	0.9205
818.723	0.921
827.84	0.9109
836.957	0.8819
846.074	0.8683
855.19	0.8576
864.307	0.7857
873.424	0.791
882.541	0.8083
891.658	0.868
900.774	0.8379
909.891	0.8003
919.008	0.8435
928.125	0.8181
937.242	0.7797
946.358	0.7323
955.475	0.6634
964.592	0.6298
973.709	0.7833
982.826	0.8296
991.943	0.8303
1001.06	0.8248
1010.18	0.7994
1019.29	0.7355
1028.41	0.6716
1037.53	0.6962
1046.64	0.6511
1055.76	0.4776
1064.88	0.4217
1073.99	0.5924
1083.11	0.4983
1092.23	0.3845
1101.34	0.6164
1110.46	0.736
1119.58	0.667
1128.69	0.531
1137.81	0.5343
1146.93	0.435
1156.05	0.3821
1165.16	0.4311
1174.28	0.4787
1183.4	0.4874
1192.51	0.5327
1201.63	0.6994
1210.75	0.7117
1219.86	0.6954
1228.98	0.6867
1238.1	0.741
1247.21	0.6504
1256.33	0.5512
1265.45	0.584
1274.56	0.535
1283.68	0.667
1292.8	0.6045
1301.91	0.5297
1311.03	0.502
1320.15	0.3478
1329.26	0.5327
1338.38	0.5956
1347.5	0.3789
1356.62	0.1542
1365.73	0.2033
1374.85	0.411
1383.97	0.3498
1393.08	0.4769
1402.2	0.5253
1411.32	0.5834
1420.43	0.6082
1429.55	0.3342
1438.67	0.4032
1447.78	0.3999
1456.9	0.4479
1466.02	0.416
1475.13	0.354
1484.25	0.4917
1493.37	0.6297
1502.48	0.7061
1511.6	0.6266
1520.72	0.4866
1529.83	0.7417
1538.95	0.815
1548.07	0.829
1557.18	0.7713
1566.3	0.6427
1575.42	0.5553
1584.54	0.7529
1593.65	0.8376
1602.77	0.8659
1611.89	0.868
1621	0.8635
1630.12	0.8563
1639.24	0.8454
1648.35	0.8317
1657.47	0.7954
1666.59	0.7322
1675.7	0.6921
1684.82	0.5917
1693.94	0.3012
1703.05	0.0707
1712.17	0.1554
1721.29	0.3601
1730.4	0.5715
1739.52	0.6977
1748.64	0.7648
1757.75	0.798
1766.87	0.8217
1775.99	0.8441
1785.11	0.8529
1794.22	0.8578
1803.34	0.859
1812.46	0.8574
1821.57	0.853
1830.69	0.8471
1839.81	0.8333
1848.92	0.8245
1858.04	0.8139
1867.16	0.809
1876.27	0.7991
1885.39	0.7878
1894.51	0.7743
1903.62	0.771
1912.74	0.7755
1921.86	0.7837
1930.97	0.7933
1940.09	0.8032
1949.21	0.8133
1958.32	0.822
1967.44	0.8289
1976.56	0.8395
1985.68	0.8457
1994.79	0.85
2003.91	0.853
2013.03	0.8556
2022.14	0.8596
2031.26	0.8631
2040.38	0.868
2049.49	0.87
2058.61	0.871
2067.73	0.8726
2076.84	0.874
2085.96	0.875
2095.08	0.876
2104.19	0.876
2113.31	0.876
2122.43	0.875
2131.54	0.874
2140.66	0.8724
2149.78	0.871
2158.89	0.869
2168.01	0.868
2177.13	0.868
2186.24	0.8633
2195.36	0.8584
2204.48	0.856
2213.6	0.853
2222.71	0.8484
2231.83	0.8434
2240.95	0.8404
2250.06	0.8344
2259.18	0.83
2268.3	0.8204
2277.41	0.8154
2286.53	0.8069
2295.65	0.803
2304.76	0.7919
2313.88	0.784
2323	0.7747
2332.11	0.765
2341.23	0.7549
2350.35	0.7484
2359.46	0.7353
2368.58	0.7219
2377.7	0.7124
2386.81	0.7034
2395.93	0.6934
2405.05	0.6807
2414.17	0.6693
2423.28	0.668
2432.4	0.6724
2441.52	0.671
2450.63	0.6663
2459.75	0.656
2468.87	0.6429
2477.98	0.6314
2487.1	0.6263
2496.22	0.6164
2505.33	0.6039
2514.45	0.5994
2523.57	0.5904
2532.68	0.5819
2541.8	0.5689
2550.92	0.5594
2560.03	0.56
2569.15	0.562
2578.27	0.5594
2587.38	0.5524
2596.5	0.546
2605.62	0.545
2614.74	0.5446
2623.85	0.546
2632.97	0.5466
2642.09	0.549
2651.2	0.55
2660.32	0.5506
2669.44	0.5566
2678.55	0.5763
2687.67	0.5987
2696.79	0.602
2705.9	0.5969
2715.02	0.5859
2724.14	0.5667
2733.25	0.559
2742.37	0.562
2751.49	0.566
2760.6	0.566
2769.72	0.565
2778.84	0.5589
2787.95	0.5489
2797.07	0.546
2806.19	0.5526
2815.3	0.559
2824.42	0.558
2833.54	0.5443
2842.66	0.5146
2851.77	0.4117
2860.89	0.3543
2870.01	0.4491
2879.12	0.4657
2888.24	0.478
2897.36	0.4484
2906.47	0.4063
2915.59	0.379
2924.71	0.3134
2933.82	0.2711
2942.94	0.3394
2952.06	0.4001
2961.17	0.4077
2970.29	0.4344
2979.41	0.4627
2988.52	0.4886
2997.64	0.5354
3006.76	0.5976
3015.87	0.6303
3024.99	0.6456
3034.11	0.6506
3043.23	0.6541
3052.34	0.6631
3061.46	0.6778
3070.58	0.6917
3079.69	0.7106
3088.81	0.7201
3097.93	0.7311
3107.04	0.737
3116.16	0.7364
3125.28	0.7304
3134.39	0.724
3143.51	0.7351
3152.63	0.7417
3161.74	0.7576
3170.86	0.765
3179.98	0.768
3189.09	0.7706
3198.21	0.7736
3207.33	0.7746
3216.44	0.776
3225.56	0.776
3234.68	0.7754
3243.8	0.7734
3252.91	0.7716
3262.03	0.7786
3271.15	0.781
3280.26	0.782
3289.38	0.783
3298.5	0.783
3307.61	0.781
3316.73	0.778
3325.85	0.776
3334.96	0.7744
3344.08	0.7714
3353.2	0.7664
3362.31	0.7624
3371.43	0.759
3380.55	0.758
3389.66	0.758
3398.78	0.758
3407.9	0.759
3417.01	0.759
3426.13	0.759
3435.25	0.759
3444.36	0.76
3453.48	0.762
3462.6	0.7646
3471.72	0.7656
3480.83	0.768
3489.95	0.771
3499.07	0.7726
3508.18	0.7761
3517.3	0.7806
3526.42	0.784
3535.53	0.7861
3544.65	0.789
3553.77	0.7916
3562.88	0.7946
3572	0.7976
3581.12	0.801
3590.23	0.805
3599.35	0.8066
3608.47	0.809
3617.58	0.811
3626.7	0.813
3635.82	0.815
3644.93	0.818
3654.05	0.82
3663.17	0.821
3672.29	0.8199
3681.4	0.8174
3690.52	0.818
3699.64	0.8196
3708.75	0.821
3717.87	0.821
3726.99	0.819
3736.1	0.818
3745.22	0.8174
3754.34	0.816
3763.45	0.8166
3772.57	0.818
3781.69	0.819
3790.8	0.8174
3799.92	0.815
