Infrared Spectrum: 4-IMIDAZOLECARBOXYLIC ACID, 5-(3-METHYLTRIAZEN-1-YL)-, METHYL ESTER
Formula: C6 H9 N5 O2
CAS: 36137-94-7
State: SOLID (1 mg / 500 mg KBr DISC)
Class: COBLENTZ III
Instrument: PERKIN-ELMER 521 (GRATING)
Sampling: TRANSMISSION
Resolution: 4
Origin: SOUTHERN RESEARCH INSTITUTE
1/CM	TRANSMITTANCE
255.722	0.224
266.285	0.273
276.849	0.353
287.412	0.42
297.976	0.484
308.539	0.532
319.102	0.551
329.666	0.568
340.229	0.59
350.792	0.685
361.356	0.75
371.919	0.776
382.483	0.792
393.046	0.776
403.609	0.779
414.173	0.835
424.736	0.852
435.299	0.856
445.863	0.858
456.426	0.859
466.99	0.859
477.553	0.854
488.116	0.869
498.68	0.867
509.243	0.865
519.807	0.859
530.37	0.854
540.933	0.848
551.497	0.84
562.06	0.833
572.623	0.817
583.187	0.792
593.75	0.762
604.314	0.731
614.877	0.617
625.44	0.601
636.004	0.7409
646.567	0.738
657.13	0.6209
667.694	0.791
678.257	0.823
688.821	0.851
699.384	0.854
709.947	0.873
720.511	0.872
731.074	0.875
741.638	0.875
752.201	0.873
762.764	0.865
773.328	0.831
783.891	0.781
794.454	0.858
805.018	0.848
815.581	0.856
826.145	0.842
836.708	0.817
847.271	0.791
857.835	0.7121
868.398	0.727
878.961	0.776
889.525	0.817
900.088	0.791
910.652	0.751
921.215	0.696
931.778	0.657
942.342	0.517
952.905	0.6679
963.469	0.66
974.032	0.642
984.595	0.721
995.159	0.806
1005.72	0.814
1016.29	0.8
1026.85	0.797
1037.41	0.796
1047.98	0.784
1058.54	0.754
1069.1	0.6512
1079.67	0.427
1090.23	0.722
1100.79	0.75
1111.36	0.738
1121.92	0.727
1132.48	0.691
1143.05	0.563
1153.61	0.541
1164.17	0.5011
1174.74	0.4979
1185.3	0.529
1195.86	0.395
1206.43	0.561
1216.99	0.654
1227.55	0.603
1238.12	0.554
1248.68	0.662
1259.24	0.68
1269.81	0.616
1280.37	0.6669
1290.93	0.67
1301.5	0.593
1312.06	0.509
1322.62	0.287
1333.19	0.5929
1343.75	0.561
1354.31	0.39
1364.88	0.366
1375.44	0.3902
1386	0.4029
1396.57	0.716
1407.13	0.7
1417.69	0.494
1428.26	0.394
1438.82	0.316
1449.38	0.4499
1459.95	0.554
1470.51	0.664
1481.07	0.755
1491.64	0.758
1502.2	0.6361
1512.76	0.588
1523.33	0.624
1533.89	0.747
1544.45	0.706
1555.02	0.654
1565.58	0.7
1576.14	0.75
1586.71	0.768
1597.27	0.73
1607.83	0.708
1618.4	0.668
1628.96	0.617
1639.52	0.576
1650.09	0.4661
1660.65	0.2471
1671.22	0.152
1681.78	0.235
1692.34	0.4129
1702.91	0.5649
1713.47	0.674
1724.03	0.724
1734.6	0.793
1745.16	0.848
1755.72	0.858
1766.29	0.863
1776.85	0.867
1787.41	0.867
1797.98	0.865
1808.54	0.863
1819.1	0.854
1829.67	0.846
1840.23	0.834
1850.79	0.827
1861.36	0.823
1871.92	0.825
1882.48	0.829
1893.05	0.833
1903.61	0.837
1914.17	0.839
1924.74	0.84
1935.3	0.843
1945.86	0.85
1956.43	0.856
1966.99	0.868
1977.55	0.872
1988.12	0.875
1998.68	0.879
2009.24	0.885
2019.81	0.889
2030.37	0.889
2040.93	0.888
2051.5	0.886
2062.06	0.885
2072.62	0.885
2083.19	0.885
2093.75	0.885
2104.31	0.884
2114.88	0.881
2125.44	0.8761
2136	0.873
2146.57	0.871
2157.13	0.864
2167.69	0.8591
2178.26	0.855
2188.82	0.854
2199.38	0.8483
2209.95	0.8421
2220.51	0.837
2231.07	0.833
2241.64	0.827
2252.2	0.8195
2262.76	0.8132
2273.33	0.8052
2283.89	0.7962
2294.45	0.7882
2305.02	0.78
2315.58	0.7644
2326.14	0.7502
2336.71	0.7412
2347.27	0.7347
2357.83	0.7225
2368.4	0.721
2378.96	0.7173
2389.52	0.713
2400.09	0.7065
2410.65	0.6993
2421.22	0.697
2431.78	0.693
2442.34	0.6859
2452.91	0.68
2463.47	0.674
2474.03	0.667
2484.6	0.6593
2495.16	0.6583
2505.72	0.6503
2516.29	0.6423
2526.85	0.6364
2537.41	0.6307
2547.98	0.626
2558.54	0.626
2569.1	0.6272
2579.67	0.628
2590.23	0.625
2600.79	0.626
2611.36	0.628
2621.92	0.628
2632.48	0.625
2643.05	0.622
2653.61	0.624
2664.17	0.6256
2674.74	0.6326
2685.3	0.642
2695.86	0.646
2706.43	0.645
2716.99	0.645
2727.55	0.645
2738.12	0.646
2748.68	0.6455
2759.24	0.645
2769.81	0.646
2780.37	0.653
2790.93	0.66
2801.5	0.662
2812.06	0.6689
2822.62	0.675
2833.19	0.6771
2843.75	0.6666
2854.31	0.6626
2864.88	0.6542
2875.44	0.643
2886	0.643
2896.57	0.6478
2907.13	0.658
2917.69	0.6586
2928.26	0.6496
2938.82	0.6416
2949.38	0.6645
2959.95	0.687
2970.51	0.6806
2981.07	0.6653
2991.64	0.6727
3002.2	0.6893
3012.76	0.7093
3023.33	0.7123
3033.89	0.714
3044.45	0.71
3055.02	0.6898
3065.58	0.6614
3076.14	0.6648
3086.71	0.7072
3097.27	0.7431
3107.83	0.7625
3118.4	0.768
3128.96	0.772
3139.52	0.767
3150.09	0.7408
3160.65	0.7551
3171.22	0.77
3181.78	0.7638
3192.34	0.7548
3202.91	0.745
3213.47	0.7346
3224.03	0.721
3234.6	0.714
3245.16	0.7047
3255.72	0.685
3266.29	0.6587
3276.85	0.628
3287.41	0.5953
3297.98	0.5536
3308.54	0.51
3319.1	0.4354
3329.67	0.3477
3340.23	0.3062
3350.79	0.3366
3361.36	0.4222
3371.92	0.5311
3382.48	0.6336
3393.05	0.6852
3403.61	0.7222
3414.17	0.7371
3424.74	0.75
3435.3	0.758
3445.86	0.763
3456.43	0.77
3466.99	0.775
3477.55	0.78
3488.12	0.789
3498.68	0.795
3509.24	0.806
3519.81	0.816
3530.37	0.827
3540.93	0.8349
3551.5	0.847
3562.06	0.854
3572.62	0.863
3583.19	0.8749
3593.75	0.881
3604.31	0.886
3614.88	0.9
3625.44	0.9049
3636	0.908
3646.57	0.908
3657.13	0.906
3667.69	0.897
3678.26	0.9089
3688.82	0.9127
3699.38	0.913
3709.95	0.9113
3720.51	0.909
3731.07	0.906
3741.64	0.9088
3752.2	0.913
3762.76	0.91
3773.33	0.909
3783.89	0.906
3794.45	0.9024
3805.02	0.9
3815.58	0.898
3826.14	0.896
3836.71	0.894
3847.27	0.893
3857.83	0.892
3868.4	0.892
3878.96	0.892
3889.52	0.89
3900.09	0.89
3910.65	0.889
3921.22	0.889
3931.78	0.889
3942.34	0.8914
3952.91	0.8869
3963.47	0.884
3974.03	0.884
3984.6	0.884
3995.16	0.884
