Infrared Spectrum: 5-(3'-METHYL-3'-CYCLOHEXYL-1'-TRIAZENO)IMIDAZOLE-4-CARBOXYLIC ACID, ETHYL ESTER
Formula: C13 H21 N5 O2
CAS: 36137-87-8
State: SOLID (1 mg / 650 mg KBr DISC)
Class: COBLENTZ III
Instrument: PERKIN-ELMER 521 (GRATING)
Instrument parameters: FILTERS AT 3130, 2475, 2000, 620. GRATING CHANGES: 2000, 630 CM^-^1
Sampling: TRANSMISSION
Resolution: 2
Origin: SOUTHERN RESEARCH INSTITUTE
1/CM	TRANSMITTANCE
252.564	0.42
262.768	0.4667
272.972	0.5276
283.176	0.579
293.38	0.6273
303.584	0.6638
313.788	0.6777
323.993	0.6897
334.197	0.704
344.401	0.7143
354.605	0.7342
364.809	0.7466
375.013	0.7605
385.217	0.7841
395.421	0.768
405.625	0.771
415.829	0.7713
426.033	0.787
436.237	0.79
446.442	0.7728
456.646	0.7715
466.85	0.7913
477.054	0.8001
487.258	0.8
497.462	0.782
507.666	0.7899
517.87	0.806
528.074	0.81
538.278	0.811
548.482	0.811
558.686	0.809
568.89	0.81
579.095	0.81
589.299	0.8047
599.503	0.7908
609.707	0.7623
619.911	0.6934
630.115	0.6087
640.319	0.7736
650.523	0.6558
660.727	0.8418
670.931	0.845
681.135	0.8424
691.339	0.8338
701.544	0.833
711.748	0.8285
721.952	0.8291
732.156	0.8309
742.36	0.825
752.564	0.812
762.768	0.791
772.972	0.711
783.176	0.6754
793.38	0.7918
803.584	0.791
813.788	0.775
823.992	0.7647
834.197	0.7444
844.401	0.7484
854.605	0.7079
864.809	0.7239
875.013	0.7215
885.217	0.7217
895.421	0.7291
905.625	0.7205
915.829	0.733
926.033	0.7048
936.237	0.6549
946.441	0.5909
956.646	0.614
966.85	0.7238
977.054	0.735
987.258	0.6798
997.462	0.696
1007.67	0.6562
1017.87	0.5755
1028.07	0.5833
1038.28	0.5477
1048.48	0.3411
1058.69	0.3164
1068.89	0.548
1079.09	0.4571
1089.3	0.39
1099.5	0.6396
1109.71	0.706
1119.91	0.6958
1130.11	0.5955
1140.32	0.429
1150.52	0.416
1160.73	0.409
1170.93	0.4396
1181.14	0.446
1191.34	0.6004
1201.54	0.6476
1211.75	0.5968
1221.95	0.5563
1232.16	0.6128
1242.36	0.524
1252.56	0.504
1262.77	0.5116
1272.97	0.4963
1283.18	0.4997
1293.38	0.5106
1303.58	0.4451
1313.79	0.3123
1323.99	0.5172
1334.2	0.3722
1344.4	0.2533
1354.6	0.3396
1364.81	0.1945
1375.01	0.325
1385.22	0.4807
1395.42	0.5137
1405.63	0.5142
1415.83	0.5253
1426.03	0.3134
1436.24	0.3001
1446.44	0.3992
1456.65	0.4521
1466.85	0.4519
1477.05	0.5602
1487.26	0.6105
1497.46	0.646
1507.67	0.5474
1517.87	0.5975
1528.07	0.7397
1538.28	0.7354
1548.48	0.6332
1558.69	0.5269
1568.89	0.6207
1579.09	0.7502
1589.3	0.802
1599.5	0.8
1609.71	0.7904
1619.91	0.7794
1630.11	0.763
1640.32	0.7341
1650.52	0.6911
1660.73	0.6384
1670.93	0.5263
1681.14	0.2991
1691.34	0.1168
1701.54	0.1475
1711.75	0.404
1721.95	0.5936
1732.16	0.7083
1742.36	0.7631
1752.56	0.79
1762.77	0.802
1772.97	0.8069
1783.18	0.8137
1793.38	0.8112
1803.58	0.81
1813.79	0.806
1823.99	0.7956
1834.2	0.791
1844.4	0.788
1854.6	0.7824
1864.81	0.7765
1875.01	0.7715
1885.22	0.759
1895.42	0.757
1905.62	0.7614
1915.83	0.7683
1926.03	0.7746
1936.24	0.7853
1946.44	0.788
1956.65	0.7952
1966.85	0.8011
1977.05	0.809
1987.26	0.8191
1997.46	0.821
2007.67	0.821
2017.87	0.825
2028.07	0.828
2038.28	0.831
2048.48	0.835
2058.69	0.836
2068.89	0.836
2079.09	0.839
2089.3	0.84
2099.5	0.84
2109.71	0.84
2119.91	0.839
2130.11	0.838
2140.32	0.835
2150.52	0.833
2160.73	0.829
2170.93	0.825
2181.14	0.821
2191.34	0.819
2201.54	0.815
2211.75	0.811
2221.95	0.806
2232.16	0.801
2242.36	0.796
2252.56	0.792
2262.77	0.79
2272.97	0.783
2283.18	0.777
2293.38	0.772
2303.58	0.763
2313.79	0.757
2323.99	0.74
2334.2	0.728
2344.4	0.724
2354.6	0.709
2364.81	0.705
2375.01	0.701
2385.22	0.691
2395.42	0.681
2405.62	0.672
2415.83	0.671
2426.03	0.672
2436.24	0.672
2446.44	0.668
2456.65	0.656
2466.85	0.646
2477.05	0.64
2487.26	0.634
2497.46	0.628
2507.67	0.621
2517.87	0.614
2528.07	0.606
2538.28	0.599
2548.48	0.592
2558.69	0.592
2568.89	0.594
2579.09	0.589
2589.3	0.582
2599.5	0.573
2609.71	0.571
2619.91	0.573
2630.11	0.575
2640.32	0.575
2650.52	0.575
2660.73	0.575
2670.93	0.591
2681.14	0.615
2691.34	0.619
2701.54	0.616
2711.75	0.605
2721.95	0.6
2732.16	0.599
2742.36	0.601
2752.56	0.601
2762.77	0.599
2772.97	0.587
2783.18	0.582
2793.38	0.584
2803.58	0.587
2813.79	0.591
2823.99	0.591
2834.2	0.581
2844.4	0.5459
2854.6	0.451
2864.81	0.505
2875.01	0.562
2885.22	0.561
2895.42	0.5359
2905.62	0.479
2915.83	0.445
2926.03	0.3719
2936.24	0.34
2946.44	0.4182
2956.65	0.5141
2966.85	0.549
2977.05	0.525
2987.26	0.557
2997.46	0.6091
3007.67	0.653
3017.87	0.671
3028.07	0.673
3038.28	0.676
3048.48	0.69
3058.69	0.705
3068.89	0.714
3079.09	0.725
3089.3	0.73
3099.5	0.735
3109.71	0.738
3119.91	0.737
3130.11	0.723
3140.32	0.737
3150.52	0.756
3160.73	0.761
3170.93	0.766
3181.14	0.769
3191.34	0.771
3201.54	0.771
3211.75	0.772
3221.95	0.772
3232.16	0.771
3242.36	0.773
3252.56	0.773
3262.77	0.776
3272.97	0.776
3283.18	0.777
3293.38	0.778
3303.58	0.778
3313.79	0.776
3323.99	0.777
3334.2	0.772
3344.4	0.764
3354.6	0.758
3364.81	0.757
3375.01	0.752
3385.22	0.748
3395.42	0.743
3405.62	0.742
3415.83	0.74
3426.03	0.739
3436.24	0.74
3446.44	0.742
3456.65	0.747
3466.85	0.752
3477.05	0.757
3487.26	0.762
3497.46	0.766
3507.67	0.771
3517.87	0.777
3528.07	0.78
3538.28	0.79
3548.48	0.795
3558.69	0.8
3568.89	0.804
3579.09	0.816
3589.3	0.819
3599.5	0.829
3609.71	0.835
3619.91	0.84
3630.11	0.847
3640.32	0.854
3650.52	0.854
3660.73	0.855
3670.93	0.86
3681.13	0.854
3691.34	0.865
3701.54	0.867
3711.75	0.869
3721.95	0.868
3732.16	0.867
3742.36	0.858
3752.56	0.855
3762.77	0.859
3772.97	0.871
3783.18	0.872
3793.38	0.872
3803.58	0.871
3813.79	0.867
3823.99	0.865
3834.2	0.868
3844.4	0.863
3854.6	0.867
3864.81	0.8451
3875.01	0.86
3885.22	0.865
3895.42	0.864
3905.62	0.864
3915.83	0.867
3926.03	0.865
3936.24	0.867
3946.44	0.867
3956.65	0.867
3966.85	0.865
3977.05	0.865
3987.26	0.867
3997.46	0.865
