Infrared Spectrum: BENZOPHENONE, 2,4-DIHYDROXY-4'-PHENYL-
Formula: C19 H14 O3
CAS: 36130-57-1
State: SOLID (OIL MULL)
Class: COBLENTZ
Instrument: Not specified, most likely a prism, grating, or hybrid spectrometer.
Sampling: TRANSMISSION
Resolution: 4
Origin: TENNESSEE EASTMAN COMPANY, RESEARCH LABORATORIES
MICROMETERS	TRANSMITTANCE
2.007	0.492
2.04799	0.497
2.08898	0.502
2.12997	0.512
2.17095	0.516
2.21194	0.521
2.25293	0.526
2.29392	0.526
2.33491	0.528
2.3759	0.537
2.41688	0.549
2.45787	0.555
2.49886	0.562
2.53985	0.573
2.58084	0.574
2.62183	0.576
2.66281	0.592
2.7038	0.604
2.74479	0.621
2.78578	0.629
2.82677	0.648
2.86776	0.659
2.90874	0.662
2.94973	0.638
2.99072	0.588
3.03171	0.547
3.0727	0.549
3.11369	0.542
3.15467	0.518
3.19566	0.53
3.23665	0.552
3.27764	0.552
3.31863	0.514
3.35962	0.175
3.4006	0.03
3.44159	0.068
3.48258	0.099
3.52357	0.378
3.56456	0.635
3.60555	0.666
3.64653	0.672
3.68752	0.667
3.72851	0.667
3.7695	0.671
3.81049	0.674
3.85148	0.681
3.89246	0.685
3.93345	0.698
3.97444	0.705
4.01543	0.722
4.05642	0.738
4.09741	0.746
4.13839	0.748
4.17938	0.757
4.22037	0.76
4.26136	0.762
4.30235	0.764
4.34334	0.767
4.38432	0.786
4.42531	0.8
4.4663	0.805
4.50729	0.814
4.54828	0.819
4.58927	0.824
4.63026	0.836
4.67124	0.841
4.71223	0.85
4.75322	0.851
4.79421	0.855
4.8352	0.855
4.87619	0.86
4.91717	0.862
4.95816	0.87
4.99915	0.879
5.04014	0.882
5.08113	0.882
5.12212	0.882
5.1631	0.882
5.20409	0.888
5.24508	0.893
5.28607	0.895
5.32706	0.9
5.36805	0.908
5.40903	0.919
5.45002	0.92
5.49101	0.925
5.532	0.932
5.57299	0.932
5.61398	0.948
5.65496	0.946
5.69595	0.948
5.73694	0.95
5.77793	0.958
5.81892	0.963
5.85991	0.963
5.90089	0.963
5.94188	0.963
5.98287	0.965
6.02386	0.96
6.06485	0.882
6.10584	0.679
6.14682	0.45
6.18781	0.592
6.2288	0.557
6.26979	0.442
6.31078	0.504
6.35177	0.573
6.39275	0.643
6.43374	0.679
6.47473	0.681
6.51572	0.733
6.55671	0.614
6.5977	0.583
6.63868	0.683
6.67967	0.71
6.72066	0.611
6.76165	0.456
6.80264	0.335
6.84363	0.328
6.88462	0.376
6.9256	0.457
6.96659	0.629
7.00758	0.729
7.04857	0.765
7.08956	0.757
7.13055	0.712
7.17153	0.693
7.21252	0.493
7.25351	0.414
7.2945	0.454
7.33549	0.507
7.37648	0.552
7.41746	0.552
7.45845	0.557
7.49944	0.58
7.54043	0.533
7.58142	0.535
7.62241	0.557
7.66339	0.659
7.70438	0.447
7.74537	0.459
7.78636	0.497
7.82735	0.552
7.86834	0.564
7.90932	0.605
7.95031	0.633
7.9913	0.598
8.03229	0.526
8.07328	0.473
8.11427	0.499
8.15525	0.571
8.19624	0.564
8.23723	0.559
8.27822	0.593
8.31921	0.623
8.3602	0.64
8.40118	0.635
8.44217	0.629
8.48316	0.65
8.52415	0.652
8.56514	0.672
8.60613	0.71
8.64711	0.728
8.6881	0.755
8.72909	0.776
8.77008	0.805
8.81107	0.819
8.85206	0.776
8.89304	0.595
8.93403	0.609
8.97502	0.686
9.01601	0.769
9.057	0.781
9.09799	0.803
9.13897	0.819
9.17996	0.831
9.22095	0.833
9.26194	0.833
9.30293	0.843
9.34392	0.851
9.38491	0.855
9.42589	0.86
9.46688	0.864
9.50787	0.872
9.54886	0.872
9.58985	0.872
9.63084	0.876
9.67182	0.881
9.71281	0.884
9.7538	0.888
9.79479	0.896
9.83578	0.901
9.87677	0.901
9.91775	0.82
9.95874	0.846
9.99973	0.874
10.0407	0.884
10.0817	0.893
10.1227	0.876
10.1637	0.769
10.2047	0.796
10.2457	0.85
10.2866	0.865
10.3276	0.87
10.3686	0.864
10.4096	0.865
10.4506	0.886
10.4916	0.895
10.5326	0.901
10.5736	0.908
10.6146	0.92
10.6555	0.929
10.6965	0.934
10.7375	0.932
10.7785	0.827
10.8195	0.614
10.8605	0.685
10.9015	0.784
10.9425	0.808
10.9835	0.851
11.0244	0.888
11.0654	0.901
11.1064	0.907
11.1474	0.915
11.1884	0.919
11.2294	0.924
11.2704	0.932
11.3114	0.939
11.3523	0.941
11.3933	0.944
11.4343	0.944
11.4753	0.944
11.5163	0.944
11.5573	0.943
11.5983	0.903
11.6393	0.824
11.6803	0.783
11.7212	0.776
11.7622	0.839
11.8032	0.874
11.8442	0.872
11.8852	0.822
11.9262	0.759
11.9672	0.795
12.0082	0.889
12.0491	0.92
12.0901	0.938
12.1311	0.943
12.1721	0.943
12.2131	0.943
12.2541	0.941
12.2951	0.922
12.3361	0.87
12.3771	0.87
12.418	0.905
12.459	0.925
12.5	0.938
12.541	0.941
12.582	0.941
12.623	0.927
12.664	0.901
12.705	0.893
12.746	0.893
12.7869	0.889
12.8279	0.891
12.8689	0.874
12.9099	0.822
12.9509	0.753
12.9919	0.717
13.0329	0.753
13.0739	0.805
13.1148	0.795
13.1558	0.716
13.1968	0.654
13.2378	0.679
13.2788	0.717
13.3198	0.743
13.3608	0.777
13.4018	0.793
13.4428	0.805
13.4837	0.807
13.5247	0.808
13.5657	0.812
13.6067	0.812
13.6477	0.796
13.6887	0.769
13.7297	0.765
13.7707	0.764
13.8116	0.764
13.8526	0.764
13.8936	0.767
13.9346	0.772
13.9756	0.781
14.0166	0.79
14.0576	0.803
14.0986	0.808
14.1396	0.812
14.1805	0.815
14.2215	0.812
14.2625	0.8
14.3035	0.767
14.3445	0.746
14.3855	0.707
14.4265	0.705
14.4675	0.707
14.5085	0.714
14.5494	0.721
14.5904	0.731
14.6314	0.75
14.6724	0.769
14.7134	0.774
14.7544	0.776
14.7954	0.774
14.8364	0.771
14.8773	0.75
14.9183	0.702
14.9593	0.679
15.0003	0.698
15.0413	0.731
15.0823	0.736
15.1233	0.736
15.1643	0.736
15.2053	0.734
15.2462	0.733
15.2872	0.728
15.3282	0.724
15.3692	0.717
15.4102	0.714
15.4512	0.71
15.4922	0.707
15.5332	0.703
15.5741	0.702
15.6151	0.69
15.6561	0.681
15.6971	0.674
15.7381	0.664
15.7791	0.657
15.8201	0.657
15.8611	0.652
15.9021	0.647
15.943	0.643
