Infrared Spectrum: Oxadiazole, 1,2,4-, 5-(5-nitrofuran-2-yl)-3-(pyrrolidinylmethyl)-, hydrochloride
Formula: C11 H13 Cl N4 O4
CAS: 36133-76-3
State: SOLID (NUJOL MULL)
Melting point: 187 C
Class: COBLENTZ III
Instrument: PERKIN-ELMER 21, NaCl PRISM
Instrument parameters: FILTER CHANGE AT 10 MICRON
Sampling: TRANSMISSION
Resolution: 2
Origin: ABBOTT LABORATORIES - WASHBURN
1/CM	TRANSMITTANCE
676	0.6556
685	0.6519
694	0.7097
703	0.7092
712	0.6812
721	0.6082
730	0.6357
739	0.5044
748	0.6501
757	0.6998
766	0.6839
775	0.6374
784	0.7042
793	0.713
802	0.6849
811	0.3228
820	0.7205
829	0.6613
838	0.459
847	0.6108
856	0.6851
865	0.7008
874	0.7102
883	0.7021
892	0.6814
901	0.6326
910	0.4255
919	0.6694
928	0.6778
937	0.6588
946	0.6393
955	0.5894
964	0.4963
973	0.6166
982	0.6413
991	0.6439
1000	0.6178
1009	0.5592
1018	0.3776
1027	0.4857
1036	0.5452
1045	0.5422
1054	0.6158
1063	0.6076
1072	0.5566
1081	0.6113
1090	0.6447
1099	0.6622
1108	0.6626
1117	0.6629
1126	0.6501
1135	0.6292
1144	0.6257
1153	0.6131
1162	0.6014
1171	0.5719
1180	0.4632
1189	0.608
1198	0.6002
1207	0.5915
1216	0.5782
1225	0.5549
1234	0.5082
1243	0.4118
1252	0.5293
1261	0.4927
1270	0.4481
1279	0.3483
1288	0.3187
1297	0.3898
1306	0.3524
1315	0.3127
1324	0.3013
1333	0.2379
1342	0.1159
1351	0.1545
1360	0.2276
1369	0.1888
1378	0.235
1387	0.4675
1396	0.533
1405	0.4618
1414	0.4751
1423	0.4638
1432	0.319
1441	0.1559
1450	0.1326
1459	0.1401
1468	0.1865
1477	0.442
1486	0.5208
1495	0.5907
1504	0.5331
1513	0.4057
1522	0.2925
1531	0.5508
1540	0.6152
1549	0.5443
1558	0.3427
1567	0.3084
1576	0.6542
1585	0.6872
1594	0.6936
1603	0.6873
1612	0.6541
1621	0.6046
1630	0.4384
1639	0.4626
1648	0.7028
1657	0.7412
1666	0.7503
1675	0.7541
1684	0.7526
1693	0.7448
1702	0.7289
1711	0.7239
1720	0.7278
1729	0.7315
1738	0.7396
1747	0.7448
1756	0.7432
1765	0.7395
1774	0.7293
1783	0.7154
1792	0.6942
1801	0.6945
1810	0.709
1819	0.7365
1828	0.7408
1837	0.754
1846	0.7529
1855	0.7509
1864	0.7485
1873	0.7457
1882	0.743
1891	0.7404
1900	0.7361
1909	0.7318
1918	0.7308
1927	0.73
1936	0.7286
1945	0.7269
1954	0.7252
1963	0.7229
1972	0.7192
1981	0.7153
1990	0.7111
1999	0.7066
2008	0.7021
2017	0.6966
2026	0.6913
2035	0.6859
2044	0.6803
2053	0.675
2062	0.6696
2071	0.6643
2080	0.6591
2089	0.6541
2098	0.6489
2107	0.6433
2116	0.6376
2125	0.6305
2134	0.6223
2143	0.6118
2152	0.5989
2161	0.5944
2170	0.589
2179	0.5794
2188	0.5681
2197	0.5554
2206	0.5363
2215	0.5237
2224	0.5142
2233	0.506
2242	0.4957
2251	0.4851
2260	0.4762
2269	0.466
2278	0.4494
2287	0.4285
2296	0.4063
2305	0.3738
2314	0.3382
2323	0.3157
2332	0.2963
2341	0.2842
2350	0.2769
2359	0.2721
2368	0.2675
2377	0.2598
2386	0.2573
2395	0.2574
2404	0.2581
2413	0.2618
2422	0.2728
2431	0.2921
2440	0.3174
2449	0.3322
2458	0.3493
2467	0.3682
2476	0.3712
2485	0.3652
2494	0.3525
2503	0.342
2512	0.3439
2521	0.3484
2530	0.3532
2539	0.3589
2548	0.3651
2557	0.3824
2566	0.3972
2575	0.41
2584	0.4174
2593	0.4221
2602	0.424
2611	0.4253
2620	0.4259
2629	0.4266
2638	0.4272
2647	0.4284
2656	0.4333
2665	0.4426
2674	0.4471
2683	0.4502
2692	0.4552
2701	0.4623
2710	0.4673
2719	0.4693
2728	0.4686
2737	0.4664
2746	0.4574
2755	0.4356
2764	0.4136
2773	0.3911
2782	0.3724
2791	0.3475
2800	0.3243
2809	0.2607
2818	0.1083
2827	0.0758
2836	0.0727
2845	0.0735
2854	0.0749
2863	0.0746
2872	0.0725
2881	0.0705
2890	0.0704
2899	0.0729
2908	0.0768
2917	0.0821
2926	0.0883
2935	0.096
2944	0.1191
2953	0.1525
2962	0.1722
2971	0.2072
2980	0.3176
2989	0.3839
2998	0.3986
3007	0.4097
3016	0.4146
3025	0.4163
3034	0.416
3043	0.4138
3052	0.409
3061	0.4023
3070	0.4014
3079	0.4091
3088	0.4209
3097	0.4306
3106	0.4486
3115	0.4621
3124	0.469
3133	0.4698
3142	0.4695
3151	0.4687
3160	0.4678
3169	0.4669
3178	0.4659
3187	0.4649
3196	0.4639
3205	0.4631
3214	0.4623
3223	0.4613
3232	0.4602
3241	0.4592
3250	0.4585
3259	0.4579
3268	0.4572
3277	0.4569
3286	0.4567
3295	0.4565
3304	0.4565
3313	0.4565
3322	0.4565
3331	0.4565
3340	0.4568
3349	0.4572
3358	0.4584
3367	0.4602
3376	0.4623
3385	0.4651
3394	0.4679
3403	0.4701
3412	0.4722
3421	0.4737
3430	0.4749
3439	0.4762
3448	0.4773
3457	0.4781
3466	0.4787
3475	0.4792
3484	0.4798
3493	0.4799
3502	0.4797
3511	0.4797
3520	0.4795
3529	0.4792
3538	0.4788
3547	0.4783
3556	0.478
3565	0.4775
3574	0.4769
3583	0.4759
3592	0.475
3601	0.4741
3610	0.4732
3619	0.4721
3628	0.471
3637	0.4699
3646	0.4688
3655	0.4676
3664	0.4662
3673	0.4645
3682	0.4629
3691	0.4613
3700	0.4601
3709	0.4591
3718	0.4581
3727	0.4574
3736	0.4572
3745	0.4569
3754	0.4566
3763	0.4564
3772	0.4561
3781	0.4558
3790	0.4551
3799	0.4522
3808	0.4488
3817	0.4457
3826	0.4431
3835	0.4412
3844	0.44
3853	0.4391
3862	0.4381
3871	0.4371
3880	0.4361
3889	0.4352
3898	0.4343
3907	0.4333
3916	0.4327
3925	0.4322
3934	0.4317
3943	0.4313
3952	0.4307
3961	0.4302
3970	0.4297
3979	0.4292
3988	0.4287
3997	0.4284
