Infrared Spectrum: Oxadiazole, 1,2,4-, 3-(morpholinomethyl)-5-(5-nitrofuran-2-yl)-
Formula: C11 H12 N4 O5
CAS: 36133-75-2
State: SOLUTION (7% CHCl3) VS SOLVENT
Melting point: 110 C
Class: COBLENTZ III
Instrument: PERKIN-ELMER 21 (GRATING)
Instrument parameters: NaCl PRISM; FILTER AT 10 MICRON
Sampling: TRANSMISSION
Path length: 0.01 CM
Resolution: 2
Origin: ABBOTT LABORATORIES - WASHBURN
1/CM	TRANSMITTANCE
779	0.6279
788	0.6292
797	0.6065
806	0.3706
815	0.2184
824	0.6098
833	0.762
842	0.783
851	0.7487
860	0.5101
869	0.4173
878	0.7237
887	0.6927
896	0.6648
905	0.6832
914	0.3984
923	0.7664
932	0.808
941	0.7947
950	0.7702
959	0.7388
968	0.4636
977	0.7232
986	0.7422
995	0.6593
1004	0.3305
1013	0.5671
1022	0.3687
1031	0.6517
1040	0.7254
1049	0.7495
1058	0.7379
1067	0.5693
1076	0.7189
1085	0.7233
1094	0.699
1103	0.5889
1112	0.1214
1121	0.2923
1130	0.466
1139	0.4953
1148	0.5984
1157	0.6544
1166	0.7288
1175	0.7488
1184	0.7636
1193	0.7713
1202	0.622
1211	0.586
1220	0.5677
1229	0.5514
1238	0.5291
1247	0.4415
1256	0.614
1265	0.5404
1274	0.5037
1283	0.3608
1292	0.3912
1301	0.3973
1310	0.3333
1319	0.3093
1328	0.1264
1337	0.1754
1346	0.0775
1355	0.0804
1364	0.4351
1373	0.362
1382	0.2502
1391	0.5747
1400	0.621
1409	0.6582
1418	0.7236
1427	0.6806
1436	0.4854
1445	0.3535
1454	0.3204
1463	0.6018
1472	0.5799
1481	0.591
1490	0.7213
1499	0.694
1508	0.4961
1517	0.271
1526	0.2495
1535	0.2317
1544	0.2804
1553	0.5299
1562	0.4453
1571	0.2375
1580	0.6204
1589	0.751
1598	0.7637
1607	0.754
1616	0.6853
1625	0.4307
1634	0.5299
1643	0.4772
1652	0.7275
1661	0.7631
1670	0.7868
1679	0.8047
1688	0.8154
1697	0.8211
1706	0.8273
1715	0.8297
1724	0.8309
1733	0.8323
1742	0.8402
1751	0.8392
1760	0.8325
1769	0.824
1778	0.8201
1787	0.8283
1796	0.8453
1805	0.8517
1814	0.8507
1823	0.8541
1832	0.856
1841	0.8578
1850	0.8583
1859	0.8582
1868	0.8581
1877	0.8573
1886	0.8565
1895	0.8556
1904	0.8548
1913	0.8551
1922	0.858
1931	0.8603
1940	0.8604
1949	0.8588
1958	0.8574
1967	0.8566
1976	0.8559
1985	0.8561
1994	0.8569
2003	0.8579
2012	0.8585
2021	0.8589
2030	0.8591
2039	0.859
2048	0.8588
2057	0.8585
2066	0.8583
2075	0.8583
2084	0.8585
2093	0.8587
2102	0.8588
2111	0.8586
2120	0.8583
2129	0.8579
2138	0.8577
2147	0.8576
2156	0.8576
2165	0.86
2174	0.8626
2183	0.8637
2192	0.8645
2201	0.865
2210	0.8655
2219	0.8651
2228	0.864
2237	0.8603
2246	0.8578
2255	0.8577
2264	0.8592
2273	0.8621
2282	0.8657
2291	0.8679
2300	0.8688
2309	0.8695
2318	0.87
2327	0.8704
2336	0.8707
2345	0.8708
2354	0.8709
2363	0.8717
2372	0.8744
2381	0.8765
2390	0.8697
2399	0.8617
2408	0.8532
2417	0.8471
2426	0.8411
2435	0.8384
2444	0.8386
2453	0.8392
2462	0.8379
2471	0.8346
2480	0.8358
2489	0.8381
2498	0.8404
2507	0.8426
2516	0.8449
2525	0.8471
2534	0.8492
2543	0.8518
2552	0.853
2561	0.8527
2570	0.8519
2579	0.8505
2588	0.8488
2597	0.8457
2606	0.8425
2615	0.8388
2624	0.8349
2633	0.8309
2642	0.8267
2651	0.8221
2660	0.8145
2669	0.8055
2678	0.7946
2687	0.7883
2696	0.7886
2705	0.7886
2714	0.782
2723	0.7679
2732	0.7564
2741	0.7439
2750	0.7305
2759	0.7152
2768	0.6984
2777	0.6779
2786	0.6545
2795	0.6337
2804	0.5977
2813	0.5278
2822	0.5245
2831	0.5525
2840	0.5821
2849	0.5727
2858	0.5574
2867	0.5663
2876	0.5934
2885	0.6177
2894	0.6132
2903	0.5996
2912	0.5875
2921	0.5793
2930	0.5716
2939	0.5676
2948	0.5637
2957	0.56
2966	0.5569
2975	0.5646
2984	0.5978
2993	0.605
3002	0.6078
3011	0.6439
3020	0.7199
3029	0.7752
3038	0.795
3047	0.8043
3056	0.8112
3065	0.8144
3074	0.8148
3083	0.8123
3092	0.8064
3101	0.8009
3110	0.7935
3119	0.7782
3128	0.7629
3137	0.7477
3146	0.734
3155	0.7295
3164	0.7475
3173	0.8038
3182	0.8174
3191	0.8307
3200	0.8362
3209	0.8387
3218	0.8401
3227	0.8417
3236	0.8433
3245	0.8448
3254	0.8453
3263	0.8454
3272	0.8449
3281	0.8429
3290	0.8404
3299	0.838
3308	0.8368
3317	0.8358
3326	0.8348
3335	0.8336
3344	0.8326
3353	0.8331
3362	0.8341
3371	0.835
3380	0.836
3389	0.8369
3398	0.8378
3407	0.8392
3416	0.8405
3425	0.8418
3434	0.8429
3443	0.8439
3452	0.8442
3461	0.8448
3470	0.8456
3479	0.8463
3488	0.8471
3497	0.8486
3506	0.8509
3515	0.8547
3524	0.8552
3533	0.855
3542	0.8549
3551	0.8548
3560	0.8547
3569	0.8548
3578	0.8548
3587	0.8554
3596	0.8562
3605	0.8571
3614	0.858
3623	0.8596
3632	0.8619
3641	0.8638
3650	0.8651
3659	0.8663
3668	0.8664
3677	0.8662
3686	0.8661
3695	0.8659
3704	0.8656
3713	0.8653
3722	0.8651
3731	0.8648
3740	0.8645
3749	0.8642
3758	0.8639
3767	0.8636
3776	0.8632
3785	0.8629
3794	0.8625
3803	0.8622
3812	0.8617
3821	0.8612
3830	0.8607
3839	0.8602
3848	0.8597
3857	0.8593
3866	0.8589
3875	0.8586
3884	0.8583
3893	0.858
3902	0.8576
3911	0.8572
3920	0.8567
3929	0.8562
3938	0.8556
3947	0.8552
3956	0.8549
3965	0.8546
3974	0.8543
3983	0.8539
3992	0.8536
