Infrared Spectrum: Imidazole-4-carboxylic acid, 5-(3-cyclohexyl-3-methyl-1-triazeno)-, 2-(diethylamino)ethyl ester
Formula: C17 H30 N6 O2
CAS: 36142-60-6
State: SOLID (1 mg / 650 mg KBr DISC)
Class: COBLENTZ III
Instrument: PERKIN-ELMER 521 (GRATING)
Instrument parameters: FILTERS AT 3130, 2475, 2000, 620. GRATING CHANGES: 2000, 630 CM^-^1
Sampling: TRANSMISSION
Resolution: 2
Origin: SOUTHERN RESEARCH INSTITUTE
1/CM	TRANSMITTANCE
250	0.4501
260.046	0.504
270.091	0.5424
280.137	0.5921
290.182	0.6493
300.228	0.6996
310.273	0.7171
320.319	0.7296
330.365	0.7385
340.41	0.7487
350.456	0.7636
360.501	0.7803
370.547	0.7866
380.592	0.7909
390.638	0.7947
400.684	0.7829
410.729	0.7828
420.775	0.7849
430.82	0.793
440.866	0.7952
450.911	0.7771
460.957	0.7755
471.003	0.8002
481.048	0.8025
491.094	0.803
501.139	0.8035
511.185	0.8048
521.23	0.8061
531.276	0.8062
541.322	0.8064
551.367	0.8069
561.413	0.8089
571.458	0.8195
581.504	0.8234
591.549	0.8174
601.595	0.7973
611.641	0.7776
621.686	0.7253
631.732	0.7267
641.777	0.8005
651.823	0.7086
661.869	0.8375
671.914	0.8523
681.96	0.8511
692.005	0.8488
702.051	0.8461
712.096	0.8378
722.142	0.8269
732.188	0.8285
742.233	0.8399
752.279	0.8381
762.324	0.8227
772.37	0.6974
782.415	0.6979
792.461	0.8126
802.507	0.8045
812.552	0.8089
822.598	0.8006
832.643	0.7866
842.689	0.7588
852.734	0.7662
862.78	0.7627
872.826	0.7782
882.871	0.7766
892.917	0.7721
902.962	0.7444
913.008	0.75
923.053	0.7379
933.099	0.7131
943.145	0.6775
953.19	0.7354
963.236	0.7767
973.281	0.7722
983.327	0.7339
993.372	0.7309
1003.42	0.6899
1013.46	0.6248
1023.51	0.6708
1033.55	0.6392
1043.6	0.4228
1053.65	0.4904
1063.69	0.5773
1073.74	0.5164
1083.78	0.5439
1093.83	0.646
1103.87	0.7185
1113.92	0.7103
1123.96	0.6611
1134.01	0.5678
1144.06	0.4579
1154.1	0.4348
1164.15	0.5079
1174.19	0.4806
1184.24	0.6524
1194.28	0.6428
1204.33	0.6297
1214.38	0.601
1224.42	0.6416
1234.47	0.615
1244.51	0.5486
1254.56	0.4623
1264.6	0.5106
1274.65	0.5654
1284.69	0.5674
1294.74	0.5397
1304.79	0.468
1314.83	0.5687
1324.88	0.5178
1334.92	0.3416
1344.97	0.4087
1355.01	0.2829
1365.06	0.3928
1375.1	0.5372
1385.15	0.5287
1395.2	0.5119
1405.24	0.5921
1415.29	0.477
1425.33	0.3677
1435.38	0.4493
1445.42	0.4774
1455.47	0.4981
1465.51	0.5147
1475.56	0.6203
1485.61	0.7011
1495.65	0.6341
1505.7	0.5961
1515.74	0.7537
1525.79	0.7785
1535.83	0.7176
1545.88	0.5945
1555.92	0.7065
1565.97	0.791
1576.02	0.8168
1586.06	0.8228
1596.11	0.8187
1606.15	0.8078
1616.2	0.7923
1626.24	0.7738
1636.29	0.748
1646.33	0.7118
1656.38	0.6604
1666.43	0.5606
1676.47	0.287
1686.52	0.1776
1696.56	0.364
1706.61	0.5976
1716.65	0.6931
1726.7	0.7595
1736.74	0.7933
1746.79	0.8094
1756.84	0.8156
1766.88	0.8199
1776.93	0.8225
1786.97	0.823
1797.02	0.8235
1807.06	0.8238
1817.11	0.823
1827.16	0.8221
1837.2	0.8208
1847.25	0.8188
1857.29	0.8163
1867.34	0.8148
1877.38	0.8176
1887.43	0.8205
1897.47	0.8231
1907.52	0.8268
1917.57	0.8309
1927.61	0.8353
1937.66	0.8387
1947.7	0.8416
1957.75	0.8444
1967.79	0.8474
1977.84	0.8503
1987.88	0.8526
1997.93	0.8545
2007.98	0.856
2018.02	0.8574
2028.07	0.8584
2038.11	0.8594
2048.16	0.8601
2058.2	0.8601
2068.25	0.8601
2078.29	0.8601
2088.34	0.8597
2098.39	0.8593
2108.43	0.8589
2118.48	0.8584
2128.52	0.8575
2138.57	0.8566
2148.61	0.8557
2158.66	0.8547
2168.7	0.8535
2178.75	0.8523
2188.8	0.8511
2198.84	0.8495
2208.89	0.8471
2218.93	0.8447
2228.98	0.8423
2239.02	0.8399
2249.07	0.8375
2259.11	0.8351
2269.16	0.8327
2279.21	0.8307
2289.25	0.8287
2299.3	0.8231
2309.34	0.8165
2319.39	0.8114
2329.43	0.8062
2339.48	0.8011
2349.52	0.7959
2359.57	0.7903
2369.62	0.7848
2379.66	0.7788
2389.71	0.772
2399.75	0.7667
2409.8	0.7647
2419.84	0.7654
2429.89	0.7614
2439.93	0.7556
2449.98	0.7488
2460.03	0.7413
2470.07	0.7343
2480.12	0.7272
2490.16	0.7195
2500.21	0.7123
2510.25	0.7058
2520.3	0.6975
2530.35	0.6888
2540.39	0.6809
2550.44	0.6774
2560.48	0.6758
2570.53	0.6707
2580.57	0.6631
2590.62	0.6531
2600.66	0.6423
2610.71	0.636
2620.76	0.6318
2630.8	0.6281
2640.85	0.6245
2650.89	0.6245
2660.94	0.6316
2670.98	0.644
2681.03	0.6539
2691.07	0.6495
2701.12	0.6394
2711.17	0.6286
2721.21	0.6171
2731.26	0.6114
2741.3	0.6112
2751.35	0.6083
2761.39	0.5963
2771.44	0.5796
2781.48	0.5622
2791.53	0.5458
2801.58	0.5318
2811.62	0.5295
2821.67	0.5298
2831.71	0.5274
2841.76	0.4863
2851.8	0.461
2861.85	0.4923
2871.89	0.5201
2881.94	0.5253
2891.99	0.512
2902.03	0.4852
2912.08	0.4531
2922.12	0.4117
2932.17	0.3663
2942.21	0.4356
2952.26	0.4555
2962.3	0.4207
2972.35	0.4338
2982.4	0.5345
2992.44	0.6037
3002.49	0.649
3012.53	0.665
3022.58	0.6642
3032.62	0.667
3042.67	0.6818
3052.71	0.6967
3062.76	0.7094
3072.81	0.7189
3082.85	0.7234
3092.9	0.7298
3102.94	0.734
3112.99	0.7416
3123.03	0.745
3133.08	0.748
3143.13	0.7611
3153.17	0.7671
3163.22	0.7722
3173.26	0.7764
3183.31	0.7806
3193.35	0.784
3203.4	0.7863
3213.44	0.7878
3223.49	0.7893
3233.54	0.79
3243.58	0.7894
3253.63	0.7902
3263.67	0.792
3273.72	0.7938
3283.76	0.7941
3293.81	0.7927
3303.85	0.7902
3313.9	0.7875
3323.95	0.7849
3333.99	0.7815
3344.04	0.7764
3354.08	0.7701
3364.13	0.7636
3374.17	0.7574
3384.22	0.7511
3394.26	0.7471
3404.31	0.7432
3414.36	0.7418
3424.4	0.7409
3434.45	0.7415
3444.49	0.7424
3454.54	0.7435
3464.58	0.7447
3474.63	0.7478
3484.67	0.752
3494.72	0.7572
3504.77	0.7625
3514.81	0.7677
3524.86	0.774
3534.9	0.7803
3544.95	0.7874
3554.99	0.7955
3565.04	0.8034
3575.08	0.8107
3585.13	0.818
3595.18	0.8256
3605.22	0.8332
3615.27	0.8402
3625.31	0.8468
3635.36	0.8526
3645.4	0.8564
3655.45	0.8586
3665.49	0.8607
3675.54	0.861
3685.59	0.8604
3695.63	0.8607
3705.68	0.8612
3715.72	0.8619
3725.77	0.8627
3735.81	0.8636
3745.86	0.8642
3755.91	0.8647
3765.95	0.8653
3776	0.8661
3786.04	0.8671
3796.09	0.868
3806.13	0.8681
3816.18	0.8679
3826.22	0.8675
3836.27	0.8669
3846.32	0.8663
3856.36	0.8655
3866.41	0.8643
3876.45	0.8632
3886.5	0.8628
3896.54	0.8628
3906.59	0.8629
3916.63	0.8629
3926.68	0.8628
3936.73	0.8626
3946.77	0.8625
3956.82	0.8622
3966.86	0.8619
3976.91	0.862
3986.95	0.8623
3997	0.862
4007.04	0.8618
4017.09	0.8615
