Infrared Spectrum: BENZIMIDAZOLE, 4,5-DICHLORO-2-(TRIFLUOROMETHYL)-
Formula: C8 H3 Cl2 F3 N2
CAS: 3615-21-2
State: SOLID (KBr DISC)
Class: COBLENTZ III
Instrument: UNICAM SP-200
Sampling: TRANSMISSION
Resolution: 2
Origin: FISONS LTD., VIA S.D.C. (DR. G. T. NEWBOLD)
1/CM	TRANSMITTANCE
655.51	0.806
667.077	0.874
678.645	0.876
690.212	0.87
701.78	0.859
713.347	0.836
724.914	0.835
736.482	0.741
748.049	0.86
759.617	0.6682
771.184	0.588
782.752	0.848
794.319	0.838
805.886	0.7691
817.454	0.31
829.021	0.749
840.589	0.737
852.156	0.74
863.723	0.765
875.291	0.798
886.858	0.812
898.426	0.824
909.993	0.821
921.56	0.6241
933.128	0.699
944.695	0.785
956.263	0.789
967.83	0.675
979.398	0.2911
990.965	0.7371
1002.53	0.527
1014.1	0.835
1025.67	0.825
1037.23	0.813
1048.8	0.807
1060.37	0.79
1071.94	0.776
1083.5	0.745
1095.07	0.707
1106.64	0.643
1118.21	0.555
1129.77	0.434
1141.34	0.2141
1152.91	0.0919
1164.48	0.098
1176.04	0.0749
1187.61	0.289
1199.18	0.126
1210.75	0.5
1222.31	0.5531
1233.88	0.452
1245.45	0.722
1257.02	0.7141
1268.58	0.3801
1280.15	0.508
1291.72	0.791
1303.29	0.724
1314.85	0.483
1326.42	0.607
1337.99	0.837
1349.55	0.828
1361.12	0.81
1372.69	0.666
1384.26	0.3612
1395.82	0.611
1407.39	0.707
1418.96	0.745
1430.53	0.726
1442.09	0.624
1453.66	0.3551
1465.23	0.529
1476.8	0.718
1488.36	0.779
1499.93	0.838
1511.5	0.851
1523.07	0.851
1534.63	0.7761
1546.2	0.56
1557.77	0.6459
1569.34	0.726
1580.9	0.77
1592.47	0.813
1604.04	0.825
1615.61	0.817
1627.17	0.832
1638.74	0.828
1650.31	0.828
1661.87	0.834
1673.44	0.836
1685.01	0.839
1696.58	0.847
1708.14	0.852
1719.71	0.838
1731.28	0.846
1742.85	0.865
1754.41	0.863
1765.98	0.87
1777.55	0.87
1789.12	0.871
1800.68	0.869
1812.25	0.871
1823.82	0.877
1835.39	0.878
1846.95	0.871
1858.52	0.85
1870.09	0.877
1881.66	0.883
1893.22	0.879
1904.79	0.879
1916.36	0.882
1927.93	0.88
1939.49	0.88
1951.06	0.888
1962.63	0.888
1974.2	0.882
1985.76	0.882
1997.33	0.876
2008.9	0.876
2020.46	0.876
2032.03	0.8771
2043.6	0.878
2055.17	0.8764
2066.73	0.876
2078.3	0.875
2089.87	0.876
2101.44	0.877
2113	0.876
2124.57	0.8748
2136.14	0.874
2147.71	0.8723
2159.27	0.87
2170.84	0.867
2182.41	0.866
2193.98	0.865
2205.54	0.869
2217.11	0.869
2228.68	0.8657
2240.25	0.8601
2251.81	0.854
2263.38	0.854
2274.95	0.8533
2286.52	0.852
2298.08	0.85
2309.65	0.849
2321.22	0.847
2332.78	0.847
2344.35	0.847
2355.92	0.847
2367.49	0.8421
2379.05	0.8326
2390.62	0.8224
2402.19	0.8126
2413.76	0.808
2425.32	0.7933
2436.89	0.783
2448.46	0.779
2460.03	0.779
2471.59	0.7684
2483.16	0.7464
2494.73	0.7442
2506.3	0.7278
2517.86	0.7016
2529.43	0.701
2541	0.701
2552.57	0.7008
2564.13	0.694
2575.7	0.6804
2587.27	0.6491
2598.84	0.615
2610.4	0.576
2621.97	0.5618
2633.54	0.5875
2645.11	0.5967
2656.67	0.5771
2668.24	0.5526
2679.81	0.5348
2691.37	0.5068
2702.94	0.476
2714.51	0.456
2726.08	0.4736
2737.64	0.51
2749.21	0.5029
2760.78	0.4959
2772.35	0.4847
2783.91	0.4767
2795.48	0.4599
2807.05	0.4432
2818.62	0.436
2830.18	0.437
2841.75	0.4351
2853.32	0.409
2864.89	0.3996
2876.45	0.4069
2888.02	0.431
2899.59	0.4447
2911.16	0.451
2922.72	0.4474
2934.29	0.4397
2945.86	0.434
2957.43	0.4346
2968.99	0.4378
2980.56	0.439
2992.13	0.439
3003.69	0.4363
3015.26	0.436
3026.83	0.4545
3038.4	0.4886
3049.96	0.5034
3061.53	0.5101
3073.1	0.5139
3084.67	0.5407
3096.23	0.5757
3107.8	0.6007
3119.37	0.6162
3130.94	0.6351
3142.5	0.6595
3154.07	0.6753
3165.64	0.6934
3177.21	0.707
3188.77	0.714
3200.34	0.7312
3211.91	0.7402
3223.48	0.7485
3235.04	0.7552
3246.61	0.7604
3258.18	0.7646
3269.75	0.7679
3281.31	0.77
3292.88	0.772
3304.45	0.772
3316.01	0.773
3327.58	0.7753
3339.15	0.777
3350.72	0.776
3362.28	0.7749
3373.85	0.774
3385.42	0.7734
3396.99	0.773
3408.55	0.774
3420.12	0.775
3431.69	0.776
3443.26	0.776
3454.82	0.777
3466.39	0.7785
3477.96	0.779
3489.53	0.781
3501.09	0.7833
3512.66	0.7866
3524.23	0.7888
3535.8	0.7911
3547.36	0.7944
3558.93	0.7977
3570.5	0.7999
3582.07	0.802
3593.63	0.8035
3605.2	0.805
3616.77	0.806
3628.34	0.807
3639.9	0.808
3651.47	0.809
3663.04	0.809
3674.6	0.808
3686.17	0.808
3697.74	0.809
3709.31	0.809
3720.87	0.809
3732.44	0.809
3744.01	0.805
3755.58	0.804
3767.14	0.804
3778.71	0.804
3790.28	0.802
3801.85	0.802
3813.41	0.802
3824.98	0.8001
3836.55	0.7999
3848.12	0.7986
3859.68	0.7943
3871.25	0.7911
3882.82	0.7896
3894.39	0.788
3905.95	0.788
3917.52	0.788
3929.09	0.7903
3940.66	0.7894
3952.22	0.7872
3963.79	0.7849
3975.36	0.783
3986.92	0.781
3998.49	0.781
4010.06	0.781
4021.63	0.781
4033.19	0.78
4044.76	0.779
4056.33	0.777
4067.9	0.775
4079.46	0.7732
4091.03	0.772
4102.6	0.772
4114.17	0.771
4125.73	0.77
4137.3	0.77
4148.87	0.772
4160.44	0.773
4172	0.774
4183.57	0.773
4195.14	0.771
4206.71	0.767
4218.27	0.767
4229.84	0.769
4241.41	0.769
4252.98	0.768
4264.54	0.7649
4276.11	0.7613
4287.68	0.757
4299.25	0.7579
4310.81	0.759
4322.38	0.757
4333.95	0.7535
4345.51	0.753
4357.08	0.753
4368.65	0.754
4380.22	0.755
4391.78	0.754
4403.35	0.753
4414.92	0.753
4426.49	0.752
4438.05	0.7508
4449.62	0.75
4461.19	0.75
4472.76	0.75
4484.32	0.751
4495.89	0.751
4507.46	0.751
4519.03	0.75
4530.59	0.75
4542.16	0.7484
4553.73	0.746
4565.3	0.746
4576.86	0.746
4588.43	0.747
4600	0.7451
4611.57	0.742
4623.13	0.7401
4634.7	0.738
4646.27	0.737
4657.83	0.735
4669.4	0.734
4680.97	0.7312
4692.54	0.73
4704.1	0.7314
4715.67	0.734
4727.24	0.733
4738.81	0.7295
4750.37	0.726
4761.94	0.727
4773.51	0.73
4785.08	0.728
4796.64	0.728
4808.21	0.727
4819.78	0.727
4831.35	0.726
4842.91	0.725
4854.48	0.725
4866.05	0.725
4877.62	0.725
4889.18	0.725
4900.75	0.725
4912.32	0.7238
4923.89	0.723
4935.45	0.7205
4947.02	0.72
4958.59	0.72
4970.15	0.72
4981.72	0.718
