Infrared Spectrum: 3-Acetyl-2,5-dichlorothiophene
Formula: C6 H4 Cl2 O S
CAS: 36157-40-1
State: gas
Origin: EPA-IR VAPOR PHASE LIBRARY
1/CM	ABSORBANCE
549.8	0.041516
559.445	0.083796
569.09	0.056856
578.734	0.034716
588.379	0.028386
598.024	0.011396
607.669	0.010496
617.313	0.018616
626.958	0.025976
636.603	0.030946
646.248	0.024386
655.893	0.014286
665.537	0.009766
675.182	0.007456
684.827	0.006516
694.472	0.004526
704.116	0.002406
713.761	0.001336
723.406	0.001336
733.051	0.001706
742.695	0.002906
752.34	0.003796
761.985	0.004796
771.63	0.006916
781.275	0.005436
790.919	0.003506
800.564	0.004976
810.209	0.012946
819.854	0.031816
829.498	0.034746
839.143	0.050636
848.788	0.064596
858.433	0.048856
868.078	0.026616
877.722	0.008646
887.367	0.005086
897.012	0.003666
906.657	0.002866
916.301	0.003536
925.946	0.004636
935.591	0.006176
945.236	0.008716
954.88	0.019266
964.525	0.029376
974.17	0.030976
983.815	0.029976
993.46	0.037576
1003.1	0.051046
1012.75	0.061136
1022.39	0.099786
1032.04	0.220386
1041.68	0.216456
1051.33	0.076756
1060.97	0.020836
1070.62	0.012536
1080.26	0.011476
1089.91	0.011086
1099.55	0.010886
1109.2	0.014606
1118.84	0.018486
1128.49	0.026086
1138.13	0.033406
1147.78	0.030356
1157.42	0.021366
1167.07	0.023116
1176.71	0.033306
1186.36	0.053116
1196	0.113236
1205.64	0.349486
1215.29	0.421456
1224.93	0.107566
1234.58	0.024006
1244.22	0.013906
1253.87	0.009716
1263.51	0.007776
1273.16	0.006936
1282.8	0.006446
1292.45	0.007666
1302.09	0.010506
1311.74	0.016116
1321.38	0.033736
1331.03	0.084846
1340.67	0.110586
1350.32	0.070906
1359.96	0.112166
1369.61	0.195166
1379.25	0.128176
1388.9	0.042906
1398.54	0.046996
1408.18	0.084706
1417.83	0.188946
1427.47	0.320456
1437.12	0.273516
1446.76	0.099126
1456.41	0.037886
1466.05	0.023296
1475.7	0.016986
1485.34	0.014086
1494.99	0.015276
1504.63	0.023796
1514.28	0.049886
1523.92	0.075566
1533.57	0.053826
1543.21	0.025646
1552.86	0.018316
1562.5	0.013366
1572.15	0.010536
1581.79	0.009296
1591.44	0.009586
1601.08	0.009236
1610.73	0.008636
1620.37	0.009356
1630.01	0.013316
1639.66	0.018066
1649.3	0.022426
1658.95	0.033366
1668.59	0.054426
1678.24	0.086346
1687.88	0.206246
1697.53	0.361656
1707.17	0.342026
1716.82	0.186406
1726.46	0.083336
1736.11	0.055876
1745.75	0.040226
1755.4	0.021966
1765.04	0.013916
1774.69	0.011286
1784.33	0.007956
1793.98	0.005906
1803.62	0.004846
1813.27	0.004106
1822.91	0.004026
1832.55	0.003446
1842.2	0.003576
1851.84	0.003966
1861.49	0.002986
1871.13	0.002316
1880.78	0.002166
1890.42	0.002036
1900.07	0.002056
1909.71	0.001896
1919.36	0.001846
1929	0.001896
1938.65	0.001666
1948.29	0.001526
1957.94	0.001566
1967.58	0.001876
1977.23	0.001956
1986.87	0.001916
1996.52	0.002266
2006.16	0.002406
2015.81	0.002226
2025.45	0.001696
2035.1	0.001696
2044.74	0.001646
2054.38	0.001766
2064.03	0.001626
2073.67	0.001636
2083.32	0.0012064
2092.96	0.000934
2102.61	0.0009774
2112.25	0.0008213
2121.9	0.0009342
2131.54	0.000914
2141.19	0.0010898
2150.83	0.0011356
2160.48	0.001376
2170.12	0.0011977
2179.77	0.0010861
2189.41	0.001286
2199.06	0.001456
2208.7	0.001646
2218.35	0.001546
2227.99	0.001586
2237.64	0.001356
2247.28	0.0011059
2256.92	0.0008841
2266.57	0.0008344
2276.21	0.000798
2285.86	0.0007793
2295.5	0.0008275
2305.15	0.0009921
2314.79	0.0012106
2324.44	0.001416
2334.08	0.001336
2343.73	0.001296
2353.37	0.001446
2363.02	0.001456
2372.66	0.001336
2382.31	0.001436
2391.95	0.001436
2401.6	0.001486
2411.24	0.001446
2420.89	0.001516
2430.53	0.0012036
2440.18	0.000966
2449.82	0.0009427
2459.47	0.0008638
2469.11	0.0008082
2478.75	0.0010025
2488.4	0.0011167
2498.04	0.0008501
2507.69	0.0010775
2517.33	0.0010096
2526.98	0.0011272
2536.62	0.0011612
2546.27	0.001506
2555.91	0.001476
2565.56	0.001476
2575.2	0.0011464
2584.85	0.0010858
2594.49	0.0007238
2604.14	0.0005201
2613.78	0.0007282
2623.43	0.0009271
2633.07	0.001316
2642.72	0.001576
2652.36	0.001616
2662.01	0.001306
2671.65	0.0012184
2681.29	0.0011259
2690.94	0.000901
2700.58	0.0008105
2710.23	0.0007191
2719.87	0.0008695
2729.52	0.0008511
2739.16	0.0008668
2748.81	0.0008524
2758.45	0.0010213
2768.1	0.001366
2777.74	0.001536
2787.39	0.001286
2797.03	0.001336
2806.68	0.001566
2816.32	0.001726
2825.97	0.002116
2835.61	0.002936
2845.26	0.003976
2854.9	0.004096
2864.55	0.003666
2874.19	0.002666
2883.84	0.002376
2893.48	0.002476
2903.12	0.002686
2912.77	0.002966
2922.41	0.003766
2932.06	0.005326
2941.7	0.005576
2951.35	0.005056
2960.99	0.005676
2970.64	0.007256
2980.28	0.008986
2989.93	0.008996
2999.57	0.010266
3009.22	0.015506
3018.86	0.015676
3028.51	0.009156
3038.15	0.005396
3047.8	0.003856
3057.44	0.003446
3067.09	0.003556
3076.73	0.003936
3086.38	0.004136
3096.02	0.006296
3105.67	0.012666
3115.31	0.012976
3124.95	0.004686
3134.6	0.002226
3144.24	0.001536
3153.89	0.001616
3163.53	0.001256
3173.18	0.0011361
3182.82	0.0009556
3192.47	0.0009503
3202.11	0.0007245
3211.76	0.0007205
3221.4	0.0006763
3231.05	0.0006913
3240.69	0.0007931
3250.34	0.000578
3259.98	0.000632
3269.63	0.0006808
3279.27	0.000748
3288.92	0.0008175
3298.56	0.0005895
3308.21	0.0007498
3317.85	0.0008742
3327.49	0.0010992
3337.14	0.0012171
3346.78	0.002116
3356.43	0.003046
3366.07	0.005056
3375.72	0.006646
3385.36	0.005776
3395.01	0.004856
3404.65	0.003876
3414.3	0.002846
3423.94	0.002186
3433.59	0.001386
3443.23	0.001286
3452.88	0.0010145
3462.52	0.0008713
3472.17	0.0007949
3481.81	0.0007788
3491.46	0.0006299
3501.1	0.0003617
3510.75	0.0005744
3520.39	0.0002704
3530.04	0.0003768
3539.68	0.000541
3549.32	0.0005479
3558.97	0.0005213
3568.61	0.0004022
3578.26	0.0006734
3587.9	0.000619
3597.55	0.000149
3607.19	0.0004386
3616.84	0.00028469
3626.48	0.0001975
3636.13	0.0003119
3645.77	0.0003874
3655.42	0.00035402
3665.06	0.0003107
3674.71	0.0002286
3684.35	0.00029503
3694	0.0004523
3703.64	0.0003629
3713.29	0.0003596
3722.93	0.00031782
3732.58	0.00033378
3742.22	0.0002174
3751.86	0.0003765
3761.51	0.00034537
3771.15	0.00035078
3780.8	0.0004847
3790.44	0.0005226
3800.09	0.0007882
3809.73	0.0005751
3819.38	0.0008432
3829.02	0.0006218
3838.67	0.0004564
3848.31	0.0004761
3857.96	0.0001731
3867.6	0.0004913
3877.25	0.0002304
3886.89	0.0006549
3896.54	0.0008574
3906.18	0.0004802
3915.83	0.0006553
3925.47	0.0005766
3935.12	0.0005529
3944.76	0.0007939
3954.41	0.0008688
3964.05	0.0008123
3973.69	0.0005183
3983.34	0.0006161
3992.98	0.0006834
