Infrared Spectrum: Piperidineacetaldehyde diethyl acetal
Formula: C 11 H 23 N O 2
CAS: 3616-58-8
State: gas
Origin: EPA-IR VAPOR PHASE LIBRARY
1/CM	ABSORBANCE
549.8	0.00233
559.445	0.00204
569.09	0.00244
578.734	0.00375
588.379	0.00485
598.024	0.00322
607.669	0.00237
617.313	0.00154
626.958	0.00108
636.603	0.0008238
646.248	0.0004653
655.893	0.0006131
665.537	0.0004568
675.182	0.0002623
684.827	0.0005595
694.472	0.0008346
704.116	0.0007502
713.761	0.0007495
723.406	0.0008678
733.051	0.00102
742.695	0.00138
752.34	0.00224
761.985	0.00412
771.63	0.00757
781.275	0.01095
790.919	0.00827
800.564	0.00638
810.209	0.00718
819.854	0.00771
829.498	0.00875
839.143	0.00979
848.788	0.01206
858.433	0.01712
868.078	0.01175
877.722	0.00791
887.367	0.0088
897.012	0.01033
906.657	0.01151
916.301	0.01254
925.946	0.01405
935.591	0.01509
945.236	0.01389
954.88	0.013
964.525	0.01551
974.17	0.01879
983.815	0.03034
993.46	0.05025
1003.1	0.05205
1012.75	0.05607
1022.39	0.06863
1032.04	0.09153
1041.68	0.11559
1051.33	0.15647
1060.97	0.1944
1070.62	0.19002
1080.26	0.15659
1089.91	0.12864
1099.55	0.12508
1109.2	0.1366
1118.84	0.15769
1128.49	0.1602
1138.13	0.15235
1147.78	0.11485
1157.42	0.08981
1167.07	0.0711
1176.71	0.05069
1186.36	0.03401
1196	0.02427
1205.64	0.01943
1215.29	0.01638
1224.93	0.01295
1234.58	0.01145
1244.22	0.01195
1253.87	0.0164
1263.51	0.01851
1273.16	0.02175
1282.8	0.02737
1292.45	0.03583
1302.09	0.04783
1311.74	0.04657
1321.38	0.03889
1331.03	0.03194
1340.67	0.03271
1350.32	0.03193
1359.96	0.02531
1369.61	0.03391
1379.25	0.04622
1388.9	0.04287
1398.54	0.02812
1408.18	0.01789
1417.83	0.015
1427.47	0.016
1437.12	0.02323
1446.76	0.03211
1456.41	0.03256
1466.05	0.02317
1475.7	0.01453
1485.34	0.00969
1494.99	0.00626
1504.63	0.00434
1514.28	0.00328
1523.92	0.0028
1533.57	0.00241
1543.21	0.00199
1552.86	0.00179
1562.5	0.00166
1572.15	0.00141
1581.79	0.00144
1591.44	0.00149
1601.08	0.00148
1610.73	0.00143
1620.37	0.00139
1630.01	0.00143
1639.66	0.00132
1649.3	0.00139
1658.95	0.00141
1668.59	0.00143
1678.24	0.00134
1687.88	0.00123
1697.53	0.00114
1707.17	0.00108
1716.82	0.00112
1726.46	0.00113
1736.11	0.00109
1745.75	0.00117
1755.4	0.00112
1765.04	0.00116
1774.69	0.00102
1784.33	0.00103
1793.98	0.000931
1803.62	0.0009869
1813.27	0.00109
1822.91	0.00116
1832.55	0.00118
1842.2	0.00127
1851.84	0.00137
1861.49	0.00142
1871.13	0.00167
1880.78	0.00189
1890.42	0.00225
1900.07	0.00249
1909.71	0.00243
1919.36	0.00247
1929	0.00257
1938.65	0.00265
1948.29	0.00268
1957.94	0.00269
1967.58	0.00262
1977.23	0.00247
1986.87	0.00215
1996.52	0.00187
2006.16	0.00165
2015.81	0.00156
2025.45	0.00147
2035.1	0.00134
2044.74	0.00126
2054.38	0.00118
2064.03	0.00125
2073.67	0.00146
2083.32	0.00147
2092.96	0.00144
2102.61	0.00132
2112.25	0.00134
2121.9	0.00145
2131.54	0.00153
2141.19	0.00165
2150.83	0.00184
2160.48	0.00194
2170.12	0.00185
2179.77	0.00184
2189.41	0.00169
2199.06	0.00166
2208.7	0.00161
2218.35	0.00157
2227.99	0.00175
2237.64	0.0017
2247.28	0.00155
2256.92	0.00151
2266.57	0.00147
2276.21	0.00152
2285.86	0.0015
2295.5	0.00141
2305.15	0.00135
2314.79	0.00129
2324.44	0.0012
2334.08	0.00104
2343.73	0.00111
2353.37	0.00111
2363.02	0.00107
2372.66	0.00115
2382.31	0.0012
2391.95	0.00138
2401.6	0.00136
2411.24	0.00162
2420.89	0.00177
2430.53	0.00154
2440.18	0.00156
2449.82	0.00139
2459.47	0.00127
2469.11	0.0014
2478.75	0.00147
2488.4	0.00158
2498.04	0.00166
2507.69	0.0017
2517.33	0.00186
2526.98	0.00163
2536.62	0.00167
2546.27	0.0017
2555.91	0.00204
2565.56	0.00248
2575.2	0.00308
2584.85	0.00394
2594.49	0.00487
2604.14	0.0057
2613.78	0.00639
2623.43	0.0069
2633.07	0.00787
2642.72	0.00923
2652.36	0.01059
2662.01	0.01206
2671.65	0.01434
2681.29	0.01587
2690.94	0.01728
2700.58	0.0197
2710.23	0.022
2719.87	0.02423
2729.52	0.02849
2739.16	0.03544
2748.81	0.04273
2758.45	0.0476
2768.1	0.05288
2777.74	0.06287
2787.39	0.07159
2797.03	0.06373
2806.68	0.05102
2816.32	0.04577
2825.97	0.0464
2835.61	0.04923
2845.26	0.0553
2854.9	0.07557
2864.55	0.1033
2874.19	0.09869
2883.84	0.09279
2893.48	0.08939
2903.12	0.09453
2912.77	0.11771
2922.41	0.15763
2932.06	0.23857
2941.7	0.34227
2951.35	0.19658
2960.99	0.10252
2970.64	0.09289
2980.28	0.11431
2989.93	0.08211
2999.57	0.03788
3009.22	0.02342
3018.86	0.0166
3028.51	0.01187
3038.15	0.00894
3047.8	0.00688
3057.44	0.00553
3067.09	0.00452
3076.73	0.00385
3086.38	0.00344
3096.02	0.00299
3105.67	0.00279
3115.31	0.00264
3124.95	0.00227
3134.6	0.00231
3144.24	0.00236
3153.89	0.00224
3163.53	0.00227
3173.18	0.00197
3182.82	0.00224
3192.47	0.00197
3202.11	0.00172
3211.76	0.00166
3221.4	0.0013
3231.05	0.00129
3240.69	0.0009152
3250.34	0.0008974
3259.98	0.0007731
3269.63	0.0006228
3279.27	0.000575
3288.92	0.0004445
3298.56	0.0004044
3308.21	0.0004712
3317.85	0.0005506
3327.49	0.0005109
3337.14	0.0004662
3346.78	0.0006302
3356.43	0.0004735
3366.07	0.0003958
3375.72	0.0005241
3385.36	0.0006955
3395.01	0.0005245
3404.65	0.0006864
3414.3	0.0003172
3423.94	0.0004119
3433.59	0.0005365
3443.23	0.0003748
3452.88	0.0002813
3462.52	0.0002719
3472.17	0.0003803
3481.81	0.0003598
3491.46	0.0004521
3501.1	0.0001799
3510.75	0.0004153
3520.39	7.428e-05
3530.04	0.0005514
3539.68	0.0003793
3549.32	0.0002323
3558.97	0.0003228
3568.61	0.0002961
3578.26	0.0002286
3587.9	0.0004229
3597.55	0.0003786
3607.19	0.0001283
3616.84	0.0003538
3626.48	0.0003344
3636.13	0.0002013
3645.77	0.0005575
3655.42	0.000433
3665.06	0.0004578
3674.71	0.0005896
3684.35	0.0004073
3694	0.0005055
3703.64	0.0007511
3713.29	0.0006511
3722.93	0.0006726
3732.58	0.0008164
3742.22	0.0007233
3751.86	0.0007628
3761.51	0.0007094
3771.15	0.0005918
3780.8	0.0008259
3790.44	0.0005315
3800.09	0.0008619
3809.73	0.0006585
3819.38	0.000726
3829.02	0.0008965
3838.67	0.0007483
3848.31	0.0006231
3857.96	0.0006968
3867.6	0.0006226
3877.25	0.0008478
3886.89	0.00104
3896.54	0.0008464
3906.18	0.000867
3915.83	0.0012
3925.47	0.00107
3935.12	0.00117
3944.76	0.00157
3954.41	0.00131
3964.05	0.00124
3973.69	0.0016
3983.34	0.00147
3992.98	0.0018
