Infrared Spectrum: Aniline, 4-bromo-N-tert-butyl-
Formula: C10 H14 Br N
CAS: 36171-07-0
State: LIQUID (NEAT)
Class: COBLENTZ III
Instrument: BECKMAN IR-4 (HYBRID PRISM-GRATING)
Instrument parameters: NaCl PRISM
Sampling: TRANSMISSION
Path length: CAPILLARY
Resolution: 2
Origin: MONSANTO (J. FREEMAN)
1/CM	TRANSMITTANCE
625.431	0.7494
634.267	0.781
643.103	0.8009
651.94	0.8341
660.776	0.8166
669.612	0.8552
678.448	0.9337
687.284	0.9285
696.12	0.8897
704.957	0.8837
713.793	0.931
722.629	0.9436
731.465	0.9604
740.301	0.963
749.137	0.9519
757.974	0.9127
766.81	0.8589
775.646	0.8459
784.482	0.8333
793.318	0.794
802.154	0.6239
810.991	0.171
819.827	0.424
828.663	0.7201
837.499	0.841
846.335	0.9103
855.171	0.9411
864.008	0.9465
872.844	0.9518
881.68	0.9591
890.516	0.9725
899.352	0.9732
908.188	0.9603
917.025	0.9342
925.861	0.9291
934.697	0.9483
943.533	0.9332
952.369	0.9134
961.205	0.8796
970.042	0.9395
978.878	0.9726
987.714	0.9638
996.55	0.8073
1005.39	0.8068
1014.22	0.9461
1023.06	0.9148
1031.89	0.9156
1040.73	0.9513
1049.57	0.9549
1058.4	0.9449
1067.24	0.8865
1076.08	0.5974
1084.91	0.8846
1093.75	0.9409
1102.58	0.8916
1111.42	0.8953
1120.26	0.7841
1129.09	0.9354
1137.93	0.9696
1146.76	0.9626
1155.6	0.9415
1164.44	0.9272
1173.27	0.8475
1182.11	0.4494
1190.95	0.7353
1199.78	0.6227
1208.62	0.4344
1217.45	0.3101
1226.29	0.2015
1235.13	0.4313
1243.96	0.5866
1252.8	0.5223
1261.64	0.3916
1270.47	0.5517
1279.31	0.7127
1288.14	0.6848
1296.98	0.4857
1305.82	0.5021
1314.65	0.4934
1323.49	0.2932
1332.32	0.4001
1341.16	0.6514
1350	0.8275
1358.83	0.8316
1367.67	0.5365
1376.51	0.5292
1385.34	0.8196
1394.18	0.5252
1403.01	0.5887
1411.85	0.8929
1420.69	0.8961
1429.52	0.8705
1438.36	0.8263
1447.19	0.7763
1456.03	0.6692
1464.87	0.5784
1473.7	0.5845
1482.54	0.4636
1491.38	0.2354
1500.21	0.0804
1509.05	0.0845
1517.88	0.1746
1526.72	0.4253
1535.56	0.6745
1544.39	0.8157
1553.23	0.8756
1562.06	0.8928
1570.9	0.8845
1579.74	0.7404
1588.57	0.4772
1597.41	0.2169
1606.25	0.408
1615.08	0.6721
1623.92	0.6817
1632.75	0.7668
1641.59	0.8763
1650.43	0.9144
1659.26	0.9328
1668.1	0.9442
1676.93	0.9508
1685.77	0.9565
1694.61	0.9607
1703.44	0.9635
1712.28	0.9651
1721.12	0.9657
1729.95	0.9649
1738.79	0.9628
1747.62	0.9603
1756.46	0.9602
1765.3	0.9649
1774.13	0.9669
1782.97	0.9663
1791.81	0.9653
1800.64	0.9635
1809.48	0.9615
1818.31	0.9587
1827.15	0.9555
1835.99	0.9521
1844.82	0.9469
1853.66	0.9405
1862.49	0.9307
1871.33	0.9122
1880.17	0.9087
1889	0.9214
1897.84	0.942
1906.68	0.949
1915.51	0.9534
1924.35	0.9566
1933.18	0.9588
1942.02	0.9596
1950.86	0.9605
1959.69	0.9615
1968.53	0.9618
1977.36	0.9618
1986.2	0.9619
1995.04	0.9621
2003.87	0.9622
2012.71	0.9623
2021.55	0.9618
2030.38	0.9612
2039.22	0.9606
2048.05	0.9601
2056.89	0.9595
2065.73	0.9589
2074.56	0.9582
2083.4	0.9575
2092.23	0.9568
2101.07	0.9561
2109.91	0.9554
2118.74	0.9548
2127.58	0.9542
2136.42	0.9537
2145.25	0.9531
2154.09	0.9525
2162.92	0.9524
2171.76	0.9525
2180.6	0.9526
2189.43	0.9527
2198.27	0.9528
2207.1	0.9529
2215.94	0.9528
2224.78	0.9526
2233.61	0.9525
2242.45	0.9524
2251.29	0.9513
2260.12	0.9499
2268.96	0.9485
2277.79	0.9472
2286.63	0.9462
2295.47	0.9453
2304.3	0.9443
2313.14	0.9434
2321.98	0.9426
2330.81	0.9421
2339.65	0.9417
2348.48	0.9412
2357.32	0.9408
2366.16	0.9404
2374.99	0.9399
2383.83	0.9396
2392.66	0.9393
2401.5	0.939
2410.34	0.9388
2419.17	0.9385
2428.01	0.9382
2436.85	0.9378
2445.68	0.9375
2454.52	0.937
2463.35	0.9366
2472.19	0.9362
2481.03	0.9358
2489.86	0.9354
2498.7	0.935
2507.53	0.9336
2516.37	0.9317
2525.21	0.9299
2534.04	0.928
2542.88	0.9261
2551.72	0.9238
2560.55	0.9204
2569.39	0.917
2578.22	0.914
2587.06	0.9141
2595.9	0.9172
2604.73	0.9206
2613.57	0.9238
2622.4	0.9268
2631.24	0.928
2640.08	0.9274
2648.91	0.9267
2657.75	0.9258
2666.59	0.9248
2675.42	0.9239
2684.26	0.9229
2693.09	0.922
2701.93	0.921
2710.77	0.92
2719.6	0.9189
2728.44	0.9179
2737.27	0.9169
2746.11	0.9159
2754.95	0.9148
2763.78	0.9136
2772.62	0.9124
2781.46	0.9107
2790.29	0.9074
2799.13	0.9041
2807.96	0.8992
2816.8	0.8931
2825.64	0.8837
2834.47	0.8569
2843.31	0.8264
2852.15	0.7963
2860.98	0.7664
2869.82	0.7364
2878.65	0.7069
2887.49	0.6919
2896.33	0.6876
2905.16	0.6803
2914	0.66
2922.83	0.6196
2931.67	0.5877
2940.51	0.5491
2949.34	0.5065
2958.18	0.4642
2967.02	0.4221
2975.85	0.3803
2984.69	0.3388
2993.52	0.3153
3002.36	0.3259
3011.2	0.7612
3020.03	0.8011
3028.87	0.8181
3037.7	0.8248
3046.54	0.8291
3055.38	0.8332
3064.21	0.8371
3073.05	0.8401
3081.89	0.8423
3090.72	0.8455
3099.56	0.8539
3108.39	0.8708
3117.23	0.8787
3126.07	0.8811
3134.9	0.8822
3143.74	0.8826
3152.57	0.8825
3161.41	0.8817
3170.25	0.8806
3179.08	0.8792
3187.92	0.8783
3196.76	0.878
3205.59	0.878
3214.43	0.8784
3223.26	0.8789
3232.1	0.8801
3240.94	0.8812
3249.77	0.8821
3258.61	0.8827
3267.44	0.8798
3276.28	0.8748
3285.12	0.8685
3293.95	0.858
3302.79	0.8491
3311.63	0.8397
3320.46	0.8263
3329.3	0.8071
3338.13	0.788
3346.97	0.769
3355.81	0.7502
3364.64	0.7315
3373.48	0.7128
3382.32	0.6942
3391.15	0.6757
3399.99	0.6588
3408.82	0.657
3417.66	0.7377
3426.5	0.8208
3435.33	0.8258
3444.17	0.8297
3453	0.8337
3461.84	0.8383
3470.68	0.8447
3479.51	0.8516
3488.35	0.8599
3497.19	0.8653
3506.02	0.8693
3514.86	0.8725
3523.69	0.8751
3532.53	0.8768
3541.37	0.8786
3550.2	0.8792
3559.04	0.88
3567.87	0.8809
3576.71	0.8815
3585.55	0.8822
3594.38	0.8828
3603.22	0.8831
3612.06	0.8833
3620.89	0.8835
3629.73	0.8837
3638.56	0.8834
3647.4	0.8827
3656.24	0.8821
3665.07	0.8815
3673.91	0.8809
3682.74	0.8803
3691.58	0.8797
3700.42	0.8791
3709.25	0.8785
3718.09	0.8779
3726.93	0.8773
3735.76	0.8767
3744.6	0.8761
3753.43	0.8754
3762.27	0.8749
3771.11	0.8743
3779.94	0.8738
3788.78	0.8733
3797.61	0.8727
3806.45	0.8722
3815.29	0.8716
3824.12	0.871
3832.96	0.8704
3841.8	0.8699
3850.63	0.8693
3859.47	0.8688
3868.3	0.8682
3877.14	0.8676
3885.98	0.867
3894.81	0.8663
3903.65	0.8657
3912.49	0.8651
3921.32	0.8646
3930.16	0.864
