Infrared Spectrum: 2-Isopropylphenyl isothiocyanate
Formula: C 10 H 11 N S
CAS: 36176-31-5
State: gas
Origin: EPA-IR VAPOR PHASE LIBRARY
1/CM	ABSORBANCE
549.8	0.018673
559.445	0.016453
569.09	0.012103
578.734	0.008303
588.379	0.006833
598.024	0.006063
607.669	0.004983
617.313	0.003433
626.958	0.003153
636.603	0.003243
646.248	0.003433
655.893	0.004333
665.537	0.009613
675.182	0.014983
684.827	0.009053
694.472	0.004803
704.116	0.004413
713.761	0.003773
723.406	0.004663
733.051	0.012893
742.695	0.062093
752.34	0.125273
761.985	0.040503
771.63	0.005283
781.275	0.003083
790.919	0.003853
800.564	0.003643
810.209	0.001893
819.854	0.000908
829.498	0.0005478
839.143	0.0003229
848.788	0.0008834
858.433	0.001883
868.078	0.002923
877.722	0.006893
887.367	0.007743
897.012	0.004753
906.657	0.005853
916.301	0.011903
925.946	0.024193
935.591	0.037113
945.236	0.037643
954.88	0.024603
964.525	0.012893
974.17	0.006373
983.815	0.003383
993.46	0.002413
1003.1	0.001903
1012.75	0.001883
1022.39	0.004623
1032.04	0.009943
1041.68	0.009063
1051.33	0.005153
1060.97	0.004003
1070.62	0.004603
1080.26	0.008563
1089.91	0.009183
1099.55	0.005773
1109.2	0.002583
1118.84	0.001613
1128.49	0.0008841
1138.13	0.0009192
1147.78	0.0003155
1157.42	0.0007891
1167.07	0.0007991
1176.71	0.0006019
1186.36	0.001783
1196	0.002443
1205.64	0.002593
1215.29	0.002923
1224.93	0.003113
1234.58	0.005053
1244.22	0.006473
1253.87	0.005833
1263.51	0.007673
1273.16	0.011613
1282.8	0.012763
1292.45	0.007953
1302.09	0.005013
1311.74	0.003873
1321.38	0.002843
1331.03	0.003043
1340.67	0.004903
1350.32	0.007853
1359.96	0.008793
1369.61	0.011103
1379.25	0.007573
1388.9	0.006973
1398.54	0.005633
1408.18	0.004603
1417.83	0.005293
1427.47	0.007313
1437.12	0.014603
1446.76	0.021973
1456.41	0.020883
1466.05	0.019933
1475.7	0.035753
1485.34	0.050413
1494.99	0.028743
1504.63	0.009733
1514.28	0.005423
1523.92	0.004163
1533.57	0.003503
1543.21	0.003523
1552.86	0.004703
1562.5	0.009813
1572.15	0.020393
1581.79	0.021203
1591.44	0.021443
1601.08	0.019943
1610.73	0.008533
1620.37	0.004173
1630.01	0.002833
1639.66	0.002403
1649.3	0.002243
1658.95	0.002193
1668.59	0.002333
1678.24	0.002973
1687.88	0.003713
1697.53	0.003243
1707.17	0.003043
1716.82	0.003733
1726.46	0.003033
1736.11	0.002043
1745.75	0.001973
1755.4	0.002023
1765.04	0.002303
1774.69	0.002733
1784.33	0.003633
1793.98	0.004573
1803.62	0.004183
1813.27	0.003923
1822.91	0.004903
1832.55	0.005223
1842.2	0.004523
1851.84	0.004803
1861.49	0.006023
1871.13	0.007863
1880.78	0.008673
1890.42	0.008503
1900.07	0.010223
1909.71	0.012873
1919.36	0.013893
1929	0.016563
1938.65	0.023103
1948.29	0.030163
1957.94	0.038483
1967.58	0.051313
1977.23	0.068663
1986.87	0.090743
1996.52	0.118453
2006.16	0.154573
2015.81	0.200023
2025.45	0.251523
2035.1	0.308823
2044.74	0.382433
2054.38	0.451053
2064.03	0.435473
2073.67	0.383033
2083.32	0.397293
2092.96	0.422953
2102.61	0.382343
2112.25	0.291163
2121.9	0.210133
2131.54	0.163853
2141.19	0.141913
2150.83	0.125973
2160.48	0.105543
2170.12	0.084083
2179.77	0.066693
2189.41	0.052613
2199.06	0.036323
2208.7	0.023553
2218.35	0.016463
2227.99	0.012133
2237.64	0.009053
2247.28	0.006993
2256.92	0.005503
2266.57	0.004313
2276.21	0.003623
2285.86	0.003073
2295.5	0.002903
2305.15	0.002813
2314.79	0.002993
2324.44	0.003353
2334.08	0.003263
2343.73	0.002783
2353.37	0.002433
2363.02	0.002453
2372.66	0.002453
2382.31	0.002443
2391.95	0.002413
2401.6	0.002403
2411.24	0.002683
2420.89	0.003393
2430.53	0.004323
2440.18	0.004743
2449.82	0.004853
2459.47	0.005193
2469.11	0.005463
2478.75	0.005643
2488.4	0.005633
2498.04	0.005153
2507.69	0.004903
2517.33	0.004693
2526.98	0.004773
2536.62	0.004773
2546.27	0.004683
2555.91	0.004673
2565.56	0.004903
2575.2	0.004883
2584.85	0.004823
2594.49	0.004463
2604.14	0.003713
2613.78	0.003103
2623.43	0.002733
2633.07	0.002443
2642.72	0.002153
2652.36	0.001883
2662.01	0.001833
2671.65	0.001913
2681.29	0.002053
2690.94	0.002263
2700.58	0.002383
2710.23	0.002723
2719.87	0.003343
2729.52	0.004293
2739.16	0.004913
2748.81	0.004503
2758.45	0.004183
2768.1	0.004183
2777.74	0.003953
2787.39	0.003623
2797.03	0.003573
2806.68	0.003643
2816.32	0.003833
2825.97	0.003753
2835.61	0.003883
2845.26	0.004663
2854.9	0.005953
2864.55	0.009233
2874.19	0.017773
2883.84	0.024373
2893.48	0.020723
2903.12	0.018953
2912.77	0.021163
2922.41	0.024963
2932.06	0.032133
2941.7	0.037263
2951.35	0.033183
2960.99	0.048863
2970.64	0.093213
2980.28	0.075143
2989.93	0.030103
2999.57	0.013503
3009.22	0.009853
3018.86	0.010243
3028.51	0.013053
3038.15	0.012203
3047.8	0.009363
3057.44	0.010903
3067.09	0.020793
3076.73	0.030423
3086.38	0.018683
3096.02	0.008743
3105.67	0.005833
3115.31	0.003473
3124.95	0.002663
3134.6	0.002503
3144.24	0.002323
3153.89	0.002163
3163.53	0.001573
3173.18	0.001293
3182.82	0.001343
3192.47	0.001163
3202.11	0.0008766
3211.76	0.0006641
3221.4	0.0007783
3231.05	0.0006513
3240.69	0.0005135
3250.34	0.0004568
3259.98	0.0002885
3269.63	0.0004205
3279.27	9.6e-06
3288.92	2.15e-05
3298.56	6.02e-05
3308.21	0.00020172
3317.85	0.00012846
3327.49	0.00013593
3337.14	0.0002248
3346.78	0.0002817
3356.43	0.0002368
3366.07	0.0001919
3375.72	0.0003628
3385.36	0.0003047
3395.01	0.000105889
3404.65	0.0002427
3414.3	0.000102916
3423.94	0.0004409
3433.59	0.0003493
3443.23	0.00020141
3452.88	0.0002554
3462.52	0.00020001
3472.17	0.0001975
3481.81	0.0002683
3491.46	0.0003125
3501.1	0.0002402
3510.75	0.0002488
3520.39	0.0002754
3530.04	0.0003358
3539.68	0.0002834
3549.32	0.000231
3558.97	0.00018253
3568.61	0.000139
3578.26	0.0002685
3587.9	0.00015584
3597.55	0.00015123
3607.19	0.0002772
3616.84	0.00016233
3626.48	0.00014337
3636.13	0.00018142
3645.77	2.72e-05
3655.42	0.0002531
3665.06	5.05e-05
3674.71	0.0002625
3684.35	0.0003102
3694	0.0003389
3703.64	0.0003173
3713.29	0.0005441
3722.93	0.0004889
3732.58	0.0004426
3742.22	0.0004954
3751.86	0.0005565
3761.51	0.0005252
3771.15	0.0003755
3780.8	0.0003772
3790.44	0.0005512
3800.09	0.0007864
3809.73	0.0007287
3819.38	0.0008638
3829.02	0.0008509
3838.67	0.0005664
3848.31	0.0005132
3857.96	0.0007014
3867.6	0.0006061
3877.25	0.0007829
3886.89	0.0007918
3896.54	0.0008469
3906.18	0.0010693
3915.83	0.001213
3925.47	0.0010383
3935.12	0.0010839
3944.76	0.001253
3954.41	0.001283
3964.05	0.001633
3973.69	0.001543
3983.34	0.001663
3992.98	0.001843
