Infrared Spectrum: Cyclodecene
Formula: C 10 H 18
CAS: 3618-12-0
State: gas
Instrument: HP-GC/MS/IRD
Origin: NIST Mass Spectrometry Data Center
1/CM	ABSORBANCE
550	0.0003432
562	0.00011
574	9.9e-05
586	8.14e-05
598	8.8e-06
610	0.0002024
622	0.0002244
634	0.0001386
646	0.0002288
658	8.8e-06
670	0.0002948
682	0.000517
694	0.0013288
706	0.0024794
718	0.0021604
730	0.0012606
742	0.0008404
754	0.0007744
766	0.000726
778	0.0006732
790	0.0006138
802	0.0004752
814	0.0003916
826	0.0004356
838	0.0006182
850	0.0006358
862	0.000407
874	0.0003234
886	0.0003828
898	0.0004532
910	0.000407
922	0.0003674
934	0.00044
946	0.0004994
958	0.00044
970	0.0004752
982	0.0005038
994	0.0004906
1006	0.00055
1018	0.0005346
1030	0.0004818
1042	0.0003784
1054	0.000319
1066	0.0003124
1078	0.000275
1090	0.000209
1102	0.0001716
1114	0.0001606
1126	0.000143
1138	0.0001408
1150	0.0002596
1162	0.0001804
1174	0.000121
1186	0.0001606
1198	0.000121
1210	0.0001738
1222	0.0001562
1234	0.0002134
1246	0.0002112
1258	0.0002728
1270	0.0003366
1282	0.0003322
1294	0.0003058
1306	0.0003058
1318	0.0006028
1330	0.0005654
1342	0.0007172
1354	0.0006116
1366	0.0005104
1378	0.0003256
1390	0.000396
1402	0.000429
1414	0.0005478
1426	0.0006886
1438	0.0016654
1450	0.0025938
1462	0.002607
1474	0.0026092
1486	0.0015334
1498	0.0007414
1510	0.0009108
1522	0.0006864
1534	0.0004422
1546	0.0005148
1558	0.0006292
1570	0.0002266
1582	0.0001166
1594	0.000132
1606	0.0001078
1618	0.0002508
1630	0.0002508
1642	0.0003102
1654	0.0006468
1666	0.0003894
1678	0.0004576
1690	0.0003916
1702	0.0005324
1714	0.0004312
1726	0.0002112
1738	0.000363
1750	0.0004444
1762	0.0002882
1774	0.0002904
1786	0.0002794
1798	0.0002816
1810	0.0002134
1822	0.0002596
1834	0.0001914
1846	0.0002728
1858	0.0001254
1870	0.0001848
1882	0.0001122
1894	0.0001232
1906	8.36e-05
1918	0.000176
1930	9.02e-05
1942	0.0001584
1954	8.8e-05
1966	0.0001012
1978	7.26e-05
1990	0.0001364
2002	5.28e-05
2014	8.14e-05
2026	6.16e-05
2038	6.38e-05
2050	4.84e-05
2062	5.94e-05
2074	5.94e-05
2086	5.06e-05
2098	4.62e-05
2110	5.72e-05
2122	6.38e-05
2134	8.36e-05
2146	8.58e-05
2158	5.28e-05
2170	4.4e-05
2182	5.72e-05
2194	6.16e-05
2206	5.5e-05
2218	5.94e-05
2230	6.38e-05
2242	6.82e-05
2254	5.94e-05
2266	6.82e-05
2278	4.62e-05
2290	3.96e-05
2302	9.46e-05
2314	0.0001188
2326	0.0001408
2338	0.0001474
2350	0.0001144
2362	0.0001518
2374	0.000143
2386	3.08e-05
2398	1.98e-05
2410	4.4e-06
2422	2.64e-05
2434	1.98e-05
2446	8.8e-06
2458	4.4e-06
2470	1.54e-05
2482	1.1e-05
2494	4.84e-05
2506	3.74e-05
2518	6.38e-05
2530	3.52e-05
2542	7.04e-05
2554	7.48e-05
2566	4.62e-05
2578	8.14e-05
2590	7.48e-05
2602	7.92e-05
2614	0.0001166
2626	0.0001012
2638	0.0001672
2650	0.00022
2662	0.000319
2674	0.0003146
2686	0.0004026
2698	0.0003696
2710	0.0002926
2722	0.0002706
2734	0.0002398
2746	0.0002332
2758	0.0002354
2770	0.0003036
2782	0.0003872
2794	0.0005368
2806	0.0006226
2818	0.0007326
2830	0.0010868
2842	0.0028402
2854	0.0064922
2866	0.0083644
2878	0.0076736
2890	0.0072578
2902	0.0111034
2914	0.0176044
2926	0.022
2938	0.0183436
2950	0.0104654
2962	0.0072688
2974	0.005148
2986	0.0042614
2998	0.0048488
3010	0.0050798
3022	0.0021032
3034	0.0006292
3046	0.0003718
3058	0.0003256
3070	0.0003212
3082	0.00022
3094	0.0001826
3106	0.0001298
3118	0.0001606
3130	0.0001166
3142	0.0001584
3154	8.58e-05
3166	0.0001298
3178	0.00011
3190	0.000165
3202	0.0001584
3214	0.0001144
3226	0.0001496
3238	0.0001056
3250	0.0001342
3262	0.0001474
3274	6.16e-05
3286	0.0001144
3298	0.0001034
3310	6.82e-05
3322	8.14e-05
3334	8.14e-05
3346	7.92e-05
3358	7.7e-05
3370	7.92e-05
3382	5.94e-05
3394	8.36e-05
3406	9.02e-05
3418	7.26e-05
3430	9.02e-05
3442	6.16e-05
3454	7.7e-05
3466	4.62e-05
3478	0.0001122
3490	9.46e-05
3502	0.0001386
3514	4.4e-06
3526	0.0002002
3538	3.52e-05
3550	0.0001056
3562	0.00011
3574	2.64e-05
3586	0.000264
3598	0.0001342
3610	0.000319
3622	0.0001584
3634	0.0001144
3646	0.0002156
3658	9.9e-05
3670	0.0002574
3682	9.68e-05
3694	0.0001034
3706	7.04e-05
3718	0.0001342
3730	0.0002552
3742	0.0003014
3754	0.0002332
3766	9.02e-05
3778	4.4e-06
3790	4.4e-06
3802	0.0001452
3814	5.28e-05
3826	9.02e-05
3838	0.0001848
