Infrared Spectrum: Adenosine, 2',3'-o-isopropylidene
Formula: C13 H17 N5 O4
CAS: 362-75-4
State: SOLID (0.7 mg / 650 mg KBr DISC)
Class: COBLENTZ III
Instrument: PERKIN-ELMER 21 (GRATING)
Instrument parameters: GRATING CHANGE AT 1075 CM^-^1
Sampling: TRANSMISSION
Resolution: 2
Origin: SOUTHERN RESEARCH INSTITUTE, W.C. Coburn, Jr.
1/CM	TRANSMITTANCE
613.536	0.8656
622.572	0.8587
631.608	0.8351
640.643	0.8051
649.679	0.8031
658.715	0.8086
667.751	0.7908
676.787	0.7561
685.823	0.7162
694.858	0.669
703.894	0.5989
712.93	0.5599
721.966	0.6037
731.002	0.6687
740.037	0.6961
749.073	0.707
758.109	0.7931
767.145	0.8029
776.181	0.7946
785.217	0.7625
794.252	0.637
803.288	0.831
812.324	0.8296
821.36	0.8183
830.396	0.798
839.431	0.7014
848.467	0.6249
857.503	0.6079
866.539	0.6186
875.575	0.7154
884.611	0.7569
893.646	0.8277
902.682	0.8347
911.718	0.8377
920.754	0.8594
929.79	0.8573
938.825	0.8332
947.861	0.817
956.897	0.8146
965.933	0.8035
974.969	0.7881
984.005	0.7447
993.04	0.7182
1002.08	0.6291
1011.11	0.5857
1020.15	0.5911
1029.18	0.5823
1038.22	0.5663
1047.26	0.5502
1056.29	0.4538
1065.33	0.3544
1074.36	0.338
1083.4	0.2519
1092.43	0.307
1101.47	0.3483
1110.51	0.3007
1119.54	0.312
1128.58	0.6097
1137.61	0.6858
1146.65	0.66
1155.69	0.5069
1164.72	0.6159
1173.76	0.5191
1182.79	0.6373
1191.83	0.6201
1200.86	0.4682
1209.9	0.278
1218.94	0.3501
1227.97	0.412
1237.01	0.385
1246.04	0.3722
1255.08	0.5228
1264.11	0.5386
1273.15	0.5963
1282.19	0.5837
1291.22	0.4351
1300.26	0.3422
1309.29	0.5018
1318.33	0.5942
1327.37	0.565
1336.4	0.5041
1345.44	0.5202
1354.47	0.6683
1363.51	0.6448
1372.54	0.4735
1381.58	0.4422
1390.62	0.5882
1399.65	0.6197
1408.69	0.6432
1417.72	0.5588
1426.76	0.6163
1435.8	0.7093
1444.83	0.7187
1453.87	0.6793
1462.9	0.6391
1471.94	0.5357
1480.97	0.6022
1490.01	0.7787
1499.05	0.7851
1508.08	0.782
1517.12	0.8075
1526.15	0.8368
1535.19	0.8234
1544.23	0.7981
1553.26	0.7466
1562.3	0.6534
1571.33	0.4805
1580.37	0.6146
1589.4	0.5357
1598.44	0.3176
1607.48	0.1817
1616.51	0.3842
1625.55	0.4559
1634.58	0.3885
1643.62	0.4132
1652.66	0.5371
1661.69	0.5531
1670.73	0.4257
1679.76	0.2362
1688.8	0.2657
1697.83	0.572
1706.87	0.7615
1715.91	0.7957
1724.94	0.802
1733.98	0.8017
1743.01	0.8211
1752.05	0.8586
1761.09	0.8886
1770.12	0.9129
1779.16	0.9365
1788.19	0.949
1797.23	0.9532
1806.26	0.9536
1815.3	0.9542
1824.34	0.9587
1833.37	0.9586
1842.41	0.9591
1851.44	0.9592
1860.48	0.9593
1869.51	0.9599
1878.55	0.9596
1887.59	0.9575
1896.62	0.9542
1905.66	0.952
1914.69	0.9546
1923.73	0.9583
1932.77	0.9597
1941.8	0.9597
1950.84	0.9601
1959.87	0.9598
1968.91	0.9595
1977.94	0.959
1986.98	0.9583
1996.02	0.9576
2005.05	0.9567
2014.09	0.9547
2023.12	0.9528
2032.16	0.9521
2041.2	0.9525
2050.23	0.9536
2059.27	0.9548
2068.3	0.956
2077.34	0.9572
2086.37	0.958
2095.41	0.9566
2104.45	0.9548
2113.48	0.9549
2122.52	0.9553
2131.55	0.9556
2140.59	0.9557
2149.63	0.9556
2158.66	0.9555
2167.7	0.9555
2176.73	0.9559
2185.77	0.9563
2194.8	0.9564
2203.84	0.9561
2212.88	0.9559
2221.91	0.9559
2230.95	0.9566
2239.98	0.9566
2249.02	0.9505
2258.06	0.9483
2267.09	0.9463
2276.13	0.9451
2285.16	0.9432
2294.2	0.9379
2303.23	0.9336
2312.27	0.9324
2321.31	0.9332
2330.34	0.936
2339.38	0.9373
2348.41	0.938
2357.45	0.9393
2366.48	0.9403
2375.52	0.9416
2384.56	0.9426
2393.59	0.9424
2402.63	0.9419
2411.66	0.9411
2420.7	0.9402
2429.74	0.9393
2438.77	0.9383
2447.81	0.9373
2456.84	0.9363
2465.88	0.9338
2474.91	0.9311
2483.95	0.9289
2492.99	0.9269
2502.02	0.9248
2511.06	0.9224
2520.09	0.9199
2529.13	0.9174
2538.17	0.9161
2547.2	0.9157
2556.24	0.9137
2565.27	0.91
2574.31	0.9059
2583.34	0.9008
2592.38	0.8958
2601.42	0.8912
2610.45	0.8866
2619.49	0.8821
2628.52	0.8772
2637.56	0.8721
2646.6	0.8669
2655.63	0.8618
2664.67	0.8571
2673.7	0.8534
2682.74	0.8513
2691.77	0.8505
2700.81	0.8497
2709.85	0.8503
2718.88	0.8503
2727.92	0.8483
2736.95	0.843
2745.99	0.8375
2755.03	0.8322
2764.06	0.8263
2773.1	0.8168
2782.13	0.7996
2791.17	0.7839
2800.2	0.7664
2809.24	0.7543
2818.28	0.7363
2827.31	0.6995
2836.35	0.6754
2845.38	0.6646
2854.42	0.6597
2863.45	0.655
2872.49	0.6492
2881.53	0.6407
2890.56	0.6189
2899.6	0.5774
2908.63	0.5376
2917.67	0.519
2926.71	0.5297
2935.74	0.5474
2944.78	0.572
2953.81	0.5888
2962.85	0.5873
2971.88	0.5794
2980.92	0.583
2989.96	0.5908
2998.99	0.5886
3008.03	0.5818
3017.06	0.5713
3026.1	0.5553
3035.14	0.5374
3044.17	0.5178
3053.21	0.4965
3062.24	0.4749
3071.28	0.4536
3080.31	0.4311
3089.35	0.4067
3098.39	0.3804
3107.42	0.3706
3116.46	0.3731
3125.49	0.3795
3134.53	0.3861
3143.57	0.3935
3152.6	0.3998
3161.64	0.4042
3170.67	0.4054
3179.71	0.405
3188.74	0.4023
3197.78	0.3975
3206.82	0.3916
3215.85	0.3837
3224.89	0.3746
3233.92	0.3645
3242.96	0.3562
3252	0.3544
3261.03	0.355
3270.07	0.3564
3279.1	0.3574
3288.14	0.3588
3297.17	0.3613
3306.21	0.367
3315.25	0.3758
3324.28	0.3863
3333.32	0.3924
3342.35	0.3944
3351.39	0.3965
3360.43	0.3997
3369.46	0.4111
3378.5	0.4256
3387.53	0.4393
3396.57	0.4569
3405.6	0.4746
3414.64	0.4896
3423.68	0.5027
3432.71	0.5162
3441.75	0.5315
3450.78	0.5483
3459.82	0.5665
3468.85	0.5863
3477.89	0.6012
3486.93	0.6174
3495.96	0.6369
3505	0.6609
3514.03	0.6828
3523.07	0.7007
3532.11	0.7205
3541.14	0.7411
3550.18	0.7614
3559.21	0.7756
3568.25	0.7881
3577.28	0.8051
3586.32	0.8204
3595.36	0.8329
3604.39	0.8503
3613.43	0.8665
3622.46	0.8814
3631.5	0.8955
3640.54	0.9078
3649.57	0.9125
3658.61	0.9133
3667.64	0.9135
3676.68	0.9139
3685.71	0.9151
3694.75	0.9178
3703.79	0.9245
3712.82	0.9277
3721.86	0.9285
3730.89	0.929
3739.93	0.9294
3748.97	0.9296
3758	0.9298
3767.04	0.9299
3776.07	0.9299
3785.11	0.9299
3794.14	0.9289
3803.18	0.9253
3812.22	0.9217
3821.25	0.9205
3830.29	0.9201
3839.32	0.9199
3848.36	0.9196
3857.4	0.9196
3866.43	0.92
3875.47	0.9204
3884.5	0.9207
3893.54	0.9209
3902.57	0.9208
3911.61	0.9196
3920.65	0.9168
3929.68	0.9151
3938.72	0.9163
3947.75	0.9176
3956.79	0.919
3965.82	0.9217
3974.86	0.9235
3983.9	0.923
3992.93	0.9221
4001.97	0.9219
