Infrared Spectrum: Propiomazine
Formula: C 20 H 24 N 2 O S
CAS: 362-29-8
State: gas
Instrument: HP-GC/MS/IRD
Origin: NIST Mass Spectrometry Data Center
1/CM	ABSORBANCE
550	0.000284
562	0.000227
574	0.000244
586	0.000163
598	0.00021
610	0.000296
622	0.00024
634	0.000217
646	0.000169
658	0.000157
670	0.0002
682	0.000296
694	0.000273
706	0.000285
718	0.000552
730	0.001421
742	0.002511
754	0.000858
766	0.000341
778	0.000453
790	0.000639
802	0.000593
814	0.00028
826	0.000251
838	0.000193
850	0.000242
862	0.000352
874	0.000477
886	0.001146
898	0.001154
910	0.000764
922	0.000465
934	0.000215
946	0.000135
958	0.0002
970	0.000282
982	0.000276
994	0.000249
1006	0.000382
1018	0.000596
1030	0.000867
1042	0.000522
1054	0.000968
1066	0.001131
1078	0.000826
1090	0.000854
1102	0.000343
1114	0.000387
1126	0.000911
1138	0.000611
1150	0.000412
1162	0.000416
1174	0.000986
1186	0.002023
1198	0.001438
1210	0.000543
1222	0.000358
1234	0.000569
1246	0.001509
1258	0.002168
1270	0.001468
1282	0.001771
1294	0.003272
1306	0.004253
1318	0.002219
1330	0.001284
1342	0.001082
1354	0.000794
1366	0.000813
1378	0.00099
1390	0.000795
1402	0.000686
1414	0.00131
1426	0.003543
1438	0.003275
1450	0.003666
1462	0.01
1474	0.005158
1486	0.002041
1498	0.001647
1510	0.001445
1522	0.000731
1534	0.000539
1546	0.000665
1558	0.001419
1570	0.001302
1582	0.000729
1594	0.001022
1606	0.000805
1618	0.000327
1630	0.000217
1642	0.000209
1654	0.000362
1666	0.000477
1678	0.000898
1690	0.002444
1702	0.004517
1714	0.001358
1726	0.000553
1738	0.00036
1750	0.000286
1762	0.000238
1774	0.000176
1786	0.000118
1798	0.000136
1810	8.5e-05
1822	6.9e-05
1834	6.4e-05
1846	0.000113
1858	7.2e-05
1870	0.000115
1882	0.000104
1894	9.3e-05
1906	9.1e-05
1918	0.000133
1930	6.8e-05
1942	3.3e-05
1954	2e-05
1966	4.4e-05
1978	3.4e-05
1990	4.3e-05
2002	4.9e-05
2014	4.7e-05
2026	3.2e-05
2038	3.5e-05
2050	2.9e-05
2062	3.2e-05
2074	2.5e-05
2086	2e-05
2098	3.8e-05
2110	4e-05
2122	2.4e-05
2134	3e-05
2146	3.9e-05
2158	6.1e-05
2170	4.3e-05
2182	4.6e-05
2194	5e-05
2206	4.9e-05
2218	4.3e-05
2230	3.1e-05
2242	3.2e-05
2254	2.1e-05
2266	6e-05
2278	4.2e-05
2290	4.5e-05
2302	3.5e-05
2314	5.8e-05
2326	1.6e-05
2338	5.3e-05
2350	7e-05
2362	6.1e-05
2374	4.4e-05
2386	4e-05
2398	2.9e-05
2410	4.5e-05
2422	2.9e-05
2434	5.3e-05
2446	6.8e-05
2458	6e-05
2470	3.8e-05
2482	4.1e-05
2494	6.9e-05
2506	4.3e-05
2518	8.9e-05
2530	9.1e-05
2542	0.00011
2554	0.000111
2566	9e-05
2578	6.2e-05
2590	7.2e-05
2602	7.8e-05
2614	4.1e-05
2626	4.8e-05
2638	0
2650	2.2e-05
2662	1.6e-05
2674	2.1e-05
2686	2.5e-05
2698	1.8e-05
2710	3.6e-05
2722	2.2e-05
2734	4.3e-05
2746	4.8e-05
2758	5.2e-05
2770	3.5e-05
2782	5.5e-05
2794	6e-05
2806	8e-05
2818	7.6e-05
2830	8.2e-05
2842	9.6e-05
2854	0.000135
2866	0.000146
2878	0.000253
2890	0.000385
2902	0.000327
2914	0.000462
2926	0.000471
2938	0.000511
2950	0.000877
2962	0.00049
2974	0.00062
2986	0.000949
2998	0.000613
3010	0.000442
3022	0.000505
3034	0.00041
3046	0.000471
3058	0.000496
3070	0.000751
3082	0.000709
3094	0.000368
3106	0.000209
3118	0.000109
3130	5e-05
3142	8.7e-05
3154	7.4e-05
3166	6e-05
3178	5.5e-05
3190	5.7e-05
3202	2.6e-05
3214	4e-06
3226	5.3e-05
3238	4e-05
3250	4.6e-05
3262	4.5e-05
3274	6.5e-05
3286	5.4e-05
3298	7e-05
3310	1.6e-05
3322	4.4e-05
3334	8.3e-05
3346	4.2e-05
3358	8.2e-05
3370	9e-05
3382	0.000118
3394	9.2e-05
3406	0.000123
3418	0.000186
3430	0.000344
3442	0.000462
3454	0.000135
3466	0.000114
3478	0.000124
3490	3e-06
3502	5.8e-05
3514	8e-05
3526	0.000104
3538	4.5e-05
3550	8.4e-05
3562	7.2e-05
3574	4.9e-05
3586	7.4e-05
3598	8.6e-05
3610	0.000108
3622	0.000106
3634	0.000174
3646	0.000137
3658	9.8e-05
3670	0.000135
3682	8.5e-05
3694	0.000165
3706	0.000121
3718	0.000123
3730	0.000178
3742	0.000152
3754	0.000184
3766	0.000184
3778	0.000133
3790	7.9e-05
3802	0.000176
3814	0.000144
3826	0.00018
3838	0.000175
