Infrared Spectrum: ANILINE, N-tert-BUTYL-4-tert-BUTYL-
Formula: C14 H23 N
CAS: 36209-85-5
State: LIQUID (NEAT)
Class: COBLENTZ III
Instrument: BECKMAN IR-4 (HYBRID PRISM-GRATING)
Instrument parameters: NaCl PRISM
Sampling: TRANSMISSION
Path length: CAPILLARY
Resolution: 2
Origin: MONSANTO (J. FREEMAN)
1/CM	TRANSMITTANCE
3952.57	0.9044
3943.7	0.9047
3934.83	0.9052
3925.97	0.9059
3917.1	0.9067
3908.23	0.9074
3899.36	0.9082
3890.5	0.9091
3881.63	0.9099
3872.76	0.9109
3863.89	0.9118
3855.03	0.9127
3846.16	0.9136
3837.29	0.9144
3828.42	0.9153
3819.55	0.9161
3810.69	0.9168
3801.82	0.9175
3792.95	0.9181
3784.08	0.9188
3775.22	0.9195
3766.35	0.9198
3757.48	0.9202
3748.61	0.9205
3739.75	0.9209
3730.88	0.9213
3722.01	0.9216
3713.14	0.922
3704.28	0.9223
3695.41	0.9225
3686.54	0.9228
3677.67	0.923
3668.8	0.9232
3659.94	0.9234
3651.07	0.9235
3642.2	0.9234
3633.33	0.9231
3624.47	0.9228
3615.6	0.9225
3606.73	0.9218
3597.86	0.9211
3589	0.9203
3580.13	0.9193
3571.26	0.9182
3562.39	0.9171
3553.52	0.9162
3544.66	0.9144
3535.79	0.9122
3526.92	0.9099
3518.05	0.9077
3509.19	0.9045
3500.32	0.9012
3491.45	0.898
3482.58	0.8939
3473.72	0.8891
3464.85	0.8843
3455.98	0.8772
3447.11	0.8683
3438.24	0.8202
3429.38	0.7946
3420.51	0.7688
3411.64	0.743
3402.77	0.7189
3393.91	0.7151
3385.04	0.7146
3376.17	0.7152
3367.3	0.7173
3358.44	0.7489
3349.57	0.7824
3340.7	0.8159
3331.83	0.8412
3322.96	0.8502
3314.1	0.8568
3305.23	0.8633
3296.36	0.8688
3287.49	0.8745
3278.63	0.8794
3269.76	0.8838
3260.89	0.8878
3252.02	0.8885
3243.16	0.8889
3234.29	0.8889
3225.42	0.8882
3216.55	0.8875
3207.69	0.8868
3198.82	0.8861
3189.95	0.8853
3181.08	0.8846
3172.21	0.8841
3163.35	0.8838
3154.48	0.8835
3145.61	0.8832
3136.74	0.8817
3127.88	0.8698
3119.01	0.8402
3110.14	0.7934
3101.27	0.758
3092.41	0.7514
3083.54	0.7447
3074.67	0.7077
3065.8	0.6681
3056.93	0.6369
3048.07	0.6344
3039.2	0.6291
3030.33	0.546
3021.46	0.4397
3012.6	0.3327
3003.73	0.2252
2994.86	0.1169
2985.99	0.0327
2977.13	0.0291
2968.26	0.0297
2959.39	0.0525
2950.52	0.0928
2941.65	0.1333
2932.79	0.1718
2923.92	0.1783
2915.05	0.2188
2906.18	0.237
2897.32	0.2485
2888.45	0.2561
2879.58	0.3296
2870.71	0.4322
2861.85	0.5355
2852.98	0.6394
2844.11	0.7439
2835.24	0.7876
2826.37	0.8131
2817.51	0.8279
2808.64	0.8448
2799.77	0.8622
2790.9	0.8805
2782.04	0.8947
2773.17	0.9003
2764.3	0.9009
2755.43	0.9
2746.57	0.8969
2737.7	0.8952
2728.83	0.8945
2719.96	0.8983
2711.1	0.9082
2702.23	0.9171
2693.36	0.9218
2684.49	0.9238
2675.62	0.9261
2666.76	0.9284
2657.89	0.9307
2649.02	0.9327
2640.15	0.9341
2631.29	0.9344
2622.42	0.9331
2613.55	0.9293
2604.68	0.9247
2595.82	0.9201
2586.95	0.9161
2578.08	0.9152
2569.21	0.9183
2560.34	0.9231
2551.48	0.9282
2542.61	0.9322
2533.74	0.9361
2524.87	0.9382
2516.01	0.939
2507.14	0.9397
2498.27	0.9399
2489.4	0.9399
2480.54	0.94
2471.67	0.9401
2462.8	0.9402
2453.93	0.9403
2445.06	0.9407
2436.2	0.9411
2427.33	0.9416
2418.46	0.9418
2409.59	0.9423
2400.73	0.943
2391.86	0.945
2382.99	0.9495
2374.12	0.9533
2365.26	0.9553
2356.39	0.9559
2347.52	0.9563
2338.65	0.9561
2329.78	0.9556
2320.92	0.9543
2312.05	0.953
2303.18	0.9515
2294.31	0.95
2285.45	0.9491
2276.58	0.9491
2267.71	0.9519
2258.84	0.9535
2249.98	0.955
2241.11	0.9564
2232.24	0.9574
2223.37	0.9581
2214.51	0.9583
2205.64	0.9582
2196.77	0.9578
2187.9	0.9569
2179.03	0.9561
2170.17	0.9555
2161.3	0.9545
2152.43	0.9526
2143.56	0.9506
2134.7	0.9511
2125.83	0.9522
2116.96	0.9541
2108.09	0.9558
2099.23	0.9567
2090.36	0.9575
2081.49	0.9578
2072.62	0.9584
2063.75	0.9582
2054.89	0.9575
2046.02	0.9568
2037.15	0.9562
2028.28	0.9556
2019.42	0.9553
2010.55	0.9557
2001.68	0.9565
1992.81	0.9574
1983.95	0.958
1975.08	0.9578
1966.21	0.9571
1957.34	0.9556
1948.47	0.9535
1939.61	0.9504
1930.74	0.947
1921.87	0.9432
1913	0.9382
1904.14	0.9293
1895.27	0.9169
1886.4	0.9001
1877.53	0.8843
1868.67	0.8864
1859.8	0.9059
1850.93	0.924
1842.06	0.9339
1833.19	0.9405
1824.33	0.9467
1815.46	0.9511
1806.59	0.9526
1797.72	0.9515
1788.86	0.947
1779.99	0.9413
1771.12	0.9354
1762.25	0.9318
1753.39	0.9333
1744.52	0.9392
1735.65	0.9453
1726.78	0.9477
1717.92	0.9478
1709.05	0.9454
1700.18	0.9418
1691.31	0.9365
1682.44	0.9285
1673.58	0.9171
1664.71	0.9027
1655.84	0.8647
1646.97	0.8088
1638.11	0.736
1629.24	0.57
1620.37	0.1642
1611.5	0.1999
1602.64	0.4311
1593.77	0.6647
1584.9	0.7522
1576.03	0.7736
1567.16	0.8168
1558.3	0.7746
1549.43	0.6902
1540.56	0.4309
1531.69	0.1674
1522.83	0.024
1513.96	0.1063
1505.09	0.2626
1496.22	0.3766
1487.36	0.32
1478.49	0.2705
1469.62	0.2854
1460.75	0.2544
1451.88	0.3418
1443.02	0.488
1434.15	0.6523
1425.28	0.7745
1416.41	0.7795
1407.55	0.6431
1398.68	0.3089
1389.81	0.3111
1380.94	0.6259
1372.08	0.2828
1363.21	0.1504
1354.34	0.5207
1345.47	0.6933
1336.6	0.5839
1327.74	0.3028
1318.87	0.3521
1310	0.1937
1301.13	0.3231
1292.27	0.5621
1283.4	0.6158
1274.53	0.4355
1265.66	0.1806
1256.8	0.1395
1247.93	0.2653
1239.06	0.3537
1230.19	0.171
1221.33	0.0746
1212.46	0.1688
1203.59	0.1981
1194.72	0.1264
1185.85	0.5243
1176.99	0.751
1168.12	0.8109
1159.25	0.8484
1150.38	0.8749
1141.52	0.8592
1132.65	0.8568
1123.78	0.7286
1114.91	0.6999
1106.05	0.8457
1097.18	0.9308
1088.31	0.944
1079.44	0.9495
1070.57	0.9505
1061.71	0.9431
1052.84	0.9324
1043.97	0.9299
1035.1	0.8997
1026.24	0.7733
1017.37	0.8204
1008.5	0.8651
999.633	0.9417
990.766	0.9462
981.898	0.935
973.03	0.89
964.162	0.7631
955.295	0.8072
946.427	0.8243
937.559	0.8685
928.692	0.8554
919.824	0.8394
910.956	0.8949
902.089	0.9371
893.221	0.9465
884.353	0.9408
875.486	0.9413
866.618	0.9282
857.75	0.8994
848.883	0.845
840.015	0.6456
831.147	0.4582
822.28	0.197
813.412	0.1902
804.544	0.6071
795.677	0.7436
786.809	0.6865
777.941	0.6942
769.074	0.7904
760.206	0.8623
751.338	0.8454
742.471	0.7175
733.603	0.7625
724.735	0.813
715.867	0.81
707	0.8475
698.132	0.8843
689.264	0.9188
680.397	0.9248
671.529	0.8897
662.661	0.8753
653.794	0.882
644.926	0.8779
636.058	0.8844
