Infrared Spectrum: Butyrohydroxamic acid, 2-amino-
Formula: C4 H10 N2 O2
CAS: 36212-74-5
State: SOLID (0.9 mg / 650 mg KBr DISC)
Class: COBLENTZ III
Instrument: PERKIN-ELMER 21 (GRATING)
Instrument parameters: FILTER CHANGE ABOUT 1075 CM^-^1
Sampling: TRANSMISSION
Resolution: 2
Origin: SOUTHERN RESEARCH INSTITUTE
1/CM	TRANSMITTANCE
632	0.9952
641	0.9885
650	0.9795
659	0.9595
668	0.9155
677	0.9117
686	0.9251
695	0.9064
704	0.8653
713	0.6584
722	0.6777
731	0.6324
740	0.569
749	0.5609
758	0.5474
767	0.5803
776	0.6675
785	0.6245
794	0.6098
803	0.7347
812	0.6921
821	0.7123
830	0.76
839	0.7275
848	0.6769
857	0.2417
866	0.4475
875	0.7483
884	0.774
893	0.7599
902	0.7295
911	0.6315
920	0.2797
929	0.1894
938	0.5561
947	0.7542
956	0.6761
965	0.7548
974	0.767
983	0.647
992	0.7579
1001	0.7732
1010	0.7518
1019	0.7461
1028	0.7252
1037	0.6316
1046	0.6483
1055	0.7688
1064	0.7651
1073	0.8221
1082	0.7563
1091	0.6889
1100	0.4847
1109	0.6333
1118	0.6748
1127	0.5019
1136	0.4297
1145	0.5879
1154	0.7046
1163	0.7739
1172	0.7866
1181	0.7949
1190	0.7857
1199	0.7353
1208	0.755
1217	0.7997
1226	0.7959
1235	0.7832
1244	0.7631
1253	0.7253
1262	0.5826
1271	0.6893
1280	0.6332
1289	0.4597
1298	0.4725
1307	0.5459
1316	0.4332
1325	0.5015
1334	0.6017
1343	0.5152
1352	0.3455
1361	0.1622
1370	0.0575
1379	0.1398
1388	0.1819
1397	0.5042
1406	0.6278
1415	0.6369
1424	0.6064
1433	0.5204
1442	0.4527
1451	0.2744
1460	0.2321
1469	0.2723
1478	0.2989
1487	0.3788
1496	0.4167
1505	0.3671
1514	0.3067
1523	0.2466
1532	0.2782
1541	0.4312
1550	0.5389
1559	0.5327
1568	0.4879
1577	0.3944
1586	0.2741
1595	0.1996
1604	0.1219
1613	0.0244
1622	0.0068
1631	0.0368
1640	0.1785
1649	0.2728
1658	0.3491
1667	0.4733
1676	0.6527
1685	0.6776
1694	0.7598
1703	0.7794
1712	0.798
1721	0.812
1730	0.8215
1739	0.8239
1748	0.8255
1757	0.8253
1766	0.8249
1775	0.8279
1784	0.8338
1793	0.8382
1802	0.842
1811	0.8462
1820	0.8444
1829	0.8424
1838	0.8438
1847	0.8466
1856	0.849
1865	0.8466
1874	0.8388
1883	0.8343
1892	0.8323
1901	0.8311
1910	0.8303
1919	0.8328
1928	0.8387
1937	0.8412
1946	0.8315
1955	0.8281
1964	0.8242
1973	0.8206
1982	0.8162
1991	0.8103
2000	0.8028
2009	0.7938
2018	0.7837
2027	0.7728
2036	0.7689
2045	0.7527
2054	0.7386
2063	0.7247
2072	0.7083
2081	0.676
2090	0.6636
2099	0.6502
2108	0.6489
2117	0.6552
2126	0.6659
2135	0.6842
2144	0.6927
2153	0.6978
2162	0.7052
2171	0.717
2180	0.7189
2189	0.7195
2198	0.7189
2207	0.7209
2216	0.7175
2225	0.7128
2234	0.7146
2243	0.7159
2252	0.714
2261	0.7083
2270	0.7011
2279	0.69
2288	0.6747
2297	0.6576
2306	0.6385
2315	0.6174
2324	0.6131
2333	0.6042
2342	0.6021
2351	0.606
2360	0.6089
2369	0.6076
2378	0.5972
2387	0.5878
2396	0.5777
2405	0.5637
2414	0.5427
2423	0.5193
2432	0.4909
2441	0.4672
2450	0.4462
2459	0.4289
2468	0.4126
2477	0.3959
2486	0.3619
2495	0.3375
2504	0.319
2513	0.3186
2522	0.3198
2531	0.3198
2540	0.3184
2549	0.31
2558	0.2896
2567	0.2673
2576	0.2478
2585	0.2311
2594	0.2152
2603	0.2094
2612	0.2088
2621	0.2178
2630	0.217
2639	0.2131
2648	0.2051
2657	0.1953
2666	0.1857
2675	0.18
2684	0.1759
2693	0.1674
2702	0.1647
2711	0.1548
2720	0.1349
2729	0.1209
2738	0.1095
2747	0.0994
2756	0.0865
2765	0.0753
2774	0.0669
2783	0.0606
2792	0.0542
2801	0.0482
2810	0.0395
2819	0.0368
2828	0.0367
2837	0.0369
2846	0.0374
2855	0.0382
2864	0.0396
2873	0.0419
2882	0.0452
2891	0.0482
2900	0.0514
2909	0.0554
2918	0.0598
2927	0.0571
2936	0.0499
2945	0.0504
2954	0.0526
2963	0.0516
2972	0.0469
2981	0.0435
2990	0.0418
2999	0.0406
3008	0.0385
3017	0.0336
3026	0.0281
3035	0.0253
3044	0.0284
3053	0.034
3062	0.0425
3071	0.0533
3080	0.0614
3089	0.0848
3098	0.0963
3107	0.1034
3116	0.1079
3125	0.1124
3134	0.1218
3143	0.1363
3152	0.1553
3161	0.1685
3170	0.2109
3179	0.233
3188	0.2486
3197	0.272
3206	0.2954
3215	0.31
3224	0.3405
3233	0.3713
3242	0.3845
3251	0.3997
3260	0.435
3269	0.4484
3278	0.4668
3287	0.4848
3296	0.4995
3305	0.5074
3314	0.5139
3323	0.5243
3332	0.5306
3341	0.5337
3350	0.5353
3359	0.5361
3368	0.5371
3377	0.5376
3386	0.5405
3395	0.5454
3404	0.552
3413	0.5591
3422	0.568
3431	0.5852
3440	0.5988
3449	0.6154
3458	0.6204
3467	0.6293
3476	0.644
3485	0.6611
3494	0.6712
3503	0.6891
3512	0.704
3521	0.7177
3530	0.7311
3539	0.752
3548	0.7616
3557	0.7804
3566	0.7955
3575	0.8095
3584	0.8221
3593	0.8325
3602	0.8399
3611	0.8468
3620	0.8532
3629	0.8595
3638	0.8638
3647	0.8671
3656	0.8698
3665	0.8718
3674	0.8736
3683	0.875
3692	0.8762
3701	0.8767
3710	0.8771
3719	0.8765
3728	0.8749
3737	0.8728
3746	0.8712
3755	0.8703
3764	0.8708
3773	0.8713
3782	0.8718
3791	0.8746
3800	0.8765
3809	0.8768
3818	0.8773
3827	0.8774
3836	0.8773
3845	0.8773
3854	0.8775
3863	0.8779
3872	0.8778
3881	0.8773
3890	0.8748
3899	0.8728
3908	0.8735
3917	0.874
3926	0.8747
3935	0.8758
3944	0.8779
3953	0.8773
3962	0.8767
3971	0.8778
3980	0.8795
3989	0.8806
3998	0.8818
