Infrared Spectrum: 2,6-Dichlorobenzothiazole
Formula: C 7 H 3 Cl 2 N S
CAS: 3622-23-9
State: gas
Origin: EPA-IR VAPOR PHASE LIBRARY
1/CM	ABSORBANCE
549.8	0.003292
559.445	0.001842
569.09	0.002532
578.734	0.004572
588.379	0.005182
598.024	0.003042
607.669	0.001802
617.313	0.0011532
626.958	0.0010208
636.603	0.001872
646.248	0.0015918
655.893	0.003122
665.537	0.011222
675.182	0.014282
684.827	0.002952
694.472	0.001772
704.116	0.001872
713.761	0.002052
723.406	0.002972
733.051	0.004152
742.695	0.004752
752.34	0.025022
761.985	0.046422
771.63	0.016552
781.275	0.017652
790.919	0.007042
800.564	0.012552
810.209	0.033722
819.854	0.049682
829.498	0.025732
839.143	0.019582
848.788	0.030122
858.433	0.041042
868.078	0.063142
877.722	0.014952
887.367	0.009632
897.012	0.005512
906.657	0.003642
916.301	0.003982
925.946	0.004372
935.591	0.003622
945.236	0.003712
954.88	0.002212
964.525	0.002352
974.17	0.004202
983.815	0.008482
993.46	0.013672
1003.1	0.053722
1012.75	0.197702
1022.39	0.160762
1032.04	0.020872
1041.68	0.006882
1051.33	0.005142
1060.97	0.006162
1070.62	0.008002
1080.26	0.009522
1089.91	0.017822
1099.55	0.080992
1109.2	0.100062
1118.84	0.031172
1128.49	0.024352
1138.13	0.014332
1147.78	0.006212
1157.42	0.005222
1167.07	0.005992
1176.71	0.006482
1186.36	0.004662
1196	0.005642
1205.64	0.007612
1215.29	0.011062
1224.93	0.014712
1234.58	0.014992
1244.22	0.009132
1253.87	0.020952
1263.51	0.025692
1273.16	0.010582
1282.8	0.011792
1292.45	0.015242
1302.09	0.011362
1311.74	0.006192
1321.38	0.004112
1331.03	0.004242
1340.67	0.004012
1350.32	0.002882
1359.96	0.002832
1369.61	0.004932
1379.25	0.013262
1388.9	0.030952
1398.54	0.032582
1408.18	0.023952
1417.83	0.031702
1427.47	0.089262
1437.12	0.130302
1446.76	0.083132
1456.41	0.030732
1466.05	0.016672
1475.7	0.036222
1485.34	0.108502
1494.99	0.108752
1504.63	0.024662
1514.28	0.009622
1523.92	0.010292
1533.57	0.016542
1543.21	0.020272
1552.86	0.014632
1562.5	0.007572
1572.15	0.009152
1581.79	0.028062
1591.44	0.058802
1601.08	0.024442
1610.73	0.005272
1620.37	0.003202
1630.01	0.003902
1639.66	0.003762
1649.3	0.003582
1658.95	0.003402
1668.59	0.002682
1678.24	0.002802
1687.88	0.003092
1697.53	0.004102
1707.17	0.004722
1716.82	0.004122
1726.46	0.002422
1736.11	0.001762
1745.75	0.002272
1755.4	0.004122
1765.04	0.003592
1774.69	0.001822
1784.33	0.0014661
1793.98	0.0014438
1803.62	0.001752
1813.27	0.0012763
1822.91	0.0012866
1832.55	0.0013115
1842.2	0.0012513
1851.84	0.001237
1861.49	0.0013364
1871.13	0.002112
1880.78	0.003672
1890.42	0.004892
1900.07	0.003492
1909.71	0.001782
1919.36	0.0012054
1929	0.0011885
1938.65	0.0012339
1948.29	0.0012513
1957.94	0.0009489
1967.58	0.0009314
1977.23	0.0008937
1986.87	0.0009746
1996.52	0.00066078
2006.16	0.0006975
2015.81	0.00063592
2025.45	0.0010679
2035.1	0.000466
2044.74	0.00013
2054.38	1.8e-05
2064.03	0.000716
2073.67	0.00064098
2083.32	0.00063194
2092.96	0.00063665
2102.61	0.0007132
2112.25	0.0007902
2121.9	0.0008571
2131.54	0.0009875
2141.19	0.0008486
2150.83	0.0010623
2160.48	0.0011036
2170.12	0.0009799
2179.77	0.00064579
2189.41	0.0009496
2199.06	0.0007283
2208.7	0.0009785
2218.35	0.0007454
2227.99	0.0008245
2237.64	0.0010618
2247.28	0.0011736
2256.92	0.0011649
2266.57	0.0011017
2276.21	0.0010328
2285.86	0.0012688
2295.5	0.0012454
2305.15	0.0014421
2314.79	0.001326
2324.44	0.0011244
2334.08	0.0011737
2343.73	0.0010712
2353.37	0.000725
2363.02	0.0008095
2372.66	0.0010155
2382.31	0.0009139
2391.95	0.0008657
2401.6	0.0008247
2411.24	0.000601048
2420.89	0.0009084
2430.53	0.000872
2440.18	0.0008746
2449.82	0.001005
2459.47	0.0010429
2469.11	0.0007328
2478.75	0.000927
2488.4	0.0009951
2498.04	0.0012578
2507.69	0.001592
2517.33	0.0013781
2526.98	0.0013483
2536.62	0.0011316
2546.27	0.0012572
2555.91	0.0012818
2565.56	0.0011271
2575.2	0.0010184
2584.85	0.0007632
2594.49	0.001094
2604.14	0.0010006
2613.78	0.0009004
2623.43	0.0010054
2633.07	0.000893
2642.72	0.0013647
2652.36	0.0012852
2662.01	0.0014685
2671.65	0.001602
2681.29	0.0015836
2690.94	0.001992
2700.58	0.0011571
2710.23	0.0012189
2719.87	0.0008614
2729.52	0.0009304
2739.16	0.0007584
2748.81	0.000591873
2758.45	0.0008456
2768.1	0.00058234
2777.74	0.0011133
2787.39	0.0009525
2797.03	0.0010151
2806.68	0.0008518
2816.32	0.0010913
2825.97	0.0013739
2835.61	0.0010743
2845.26	0.00068852
2854.9	0.0010061
2864.55	0.0010423
2874.19	0.0005582
2883.84	0.0010583
2893.48	0.0008562
2903.12	0.0014263
2912.77	0.001712
2922.41	0.001762
2932.06	0.0015415
2941.7	0.0014139
2951.35	0.002162
2960.99	0.003202
2970.64	0.003232
2980.28	0.0014329
2989.93	0.0008575
2999.57	0.000594905
3009.22	0.0007007
3018.86	0.0008002
3028.51	0.0008347
3038.15	0.0007322
3047.8	0.0010632
3057.44	0.0011164
3067.09	0.002682
3076.73	0.003062
3086.38	0.003492
3096.02	0.002602
3105.67	0.001253
3115.31	0.0007785
3124.95	0.000338
3134.6	0.0011052
3144.24	0.0008688
3153.89	0.000433
3163.53	0.000436
3173.18	0.000485
3182.82	0.0010666
3192.47	0.0009538
3202.11	0.001135
3211.76	0.00062801
3221.4	0.0009316
3231.05	0.0008008
3240.69	0.0007253
3250.34	0.000362
3259.98	0.000562
3269.63	0.000600236
3279.27	0.0007649
3288.92	0.0005606
3298.56	0.0007246
3308.21	0.0009575
3317.85	0.0007004
3327.49	0.0005543
3337.14	0.0009939
3346.78	0.0009018
3356.43	0.0010663
3366.07	0.0007599
3375.72	0.000487
3385.36	0.0012839
3395.01	0.0009804
3404.65	0.00068725
3414.3	0.00065961
3423.94	0.000338
3433.59	0.00062966
3443.23	0.000396
3452.88	0.0008111
3462.52	0.0007491
3472.17	0.0011741
3481.81	0.00063004
3491.46	0.0009669
3501.1	0.0008185
3510.75	0.0010966
3520.39	0.0008538
3530.04	0.00067422
3539.68	0.000685
3549.32	0.000389
3558.97	0.0007146
3568.61	0.0010343
3578.26	0.00065756
3587.9	0.0005233
3597.55	0.0005677
3607.19	0.0005674
3616.84	0.00063915
3626.48	0.0008546
3636.13	0.0008486
3645.77	0.0007775
3655.42	0.0009542
3665.06	0.0007537
3674.71	0.0007109
3684.35	0.0010974
3694	0.0005775
3703.64	0.00061588
3713.29	0.0005569
3722.93	0.0009614
3732.58	0.0010488
3742.22	0.0009325
3751.86	0.00067803
3761.51	0.0010688
3771.15	0.0013342
3780.8	0.000259
3790.44	0.0005172
3800.09	0.00058
3809.73	0.0011285
3819.38	0.00047
3829.02	0.0008779
3838.67	0.000301
3848.31	0.0005498
3857.96	0.0012084
3867.6	0.0011715
3877.25	0.0009323
3886.89	0.001035
3896.54	0.0010221
3906.18	0.000447
3915.83	2.9e-05
3925.47	0.0005225
3935.12	0.0011091
3944.76	0.0013938
3954.41	0.0012587
3964.05	0.0011257
3973.69	0.0011774
3983.34	0.0011912
3992.98	0.0011698
