Infrared Spectrum: 1,2,3,4,5,8-Hexahydronaphthalene
Formula: C 10 H 14
CAS: 36231-13-7
State: gas
Instrument: HP-GC/MS/IRD
Origin: NIST Mass Spectrometry Data Center
1/CM	ABSORBANCE
550	0.0005423
562	3.77e-05
574	0.0001856
586	0.0001798
598	0.0001856
610	3.19e-05
622	0.0002204
634	0.0004147
646	0.0020242
658	0.0049184
670	0.0037381
682	0.0012122
694	0.0001914
706	0.000203
718	0.0004147
730	0.0011078
742	0.0016675
754	0.0008323
766	0.0003712
778	0.0005162
790	0.0003567
802	0.0003277
814	0.000319
826	0.0002146
838	0.0001914
850	0.000348
862	0.0006148
874	0.0006757
886	0.0004118
898	0.0003074
910	0.0002349
922	0.0003422
934	0.0007656
946	0.0013456
958	0.0008787
970	0.0004872
982	0.0006844
994	0.0008265
1006	0.000406
1018	0.0002088
1030	0.000116
1042	0.0001392
1054	8.41e-05
1066	8.41e-05
1078	9.86e-05
1090	0.0001479
1102	0.0003306
1114	0.0006641
1126	0.0009251
1138	0.0005307
1150	0.0002378
1162	0.0002407
1174	0.00029
1186	0.0002146
1198	0.0001595
1210	0.0001508
1222	0.0001479
1234	0.0002204
1246	0.0003886
1258	0.0004814
1270	0.0006438
1282	0.0005452
1294	0.0002639
1306	0.0001508
1318	0.0002755
1330	0.0004292
1342	0.0004466
1354	0.0002117
1366	0.0001073
1378	0.0001073
1390	0.0001392
1402	0.000174
1414	0.000348
1426	0.0010585
1438	0.0022446
1450	0.0026303
1462	0.0016095
1474	0.000754
1486	0.0005133
1498	0.0004698
1510	0.0001653
1522	0.0001044
1534	4.64e-05
1546	9.28e-05
1558	8.99e-05
1570	9.57e-05
1582	0.000145
1594	0.0001943
1606	0.0002146
1618	0.0003625
1630	0.0004959
1642	0.0007569
1654	0.0009019
1666	0.000493
1678	0.0001827
1690	0.0002784
1702	0.000261
1714	0.0001044
1726	7.25e-05
1738	5.8e-05
1750	6.67e-05
1762	5.51e-05
1774	6.38e-05
1786	6.96e-05
1798	9.86e-05
1810	0.0001218
1822	0.0001073
1834	7.54e-05
1846	4.64e-05
1858	6.38e-05
1870	9.57e-05
1882	0.0001537
1894	0.0001392
1906	9.86e-05
1918	0.000116
1930	0.0001044
1942	0.0001102
1954	6.67e-05
1966	4.93e-05
1978	8.12e-05
1990	5.8e-05
2002	4.93e-05
2014	2.9e-05
2026	8.12e-05
2038	7.83e-05
2050	7.25e-05
2062	4.93e-05
2074	3.77e-05
2086	6.96e-05
2098	7.54e-05
2110	6.09e-05
2122	5.51e-05
2134	6.67e-05
2146	5.8e-05
2158	6.09e-05
2170	6.96e-05
2182	7.54e-05
2194	6.96e-05
2206	4.06e-05
2218	7.54e-05
2230	6.09e-05
2242	9.28e-05
2254	8.7e-05
2266	8.41e-05
2278	8.41e-05
2290	9.28e-05
2302	0.0001015
2314	0.0001305
2326	0.0001421
2338	0.0001305
2350	0.000116
2362	0.0001247
2374	8.41e-05
2386	7.83e-05
2398	6.67e-05
2410	8.12e-05
2422	8.41e-05
2434	9.28e-05
2446	7.54e-05
2458	7.54e-05
2470	4.64e-05
2482	6.96e-05
2494	6.96e-05
2506	0.0001131
2518	0.0001015
2530	0.000116
2542	0.0001131
2554	9.57e-05
2566	0.0001363
2578	0.0001566
2590	0.0001392
2602	0.0001827
2614	0.0002175
2626	0.0002465
2638	0.0003045
2650	0.0005365
2662	0.0007366
2674	0.0007047
2686	0.0006003
2698	0.0005423
2710	0.0006235
2722	0.0006496
2734	0.0006061
2746	0.0006409
2758	0.0007192
2770	0.0009309
2782	0.0012325
2794	0.0018415
2806	0.0034626
2818	0.0084361
2830	0.0134183
2842	0.0153468
2854	0.0169766
2866	0.01798
2878	0.0186847
2890	0.0170578
2902	0.0150046
2914	0.0152047
2926	0.0206248
2938	0.029
2950	0.0202101
2962	0.0054172
2974	0.0026651
2986	0.0022678
2998	0.0017603
3010	0.0018473
3022	0.0042601
3034	0.0098571
3046	0.0071717
3058	0.0018966
3070	0.0014471
3082	0.0010179
3094	0.00058
3106	0.000377
3118	0.0002552
3130	0.0002262
3142	0.0002175
3154	0.0002726
3166	0.0001711
3178	0.0001392
3190	0.0001305
3202	9.28e-05
3214	0.0001044
3226	0.0001421
3238	0.000174
3250	0.0001334
3262	0.0001015
3274	7.54e-05
3286	7.54e-05
3298	0.0001131
3310	7.54e-05
3322	8.7e-05
3334	9.28e-05
3346	0.0001131
3358	6.09e-05
3370	0.0001595
3382	0.0001334
3394	7.25e-05
3406	6.38e-05
3418	4.35e-05
3430	4.06e-05
3442	0.0001015
3454	7.25e-05
3466	4.35e-05
3478	8.41e-05
3490	0.0001015
3502	0.0001044
3514	0.0001537
3526	0.0001653
3538	8.99e-05
3550	0.000116
3562	6.38e-05
3574	0.0001102
3586	8.12e-05
3598	8.12e-05
3610	0.0001276
3622	9.86e-05
3634	0.0001218
3646	0.0001566
3658	0.0001334
3670	0.0001102
3682	0.0001914
3694	0.0001392
3706	0.0001131
3718	0.0002001
3730	0.0001653
3742	0.0002233
3754	0.0002088
3766	0.0002291
3778	0.0001769
3790	0.0001914
3802	0.0002262
3814	0.0002204
3826	0.0001711
3838	0.0002407
