Infrared Spectrum: Diisopropyl phenylphosphonite
Formula: C 12 H 19 O 2 P
CAS: 36238-99-0
State: gas
Origin: EPA-IR VAPOR PHASE LIBRARY
1/CM	ABSORBANCE
549.8	0.010677
559.445	0.006077
569.09	0.002817
578.735	0.002347
588.38	0.0016964
598.025	0.0012571
607.67	0.0017495
617.315	0.001937
626.96	0.0018187
636.605	0.0017957
646.251	0.002317
655.896	0.003147
665.541	0.004697
675.186	0.007477
684.831	0.014077
694.476	0.032287
704.121	0.033397
713.766	0.023607
723.411	0.025247
733.056	0.036797
742.701	0.041887
752.346	0.036287
761.991	0.022847
771.636	0.009317
781.281	0.005157
790.926	0.003777
800.571	0.003367
810.216	0.003297
819.861	0.004187
829.507	0.007107
839.152	0.015657
848.797	0.038127
858.442	0.065407
868.087	0.046587
877.732	0.018847
887.377	0.010307
897.022	0.009527
906.667	0.011467
916.312	0.016577
925.957	0.029387
935.602	0.061277
945.247	0.119797
954.892	0.165247
964.537	0.144357
974.182	0.116547
983.827	0.083797
993.472	0.037857
1003.12	0.021517
1012.76	0.014917
1022.41	0.012007
1032.05	0.009637
1041.7	0.007787
1051.34	0.007487
1060.99	0.007787
1070.63	0.008757
1080.28	0.012887
1089.92	0.026847
1099.57	0.052927
1109.21	0.067177
1118.86	0.063017
1128.5	0.055937
1138.15	0.042427
1147.79	0.028067
1157.44	0.020477
1167.08	0.020777
1176.73	0.017797
1186.37	0.008467
1196.02	0.004857
1205.66	0.004217
1215.31	0.003987
1224.95	0.003817
1234.6	0.003577
1244.24	0.003377
1253.89	0.003607
1263.53	0.004037
1273.18	0.003787
1282.82	0.003597
1292.47	0.004287
1302.11	0.005627
1311.76	0.005767
1321.4	0.007057
1331.05	0.010927
1340.69	0.017797
1350.34	0.021807
1359.98	0.017167
1369.63	0.022537
1379.27	0.033647
1388.92	0.032297
1398.56	0.011597
1408.21	0.006017
1417.85	0.005457
1427.5	0.007887
1437.14	0.010537
1446.79	0.008607
1456.43	0.009287
1466.08	0.008627
1475.73	0.007317
1485.37	0.005207
1495.02	0.002817
1504.66	0.002187
1514.31	0.0017916
1523.95	0.0017026
1533.6	0.0017624
1543.24	0.0017902
1552.89	0.001651
1562.53	0.0016753
1572.18	0.001877
1581.82	0.002027
1591.47	0.002157
1601.11	0.002157
1610.76	0.002117
1620.4	0.002027
1630.05	0.002077
1639.69	0.002287
1649.34	0.002797
1658.98	0.003147
1668.63	0.003267
1678.27	0.003107
1687.92	0.003157
1697.56	0.003347
1707.21	0.003367
1716.85	0.003337
1726.5	0.002917
1736.14	0.002497
1745.79	0.001977
1755.43	0.0018236
1765.08	0.0016149
1774.72	0.0015364
1784.37	0.0013137
1794.01	0.0016592
1803.66	0.002277
1813.3	0.002237
1822.95	0.0016686
1832.59	0.0014755
1842.24	0.0013467
1851.88	0.0014309
1861.53	0.0014996
1871.17	0.0018157
1880.82	0.002147
1890.46	0.002297
1900.11	0.0017864
1909.75	0.0014508
1919.4	0.0012383
1929.04	0.0012153
1938.69	0.0015128
1948.33	0.001867
1957.98	0.001877
1967.62	0.0012814
1977.27	0.00087229
1986.91	0.000753
1996.56	0.000692
2006.2	0.000622
2015.85	0.000686
2025.49	0.000689
2035.14	0.000687
2044.78	0.0007914
2054.43	0.00089611
2064.07	0.0009572
2073.72	0.000864813
2083.36	0.00088096
2093.01	0.0007929
2102.65	0.000721
2112.3	0.00066
2121.94	0.000632
2131.59	0.000577
2141.23	0.000528
2150.88	0.000513
2160.52	0.000539
2170.17	0.000503
2179.81	0.000517
2189.46	0.00059
2199.1	0.000578
2208.75	0.000632
2218.39	0.00069
2228.04	0.000688
2237.68	0.000738
2247.33	0.0008095
2256.97	0.000743
2266.62	0.000611
2276.26	0.000689
2285.91	0.000649
2295.55	0.000724
2305.2	0.0008103
2314.84	0.000861794
2324.49	0.0008427
2334.13	0.00086846
2343.78	0.0007778
2353.42	0.000741
2363.07	0.000679
2372.72	0.000681
2382.36	0.000599
2392.01	0.000546
2401.65	0.00038
2411.3	0.000439
2420.94	0.000389
2430.59	0.000341
2440.23	0.000349
2449.88	0.000488
2459.52	0.000504
2469.17	0.000494
2478.81	0.000519
2488.46	0.000532
2498.1	0.000574
2507.75	0.00045
2517.39	0.000515
2527.04	0.000465
2536.68	0.000408
2546.33	0.000377
2555.97	0.00042
2565.62	0.000356
2575.26	0.000364
2584.91	0.0005
2594.55	0.000515
2604.2	0.000566
2613.84	0.000723
2623.49	0.0007919
2633.13	0.00092051
2642.78	0.0010647
2652.42	0.00087834
2662.07	0.0007673
2671.71	0.000673
2681.36	0.0008171
2691	0.0008137
2700.65	0.0008088
2710.29	0.00073
2719.94	0.00085303
2729.58	0.0012961
2739.23	0.0011693
2748.87	0.0010258
2758.52	0.00093431
2768.16	0.00093642
2777.81	0.0009853
2787.45	0.0009986
2797.1	0.0012603
2806.74	0.0015102
2816.39	0.002007
2826.03	0.002167
2835.68	0.002347
2845.32	0.003037
2854.97	0.004337
2864.61	0.007267
2874.26	0.012797
2883.9	0.017327
2893.55	0.017447
2903.19	0.016247
2912.84	0.016327
2922.48	0.019497
2932.13	0.028667
2941.77	0.030667
2951.42	0.021477
2961.06	0.023377
2970.71	0.049787
2980.35	0.080917
2990	0.044967
2999.64	0.021347
3009.29	0.013337
3018.93	0.009697
3028.58	0.006417
3038.22	0.005757
3047.87	0.007887
3057.51	0.017817
3067.16	0.021577
3076.8	0.015107
3086.45	0.009287
3096.09	0.004907
3105.74	0.002557
3115.38	0.002047
3125.03	0.001548
3134.67	0.0017341
3144.32	0.0017452
3153.96	0.0014594
3163.61	0.001173
3173.25	0.0012314
3182.9	0.0011871
3192.54	0.0012134
3202.19	0.0010986
3211.83	0.000858719
3221.48	0.000764
3231.12	0.000595
3240.77	0.000321
3250.41	0.000221
3260.06	0.000186
3269.7	0.000162
3279.35	0.000263
3289	0.000114
3298.64	0.000366
3308.29	0.000164
3317.93	0.000284
3327.58	0.00023
3337.22	0.000342
3346.87	0.000246
3356.51	0.000359
3366.16	0.000464
3375.8	0.000368
3385.45	0.000493
3395.09	0.000445
3404.74	0.000429
3414.38	0.000354
3424.03	0.000341
3433.67	0.000311
3443.32	0.000448
3452.96	0.000306
3462.61	0.0004
3472.25	0.000205
3481.9	0.000215
3491.54	0.000195
3501.19	0.000213
3510.83	0.00015
3520.48	0.00034
3530.12	0.000139
3539.77	8.9e-05
3549.41	0.000231
3559.06	0.000139
3568.7	0.000176
3578.35	0.000285
3587.99	0.000364
3597.64	0.000192
3607.28	0.000268
3616.93	0.000334
3626.57	0.000546
3636.22	0.000193
3645.86	0.000288
3655.51	0.000151
3665.15	0.000342
3674.8	0.000461
3684.44	0.000388
3694.09	0.000612
3703.73	0.000278
3713.38	0.000281
3723.02	0.000283
3732.67	0.000337
3742.31	0.000309
3751.96	0.000266
3761.6	0.000362
3771.25	0.000401
3780.89	0.000308
3790.54	0.000313
3800.18	0.000372
3809.83	0.00045
3819.47	0.000506
3829.12	0.000265
3838.76	0.000509
3848.41	0.00035
3858.05	0.000317
3867.7	0.000334
3877.34	0.000272
3886.99	0.000216
3896.63	0.000239
3906.28	0.000143
3915.92	0.000355
3925.57	0.000314
3935.21	0.000167
3944.86	0.000218
3954.5	0.000317
3964.15	0.000307
3973.79	0.000142
3983.44	0.000189
3993.08	0.000245
