Infrared Spectrum: o-(p-Toluylsulfonamido)aniline
Formula: C 13 H 14 N 2 O 2 S
CAS: 3624-90-6
State: gas
Instrument: HP-GC/MS/IRD
Origin: NIST Mass Spectrometry Data Center
1/CM	ABSORBANCE
550	0.006723
562	0.0058968
574	0.006714
586	0.00405
598	0.0015822
610	0.0014022
622	0.0021114
634	0.0026136
646	0.0041184
658	0.0078714
670	0.005931
682	0.003609
694	0.0025164
706	0.0029952
718	0.0039708
730	0.002934
742	0.0061578
754	0.0034866
766	0.0019566
778	0.0017388
790	0.0018666
802	0.002907
814	0.0048366
826	0.003537
838	0.0026946
850	0.0018414
862	0.0014364
874	0.0011988
886	0.0021492
898	0.0038556
910	0.0037494
922	0.0023814
934	0.0022338
946	0.0010602
958	0.0004806
970	0.0002934
982	0.000189
994	0.0001404
1006	0.0001674
1018	0.0003474
1030	0.000423
1042	0.0005472
1054	0.0002394
1066	0.0002988
1078	0.000918
1090	0.0042228
1102	0.0024768
1114	0.0006696
1126	0.000612
1138	0.0010638
1150	0.002691
1162	0.01251
1174	0.0148608
1186	0.0033606
1198	0.0016866
1210	0.0017262
1222	0.0006174
1234	0
1246	0.0003672
1258	0.0009198
1270	0.001431
1282	0.0018342
1294	0.0025506
1306	0.0035406
1318	0.003222
1330	0.0037134
1342	0.0037098
1354	0.0030222
1366	0.0030816
1378	0.0054288
1390	0.0094284
1402	0.007002
1414	0.0032184
1426	0.0015408
1438	0.0010746
1450	0.0013266
1462	0.0020556
1474	0.0017766
1486	0.0036324
1498	0.006714
1510	0.0044082
1522	0.0014706
1534	0.0007686
1546	0.0005976
1558	0.0005724
1570	0.000936
1582	0.001602
1594	0.0026802
1606	0.0031158
1618	0.0044208
1630	0.0055746
1642	0.0026568
1654	0.0009918
1666	0.000477
1678	0.0002628
1690	0.0001476
1702	6.12e-05
1714	2.7e-05
1726	1.8e-05
1738	4.5e-05
1750	0.0001026
1762	0.0001242
1774	0.0001656
1786	0.000189
1798	0.00027
1810	0.0001422
1822	9.54e-05
1834	7.38e-05
1846	8.28e-05
1858	0.0001062
1870	0.0001332
1882	0.000234
1894	0.0002772
1906	0.0003762
1918	0.0004374
1930	0.0002394
1942	0.0001188
1954	8.28e-05
1966	5.94e-05
1978	7.02e-05
1990	6.48e-05
2002	8.28e-05
2014	4.5e-05
2026	8.64e-05
2038	7.38e-05
2050	8.82e-05
2062	9.54e-05
2074	8.1e-05
2086	8.82e-05
2098	6.48e-05
2110	9.18e-05
2122	6.3e-05
2134	7.92e-05
2146	8.46e-05
2158	8.1e-05
2170	8.28e-05
2182	0.0001206
2194	0.0001278
2206	0.0001278
2218	8.64e-05
2230	8.82e-05
2242	0.0001332
2254	0.0001278
2266	0.0001242
2278	0.000153
2290	0.0001494
2302	0.0001584
2314	0.0001314
2326	0.0001224
2338	0.0001224
2350	0.0001008
2362	0.0001044
2374	8.28e-05
2386	0.0001566
2398	0.0001458
2410	0.0001422
2422	0.0001548
2434	0.0001512
2446	0.0001476
2458	0.0001566
2470	0.0001494
2482	0.0001854
2494	0.00018
2506	0.0001998
2518	0.0001926
2530	0.000243
2542	0.0002304
2554	0.0002178
2566	0.00027
2578	0.000288
2590	0.0002448
2602	0.000306
2614	0.0002682
2626	0.0002412
2638	0.000216
2650	0.0002808
2662	0.0002232
2674	0.0002538
2686	0.0002556
2698	0.000261
2710	0.000207
2722	0.000261
2734	0.0003006
2746	0.0003204
2758	0.0003042
2770	0.000315
2782	0.000297
2794	0.0003294
2806	0.00036
2818	0.0003456
2830	0.0003816
2842	0.000414
2854	0.0005202
2866	0.0007146
2878	0.00099
2890	0.0009
2902	0.0008244
2914	0.0009414
2926	0.001332
2938	0.0017244
2950	0.0010908
2962	0.0008172
2974	0.0007074
2986	0.0008064
2998	0.0009216
3010	0.0011106
3022	0.0016974
3034	0.0027378
3046	0.0026802
3058	0.002088
3070	0.0023382
3082	0.0019026
3094	0.0013662
3106	0.0007344
3118	0.0005238
3130	0.000468
3142	0.0004374
3154	0.0003888
3166	0.0003708
3178	0.000333
3190	0.000378
3202	0.0004302
3214	0.0004266
3226	0.0004212
3238	0.0004248
3250	0.000459
3262	0.0003996
3274	0.0003888
3286	0.0004158
3298	0.0004176
3310	0.0003996
3322	0.000486
3334	0.000477
3346	0.0007344
3358	0.0010494
3370	0.0017712
3382	0.0030204
3394	0.0035226
3406	0.0024192
3418	0.001188
3430	0.0006786
3442	0.0005688
3454	0.000639
3466	0.000873
3478	0.001197
3490	0.0015498
3502	0.0012078
3514	0.0007452
3526	0.0004338
3538	0.0002826
3550	0.0002484
3562	0.0002178
3574	0.000234
3586	0.0001512
3598	0.0001692
3610	0.000162
3622	0.0001584
3634	0.0001926
3646	0.000216
3658	0.000189
3670	0.0001764
3682	0.0002358
3694	0.0001872
3706	0.0001746
3718	0.0001746
3730	0.0002034
3742	0.0001926
3754	0.0002142
3766	0.0002592
3778	0.0003006
3790	0.0002826
3802	0.0001746
3814	0.0002538
3826	0.0002538
3838	0.0002304
