Infrared Spectrum: Cinnamic acid, 2-hydroxy-3-methoxy-
Formula: C10 H10 O4
CAS: 3626-94-6
State: SOLID (OIL MULL)
Class: COBLENTZ III
Instrument: CARY 90 (GRATING)
Instrument parameters: GRATING CHANGES: 3000, 2000, 1200 CM^-^1
Sampling: TRANSMISSION
Resolution: 2
Origin: WESTERN REGIONAL RES. USDA
1/CM	TRANSMITTANCE
473	0.9402
482	0.9352
491	0.9044
500	0.835
509	0.9172
518	0.953
527	0.9726
536	0.989
545	1.0027
554	1.0129
563	1.0164
572	0.9985
581	0.9614
590	0.9931
599	0.9763
608	0.9413
617	0.9746
626	0.9842
635	0.9882
644	0.9886
653	0.9889
662	0.9929
671	0.9902
680	0.9626
689	0.8447
698	0.9916
707	1.0167
716	1.0014
725	0.9678
734	0.9425
743	1.0052
752	1.0214
761	1.0263
770	1.021
779	0.8676
788	1.0056
797	1.0201
806	1.0215
815	1.02
824	1.0134
833	0.9995
842	0.9853
851	0.9997
860	0.9966
869	0.986
878	0.894
887	0.9895
896	0.9872
905	0.9714
914	0.9479
923	0.9195
932	0.8803
941	0.8369
950	0.874
959	0.7677
968	0.9103
977	0.7391
986	0.9489
995	0.97
1004	0.9735
1013	0.9724
1022	0.9684
1031	0.9602
1040	0.9537
1049	0.9496
1058	0.9432
1067	0.9183
1076	0.8608
1085	0.4994
1094	0.8917
1103	0.9556
1112	0.97
1121	0.9729
1130	0.9702
1139	0.9642
1148	0.9541
1157	0.9259
1166	0.8263
1175	0.8803
1184	0.7725
1193	0.7426
1202	0.6923
1211	0.661
1220	0.6505
1229	0.434
1238	0.5364
1247	0.4229
1256	0.3694
1265	0.6637
1274	0.766
1283	0.5954
1292	0.4379
1301	0.62
1310	0.7708
1319	0.7234
1328	0.663
1337	0.7655
1346	0.8455
1355	0.8036
1364	0.7366
1373	0.773
1382	0.7728
1391	0.8636
1400	0.8171
1409	0.6719
1418	0.6633
1427	0.8147
1436	0.7048
1445	0.4942
1454	0.4626
1463	0.4907
1472	0.4498
1481	0.7731
1490	0.5929
1499	0.8915
1508	0.938
1517	0.9465
1526	0.9553
1535	0.9494
1544	0.9475
1553	0.9405
1562	0.9267
1571	0.9054
1580	0.8773
1589	0.8393
1598	0.7801
1607	0.5933
1616	0.4894
1625	0.4891
1634	0.7921
1643	0.7902
1652	0.5923
1661	0.4295
1670	0.3979
1679	0.4183
1688	0.558
1697	0.8124
1706	0.8935
1715	0.9474
1724	0.9626
1733	0.9712
1742	0.9749
1751	0.9752
1760	0.9743
1769	0.973
1778	0.9691
1787	0.9654
1796	0.9619
1805	0.959
1814	0.9567
1823	0.9554
1832	0.9554
1841	0.9556
1850	0.9547
1859	0.9544
1868	0.9544
1877	0.9545
1886	0.9548
1895	0.9551
1904	0.9553
1913	0.9554
1922	0.9573
1931	0.9591
1940	0.9603
1949	0.9596
1958	0.9574
1967	0.9558
1976	0.9564
1985	0.9572
1994	0.9561
2003	0.9452
2012	0.9396
2021	0.9399
2030	0.9415
2039	0.9435
2048	0.945
2057	0.9454
2066	0.9447
2075	0.9438
2084	0.943
2093	0.9417
2102	0.9402
2111	0.9386
2120	0.9371
2129	0.9355
2138	0.9341
2147	0.9327
2156	0.9314
2165	0.9299
2174	0.9285
2183	0.9268
2192	0.9252
2201	0.9235
2210	0.9219
2219	0.9202
2228	0.9183
2237	0.9157
2246	0.9132
2255	0.9107
2264	0.9082
2273	0.9057
2282	0.903
2291	0.8998
2300	0.8967
2309	0.8934
2318	0.8903
2327	0.8871
2336	0.8837
2345	0.88
2354	0.8764
2363	0.8727
2372	0.869
2381	0.8652
2390	0.8604
2399	0.8555
2408	0.8506
2417	0.8457
2426	0.8391
2435	0.8319
2444	0.8247
2453	0.8174
2462	0.8094
2471	0.8007
2480	0.7922
2489	0.7837
2498	0.7769
2507	0.7701
2516	0.7665
2525	0.7653
2534	0.7651
2543	0.7659
2552	0.7706
2561	0.7675
2570	0.7687
2579	0.77
2588	0.7714
2597	0.7733
2606	0.7758
2615	0.7783
2624	0.7804
2633	0.7811
2642	0.7778
2651	0.7702
2660	0.7636
2669	0.759
2678	0.7607
2687	0.7628
2696	0.7651
2705	0.7685
2714	0.7724
2723	0.7834
2732	0.7926
2741	0.7928
2750	0.7886
2759	0.7823
2768	0.7736
2777	0.7629
2786	0.7494
2795	0.7314
2804	0.7107
2813	0.6847
2822	0.6457
2831	0.5365
2840	0.3845
2849	0.2718
2858	0.2821
2867	0.3202
2876	0.3851
2885	0.3839
2894	0.3291
2903	0.2706
2912	0.1488
2921	0.0999
2930	0.1421
2939	0.1877
2948	0.1709
2957	0.2206
2966	0.3579
2975	0.4926
2984	0.6155
2993	0.6616
3002	0.688
3011	0.7047
3020	0.7168
3029	0.7286
3038	0.7432
3047	0.7536
3056	0.7544
3065	0.763
3074	0.78
3083	0.791
3092	0.7946
3101	0.8012
3110	0.811
3119	0.8205
3128	0.8269
3137	0.8331
3146	0.8374
3155	0.8406
3164	0.8423
3173	0.8438
3182	0.8453
3191	0.8468
3200	0.8484
3209	0.8499
3218	0.8572
3227	0.8523
3236	0.8527
3245	0.8527
3254	0.8506
3263	0.8482
3272	0.8449
3281	0.8414
3290	0.8339
3299	0.8253
3308	0.8152
3317	0.8049
3326	0.7894
3335	0.7723
3344	0.7549
3353	0.7403
3362	0.7468
3371	0.7549
3380	0.7578
3389	0.7422
3398	0.6969
3407	0.6182
3416	0.6229
3425	0.6873
3434	0.7568
3443	0.8188
3452	0.8538
3461	0.8703
3470	0.8807
3479	0.8858
3488	0.8911
3497	0.8968
3506	0.9014
3515	0.9048
3524	0.9051
3533	0.903
3542	0.9128
3551	0.9179
3560	0.9188
3569	0.9185
3578	0.9182
3587	0.9177
3596	0.9173
3605	0.9168
3614	0.9168
3623	0.9167
3632	0.9167
3641	0.9164
3650	0.9158
3659	0.9152
3668	0.9146
3677	0.9133
3686	0.9121
3695	0.9108
3704	0.9098
3713	0.9091
3722	0.9085
3731	0.9078
3740	0.9072
3749	0.9065
3758	0.9059
3767	0.9052
3776	0.9046
3785	0.904
3794	0.9034
3803	0.9026
3812	0.9016
3821	0.9006
3830	0.8996
3839	0.8987
3848	0.8978
3857	0.897
3866	0.8962
3875	0.8952
3884	0.8943
3893	0.8933
3902	0.8923
3911	0.8912
3920	0.89
3929	0.8888
3938	0.8876
3947	0.8863
3956	0.885
3965	0.8837
3974	0.882
3983	0.8806
3992	0.8797
