Infrared Spectrum: 4-ImidazoleCarboxylic acid, 5-(dibutyl-1-triazeno)-, methyl ester
Formula: C13 H23 N5 O2
CAS: 36295-91-7
State: SOLID (1 mg / 650 mg KBr DISC)
Class: COBLENTZ III
Instrument: PERKIN-ELMER 521 (GRATING)
Instrument parameters: FILTERS AT 3130, 2475, 2000, 1150, 700, 410. GRATING CHANGES: 2000, 620 CM^-^1
Sampling: TRANSMISSION
Resolution: 2
Origin: SOUTHERN RESEARCH INSTITUTE
1/CM	TRANSMITTANCE
250	0.2805
260.04	0.34
270.08	0.3997
280.12	0.4669
290.16	0.5218
300.2	0.577
310.24	0.6092
320.28	0.6284
330.32	0.6515
340.36	0.6539
350.4	0.6531
360.44	0.7059
370.48	0.7421
380.52	0.7508
390.56	0.7558
400.6	0.7603
410.64	0.7645
420.68	0.7688
430.72	0.7717
440.76	0.7777
450.8	0.7801
460.84	0.7783
470.88	0.7729
480.92	0.7759
490.96	0.7798
501	0.774
511.04	0.769
521.08	0.7755
531.12	0.8081
541.16	0.8063
551.2	0.7939
561.24	0.7732
571.28	0.7677
581.32	0.7794
591.36	0.7854
601.4	0.7695
611.44	0.7302
621.48	0.584
631.52	0.6844
641.56	0.6728
651.6	0.6548
661.64	0.8028
671.68	0.8067
681.72	0.7994
691.76	0.7915
701.8	0.8003
711.84	0.7804
721.88	0.7375
731.92	0.7291
741.96	0.7583
752	0.7879
762.04	0.7574
772.08	0.5684
782.12	0.5489
792.16	0.7182
802.2	0.6911
812.24	0.7419
822.28	0.7377
832.32	0.7081
842.36	0.6672
852.4	0.6724
862.44	0.6293
872.48	0.6283
882.52	0.6881
892.56	0.6516
902.6	0.6259
912.64	0.6475
922.68	0.6165
932.72	0.577
942.76	0.567
952.8	0.6211
962.84	0.6491
972.88	0.6045
982.92	0.6466
992.96	0.71
1003	0.6976
1013.04	0.6934
1023.08	0.6726
1033.12	0.6379
1043.16	0.5771
1053.2	0.4787
1063.24	0.2489
1073.28	0.2274
1083.32	0.4557
1093.36	0.5278
1103.4	0.487
1113.44	0.4217
1123.48	0.4937
1133.52	0.4737
1143.56	0.3024
1153.6	0.2858
1163.64	0.4014
1173.68	0.4116
1183.72	0.3067
1193.76	0.3022
1203.8	0.4202
1213.84	0.6356
1223.88	0.6646
1233.92	0.5771
1243.96	0.4117
1254	0.4523
1264.04	0.4433
1274.08	0.454
1284.12	0.3954
1294.16	0.3669
1304.2	0.2937
1314.24	0.2577
1324.28	0.2747
1334.32	0.3569
1344.36	0.3413
1354.4	0.1581
1364.44	0.1591
1374.48	0.2457
1384.52	0.1894
1394.56	0.2386
1404.6	0.4117
1414.64	0.414
1424.68	0.3064
1434.72	0.2152
1444.76	0.2389
1454.8	0.2653
1464.84	0.3644
1474.88	0.4305
1484.92	0.5725
1494.96	0.5537
1505	0.4081
1515.04	0.5921
1525.08	0.7256
1535.12	0.7203
1545.16	0.5799
1555.2	0.4713
1565.24	0.5749
1575.28	0.7045
1585.32	0.7823
1595.36	0.7883
1605.4	0.7815
1615.44	0.7665
1625.48	0.7463
1635.52	0.727
1645.56	0.6937
1655.6	0.6417
1665.64	0.5735
1675.68	0.3955
1685.72	0.0873
1695.76	0.0778
1705.8	0.1194
1715.84	0.3505
1725.88	0.511
1735.92	0.6192
1745.96	0.6669
1756	0.7092
1766.04	0.7323
1776.08	0.749
1786.12	0.759
1796.16	0.764
1806.2	0.7661
1816.24	0.7647
1826.28	0.7622
1836.32	0.759
1846.36	0.7547
1856.4	0.747
1866.44	0.74
1876.48	0.7369
1886.52	0.7406
1896.56	0.7464
1906.6	0.7523
1916.64	0.7583
1926.68	0.7645
1936.72	0.7707
1946.76	0.7772
1956.8	0.7837
1966.84	0.7904
1976.88	0.7975
1986.92	0.8035
1996.96	0.8086
2007	0.8114
2017.04	0.8126
2027.08	0.8138
2037.12	0.8145
2047.16	0.8153
2057.2	0.8162
2067.24	0.8169
2077.28	0.8177
2087.32	0.8183
2097.36	0.818
2107.4	0.8178
2117.44	0.8175
2127.48	0.8171
2137.52	0.8159
2147.56	0.8148
2157.6	0.8126
2167.64	0.8102
2177.68	0.8077
2187.72	0.8051
2197.76	0.8025
2207.8	0.7992
2217.84	0.7953
2227.88	0.7915
2237.92	0.7866
2247.96	0.7816
2258	0.7764
2268.04	0.7712
2278.08	0.7647
2288.12	0.758
2298.16	0.7512
2308.2	0.7433
2318.24	0.7344
2328.28	0.7253
2338.32	0.7162
2348.36	0.7046
2358.4	0.6919
2368.44	0.6792
2378.48	0.6676
2388.52	0.6566
2398.56	0.6462
2408.6	0.6396
2418.64	0.6377
2428.68	0.6394
2438.72	0.6384
2448.76	0.6295
2458.8	0.6172
2468.84	0.6032
2478.88	0.5936
2488.92	0.5819
2498.96	0.5714
2509	0.5617
2519.04	0.5506
2529.08	0.5402
2539.12	0.5315
2549.16	0.5242
2559.2	0.5179
2569.24	0.5111
2579.28	0.5014
2589.32	0.4932
2599.36	0.486
2609.4	0.4804
2619.44	0.4796
2629.48	0.4818
2639.52	0.4847
2649.56	0.4898
2659.6	0.4977
2669.64	0.5091
2679.68	0.528
2689.72	0.5336
2699.76	0.5306
2709.8	0.5216
2719.84	0.5013
2729.88	0.486
2739.92	0.4828
2749.96	0.4828
2760	0.484
2770.04	0.4738
2780.08	0.4537
2790.12	0.4438
2800.16	0.4463
2810.2	0.4479
2820.24	0.4478
2830.28	0.4439
2840.32	0.4221
2850.36	0.3859
2860.4	0.3489
2870.44	0.3371
2880.48	0.4029
2890.52	0.3971
2900.56	0.379
2910.6	0.3517
2920.64	0.2999
2930.68	0.2854
2940.72	0.3059
2950.76	0.2658
2960.8	0.2523
2970.84	0.3423
2980.88	0.4468
2990.92	0.4761
3000.96	0.513
3011	0.5335
3021.04	0.5382
3031.08	0.54
3041.12	0.5411
3051.16	0.5514
3061.2	0.5758
3071.24	0.6015
3081.28	0.6249
3091.32	0.6399
3101.36	0.648
3111.4	0.6495
3121.44	0.6468
3131.48	0.64
3141.52	0.6719
3151.56	0.6904
3161.6	0.7035
3171.64	0.7138
3181.68	0.7204
3191.72	0.7267
3201.76	0.7326
3211.8	0.7381
3221.84	0.7423
3231.88	0.7462
3241.92	0.7498
3251.96	0.7535
3262	0.7571
3272.04	0.7604
3282.08	0.7636
3292.12	0.7669
3302.16	0.7693
3312.2	0.7707
3322.24	0.7705
3332.28	0.7695
3342.32	0.7667
3352.36	0.7639
3362.4	0.7599
3372.44	0.7553
3382.48	0.7506
3392.52	0.7491
3402.56	0.7492
3412.6	0.75
3422.64	0.7507
3432.68	0.7521
3442.72	0.7536
3452.76	0.7557
3462.8	0.7587
3472.84	0.7622
3482.88	0.7669
3492.92	0.7718
3502.96	0.7767
3513	0.7827
3523.04	0.7887
3533.08	0.7957
3543.12	0.8032
3553.16	0.8114
3563.2	0.8192
3573.24	0.8252
3583.28	0.8313
3593.32	0.8366
3603.36	0.8414
3613.4	0.8462
3623.44	0.8509
3633.48	0.8545
3643.52	0.8575
3653.56	0.8598
3663.6	0.8613
3673.64	0.862
3683.68	0.8609
3693.72	0.8639
3703.76	0.8678
3713.8	0.8688
3723.84	0.8693
3733.88	0.8698
3743.92	0.8696
3753.96	0.8695
3764	0.8697
3774.04	0.8699
3784.08	0.8701
3794.12	0.8703
3804.16	0.8704
3814.2	0.8706
3824.24	0.8708
3834.28	0.8708
3844.32	0.8702
3854.36	0.8696
3864.4	0.869
3874.44	0.8683
3884.48	0.8677
3894.52	0.8672
3904.56	0.8667
3914.6	0.8662
3924.64	0.8657
3934.68	0.865
3944.72	0.8643
3954.76	0.8637
3964.8	0.863
3974.84	0.8628
3984.88	0.8627
3994.92	0.8626
4004.96	0.8625
4015	0.859
