Infrared Spectrum: Pentafluorobenzene
Formula: C 6 H F 5
CAS: 363-72-4
State: gas
Instrument: HP-GC/MS/IRD
Origin: NIST Mass Spectrometry Data Center
1/CM	ABSORBANCE
550	0.0018408
562	0.0016638
574	0.000531
586	0.000177
598	0
610	3.54e-05
622	7.08e-05
634	3.54e-05
646	0.0001062
658	0.0003186
670	0.0009912
682	0.0022302
694	0.0032922
706	0.011505
718	0.023187
730	0.0100536
742	0.0013806
754	0.0007434
766	0.0007788
778	0.001062
790	0.0012036
802	0.0013806
814	0.003186
826	0.0151158
838	0.0311166
850	0.0111156
862	0.0020178
874	0.001593
886	0.0014514
898	0.0015576
910	0.0032214
922	0.0135228
934	0.045843
946	0.0950844
958	0.110129
970	0.0440022
982	0.022302
994	0.0114342
1006	0.0061596
1018	0.0056286
1030	0.008319
1042	0.0110802
1054	0.0195408
1066	0.0957216
1078	0.137671
1090	0.036462
1102	0.0083544
1114	0.0052392
1126	0.008319
1138	0.0164256
1150	0.009204
1162	0.0096288
1174	0.0546222
1186	0.0478254
1198	0.0064782
1210	0.0073986
1222	0.0139476
1234	0.0094872
1246	0.0050268
1258	0.0078588
1270	0.0099474
1282	0.0143724
1294	0.0122484
1306	0.003717
1318	0.0031506
1330	0.002478
1342	0.0016638
1354	0.0020178
1366	0.0048498
1378	0.0044958
1390	0.003186
1402	0.0061242
1414	0.0054516
1426	0.0026196
1438	0.0029028
1450	0.0037878
1462	0.0049914
1474	0.0110094
1486	0.0485688
1498	0.135901
1510	0.173956
1522	0.231339
1534	0.354
1546	0.137848
1558	0.024072
1570	0.0115758
1582	0.00531
1594	0.0037878
1606	0.004779
1618	0.008673
1630	0.0206028
1642	0.0341256
1654	0.015222
1666	0.0053808
1678	0.0029028
1690	0.0023718
1702	0.0037878
1714	0.0052746
1726	0.0029736
1738	0.0013098
1750	0.001062
1762	0.001062
1774	0.0009912
1786	0.0008142
1798	0.0008142
1810	0.0008496
1822	0.001062
1834	0.0013098
1846	0.001416
1858	0.0015576
1870	0.0008142
1882	0.0005664
1894	0.0007788
1906	0.0006726
1918	0.0004956
1930	0.0003894
1942	0.000354
1954	0.000354
1966	0.0004602
1978	0.0005664
1990	0.0006018
2002	0.0005664
2014	0.0003894
2026	0.0002478
2038	0.000177
2050	0.0001416
2062	0.000354
2074	0.0007434
2086	0.0009912
2098	0.0011328
2110	0.0011328
2122	0.0005664
2134	0.0003186
2146	0.0002478
2158	0.0002124
2170	0.0002124
2182	0.0002478
2194	0.0004602
2206	0.0011682
2218	0.0015222
2230	0.0009558
2242	0.0010266
2254	0.0009912
2266	0.0004248
2278	0.0002832
2290	0.0002124
2302	0.0002832
2314	0.0002832
2326	0.0004956
2338	0.000885
2350	0.001593
2362	0.0019116
2374	0.0009912
2386	0.0005664
2398	0.000531
2410	0.0006726
2422	0.0010266
2434	0.0008142
2446	0.0004956
2458	0.000708
2470	0.0007434
2482	0.0006726
2494	0.0004956
2506	0.0004602
2518	0.0006726
2530	0.0013806
2542	0.002124
2554	0.0016638
2566	0.0014868
2578	0.00177
2590	0.0011682
2602	0.0008142
2614	0.0007434
2626	0.0006018
2638	0.0007434
2650	0.001062
2662	0.0013806
2674	0.0012744
2686	0.0007434
2698	0.0002832
2710	0.0001062
2722	0.0001416
2734	0.0001062
2746	7.08e-05
2758	0
2770	3.54e-05
2782	3.54e-05
2794	0.000177
2806	0.0002832
2818	0.0004248
2830	0.0002478
2842	0.0001416
2854	7.08e-05
2866	0.0001062
2878	0.0001416
2890	0.0002832
2902	0.0004956
2914	0.000708
2926	0.0009912
2938	0.0009204
2950	0.0003894
2962	0.0001416
2974	0.0001062
2986	3.54e-05
2998	0.0002124
3010	0.0003186
3022	0.000354
3034	0.0004602
3046	0.000531
3058	0.0004956
3070	0.0004602
3082	0.0009558
3094	0.0026196
3106	0.002301
3118	0.0006018
3130	0.0002124
3142	0.0002124
3154	0.0002832
3166	0.000354
3178	0.000354
3190	0.0001062
3202	0.0001416
3214	3.54e-05
3226	0
3238	7.08e-05
3250	7.08e-05
3262	0.0001416
3274	0.0002124
3286	0.000177
3298	0.0001416
3310	0.000177
3322	0.0001062
3334	0.000177
3346	0.0001416
3358	0.0001416
3370	0.000177
3382	0.000177
3394	0.000177
3406	0.0001416
3418	0.0001062
3430	7.08e-05
3442	0.000177
3454	0.0002124
3466	0.000177
3478	0.0002478
3490	0.0002124
3502	0.000177
3514	0.000177
3526	0.0002124
3538	0.0002478
3550	0.0001416
3562	0.0002478
3574	0.0002124
3586	0.0002124
3598	0.0002124
3610	0.0002478
3622	0.0002124
3634	0.0002124
3646	0.0002832
3658	0.000177
3670	0.0002124
3682	0.000177
3694	0.0002832
3706	0.0003186
3718	0.0003186
3730	0.0002832
3742	0.0002832
3754	0.0003186
3766	0.0003186
3778	0.0004248
3790	0.0003186
3802	0.0003894
3814	0.0004956
3826	0.0003186
3838	0.0004602
