Infrared Spectrum: 2,4,6-Trifluoroaniline
Formula: C 6 H 4 F 3 N
CAS: 363-81-5
State: gas
Origin: EPA-IR VAPOR PHASE LIBRARY
1/CM	ABSORBANCE
549.8	0.02201
559.445	0.02357
569.09	0.02287
578.734	0.02465
588.379	0.03346
598.024	0.05521
607.669	0.03351
617.313	0.02412
626.958	0.02239
636.603	0.02367
646.248	0.02842
655.893	0.03421
665.537	0.03597
675.182	0.03512
684.827	0.03909
694.472	0.04619
704.116	0.04859
713.761	0.04584
723.406	0.04033
733.051	0.0357
742.695	0.03056
752.34	0.02715
761.985	0.02695
771.63	0.02877
781.275	0.0339
790.919	0.04199
800.564	0.04148
810.209	0.02815
819.854	0.03115
829.498	0.07321
839.143	0.20229
848.788	0.07479
858.433	0.02106
868.078	0.00807
877.722	0.0068
887.367	0.0062
897.012	0.00648
906.657	0.0069
916.301	0.00702
925.946	0.00698
935.591	0.00939
945.236	0.01707
954.88	0.0373
964.525	0.07244
974.17	0.09495
983.815	0.12127
993.46	0.14178
1003.1	0.12373
1012.75	0.05688
1022.39	0.03607
1032.04	0.02223
1041.68	0.01565
1051.33	0.01268
1060.97	0.01119
1070.62	0.01065
1080.26	0.01103
1089.91	0.01514
1099.55	0.05254
1109.2	0.19714
1118.84	0.21994
1128.49	0.09325
1138.13	0.07259
1147.78	0.18153
1157.42	0.20772
1167.07	0.14336
1176.71	0.07627
1186.36	0.05569
1196	0.03148
1205.64	0.01588
1215.29	0.00868
1224.93	0.01015
1234.58	0.01974
1244.22	0.03366
1253.87	0.03838
1263.51	0.02681
1273.16	0.01334
1282.8	0.00784
1292.45	0.00539
1302.09	0.00429
1311.74	0.00412
1321.38	0.00419
1331.03	0.00438
1340.67	0.00462
1350.32	0.00427
1359.96	0.00361
1369.61	0.00464
1379.25	0.00754
1388.9	0.00912
1398.54	0.00869
1408.18	0.01102
1417.83	0.02096
1427.47	0.03765
1437.12	0.04979
1446.76	0.08358
1456.41	0.09538
1466.05	0.06766
1475.7	0.03132
1485.34	0.03754
1494.99	0.08006
1504.63	0.24436
1514.28	0.5412
1523.92	0.52376
1533.57	0.20447
1543.21	0.03597
1552.86	0.02201
1562.5	0.02276
1572.15	0.03265
1581.79	0.06089
1591.44	0.12072
1601.08	0.20921
1610.73	0.22833
1620.37	0.14996
1630.01	0.08048
1639.66	0.05352
1649.3	0.04276
1658.95	0.03622
1668.59	0.02699
1678.24	0.02163
1687.88	0.01776
1697.53	0.01188
1707.17	0.00733
1716.82	0.00643
1726.46	0.00589
1736.11	0.00464
1745.75	0.00317
1755.4	0.00288
1765.04	0.00312
1774.69	0.00355
1784.33	0.0034
1793.98	0.00276
1803.62	0.00243
1813.27	0.00213
1822.91	0.00201
1832.55	0.00205
1842.2	0.00205
1851.84	0.00206
1861.49	0.00203
1871.13	0.00213
1880.78	0.00205
1890.42	0.00203
1900.07	0.00218
1909.71	0.00244
1919.36	0.00244
1929	0.00233
1938.65	0.00232
1948.29	0.00266
1957.94	0.00272
1967.58	0.00251
1977.23	0.00206
1986.87	0.00176
1996.52	0.00148
2006.16	0.00139
2015.81	0.00143
2025.45	0.00163
2035.1	0.00158
2044.74	0.0016
2054.38	0.00164
2064.03	0.0018
2073.67	0.00233
2083.32	0.00323
2092.96	0.00374
2102.61	0.00383
2112.25	0.00358
2121.9	0.00321
2131.54	0.00293
2141.19	0.00292
2150.83	0.00309
2160.48	0.00295
2170.12	0.00278
2179.77	0.00254
2189.41	0.00227
2199.06	0.00194
2208.7	0.00206
2218.35	0.00225
2227.99	0.00229
2237.64	0.00192
2247.28	0.0015
2256.92	0.00143
2266.57	0.00134
2276.21	0.0013
2285.86	0.00134
2295.5	0.00161
2305.15	0.00212
2314.79	0.00247
2324.44	0.00262
2334.08	0.00263
2343.73	0.00286
2353.37	0.00294
2363.02	0.00237
2372.66	0.00166
2382.31	0.00141
2391.95	0.0015
2401.6	0.00172
2411.24	0.00182
2420.89	0.00172
2430.53	0.0017
2440.18	0.00186
2449.82	0.00245
2459.47	0.00365
2469.11	0.00477
2478.75	0.00402
2488.4	0.0027
2498.04	0.00262
2507.69	0.00272
2517.33	0.00239
2526.98	0.0016
2536.62	0.00112
2546.27	0.0011
2555.91	0.00141
2565.56	0.0017
2575.2	0.00182
2584.85	0.0014
2594.49	0.00111
2604.14	0.00118
2613.78	0.0015
2623.43	0.00195
2633.07	0.00198
2642.72	0.00178
2652.36	0.00147
2662.01	0.00111
2671.65	0.0009818
2681.29	0.0008967
2690.94	0.0006572
2700.58	0.0006949
2710.23	0.0008172
2719.87	0.0008188
2729.52	0.0007141
2739.16	0.0008664
2748.81	0.00119
2758.45	0.00145
2768.1	0.00149
2777.74	0.00136
2787.39	0.00127
2797.03	0.00113
2806.68	0.000912
2816.32	0.0008146
2825.97	0.0005408
2835.61	0.0004867
2845.26	0.0005382
2854.9	0.0007143
2864.55	0.00108
2874.19	0.0015
2883.84	0.00154
2893.48	0.00155
2903.12	0.00146
2912.77	0.0014
2922.41	0.00136
2932.06	0.00119
2941.7	0.00105
2951.35	0.0008063
2960.99	0.000683
2970.64	0.0006595
2980.28	0.000478
2989.93	0.0005458
2999.57	0.0004617
3009.22	0.0003081
3018.86	0.0003646
3028.51	0.0006262
3038.15	0.0005306
3047.8	0.0003832
3057.44	0.0003884
3067.09	0.0004783
3076.73	0.0006814
3086.38	0.00105
3096.02	0.00161
3105.67	0.00185
3115.31	0.00125
3124.95	0.0009959
3134.6	0.00104
3144.24	0.0009057
3153.89	0.00113
3163.53	0.00141
3173.18	0.00165
3182.82	0.00194
3192.47	0.00228
3202.11	0.00269
3211.76	0.00295
3221.4	0.00283
3231.05	0.00224
3240.69	0.00197
3250.34	0.00174
3259.98	0.00174
3269.63	0.00136
3279.27	0.0012
3288.92	0.0008313
3298.56	0.0004717
3308.21	0.0003679
3317.85	0.0004902
3327.49	0.0004848
3337.14	0.0004057
3346.78	0.0005741
3356.43	0.000766
3366.07	0.00144
3375.72	0.0024
3385.36	0.00456
3395.01	0.01085
3404.65	0.02692
3414.3	0.04041
3423.94	0.03778
3433.59	0.02194
3443.23	0.00955
3452.88	0.00499
3462.52	0.0047
3472.17	0.00646
3481.81	0.01219
3491.46	0.0237
3501.1	0.03558
3510.75	0.03688
3520.39	0.02672
3530.04	0.01592
3539.68	0.00711
3549.32	0.00345
3558.97	0.00205
3568.61	0.00154
3578.26	0.00127
3587.9	0.00118
3597.55	0.0009323
3607.19	0.000823
3616.84	0.0008229
3626.48	0.0007253
3636.13	0.0007597
3645.77	0.0005858
3655.42	0.0006561
3665.06	0.000674
3674.71	0.000751
3684.35	0.0009084
3694	0.000925
3703.64	0.0009978
3713.29	0.0007723
3722.93	0.0009034
3732.58	0.0009782
3742.22	0.00103
3751.86	0.0008314
3761.51	0.0009201
3771.15	0.0008887
3780.8	0.0009076
3790.44	0.00134
3800.09	0.00115
3809.73	0.0009612
3819.38	0.000938
3829.02	0.0009787
3838.67	0.000877
3848.31	0.00116
3857.96	0.00121
3867.6	0.00179
3877.25	0.00206
3886.89	0.00223
3896.54	0.00167
3906.18	0.0015
3915.83	0.00111
3925.47	0.00122
3935.12	0.00107
3944.76	0.00124
3954.41	0.00159
3964.05	0.00191
3973.69	0.0019
3983.34	0.00187
3992.98	0.00157
