Infrared Spectrum: Phenyl-p-benzoquinone
Formula: C 12 H 8 O 2
CAS: 363-03-1
State: gas
Origin: EPA-IR VAPOR PHASE LIBRARY
1/CM	ABSORBANCE
549.8	0.003587
559.445	0.002367
569.09	0.001667
578.734	0.0009699
588.379	0.001307
598.024	0.002797
607.669	0.006297
617.313	0.005087
626.958	0.002877
636.603	0.001667
646.248	0.001827
655.893	0.002857
665.537	0.005877
675.182	0.012207
684.827	0.024507
694.472	0.031957
704.116	0.018837
713.761	0.008417
723.406	0.006787
733.051	0.014027
742.695	0.022267
752.34	0.013707
761.985	0.006027
771.63	0.003837
781.275	0.003267
790.919	0.003287
800.564	0.002907
810.209	0.003337
819.854	0.008707
829.498	0.023907
839.143	0.025927
848.788	0.009997
858.433	0.003437
868.078	0.002877
877.722	0.003187
887.367	0.005547
897.012	0.017197
906.657	0.037567
916.301	0.027667
925.946	0.008537
935.591	0.002427
945.236	0.001757
954.88	0.002737
964.525	0.007477
974.17	0.017887
983.815	0.013467
993.46	0.006597
1003.1	0.007237
1012.75	0.003037
1022.39	0.002687
1032.04	0.003287
1041.68	0.003097
1051.33	0.004507
1060.97	0.008177
1070.62	0.014277
1080.26	0.036627
1089.91	0.060507
1099.55	0.022067
1109.2	0.005937
1118.84	0.002907
1128.49	0.001977
1138.13	0.001487
1147.78	0.001577
1157.42	0.002387
1167.07	0.003487
1176.71	0.011717
1186.36	0.015227
1196	0.006357
1205.64	0.004867
1215.29	0.006047
1224.93	0.007737
1234.58	0.012347
1244.22	0.019087
1253.87	0.025167
1263.51	0.040847
1273.16	0.060717
1282.8	0.070777
1292.45	0.047427
1302.09	0.024937
1311.74	0.021817
1321.38	0.020157
1331.03	0.023017
1340.67	0.017307
1350.32	0.008247
1359.96	0.005287
1369.61	0.006307
1379.25	0.005707
1388.9	0.002887
1398.54	0.002357
1408.18	0.002177
1417.83	0.002157
1427.47	0.003007
1437.12	0.006417
1446.76	0.009017
1456.41	0.005537
1466.05	0.003317
1475.7	0.003177
1485.34	0.007507
1494.99	0.012267
1504.63	0.006837
1514.28	0.004587
1523.92	0.003727
1533.57	0.003637
1543.21	0.004317
1552.86	0.005487
1562.5	0.009277
1572.15	0.016877
1581.79	0.027637
1591.44	0.040467
1601.08	0.028017
1610.73	0.015937
1620.37	0.012647
1630.01	0.013237
1639.66	0.019857
1649.3	0.044267
1658.95	0.098987
1668.59	0.195377
1678.24	0.230667
1687.88	0.110417
1697.53	0.038247
1707.17	0.020507
1716.82	0.012637
1726.46	0.007667
1736.11	0.005857
1745.75	0.005297
1755.4	0.004427
1765.04	0.003697
1774.69	0.003287
1784.33	0.003707
1793.98	0.004687
1803.62	0.004197
1813.27	0.004117
1822.91	0.003487
1832.55	0.002267
1842.2	0.001607
1851.84	0.001657
1861.49	0.002117
1871.13	0.002497
1880.78	0.002637
1890.42	0.002547
1900.07	0.002007
1909.71	0.001317
1919.36	0.0011926
1929	0.001557
1938.65	0.002267
1948.29	0.002517
1957.94	0.002667
1967.58	0.002387
1977.23	0.0012142
1986.87	0.0008544
1996.52	0.0005989
2006.16	0.0006161
2015.81	0.0006273
2025.45	0.0005176
2035.1	0.0005578
2044.74	0.0004131
2054.38	0.000391
2064.03	0.0006152
2073.67	0.0006028
2083.32	0.0006893
2092.96	0.0008903
2102.61	0.0008419
2112.25	0.0008497
2121.9	0.0007915
2131.54	0.0007031
2141.19	0.0006255
2150.83	0.0005697
2160.48	0.0007545
2170.12	0.000674
2179.77	0.0007906
2189.41	0.0007338
2199.06	0.0008688
2208.7	0.0006727
2218.35	0.0006466
2227.99	0.0004971
2237.64	0.0005429
2247.28	0.0005546
2256.92	0.0005564
2266.57	0.0007574
2276.21	0.0006954
2285.86	0.0006965
2295.5	0.0005171
2305.15	0.0006171
2314.79	0.0007903
2324.44	0.0008782
2334.08	0.0008635
2343.73	0.0010567
2353.37	0.0009893
2363.02	0.000635
2372.66	0.0006103
2382.31	0.0005979
2391.95	0.0004742
2401.6	0.0005087
2411.24	0.0006508
2420.89	0.000734
2430.53	0.00077
2440.18	0.0005577
2449.82	0.0004833
2459.47	0.0006459
2469.11	0.0005555
2478.75	0.0005055
2488.4	0.0005264
2498.04	0.0005478
2507.69	0.0006046
2517.33	0.0007094
2526.98	0.0005526
2536.62	0.0007734
2546.27	0.0007693
2555.91	0.0007876
2565.56	0.0007121
2575.2	0.0005503
2584.85	0.0005373
2594.49	0.000515
2604.14	0.0006338
2613.78	0.0005866
2623.43	0.0003707
2633.07	0.0004863
2642.72	0.0005566
2652.36	0.0003746
2662.01	0.0004359
2671.65	0.00031763
2681.29	0.0003921
2690.94	0.0004606
2700.58	0.0006381
2710.23	0.0004826
2719.87	0.00031168
2729.52	0.0002189
2739.16	0.0004586
2748.81	0.0003977
2758.45	0.0004513
2768.1	0.000561
2777.74	0.0006077
2787.39	0.0004138
2797.03	0.0004123
2806.68	0.0004187
2816.32	0.0005549
2825.97	0.0006643
2835.61	0.0008405
2845.26	0.0010183
2854.9	0.0009611
2864.55	0.0010779
2874.19	0.0010518
2883.84	0.0010806
2893.48	0.0008871
2903.12	0.0009505
2912.77	0.0010461
2922.41	0.0009734
2932.06	0.0010359
2941.7	0.0010086
2951.35	0.0006734
2960.99	0.0010236
2970.64	0.001055
2980.28	0.0011052
2989.93	0.001257
2999.57	0.001647
3009.22	0.002507
3018.86	0.004207
3028.51	0.007737
3038.15	0.010997
3047.8	0.011047
3057.44	0.014767
3067.09	0.026567
3076.73	0.021777
3086.38	0.013847
3096.02	0.010727
3105.67	0.006907
3115.31	0.004167
3124.95	0.001707
3134.6	0.001437
3144.24	0.001277
3153.89	0.001357
3163.53	0.0009193
3173.18	0.0008345
3182.82	0.0007323
3192.47	0.0008348
3202.11	0.0007473
3211.76	0.0006908
3221.4	0.0005485
3231.05	0.0006318
3240.69	0.0006803
3250.34	0.0007827
3259.98	0.001155
3269.63	0.001727
3279.27	0.002767
3288.92	0.002977
3298.56	0.002477
3308.21	0.003147
3317.85	0.004347
3327.49	0.005047
3337.14	0.004137
3346.78	0.002687
3356.43	0.001787
3366.07	0.001427
3375.72	0.0008889
3385.36	0.0007897
3395.01	0.0005933
3404.65	0.000464
3414.3	0.0003381
3423.94	0.0005731
3433.59	0.0004762
3443.23	0.00026857
3452.88	0.0002142
3462.52	0.00011
3472.17	0.0005372
3481.81	0.00011
3491.46	0.00032703
3501.1	0.0001755
3510.75	0.0004151
3520.39	0.0003871
3530.04	0.0004464
3539.68	0.0003584
3549.32	0.0005739
3558.97	0.0003828
3568.61	0.00030058
3578.26	0.0004411
3587.9	0.000427
3597.55	0.0001824
3607.19	0.00033583
3616.84	0.000485
3626.48	0.00026243
3636.13	0.0004802
3645.77	0.0005644
3655.42	0.0006715
3665.06	0.00029253
3674.71	0.0006052
3684.35	0.000572
3694	0.0003645
3703.64	0.0003538
3713.29	0.0007303
3722.93	0.0005422
3732.58	0.0003543
3742.22	0.000597
3751.86	0.000648
3761.51	0.0006623
3771.15	0.000464
3780.8	0.0004237
3790.44	9.3e-05
3800.09	0.0004592
3809.73	0.0004659
3819.38	0.00028672
3829.02	0.0003232
3838.67	0.0004693
3848.31	0.0005855
3857.96	0.0005707
3867.6	0.0007102
3877.25	0.0003922
3886.89	0.0004038
3896.54	0.000379
3906.18	0.0006751
3915.83	0.0004917
3925.47	0.0007587
3935.12	0.0004264
3944.76	8.6e-05
3954.41	0.00041
3964.05	0.0004301
3973.69	0.00025863
3983.34	0.0004021
3992.98	0.0004659
