Infrared Spectrum: 4,4'-Difluorobenzophenone oxime
Formula: C 13 H 9 F 2 N O
CAS: 363-02-0
State: gas
Origin: EPA-IR VAPOR PHASE LIBRARY
1/CM	ABSORBANCE
549.8	0.007468
559.445	0.003798
569.09	0.003638
578.735	0.007768
588.38	0.032698
598.025	0.034838
607.67	0.009618
617.315	0.007178
626.96	0.005198
636.605	0.004148
646.251	0.005128
655.896	0.007438
665.541	0.010198
675.186	0.006138
684.831	0.003688
694.476	0.002608
704.121	0.002538
713.766	0.003558
723.411	0.006768
733.056	0.008488
742.701	0.005868
752.346	0.004468
761.991	0.004418
771.636	0.004588
781.281	0.005118
790.926	0.006628
800.571	0.011658
810.216	0.015548
819.861	0.023348
829.507	0.043168
839.152	0.075038
848.797	0.029898
858.442	0.012118
868.087	0.006188
877.732	0.006328
887.377	0.008978
897.022	0.018688
906.667	0.050958
916.312	0.058628
925.957	0.018238
935.602	0.014568
945.247	0.009338
954.892	0.004648
964.537	0.004158
974.182	0.009028
983.827	0.023978
993.472	0.019188
1003.12	0.006348
1012.76	0.008338
1022.41	0.005168
1032.05	0.002018
1041.7	0.001798
1051.34	0.001678
1060.99	0.001698
1070.63	0.001928
1080.28	0.002668
1089.92	0.004738
1099.57	0.006178
1109.21	0.003028
1118.86	0.002288
1128.5	0.002608
1138.15	0.005068
1147.79	0.023008
1157.44	0.072268
1167.08	0.021058
1176.73	0.004648
1186.37	0.003398
1196.02	0.004188
1205.66	0.007618
1215.31	0.017628
1224.95	0.039168
1234.6	0.139108
1244.24	0.123668
1253.89	0.031768
1263.53	0.016618
1273.18	0.018288
1282.82	0.019058
1292.47	0.037328
1302.11	0.050398
1311.76	0.032638
1321.4	0.016148
1331.05	0.011378
1340.69	0.012468
1350.34	0.014058
1359.98	0.007258
1369.63	0.003598
1379.27	0.003338
1388.92	0.003768
1398.56	0.004768
1408.21	0.005868
1417.85	0.003438
1427.5	0.003238
1437.14	0.003128
1446.79	0.003418
1456.43	0.003828
1466.08	0.004788
1475.73	0.006488
1485.37	0.010848
1495.02	0.027628
1504.66	0.098448
1514.31	0.120438
1523.95	0.026128
1533.6	0.009198
1543.24	0.006198
1552.89	0.005978
1562.53	0.006078
1572.18	0.008448
1581.82	0.017338
1591.47	0.035128
1601.11	0.046168
1610.76	0.035458
1620.4	0.025688
1630.05	0.009878
1639.69	0.005918
1649.34	0.005768
1658.98	0.003468
1668.63	0.002288
1678.27	0.001868
1687.92	0.0015399
1697.56	0.0012983
1707.21	0.0011697
1716.85	0.0010671
1726.5	0.0009895
1736.14	0.0010429
1745.79	0.001528
1755.43	0.002708
1765.08	0.003328
1774.72	0.001748
1784.37	0.0011961
1794.01	0.0009422
1803.66	0.0010562
1813.3	0.0013016
1822.95	0.0014907
1832.59	0.001392
1842.24	0.0011456
1851.88	0.0011005
1861.53	0.0012618
1871.17	0.001968
1880.82	0.003348
1890.46	0.004538
1900.11	0.003438
1909.75	0.001828
1919.4	0.001284
1929.04	0.0010176
1938.69	0.0008834
1948.33	0.0008033
1957.98	0.000993
1967.62	0.0012225
1977.27	0.001027
1986.91	0.0009385
1996.56	0.000967
2006.2	0.0008501
2015.85	0.0008411
2025.49	0.0010888
2035.14	0.001598
2044.78	0.001928
2054.43	0.001628
2064.07	0.0013685
2073.72	0.0013038
2083.36	0.0010687
2093.01	0.0007461
2102.65	0.0007247
2112.3	0.0006907
2121.94	0.00064586
2131.59	0.00062197
2141.23	0.0006689
2150.88	0.0007543
2160.52	0.00062679
2170.17	0.0006776
2179.81	0.0006622
2189.46	0.00063898
2199.1	0.00063563
2208.75	0.0006981
2218.39	0.00064512
2228.04	0.0006856
2237.68	0.0007712
2247.33	0.0009409
2256.97	0.0012108
2266.62	0.0010625
2276.26	0.0008834
2285.91	0.0008947
2295.55	0.000813
2305.2	0.0009092
2314.84	0.0011525
2324.49	0.0010734
2334.13	0.0010958
2343.78	0.0009333
2353.42	0.0008526
2363.07	0.0008122
2372.72	0.0008774
2382.36	0.0010079
2392.01	0.0013902
2401.65	0.0015067
2411.3	0.0012867
2420.94	0.0012893
2430.59	0.0012473
2440.23	0.0012743
2449.88	0.0013762
2459.52	0.001558
2469.17	0.001778
2478.81	0.0015098
2488.46	0.0011566
2498.1	0.0010677
2507.75	0.0011039
2517.39	0.0011474
2527.04	0.0012143
2536.68	0.0012924
2546.33	0.0014187
2555.97	0.0014353
2565.62	0.0014007
2575.26	0.001248
2584.91	0.0010498
2594.55	0.0010546
2604.2	0.0010245
2613.84	0.0009809
2623.49	0.0010289
2633.13	0.0011262
2642.78	0.0011229
2652.42	0.0010471
2662.07	0.0011032
2671.71	0.0010872
2681.36	0.001042
2691	0.0011683
2700.65	0.0009992
2710.29	0.0009261
2719.94	0.0008261
2729.58	0.0008539
2739.23	0.0010375
2748.87	0.001011
2758.52	0.000907
2768.16	0.0007352
2777.81	0.0006984
2787.45	0.0007157
2797.1	0.00063489
2806.74	0.00064039
2816.39	0.0007206
2826.03	0.0006733
2835.68	0.0008383
2845.32	0.0007902
2854.97	0.0007323
2864.61	0.0008042
2874.26	0.0008708
2883.9	0.0008798
2893.55	0.0008949
2903.19	0.0007647
2912.84	0.0008019
2922.48	0.0006447
2932.13	0.00058226
2941.77	0.0007598
2951.42	0.0006685
2961.06	0.0007477
2970.71	0.0006931
2980.35	0.0007713
2990	0.0009316
2999.64	0.0008552
3009.29	0.0009518
3018.93	0.0008683
3028.58	0.0012245
3038.22	0.002688
3047.87	0.006128
3057.51	0.005938
3067.16	0.003758
3076.8	0.004888
3086.45	0.004768
3096.09	0.002658
3105.74	0.002518
3115.38	0.002128
3125.03	0.0015169
3134.67	0.0007995
3144.32	0.0005133
3153.96	0.000496
3163.61	0.0005357
3173.25	0.000387
3182.9	0.000372
3192.54	0.000344
3202.19	0.0005383
3211.83	0.000376
3221.48	0.000536
3231.12	0.000684
3240.77	0.00041
3250.41	0.000382
3260.06	0.000161
3269.7	0.000298
3279.35	0.000102
3289	0.000154
3298.64	0.000291
3308.29	0.000222
3317.93	0.000144
3327.58	0.000121
3337.22	0.000134
3346.87	0.000173
3356.51	9e-06
3366.16	0.000137
3375.8	3.3e-05
3385.45	6.7e-05
3395.09	0.000128
3404.74	0.000105
3414.38	6.3e-05
3424.03	9.2e-05
3433.67	0.0005138
3443.32	0.0010937
3452.96	0.0007346
3462.61	0.000402
3472.25	0.000227
3481.9	0.000173
3491.54	0.000251
3501.19	0.000311
3510.83	0.000314
3520.48	0.000213
3530.12	0.000165
3539.77	0.000394
3549.41	0.0005079
3559.06	0.0005069
3568.7	0.0005465
3578.35	0.000448
3587.99	0.0007244
3597.64	0.0015098
3607.28	0.003588
3616.93	0.012328
3626.57	0.043448
3636.22	0.052808
3645.86	0.013068
3655.51	0.002568
3665.15	0.0011013
3674.8	0.0007776
3684.44	0.00054869
3694.09	0.0006743
3703.73	0.00057247
3713.38	0.000541
3723.02	0.00057548
3732.67	0.000362
3742.31	0.00039
3751.96	0.000341
3761.6	0.000298
3771.25	0.000317
3780.89	0.000441
3790.54	0.00035
3800.18	0.000244
3809.83	0.000374
3819.47	0.000213
3829.12	0.000361
3838.76	0.00045
3848.41	0.000425
3858.05	0.000425
3867.7	0.0005468
3877.34	0.0004992
3886.99	0.0004778
3896.63	0.0005343
3906.28	0.0004931
3915.92	0.00055279
3925.57	0.0005002
3935.21	0.00059534
3944.86	0.0006316
3954.5	0.00060617
3964.15	0.0006871
3973.79	0.0005473
3983.44	0.0007333
3993.08	0.0006072
