Infrared Spectrum: 3,4-DIMETHYLPYRIDINE HYDROCHLORIDE
Formula: C7 H10 Cl N
CAS: 36316-69-5
State: SOLID (KBr DISC, 0.9% WT.)
Class: COBLENTZ III
Instrument: PERKIN-ELMER 157
Sampling: TRANSMISSION
Resolution: 2
Origin: BRITISH PETROLEUM CO. LTD., ENGLAND
1/CM	TRANSMITTANCE
668	0.8285
677	0.7978
686	0.7721
695	0.7117
704	0.4912
713	0.461
722	0.7285
731	0.6929
740	0.6519
749	0.5936
758	0.6594
767	0.6409
776	0.6127
785	0.586
794	0.5535
803	0.506
812	0.4492
821	0.3402
830	0.1493
839	0.0631
848	0.0283
857	0.267
866	0.4937
875	0.5451
884	0.5652
893	0.5405
902	0.3546
911	0.5431
920	0.4779
929	0.56
938	0.5576
947	0.5473
956	0.5207
965	0.4842
974	0.3616
983	0.3591
992	0.3031
1001	0.2853
1010	0.4601
1019	0.4516
1028	0.2563
1037	0.1631
1046	0.4105
1055	0.4368
1064	0.4594
1073	0.4608
1082	0.502
1091	0.4858
1100	0.4667
1109	0.4536
1118	0.4464
1127	0.4307
1136	0.4196
1145	0.3915
1154	0.37
1163	0.2774
1172	0.1982
1181	0.4393
1190	0.4049
1199	0.2974
1208	0.3992
1217	0.3722
1226	0.3387
1235	0.3226
1244	0.3235
1253	0.261
1262	0.1911
1271	0.3773
1280	0.3624
1289	0.3313
1298	0.2746
1307	0.3719
1316	0.3624
1325	0.3274
1334	0.2678
1343	0.1361
1352	0.268
1361	0.3572
1370	0.3314
1379	0.2527
1388	0.165
1397	0.2721
1406	0.3339
1415	0.2847
1424	0.2325
1433	0.162
1442	0.094
1451	0.1572
1460	0.17
1469	0.1536
1478	0.09
1487	0.048
1496	0.0592
1505	0.169
1514	0.2427
1523	0.1546
1532	0.0833
1541	0.2116
1550	0.2704
1559	0.2697
1568	0.268
1577	0.2545
1586	0.2259
1595	0.1777
1604	0.1201
1613	0.1785
1622	0.2093
1631	0.1294
1640	0.0842
1649	0.3599
1658	0.4129
1667	0.4119
1676	0.4111
1685	0.4119
1694	0.4172
1703	0.4232
1712	0.4201
1721	0.3989
1730	0.3771
1739	0.3555
1748	0.3644
1757	0.3718
1766	0.3669
1775	0.3538
1784	0.3335
1793	0.311
1802	0.2646
1811	0.2366
1820	0.2246
1829	0.2675
1838	0.2966
1847	0.2987
1856	0.294
1865	0.2746
1874	0.2514
1883	0.2498
1892	0.2559
1901	0.2498
1910	0.2401
1919	0.2234
1928	0.2005
1937	0.1703
1946	0.1649
1955	0.1741
1964	0.1985
1973	0.2166
1982	0.2053
1991	0.1758
2000	0.1467
2009	0.1214
2018	0.1485
2027	0.1732
2036	0.1675
2045	0.1511
2054	0.1301
2063	0.112
2072	0.1212
2081	0.1534
2090	0.182
2099	0.1908
2108	0.191
2117	0.1992
2126	0.2254
2135	0.2455
2144	0.2461
2153	0.2427
2162	0.2371
2171	0.2314
2180	0.2244
2189	0.216
2198	0.207
2207	0.205
2216	0.1997
2225	0.1907
2234	0.1841
2243	0.1767
2252	0.1701
2261	0.1635
2270	0.1539
2279	0.1443
2288	0.135
2297	0.1259
2306	0.1166
2315	0.1063
2324	0.0959
2333	0.0845
2342	0.0775
2351	0.0714
2360	0.0679
2369	0.0658
2378	0.0646
2387	0.063
2396	0.0572
2405	0.0505
2414	0.0462
2423	0.0442
2432	0.0427
2441	0.0421
2450	0.0415
2459	0.0384
2468	0.0323
2477	0.0278
2486	0.024
2495	0.0229
2504	0.0215
2513	0.0201
2522	0.0188
2531	0.0179
2540	0.0172
2549	0.0165
2558	0.0163
2567	0.016
2576	0.0158
2585	0.0158
2594	0.0162
2603	0.0171
2612	0.0187
2621	0.0202
2630	0.0221
2639	0.0232
2648	0.0239
2657	0.0243
2666	0.0244
2675	0.0245
2684	0.025
2693	0.0289
2702	0.032
2711	0.0322
2720	0.0325
2729	0.0347
2738	0.0389
2747	0.0419
2756	0.0431
2765	0.0434
2774	0.0431
2783	0.0439
2792	0.0546
2801	0.0605
2810	0.0619
2819	0.0637
2828	0.067
2837	0.0711
2846	0.0718
2855	0.0714
2864	0.0735
2873	0.0788
2882	0.0799
2891	0.0793
2900	0.076
2909	0.0719
2918	0.068
2927	0.0636
2936	0.062
2945	0.0624
2954	0.0631
2963	0.064
2972	0.0641
2981	0.0636
2990	0.0628
2999	0.0625
3008	0.0639
3017	0.0705
3026	0.085
3035	0.1157
3044	0.1463
3053	0.1767
3062	0.207
3071	0.237
3080	0.2617
3089	0.2679
3098	0.2685
3107	0.2685
3116	0.2686
3125	0.2688
3134	0.2688
3143	0.2687
3152	0.2684
3161	0.2679
3170	0.2674
3179	0.2685
3188	0.2773
3197	0.2873
3206	0.2916
3215	0.2918
3224	0.29
3233	0.2878
3242	0.2856
3251	0.2828
3260	0.2796
3269	0.2759
3278	0.2721
3287	0.2702
3296	0.2693
3305	0.2637
3314	0.2567
3323	0.249
3332	0.2425
3341	0.2347
3350	0.2287
3359	0.2238
3368	0.2199
3377	0.2162
3386	0.2133
3395	0.2106
3404	0.2085
3413	0.2073
3422	0.2066
3431	0.2061
3440	0.206
3449	0.2058
3458	0.2058
3467	0.2061
3476	0.2064
3485	0.2068
3494	0.2076
3503	0.2089
3512	0.2114
3521	0.2159
3530	0.2213
3539	0.2237
3548	0.2253
3557	0.2265
3566	0.2267
3575	0.2269
3584	0.2271
3593	0.2273
3602	0.2274
3611	0.2275
3620	0.2276
3629	0.2275
3638	0.2274
3647	0.2273
3656	0.2272
3665	0.2272
3674	0.2268
3683	0.2265
3692	0.2262
3701	0.2258
3710	0.2254
3719	0.2248
3728	0.2243
3737	0.2231
3746	0.2217
3755	0.2202
3764	0.2186
3773	0.2167
3782	0.215
3791	0.2125
3800	0.2101
3809	0.2078
3818	0.2055
3827	0.2032
3836	0.2005
3845	0.1979
3854	0.1953
3863	0.1929
3872	0.1906
3881	0.1883
3890	0.186
3899	0.1837
3908	0.1813
3917	0.179
3926	0.1768
3935	0.175
3944	0.1735
3953	0.1723
3962	0.1716
3971	0.1711
3980	0.1706
3989	0.17
3998	0.1697
