Infrared Spectrum: PENTANEDIOIC ACID, BIS-(ISODECYL) ESTER
Formula: C25 H48 O4
CAS: 3634-94-4
State: SOLUTION (10% IN CCl4 FOR 4000-1330, 10% IN CS2 FOR 1330-420 CM^-^1) VS. SOLVENT
Class: COBLENTZ III
Instrument: PERKIN-ELMER 180
Sampling: TRANSMISSION
Path length: 0.011, 0.011 CM
Resolution: 4
Origin: DOW CHEMICAL COMPANY
1/CM	TRANSMITTANCE
418.274	0.873
427.411	0.88
436.548	0.887
445.685	0.888
454.822	0.892
463.959	0.892
473.097	0.89
482.234	0.893
491.371	0.891
500.508	0.894
509.645	0.9
518.782	0.902
527.919	0.904
537.056	0.907
546.193	0.908
555.33	0.902
564.467	0.897
573.605	0.888
582.742	0.886
591.879	0.892
601.016	0.898
610.153	0.902
619.29	0.908
628.427	0.908
637.564	0.905
646.701	0.901
655.838	0.909
664.975	0.92
674.113	0.923
683.25	0.919
692.387	0.913
701.524	0.904
710.661	0.897
719.798	0.877
728.935	0.861
738.072	0.849
747.209	0.85
756.346	0.861
765.484	0.855
774.621	0.849
783.758	0.841
792.895	0.841
802.032	0.846
811.169	0.851
820.306	0.859
829.443	0.864
838.58	0.865
847.717	0.853
856.854	0.829
865.992	0.813
875.129	0.816
884.266	0.817
893.403	0.811
902.54	0.804
911.677	0.792
920.814	0.794
929.951	0.788
939.088	0.764
948.225	0.725
957.362	0.689
966.5	0.642
975.637	0.602
984.774	0.579
993.911	0.593
1003.05	0.606
1012.19	0.59
1021.32	0.613
1030.46	0.616
1039.6	0.597
1048.73	0.551
1057.87	0.519
1067.01	0.572
1076.14	0.645
1085.28	0.691
1094.42	0.718
1103.56	0.744
1112.69	0.692
1121.83	0.558
1130.97	0.321
1140.1	0.164
1149.24	0.142
1158.38	0.129
1167.52	0.097
1176.65	0.115
1185.79	0.138
1194.93	0.174
1204.06	0.238
1213.2	0.265
1222.34	0.258
1231.48	0.243
1240.61	0.239
1249.75	0.28
1258.89	0.393
1268.02	0.434
1277.16	0.461
1286.3	0.51
1295.43	0.521
1304.57	0.463
1313.71	0.419
1322.85	0.517
1331.98	0.534
1341.12	0.501
1350.26	0.51
1359.39	0.42
1368.53	0.403
1377.67	0.348
1386.81	0.469
1395.94	0.658
1405.08	0.731
1414.22	0.559
1423.35	0.638
1432.49	0.567
1441.63	0.482
1450.77	0.289
1459.9	0.228
1469.04	0.459
1478.18	0.759
1487.31	0.845
1496.45	0.874
1505.59	0.89
1514.73	0.896
1523.86	0.906
1533	0.91
1542.14	0.907
1551.27	0.907
1560.41	0.906
1569.55	0.906
1578.68	0.905
1587.82	0.904
1596.96	0.902
1606.1	0.901
1615.23	0.9
1624.37	0.896
1633.51	0.89
1642.64	0.884
1651.78	0.876
1660.92	0.867
1670.06	0.849
1679.19	0.813
1688.33	0.748
1697.47	0.709
1706.6	0.614
1715.74	0.339
1724.88	0.019
1734.02	0.003
1743.15	0.084
1752.29	0.4451
1761.43	0.676
1770.56	0.782
1779.7	0.822
1788.84	0.85
1797.97	0.87
1807.11	0.888
1816.25	0.898
1825.39	0.906
1834.52	0.911
1843.66	0.915
1852.8	0.919
1861.93	0.921
1871.07	0.923
1880.21	0.923
1889.35	0.924
1898.48	0.925
1907.62	0.924
1916.76	0.925
1925.89	0.924
1935.03	0.925
1944.17	0.923
1953.31	0.924
1962.44	0.925
1971.58	0.924
1980.72	0.922
1989.85	0.923
1998.99	0.921
2008.13	0.918
2017.27	0.918
2026.4	0.919
2035.54	0.918
2044.68	0.918
2053.81	0.9185
2062.95	0.917
2072.09	0.918
2081.22	0.9201
2090.36	0.921
2099.5	0.921
2108.64	0.9206
2117.77	0.923
2126.91	0.925
2136.05	0.9249
2145.18	0.925
2154.32	0.925
2163.46	0.924
2172.6	0.925
2181.73	0.926
2190.87	0.925
2200.01	0.925
2209.14	0.925
2218.28	0.925
2227.42	0.925
2236.56	0.924
2245.69	0.925
2254.83	0.925
2263.97	0.9219
2273.1	0.92
2282.24	0.9203
2291.38	0.922
2300.52	0.9219
2309.65	0.919
2318.79	0.918
2327.93	0.918
2337.06	0.917
2346.2	0.919
2355.34	0.919
2364.47	0.918
2373.61	0.918
2382.75	0.9197
2391.89	0.919
2401.02	0.9197
2410.16	0.9202
2419.3	0.922
2428.43	0.9232
2437.57	0.9247
2446.71	0.925
2455.85	0.925
2464.98	0.9252
2474.12	0.928
2483.26	0.9248
2492.39	0.924
2501.53	0.924
2510.67	0.9232
2519.81	0.921
2528.94	0.9228
2538.08	0.923
2547.22	0.9195
2556.35	0.915
2565.49	0.9102
2574.63	0.9067
2583.76	0.9022
2592.9	0.9
2602.04	0.899
2611.18	0.899
2620.31	0.899
2629.45	0.9
2638.59	0.9
2647.72	0.899
2656.86	0.8972
2666	0.8947
2675.14	0.8912
2684.27	0.8887
2693.41	0.8852
2702.55	0.8807
2711.68	0.8723
2720.82	0.8646
2729.96	0.8685
2739.1	0.8787
2748.23	0.8801
2757.37	0.88
2766.51	0.8751
2775.64	0.8672
2784.78	0.8524
2793.92	0.8364
2803.06	0.808
2812.19	0.7673
2821.33	0.7144
2830.47	0.6184
2839.6	0.4092
2848.74	0.2599
2857.88	0.1976
2867.01	0.121
2876.15	0.1743
2885.29	0.2022
2894.43	0.1247
2903.56	0.0758
2912.7	0.0502
2921.84	0.0316
2930.97	0.0378
2940.11	0.0511
2949.25	0.0122
2958.39	0.0094
2967.52	0.0655
2976.66	0.2477
2985.8	0.5276
2994.93	0.6765
3004.07	0.77
3013.21	0.821
3022.35	0.8521
3031.48	0.872
3040.62	0.8821
3049.76	0.8936
3058.89	0.9
3068.03	0.905
3077.17	0.909
3086.3	0.9115
3095.44	0.915
3104.58	0.9159
3113.72	0.917
3122.85	0.919
3131.99	0.919
3141.13	0.9174
3150.26	0.917
3159.4	0.918
3168.54	0.918
3177.68	0.919
3186.81	0.923
3195.95	0.9266
3205.09	0.931
3214.22	0.9316
3223.36	0.9351
3232.5	0.938
3241.64	0.9402
3250.77	0.9394
3259.91	0.941
3269.05	0.942
3278.18	0.943
3287.32	0.9446
3296.46	0.946
3305.6	0.946
3314.73	0.946
3323.87	0.946
3333.01	0.946
3342.14	0.9463
3351.28	0.946
3360.42	0.946
3369.55	0.948
3378.69	0.949
3387.83	0.948
3396.97	0.948
3406.1	0.9458
3415.24	0.944
3424.38	0.9376
3433.51	0.9271
3442.65	0.9188
3451.79	0.9205
3460.93	0.9307
3470.06	0.9417
3479.2	0.947
3488.34	0.948
3497.47	0.948
3506.61	0.9472
3515.75	0.9447
3524.89	0.943
3534.02	0.941
3543.16	0.941
3552.3	0.9413
3561.43	0.9438
3570.57	0.9493
3579.71	0.9544
3588.85	0.9477
3597.98	0.948
3607.12	0.9447
3616.26	0.9422
3625.39	0.9357
3634.53	0.9378
3643.67	0.9443
3652.8	0.9468
3661.94	0.9467
3671.08	0.944
3680.22	0.9447
3689.35	0.9458
3698.49	0.948
3707.63	0.948
3716.76	0.948
3725.9	0.948
3735.04	0.948
3744.18	0.948
3753.31	0.948
3762.45	0.9489
3771.59	0.949
3780.72	0.949
3789.86	0.949
3799	0.949
3808.14	0.949
3817.27	0.949
3826.41	0.949
3835.55	0.949
3844.68	0.949
3853.82	0.949
3862.96	0.9494
3872.09	0.95
3881.23	0.95
3890.37	0.95
3899.51	0.95
3908.64	0.95
3917.78	0.95
3926.92	0.95
3936.05	0.95
3945.19	0.95
3954.33	0.95
3963.47	0.95
3972.6	0.9505
3981.74	0.952
