Infrared Spectrum: Propylstearate
Formula: C 21 H 42 O 2
CAS: 3634-92-2
State: gas
Instrument: HP-GC/MS/IRD
Origin: NIST Mass Spectrometry Data Center
1/CM	ABSORBANCE
550	5.3e-05
562	0
574	0.0001219
586	0.0001696
598	0.0001696
610	0.0002226
622	0.0002544
634	0.0002279
646	0.0001696
658	0.0002226
670	0.0001696
682	0.000265
694	0.0003604
706	0.000689
718	0.0009169
730	0.0008798
742	0.0007049
754	0.0006625
766	0.0006413
778	0.0005512
790	0.0004823
802	0.0004452
814	0.0004505
826	0.0004293
838	0.0005141
850	0.0005353
862	0.0005565
874	0.0006413
886	0.000742
898	0.0008692
910	0.0009222
922	0.0008957
934	0.000901
946	0.0011289
958	0.001537
970	0.0020087
982	0.0021518
994	0.0020087
1006	0.0018391
1018	0.0015158
1030	0.0015529
1042	0.0020458
1054	0.0026447
1066	0.0031217
1078	0.0028249
1090	0.0029362
1102	0.0033496
1114	0.0039962
1126	0.0043778
1138	0.0060844
1150	0.0087874
1162	0.0105841
1174	0.0104357
1186	0.0087132
1198	0.0072663
1210	0.0066833
1222	0.0067257
1234	0.0069324
1246	0.0065084
1258	0.0053795
1270	0.004505
1282	0.0039167
1294	0.0036252
1306	0.003445
1318	0.0032383
1330	0.0030369
1342	0.0035457
1354	0.0038637
1366	0.0030793
1378	0.0025228
1390	0.0021995
1402	0.0015794
1414	0.0013356
1426	0.0017596
1438	0.0025122
1450	0.0039114
1462	0.0051092
1474	0.0032595
1486	0.0015317
1498	0.0008798
1510	0.0006307
1522	0.0004929
1534	0.0003922
1546	0.0003604
1558	0.000371
1570	0.0002968
1582	0.0002597
1594	0.0002544
1606	0.0002332
1618	0.0002332
1630	0.0002226
1642	0.0002597
1654	0.0003074
1666	0.0003445
1678	0.0004452
1690	0.0006466
1702	0.0010971
1714	0.0018656
1726	0.0034344
1738	0.0079871
1750	0.0152905
1762	0.0107431
1774	0.0040174
1786	0.0017278
1798	0.000901
1810	0.0005353
1822	0.0003604
1834	0.0002756
1846	0.0002385
1858	0.0001855
1870	0.0001802
1882	0.0001484
1894	0.0001537
1906	0.0001272
1918	0.0001431
1930	0.0001484
1942	0.0001378
1954	0.0001325
1966	0.0001272
1978	0.0001113
1990	0.0001272
2002	0.0001325
2014	0.0001484
2026	0.000159
2038	0.0001802
2050	0.0001431
2062	0.0001431
2074	0.0001378
2086	0.0001272
2098	0.000106
2110	8.48e-05
2122	7.95e-05
2134	8.48e-05
2146	7.95e-05
2158	7.95e-05
2170	5.83e-05
2182	7.95e-05
2194	7.42e-05
2206	6.36e-05
2218	6.36e-05
2230	7.95e-05
2242	5.3e-05
2254	5.3e-05
2266	4.77e-05
2278	6.89e-05
2290	5.83e-05
2302	4.77e-05
2314	4.77e-05
2326	8.48e-05
2338	6.89e-05
2350	5.3e-05
2362	5.3e-05
2374	3.18e-05
2386	4.24e-05
2398	4.77e-05
2410	5.83e-05
2422	2.65e-05
2434	3.71e-05
2446	1.59e-05
2458	2.65e-05
2470	3.18e-05
2482	3.71e-05
2494	4.24e-05
2506	4.24e-05
2518	7.42e-05
2530	9.01e-05
2542	0.000106
2554	0.0001113
2566	9.54e-05
2578	0.0001272
2590	0.0001696
2602	0.0002173
2614	0.0002385
2626	0.0002756
2638	0.0003021
2650	0.0003604
2662	0.0004028
2674	0.0004717
2686	0.0005035
2698	0.0004717
2710	0.0004399
2722	0.0004823
2734	0.0005406
2746	0.0006042
2758	0.0006625
2770	0.0007208
2782	0.0009063
2794	0.0011501
2806	0.0014893
2818	0.0020352
2830	0.0029415
2842	0.0050085
2854	0.0127147
2866	0.0190535
2878	0.0125769
2890	0.0112996
2902	0.0142994
2914	0.0232034
2926	0.0446525
2938	0.048177
2950	0.0265159
2962	0.0180253
2974	0.0144796
2986	0.0087874
2998	0.0043672
3010	0.0025122
3022	0.0017013
3034	0.001219
3046	0.0009487
3058	0.0007632
3070	0.0005989
3082	0.0005088
3094	0.0004399
3106	0.0003445
3118	0.0003233
3130	0.0002968
3142	0.0002438
3154	0.0002385
3166	0.0002226
3178	0.0001855
3190	0.000159
3202	0.0001484
3214	0.0001219
3226	6.89e-05
3238	8.48e-05
3250	7.42e-05
3262	4.24e-05
3274	7.42e-05
3286	4.77e-05
3298	3.18e-05
3310	2.12e-05
3322	6.89e-05
3334	3.18e-05
3346	3.71e-05
3358	2.65e-05
3370	3.18e-05
3382	7.42e-05
3394	9.01e-05
3406	0.000106
3418	4.24e-05
3430	7.95e-05
3442	4.24e-05
3454	0.0001007
3466	0.0001113
3478	0.0001643
3490	0.0002014
3502	0.0001007
3514	0.0001113
3526	5.83e-05
3538	0
3550	5.83e-05
3562	7.42e-05
3574	0.0001007
3586	9.54e-05
3598	0.000106
3610	9.01e-05
3622	0.0001272
3634	0.000159
3646	0.0001219
3658	0.0001378
3670	0.0001431
3682	9.54e-05
3694	9.54e-05
3706	0.0001007
3718	0.0001272
3730	0.0001113
3742	0.000159
3754	0.0001484
3766	0.0001378
3778	0.0001272
3790	0.0001696
3802	0.0001855
3814	0.0002014
3826	0.0001855
3838	0.0002173
