Infrared Spectrum: Cyclooctylmethanol
Formula: C 9 H 18 O
CAS: 3637-63-6
State: gas
Instrument: HP-GC/MS/IRD
Origin: NIST Mass Spectrometry Data Center
1/CM	ABSORBANCE
550	0.0002632
562	0.0002912
574	0.0001792
586	0.000196
598	0.0001568
610	0.0001904
622	0.0001064
634	8.4e-05
646	3.92e-05
658	5.6e-06
670	6.16e-05
682	7.28e-05
694	0.000112
706	0.0001512
718	0.0001792
730	0.000224
742	0.000308
754	0.000364
766	0.0004704
778	0.0004928
790	0.0005488
802	0.0005936
814	0.0005376
826	0.0005096
838	0.0004704
850	0.0005152
862	0.0005656
874	0.0005824
886	0.0006776
898	0.0008904
910	0.0009688
922	0.000896
934	0.0009184
946	0.0008904
958	0.001176
970	0.0016576
982	0.0023184
994	0.0034664
1006	0.0049448
1018	0.0060256
1030	0.0091784
1042	0.0102312
1054	0.005964
1066	0.0045584
1078	0.0040096
1090	0.0026376
1102	0.0017752
1114	0.001428
1126	0.0012432
1138	0.0011032
1150	0.0011088
1162	0.0012488
1174	0.0013328
1186	0.001344
1198	0.0013272
1210	0.0013776
1222	0.001512
1234	0.0016912
1246	0.0016352
1258	0.0015792
1270	0.0014728
1282	0.0014616
1294	0.0014952
1306	0.0014112
1318	0.0013272
1330	0.001456
1342	0.001764
1354	0.002184
1366	0.00224
1378	0.0020608
1390	0.0016968
1402	0.0012264
1414	0.001008
1426	0.0011312
1438	0.0026656
1450	0.0048776
1462	0.0051632
1474	0.0045528
1486	0.0025256
1498	0.0009744
1510	0.0004424
1522	0.00028
1534	0.0002184
1546	0.0001792
1558	0.0001288
1570	0.0001456
1582	0.0001288
1594	0.0001176
1606	0.0001008
1618	6.72e-05
1630	7.84e-05
1642	7.28e-05
1654	2.24e-05
1666	4.48e-05
1678	3.36e-05
1690	5.6e-05
1702	1.12e-05
1714	2.8e-05
1726	4.48e-05
1738	1.68e-05
1750	2.8e-05
1762	3.92e-05
1774	5.04e-05
1786	5.6e-05
1798	4.48e-05
1810	4.48e-05
1822	3.92e-05
1834	2.8e-05
1846	1.68e-05
1858	2.8e-05
1870	3.36e-05
1882	2.8e-05
1894	2.24e-05
1906	2.24e-05
1918	3.36e-05
1930	1.12e-05
1942	2.8e-05
1954	5.04e-05
1966	4.48e-05
1978	6.16e-05
1990	3.92e-05
2002	3.36e-05
2014	4.48e-05
2026	6.16e-05
2038	6.72e-05
2050	9.52e-05
2062	7.84e-05
2074	5.04e-05
2086	5.04e-05
2098	5.6e-05
2110	3.92e-05
2122	5.04e-05
2134	2.8e-05
2146	3.92e-05
2158	5.04e-05
2170	1.68e-05
2182	2.24e-05
2194	2.24e-05
2206	0
2218	3.36e-05
2230	5.6e-05
2242	2.24e-05
2254	3.92e-05
2266	5.04e-05
2278	2.8e-05
2290	2.8e-05
2302	3.36e-05
2314	4.48e-05
2326	5.6e-06
2338	1.12e-05
2350	4.48e-05
2362	0
2374	0
2386	2.24e-05
2398	3.92e-05
2410	6.72e-05
2422	7.84e-05
2434	9.52e-05
2446	8.96e-05
2458	8.96e-05
2470	0.0001008
2482	7.84e-05
2494	7.84e-05
2506	5.04e-05
2518	9.52e-05
2530	0.0001344
2542	0.0001512
2554	0.0001736
2566	0.0001848
2578	0.000196
2590	0.0002408
2602	0.0002464
2614	0.0002688
2626	0.0003136
2638	0.0003752
2650	0.0004816
2662	0.0005936
2674	0.000784
2686	0.0009632
2698	0.001092
2710	0.0010528
2722	0.0009912
2734	0.000952
2746	0.0009408
2758	0.001008
2770	0.001064
2782	0.0012544
2794	0.0014728
2806	0.0018144
2818	0.0022736
2830	0.0031472
2842	0.0060144
2854	0.0133168
2866	0.018452
2878	0.0172648
2890	0.0161504
2902	0.0227304
2914	0.0381472
2926	0.0553896
2938	0.0468328
2950	0.02492
2962	0.0123872
2974	0.0054824
2986	0.0024808
2998	0.001372
3010	0.000924
3022	0.0006832
3034	0.0004928
3046	0.0004312
3058	0.0003696
3070	0.0002688
3082	0.0002352
3094	0.0002016
3106	0.000196
3118	0.000168
3130	0.0001344
3142	0.0001176
3154	0.0001176
3166	8.4e-05
3178	7.84e-05
3190	6.72e-05
3202	6.16e-05
3214	8.4e-05
3226	8.96e-05
3238	8.4e-05
3250	3.36e-05
3262	1.68e-05
3274	5.04e-05
3286	3.92e-05
3298	0
3310	2.24e-05
3322	3.36e-05
3334	2.24e-05
3346	3.36e-05
3358	2.24e-05
3370	3.36e-05
3382	0.0001008
3394	7.84e-05
3406	0.0001232
3418	0.00014
3430	7.84e-05
3442	8.96e-05
3454	5.6e-05
3466	0.0001232
3478	0.0001176
3490	7.84e-05
3502	6.72e-05
3514	0.0001232
3526	0.0001232
3538	7.28e-05
3550	4.48e-05
3562	3.36e-05
3574	7.28e-05
3586	0.0001064
3598	0.0001344
3610	0.0001512
3622	0.000196
3634	0.0004032
3646	0.00084
3658	0.0018592
3670	0.002436
3682	0.0015176
3694	0.0004984
3706	0.0002296
3718	0.0001736
3730	0.00014
3742	0.000112
3754	0.0001288
3766	0.0001288
3778	0.0001792
3790	0.0002072
3802	0.0001848
3814	0.0001848
3826	0.000168
3838	0.0001792
