Infrared Spectrum: 4-PIPERIDINOL, 2,2,6,6-TETRAMETHYL-, 1-OXIDE
Formula: C9 H19 N O2
CAS: 3637-10-3
State: SOLUTION (10% IN CCl4 FOR 4000-1310, LESS THAN 10% IN CS2 FOR 1310-450 CM^-^1) VS. AIR
Class: COBLENTZ III
Instrument: CARY 90 (GRATING)
Instrument parameters: GRATING CHANGES AT 3000, 2000, 1200 CM^-^1
Sampling: TRANSMISSION
Path length: 0.010, 0.011 CM
Resolution: 4
Origin: WESTERN REGIONAL RES. USDA
1/CM	TRANSMITTANCE
449.513	0.436
458.682	0.446
467.851	0.473
477.02	0.504
486.189	0.528
495.358	0.549
504.527	0.574
513.696	0.585
522.865	0.599
532.034	0.609
541.203	0.635
550.373	0.64
559.542	0.641
568.711	0.658
577.88	0.625
587.049	0.679
596.218	0.695
605.387	0.707
614.556	0.716
623.725	0.722
632.894	0.728
642.063	0.721
651.232	0.707
660.401	0.702
669.57	0.729
678.739	0.718
687.908	0.665
697.077	0.752
706.246	0.767
715.415	0.776
724.584	0.781
733.753	0.787
742.922	0.794
752.092	0.799
761.261	0.8
770.43	0.802
779.599	0.803
788.768	0.799
797.937	0.799
807.106	0.802
816.275	0.797
825.444	0.804
834.613	0.8
843.782	0.776
852.951	0.683
862.12	0.666
871.289	0.689
880.458	0.726
889.627	0.759
898.796	0.785
907.965	0.708
917.134	0.803
926.303	0.813
935.472	0.802
944.642	0.799
953.811	0.807
962.98	0.778
972.149	0.799
981.318	0.813
990.487	0.787
999.656	0.784
1008.82	0.802
1017.99	0.797
1027.16	0.747
1036.33	0.718
1045.5	0.6429
1054.67	0.557
1063.84	0.64
1073.01	0.747
1082.18	0.775
1091.35	0.771
1100.52	0.796
1109.68	0.803
1118.85	0.809
1128.02	0.807
1137.19	0.796
1146.36	0.773
1155.53	0.744
1164.7	0.699
1173.87	0.617
1183.04	0.614
1192.21	0.712
1201.37	0.769
1210.54	0.802
1219.71	0.707
1228.88	0.742
1238.05	0.7
1247.22	0.623
1256.39	0.722
1265.56	0.752
1274.73	0.768
1283.9	0.769
1293.07	0.769
1302.23	0.767
1311.4	0.763
1320.57	0.732
1329.74	0.582
1338.91	0.501
1348.08	0.482
1357.25	0.373
1366.42	0.393
1375.59	0.36
1384.76	0.575
1393.92	0.643
1403.09	0.712
1412.26	0.721
1421.43	0.691
1430.6	0.651
1439.77	0.635
1448.94	0.61
1458.11	0.285
1467.28	0.426
1476.45	0.591
1485.62	0.752
1494.78	0.785
1503.95	0.764
1513.12	0.719
1522.29	0.681
1531.46	0.63
1540.63	0.537
1549.8	0.484
1558.97	0.529
1568.14	0.602
1577.31	0.646
1586.47	0.664
1595.64	0.705
1604.81	0.771
1613.98	0.832
1623.15	0.866
1632.32	0.876
1641.49	0.889
1650.66	0.897
1659.83	0.9
1669	0.902
1678.17	0.905
1687.33	0.909
1696.5	0.907
1705.67	0.909
1714.84	0.909
1724.01	0.908
1733.18	0.91
1742.35	0.91
1751.52	0.91
1760.69	0.912
1769.86	0.914
1779.02	0.916
1788.19	0.916
1797.36	0.915
1806.53	0.914
1815.7	0.914
1824.87	0.913
1834.04	0.91
1843.21	0.91
1852.38	0.91
1861.55	0.909
1870.72	0.909
1879.88	0.912
1889.05	0.915
1898.22	0.917
1907.39	0.917
1916.56	0.917
1925.73	0.917
1934.9	0.916
1944.07	0.916
1953.24	0.914
1962.41	0.913
1971.57	0.91
1980.74	0.907
1989.91	0.904
1999.08	0.901
2008.25	0.899
2017.42	0.898
2026.59	0.8963
2035.76	0.894
2044.93	0.893
2054.1	0.8911
2063.27	0.89
2072.43	0.889
2081.6	0.888
2090.77	0.886
2099.94	0.885
2109.11	0.8846
2118.28	0.8836
2127.45	0.882
2136.62	0.881
2145.79	0.88
2154.96	0.878
2164.12	0.877
2173.29	0.876
2182.46	0.876
2191.63	0.876
2200.8	0.876
2209.97	0.876
2219.14	0.875
2228.31	0.875
2237.48	0.873
2246.65	0.873
2255.82	0.873
2264.98	0.8698
2274.15	0.867
2283.32	0.8642
2292.49	0.8602
2301.66	0.8532
2310.83	0.849
2320	0.85
2329.17	0.8511
2338.34	0.855
2347.51	0.8573
2356.67	0.859
2365.84	0.861
2375.01	0.864
2384.18	0.863
2393.35	0.861
2402.52	0.86
2411.69	0.859
2420.86	0.859
2430.03	0.86
2439.2	0.863
2448.37	0.864
2457.53	0.8652
2466.7	0.867
2475.87	0.868
2485.04	0.868
2494.21	0.867
2503.38	0.865
2512.55	0.8634
2521.72	0.861
2530.89	0.859
2540.06	0.857
2549.22	0.858
2558.39	0.859
2567.56	0.858
2576.73	0.856
2585.9	0.855
2595.07	0.855
2604.24	0.853
2613.41	0.851
2622.58	0.85
2631.75	0.851
2640.92	0.851
2650.08	0.8483
2659.25	0.8432
2668.42	0.8391
2677.59	0.837
2686.76	0.836
2695.93	0.836
2705.1	0.835
2714.27	0.8342
2723.44	0.836
2732.61	0.839
2741.77	0.842
2750.94	0.844
2760.11	0.844
2769.28	0.8423
2778.45	0.84
2787.62	0.8362
2796.79	0.832
2805.96	0.827
2815.13	0.821
2824.3	0.8148
2833.47	0.8006
2842.63	0.79
2851.8	0.7454
2860.97	0.5938
2870.14	0.532
2879.31	0.5395
2888.48	0.5375
2897.65	0.4831
2906.82	0.4186
2915.99	0.4322
2925.16	0.3271
2934.32	0.1754
2943.49	0.1591
2952.66	0.2975
2961.83	0.4382
2971	0.235
2980.17	0.1532
2989.34	0.2489
2998.51	0.2556
3007.68	0.4965
3016.85	0.6744
3026.02	0.7655
3035.18	0.8166
3044.35	0.8325
3053.52	0.8438
3062.69	0.849
3071.86	0.853
3081.03	0.8562
3090.2	0.858
3099.37	0.858
3108.54	0.857
3117.71	0.856
3126.87	0.853
3136.04	0.8504
3145.21	0.8473
3154.38	0.8432
3163.55	0.8373
3172.72	0.8311
3181.89	0.823
3191.06	0.8159
3200.23	0.8089
3209.4	0.8028
3218.57	0.7947
3227.73	0.7857
3236.9	0.7753
3246.07	0.763
3255.24	0.7469
3264.41	0.7262
3273.58	0.7026
3282.75	0.6801
3291.92	0.6554
3301.09	0.6305
3310.26	0.605
3319.42	0.5765
3328.59	0.5335
3337.76	0.5156
3346.93	0.4929
3356.1	0.4674
3365.27	0.4375
3374.44	0.4103
3383.61	0.3844
3392.78	0.3573
3401.95	0.328
3411.12	0.3075
3420.28	0.2963
3429.45	0.292
3438.62	0.292
3447.79	0.3031
3456.96	0.3237
3466.13	0.3485
3475.3	0.3833
3484.47	0.4252
3493.64	0.4746
3502.81	0.5161
3511.97	0.5627
3521.14	0.6034
3530.31	0.6511
3539.48	0.6976
3548.65	0.7387
3557.82	0.7699
3566.99	0.7965
3576.16	0.8201
3585.33	0.8234
3594.5	0.8059
3603.67	0.7744
3612.83	0.7128
3622	0.7475
3631.17	0.8417
3640.34	0.8676
3649.51	0.8757
3658.68	0.8752
3667.85	0.8721
3677.02	0.873
3686.19	0.877
3695.36	0.8821
3704.52	0.8863
3713.69	0.8912
3722.86	0.8933
3732.03	0.893
3741.2	0.891
3750.37	0.8885
3759.54	0.8854
3768.71	0.885
3777.88	0.884
3787.05	0.885
3796.22	0.8878
3805.38	0.891
3814.55	0.892
3823.72	0.8919
3832.89	0.891
3842.06	0.891
3851.23	0.891
3860.4	0.891
3869.57	0.8915
3878.74	0.892
3887.91	0.893
3897.07	0.894
3906.24	0.896
3915.41	0.897
3924.58	0.898
3933.75	0.899
3942.92	0.9
3952.09	0.9012
3961.26	0.904
