Infrared Spectrum: Cyclopentylmethanol
Formula: C 6 H 12 O
CAS: 3637-61-4
State: gas
Instrument: HP-GC/MS/IRD
Origin: NIST Mass Spectrometry Data Center
1/CM	ABSORBANCE
550	0.0001584
562	0.0002232
574	0.0002736
586	0.0001704
598	0.0002568
610	0.0001536
622	0.0001392
634	0.000108
646	0.0001704
658	0.0001248
670	7.2e-05
682	3.36e-05
694	2.88e-05
706	4.8e-06
718	3.84e-05
730	3.36e-05
742	4.8e-05
754	8.64e-05
766	0.0001032
778	0.0001632
790	0.0001224
802	0.0001656
814	0.000168
826	0.0002064
838	0.0002832
850	0.000264
862	0.0002784
874	0.000432
886	0.000648
898	0.0007056
910	0.000864
922	0.0011976
934	0.0014184
946	0.0013296
958	0.0013464
970	0.0015984
982	0.0020544
994	0.002772
1006	0.003744
1018	0.005844
1030	0.0076128
1042	0.0074016
1054	0.0057744
1066	0.004944
1078	0.0037272
1090	0.0024168
1102	0.0015528
1114	0.0012552
1126	0.0010824
1138	0.001008
1150	0.0010368
1162	0.0010032
1174	0.0009528
1186	0.0010008
1198	0.0011352
1210	0.0012912
1222	0.0014496
1234	0.001416
1246	0.0013416
1258	0.0012336
1270	0.001212
1282	0.0011352
1294	0.0011016
1306	0.0010104
1318	0.0009624
1330	0.0009504
1342	0.0010824
1354	0.0012552
1366	0.0014808
1378	0.0018216
1390	0.0017976
1402	0.0013176
1414	0.0009312
1426	0.000804
1438	0.000936
1450	0.0012192
1462	0.0014544
1474	0.0013656
1486	0.0009312
1498	0.0005088
1510	0.0003144
1522	0.0002136
1534	0.000132
1546	0.0001272
1558	7.68e-05
1570	6e-05
1582	5.76e-05
1594	4.32e-05
1606	3.84e-05
1618	2.88e-05
1630	1.44e-05
1642	1.44e-05
1654	1.68e-05
1666	1.92e-05
1678	1.44e-05
1690	9.6e-06
1702	1.2e-05
1714	1.2e-05
1726	3.12e-05
1738	3.84e-05
1750	3.36e-05
1762	2.4e-05
1774	9.6e-06
1786	1.2e-05
1798	1.92e-05
1810	1.44e-05
1822	7.2e-06
1834	1.44e-05
1846	9.6e-06
1858	1.92e-05
1870	2.64e-05
1882	2.64e-05
1894	1.44e-05
1906	4.8e-06
1918	3.36e-05
1930	2.4e-06
1942	2.88e-05
1954	0
1966	2.4e-05
1978	5.04e-05
1990	3.84e-05
2002	5.52e-05
2014	7.92e-05
2026	8.88e-05
2038	8.4e-05
2050	9.36e-05
2062	9.36e-05
2074	5.52e-05
2086	4.08e-05
2098	2.88e-05
2110	4.8e-05
2122	9.6e-06
2134	2.64e-05
2146	2.4e-05
2158	1.2e-05
2170	2.16e-05
2182	5.28e-05
2194	2.88e-05
2206	2.88e-05
2218	2.64e-05
2230	1.2e-05
2242	3.84e-05
2254	2.88e-05
2266	2.88e-05
2278	5.52e-05
2290	5.04e-05
2302	3.12e-05
2314	6e-05
2326	6e-05
2338	6.72e-05
2350	9.6e-05
2362	5.76e-05
2374	3.6e-05
2386	4.56e-05
2398	6.72e-05
2410	4.32e-05
2422	5.76e-05
2434	3.12e-05
2446	5.28e-05
2458	3.84e-05
2470	3.84e-05
2482	3.6e-05
2494	4.08e-05
2506	4.56e-05
2518	4.08e-05
2530	5.28e-05
2542	3.36e-05
2554	6.96e-05
2566	7.44e-05
2578	6.96e-05
2590	0.0001128
2602	0.000132
2614	0.0001656
2626	0.0001464
2638	0.0001608
2650	0.0001656
2662	0.00018
2674	0.0001872
2686	0.000228
2698	0.0002472
2710	0.0002928
2722	0.0004008
2734	0.0004416
2746	0.0005352
2758	0.0006096
2770	0.00066
2782	0.0007296
2794	0.0008376
2806	0.0010008
2818	0.001308
2830	0.0018888
2842	0.0030768
2854	0.0055896
2866	0.009684
2878	0.0122496
2890	0.0120792
2902	0.0111624
2914	0.0121824
2926	0.0141336
2938	0.0173448
2950	0.0216696
2962	0.024
2974	0.01542
2986	0.0076512
2998	0.003264
3010	0.001824
3022	0.0010704
3034	0.0006648
3046	0.0004152
3058	0.0003384
3070	0.0002808
3082	0.000228
3094	0.0002064
3106	0.0001992
3118	0.0001224
3130	0.0001056
3142	0.0001104
3154	8.4e-05
3166	0.0001176
3178	8.16e-05
3190	8.88e-05
3202	6.72e-05
3214	3.84e-05
3226	5.52e-05
3238	6.96e-05
3250	3.36e-05
3262	4.32e-05
3274	5.04e-05
3286	5.52e-05
3298	5.76e-05
3310	3.36e-05
3322	2.88e-05
3334	6e-05
3346	8.4e-05
3358	5.28e-05
3370	7.44e-05
3382	3.36e-05
3394	4.32e-05
3406	8.64e-05
3418	9.12e-05
3430	9.36e-05
3442	0.0001128
3454	0.0001416
3466	0.0001176
3478	0.000168
3490	0.0001608
3502	0.0001656
3514	0.0001392
3526	0.000132
3538	9.36e-05
3550	0.0001392
3562	0.0001392
3574	0.0001392
3586	0.0001056
3598	0.0001176
3610	0.0001896
3622	0.0002328
3634	0.000456
3646	0.0009576
3658	0.0016968
3670	0.001992
3682	0.001392
3694	0.0006048
3706	0.0003168
3718	0.0001776
3730	0.0001656
3742	0.0001704
3754	0.0001536
3766	0.0001632
3778	0.0002112
3790	0.0001872
3802	0.0001608
3814	0.0001848
3826	0.0002256
3838	0.0002184
