Infrared Spectrum: 4-Ethoxy-3-methoxyphenethylamine
Formula: C 11 H 17 N O 2
CAS: 36377-59-0
State: gas
Origin: EPA-IR VAPOR PHASE LIBRARY
1/CM	ABSORBANCE
549.8	0.0064399
559.445	0.0063999
569.09	0.0066299
578.734	0.0061399
588.379	0.0060499
598.024	0.0062999
607.669	0.0062999
617.313	0.0069099
626.958	0.0085299
636.603	0.0099099
646.248	0.0093699
655.893	0.0079799
665.537	0.0075499
675.182	0.0078899
684.827	0.0088399
694.472	0.0101999
704.116	0.0119899
713.761	0.0138599
723.406	0.0179999
733.051	0.0232199
742.695	0.0268499
752.34	0.0315299
761.985	0.0382499
771.63	0.0435299
781.275	0.0431999
790.919	0.0397099
800.564	0.0351799
810.209	0.0284399
819.854	0.0228499
829.498	0.0172699
839.143	0.0139699
848.788	0.0133099
858.433	0.0134899
868.078	0.0144799
877.722	0.0147799
887.367	0.0147199
897.012	0.0151399
906.657	0.0146299
916.301	0.0130399
925.946	0.0120299
935.591	0.0104199
945.236	0.0083999
954.88	0.0073799
964.525	0.0073799
974.17	0.0082699
983.815	0.0104099
993.46	0.0134699
1003.1	0.0181599
1012.75	0.0287999
1022.39	0.0545999
1032.04	0.0905399
1041.68	0.0909299
1051.33	0.0596499
1060.97	0.0397999
1070.62	0.0321799
1080.26	0.0253399
1089.91	0.0246599
1099.55	0.0262899
1109.2	0.0335099
1118.84	0.0514599
1128.49	0.0627599
1138.13	0.0578499
1147.78	0.0510399
1157.42	0.0455599
1167.07	0.0303199
1176.71	0.0198799
1186.36	0.0203999
1196	0.0270199
1205.64	0.0475099
1215.29	0.0838399
1224.93	0.0984199
1234.58	0.0825299
1244.22	0.0726399
1253.87	0.0977699
1263.51	0.14889
1273.16	0.1521
1282.8	0.10616
1292.45	0.0675599
1302.09	0.0485499
1311.74	0.0343499
1321.38	0.0249299
1331.03	0.0210999
1340.67	0.0184199
1350.32	0.0164199
1359.96	0.0161099
1369.61	0.0170699
1379.25	0.0224599
1388.9	0.0313399
1398.54	0.0328199
1408.18	0.0372699
1417.83	0.0383999
1427.47	0.0247999
1437.12	0.0204899
1446.76	0.0250599
1456.41	0.0298999
1466.05	0.0361699
1475.7	0.0466799
1485.34	0.0532999
1494.99	0.0869099
1504.63	0.15529
1514.28	0.12394
1523.92	0.0496899
1533.57	0.0228999
1543.21	0.0152599
1552.86	0.0135199
1562.5	0.0153799
1572.15	0.0211299
1581.79	0.0247199
1591.44	0.0215399
1601.08	0.0207499
1610.73	0.0211399
1620.37	0.0181499
1630.01	0.0137199
1639.66	0.0091999
1649.3	0.0064899
1658.95	0.0049699
1668.59	0.0041499
1678.24	0.0036599
1687.88	0.0034399
1697.53	0.0031199
1707.17	0.0029999
1716.82	0.0028799
1726.46	0.0027199
1736.11	0.0026799
1745.75	0.0028099
1755.4	0.0027699
1765.04	0.0026199
1774.69	0.0025599
1784.33	0.0024999
1793.98	0.0024099
1803.62	0.0024399
1813.27	0.0025099
1822.91	0.0026199
1832.55	0.0027799
1842.2	0.0029099
1851.84	0.0030199
1861.49	0.0030899
1871.13	0.0028399
1880.78	0.0023999
1890.42	0.0021299
1900.07	0.0020699
1909.71	0.0021999
1919.36	0.0022199
1929	0.0021999
1938.65	0.0022099
1948.29	0.0022699
1957.94	0.0024599
1967.58	0.0024199
1977.23	0.0023299
1986.87	0.0023199
1996.52	0.0022899
2006.16	0.0024599
2015.81	0.0023999
2025.45	0.0024199
2035.1	0.0025999
2044.74	0.0027499
2054.38	0.0027199
2064.03	0.0025199
2073.67	0.0022699
2083.32	0.0019399
2092.96	0.0016899
2102.61	0.0013899
2112.25	0.0011999
2121.9	0.0011699
2131.54	0.0012899
2141.19	0.0013099
2150.83	0.0012499
2160.48	0.0011599
2170.12	0.0011399
2179.77	0.0011399
2189.41	0.0012699
2199.06	0.0012199
2208.7	0.0010459
2218.35	0.0010356
2227.99	0.0010599
2237.64	0.0010599
2247.28	0.0010599
2256.92	0.0011999
2266.57	0.0012999
2276.21	0.0013699
2285.86	0.0012999
2295.5	0.0011499
2305.15	0.0010599
2314.79	0.0010599
2324.44	0.0009259
2334.08	0.0009216
2343.73	0.0008354
2353.37	0.0009056
2363.02	0.0008873
2372.66	0.0008655
2382.31	0.0009464
2391.95	0.0010324
2401.6	0.0010999
2411.24	0.0012599
2420.89	0.0013899
2430.53	0.0012699
2440.18	0.0013799
2449.82	0.0011899
2459.47	0.0012699
2469.11	0.0013399
2478.75	0.0013399
2488.4	0.0012899
2498.04	0.0012599
2507.69	0.0014899
2517.33	0.0016099
2526.98	0.0017599
2536.62	0.0019599
2546.27	0.0021099
2555.91	0.0021299
2565.56	0.0020099
2575.2	0.0019099
2584.85	0.0018099
2594.49	0.0017899
2604.14	0.0017899
2613.78	0.0017599
2623.43	0.0016699
2633.07	0.0017199
2642.72	0.0017299
2652.36	0.0017999
2662.01	0.0019799
2671.65	0.0020299
2681.29	0.0021999
2690.94	0.0022999
2700.58	0.0025999
2710.23	0.0028899
2719.87	0.0033299
2729.52	0.0037899
2739.16	0.0042299
2748.81	0.0042099
2758.45	0.0043599
2768.1	0.0044999
2777.74	0.0047699
2787.39	0.0052699
2797.03	0.0062899
2806.68	0.0080099
2816.32	0.0112799
2825.97	0.0168899
2835.61	0.0256099
2845.26	0.0343299
2854.9	0.0399599
2864.55	0.0409999
2874.19	0.0429599
2883.84	0.0444299
2893.48	0.0423899
2903.12	0.0472099
2912.77	0.0608999
2922.41	0.0722799
2932.06	0.0848399
2941.7	0.0988099
2951.35	0.0764799
2960.99	0.0544399
2970.64	0.0490499
2980.28	0.0544599
2989.93	0.0527099
2999.57	0.0429199
3009.22	0.0313599
3018.86	0.0208099
3028.51	0.0195599
3038.15	0.0213899
3047.8	0.0187899
3057.44	0.0156599
3067.09	0.0119799
3076.73	0.0085499
3086.38	0.0067899
3096.02	0.0053799
3105.67	0.0043699
3115.31	0.0036899
3124.95	0.0028699
3134.6	0.0024799
3144.24	0.0017999
3153.89	0.0016599
3163.53	0.0015499
3173.18	0.0013099
3182.82	0.0014299
3192.47	0.0011099
3202.11	0.0010599
3211.76	0.0008402
3221.4	0.0008734
3231.05	0.0008961
3240.69	0.0007577
3250.34	0.0005771
3259.98	0.0004621
3269.63	0.0005482
3279.27	0.0003743
3288.92	0.0002809
3298.56	0.000506
3308.21	0.0003993
3317.85	0.0005959
3327.49	0.0005338
3337.14	0.0010999
3346.78	0.0011999
3356.43	0.0008399
3366.07	0.0005516
3375.72	0.0007118
3385.36	0.0005562
3395.01	0.0006427
3404.65	0.0010999
3414.3	0.0011299
3423.94	0.0006304
3433.59	0.0005678
3443.23	0.0004065
3452.88	0.0002694
3462.52	0.0002623
3472.17	0.0003911
3481.81	0.0003907
3491.46	0.0003886
3501.1	0.0004128
3510.75	0.0002965
3520.39	0.0003395
3530.04	0.000212
3539.68	0.00011766
3549.32	0.0001883
3558.97	0.0002434
3568.61	0.0001769
3578.26	0.0003395
3587.9	0.000271
3597.55	0.0001655
3607.19	3.86e-05
3616.84	0.0002939
3626.48	0.0002046
3636.13	0.000262
3645.77	0.0003489
3655.42	0.0001735
3665.06	0.00011848
3674.71	9.74e-05
3684.35	0.0002613
3694	0.0003995
3703.64	0.0002319
3713.29	0.0004826
3722.93	0.0006143
3732.58	0.0004061
3742.22	0.0005488
3751.86	0.0003749
3761.51	0.0005167
3771.15	0.0003038
3780.8	0.0004932
3790.44	0.0003783
3800.09	0.0004646
3809.73	0.0005017
3819.38	0.0002517
3829.02	0.0003914
3838.67	0.0003494
3848.31	0.0003764
3857.96	0.0003527
3867.6	0.0004418
3877.25	0.0005514
3886.89	0.0002584
3896.54	0.000329
3906.18	0.0004825
3915.83	0.0004174
3925.47	0.0005096
3935.12	0.0006629
3944.76	0.0007237
3954.41	0.0005274
3964.05	0.0006584
3973.69	0.0007998
3983.34	0.0008979
3992.98	0.0008261
