Infrared Spectrum: (3,4-Dimethylphenyl)ethanone
Formula: C 10 H 12 O
CAS: 3637-01-2
State: gas
Instrument: HP-GC/MS/IRD
Origin: NIST Mass Spectrometry Data Center
1/CM	ABSORBANCE
550	0.0003925
562	0.000305
574	0.0012075
586	0.00223
598	0.0023025
610	0.0013075
622	0.0008
634	0.0003325
646	0.000145
658	0.000315
670	0.001275
682	0.0010875
694	0.00034
706	0.0005875
718	0.0004125
730	0.000115
742	2.25e-05
754	2.25e-05
766	0.0001625
778	0.00015
790	0.0005675
802	0.0017475
814	0.0030075
826	0.00265
838	0.001075
850	0.00038
862	0.0006075
874	0.00144
886	0.0012975
898	0.0009375
910	0.000745
922	0.00053
934	0.0008275
946	0.0017975
958	0.00222
970	0.0019375
982	0.00129
994	0.0011625
1006	0.00105
1018	0.00093
1030	0.00081
1042	0.0005725
1054	0.00046
1066	0.0004175
1078	0.000505
1090	0.000555
1102	0.000645
1114	0.0015875
1126	0.0033725
1138	0.0036325
1150	0.0024
1162	0.0016275
1174	0.0027475
1186	0.0016225
1198	0.00109
1210	0.00288
1222	0.003525
1234	0.002935
1246	0.0081825
1258	0.0203175
1270	0.015615
1282	0.005925
1294	0.00619
1306	0.0027625
1318	0.001275
1330	0.0013275
1342	0.002685
1354	0.006245
1366	0.0056775
1378	0.0028025
1390	0.0031925
1402	0.0048425
1414	0.0040225
1426	0.002655
1438	0.002815
1450	0.0031075
1462	0.0027625
1474	0.00182
1486	0.0013875
1498	0.0013325
1510	0.0009575
1522	0.0007975
1534	0.0008725
1546	0.00123
1558	0.0018025
1570	0.0023225
1582	0.002275
1594	0.00293
1606	0.0045875
1618	0.0032925
1630	0.0014525
1642	0.0011775
1654	0.0017525
1666	0.0024175
1678	0.003865
1690	0.0135075
1702	0.025
1714	0.01158
1726	0.002675
1738	0.001935
1750	0.00184
1762	0.000925
1774	0.000455
1786	0.000385
1798	0.0003275
1810	0.000245
1822	0.0001925
1834	0.0002175
1846	0.0001875
1858	0.0001575
1870	0.00024
1882	0.0003
1894	0.000245
1906	0.00018
1918	0.0002
1930	0.0002375
1942	0.000185
1954	0.000165
1966	0.0001175
1978	8e-05
1990	4.25e-05
2002	5e-05
2014	4e-05
2026	6.25e-05
2038	7.5e-05
2050	6.5e-05
2062	2e-05
2074	3e-05
2086	3.25e-05
2098	1.5e-05
2110	3.5e-05
2122	2.5e-05
2134	2.25e-05
2146	4.25e-05
2158	1.75e-05
2170	3.5e-05
2182	0
2194	4.25e-05
2206	4.25e-05
2218	4.5e-05
2230	6.5e-05
2242	7.25e-05
2254	7.25e-05
2266	5.25e-05
2278	5e-05
2290	7.75e-05
2302	6e-05
2314	5.25e-05
2326	5e-05
2338	3.25e-05
2350	8.5e-05
2362	6.25e-05
2374	5e-05
2386	6e-05
2398	3e-05
2410	4.25e-05
2422	4e-05
2434	8.5e-05
2446	6.5e-05
2458	6e-05
2470	6e-05
2482	8.5e-05
2494	0.0001275
2506	6.75e-05
2518	8.75e-05
2530	0.0001
2542	0.000115
2554	0.00014
2566	0.0001575
2578	0.000175
2590	0.0001625
2602	0.0001175
2614	0.00012
2626	7.75e-05
2638	7.5e-05
2650	0.0001025
2662	9e-05
2674	9.75e-05
2686	0.00012
2698	0.0001075
2710	0.0001325
2722	0.0001675
2734	0.00027
2746	0.0003075
2758	0.0002275
2770	0.0002375
2782	0.000245
2794	0.0002725
2806	0.0002975
2818	0.0004075
2830	0.000545
2842	0.0008225
2854	0.0012675
2866	0.00202
2878	0.00281
2890	0.002785
2902	0.0024975
2914	0.0028575
2926	0.00499
2938	0.00607
2950	0.0046375
2962	0.00386
2974	0.0039675
2986	0.00366
2998	0.0027875
3010	0.002975
3022	0.0035725
3034	0.00331
3046	0.002505
3058	0.0022725
3070	0.0021975
3082	0.001905
3094	0.00127
3106	0.0009375
3118	0.000715
3130	0.0004875
3142	0.00039
3154	0.00031
3166	0.000215
3178	0.0001675
3190	0.0001275
3202	0.0001575
3214	0.00014
3226	0.00013
3238	0.00012
3250	0.00014
3262	0.00012
3274	0.0001075
3286	0.0001275
3298	0.0001325
3310	0.0001425
3322	0.000125
3334	0.0001875
3346	0.0001725
3358	0.000165
3370	0.0003175
3382	0.0005025
3394	0.0004775
3406	0.000245
3418	0.00021
3430	0.000135
3442	0.0001225
3454	0.0001075
3466	0.0001025
3478	9.5e-05
3490	9e-05
3502	0.000105
3514	0.0001175
3526	0.00011
3538	9e-05
3550	2.5e-05
3562	0.0001175
3574	0.00014
3586	8.25e-05
3598	0.0001
3610	0.0001175
3622	0.0001175
3634	0.0001175
3646	5.75e-05
3658	0.0001025
3670	7.75e-05
3682	0.000135
3694	0.0001225
3706	6.5e-05
3718	0.0001225
3730	0.00011
3742	0.00011
3754	0.0001225
3766	0.0001375
3778	0.00012
3790	0.0001325
3802	0.000115
3814	0.0001575
3826	0.0001375
3838	0.0001375
