Infrared Spectrum: 2-Ethyl-2-hydroxybutyric acid
Formula: C 6 H 12 O 3
CAS: 3639-21-2
State: gas
Origin: EPA-IR VAPOR PHASE LIBRARY
1/CM	ABSORBANCE
501.5	0.00469
513.074	0.00498
524.648	0.00546
536.222	0.00665
547.796	0.00908
559.37	0.0126
570.944	0.01627
582.518	0.0161
594.092	0.01075
605.666	0.00716
617.24	0.00613
628.814	0.00427
640.388	0.00309
651.962	0.003
663.536	0.0029
675.11	0.00286
686.684	0.00321
698.258	0.00523
709.832	0.00842
721.406	0.00785
732.98	0.00559
744.554	0.00639
756.128	0.00655
767.702	0.00453
779.276	0.00354
790.85	0.00347
802.423	0.00292
813.997	0.00197
825.571	0.00141
837.145	0.00105
848.719	0.0009276
860.293	0.0009337
871.867	0.00102
883.441	0.00149
895.015	0.00228
906.589	0.00352
918.163	0.00443
929.737	0.00438
941.311	0.00426
952.885	0.00494
964.459	0.00739
976.033	0.01109
987.607	0.01157
999.181	0.00752
1010.76	0.00495
1022.33	0.00571
1033.9	0.00889
1045.48	0.01104
1057.05	0.00982
1068.63	0.00835
1080.2	0.01014
1091.77	0.01924
1103.35	0.03805
1114.92	0.05401
1126.49	0.04724
1138.07	0.03267
1149.64	0.02565
1161.22	0.01926
1172.79	0.01323
1184.36	0.00931
1195.94	0.00675
1207.51	0.00488
1219.09	0.00428
1230.66	0.00469
1242.23	0.00587
1253.81	0.0078
1265.38	0.01055
1276.96	0.01308
1288.53	0.01411
1300.1	0.01389
1311.68	0.01329
1323.25	0.01276
1334.83	0.01241
1346.4	0.01191
1357.97	0.01134
1369.55	0.01084
1381.12	0.01012
1392.7	0.00859
1404.27	0.00593
1415.84	0.00421
1427.42	0.00392
1438.99	0.00515
1450.57	0.00714
1462.14	0.00781
1473.71	0.00587
1485.29	0.00331
1496.86	0.00182
1508.44	0.0013
1520.01	0.00104
1531.58	0.0008816
1543.16	0.0008391
1554.73	0.0008381
1566.31	0.0008291
1577.88	0.0008436
1589.45	0.000802
1601.03	0.000681
1612.6	0.0006129
1624.18	0.0006385
1635.75	0.000716
1647.32	0.0008074
1658.9	0.0008747
1670.47	0.00106
1682.05	0.00153
1693.62	0.0022
1705.19	0.00287
1716.77	0.00397
1728.34	0.00599
1739.92	0.01234
1751.49	0.0345
1763.06	0.06325
1774.64	0.05303
1786.21	0.02948
1797.79	0.01984
1809.36	0.0104
1820.93	0.00485
1832.51	0.00319
1844.08	0.00205
1855.66	0.00133
1867.23	0.0009234
1878.8	0.0006062
1890.38	0.0005013
1901.95	0.0003967
1913.53	0.0002955
1925.1	0.0002516
1936.67	0.0001918
1948.25	0.0001814
1959.82	0.0001745
1971.4	0.0001544
1982.97	0.0001169
1994.54	0.0001313
2006.12	0.0001404
2017.69	0.0001804
2029.27	0.0001802
2040.84	0.0002276
2052.41	0.0002119
2063.99	0.0001741
2075.56	0.0001338
2087.14	0.0001172
2098.71	0.000115
2110.28	9.826e-05
2121.86	9.151e-05
2133.43	0.0001014
2145.01	7.646e-05
2156.58	8.776e-05
2168.15	0.0001302
2179.73	0.0001372
2191.3	0.0001426
2202.88	0.0002298
2214.45	0.0002683
2226.02	0.0002616
2237.6	0.0002746
2249.17	0.0002597
2260.74	0.0002526
2272.32	0.0002511
2283.89	0.0002733
2295.47	0.0003244
2307.04	0.0004146
2318.61	0.000518
2330.19	0.0005329
2341.76	0.0004738
2353.34	0.0005321
2364.91	0.0006614
2376.48	0.0005305
2388.06	0.0003249
2399.63	0.0002853
2411.21	0.0002825
2422.78	0.0003019
2434.35	0.0002898
2445.93	0.0002964
2457.5	0.0002659
2469.08	0.0002519
2480.65	0.0002679
2492.22	0.0002142
2503.8	0.0001749
2515.37	0.0001522
2526.95	0.0001574
2538.52	0.0001152
2550.09	0.0001098
2561.67	0.0001004
2573.24	0.0001024
2584.82	0.000116
2596.39	0.0001528
2607.96	0.0001455
2619.54	0.0001788
2631.11	0.0001397
2642.69	0.0001661
2654.26	0.0001808
2665.83	0.0001789
2677.41	0.0002163
2688.98	0.000232
2700.56	0.0002331
2712.13	0.000252
2723.7	0.0002932
2735.28	0.0004358
2746.85	0.0005891
2758.43	0.0007267
2770	0.00069
2781.57	0.0007272
2793.15	0.0008272
2804.72	0.0008927
2816.3	0.0009694
2827.87	0.00122
2839.44	0.00175
2851.02	0.00265
2862.59	0.004
2874.17	0.00591
2885.74	0.00931
2897.31	0.01069
2908.89	0.00906
2920.46	0.01036
2932.04	0.01587
2943.61	0.02073
2955.18	0.021
2966.76	0.02296
2978.33	0.02861
2989.91	0.02304
3001.48	0.01051
3013.05	0.00427
3024.63	0.00237
3036.2	0.00174
3047.78	0.00148
3059.35	0.00141
3070.92	0.00144
3082.5	0.00137
3094.07	0.00122
3105.65	0.0009527
3117.22	0.0008117
3128.79	0.0007539
3140.37	0.0006558
3151.94	0.0006172
3163.52	0.0005411
3175.09	0.0005095
3186.66	0.0004537
3198.24	0.0003976
3209.81	0.0002575
3221.39	0.0002243
3232.96	0.0002611
3244.53	0.0002372
3256.11	0.000213
3267.68	0.0001734
3279.26	0.0001704
3290.83	0.0002254
3302.4	0.0002709
3313.98	0.0002558
3325.55	0.0001668
3337.13	0.0001723
3348.7	0.0001502
3360.27	0.0001898
3371.85	0.0001499
3383.42	0.0002484
3395	0.0002619
3406.57	0.0002626
3418.14	0.0003388
3429.72	0.0004823
3441.29	0.0005801
3452.86	0.00103
3464.44	0.00228
3476.01	0.00413
3487.59	0.00489
3499.16	0.004
3510.73	0.00288
3522.31	0.00215
3533.88	0.00202
3545.46	0.00336
3557.03	0.01241
3568.6	0.02702
3580.18	0.02536
3591.75	0.01127
3603.33	0.00426
3614.9	0.00219
3626.47	0.00222
3638.05	0.00319
3649.62	0.0032
3661.2	0.00166
3672.77	0.0006946
3684.34	0.0004816
3695.92	0.0003571
3707.49	0.000304
3719.07	0.00019
3730.64	0.0002206
3742.21	0.0002343
3753.79	0.0002344
3765.36	0.0002216
3776.94	0.0002621
3788.51	0.000167
3800.08	0.0001142
3811.66	0.0001195
3823.23	0.0001396
3834.81	0.0002037
3846.38	0.0001928
3857.95	0.0002633
3869.53	0.0002008
3881.1	0.0001353
3892.68	0.0001724
3904.25	0.0001293
3915.82	0.0001655
3927.4	0.0001638
3938.97	0.0001942
3950.55	0.0001876
3962.12	0.000188
3973.69	0.0001283
3985.27	0.000157
3996.84	0.0001505
