Infrared Spectrum: 2-(Trifluoromethyl)-1,4-phenyldiamine
Formula: C 7 H 7 F 3 N 2
CAS: 364-13-6
State: gas
Origin: EPA-IR VAPOR PHASE LIBRARY
1/CM	ABSORBANCE
549.8	0.02346
559.445	0.02228
569.09	0.02347
578.735	0.02595
588.38	0.02872
598.025	0.03077
607.67	0.03317
617.315	0.03691
626.96	0.03998
636.605	0.0446
646.251	0.05394
655.896	0.06553
665.541	0.07671
675.186	0.08411
684.831	0.06839
694.476	0.0513
704.121	0.0433
713.766	0.03787
723.411	0.0352
733.056	0.03621
742.701	0.03724
752.346	0.03007
761.991	0.02523
771.636	0.02564
781.281	0.02733
790.926	0.03077
800.571	0.0379
810.216	0.05106
819.861	0.03798
829.507	0.02334
839.152	0.01755
848.797	0.01819
858.442	0.02612
868.087	0.03522
877.732	0.02747
887.377	0.0233
897.022	0.03928
906.667	0.04295
916.312	0.02241
925.957	0.01528
935.602	0.0117
945.247	0.00988
954.892	0.00964
964.537	0.00972
974.182	0.00981
983.827	0.00995
993.472	0.00995
1003.12	0.01005
1012.76	0.01044
1022.41	0.01204
1032.05	0.02205
1041.7	0.05622
1051.34	0.0786
1060.99	0.06345
1070.63	0.05628
1080.28	0.0469
1089.92	0.04372
1099.57	0.05405
1109.21	0.10148
1118.86	0.22737
1128.5	0.38515
1138.15	0.35544
1147.79	0.1946
1157.44	0.09664
1167.08	0.11015
1176.73	0.09787
1186.37	0.0462
1196.02	0.02635
1205.66	0.02795
1215.31	0.04918
1224.95	0.10087
1234.6	0.14326
1244.24	0.11591
1253.89	0.07095
1263.53	0.0706
1273.18	0.07749
1282.82	0.09655
1292.47	0.15777
1302.11	0.17211
1311.76	0.13013
1321.4	0.13784
1331.05	0.19125
1340.69	0.14497
1350.34	0.04149
1359.98	0.01474
1369.63	0.01064
1379.27	0.01041
1388.92	0.01132
1398.56	0.01148
1408.21	0.01257
1417.85	0.01617
1427.5	0.02249
1437.14	0.03965
1446.79	0.07921
1456.43	0.09859
1466.08	0.05714
1475.73	0.03233
1485.37	0.04894
1495.02	0.09342
1504.66	0.20408
1514.31	0.23668
1523.95	0.11078
1533.6	0.03106
1543.24	0.01739
1552.89	0.01345
1562.53	0.01242
1572.18	0.01369
1581.82	0.01774
1591.47	0.02328
1601.11	0.02955
1610.76	0.04951
1620.4	0.07903
1630.05	0.08349
1639.69	0.05806
1649.34	0.03119
1658.98	0.0175
1668.63	0.01135
1678.27	0.00846
1687.92	0.00705
1697.56	0.0071
1707.21	0.00764
1716.85	0.00813
1726.5	0.00826
1736.14	0.00784
1745.79	0.00671
1755.43	0.00569
1765.08	0.00498
1774.72	0.00476
1784.37	0.00474
1794.01	0.00475
1803.66	0.00427
1813.3	0.0039
1822.95	0.00358
1832.59	0.00356
1842.24	0.0043
1851.88	0.00525
1861.53	0.00523
1871.17	0.00438
1880.82	0.00372
1890.46	0.00344
1900.11	0.00354
1909.75	0.00371
1919.4	0.0038
1929.04	0.00374
1938.69	0.00346
1948.33	0.00325
1957.98	0.00324
1967.62	0.00321
1977.27	0.00323
1986.91	0.00318
1996.56	0.00303
2006.2	0.00284
2015.85	0.00287
2025.49	0.00294
2035.14	0.00306
2044.78	0.00306
2054.43	0.00297
2064.07	0.00291
2073.72	0.00289
2083.36	0.00267
2093.01	0.0024642
2102.65	0.0023497
2112.3	0.0022116
2121.94	0.0021498
2131.59	0.0022284
2141.23	0.002187
2150.88	0.0020631
2160.52	0.002042
2170.17	0.0021832
2179.81	0.0023953
2189.46	0.0022848
2199.1	0.0023001
2208.75	0.0023595
2218.39	0.0024384
2228.04	0.0025277
2237.68	0.0026
2247.33	0.0024752
2256.97	0.0023216
2266.62	0.0022426
2276.26	0.0022052
2285.91	0.0023239
2295.55	0.0024556
2305.2	0.0021909
2314.84	0.0018566
2324.49	0.0017264
2334.13	0.0017001
2343.78	0.0018178
2353.42	0.0018569
2363.07	0.00167646
2372.72	0.00161716
2382.36	0.0015697
2392.01	0.0015423
2401.65	0.00160364
2411.3	0.001776
2420.94	0.0017636
2430.59	0.00159339
2440.23	0.001413
2449.88	0.001244
2459.52	0.001176
2469.17	0.001214
2478.81	0.001236
2488.46	0.001299
2498.1	0.001437
2507.75	0.001349
2517.39	0.001166
2527.04	0.000999
2536.68	0.000959
2546.33	0.001124
2555.97	0.001167
2565.62	0.001351
2575.26	0.001239
2584.91	0.001046
2594.55	0.001023
2604.2	0.001094
2613.84	0.00126
2623.49	0.00158943
2633.13	0.0016057
2642.78	0.001482
2652.42	0.001298
2662.07	0.001371
2671.71	0.001253
2681.36	0.001225
2691	0.001025
2700.65	0.001053
2710.29	0.00105
2719.94	0.001166
2729.58	0.00124
2739.23	0.001207
2748.87	0.001206
2758.52	0.001142
2768.16	0.001041
2777.81	0.000963
2787.45	0.000853
2797.1	0.000825
2806.74	0.000769
2816.39	0.000721
2826.03	0.000667
2835.68	0.000658
2845.32	0.000753
2854.97	0.000888
2864.61	0.001163
2874.26	0.001272
2883.9	0.00135
2893.55	0.0015407
2903.19	0.001359
2912.84	0.001268
2922.48	0.00118
2932.13	0.001255
2941.77	0.001352
2951.42	0.0015669
2961.06	0.0015768
2970.71	0.00124
2980.35	0.001126
2990	0.001453
2999.64	0.0024417
3009.29	0.0051
3018.93	0.01067
3028.58	0.01845
3038.22	0.0214
3047.87	0.01809
3057.51	0.01315
3067.16	0.00904
3076.8	0.00487
3086.45	0.0021743
3096.09	0.001519
3105.74	0.001059
3115.38	0.000823
3125.03	0.000841
3134.67	0.000978
3144.32	0.000802
3153.96	0.00048
3163.61	0.00031
3173.25	0.00016
3182.9	0.00028
3192.54	0.00051
3202.19	0.000865
3211.83	0.001245
3221.48	0.00163135
3231.12	0.0019608
3240.77	0.0020097
3250.41	0.0021721
3260.06	0.0022008
3269.7	0.0021454
3279.35	0.00158925
3289	0.000801
3298.64	0.00052
3308.29	0.00027
3317.93	1e-05
3327.58	0.0001
3337.22	0.00016
3346.87	0.00025
3356.51	0.000662
3366.16	0.00158315
3375.8	0.0029
3385.45	0.0056
3395.09	0.01009
3404.74	0.01363
3414.38	0.01618
3424.03	0.02151
3433.67	0.02071
3443.32	0.01165
3452.96	0.00643
3462.61	0.00631
3472.25	0.00893
3481.9	0.01161
3491.54	0.01277
3501.19	0.01536
3510.83	0.02065
3520.48	0.02214
3530.12	0.01556
3539.77	0.00758
3549.41	0.00347
3559.06	0.0021322
3568.7	0.0014909
3578.35	0.001253
3587.99	0.000997
3597.64	0.00084
3607.28	0.000717
3616.93	0.000755
3626.57	0.000731
3636.22	0.00056
3645.86	0.00058
3655.51	0.00042
3665.15	0.00053
3674.8	0.00047
3684.44	0.00058
3694.09	0.00068
3703.73	0.000877
3713.38	0.000943
3723.02	0.000818
3732.67	0.000807
3742.31	0.00083
3751.96	0.000797
3761.6	0.000782
3771.25	0.000676
3780.89	0.00082
3790.54	0.000643
3800.18	0.000869
3809.83	0.000882
3819.47	0.000739
3829.12	0.000896
3838.76	0.001059
3848.41	0.000895
3858.05	0.001037
3867.7	0.001296
3877.34	0.001448
3886.99	0.00163143
3896.63	0.0017845
3906.28	0.0017362
3915.92	0.0015733
3925.57	0.001352
3935.21	0.001284
3944.86	0.001148
3954.5	0.00125
3964.15	0.001209
3973.79	0.001267
3983.44	0.001356
3993.08	0.001271
