Infrared Spectrum: 4-Fluoro-3-nitroaniline
Formula: C6 H5 F N2 O2
CAS: 364-76-1
State: SOLID (SPLIT MULL)
Melting point: 97 C
Class: COBLENTZ III
Instrument: DOW KBr FOREPRISM-GRATING
Instrument parameters: BLAZED AT 3.5, 12.0, 20.0 MICRON AND CHANGED AT 5.0, 7.5, 14.9 MICRON
Sampling: TRANSMISSION
Resolution: 2
Origin: DOW CHEMICAL COMPANY
1/CM	TRANSMITTANCE
395	0.8357
404	0.8483
413	0.8578
422	0.8649
431	0.861
440	0.8538
449	0.8539
458	0.8539
467	0.8496
476	0.755
485	0.8784
494	0.8857
503	0.891
512	0.89
521	0.8834
530	0.8692
539	0.8259
548	0.6458
557	0.8612
566	0.8563
575	0.7962
584	0.7708
593	0.8475
602	0.8495
611	0.842
620	0.8358
629	0.8492
638	0.8509
647	0.8568
656	0.8662
665	0.8721
674	0.8887
683	0.8121
692	0.8568
701	0.8736
710	0.8804
719	0.8743
728	0.8721
737	0.8843
746	0.8825
755	0.8125
764	0.8668
773	0.8449
782	0.6718
791	0.773
800	0.9083
809	0.9336
818	0.8901
827	0.5314
836	0.7861
845	0.9761
854	0.9811
863	0.7695
872	0.7448
881	0.9568
890	0.9599
899	0.9574
908	0.9548
917	0.9628
926	0.9628
935	0.8925
944	0.9399
953	0.953
962	0.9477
971	0.9423
980	0.9364
989	0.9306
998	0.9254
1007	0.9209
1016	0.9168
1025	0.915
1034	0.9148
1043	0.913
1052	0.9075
1061	0.8889
1070	0.8216
1079	0.8534
1088	0.8621
1097	0.8563
1106	0.8521
1115	0.8548
1124	0.839
1133	0.785
1142	0.6555
1151	0.857
1160	0.8637
1169	0.8575
1178	0.8531
1187	0.8456
1196	0.8378
1205	0.8042
1214	0.6286
1223	0.4416
1232	0.8518
1241	0.8677
1250	0.8333
1259	0.5584
1268	0.7899
1277	0.8211
1286	0.7981
1295	0.6928
1304	0.6319
1313	0.5207
1322	0.5309
1331	0.5003
1340	0.4072
1349	0.2675
1358	0.1719
1367	0.3538
1376	0.8196
1385	0.8072
1394	0.775
1403	0.7362
1412	0.6975
1421	0.6894
1430	0.6201
1439	0.4905
1448	0.6638
1457	0.6385
1466	0.603
1475	0.5567
1484	0.496
1493	0.3889
1502	0.3482
1511	0.3834
1520	0.1994
1529	0.0706
1538	0.1451
1547	0.2043
1556	0.5357
1565	0.8747
1574	0.8878
1583	0.8536
1592	0.5631
1601	0.8818
1610	0.7625
1619	0.5564
1628	0.4752
1637	0.7117
1646	0.9291
1655	0.9485
1664	0.9766
1673	0.9653
1682	0.9524
1691	0.9325
1700	0.9238
1709	0.9207
1718	0.8993
1727	0.8804
1736	0.9012
1745	0.8952
1754	0.8873
1763	0.8805
1772	0.8795
1781	0.8766
1790	0.8745
1799	0.8695
1808	0.8654
1817	0.8675
1826	0.8618
1835	0.8561
1844	0.8512
1853	0.8475
1862	0.8447
1871	0.8423
1880	0.8373
1889	0.8165
1898	0.8395
1907	0.836
1916	0.8325
1925	0.8296
1934	0.8283
1943	0.8278
1952	0.8263
1961	0.8207
1970	0.8142
1979	0.8108
1988	0.8081
1997	0.798
2006	0.7961
2015	0.798
2024	0.7996
2033	0.7981
2042	0.7958
2051	0.793
2060	0.79
2069	0.7869
2078	0.7836
2087	0.7799
2096	0.7762
2105	0.7726
2114	0.7691
2123	0.7654
2132	0.7617
2141	0.7578
2150	0.7541
2159	0.7503
2168	0.7465
2177	0.7426
2186	0.7388
2195	0.7349
2204	0.7306
2213	0.7261
2222	0.7215
2231	0.7168
2240	0.7125
2249	0.7082
2258	0.7046
2267	0.701
2276	0.6969
2285	0.6928
2294	0.6899
2303	0.6817
2312	0.6671
2321	0.6735
2330	0.6749
2339	0.6741
2348	0.6721
2357	0.6725
2366	0.6734
2375	0.6746
2384	0.6758
2393	0.6762
2402	0.6767
2411	0.6768
2420	0.6771
2429	0.6774
2438	0.6771
2447	0.6768
2456	0.6756
2465	0.6742
2474	0.6731
2483	0.6721
2492	0.6695
2501	0.6665
2510	0.6658
2519	0.6656
2528	0.6654
2537	0.6639
2546	0.6599
2555	0.6564
2564	0.6547
2573	0.6542
2582	0.6551
2591	0.6556
2600	0.6521
2609	0.6468
2618	0.6443
2627	0.6426
2636	0.6391
2645	0.636
2654	0.6397
2663	0.6428
2672	0.6404
2681	0.6368
2690	0.6331
2699	0.6297
2708	0.6281
2717	0.6269
2726	0.626
2735	0.6258
2744	0.6256
2753	0.626
2762	0.6259
2771	0.6245
2780	0.6217
2789	0.6187
2798	0.6154
2807	0.6114
2816	0.6074
2825	0.6026
2834	0.5969
2843	0.599
2852	0.6033
2861	0.6029
2870	0.6018
2879	0.6004
2888	0.5984
2897	0.5942
2906	0.59
2915	0.5877
2924	0.5862
2933	0.5864
2942	0.5877
2951	0.5888
2960	0.5892
2969	0.5879
2978	0.585
2987	0.5808
2996	0.5762
3005	0.5716
3014	0.5674
3023	0.5642
3032	0.5612
3041	0.5575
3050	0.5505
3059	0.5428
3068	0.5372
3077	0.5403
3086	0.5627
3095	0.563
3104	0.5612
3113	0.5592
3122	0.5574
3131	0.5555
3140	0.5534
3149	0.5497
3158	0.5442
3167	0.5377
3176	0.5303
3185	0.5215
3194	0.5122
3203	0.5018
3212	0.4918
3221	0.498
3230	0.5116
3239	0.5124
3248	0.5104
3257	0.5071
3266	0.5024
3275	0.4968
3284	0.4887
3293	0.4803
3302	0.4706
3311	0.4558
3320	0.4375
3329	0.4179
3338	0.3934
3347	0.378
3356	0.4421
3365	0.5074
3374	0.5339
3383	0.5307
3392	0.5235
3401	0.5136
3410	0.5019
3419	0.4883
3428	0.4686
3437	0.4391
3446	0.3952
3455	0.3514
3464	0.5416
3473	0.5958
3482	0.591
3491	0.5815
3500	0.5728
3509	0.5667
3518	0.562
3527	0.5585
3536	0.5552
3545	0.5523
3554	0.5498
3563	0.5473
3572	0.545
3581	0.5371
3590	0.5343
3599	0.5342
3608	0.5317
3617	0.5252
3626	0.523
3635	0.5215
3644	0.52
3653	0.5187
3662	0.5174
3671	0.5151
3680	0.5123
3689	0.509
3698	0.5062
3707	0.5042
3716	0.5022
3725	0.5009
3734	0.4997
3743	0.4985
3752	0.497
3761	0.4958
3770	0.4949
3779	0.4936
3788	0.4924
3797	0.4912
