Infrared Spectrum: Phenol, 2,6-dinitro-4-fluoro-,
Formula: C6 H3 F N2 O5
CAS: 364-32-9
State: SOLID (OIL MULL)
Class: COBLENTZ III
Instrument: BAIRD (GRATING)
Instrument parameters: NaCl PRISM
Resolution: 2
Origin: WYANDOTTE CHEMICALS CORP.
1/CM	TRANSMITTANCE
626	0.5123
635	0.4944
644	0.5738
653	0.6024
662	0.5463
671	0.4189
680	0.2602
689	0.3258
698	0.5732
707	0.6911
716	0.6765
725	0.5254
734	0.3186
743	0.6166
752	0.7247
761	0.8805
770	0.4999
779	0.6679
788	0.6004
797	0.0775
806	0.7259
815	0.9188
824	0.9186
833	0.9429
842	0.9207
851	0.9221
860	0.8975
869	0.8448
878	0.7674
887	0.3631
896	0.6951
905	0.5142
914	0.2535
923	0.1202
932	0.8962
941	0.9618
950	0.9275
959	0.8849
968	0.7882
977	0.4526
986	0.3264
995	0.7311
1004	0.8419
1013	0.8205
1022	0.7885
1031	0.7709
1040	0.7413
1049	0.7235
1058	0.7192
1067	0.6844
1076	0.6433
1085	0.5766
1094	0.4313
1103	0.5563
1112	0.5243
1121	0.4696
1130	0.3752
1139	0.2363
1148	0.1283
1157	0.1376
1166	0.3791
1175	0.4792
1184	0.4358
1193	0.3678
1202	0.2836
1211	0.1914
1220	0.1151
1229	0.0507
1238	0.0359
1247	0.0489
1256	0.0578
1265	0.1136
1274	0.2902
1283	0.3984
1292	0.4818
1301	0.4746
1310	0.3894
1319	0.2535
1328	0.1842
1337	0.1853
1346	0.1638
1355	0.1299
1364	0.0902
1373	0.1148
1382	0.2156
1391	0.4269
1400	0.5267
1409	0.4443
1418	0.333
1427	0.1435
1436	0.0664
1445	0.0727
1454	0.0892
1463	0.074
1472	0.0545
1481	0.145
1490	0.3456
1499	0.4398
1508	0.3391
1517	0.2395
1526	0.1757
1535	0.1436
1544	0.1057
1553	0.0669
1562	0.0569
1571	0.0884
1580	0.1288
1589	0.2354
1598	0.335
1607	0.2704
1616	0.386
1625	0.6659
1634	0.7024
1643	0.7248
1652	0.574
1661	0.6772
1670	0.7906
1679	0.8528
1688	0.8817
1697	0.8995
1706	0.9107
1715	0.8993
1724	0.9037
1733	0.9245
1742	0.9515
1751	0.9524
1760	0.9436
1769	0.8998
1778	0.9003
1787	0.9247
1796	0.9106
1805	0.9363
1814	0.9453
1823	0.9625
1832	0.962
1841	0.9588
1850	0.9625
1859	0.9501
1868	0.9289
1877	0.926
1886	0.9236
1895	0.9212
1904	0.9166
1913	0.9097
1922	0.9027
1931	0.8955
1940	0.8892
1949	0.8823
1958	0.8753
1967	0.8682
1976	0.8611
1985	0.8541
1994	0.8472
2003	0.8409
2012	0.8345
2021	0.8271
2030	0.8202
2039	0.8146
2048	0.8112
2057	0.8069
2066	0.7997
2075	0.7918
2084	0.7848
2093	0.779
2102	0.7739
2111	0.7702
2120	0.7627
2129	0.7564
2138	0.7521
2147	0.7476
2156	0.7428
2165	0.7376
2174	0.7319
2183	0.7251
2192	0.7181
2201	0.7135
2210	0.711
2219	0.7091
2228	0.7035
2237	0.6985
2246	0.6942
2255	0.6917
2264	0.6883
2273	0.6833
2282	0.674
2291	0.6613
2300	0.6502
2309	0.6402
2318	0.6314
2327	0.624
2336	0.6121
2345	0.6064
2354	0.6124
2363	0.6174
2372	0.6148
2381	0.6114
2390	0.6075
2399	0.603
2408	0.5979
2417	0.5928
2426	0.5869
2435	0.581
2444	0.5786
2453	0.5774
2462	0.577
2471	0.5761
2480	0.5747
2489	0.5713
2498	0.5678
2507	0.5625
2516	0.5572
2525	0.552
2534	0.5467
2543	0.5412
2552	0.5357
2561	0.5303
2570	0.5257
2579	0.5218
2588	0.5178
2597	0.514
2606	0.5095
2615	0.5051
2624	0.5006
2633	0.4962
2642	0.4914
2651	0.486
2660	0.481
2669	0.4774
2678	0.4738
2687	0.4705
2696	0.4683
2705	0.4664
2714	0.4666
2723	0.4671
2732	0.4674
2741	0.4667
2750	0.464
2759	0.4575
2768	0.448
2777	0.4366
2786	0.4245
2795	0.4113
2804	0.3918
2813	0.3094
2822	0.2101
2831	0.1114
2840	0.0592
2849	0.0398
2858	0.0341
2867	0.0329
2876	0.0327
2885	0.0307
2894	0.0263
2903	0.0195
2912	0.0181
2921	0.0182
2930	0.0183
2939	0.0192
2948	0.021
2957	0.0243
2966	0.0325
2975	0.0616
2984	0.0946
2993	0.1275
3002	0.1601
3011	0.1802
3020	0.1814
3029	0.1798
3038	0.177
3047	0.1723
3056	0.1623
3065	0.1581
3074	0.157
3083	0.1691
3092	0.2011
3101	0.233
3110	0.2559
3119	0.2573
3128	0.2586
3137	0.2604
3146	0.2647
3155	0.2712
3164	0.2822
3173	0.2934
3182	0.303
3191	0.3123
3200	0.3213
3209	0.3281
3218	0.3341
3227	0.3387
3236	0.3408
3245	0.341
3254	0.3409
3263	0.34
3272	0.3391
3281	0.3379
3290	0.3365
3299	0.334
3308	0.3307
3317	0.3262
3326	0.3208
3335	0.3157
3344	0.3134
3353	0.3124
3362	0.3114
3371	0.3104
3380	0.3097
3389	0.3091
3398	0.3084
3407	0.3078
3416	0.3071
3425	0.3064
3434	0.3058
3443	0.3051
3452	0.3045
3461	0.3041
3470	0.3036
3479	0.3033
3488	0.3032
3497	0.303
3506	0.3029
3515	0.3028
3524	0.3027
3533	0.3027
3542	0.3027
3551	0.3026
3560	0.3026
3569	0.3026
3578	0.3025
3587	0.3023
3596	0.3012
3605	0.299
3614	0.2969
3623	0.2948
3632	0.2926
3641	0.2904
3650	0.2882
3659	0.2862
3668	0.2843
3677	0.2824
3686	0.2805
3695	0.2786
3704	0.2767
3713	0.2749
3722	0.2731
3731	0.2713
3740	0.2695
3749	0.2677
3758	0.2659
3767	0.2642
3776	0.2624
3785	0.2607
3794	0.2588
3803	0.2569
3812	0.255
3821	0.2531
3830	0.2512
3839	0.2494
3848	0.2477
3857	0.246
3866	0.2444
3875	0.2426
3884	0.241
3893	0.2393
3902	0.2377
3911	0.2362
3920	0.235
3929	0.2339
3938	0.2327
3947	0.2316
3956	0.2305
3965	0.2294
3974	0.2282
3983	0.2271
3992	0.2261
