Infrared Spectrum: 2,5-Difluoronitrobenzene
Formula: C 6 H 3 F 2 N O 2
CAS: 364-74-9
State: gas
Origin: EPA-IR VAPOR PHASE LIBRARY
1/CM	ABSORBANCE
549.9	0.00584
559.547	0.00508
569.193	0.00552
578.84	0.00672
588.486	0.00689
598.133	0.00562
607.779	0.00424
617.426	0.0034225
627.072	0.0029417
636.719	0.0028733
646.365	0.0030852
656.012	0.00432
665.658	0.00845
675.305	0.01099
684.951	0.00885
694.598	0.00642
704.245	0.00834
713.891	0.0092
723.538	0.00899
733.184	0.01401
742.831	0.02217
752.477	0.02462
762.124	0.02771
771.77	0.0533
781.417	0.07994
791.063	0.05947
800.71	0.03212
810.356	0.0709
820.003	0.10873
829.649	0.05802
839.296	0.01848
848.943	0.00728
858.589	0.01013
868.236	0.02255
877.882	0.03802
887.529	0.02387
897.175	0.00968
906.822	0.00369
916.468	0.0032204
926.115	0.00466
935.761	0.00869
945.408	0.00929
955.054	0.00532
964.701	0.0029278
974.347	0.002299
983.994	0.002224
993.64	0.002156
1003.29	0.002157
1012.93	0.002278
1022.58	0.00233
1032.23	0.002315
1041.87	0.002335
1051.52	0.0025689
1061.17	0.0028981
1070.81	0.002684
1080.46	0.002309
1090.11	0.0025473
1099.75	0.00463
1109.4	0.01224
1119.05	0.02034
1128.69	0.01827
1138.34	0.00778
1147.99	0.0035871
1157.63	0.0036011
1167.28	0.00466
1176.92	0.01047
1186.57	0.03618
1196.22	0.07443
1205.86	0.08306
1215.51	0.05161
1225.16	0.0246
1234.8	0.01997
1244.45	0.04464
1254.1	0.1035
1263.74	0.10515
1273.39	0.04144
1283.04	0.02006
1292.68	0.01505
1302.33	0.01621
1311.98	0.01918
1321.62	0.03345
1331.27	0.06487
1340.92	0.10444
1350.56	0.12221
1360.21	0.09582
1369.86	0.04915
1379.5	0.02577
1389.15	0.01547
1398.79	0.01359
1408.44	0.01991
1418.09	0.03051
1427.73	0.0277
1437.38	0.01432
1447.03	0.01372
1456.67	0.01901
1466.32	0.02635
1475.97	0.03486
1485.61	0.06508
1495.26	0.15866
1504.91	0.20318
1514.55	0.14304
1524.2	0.10836
1533.85	0.13358
1543.49	0.18246
1553.14	0.26635
1562.79	0.28724
1572.43	0.19267
1582.08	0.10031
1591.73	0.06586
1601.37	0.03957
1611.02	0.0245
1620.67	0.018
1630.31	0.0142
1639.96	0.01032
1649.6	0.00783
1659.25	0.00614
1668.9	0.00501
1678.54	0.00422
1688.19	0.00397
1697.84	0.00384
1707.48	0.00366
1717.13	0.0036096
1726.78	0.00364
1736.42	0.00416
1746.07	0.00545
1755.72	0.00639
1765.36	0.00499
1775.01	0.003098
1784.66	0.002388
1794.3	0.002358
1803.95	0.002314
1813.6	0.0025
1823.24	0.002462
1832.89	0.002238
1842.54	0.002157
1852.18	0.002525
1861.83	0.0035625
1871.47	0.00558
1881.12	0.00557
1890.77	0.0034723
1900.41	0.002125
1910.06	0.001865
1919.71	0.001874
1929.35	0.001991
1939	0.002168
1948.65	0.002173
1958.29	0.002083
1967.94	0.001869
1977.59	0.00181
1987.23	0.001923
1996.88	0.002106
2006.53	0.00248
2016.17	0.002615
2025.82	0.002473
2035.47	0.002454
2045.11	0.00268257
2054.76	0.0028833
2064.41	0.0028584
2074.05	0.00264793
2083.7	0.002318
2093.35	0.001955
2102.99	0.001728
2112.64	0.00162
2122.28	0.001705
2131.93	0.001852
2141.58	0.001855
2151.22	0.001723
2160.87	0.001632
2170.52	0.00163
2180.16	0.001697
2189.81	0.001855
2199.46	0.001846
2209.1	0.001737
2218.75	0.00161
2228.4	0.00153
2238.04	0.00156
2247.69	0.00158
2257.34	0.00151
2266.98	0.00149
2276.63	0.00149
2286.28	0.00149
2295.92	0.00161
2305.57	0.001789
2315.22	0.00208
2324.86	0.002191
2334.51	0.001979
2344.16	0.001909
2353.8	0.001957
2363.45	0.002113
2373.09	0.002291
2382.74	0.002234
2392.39	0.002061
2402.03	0.00199
2411.68	0.00193
2421.33	0.001772
2430.97	0.001904
2440.62	0.002151
2450.27	0.002211
2459.91	0.002285
2469.56	0.00251
2479.21	0.002416
2488.85	0.002169
2498.5	0.001904
2508.15	0.001709
2517.79	0.001807
2527.44	0.002089
2537.09	0.002287
2546.73	0.002174
2556.38	0.001929
2566.03	0.001822
2575.67	0.001747
2585.32	0.001654
2594.96	0.00149
2604.61	0.00156
2614.26	0.00156
2623.9	0.001641
2633.55	0.00153
2643.2	0.00149
2652.84	0.001665
2662.49	0.001832
2672.14	0.002103
2681.78	0.00231
2691.43	0.002392
2701.08	0.002202
2710.72	0.001814
2720.37	0.00158
2730.02	0.00147
2739.66	0.001647
2749.31	0.001778
2758.96	0.001785
2768.6	0.001737
2778.25	0.00157
2787.9	0.00151
2797.54	0.00136
2807.19	0.00147
2816.84	0.00147
2826.48	0.001763
2836.13	0.002069
2845.77	0.002443
2855.42	0.00264771
2865.07	0.0029997
2874.71	0.0033745
2884.36	0.00387
2894.01	0.00401
2903.65	0.00387
2913.3	0.0033286
2922.95	0.0026661
2932.59	0.001893
2942.24	0.00138
2951.89	0.00092
2961.53	0.00065
2971.18	0.00055
2980.83	0.00042
2990.47	0.00026
3000.12	0.00021
3009.77	0.00023
3019.41	0.00037
3029.06	0.00026
3038.71	0.00026
3048.35	0.00048
3058	0.00095
3067.64	0.00184
3077.29	0.0032048
3086.94	0.00611
3096.58	0.00797
3106.23	0.00614
3115.88	0.0029136
3125.52	0.001776
3135.17	0.00134
3144.82	0.00085
3154.46	0.00047
3164.11	0.00022
3173.76	0.00017
3183.4	0.00012
3193.05	3e-05
3202.7	6e-05
3212.34	3e-05
3221.99	0.00024
3231.64	0.00016
3241.28	0.00016
3250.93	0.00023
3260.58	0.00031
3270.22	7e-05
3279.87	0.00035
3289.52	0.00031
3299.16	0.00042
3308.81	0.0003
3318.45	0.00041
3328.1	0.00036
3337.75	0.00055
3347.39	0.00059
3357.04	0.00047
3366.69	0.00057
3376.33	0.00068
3385.98	0.00073
3395.63	0.00085
3405.27	0.00082
3414.92	0.00067
3424.57	0.00074
3434.21	0.00087
3443.86	0.00082
3453.51	0.00105
3463.15	0.00085
3472.8	0.001
3482.45	0.00113
3492.09	0.00128
3501.74	0.00107
3511.39	0.00118
3521.03	0.00104
3530.68	0.00116
3540.33	0.00126
3549.97	0.00132
3559.62	0.0014
3569.26	0.00139
3578.91	0.00122
3588.56	0.00135
3598.2	0.00129
3607.85	0.00138
3617.5	0.00144
3627.14	0.00132
3636.79	0.00131
3646.44	0.00147
3656.08	0.0014
3665.73	0.00151
3675.38	0.00156
3685.02	0.0014
3694.67	0.0015
3704.32	0.00149
3713.96	0.00143
3723.61	0.00147
3733.26	0.001754
3742.9	0.001659
3752.55	0.001719
3762.2	0.001661
3771.84	0.001654
3781.49	0.00154
3791.13	0.001653
3800.78	0.00157
3810.43	0.00151
3820.07	0.00152
3829.72	0.00159
3839.37	0.00157
3849.01	0.00157
3858.66	0.00152
3868.31	0.001638
3877.95	0.0016
3887.6	0.00164
3897.25	0.001708
3906.89	0.00162
3916.54	0.00144
3926.19	0.00142
3935.83	0.00137
3945.48	0.00151
3955.13	0.00156
3964.77	0.00134
3974.42	0.00141
3984.07	0.00133
3993.71	0.00143
