Infrared Spectrum: 4-Fluoro-2-nitroaniline
Formula: C 6 H 5 F N 2 O 2
CAS: 364-78-3
State: gas
Origin: EPA-IR VAPOR PHASE LIBRARY
1/CM	ABSORBANCE
501.5	0.00796
513.074	0.00742
524.648	0.00728
536.222	0.009
547.796	0.01022
559.37	0.00667
570.944	0.0043
582.518	0.004
594.092	0.00416
605.666	0.00447
617.24	0.00492
628.814	0.00554
640.388	0.00586
651.962	0.00594
663.536	0.00629
675.11	0.00784
686.684	0.0079
698.258	0.00595
709.832	0.00542
721.406	0.00509
732.98	0.00498
744.554	0.00562
756.128	0.00761
767.702	0.0119
779.276	0.01978
790.85	0.01824
802.423	0.01805
813.997	0.02498
825.571	0.01448
837.145	0.00577
848.719	0.00413
860.293	0.00493
871.867	0.00844
883.441	0.01051
895.015	0.00563
906.589	0.00328
918.163	0.00391
929.737	0.00679
941.311	0.01
952.885	0.0075
964.459	0.00316
976.033	0.00209
987.607	0.00187
999.181	0.00178
1010.76	0.00173
1022.33	0.00168
1033.9	0.00228
1045.48	0.00315
1057.05	0.00269
1068.63	0.00241
1080.2	0.00306
1091.77	0.00293
1103.35	0.00203
1114.92	0.00191
1126.49	0.00294
1138.07	0.00974
1149.64	0.01208
1161.22	0.00534
1172.79	0.00249
1184.36	0.00309
1195.94	0.0057
1207.51	0.01574
1219.09	0.02214
1230.66	0.02103
1242.23	0.03074
1253.81	0.04025
1265.38	0.02601
1276.96	0.02002
1288.53	0.01995
1300.1	0.01114
1311.68	0.00973
1323.25	0.02047
1334.83	0.03272
1346.4	0.03681
1357.97	0.02843
1369.55	0.01119
1381.12	0.00485
1392.7	0.00354
1404.27	0.00557
1415.84	0.01326
1427.42	0.016
1438.99	0.0083
1450.57	0.00561
1462.14	0.00561
1473.71	0.01103
1485.29	0.02159
1496.86	0.02479
1508.44	0.03046
1520.01	0.07522
1531.58	0.15607
1543.16	0.11066
1554.73	0.02499
1566.31	0.01484
1577.88	0.02208
1589.45	0.02801
1601.03	0.02231
1612.6	0.01393
1624.18	0.01112
1635.75	0.01255
1647.32	0.00909
1658.9	0.00405
1670.47	0.00234
1682.05	0.00184
1693.62	0.0015
1705.19	0.00125
1716.77	0.00113
1728.34	0.00121
1739.92	0.00159
1751.49	0.00203
1763.06	0.00186
1774.64	0.00114
1786.21	0.0006301
1797.79	0.0005049
1809.36	0.0005773
1820.93	0.0006215
1832.51	0.0005344
1844.08	0.0004869
1855.66	0.0007029
1867.23	0.00124
1878.8	0.00132
1890.38	0.0007847
1901.95	0.0004998
1913.53	0.0004214
1925.1	0.0004242
1936.67	0.0004129
1948.25	0.0003491
1959.82	0.0003352
1971.4	0.0003241
1982.97	0.0003937
1994.54	0.000471
2006.12	0.0004316
2017.69	0.0004268
2029.27	0.0004661
2040.84	0.0004124
2052.41	0.000373
2063.99	0.000313
2075.56	0.000333
2087.14	0.0003767
2098.71	0.0004159
2110.28	0.0004335
2121.86	0.0003875
2133.43	0.0003609
2145.01	0.0003917
2156.58	0.0004159
2168.15	0.000382
2179.73	0.0003341
2191.3	0.0002958
2202.88	0.0003071
2214.45	0.0002807
2226.02	0.0003031
2237.6	0.0002282
2249.17	0.0001731
2260.74	0.00023
2272.32	0.0002942
2283.89	0.0003836
2295.47	0.0005034
2307.04	0.0004265
2318.61	0.0003918
2330.19	0.0004538
2341.76	0.0005644
2353.34	0.0006015
2364.91	0.0004902
2376.48	0.0003959
2388.06	0.0003643
2399.63	0.0004253
2411.21	0.000555
2422.78	0.0006278
2434.35	0.0005973
2445.93	0.0004672
2457.5	0.0004181
2469.08	0.0003736
2480.65	0.0003177
2492.22	0.000328
2503.8	0.0002948
2515.37	0.0002696
2526.95	0.0003244
2538.52	0.0003697
2550.09	0.0003654
2561.67	0.0003433
2573.24	0.000356
2584.82	0.0003003
2596.39	0.0003225
2607.96	0.0003655
2619.54	0.0004737
2631.11	0.000562
2642.69	0.0006372
2654.26	0.0005966
2665.83	0.0005632
2677.41	0.0004642
2688.98	0.0003623
2700.56	0.0002945
2712.13	0.0002691
2723.7	0.000304
2735.28	0.0003396
2746.85	0.0004128
2758.43	0.0004629
2770	0.0004885
2781.57	0.0005064
2793.15	0.000474
2804.72	0.0005737
2816.3	0.0007035
2827.87	0.0007579
2839.44	0.0008889
2851.02	0.00102
2862.59	0.00105
2874.17	0.0009612
2885.74	0.0007621
2897.31	0.0006611
2908.89	0.0006099
2920.46	0.0007029
2932.04	0.0006574
2943.61	0.0006283
2955.18	0.0004812
2966.76	0.000344
2978.33	0.0002584
2989.91	0.0003284
3001.48	0.0004517
3013.05	0.0005478
3024.63	0.0006746
3036.2	0.00119
3047.78	0.00224
3059.35	0.00211
3070.92	0.00145
3082.5	0.00227
3094.07	0.00303
3105.65	0.00246
3117.22	0.00123
3128.79	0.0005229
3140.37	0.0003274
3151.94	0.0002447
3163.52	0.0002942
3175.09	0.0003594
3186.66	0.0004056
3198.24	0.0003609
3209.81	0.000289
3221.39	0.0002736
3232.96	0.0002837
3244.53	0.0002261
3256.11	0.0001499
3267.68	0.0002052
3279.26	0.0002298
3290.83	0.0001989
3302.4	0.0001614
3313.98	0.0001766
3325.55	0.0002263
3337.13	0.0003032
3348.7	0.0004251
3360.27	0.0006421
3371.85	0.0009839
3383.42	0.00216
3395	0.00689
3406.57	0.01456
3418.14	0.01214
3429.72	0.00387
3441.29	0.00133
3452.86	0.0009834
3464.44	0.00119
3476.01	0.00165
3487.59	0.00283
3499.16	0.00501
3510.73	0.00825
3522.31	0.01096
3533.88	0.0094
3545.46	0.00472
3557.03	0.00178
3568.6	0.0008387
3580.18	0.0006007
3591.75	0.0004632
3603.33	0.0003406
3614.9	0.00034
3626.47	0.0002937
3638.05	0.000242
3649.62	0.0002438
3661.2	0.0002158
3672.77	0.0002437
3684.34	0.0002498
3695.92	0.000191
3707.49	0.0002792
3719.07	0.0003056
3730.64	0.0002692
3742.21	0.0003092
3753.79	0.0003367
3765.36	0.0002886
3776.94	0.0003195
3788.51	0.0003239
3800.08	0.0002724
3811.66	0.0002436
3823.23	0.0001712
3834.81	0.000219
3846.38	0.0003133
3857.95	0.0002067
3869.53	0.0002843
3881.1	0.0002486
3892.68	0.000273
3904.25	0.0002921
3915.82	0.0002963
3927.4	0.000314
3938.97	0.0002513
3950.55	0.0003305
3962.12	0.000311
3973.69	0.0003247
3985.27	0.000258
3996.84	0.0002918
