Infrared Spectrum: 3,4-Dichloroanisole
Formula: C 7 H 6 Cl 2 O
CAS: 36404-30-5
State: gas
Origin: EPA-IR VAPOR PHASE LIBRARY
1/CM	ABSORBANCE
549.8	0.001047
559.445	0.0016444
569.09	0.00324
578.734	0.00448
588.379	0.00662
598.024	0.0049
607.669	0.00546
617.313	0.00727
626.958	0.01899
636.603	0.03502
646.248	0.03709
655.893	0.02124
665.537	0.0078
675.182	0.00868
684.827	0.0127
694.472	0.00857
704.116	0.00418
713.761	0.00262
723.406	0.0018129
733.051	0.00224
742.695	0.00232
752.34	0.00222
761.985	0.00221
771.63	0.00294
781.275	0.00616
790.919	0.01341
800.564	0.0217
810.209	0.02527
819.854	0.01706
829.498	0.01129
839.143	0.02172
848.788	0.02389
858.433	0.0345
868.078	0.04245
877.722	0.03421
887.367	0.02087
897.012	0.00988
906.657	0.00466
916.301	0.00344
925.946	0.00374
935.591	0.00302
945.236	0.0020343
954.88	0.00283
964.525	0.00342
974.17	0.00491
983.815	0.00632
993.46	0.00856
1003.1	0.01412
1012.75	0.03236
1022.39	0.05347
1032.04	0.05648
1041.68	0.07019
1051.33	0.07172
1060.97	0.04375
1070.62	0.01539
1080.26	0.00911
1089.91	0.00806
1099.55	0.00756
1109.2	0.02302
1118.84	0.07408
1128.49	0.10554
1138.13	0.05155
1147.78	0.01766
1157.42	0.01092
1167.07	0.01048
1176.71	0.01388
1186.36	0.015
1196	0.01404
1205.64	0.01872
1215.29	0.04552
1224.93	0.09348
1234.58	0.07836
1244.22	0.03592
1253.87	0.05085
1263.51	0.0685
1273.16	0.09007
1282.8	0.11584
1292.45	0.10556
1302.09	0.05816
1311.74	0.02186
1321.38	0.01023
1331.03	0.00771
1340.67	0.00595
1350.32	0.00539
1359.96	0.00689
1369.61	0.0109
1379.25	0.01379
1388.9	0.01368
1398.54	0.01293
1408.18	0.01308
1417.83	0.01883
1427.47	0.03324
1437.12	0.06416
1446.76	0.07465
1456.41	0.07198
1466.05	0.14027
1475.7	0.22009
1485.34	0.14065
1494.99	0.03972
1504.63	0.02156
1514.28	0.01424
1523.92	0.01217
1533.57	0.01144
1543.21	0.01431
1552.86	0.02217
1562.5	0.03616
1572.15	0.05589
1581.79	0.07482
1591.44	0.08585
1601.08	0.0645
1610.73	0.03272
1620.37	0.01598
1630.01	0.00778
1639.66	0.00554
1649.3	0.00508
1658.95	0.00459
1668.59	0.00436
1678.24	0.00454
1687.88	0.00454
1697.53	0.00394
1707.17	0.00372
1716.82	0.00414
1726.46	0.00379
1736.11	0.00339
1745.75	0.003
1755.4	0.00251
1765.04	0.0019491
1774.69	0.0016774
1784.33	0.0018711
1793.98	0.0021579
1803.62	0.0020341
1813.27	0.0020678
1822.91	0.00231
1832.55	0.0020779
1842.2	0.00237
1851.84	0.00315
1861.49	0.00362
1871.13	0.0042
1880.78	0.00417
1890.42	0.00328
1900.07	0.00292
1909.71	0.00317
1919.36	0.00314
1929	0.00281
1938.65	0.0024
1948.29	0.0021433
1957.94	0.0017294
1967.58	0.0017917
1977.23	0.0016932
1986.87	0.0016209
1996.52	0.0013874
2006.16	0.0016531
2015.81	0.0018401
2025.45	0.0019361
2035.1	0.0020394
2044.74	0.00245
2054.38	0.00278
2064.03	0.00311
2073.67	0.00334
2083.32	0.0034
2092.96	0.00321
2102.61	0.0027
2112.25	0.00239
2121.9	0.00219
2131.54	0.00231
2141.19	0.00261
2150.83	0.00256
2160.48	0.00241
2170.12	0.00228
2179.77	0.0019251
2189.41	0.001581
2199.06	0.0013748
2208.7	0.00117769
2218.35	0.0014472
2227.99	0.0015577
2237.64	0.0013091
2247.28	0.0016933
2256.92	0.0014373
2266.57	0.0017262
2276.21	0.00122173
2285.86	0.001676
2295.5	0.0012879
2305.15	0.0013317
2314.79	0.00134
2324.44	0.001017
2334.08	0.00122106
2343.73	0.0017912
2353.37	0.0018138
2363.02	0.0015442
2372.66	0.0015784
2382.31	0.0016667
2391.95	0.0013702
2401.6	0.0013163
2411.24	0.0014477
2420.89	0.00125677
2430.53	0.0016631
2440.18	0.0018936
2449.82	0.0020256
2459.47	0.0019502
2469.11	0.0021344
2478.75	0.0019086
2488.4	0.0018206
2498.04	0.00237
2507.69	0.0025
2517.33	0.00254
2526.98	0.00251
2536.62	0.00232
2546.27	0.0017036
2555.91	0.0020416
2565.56	0.0021182
2575.2	0.0015551
2584.85	0.0016126
2594.49	0.0019735
2604.14	0.0014676
2613.78	0.0015566
2623.43	0.0015766
2633.07	0.0016728
2642.72	0.0016184
2652.36	0.0014408
2662.01	0.0013291
2671.65	0.0011601
2681.29	0.00102
2690.94	0.00119884
2700.58	0.00127196
2710.23	0.0011378
2719.87	0.0015711
2729.52	0.001695
2739.16	0.0017082
2748.81	0.001589
2758.45	0.0018447
2768.1	0.0019515
2777.74	0.00228
2787.39	0.00302
2797.03	0.00331
2806.68	0.00455
2816.32	0.00517
2825.97	0.0072
2835.61	0.01269
2845.26	0.0206
2854.9	0.01759
2864.55	0.01039
2874.19	0.00767
2883.84	0.00872
2893.48	0.01002
2903.12	0.0133
2912.77	0.01586
2922.41	0.01603
2932.06	0.01764
2941.7	0.0293
2951.35	0.03564
2960.99	0.02844
2970.64	0.02047
2980.28	0.01349
2989.93	0.01181
2999.57	0.01489
3009.22	0.02583
3018.86	0.02269
3028.51	0.0099
3038.15	0.00552
3047.8	0.00459
3057.44	0.00396
3067.09	0.00487
3076.73	0.00668
3086.38	0.00708
3096.02	0.00505
3105.67	0.00353
3115.31	0.00264
3124.95	0.00267
3134.6	0.0020526
3144.24	0.0020997
3153.89	0.0011105
3163.53	0.0016843
3173.18	0.0018228
3182.82	0.001721
3192.47	0.0011483
3202.11	0.0010889
3211.76	0.000859
3221.4	0.000908
3231.05	0.000598
3240.69	0.000383
3250.34	0.000553
3259.98	0.001072
3269.63	0.0010914
3279.27	0.000838
3288.92	0.000829
3298.56	0.000552
3308.21	0.000507
3317.85	0.000909
3327.49	0.001115
3337.14	0.000413
3346.78	0.000768
3356.43	0.00042
3366.07	0.000835
3375.72	0.00029
3385.36	0.0011684
3395.01	0.000505
3404.65	0.0010819
3414.3	0.000601
3423.94	0.000513
3433.59	0.000685
3443.23	0.000513
3452.88	0.000529
3462.52	0.000796
3472.17	0.000628
3481.81	0.000938
3491.46	0.000628
3501.1	0.0014148
3510.75	0.000728
3520.39	0.000236
3530.04	0.000533
3539.68	0.00022
3549.32	0.000725
3558.97	0.000852
3568.61	0.000834
3578.26	0.000999
3587.9	0.000514
3597.55	0.000893
3607.19	0.000526
3616.84	0.00120379
3626.48	9e-05
3636.13	0.000666
3645.77	0.000881
3655.42	0.000753
3665.06	0.00061
3674.71	0.0010964
3684.35	0.001027
3694	0.000637
3703.64	0.001033
3713.29	0.000994
3722.93	0.000545
3732.58	0.000593
3742.22	0.001056
3751.86	0.000807
3761.51	0.000992
3771.15	0.0015662
3780.8	0.00125548
3790.44	0.00117517
3800.09	0.000572
3809.73	0.000789
3819.38	0.000528
3829.02	0.000594
3838.67	0.000958
3848.31	0.000632
3857.96	0.0010944
3867.6	0.0011201
3877.25	0.000682
3886.89	0.000957
3896.54	0.00120808
3906.18	0.000942
3915.83	0.000678
3925.47	0.00122651
3935.12	0.001059
3944.76	0.001001
3954.41	0.000861
3964.05	0.0013017
3973.69	0.000874
3983.34	0.001009
3992.98	0.00088
