Infrared Spectrum: p-Butoxybenzylidene p-cyanoaniline
Formula: C 18 H 18 N 2 O
CAS: 36405-17-1
State: gas
Origin: EPA-IR VAPOR PHASE LIBRARY
1/CM	ABSORBANCE
549.8	0.0073893
559.445	0.0073593
569.09	0.0051393
578.734	0.0038793
588.379	0.0044393
598.024	0.0044793
607.669	0.0029293
617.313	0.0015793
626.958	0.0013593
636.603	0.0013793
646.248	0.0011193
655.893	0.0008622
665.537	0.0011193
675.182	0.0011593
684.827	0.0010893
694.472	0.0018393
704.116	0.0023993
713.761	0.0028493
723.406	0.0022893
733.051	0.0018693
742.695	0.0016193
752.34	0.0018393
761.985	0.0016993
771.63	0.0017893
781.275	0.0018793
790.919	0.0022993
800.564	0.0039893
810.209	0.0050793
819.854	0.0090493
829.498	0.0172593
839.143	0.0224993
848.788	0.0136493
858.433	0.0081093
868.078	0.0069493
877.722	0.0093993
887.367	0.0166593
897.012	0.0079593
906.657	0.0040293
916.301	0.0029193
925.946	0.0021893
935.591	0.0025393
945.236	0.0033893
954.88	0.0045593
964.525	0.0063193
974.17	0.0089393
983.815	0.0068893
993.46	0.0061793
1003.1	0.0086893
1012.75	0.0132593
1022.39	0.0140993
1032.04	0.0114893
1041.68	0.0074293
1051.33	0.0054993
1060.97	0.0077193
1070.62	0.0080393
1080.26	0.0055593
1089.91	0.0051393
1099.55	0.0064193
1109.2	0.0083393
1118.84	0.0061693
1128.49	0.0056093
1138.13	0.0073493
1147.78	0.0135093
1157.42	0.0603493
1167.07	0.0843493
1176.71	0.0156093
1186.36	0.0151793
1196	0.0257593
1205.64	0.0166893
1215.29	0.0254493
1224.93	0.0331093
1234.58	0.0441493
1244.22	0.0660093
1253.87	0.0709893
1263.51	0.0384993
1273.16	0.0205793
1282.8	0.0169693
1292.45	0.0213593
1302.09	0.0286693
1311.74	0.0199793
1321.38	0.0100093
1331.03	0.0071293
1340.67	0.0059693
1350.32	0.0053493
1359.96	0.0049993
1369.61	0.0054693
1379.25	0.0065093
1388.9	0.0083093
1398.54	0.0063293
1408.18	0.0060093
1417.83	0.0115093
1427.47	0.0090193
1437.12	0.0047293
1446.76	0.0046493
1456.41	0.0060593
1466.05	0.0100593
1475.7	0.0148193
1485.34	0.0138093
1494.99	0.0236093
1504.63	0.0469193
1514.28	0.0626293
1523.92	0.0168693
1533.57	0.0085793
1543.21	0.0074093
1552.86	0.0091893
1562.5	0.0164293
1572.15	0.0397693
1581.79	0.0433693
1591.44	0.0995793
1601.08	0.0973493
1610.73	0.0385293
1620.37	0.0233493
1630.01	0.0449493
1639.66	0.0433193
1649.3	0.0156193
1658.95	0.0091693
1668.59	0.0065793
1678.24	0.0047693
1687.88	0.0034593
1697.53	0.0027093
1707.17	0.0022593
1716.82	0.0021693
1726.46	0.0021493
1736.11	0.0019893
1745.75	0.0019493
1755.4	0.0019693
1765.04	0.0021493
1774.69	0.0022893
1784.33	0.0017393
1793.98	0.0012693
1803.62	0.0011193
1813.27	0.0011393
1822.91	0.0010184
1832.55	0.0009506
1842.2	0.0010467
1851.84	0.0011493
1861.49	0.0011993
1871.13	0.0012993
1880.78	0.0016093
1890.42	0.0019093
1900.07	0.0019393
1909.71	0.0017693
1919.36	0.0013793
1929	0.0014793
1938.65	0.0015293
1948.29	0.0015093
1957.94	0.0013593
1967.58	0.0012493
1977.23	0.0011593
1986.87	0.0013093
1996.52	0.0014693
2006.16	0.0016193
2015.81	0.0017993
2025.45	0.0016293
2035.1	0.0017293
2044.74	0.0018493
2054.38	0.0016493
2064.03	0.0013293
2073.67	0.0014093
2083.32	0.0014193
2092.96	0.0012493
2102.61	0.0009993
2112.25	0.0009001
2121.9	0.0008714
2131.54	0.0007723
2141.19	0.0006868
2150.83	0.0006672
2160.48	0.0006024
2170.12	0.0006981
2179.77	0.0008231
2189.41	0.0006581
2199.06	0.0008043
2208.7	0.0012893
2218.35	0.0026993
2227.99	0.0112393
2237.64	0.0059493
2247.28	0.0011493
2256.92	0.0008746
2266.57	0.0009228
2276.21	0.0008379
2285.86	0.0008259
2295.5	0.000788
2305.15	0.000733
2314.79	0.0007543
2324.44	0.0010373
2334.08	0.0009024
2343.73	0.0008346
2353.37	0.0008755
2363.02	0.0008571
2372.66	0.0010285
2382.31	0.0011993
2391.95	0.0012193
2401.6	0.0011493
2411.24	0.0011193
2420.89	0.0011193
2430.53	0.0010993
2440.18	0.0011193
2449.82	0.0013393
2459.47	0.0013993
2469.11	0.0013593
2478.75	0.0015193
2488.4	0.0014693
2498.04	0.0015793
2507.69	0.0014493
2517.33	0.0017193
2526.98	0.0018493
2536.62	0.0020193
2546.27	0.0019793
2555.91	0.0018793
2565.56	0.0015393
2575.2	0.0014793
2584.85	0.0013593
2594.49	0.0012093
2604.14	0.0010993
2613.78	0.0009422
2623.43	0.0007824
2633.07	0.0008398
2642.72	0.0007903
2652.36	0.0008199
2662.01	0.0007472
2671.65	0.0007502
2681.29	0.0008189
2690.94	0.0009114
2700.58	0.0008989
2710.23	0.0009888
2719.87	0.0011093
2729.52	0.0012493
2739.16	0.0014793
2748.81	0.0018593
2758.45	0.0019393
2768.1	0.0015893
2777.74	0.0015793
2787.39	0.0017593
2797.03	0.0018093
2806.68	0.0019293
2816.32	0.0021893
2825.97	0.0026693
2835.61	0.0033093
2845.26	0.0048893
2854.9	0.0075293
2864.55	0.0095193
2874.19	0.0125093
2883.84	0.0152493
2893.48	0.0124593
2903.12	0.0108593
2912.77	0.0119993
2922.41	0.0135893
2932.06	0.0160093
2941.7	0.0203593
2951.35	0.0201593
2960.99	0.0211993
2970.64	0.0239893
2980.28	0.0152093
2989.93	0.0080793
2999.57	0.0055293
3009.22	0.0044693
3018.86	0.0038693
3028.51	0.0042193
3038.15	0.0061993
3047.8	0.0046393
3057.44	0.0030493
3067.09	0.0033393
3076.73	0.0051293
3086.38	0.0038793
3096.02	0.0036193
3105.67	0.0029893
3115.31	0.0019693
3124.95	0.0013793
3134.6	0.0010312
3144.24	0.0010547
3153.89	0.0009021
3163.53	0.0006566
3173.18	0.0007498
3182.82	0.0010993
3192.47	0.0010703
3202.11	0.0008092
3211.76	0.0007112
3221.4	0.0005929
3231.05	0.0005866
3240.69	0.0005609
3250.34	0.0007918
3259.98	0.0009292
3269.63	0.0006983
3279.27	0.0003896
3288.92	0.000384
3298.56	0.0002651
3308.21	0.0004081
3317.85	0.0002734
3327.49	0.0003083
3337.14	0.0002856
3346.78	0.0003816
3356.43	0.0002717
3366.07	0.0004429
3375.72	0.0003526
3385.36	0.0001726
3395.01	0.000348
3404.65	0.00023
3414.3	0.0005096
3423.94	0.0005199
3433.59	0.0003335
3443.23	0.0003788
3452.88	0.0004467
3462.52	0.0001613
3472.17	0.0002655
3481.81	0.00010971
3491.46	9.982e-05
3501.1	0.0003938
3510.75	0.000505
3520.39	0.00017989
3530.04	0.0002692
3539.68	0.0002965
3549.32	0.0003338
3558.97	0.0002955
3568.61	9.0404e-05
3578.26	0.00018565
3587.9	9.8593e-05
3597.55	0.0003086
3607.19	0.0005658
3616.84	0.0003042
3626.48	0.0002758
3636.13	0.0003128
3645.77	7.31e-05
3655.42	0.0002861
3665.06	0.0004767
3674.71	0.0002993
3684.35	0.00012022
3694	0.0003778
3703.64	0.0002009
3713.29	0.000399
3722.93	0.00039
3732.58	0.0002898
3742.22	0.0003287
3751.86	0.000285
3761.51	0.000348
3771.15	0.0003227
3780.8	0.0002751
3790.44	0.00017018
3800.09	0.00018893
3809.73	0.00017583
3819.38	0.0006316
3829.02	0.0003495
3838.67	0.00018102
3848.31	0.0002566
3857.96	0.0002827
3867.6	0.00015291
3877.25	0.0002316
3886.89	0.0002883
3896.54	0.0001096
3906.18	0.00014316
3915.83	0.0003211
3925.47	0.00015993
3935.12	0.0002971
3944.76	0.0002532
3954.41	0.0002295
3964.05	0.000298
3973.69	0.0004284
3983.34	0.0003778
3992.98	9.0883e-05
