Infrared Spectrum: DI-TRIDECYL HYDROGEN PHOSPHATE
Formula: C26 H55 O3 P
CAS: 36432-46-9
State: LIQUID
Class: COBLENTZ
Instrument: PERKIN-ELMER
Sampling: TRANSMISSION
Path length: 0.0015 CM
Resolution: 4
Origin: STANDARD OIL OF OHIO
MICROMETERS	TRANSMITTANCE
2.013	0.993
2.04675	0.993
2.0805	0.993
2.11425	0.994
2.148	0.996
2.18175	0.998
2.2155	1
2.24925	0.998
2.283	0.976
2.31675	0.959
2.3505	0.952
2.38425	0.957
2.418	0.964
2.45175	0.964
2.4855	0.969
2.51925	0.977
2.553	0.979
2.58675	0.981
2.6205	0.984
2.65425	0.989
2.688	0.989
2.72175	0.991
2.7555	0.991
2.78925	0.991
2.823	0.988
2.85675	0.982
2.8905	0.977
2.92425	0.976
2.958	0.974
2.99175	0.976
3.0255	0.977
3.05925	0.976
3.093	0.972
3.12675	0.962
3.1605	0.959
3.19425	0.957
3.228	0.954
3.26175	0.936
3.2955	0.904
3.32925	0.683
3.363	0.286
3.39675	0.049
3.4305	0.03
3.46425	0.081
3.498	0.122
3.53175	0.574
3.5655	0.79
3.59925	0.855
3.633	0.887
3.66675	0.89
3.7005	0.901
3.73425	0.914
3.768	0.925
3.80175	0.926
3.8355	0.931
3.86925	0.935
3.903	0.943
3.93675	0.95
3.9705	0.957
4.00425	0.959
4.038	0.952
4.07175	0.921
4.1055	0.827
4.13925	0.792
4.173	0.831
4.20675	0.86
4.2405	0.882
4.27425	0.918
4.308	0.936
4.34175	0.954
4.3755	0.957
4.40925	0.96
4.443	0.962
4.47675	0.964
4.5105	0.967
4.54425	0.967
4.578	0.967
4.61175	0.967
4.6455	0.969
4.67925	0.969
4.713	0.969
4.74675	0.969
4.7805	0.971
4.81425	0.971
4.848	0.971
4.88175	0.972
4.9155	0.972
4.94925	0.972
4.983	0.974
5.01675	0.972
5.0505	0.972
5.08425	0.972
5.118	0.972
5.15175	0.972
5.1855	0.969
5.21925	0.969
5.253	0.967
5.28675	0.967
5.3205	0.965
5.35425	0.965
5.388	0.965
5.42175	0.965
5.4555	0.964
5.48925	0.964
5.523	0.964
5.55675	0.964
5.5905	0.964
5.62425	0.964
5.658	0.964
5.69175	0.964
5.7255	0.964
5.75925	0.962
5.793	0.965
5.82675	0.965
5.8605	0.965
5.89425	0.965
5.928	0.964
5.96175	0.964
5.9955	0.964
6.02925	0.962
6.063	0.964
6.09675	0.965
6.1305	0.965
6.16425	0.965
6.198	0.964
6.23175	0.964
6.2655	0.964
6.29925	0.964
6.333	0.964
6.36675	0.964
6.4005	0.964
6.43425	0.964
6.468	0.962
6.50175	0.96
6.5355	0.959
6.56925	0.954
6.603	0.942
6.63675	0.925
6.6705	0.902
6.70425	0.846
6.738	0.688
6.77175	0.475
6.8055	0.299
6.83925	0.25
6.873	0.282
6.90675	0.483
6.9405	0.635
6.97425	0.732
7.008	0.804
7.04175	0.855
7.0755	0.873
7.10925	0.868
7.143	0.833
7.17675	0.705
7.2105	0.524
7.24425	0.4
7.278	0.5
7.31175	0.568
7.3455	0.659
7.37925	0.79
7.413	0.819
7.44675	0.827
7.4805	0.833
7.51425	0.838
7.548	0.838
7.58175	0.826
7.6155	0.8
7.64925	0.759
7.683	0.722
7.71675	0.662
7.7505	0.521
7.78425	0.373
7.818	0.262
7.85175	0.202
7.8855	0.139
7.91925	0.12
7.953	0.137
7.98675	0.201
8.0205	0.402
8.05425	0.517
8.088	0.599
8.12175	0.683
8.1555	0.722
8.18925	0.751
8.223	0.768
8.25675	0.793
8.2905	0.804
8.32425	0.822
8.358	0.833
8.39175	0.843
8.4255	0.848
8.45925	0.85
8.493	0.85
8.52675	0.833
8.5605	0.819
8.59425	0.812
8.628	0.8
8.66175	0.788
8.6955	0.775
8.72925	0.771
8.763	0.771
8.79675	0.773
8.8305	0.773
8.86425	0.768
8.898	0.758
8.93175	0.751
8.9655	0.744
8.99925	0.735
9.033	0.712
9.06675	0.667
9.1005	0.613
9.13425	0.505
9.168	0.402
9.20175	0.311
9.2355	0.265
9.26925	0.247
9.303	0.245
9.33675	0.248
9.3705	0.252
9.40425	0.253
9.438	0.257
9.47175	0.264
9.5055	0.27
9.53925	0.275
9.573	0.279
9.60675	0.282
9.6405	0.282
9.67425	0.282
9.708	0.284
9.74175	0.286
9.7755	0.284
9.80925	0.284
9.843	0.275
9.87675	0.26
9.9105	0.24
9.94425	0.218
9.978	0.194
10.0118	0.17
10.0455	0.144
10.0793	0.126
10.113	0.102
10.1468	0.064
10.1805	0.039
10.2143	0.022
10.248	0.017
10.2818	0.015
10.3155	0.013
10.3493	0.013
10.383	0.018
10.4168	0.034
10.4505	0.076
10.4843	0.136
10.518	0.229
10.5518	0.303
10.5855	0.4
10.6193	0.473
10.653	0.524
10.6868	0.58
10.7205	0.621
10.7543	0.654
10.788	0.686
10.8218	0.705
10.8555	0.722
10.8893	0.732
10.923	0.741
10.9568	0.752
10.9905	0.766
11.0243	0.775
11.058	0.78
11.0918	0.788
11.1255	0.792
11.1593	0.797
11.193	0.802
11.2268	0.804
11.2605	0.809
11.2943	0.812
11.328	0.816
11.3618	0.816
11.3955	0.816
11.4293	0.816
11.463	0.812
11.4968	0.809
11.5305	0.805
11.5643	0.802
11.598	0.802
11.6318	0.8
11.6655	0.797
11.6993	0.795
11.733	0.793
11.7668	0.793
11.8005	0.793
11.8343	0.795
11.868	0.795
11.9018	0.795
11.9355	0.795
11.9693	0.795
12.003	0.797
12.0368	0.797
12.0705	0.797
12.1043	0.797
12.138	0.795
12.1718	0.793
12.2055	0.793
12.2393	0.792
12.273	0.79
12.3068	0.79
12.3405	0.79
12.3743	0.788
12.408	0.79
12.4418	0.788
12.4755	0.788
12.5093	0.785
12.543	0.781
12.5768	0.781
12.6105	0.781
12.6443	0.785
12.678	0.792
12.7118	0.795
12.7455	0.797
12.7793	0.797
12.813	0.798
12.8468	0.8
12.8805	0.8
12.9143	0.8
12.948	0.8
12.9818	0.8
13.0155	0.802
13.0493	0.802
13.083	0.802
13.1168	0.804
13.1505	0.805
13.1843	0.809
13.218	0.809
13.2518	0.81
13.2855	0.812
13.3193	0.812
13.353	0.814
13.3868	0.814
13.4205	0.812
13.4543	0.812
13.488	0.812
13.5218	0.81
13.5555	0.809
13.5893	0.809
13.623	0.809
13.6568	0.812
13.6905	0.814
13.7243	0.816
13.758	0.819
13.7918	0.822
13.8255	0.826
13.8593	0.833
13.893	0.841
13.9268	0.85
13.9605	0.856
13.9943	0.865
14.028	0.872
14.0618	0.877
14.0955	0.882
14.1293	0.887
14.163	0.892
14.1968	0.896
14.2305	0.899
14.2643	0.901
14.298	0.901
14.3318	0.902
14.3655	0.902
14.3993	0.904
14.433	0.906
14.4668	0.906
14.5005	0.906
14.5343	0.906
14.568	0.906
14.6018	0.906
14.6355	0.904
14.6693	0.904
14.703	0.904
14.7368	0.904
14.7705	0.902
14.8043	0.902
14.838	0.901
14.8718	0.899
14.9055	0.899
14.9393	0.897
14.973	0.896
15.0068	0.896
15.0405	0.892
15.0743	0.889
15.108	0.887
15.1418	0.885
15.1755	0.885
15.2093	0.882
15.243	0.879
15.2768	0.877
15.3105	0.873
15.3443	0.872
15.378	0.872
