Infrared Spectrum: 1,2-BENZENEDICARBOXYLIC ACID, DIUNDECYL ESTER
Formula: C30 H50 O4
CAS: 3648-20-2
State: SOLUTION (10% IN CCl4 FOR 4000-1330, 10% IN CS2 FOR 1330-420 CM^-^1) VS. SOLVENT
Class: COBLENTZ III
Instrument: PERKIN-ELMER 180
Sampling: TRANSMISSION
Path length: 0.011, 0.011 CM
Resolution: 4
Origin: DOW CHEMICAL COMPANY
1/CM	TRANSMITTANCE
419.289	0.938
428.426	0.951
437.563	0.951
446.7	0.955
455.837	0.959
464.974	0.954
474.112	0.949
483.249	0.948
492.386	0.942
501.523	0.948
510.66	0.949
519.797	0.947
528.934	0.947
538.071	0.947
547.208	0.939
556.345	0.922
565.482	0.921
574.619	0.93
583.757	0.965
592.894	0.974
602.031	0.973
611.168	0.978
620.305	0.977
629.442	0.974
638.579	0.953
647.716	0.86
656.853	0.962
665.99	0.966
675.127	0.953
684.264	0.852
693.402	0.732
702.539	0.6949
711.676	0.7361
720.813	0.663
729.95	0.5051
739.087	0.328
748.224	0.645
757.361	0.754
766.498	0.783
775.635	0.787
784.772	0.801
793.909	0.854
803.047	0.903
812.184	0.908
821.321	0.893
830.458	0.891
839.595	0.904
848.732	0.891
857.869	0.876
867.006	0.874
876.143	0.869
885.28	0.886
894.417	0.896
903.554	0.894
912.692	0.883
921.829	0.868
930.966	0.832
940.103	0.784
949.24	0.735
958.377	0.717
967.514	0.71
976.651	0.766
985.788	0.808
994.925	0.846
1004.06	0.856
1013.2	0.851
1022.34	0.822
1031.47	0.652
1040.61	0.673
1049.75	0.676
1058.88	0.4959
1068.02	0.172
1077.16	0.3938
1086.3	0.686
1095.43	0.713
1104.57	0.563
1113.71	0.1421
1122.84	0.105
1131.98	0.144
1141.12	0.3601
1150.26	0.684
1159.39	0.7229
1168.53	0.783
1177.67	0.812
1186.8	0.815
1195.94	0.809
1205.08	0.784
1214.22	0.749
1223.35	0.685
1232.49	0.512
1241.63	0.29
1250.76	0.1131
1259.9	0.037
1269.04	0.012
1278.17	0.017
1287.31	0.019
1296.45	0.119
1305.59	0.311
1314.72	0.513
1323.86	0.61
1333	0.707
1342.13	0.735
1351.27	0.736
1360.41	0.714
1369.55	0.622
1378.68	0.583
1387.82	0.687
1396.96	0.82
1406.09	0.84
1415.23	0.835
1424.37	0.784
1433.51	0.671
1442.64	0.498
1451.78	0.3891
1460.92	0.303
1470.05	0.6269
1479.19	0.744
1488.33	0.811
1497.46	0.868
1506.6	0.853
1515.74	0.889
1524.88	0.905
1534.01	0.913
1543.15	0.91
1552.29	0.906
1561.42	0.893
1570.56	0.827
1579.7	0.778
1588.84	0.837
1597.97	0.75
1607.11	0.877
1616.25	0.892
1625.38	0.9
1634.52	0.898
1643.66	0.891
1652.8	0.881
1661.93	0.871
1671.07	0.842
1680.21	0.775
1689.34	0.728
1698.48	0.6319
1707.62	0.4171
1716.75	0.052
1725.89	0.019
1735.03	0.054
1744.17	0.305
1753.3	0.639
1762.44	0.787
1771.58	0.842
1780.71	0.878
1789.85	0.894
1798.99	0.91
1808.13	0.915
1817.26	0.919
1826.4	0.915
1835.54	0.917
1844.67	0.93
1853.81	0.932
1862.95	0.932
1872.09	0.939
1881.22	0.941
1890.36	0.941
1899.5	0.942
1908.63	0.939
1917.77	0.939
1926.91	0.935
1936.04	0.921
1945.18	0.936
1954.32	0.942
1963.46	0.935
1972.59	0.942
1981.73	0.948
1990.87	0.95
2000	0.933
2009.14	0.926
2018.28	0.928
2027.42	0.9265
2036.55	0.929
2045.69	0.929
2054.83	0.927
2063.96	0.926
2073.1	0.925
2082.24	0.9246
2091.38	0.926
2100.51	0.928
2109.65	0.9261
2118.79	0.929
2127.92	0.9279
2137.06	0.9266
2146.2	0.929
2155.33	0.9293
2164.47	0.9288
2173.61	0.9307
2182.75	0.932
2191.88	0.9266
2201.02	0.9272
2210.16	0.9284
2219.29	0.93
2228.43	0.9283
2237.57	0.929
2246.71	0.929
2255.84	0.928
2264.98	0.9288
2274.12	0.927
2283.25	0.929
2292.39	0.9277
2301.53	0.929
2310.67	0.926
2319.8	0.9202
2328.94	0.9217
2338.08	0.925
2347.21	0.923
2356.35	0.923
2365.49	0.926
2374.62	0.924
2383.76	0.922
2392.9	0.922
2402.04	0.9234
2411.17	0.925
2420.31	0.927
2429.45	0.9299
2438.58	0.9319
2447.72	0.931
2456.86	0.9335
2466	0.933
2475.13	0.9325
2484.27	0.933
2493.41	0.9315
2502.54	0.929
2511.68	0.926
2520.82	0.924
2529.96	0.923
2539.09	0.922
2548.23	0.921
2557.37	0.9199
2566.5	0.9174
2575.64	0.916
2584.78	0.9134
2593.91	0.911
2603.05	0.9106
2612.19	0.911
2621.33	0.909
2630.46	0.906
2639.6	0.904
2648.74	0.902
2657.87	0.8957
2667.01	0.8898
2676.15	0.8907
2685.29	0.8952
2694.42	0.8977
2703.56	0.9008
2712.7	0.8943
2721.83	0.8859
2730.97	0.8797
2740.11	0.8862
2749.25	0.888
2758.38	0.8825
2767.52	0.878
2776.66	0.8757
2785.79	0.8624
2794.93	0.8478
2804.07	0.8216
2813.2	0.7828
2822.34	0.7239
2831.48	0.611
2840.62	0.3987
2849.75	0.0768
2858.89	0.117
2868.03	0.2195
2877.16	0.3243
2886.3	0.2578
2895.44	0.1577
2904.58	0.0758
2913.71	0.0148
2922.85	0.0044
2931.99	0.0206
2941.12	0.0672
2950.26	0.0593
2959.4	0.0803
2968.54	0.2203
2977.67	0.4893
2986.81	0.6625
2995.95	0.7464
3005.08	0.8
3014.22	0.8346
3023.36	0.85
3032.49	0.8596
3041.63	0.871
3050.77	0.8634
3059.91	0.8489
3069.04	0.8468
3078.18	0.8767
3087.32	0.9069
3096.45	0.9132
3105.59	0.9192
3114.73	0.9241
3123.87	0.9286
3133	0.929
3142.14	0.929
3151.28	0.928
3160.41	0.93
3169.55	0.929
3178.69	0.9297
3187.83	0.9342
3196.96	0.9367
3206.1	0.9388
3215.24	0.9407
3224.37	0.943
3233.51	0.944
3242.65	0.9452
3251.78	0.945
3260.92	0.945
3270.06	0.9478
3279.2	0.9487
3288.33	0.946
3297.47	0.946
3306.61	0.946
3315.74	0.9473
3324.88	0.948
3334.02	0.9483
3343.16	0.949
3352.29	0.9487
3361.43	0.948
3370.57	0.947
3379.7	0.9451
3388.84	0.943
3397.98	0.9421
3407.12	0.9376
3416.25	0.9321
3425.39	0.9216
3434.53	0.9181
3443.66	0.92
3452.8	0.9259
3461.94	0.9344
3471.07	0.94
3480.21	0.9425
3489.35	0.947
3498.49	0.9495
3507.62	0.952
3516.76	0.953
3525.9	0.953
3535.03	0.954
3544.17	0.953
3553.31	0.952
3562.45	0.953
3571.58	0.9591
3580.72	0.9685
3589.86	0.952
3598.99	0.9469
3608.13	0.9406
3617.27	0.945
3626.41	0.946
3635.54	0.9481
3644.68	0.951
3653.82	0.9502
3662.95	0.95
3672.09	0.9498
3681.23	0.9473
3690.36	0.95
3699.5	0.9517
3708.64	0.953
3717.78	0.9527
3726.91	0.952
3736.05	0.952
3745.19	0.952
3754.32	0.952
3763.46	0.952
3772.6	0.953
3781.74	0.955
3790.87	0.954
3800.01	0.953
3809.15	0.9548
3818.28	0.9563
3827.42	0.955
3836.56	0.955
3845.7	0.955
3854.83	0.954
3863.97	0.953
3873.11	0.9554
3882.24	0.9589
3891.38	0.9576
3900.52	0.9569
3909.65	0.9556
3918.79	0.955
3927.93	0.955
3937.07	0.9541
3946.2	0.957
3955.34	0.957
3964.48	0.957
3973.61	0.954
3982.75	0.953
3991.89	0.954
