Infrared Spectrum: 3,4-Dichlorobenzyl mercaptan
Formula: C 7 H 6 Cl 2 S
CAS: 36480-40-7
State: gas
Origin: EPA-IR VAPOR PHASE LIBRARY
1/CM	ABSORBANCE
549.8	0.002373
559.445	0.004393
569.09	0.003483
578.734	0.0011965
588.379	0.000917
598.024	0.0013319
607.669	0.0011945
617.313	0.001543
626.958	0.003243
636.603	0.006323
646.248	0.008633
655.893	0.004253
665.537	0.003673
675.182	0.008243
684.827	0.010293
694.472	0.007003
704.116	0.008353
713.761	0.009673
723.406	0.009163
733.051	0.006033
742.695	0.004693
752.34	0.003143
761.985	0.002743
771.63	0.002583
781.275	0.002983
790.919	0.004073
800.564	0.007253
810.209	0.013543
819.854	0.015243
829.498	0.009243
839.143	0.004313
848.788	0.003693
858.433	0.006023
868.078	0.011693
877.722	0.018603
887.367	0.015053
897.012	0.008433
906.657	0.005133
916.301	0.003383
925.946	0.003003
935.591	0.002913
945.236	0.003083
954.88	0.003163
964.525	0.002773
974.17	0.004043
983.815	0.004033
993.46	0.004253
1003.1	0.003403
1012.75	0.005143
1022.39	0.014433
1032.04	0.030913
1041.68	0.020453
1051.33	0.004413
1060.97	0.002893
1070.62	0.001813
1080.26	0.002593
1089.91	0.001963
1099.55	0.002493
1109.2	0.005063
1118.84	0.010693
1128.49	0.032843
1138.13	0.035503
1147.78	0.017603
1157.42	0.008363
1167.07	0.004973
1176.71	0.003973
1186.36	0.005293
1196	0.008993
1205.64	0.008493
1215.29	0.004563
1224.93	0.004963
1234.58	0.007473
1244.22	0.012953
1253.87	0.013783
1263.51	0.011203
1273.16	0.008013
1282.8	0.004123
1292.45	0.002683
1302.09	0.002023
1311.74	0.001753
1321.38	0.001543
1331.03	0.001443
1340.67	0.001733
1350.32	0.002273
1359.96	0.003463
1369.61	0.007423
1379.25	0.013963
1388.9	0.019503
1398.54	0.016103
1408.18	0.008633
1417.83	0.006743
1427.47	0.007893
1437.12	0.010843
1446.76	0.010533
1456.41	0.017683
1466.05	0.055963
1475.7	0.061753
1485.34	0.013003
1494.99	0.005623
1504.63	0.004553
1514.28	0.002843
1523.92	0.002323
1533.57	0.002283
1543.21	0.003723
1552.86	0.006813
1562.5	0.007733
1572.15	0.004953
1581.79	0.004213
1591.44	0.005983
1601.08	0.004363
1610.73	0.001963
1620.37	0.001963
1630.01	0.001703
1639.66	0.0013331
1649.3	0.0012777
1658.95	0.0009943
1668.59	0.0011535
1678.24	0.0009585
1687.88	0.0009593
1697.53	0.0008041
1707.17	0.0008531
1716.82	0.0009991
1726.46	0.0012839
1736.11	0.0012048
1745.75	0.002153
1755.4	0.002563
1765.04	0.001783
1774.69	0.001354
1784.33	0.0011023
1793.98	0.0009374
1803.62	0.0010679
1813.27	0.0011417
1822.91	0.0010663
1832.55	0.0007753
1842.2	0.0006603
1851.84	0.0007105
1861.49	0.0008985
1871.13	0.0012684
1880.78	0.001923
1890.42	0.002383
1900.07	0.001683
1909.71	0.0011703
1919.36	0.000751
1929	0.0007851
1938.65	0.0008677
1948.29	0.0007874
1957.94	0.0006593
1967.58	0.0007808
1977.23	0.0007845
1986.87	0.0007248
1996.52	0.0006921
2006.16	0.0006514
2015.81	0.0007277
2025.45	0.0007988
2035.1	0.0004996
2044.74	0.0007443
2054.38	0.0005928
2064.03	0.0006507
2073.67	0.0007642
2083.32	0.0007558
2092.96	0.0006124
2102.61	0.0006976
2112.25	0.0005362
2121.9	0.0006256
2131.54	0.0007371
2141.19	0.0009441
2150.83	0.0007864
2160.48	0.0007608
2170.12	0.0005524
2179.77	0.0005969
2189.41	0.0005603
2199.06	0.0006107
2208.7	0.0005868
2218.35	0.0006337
2227.99	0.0007125
2237.64	0.0006427
2247.28	0.0005531
2256.92	0.0008109
2266.57	0.0008188
2276.21	0.0007089
2285.86	0.0009376
2295.5	0.0007294
2305.15	0.0007335
2314.79	0.0005886
2324.44	0.0006437
2334.08	0.0007981
2343.73	0.0006549
2353.37	0.0007521
2363.02	0.0008093
2372.66	0.0008443
2382.31	0.0007288
2391.95	0.0008873
2401.6	0.0006923
2411.24	0.000604
2420.89	0.0008362
2430.53	0.0007421
2440.18	0.0007343
2449.82	0.000658
2459.47	0.0007021
2469.11	0.0005532
2478.75	0.0009297
2488.4	0.0004023
2498.04	0.0006452
2507.69	0.0007365
2517.33	0.0008375
2526.98	0.000903
2536.62	0.0008354
2546.27	0.0009412
2555.91	0.0009348
2565.56	0.0007635
2575.2	0.000744
2584.85	0.001513
2594.49	0.001663
2604.14	0.0011851
2613.78	0.0009955
2623.43	0.0009595
2633.07	0.000761
2642.72	0.0007207
2652.36	0.0006414
2662.01	0.0007237
2671.65	0.0008511
2681.29	0.0009045
2690.94	0.00076
2700.58	0.0010188
2710.23	0.0008213
2719.87	0.0006957
2729.52	0.0008816
2739.16	0.0007589
2748.81	0.0008682
2758.45	0.0007991
2768.1	0.0008802
2777.74	0.0007229
2787.39	0.0005553
2797.03	0.0009227
2806.68	0.000852
2816.32	0.0012144
2825.97	0.0009585
2835.61	0.0011707
2845.26	0.0010447
2854.9	0.001613
2864.55	0.001523
2874.19	0.001763
2883.84	0.0009269
2893.48	0.0012219
2903.12	0.0013994
2912.77	0.002013
2922.41	0.003273
2932.06	0.005333
2941.7	0.007083
2951.35	0.006223
2960.99	0.004923
2970.64	0.004473
2980.28	0.003853
2989.93	0.002863
2999.57	0.002273
3009.22	0.0013511
3018.86	0.001923
3028.51	0.002523
3038.15	0.003013
3047.8	0.003143
3057.44	0.004243
3067.09	0.003913
3076.73	0.002643
3086.38	0.002003
3096.02	0.001933
3105.67	0.0011077
3115.31	0.0006695
3124.95	0.0006151
3134.6	0.0006984
3144.24	0.0007622
3153.89	0.0005897
3163.53	0.0006336
3173.18	0.0007878
3182.82	0.0003832
3192.47	0.0004039
3202.11	0.0006074
3211.76	0.00048238
3221.4	0.0003703
3231.05	0.0008161
3240.69	0.000334
3250.34	0.00050427
3259.98	0.0005811
3269.63	0.0008611
3279.27	0.0005769
3288.92	0.0004122
3298.56	0.00046208
3308.21	0.0006279
3317.85	0.0003692
3327.49	0.0005645
3337.14	0.000442932
3346.78	0.0006337
3356.43	0.000396
3366.07	0.000246
3375.72	0.00048525
3385.36	0.0006431
3395.01	0.000243
3404.65	0.0007013
3414.3	0.0004223
3423.94	0.000189
3433.59	0.00044785
3443.23	0.0003378
3452.88	0.00053165
3462.52	9.6e-05
3472.17	0.0006924
3481.81	0.0005917
3491.46	0.000177
3501.1	0.00046896
3510.75	0.000156
3520.39	0.000303
3530.04	0.0007604
3539.68	0.000269
3549.32	0.0007135
3558.97	0.00049329
3568.61	0.0008507
3578.26	0.000263
3587.9	0.00048093
3597.55	0.000307
3607.19	0.00053111
3616.84	0.0005618
3626.48	0.00052326
3636.13	0.00052776
3645.77	0.000332
3655.42	0.0004097
3665.06	0.000252
3674.71	0.000262
3684.35	0.00017
3694	0.000312
3703.64	0.0005439
3713.29	0.00044061
3722.93	0.000543
3732.58	0.0005836
3742.22	0.000663
3751.86	0.0007797
3761.51	0.0006511
3771.15	0.0005415
3780.8	0.0007429
3790.44	0.000578
3800.09	0.00045508
3809.73	0.0003507
3819.38	0.00048957
3829.02	0.0005655
3838.67	0.0005744
3848.31	0.00051626
3857.96	0.00051617
3867.6	0.0006957
3877.25	0.0007527
3886.89	0.0006833
3896.54	0.00049031
3906.18	0.0006011
3915.83	0.0006755
3925.47	0.0005982
3935.12	0.000144
3944.76	0.000168
3954.41	0.0006228
3964.05	0.000149
3973.69	0.0006173
3983.34	0.00051586
3992.98	0.0007243
