Infrared Spectrum: PURINE-6(3H)-ONE, 3-BENZYL-
Formula: C12 H10 N4 O
CAS: 3649-39-6
State: SOLID (1.0 mg / 650 mg KBr DISC)
Class: COBLENTZ III
Instrument: PERKIN-ELMER 221 (GRATING)
Instrument parameters: FILTER AT 2490, 980 CM^-^1. GRATING 4000-1428 CM^-^1, NaCl PRISM 1428-650 CM^-^1
Sampling: TRANSMISSION
Resolution: 2
Origin: SOUTHERN RESEARCH INSTITUTE
1/CM	TRANSMITTANCE
652.878	0.798
661.809	0.746
670.741	0.779
679.672	0.6744
688.604	0.4178
697.535	0.6721
706.467	0.8642
715.398	0.8177
724.329	0.7213
733.261	0.6284
742.192	0.5439
751.124	0.7312
760.055	0.8762
768.987	0.8185
777.918	0.6705
786.849	0.7772
795.781	0.8067
804.712	0.7463
813.644	0.717
822.575	0.7658
831.507	0.781
840.438	0.7598
849.369	0.6557
858.301	0.677
867.232	0.5842
876.164	0.778
885.095	0.7745
894.026	0.7105
902.958	0.6573
911.889	0.5613
920.821	0.4349
929.752	0.4184
938.684	0.6154
947.615	0.6798
956.546	0.6567
965.478	0.7567
974.409	0.766
983.341	0.7551
992.272	0.7369
1001.2	0.6736
1010.14	0.614
1019.07	0.3535
1028	0.2883
1036.93	0.6548
1045.86	0.8224
1054.79	0.8516
1063.72	0.807
1072.66	0.736
1081.59	0.5837
1090.52	0.6645
1099.45	0.7921
1108.38	0.813
1117.31	0.8069
1126.24	0.7919
1135.17	0.767
1144.11	0.6903
1153.04	0.6224
1161.97	0.6171
1170.9	0.7109
1179.83	0.6782
1188.76	0.4781
1197.69	0.5437
1206.63	0.5928
1215.56	0.5667
1224.49	0.5396
1233.42	0.7523
1242.35	0.788
1251.28	0.7815
1260.21	0.78
1269.15	0.7661
1278.08	0.7406
1287.01	0.721
1295.94	0.6431
1304.87	0.5203
1313.8	0.5181
1322.73	0.6432
1331.67	0.6719
1340.6	0.6753
1349.53	0.5517
1358.46	0.5149
1367.39	0.6565
1376.32	0.6107
1385.25	0.4972
1394.19	0.6075
1403.12	0.5951
1412.05	0.5292
1420.98	0.396
1429.91	0.3143
1438.84	0.3153
1447.77	0.4732
1456.71	0.5383
1465.64	0.5928
1474.57	0.584
1483.5	0.4574
1492.43	0.4092
1501.36	0.3973
1510.29	0.5332
1519.23	0.626
1528.16	0.6119
1537.09	0.4327
1546.02	0.3079
1554.95	0.6174
1563.88	0.6919
1572.81	0.66
1581.75	0.6505
1590.68	0.6063
1599.61	0.5326
1608.54	0.464
1617.47	0.52
1626.4	0.4323
1635.33	0.3665
1644.27	0.289
1653.2	0.256
1662.13	0.2439
1671.06	0.2241
1679.99	0.2117
1688.92	0.168
1697.85	0.2554
1706.79	0.3692
1715.72	0.4891
1724.65	0.6024
1733.58	0.6207
1742.51	0.6915
1751.44	0.7305
1760.37	0.73
1769.31	0.714
1778.24	0.713
1787.17	0.7077
1796.1	0.6914
1805.03	0.6688
1813.96	0.6594
1822.89	0.6504
1831.83	0.6429
1840.76	0.639
1849.69	0.6455
1858.62	0.6579
1867.55	0.677
1876.48	0.677
1885.41	0.6799
1894.35	0.6914
1903.28	0.697
1912.21	0.7
1921.14	0.704
1930.07	0.7117
1939	0.7233
1947.93	0.7333
1956.87	0.7423
1965.8	0.7485
1974.73	0.755
1983.66	0.755
1992.59	0.7562
2001.52	0.761
2010.45	0.7652
2019.39	0.77
2028.32	0.77
2037.25	0.7686
2046.18	0.7648
2055.11	0.761
2064.04	0.758
2072.97	0.755
2081.91	0.752
2090.84	0.7478
2099.77	0.743
2108.7	0.7366
2117.63	0.728
2126.56	0.724
2135.49	0.7208
2144.43	0.7176
2153.36	0.7138
2162.29	0.7058
2171.22	0.697
2180.15	0.6908
2189.08	0.682
2198.01	0.679
2206.95	0.6738
2215.88	0.6638
2224.81	0.6548
2233.74	0.6448
2242.67	0.639
2251.6	0.6328
2260.53	0.6128
2269.47	0.6038
2278.4	0.5948
2287.33	0.5848
2296.26	0.5746
2305.19	0.5618
2314.12	0.5554
2323.05	0.5488
2331.99	0.5438
2340.92	0.533
2349.85	0.526
2358.78	0.524
2367.71	0.52
2376.64	0.516
2385.57	0.514
2394.51	0.514
2403.44	0.5078
2412.37	0.497
2421.3	0.4918
2430.23	0.4866
2439.16	0.4838
2448.09	0.479
2457.03	0.4738
2465.96	0.4648
2474.89	0.461
2483.82	0.46
2492.75	0.456
2501.68	0.4508
2510.61	0.4446
2519.55	0.4356
2528.48	0.432
2537.41	0.4288
2546.34	0.4216
2555.27	0.4138
2564.2	0.411
2573.13	0.413
2582.07	0.414
2591	0.413
2599.93	0.419
2608.86	0.4328
2617.79	0.447
2626.72	0.45
2635.65	0.45
2644.59	0.451
2653.52	0.452
2662.45	0.452
2671.38	0.452
2680.31	0.455
2689.24	0.459
2698.17	0.4592
2707.11	0.46
2716.04	0.461
2724.97	0.4536
2733.9	0.4394
2742.83	0.433
2751.76	0.436
2760.69	0.437
2769.63	0.436
2778.56	0.4372
2787.49	0.44
2796.42	0.4504
2805.35	0.47
2814.28	0.4872
2823.21	0.492
2832.15	0.4962
2841.08	0.505
2850.01	0.511
2858.94	0.5162
2867.87	0.5242
2876.8	0.5438
2885.73	0.5522
2894.67	0.556
2903.6	0.557
2912.53	0.556
2921.46	0.5304
2930.39	0.5186
2939.32	0.52
2948.25	0.5252
2957.19	0.5332
2966.12	0.5404
2975.05	0.5482
2983.98	0.5494
2992.91	0.5578
3001.84	0.5668
3010.77	0.5502
3019.71	0.5256
3028.64	0.51
3037.57	0.5104
3046.5	0.5474
3055.43	0.5572
3064.36	0.5688
3073.29	0.5824
3082.23	0.6103
3091.16	0.6252
3100.09	0.633
3109.02	0.6268
3117.95	0.622
3126.88	0.6048
3135.81	0.6004
3144.75	0.6623
3153.68	0.6912
3162.61	0.7074
3171.54	0.7164
3180.47	0.7214
3189.4	0.724
3198.33	0.725
3207.27	0.727
3216.2	0.7292
3225.13	0.733
3234.06	0.734
3242.99	0.735
3251.92	0.735
3260.85	0.737
3269.79	0.737
3278.72	0.7366
3287.65	0.733
3296.58	0.733
3305.51	0.732
3314.44	0.7288
3323.37	0.724
3332.31	0.721
3341.24	0.716
3350.17	0.713
3359.1	0.713
3368.03	0.71
3376.96	0.707
3385.89	0.707
3394.83	0.707
3403.76	0.7048
3412.69	0.7024
3421.62	0.704
3430.55	0.704
3439.48	0.705
3448.41	0.706
3457.35	0.706
3466.28	0.706
3475.21	0.705
3484.14	0.705
3493.07	0.706
3502	0.71
3510.93	0.71
3519.87	0.711
3528.8	0.711
3537.73	0.713
3546.66	0.713
3555.59	0.713
3564.52	0.713
3573.45	0.713
3582.39	0.713
3591.32	0.713
3600.25	0.714
3609.18	0.714
3618.11	0.714
3627.04	0.714
3635.97	0.713
3644.91	0.713
3653.84	0.713
3662.77	0.711
3671.7	0.71
3680.63	0.709
3689.56	0.709
3698.49	0.709
3707.43	0.709
3716.36	0.709
3725.29	0.707
3734.22	0.706
3743.15	0.7048
3752.08	0.702
3761.01	0.7
3769.95	0.7
3778.88	0.7
3787.81	0.698
3796.74	0.697
3805.67	0.696
3814.6	0.695
3823.53	0.693
3832.47	0.693
3841.4	0.692
3850.33	0.692
3859.26	0.6918
3868.19	0.686
3877.12	0.686
3886.05	0.686
3894.99	0.686
3903.92	0.686
3912.85	0.683
3921.78	0.682
3930.71	0.681
3939.64	0.681
3948.57	0.681
3957.51	0.681
3966.44	0.681
3975.37	0.679
3984.3	0.6788
3993.23	0.6778
4002.16	0.677
4011.09	0.677
