Infrared Spectrum: 2-(Trifluoromethyl)phenylhydrazine
Formula: C 7 H 7 F 3 N 2
CAS: 365-34-4
State: gas
Origin: EPA-IR VAPOR PHASE LIBRARY
1/CM	ABSORBANCE
549.8	0.03672
559.445	0.03646
569.09	0.03568
578.734	0.0299
588.379	0.02867
598.024	0.02973
607.669	0.02638
617.313	0.02211
626.958	0.02465
636.603	0.03571
646.248	0.05321
655.893	0.05764
665.537	0.04185
675.182	0.0297
684.827	0.02617
694.472	0.02641
704.116	0.02685
713.761	0.02862
723.406	0.03394
733.051	0.05571
742.695	0.11893
752.34	0.17779
761.985	0.09522
771.63	0.04039
781.275	0.03078
790.919	0.03388
800.564	0.03946
810.209	0.04367
819.854	0.03616
829.498	0.02345
839.143	0.01864
848.788	0.02236
858.433	0.03133
868.078	0.04289
877.722	0.04729
887.367	0.04297
897.012	0.03524
906.657	0.02804
916.301	0.02307
925.946	0.02176
935.591	0.0244
945.236	0.02463
954.88	0.01711
964.525	0.01236
974.17	0.01111
983.815	0.01136
993.46	0.01182
1003.1	0.01224
1012.75	0.02027
1022.39	0.07128
1032.04	0.1767
1041.68	0.16533
1051.33	0.07977
1060.97	0.07629
1070.62	0.0608
1080.26	0.07838
1089.91	0.11002
1099.55	0.14863
1109.2	0.2586
1118.84	0.47298
1128.49	0.54757
1138.13	0.35787
1147.78	0.19166
1157.42	0.17821
1167.07	0.23715
1176.71	0.19113
1186.36	0.08377
1196	0.03875
1205.64	0.03226
1215.29	0.03507
1224.93	0.03853
1234.58	0.04609
1244.22	0.08314
1253.87	0.15144
1263.51	0.18347
1273.16	0.19246
1282.8	0.20281
1292.45	0.18145
1302.09	0.18817
1311.74	0.31905
1321.38	0.42424
1331.03	0.2662
1340.67	0.08161
1350.32	0.04131
1359.96	0.02805
1369.61	0.02079
1379.25	0.0161
1388.9	0.01334
1398.54	0.01171
1408.18	0.01167
1417.83	0.01328
1427.47	0.01848
1437.12	0.0301
1446.76	0.04769
1456.41	0.08467
1466.05	0.17538
1475.7	0.19182
1485.34	0.10177
1494.99	0.06022
1504.63	0.06901
1514.28	0.05993
1523.92	0.03257
1533.57	0.01783
1543.21	0.01452
1552.86	0.01426
1562.5	0.0206
1572.15	0.04158
1581.79	0.08097
1591.44	0.10809
1601.08	0.11704
1610.73	0.14308
1620.37	0.12418
1630.01	0.07335
1639.66	0.04639
1649.3	0.03375
1658.95	0.0232
1668.59	0.01572
1678.24	0.01228
1687.88	0.01111
1697.53	0.00948
1707.17	0.00748
1716.82	0.00695
1726.46	0.00611
1736.11	0.0052
1745.75	0.00465
1755.4	0.00434
1765.04	0.00428
1774.69	0.00517
1784.33	0.00654
1793.98	0.00741
1803.62	0.00696
1813.27	0.00579
1822.91	0.00509
1832.55	0.00472
1842.2	0.00397
1851.84	0.00385
1861.49	0.004
1871.13	0.00522
1880.78	0.00618
1890.42	0.00594
1900.07	0.00588
1909.71	0.00661
1919.36	0.00597
1929	0.00521
1938.65	0.00604
1948.29	0.00515
1957.94	0.00337
1967.58	0.00282
1977.23	0.00256
1986.87	0.00248
1996.52	0.0024
2006.16	0.00236
2015.81	0.0023
2025.45	0.00221
2035.1	0.0022
2044.74	0.00232
2054.38	0.0024
2064.03	0.00256
2073.67	0.00283
2083.32	0.00302
2092.96	0.00263
2102.61	0.00246
2112.25	0.00228
2121.9	0.00231
2131.54	0.00236
2141.19	0.00254
2150.83	0.00282
2160.48	0.00288
2170.12	0.00256
2179.77	0.00256
2189.41	0.00277
2199.06	0.00306
2208.7	0.00314
2218.35	0.00362
2227.99	0.00369
2237.64	0.0031
2247.28	0.00272
2256.92	0.00223
2266.57	0.00206
2276.21	0.0022
2285.86	0.00249
2295.5	0.00237
2305.15	0.00235
2314.79	0.00231
2324.44	0.0024
2334.08	0.00248
2343.73	0.00234
2353.37	0.00194
2363.02	0.00177
2372.66	0.00148
2382.31	0.00147
2391.95	0.00166
2401.6	0.00155
2411.24	0.00182
2420.89	0.00209
2430.53	0.00229
2440.18	0.0024
2449.82	0.00208
2459.47	0.00178
2469.11	0.00157
2478.75	0.00146
2488.4	0.00145
2498.04	0.00129
2507.69	0.00126
2517.33	0.00152
2526.98	0.00158
2536.62	0.00197
2546.27	0.00192
2555.91	0.00211
2565.56	0.00226
2575.2	0.0025
2584.85	0.00255
2594.49	0.00253
2604.14	0.00229
2613.78	0.00254
2623.43	0.00279
2633.07	0.0032
2642.72	0.00277
2652.36	0.00193
2662.01	0.00112
2671.65	0.0008446
2681.29	0.0007843
2690.94	0.0008689
2700.58	0.0008428
2710.23	0.0007708
2719.87	0.000749
2729.52	0.00101
2739.16	0.00113
2748.81	0.00166
2758.45	0.00189
2768.1	0.00179
2777.74	0.00168
2787.39	0.00109
2797.03	0.0009442
2806.68	0.0008804
2816.32	0.0009409
2825.97	0.0009986
2835.61	0.00116
2845.26	0.00143
2854.9	0.00134
2864.55	0.0015
2874.19	0.00157
2883.84	0.00183
2893.48	0.00184
2903.12	0.00193
2912.77	0.00213
2922.41	0.00261
2932.06	0.00258
2941.7	0.00256
2951.35	0.00201
2960.99	0.00169
2970.64	0.00188
2980.28	0.00181
2989.93	0.0016
2999.57	0.0022
3009.22	0.00344
3018.86	0.00563
3028.51	0.0074
3038.15	0.00915
3047.8	0.0136
3057.44	0.01886
3067.09	0.02173
3076.73	0.02316
3086.38	0.0225
3096.02	0.01933
3105.67	0.01377
3115.31	0.00687
3124.95	0.00349
3134.6	0.00204
3144.24	0.00166
3153.89	0.00153
3163.53	0.00171
3173.18	0.00138
3182.82	0.00178
3192.47	0.00199
3202.11	0.0019
3211.76	0.00155
3221.4	0.00164
3231.05	0.00151
3240.69	0.00161
3250.34	0.00203
3259.98	0.0026
3269.63	0.00317
3279.27	0.00334
3288.92	0.00439
3298.56	0.00496
3308.21	0.00535
3317.85	0.00462
3327.49	0.00383
3337.14	0.00241
3346.78	0.0019
3356.43	0.00134
3366.07	0.0017
3375.72	0.00219
3385.36	0.00289
3395.01	0.00406
3404.65	0.00513
3414.3	0.00743
3423.94	0.01314
3433.59	0.02162
3443.23	0.02571
3452.88	0.02535
3462.52	0.02625
3472.17	0.03218
3481.81	0.03692
3491.46	0.03285
3501.1	0.02307
3510.75	0.01288
3520.39	0.00716
3530.04	0.00458
3539.68	0.00325
3549.32	0.00248
3558.97	0.0025
3568.61	0.0022
3578.26	0.00214
3587.9	0.00226
3597.55	0.00197
3607.19	0.002
3616.84	0.00224
3626.48	0.00205
3636.13	0.00207
3645.77	0.00228
3655.42	0.00211
3665.06	0.00217
3674.71	0.00229
3684.35	0.00207
3694	0.0018
3703.64	0.00183
3713.29	0.00135
3722.93	0.00141
3732.58	0.0011
3742.22	0.00132
3751.86	0.00153
3761.51	0.00134
3771.15	0.0008713
3780.8	0.00102
3790.44	0.0008935
3800.09	0.0008071
3809.73	0.00106
3819.38	0.0007528
3829.02	0.0008127
3838.67	0.00132
3848.31	0.0009672
3857.96	0.00112
3867.6	0.00118
3877.25	0.00109
3886.89	0.00138
3896.54	0.00111
3906.18	0.00126
3915.83	0.000992
3925.47	0.000689
3935.12	0.0007058
3944.76	0.0007543
3954.41	0.0012
3964.05	0.00101
3973.69	0.0006651
3983.34	0.0007378
3992.98	0.0008753
