Infrared Spectrum: 4,4'-Difluorobenzhydrol
Formula: C 13 H 10 F 2 O
CAS: 365-24-2
State: gas
Origin: EPA-IR VAPOR PHASE LIBRARY
1/CM	ABSORBANCE
549.9	0.03892
559.547	0.02205
569.193	0.01021
578.84	0.00826
588.486	0.0135
598.133	0.01687
607.779	0.00768
617.426	0.00422
627.072	0.00395
636.719	0.00397
646.365	0.0032
656.012	0.00298
665.658	0.00295
675.305	0.003
684.951	0.00306
694.598	0.00324
704.245	0.00324
713.891	0.00373
723.538	0.00429
733.184	0.00449
742.831	0.00507
752.477	0.00604
762.124	0.00926
771.77	0.01652
781.417	0.01936
791.063	0.01483
800.71	0.01607
810.356	0.02715
820.003	0.04218
829.649	0.07247
839.296	0.07532
848.943	0.03679
858.589	0.02562
868.236	0.02027
877.882	0.01051
887.529	0.00715
897.175	0.00539
906.822	0.00438
916.468	0.00381
926.115	0.00368
935.761	0.00393
945.408	0.00429
955.054	0.00471
964.701	0.00517
974.347	0.00562
983.994	0.00732
993.64	0.01083
1003.29	0.01944
1012.93	0.0379
1022.58	0.04051
1032.23	0.04039
1041.87	0.02545
1051.52	0.01441
1061.17	0.00922
1070.81	0.00667
1080.46	0.00635
1090.11	0.00886
1099.75	0.01096
1109.4	0.0081
1119.05	0.00613
1128.69	0.0062
1138.34	0.0083
1147.99	0.0232
1157.63	0.08336
1167.28	0.03866
1176.92	0.03077
1186.57	0.02095
1196.22	0.01605
1205.86	0.02215
1215.51	0.04223
1225.16	0.09201
1234.8	0.23766
1244.45	0.12428
1254.1	0.03185
1263.74	0.02034
1273.39	0.01905
1283.04	0.0184
1292.68	0.01956
1302.33	0.01852
1311.98	0.01552
1321.62	0.01511
1331.27	0.01676
1340.92	0.017
1350.56	0.01725
1360.21	0.01653
1369.86	0.01307
1379.5	0.01003
1389.15	0.00881
1398.79	0.00925
1408.44	0.0105
1418.09	0.01012
1427.73	0.00854
1437.38	0.00717
1447.03	0.00642
1456.67	0.00681
1466.32	0.00839
1475.97	0.01275
1485.61	0.0215
1495.26	0.04779
1504.91	0.15464
1514.55	0.16133
1524.2	0.04297
1533.85	0.01489
1543.49	0.00863
1553.14	0.00708
1562.79	0.00703
1572.43	0.00853
1582.08	0.01412
1591.73	0.03095
1601.37	0.05824
1611.02	0.04533
1620.67	0.01896
1630.31	0.00924
1639.96	0.00698
1649.6	0.00615
1659.25	0.00478
1668.9	0.00386
1678.54	0.00316
1688.19	0.0026849
1697.84	0.0023671
1707.48	0.0021492
1717.13	0.0020226
1726.78	0.002048
1736.42	0.0022185
1746.07	0.00282
1755.72	0.0042
1765.36	0.00456
1775.01	0.00272
1784.66	0.0020618
1794.3	0.0018385
1803.95	0.001646
1813.6	0.001551
1823.24	0.0016215
1832.89	0.00177822
1842.54	0.0017104
1852.18	0.0019557
1861.83	0.0025253
1871.47	0.00375
1881.12	0.00503
1890.77	0.00555
1900.41	0.00394
1910.06	0.0026927
1919.71	0.0020622
1929.35	0.0018646
1939	0.001823
1948.65	0.0016827
1958.29	0.001509
1967.94	0.001512
1977.59	0.001561
1987.23	0.00171782
1996.88	0.0020047
2006.53	0.0023138
2016.17	0.0026727
2025.82	0.0024347
2035.47	0.0020334
2045.11	0.0020446
2054.76	0.0020231
2064.41	0.0020627
2074.05	0.0019387
2083.7	0.0016729
2093.35	0.001555
2102.99	0.001475
2112.64	0.001267
2122.28	0.001162
2131.93	0.001076
2141.58	0.001016
2151.22	0.00105
2160.87	0.001041
2170.52	0.001036
2180.16	0.00105
2189.81	0.001081
2199.46	0.001101
2209.1	0.001118
2218.75	0.001128
2228.4	0.001087
2238.04	0.00124
2247.69	0.001399
2257.34	0.001558
2266.98	0.001435
2276.63	0.001309
2286.28	0.001244
2295.92	0.001294
2305.57	0.001187
2315.22	0.001278
2324.86	0.001267
2334.51	0.0013
2344.16	0.001298
2353.8	0.001337
2363.45	0.001366
2373.09	0.001576
2382.74	0.0018279
2392.39	0.0020667
2402.03	0.00175902
2411.68	0.001495
2421.33	0.001469
2430.97	0.001553
2440.62	0.00174425
2450.27	0.0019961
2459.91	0.0023191
2469.56	0.0024357
2479.21	0.00181745
2488.85	0.001308
2498.5	0.00121
2508.15	0.00127
2517.79	0.001257
2527.44	0.001268
2537.09	0.001323
2546.73	0.001279
2556.38	0.001431
2566.03	0.00146
2575.67	0.001557
2585.32	0.001424
2594.96	0.001121
2604.61	0.000993
2614.26	0.000959
2623.9	0.000923
2633.55	0.000885
2643.2	0.000857
2652.84	0.000846
2662.49	0.000975
2672.14	0.000896
2681.78	0.00097
2691.43	0.000925
2701.08	0.001011
2710.72	0.001021
2720.37	0.00091
2730.02	0.000958
2739.66	0.001105
2749.31	0.000937
2758.96	0.000906
2768.6	0.000783
2778.25	0.000857
2787.9	0.000858
2797.54	0.000873
2807.19	0.00082
2816.84	0.000859
2826.48	0.000972
2836.13	0.00136
2845.77	0.0018463
2855.42	0.00279
2865.07	0.0046
2874.71	0.00789
2884.36	0.01069
2894.01	0.00955
2903.65	0.00579
2913.3	0.00279
2922.95	0.001592
2932.59	0.000933
2942.24	0.00063
2951.89	0.0005
2961.53	0.00038
2971.18	0.00037
2980.83	0.00059
2990.47	0.001104
3000.12	0.0022473
3009.77	0.00298
3019.41	0.00328
3029.06	0.005
3038.71	0.00957
3048.35	0.01058
3058	0.0067
3067.64	0.00562
3077.29	0.00842
3086.94	0.00595
3096.58	0.00318
3106.23	0.00284
3115.88	0.0027104
3125.52	0.0021437
3135.17	0.001051
3144.82	0.00036
3154.46	0.00024
3164.11	0.00022
3173.76	9e-05
3183.4	0.00029
3193.05	0.00037
3202.7	0.00025
3212.34	0.00019
3221.99	0.00026
3231.64	0.00029
3241.28	0.0001
3250.93	0.00023
3260.58	0.00022
3270.22	0.00027
3279.87	0.00025
3289.52	0.00044
3299.16	0.00051
3308.81	0.00032
3318.45	0.00034
3328.1	0.00063
3337.75	0.00056
3347.39	0.00062
3357.04	0.00064
3366.69	0.000727
3376.33	0.000748
3385.98	0.000922
3395.63	0.000815
3405.27	0.000787
3414.92	0.001004
3424.57	0.000956
3434.21	0.000923
3443.86	0.000974
3453.51	0.001123
3463.15	0.000902
3472.8	0.00104
3482.45	0.001009
3492.09	0.001084
3501.74	0.001116
3511.39	0.001063
3521.03	0.001015
3530.68	0.00119
3540.33	0.001148
3549.97	0.001041
3559.62	0.001164
3569.26	0.001161
3578.91	0.001261
3588.56	0.001266
3598.2	0.001364
3607.85	0.00175801
3617.5	0.0023002
3627.14	0.00409
3636.79	0.0108
3646.44	0.01664
3656.08	0.00918
3665.73	0.00369
3675.38	0.0024756
3685.02	0.0019738
3694.67	0.0016744
3704.32	0.001504
3713.96	0.001404
3723.61	0.00128
3733.26	0.001368
3742.9	0.001312
3752.55	0.001295
3762.2	0.001178
3771.84	0.001276
3781.49	0.001201
3791.13	0.001216
3800.78	0.00115
3810.43	0.001219
3820.07	0.001384
3829.72	0.001326
3839.37	0.001481
3849.01	0.001514
3858.66	0.001337
3868.31	0.00136
3877.95	0.001485
3887.6	0.00147
3897.25	0.00147
3906.89	0.001459
3916.54	0.001389
3926.19	0.001291
3935.83	0.001277
3945.48	0.001221
3955.13	0.001046
3964.77	0.001069
3974.42	0.001098
3984.07	0.000893
3993.71	0.000938
