Infrared Spectrum: Pyrrolidine, N-methyl-, hydrochloride
Formula: C5 H12 Cl N
CAS: 36520-42-0
State: SOLID (KBr DISC, 0.9% WT.)
Class: COBLENTZ III
Instrument: PERKIN-ELMER 157
Sampling: TRANSMISSION
Resolution: 2
Origin: BRITISH PETROLEUM CO. LTD., ENGLAND
1/CM	TRANSMITTANCE
668	0.351
677	0.3648
686	0.39
695	0.4095
704	0.433
713	0.4592
722	0.4754
731	0.4987
740	0.5245
749	0.541
758	0.5564
767	0.5607
776	0.5596
785	0.5602
794	0.5655
803	0.5699
812	0.5679
821	0.5558
830	0.5387
839	0.5043
848	0.4521
857	0.422
866	0.5185
875	0.6064
884	0.617
893	0.5692
902	0.3713
911	0.4793
920	0.5327
929	0.5224
938	0.511
947	0.4356
956	0.516
965	0.5739
974	0.5711
983	0.5414
992	0.4507
1001	0.2637
1010	0.1904
1019	0.3606
1028	0.4076
1037	0.465
1046	0.4523
1055	0.4094
1064	0.3053
1073	0.2783
1082	0.3429
1091	0.2993
1100	0.2825
1109	0.2534
1118	0.3765
1127	0.5115
1136	0.5477
1145	0.5521
1154	0.5488
1163	0.5294
1172	0.5027
1181	0.479
1190	0.4689
1199	0.4687
1208	0.459
1217	0.4731
1226	0.5252
1235	0.5402
1244	0.5456
1253	0.5447
1262	0.5291
1271	0.4889
1280	0.4404
1289	0.4096
1298	0.3737
1307	0.4419
1316	0.4351
1325	0.4138
1334	0.3583
1343	0.3154
1352	0.3401
1361	0.3827
1370	0.3777
1379	0.3631
1388	0.3432
1397	0.3164
1406	0.28
1415	0.2226
1424	0.1688
1433	0.1498
1442	0.1174
1451	0.0865
1460	0.0945
1469	0.1191
1478	0.1695
1487	0.3138
1496	0.3837
1505	0.4185
1514	0.4431
1523	0.4752
1532	0.4965
1541	0.5275
1550	0.5426
1559	0.5589
1568	0.5614
1577	0.5709
1586	0.5735
1595	0.5742
1604	0.5698
1613	0.5622
1622	0.5541
1631	0.5578
1640	0.578
1649	0.6152
1658	0.6327
1667	0.6561
1676	0.6633
1685	0.6648
1694	0.6651
1703	0.6653
1712	0.6706
1721	0.6759
1730	0.6899
1739	0.7072
1748	0.7252
1757	0.7405
1766	0.764
1775	0.7831
1784	0.7877
1793	0.7907
1802	0.7923
1811	0.7929
1820	0.7932
1829	0.7933
1838	0.7933
1847	0.7932
1856	0.7926
1865	0.7919
1874	0.7908
1883	0.7898
1892	0.7886
1901	0.7874
1910	0.7862
1919	0.7857
1928	0.785
1937	0.7829
1946	0.7799
1955	0.7762
1964	0.7714
1973	0.7656
1982	0.76
1991	0.7562
2000	0.7485
2009	0.7392
2018	0.7276
2027	0.714
2036	0.7061
2045	0.7058
2054	0.7064
2063	0.707
2072	0.7074
2081	0.7072
2090	0.7061
2099	0.7027
2108	0.6971
2117	0.6889
2126	0.6794
2135	0.6693
2144	0.6592
2153	0.6481
2162	0.6359
2171	0.6226
2180	0.6081
2189	0.5902
2198	0.5745
2207	0.5579
2216	0.5417
2225	0.5267
2234	0.5106
2243	0.4939
2252	0.4826
2261	0.4633
2270	0.4442
2279	0.4267
2288	0.4126
2297	0.3923
2306	0.3721
2315	0.3488
2324	0.3324
2333	0.3241
2342	0.3153
2351	0.3093
2360	0.3042
2369	0.2988
2378	0.2926
2387	0.2843
2396	0.2749
2405	0.263
2414	0.2483
2423	0.229
2432	0.2166
2441	0.208
2450	0.2027
2459	0.1993
2468	0.1987
2477	0.1998
2486	0.2025
2495	0.2048
2504	0.2055
2513	0.2042
2522	0.2054
2531	0.2052
2540	0.2052
2549	0.2049
2558	0.2046
2567	0.2042
2576	0.2035
2585	0.2033
2594	0.2033
2603	0.2043
2612	0.2056
2621	0.209
2630	0.214
2639	0.219
2648	0.2241
2657	0.2291
2666	0.2338
2675	0.2385
2684	0.2435
2693	0.2503
2702	0.2605
2711	0.2733
2720	0.2892
2729	0.3156
2738	0.322
2747	0.3254
2756	0.3268
2765	0.3266
2774	0.3254
2783	0.3202
2792	0.3058
2801	0.2878
2810	0.2638
2819	0.24
2828	0.2163
2837	0.1927
2846	0.1749
2855	0.1624
2864	0.1465
2873	0.1354
2882	0.1269
2891	0.1204
2900	0.1159
2909	0.1139
2918	0.1152
2927	0.1197
2936	0.1463
2945	0.1572
2954	0.1641
2963	0.1798
2972	0.2031
2981	0.2565
2990	0.3097
2999	0.3738
3008	0.4302
3017	0.472
3026	0.5027
3035	0.5111
3044	0.5301
3053	0.5518
3062	0.5735
3071	0.595
3080	0.6165
3089	0.6377
3098	0.6637
3107	0.6746
3116	0.6847
3125	0.6936
3134	0.7028
3143	0.7121
3152	0.7175
3161	0.7191
3170	0.7197
3179	0.7201
3188	0.7204
3197	0.7207
3206	0.7209
3215	0.7211
3224	0.7211
3233	0.721
3242	0.7209
3251	0.7206
3260	0.7197
3269	0.717
3278	0.7133
3287	0.7087
3296	0.7042
3305	0.7009
3314	0.6983
3323	0.6961
3332	0.694
3341	0.6918
3350	0.6907
3359	0.6899
3368	0.6895
3377	0.6894
3386	0.6894
3395	0.6896
3404	0.691
3413	0.6934
3422	0.6965
3431	0.7013
3440	0.7104
3449	0.7211
3458	0.7304
3467	0.7434
3476	0.7568
3485	0.7698
3494	0.7831
3503	0.7966
3512	0.8084
3521	0.8216
3530	0.8349
3539	0.8399
3548	0.843
3557	0.8454
3566	0.8469
3575	0.8484
3584	0.8496
3593	0.8507
3602	0.8515
3611	0.8523
3620	0.8526
3629	0.8529
3638	0.8528
3647	0.8527
3656	0.8525
3665	0.8523
3674	0.852
3683	0.8517
3692	0.8513
3701	0.8509
3710	0.8506
3719	0.85
3728	0.8495
3737	0.8488
3746	0.8483
3755	0.8478
3764	0.8472
3773	0.8467
3782	0.8462
3791	0.8457
3800	0.8452
3809	0.8448
3818	0.8444
3827	0.8439
3836	0.8435
3845	0.8435
3854	0.8434
3863	0.8433
3872	0.8433
3881	0.8432
3890	0.8432
3899	0.8433
3908	0.8433
3917	0.8433
3926	0.8434
3935	0.8433
3944	0.8431
3953	0.8429
3962	0.8426
3971	0.8402
3980	0.8377
3989	0.8353
3998	0.8331
