Infrared Spectrum: TYROSINE, N-ACETYL-L-, ETHYL ESTER HYDRATE
Formula: C13 H17 N O4  * H2 O
CAS: 36546-50-6
State: SOLID (SPLIT MULL), FLUOROLUBE FOR 3800-1335 CM^-^1, NUJOL FOR 1335-400 CM^-^1
Melting point: 80 C
Class: COBLENTZ III
Instrument: DOW KBr FOREPRISM-GRATING
Instrument parameters: BLAZED AT 3.5, 12.0, 20.0 MICRON AND CHANGED AT 5.0, 7.5, 14.9 MICRON
Sampling: TRANSMISSION
Resolution: 2
Origin: DOW CHEMICAL COMPANY
1/CM	TRANSMITTANCE
404.097	0.664
412.875	0.662
421.654	0.645
430.432	0.594
439.21	0.607
447.989	0.633
456.767	0.592
465.546	0.679
474.324	0.684
483.102	0.651
491.881	0.553
500.659	0.653
509.437	0.644
518.216	0.423
526.994	0.5021
535.772	0.603
544.551	0.541
553.329	0.55
562.107	0.685
570.886	0.684
579.664	0.656
588.443	0.589
597.221	0.465
605.999	0.598
614.778	0.728
623.556	0.728
632.334	0.663
641.113	0.754
649.891	0.787
658.669	0.773
667.448	0.692
676.226	0.623
685.005	0.516
693.783	0.469
702.561	0.501
711.34	0.53
720.118	0.495
728.896	0.553
737.675	0.524
746.453	0.509
755.231	0.484
764.01	0.425
772.788	0.453
781.566	0.575
790.345	0.663
799.123	0.695
807.902	0.527
816.68	0.4169
825.458	0.582
834.237	0.515
843.015	0.82
851.793	0.776
860.572	0.796
869.35	0.623
878.128	0.6181
886.907	0.864
895.685	0.872
904.463	0.875
913.242	0.87
922.02	0.864
930.799	0.837
939.577	0.839
948.355	0.793
957.134	0.736
965.912	0.818
974.69	0.821
983.469	0.814
992.247	0.778
1001.03	0.703
1009.8	0.656
1018.58	0.4469
1027.36	0.199
1036.14	0.592
1044.92	0.651
1053.7	0.5011
1062.47	0.777
1071.25	0.788
1080.03	0.78
1088.81	0.76
1097.59	0.707
1106.37	0.662
1115.14	0.504
1123.92	0.5369
1132.7	0.2949
1141.48	0.4561
1150.26	0.618
1159.04	0.605
1167.81	0.601
1176.59	0.541
1185.37	0.491
1194.15	0.293
1202.93	0.401
1211.71	0.318
1220.48	0.155
1229.26	0.023
1238.04	0.035
1246.82	0.064
1255.6	0.2631
1264.38	0.392
1273.15	0.226
1281.93	0.1151
1290.71	0.228
1299.49	0.266
1308.27	0.394
1317.05	0.5261
1325.82	0.627
1334.6	0.604
1343.38	0.575
1352.16	0.582
1360.94	0.578
1369.72	0.4209
1378.49	0.3941
1387.27	0.649
1396.05	0.642
1404.83	0.708
1413.61	0.707
1422.39	0.659
1431.17	0.605
1439.94	0.545
1448.72	0.424
1457.5	0.479
1466.28	0.603
1475.06	0.608
1483.84	0.675
1492.61	0.638
1501.39	0.564
1510.17	0.4089
1518.95	0.2451
1527.73	0.5369
1536.51	0.3329
1545.28	0.329
1554.06	0.601
1562.84	0.729
1571.62	0.777
1580.4	0.762
1589.18	0.711
1597.95	0.585
1606.73	0.631
1615.51	0.5751
1624.29	0.618
1633.07	0.515
1641.85	0.381
1650.62	0.26
1659.4	0.138
1668.18	0.4351
1676.96	0.7431
1685.74	0.851
1694.52	0.832
1703.29	0.7119
1712.07	0.4279
1720.85	0.148
1729.63	0.4272
1738.41	0.695
1747.19	0.842
1755.96	0.965
1764.74	0.983
1773.52	0.986
1782.3	0.987
1791.08	0.987
1799.86	0.986
1808.63	0.98
1817.41	0.978
1826.19	0.976
1834.97	0.976
1843.75	0.975
1852.53	0.968
1861.3	0.961
1870.08	0.954
1878.86	0.943
1887.64	0.921
1896.42	0.947
1905.2	0.947
1913.97	0.947
1922.75	0.947
1931.53	0.947
1940.31	0.947
1949.09	0.946
1957.87	0.949
1966.65	0.935
1975.42	0.932
1984.2	0.932
1992.98	0.931
2001.76	0.931
2010.54	0.931
2019.32	0.931
2028.09	0.931
2036.87	0.931
2045.65	0.9291
2054.43	0.925
2063.21	0.923
2071.99	0.9201
2080.76	0.918
2089.54	0.9161
2098.32	0.912
2107.1	0.91
2115.88	0.909
2124.66	0.9032
2133.43	0.902
2142.21	0.898
2150.99	0.8942
2159.77	0.8912
2168.55	0.8872
2177.33	0.883
2186.1	0.881
2194.88	0.881
2203.66	0.883
2212.44	0.881
2221.22	0.8775
2230	0.876
2238.77	0.8705
2247.55	0.865
2256.33	0.8613
2265.11	0.857
2273.89	0.855
2282.67	0.853
2291.44	0.853
2300.22	0.853
2309	0.853
2317.78	0.8473
2326.56	0.843
2335.34	0.843
2344.11	0.844
2352.89	0.844
2361.67	0.844
2370.45	0.8434
2379.23	0.843
2388.01	0.8408
2396.78	0.8364
2405.56	0.8324
2414.34	0.829
2423.12	0.829
2431.9	0.8269
2440.68	0.825
2449.45	0.8215
2458.23	0.8189
2467.01	0.816
2475.79	0.813
2484.57	0.8085
2493.35	0.808
2502.12	0.8105
2510.9	0.815
2519.68	0.817
2528.46	0.817
2537.24	0.8145
2546.02	0.811
2554.8	0.8066
2563.57	0.7996
2572.35	0.793
2581.13	0.7838
2589.91	0.7736
2598.69	0.767
2607.47	0.7678
2616.24	0.77
2625.02	0.773
2633.8	0.773
2642.58	0.773
2651.36	0.7683
2660.14	0.7587
2668.91	0.7493
2677.69	0.7327
2686.47	0.726
2695.25	0.726
2704.03	0.726
2712.81	0.726
2721.58	0.7257
2730.36	0.722
2739.14	0.721
2747.92	0.721
2756.7	0.722
2765.48	0.721
2774.25	0.7178
2783.03	0.7096
2791.81	0.7022
2800.59	0.6914
2809.37	0.6729
2818.15	0.656
2826.92	0.6592
2835.7	0.6733
2844.48	0.675
2853.26	0.675
2862.04	0.6696
2870.82	0.662
2879.59	0.66
2888.37	0.6517
2897.15	0.6377
2905.93	0.6189
2914.71	0.618
2923.49	0.6179
2932.26	0.6089
2941.04	0.5968
2949.82	0.5849
2958.6	0.575
2967.38	0.582
2976.16	0.582
2984.93	0.578
2993.71	0.568
3002.49	0.556
3011.27	0.5421
3020.05	0.527
3028.83	0.527
3037.6	0.549
3046.38	0.5301
3055.16	0.528
3063.94	0.531
3072.72	0.5272
3081.5	0.5191
3090.28	0.516
3099.05	0.502
3107.83	0.4936
3116.61	0.4804
3125.39	0.4624
3134.17	0.4439
3142.95	0.4256
3151.72	0.4097
3160.5	0.401
3169.28	0.4028
3178.06	0.4058
3186.84	0.4168
3195.62	0.435
3204.39	0.4428
3213.17	0.4505
3221.95	0.4595
3230.73	0.4688
3239.51	0.4782
3248.29	0.4867
3257.06	0.49
3265.84	0.4947
3274.62	0.498
3283.4	0.4986
3292.18	0.4919
3300.96	0.4705
3309.73	0.4476
3318.51	0.4033
3327.29	0.2902
3336.07	0.2838
3344.85	0.4667
3353.63	0.539
3362.4	0.5325
3371.18	0.524
3379.96	0.5306
3388.74	0.5524
3397.52	0.5785
3406.3	0.5976
3415.07	0.6118
3423.85	0.6357
3432.63	0.6547
3441.41	0.6718
3450.19	0.6851
3458.97	0.692
3467.74	0.692
3476.52	0.69
3485.3	0.6815
3494.08	0.669
3502.86	0.6561
3511.64	0.6351
3520.41	0.6177
3529.19	0.577
3537.97	0.5206
3546.75	0.466
3555.53	0.4814
3564.31	0.5589
3573.08	0.6247
3581.86	0.67
3590.64	0.7083
3599.42	0.7425
3608.2	0.7775
3616.98	0.7891
3625.75	0.792
3634.53	0.791
3643.31	0.787
3652.09	0.7817
3660.87	0.7767
3669.65	0.7724
3678.43	0.769
3687.2	0.765
3695.98	0.759
3704.76	0.754
3713.54	0.752
3722.32	0.75
3731.1	0.7478
3739.87	0.744
3748.65	0.741
3757.43	0.7368
3766.21	0.7328
3774.99	0.729
3783.77	0.728
3792.54	0.7258
3801.32	0.723
