Infrared Spectrum: 2,3-Dichlorofluorobenzene
Formula: C 6 H 3 Cl 2 F
CAS: 36556-50-0
State: gas
Origin: EPA-IR VAPOR PHASE LIBRARY
1/CM	ABSORBANCE
549.8	0.0012946
559.445	0.003669
569.09	0.014019
578.734	0.017009
588.379	0.009479
598.024	0.002189
607.669	0.0011158
617.313	0.000312
626.958	0.000124
636.603	0.0004391
646.248	0.0003737
655.893	0.0007197
665.537	0.0008834
675.182	0.0014144
684.827	0.006209
694.472	0.010919
704.116	0.009209
713.761	0.005089
723.406	0.002329
733.051	0.007039
742.695	0.009309
752.34	0.010479
761.985	0.030269
771.63	0.066349
781.275	0.036659
790.919	0.014269
800.564	0.002959
810.209	0.001479
819.854	0.0012586
829.498	0.0011444
839.143	0.0011894
848.788	0.000932
858.433	0.0013994
868.078	0.003509
877.722	0.010399
887.367	0.035899
897.012	0.080629
906.657	0.083929
916.301	0.027939
925.946	0.008059
935.591	0.002449
945.236	0.001809
954.88	0.001649
964.525	0.001709
974.17	0.001529
983.815	0.0013599
993.46	0.002069
1003.1	0.003179
1012.75	0.003639
1022.39	0.002779
1032.04	0.003809
1041.68	0.009709
1051.33	0.016529
1060.97	0.014199
1070.62	0.004619
1080.26	0.001699
1089.91	0.003869
1099.55	0.006009
1109.2	0.006229
1118.84	0.004139
1128.49	0.002099
1138.13	0.002349
1147.78	0.003569
1157.42	0.004419
1167.07	0.003509
1176.71	0.009869
1186.36	0.016909
1196	0.013719
1205.64	0.003119
1215.29	0.001599
1224.93	0.001589
1234.58	0.002339
1244.22	0.006949
1253.87	0.028959
1263.51	0.060319
1273.16	0.054669
1282.8	0.014119
1292.45	0.004049
1302.09	0.001559
1311.74	0.0014145
1321.38	0.002069
1331.03	0.001889
1340.67	0.0011096
1350.32	0.0008095
1359.96	0.0009486
1369.61	0.0014196
1379.25	0.001969
1388.9	0.002509
1398.54	0.002829
1408.18	0.005799
1417.83	0.017899
1427.47	0.039199
1437.12	0.053399
1446.76	0.086949
1456.41	0.128559
1466.05	0.098539
1475.7	0.019719
1485.34	0.009249
1494.99	0.008389
1504.63	0.008279
1514.28	0.006469
1523.92	0.004689
1533.57	0.003909
1543.21	0.004959
1552.86	0.008439
1562.5	0.023269
1572.15	0.054789
1581.79	0.070029
1591.44	0.027219
1601.08	0.005409
1610.73	0.001959
1620.37	0.002149
1630.01	0.002819
1639.66	0.003509
1649.3	0.003679
1658.95	0.002539
1668.59	0.0014176
1678.24	0.0010561
1687.88	0.000951
1697.53	0.0009093
1707.17	0.0006858
1716.82	0.0008923
1726.46	0.001033
1736.11	0.0010034
1745.75	0.001469
1755.4	0.002169
1765.04	0.001969
1774.69	0.0009469
1784.33	0.0006626
1793.98	0.0006824
1803.62	0.0006059
1813.27	0.0006644
1822.91	0.0014143
1832.55	0.002679
1842.2	0.002519
1851.84	0.0011967
1861.49	0.0005907
1871.13	0.00048674
1880.78	0.00051699
1890.42	0.0007193
1900.07	0.0014027
1909.71	0.002749
1919.36	0.002659
1929	0.0014261
1938.65	0.0004426
1948.29	0.0004358
1957.94	0.0003895
1967.58	0.000345
1977.23	0.0003725
1986.87	0.00036
1996.52	0.00050757
2006.16	0.00049085
2015.81	0.00051457
2025.45	0.0006385
2035.1	0.0006352
2044.74	0.00047503
2054.38	0.000353
2064.03	0.000333
2073.67	0.000319
2083.32	0.0004063
2092.96	0.000358
2102.61	0.000335
2112.25	0.000294
2121.9	0.00035
2131.54	0.00045559
2141.19	0.0006069
2150.83	0.001148
2160.48	0.0014151
2170.12	0.0013526
2179.77	0.0008865
2189.41	0.00054832
2199.06	0.0003735
2208.7	0.0003621
2218.35	0.000331
2227.99	0.000284
2237.64	0.00024
2247.28	0.000329
2256.92	0.0003607
2266.57	0.0004097
2276.21	0.000343
2285.86	0.000281
2295.5	0.0005847
2305.15	0.0007855
2314.79	0.0006952
2324.44	0.0007066
2334.08	0.0007196
2343.73	0.0007609
2353.37	0.0008872
2363.02	0.0009704
2372.66	0.0006951
2382.31	0.0005717
2391.95	0.000462544
2401.6	0.0003899
2411.24	0.0003713
2420.89	0.000358
2430.53	0.000446
2440.18	0.0004319
2449.82	0.0005704
2459.47	0.00053947
2469.11	0.000724
2478.75	0.0006267
2488.4	0.0006304
2498.04	0.000717
2507.69	0.000845
2517.33	0.0012239
2526.98	0.001669
2536.62	0.001609
2546.27	0.0008756
2555.91	0.0006092
2565.56	0.0004412
2575.2	0.000291
2584.85	0.00045231
2594.49	0.0004014
2604.14	0.0003979
2613.78	0.0004439
2623.43	0.000418
2633.07	0.0004078
2642.72	0.0003708
2652.36	0.000273
2662.01	0.000226
2671.65	0.0003835
2681.29	0.0004326
2690.94	0.00045197
2700.58	0.0004834
2710.23	0.0007295
2719.87	0.0008182
2729.52	0.0005881
2739.16	0.00048411
2748.81	0.000319
2758.45	0.000199
2768.1	0.000329
2777.74	0.000297
2787.39	0.000233
2797.03	0.000224
2806.68	0.000306
2816.32	0.00027
2825.97	0.000316
2835.61	0.0003742
2845.26	0.0004167
2854.9	0.000288
2864.55	0.0003934
2874.19	0.000195
2883.84	0.000183
2893.48	0.000326
2903.12	0.00028
2912.77	0.000233
2922.41	0.000203
2932.06	1.3e-05
2941.7	0.000169
2951.35	0.000263
2960.99	0.00036
2970.64	0.0003979
2980.28	0.000445
2989.93	0.0004289
2999.57	0.000648
3009.22	0.0008158
3018.86	0.0010974
3028.51	0.0009952
3038.15	0.0006325
3047.8	0.0006357
3057.44	0.001113
3067.09	0.002549
3076.73	0.005039
3086.38	0.005349
3096.02	0.003429
3105.67	0.0010743
3115.31	0.00048509
3124.95	0.00048372
3134.6	0.00044909
3144.24	0.0005754
3153.89	0.0008095
3163.53	0.0006241
3173.18	0.000460278
3182.82	0.000312
3192.47	0.000109
3202.11	0.000332
3211.76	0.000276
3221.4	0.000187
3231.05	0.0003641
3240.69	0.00047376
3250.34	0.000337
3259.98	0.000235
3269.63	0.000183
3279.27	0.000207
3288.92	0.0003722
3298.56	0.00047238
3308.21	0.00026
3317.85	0.0004429
3327.49	0.00028
3337.14	0.0004219
3346.78	0.000337
3356.43	0.0004193
3366.07	0.000172
3375.72	0.000145
3385.36	0.0004158
3395.01	0.000271
3404.65	0.00052473
3414.3	0.000331
3423.94	0.000323
3433.59	0.000326
3443.23	0.00048474
3452.88	0.000299
3462.52	0.00045569
3472.17	0.000245
3481.81	0.0005753
3491.46	0.00050062
3501.1	0.000344
3510.75	0.000313
3520.39	0.000346
3530.04	0.000239
3539.68	0.0005862
3549.32	0.000358
3558.97	0.0006871
3568.61	0.0005016
3578.26	0.00051081
3587.9	0.000335
3597.55	0.00049709
3607.19	0.0006213
3616.84	0.000241
3626.48	0.000216
3636.13	0.00047791
3645.77	0.00051421
3655.42	0.0003993
3665.06	0.0006641
3674.71	0.00050282
3684.35	0.0004227
3694	0.000357
3703.64	0.00053999
3713.29	0.00054663
3722.93	0.000331
3732.58	0.000344
3742.22	0.00049312
3751.86	0.0005644
3761.51	0.00051177
3771.15	0.000346
3780.8	0.0006612
3790.44	0.0004533
3800.09	0.0006915
3809.73	0.0007653
3819.38	0.0007397
3829.02	0.0007404
3838.67	0.00053453
3848.31	0.00050866
3857.96	0.0004272
3867.6	0.0006045
3877.25	0.0003791
3886.89	0.00050593
3896.54	0.000224
3906.18	0.0006342
3915.83	0.0004418
3925.47	0.0003912
3935.12	0.000154
3944.76	0.000299
3954.41	0.000463254
3964.05	0.0005608
3973.69	0.0006047
3983.34	0.0008278
3992.98	0.0004262
