Infrared Spectrum: 3-Oxa-A-nor-5Alpha-androstane-2-one, 5,17Beta-dihydroxy-,
Formula: C17 H26 O4
CAS: 3656-95-9
State: SOLID (KBr DISC)
Class: COBLENTZ III
Instrument: PERKIN-ELMER 21 (GRATING)
Resolution: 2
Origin: THE SQUIBB INSTITUTE FOR MEDICAL RESEARCH
1/CM	TRANSMITTANCE
667	0.7352
676	0.7613
685	0.7513
694	0.6849
703	0.7964
712	0.8041
721	0.7922
730	0.7771
739	0.6812
748	0.7289
757	0.8211
766	0.8436
775	0.8568
784	0.8726
793	0.8692
802	0.8428
811	0.812
820	0.8111
829	0.8633
838	0.892
847	0.8766
856	0.8346
865	0.8475
874	0.7918
883	0.5181
892	0.6342
901	0.5764
910	0.3446
919	0.2949
928	0.6197
937	0.6946
946	0.8013
955	0.7582
964	0.6556
973	0.8188
982	0.8217
991	0.7769
1000	0.5641
1009	0.5546
1018	0.5825
1027	0.5145
1036	0.3611
1045	0.3269
1054	0.5508
1063	0.5211
1072	0.4236
1081	0.6231
1090	0.6266
1099	0.519
1108	0.4062
1117	0.4656
1126	0.4286
1135	0.2692
1144	0.3547
1153	0.6058
1162	0.7071
1171	0.6465
1180	0.5894
1189	0.578
1198	0.5624
1207	0.4907
1216	0.557
1225	0.5592
1234	0.5097
1243	0.3661
1252	0.3432
1261	0.3545
1270	0.4592
1279	0.5885
1288	0.5659
1297	0.5605
1306	0.6278
1315	0.6725
1324	0.6878
1333	0.6921
1342	0.702
1351	0.6769
1360	0.6329
1369	0.621
1378	0.6196
1387	0.6486
1396	0.6305
1405	0.5905
1414	0.5621
1423	0.5861
1432	0.5513
1441	0.5039
1450	0.508
1459	0.6108
1468	0.6331
1477	0.7676
1486	0.8371
1495	0.8551
1504	0.8644
1513	0.8695
1522	0.8705
1531	0.8696
1540	0.8679
1549	0.8643
1558	0.8608
1567	0.8652
1576	0.8653
1585	0.8618
1594	0.8546
1603	0.8424
1612	0.8254
1621	0.8112
1630	0.7994
1639	0.79
1648	0.7837
1657	0.7794
1666	0.7678
1675	0.7394
1684	0.7001
1693	0.6333
1702	0.5482
1711	0.3966
1720	0.2144
1729	0.1609
1738	0.1381
1747	0.1379
1756	0.1456
1765	0.2272
1774	0.385
1783	0.4772
1792	0.5573
1801	0.8161
1810	0.8531
1819	0.8673
1828	0.879
1837	0.8905
1846	0.9068
1855	0.9191
1864	0.9254
1873	0.9319
1882	0.9413
1891	0.9413
1900	0.941
1909	0.9403
1918	0.9396
1927	0.9394
1936	0.9394
1945	0.9395
1954	0.9396
1963	0.9397
1972	0.9398
1981	0.9397
1990	0.9395
1999	0.9392
2008	0.939
2017	0.939
2026	0.9392
2035	0.9394
2044	0.9395
2053	0.9398
2062	0.9399
2071	0.9401
2080	0.94
2089	0.9399
2098	0.9399
2107	0.9398
2116	0.939
2125	0.9382
2134	0.9374
2143	0.9366
2152	0.9358
2161	0.935
2170	0.9344
2179	0.9336
2188	0.9329
2197	0.9321
2206	0.9314
2215	0.9307
2224	0.9298
2233	0.9287
2242	0.9277
2251	0.9266
2260	0.9255
2269	0.9244
2278	0.9229
2287	0.9206
2296	0.9185
2305	0.9165
2314	0.9148
2323	0.9157
2332	0.9169
2341	0.9181
2350	0.9191
2359	0.9205
2368	0.9224
2377	0.9231
2386	0.9233
2395	0.9224
2404	0.9214
2413	0.9194
2422	0.917
2431	0.914
2440	0.9109
2449	0.9078
2458	0.9052
2467	0.9028
2476	0.9005
2485	0.8982
2494	0.8958
2503	0.8935
2512	0.8912
2521	0.8889
2530	0.8866
2539	0.8844
2548	0.8821
2557	0.8796
2566	0.8772
2575	0.875
2584	0.8726
2593	0.87
2602	0.8664
2611	0.863
2620	0.8596
2629	0.8562
2638	0.8528
2647	0.8494
2656	0.846
2665	0.8427
2674	0.8395
2683	0.835
2692	0.8305
2701	0.8259
2710	0.82
2719	0.8128
2728	0.8056
2737	0.7965
2746	0.7871
2755	0.7742
2764	0.7591
2773	0.7419
2782	0.7155
2791	0.6776
2800	0.6213
2809	0.5253
2818	0.4747
2827	0.4246
2836	0.3916
2845	0.3761
2854	0.3648
2863	0.3555
2872	0.3504
2881	0.3473
2890	0.344
2899	0.3412
2908	0.3391
2917	0.3409
2926	0.343
2935	0.3526
2944	0.4044
2953	0.4757
2962	0.5467
2971	0.6171
2980	0.6873
2989	0.7263
2998	0.7292
3007	0.7289
3016	0.7229
3025	0.7081
3034	0.6934
3043	0.6788
3052	0.6643
3061	0.6498
3070	0.6354
3079	0.6212
3088	0.607
3097	0.5928
3106	0.5786
3115	0.5619
3124	0.5509
3133	0.5399
3142	0.5293
3151	0.5189
3160	0.5074
3169	0.4956
3178	0.4885
3187	0.482
3196	0.4758
3205	0.4709
3214	0.466
3223	0.4611
3232	0.4563
3241	0.4513
3250	0.4463
3259	0.4399
3268	0.4326
3277	0.4251
3286	0.4172
3295	0.4093
3304	0.4013
3313	0.3931
3322	0.3849
3331	0.3761
3340	0.3654
3349	0.3512
3358	0.3467
3367	0.3457
3376	0.3456
3385	0.346
3394	0.3474
3403	0.3499
3412	0.3529
3421	0.3572
3430	0.3615
3439	0.3664
3448	0.3715
3457	0.3758
3466	0.3785
3475	0.3802
3484	0.3812
3493	0.3821
3502	0.3833
3511	0.3897
3520	0.4114
3529	0.4363
3538	0.4757
3547	0.5184
3556	0.5609
3565	0.6031
3574	0.6409
3583	0.6803
3592	0.7633
3601	0.7841
3610	0.8
3619	0.8115
3628	0.822
3637	0.8293
3646	0.8337
3655	0.8381
3664	0.8397
3673	0.8414
3682	0.8426
3691	0.8435
3700	0.8443
3709	0.8452
3718	0.8453
3727	0.8452
3736	0.8451
3745	0.845
3754	0.8449
3763	0.8448
3772	0.8446
3781	0.8444
3790	0.8441
3799	0.8436
3808	0.843
3817	0.8424
3826	0.8418
3835	0.8412
3844	0.8406
3853	0.8401
3862	0.8395
3871	0.8389
3880	0.8383
3889	0.8378
3898	0.8372
3907	0.8366
3916	0.8361
3925	0.8355
3934	0.8349
3943	0.8345
3952	0.8339
3961	0.8333
3970	0.8327
3979	0.8322
3988	0.8317
3997	0.8311
