Infrared Spectrum: p-CHLOROBENZOIC ACID, 2-p-CHLOROPHENYL HYDRAZIDE
Formula: C13 H10 Cl2 N2 O
CAS: 36586-31-9
State: SOLID (MINERAL OIL MULL)
Class: COBLENTZ
Instrument: Not specified, most likely a prism, grating, or hybrid spectrometer.
Sampling: TRANSMISSION
Resolution: 4
Origin: DOW CHEMICAL COMPANY
MICROMETERS	TRANSMITTANCE
2.021	0.614
2.06209	0.617
2.10319	0.627
2.14428	0.633
2.18538	0.634
2.22647	0.634
2.26757	0.629
2.30866	0.634
2.34975	0.646
2.39085	0.655
2.43194	0.662
2.47304	0.679
2.51413	0.684
2.55522	0.689
2.59632	0.701
2.63741	0.704
2.67851	0.713
2.7196	0.715
2.7607	0.715
2.80179	0.716
2.84288	0.708
2.88398	0.697
2.92507	0.643
2.96617	0.549
3.00726	0.453
3.04836	0.269
3.08945	0.358
3.13054	0.498
3.17164	0.542
3.21273	0.54
3.25383	0.496
3.29492	0.462
3.33602	0.271
3.37711	0.023
3.4182	0.066
3.4593	0.116
3.50039	0.505
3.54149	0.67
3.58258	0.709
3.62367	0.723
3.66477	0.726
3.70586	0.738
3.74696	0.74
3.78805	0.749
3.82915	0.754
3.87024	0.762
3.91133	0.778
3.95243	0.788
3.99352	0.793
4.03462	0.795
4.07571	0.8
4.11681	0.802
4.1579	0.798
4.19899	0.798
4.24009	0.817
4.28118	0.824
4.32228	0.822
4.36337	0.824
4.40446	0.829
4.44556	0.829
4.48665	0.832
4.52775	0.832
4.56884	0.834
4.60994	0.836
4.65103	0.839
4.69212	0.843
4.73322	0.844
4.77431	0.846
4.81541	0.843
4.8565	0.841
4.8976	0.841
4.93869	0.839
4.97978	0.843
5.02088	0.843
5.06197	0.837
5.10307	0.827
5.14416	0.822
5.18526	0.819
5.22635	0.819
5.26744	0.817
5.30854	0.805
5.34963	0.831
5.39073	0.832
5.43182	0.831
5.47291	0.831
5.51401	0.825
5.5551	0.827
5.5962	0.831
5.63729	0.82
5.67839	0.81
5.71948	0.808
5.76057	0.781
5.80167	0.726
5.84276	0.665
5.88386	0.605
5.92495	0.539
5.96605	0.337
6.00714	0.141
6.04823	0.143
6.08933	0.266
6.13042	0.493
6.17152	0.554
6.21261	0.423
6.2537	0.332
6.2948	0.59
6.33589	0.619
6.37699	0.569
6.41808	0.459
6.45918	0.38
6.50027	0.341
6.54136	0.453
6.58246	0.54
6.62355	0.552
6.66465	0.317
6.70574	0.18
6.74684	0.39
6.78793	0.24
6.82902	0.196
6.87012	0.317
6.91121	0.47
6.95231	0.575
6.9934	0.604
7.0345	0.602
7.07559	0.576
7.11668	0.544
7.15778	0.539
7.19887	0.462
7.23997	0.399
7.28106	0.457
7.32215	0.505
7.36325	0.511
7.40434	0.496
7.44544	0.431
7.48653	0.438
7.52763	0.465
7.56872	0.477
7.60981	0.501
7.65091	0.438
7.692	0.491
7.7331	0.45
7.77419	0.47
7.81529	0.529
7.85638	0.563
7.89747	0.564
7.93857	0.523
7.97966	0.472
8.02076	0.46
8.06185	0.517
8.10294	0.621
8.14404	0.668
8.18513	0.682
8.22623	0.677
8.26732	0.711
8.30842	0.732
8.34951	0.74
8.3906	0.74
8.4317	0.733
8.47279	0.704
8.51389	0.687
8.55498	0.747
8.59608	0.757
8.63717	0.762
8.67826	0.762
8.71936	0.764
8.76045	0.769
8.80155	0.773
8.84264	0.764
8.88374	0.711
8.92483	0.638
8.96592	0.616
9.00702	0.564
9.04811	0.486
9.08921	0.343
9.1303	0.255
9.17139	0.513
9.21249	0.622
9.25358	0.655
9.29468	0.679
9.33577	0.701
9.37687	0.723
9.41796	0.735
9.45905	0.745
9.50015	0.759
9.54124	0.778
9.58234	0.788
9.62343	0.79
9.66453	0.793
9.70562	0.795
9.74671	0.795
9.78781	0.767
9.8289	0.624
9.87	0.53
9.91109	0.696
9.95218	0.723
9.99328	0.783
10.0344	0.802
10.0755	0.81
10.1166	0.81
10.1577	0.808
10.1988	0.803
10.2398	0.796
10.2809	0.793
10.322	0.793
10.3631	0.798
10.4042	0.798
10.4453	0.786
10.4864	0.783
10.5275	0.779
10.5686	0.781
10.6097	0.788
10.6508	0.781
10.6919	0.781
10.733	0.786
10.7741	0.781
10.8152	0.771
10.8563	0.752
10.8974	0.723
10.9384	0.668
10.9795	0.595
11.0206	0.535
11.0617	0.52
11.1028	0.549
11.1439	0.61
11.185	0.675
11.2261	0.723
11.2672	0.761
11.3083	0.79
11.3494	0.8
11.3905	0.81
11.4316	0.813
11.4727	0.81
11.5138	0.803
11.5549	0.779
11.596	0.737
11.637	0.67
11.6781	0.542
11.7192	0.445
11.7603	0.435
11.8014	0.482
11.8425	0.576
11.8836	0.639
11.9247	0.65
11.9658	0.634
12.0069	0.609
12.048	0.535
12.0891	0.392
12.1302	0.259
12.1713	0.228
12.2124	0.315
12.2535	0.407
12.2946	0.494
12.3356	0.65
12.3767	0.735
12.4178	0.776
12.4589	0.796
12.5	0.805
12.5411	0.815
12.5822	0.822
12.6233	0.822
12.6644	0.819
12.7055	0.817
12.7466	0.815
12.7877	0.8
12.8288	0.788
12.8699	0.773
12.911	0.742
12.9521	0.703
12.9932	0.646
13.0343	0.609
13.0753	0.604
13.1164	0.622
13.1575	0.646
13.1986	0.663
13.2397	0.677
13.2808	0.68
13.3219	0.682
13.363	0.677
13.4041	0.677
13.4452	0.668
13.4863	0.633
13.5274	0.583
13.5685	0.554
13.6096	0.569
13.6507	0.598
13.6918	0.614
13.7329	0.612
13.7739	0.6
13.815	0.578
13.8561	0.563
13.8972	0.549
13.9383	0.537
13.9794	0.525
14.0205	0.522
14.0616	0.522
14.1027	0.529
14.1438	0.535
14.1849	0.544
14.226	0.551
14.2671	0.552
14.3082	0.552
14.3493	0.552
14.3904	0.558
14.4315	0.566
14.4725	0.575
14.5136	0.581
14.5547	0.581
14.5958	0.581
14.6369	0.578
14.678	0.569
14.7191	0.558
14.7602	0.544
14.8013	0.527
14.8424	0.508
14.8835	0.496
14.9246	0.472
14.9657	0.45
15.0068	0.43
15.0479	0.409
15.089	0.394
15.1301	0.387
15.1712	0.378
15.2122	0.37
15.2533	0.366
15.2944	0.361
15.3355	0.354
15.3766	0.348
15.4177	0.343
15.4588	0.337
15.4999	0.336
15.541	0.334
15.5821	0.334
15.6232	0.336
15.6643	0.339
15.7054	0.344
15.7465	0.349
15.7876	0.353
15.8287	0.356
15.8698	0.36
