Infrared Spectrum: PHOSPHORAMIDODICHLORIDIC ACID, N-METHYL-
Formula: C H4 Cl2 N O P
CAS: 36598-86-4
State: SOLUTION (10% IN CCl4 FOR 3800-1333, 10% IN CS2 FOR 1333-430 CM^-^1)
Class: COBLENTZ III
Instrument: DOW KBr FOREPRISM-GRATING
Instrument parameters: BLAZED AT 3.5, 12.0, 20.0 MICRON, CHANGED AT 5.0, 7.5, 14.9 MICRON
Sampling: TRANSMISSION
Path length: 0.011, 0.011 CM
Resolution: 4
Origin: DOW CHEMICAL COMPANY
1/CM	TRANSMITTANCE
423.951	0.619
432.692	0.618
441.434	0.633
450.175	0.668
458.916	0.687
467.657	0.694
476.399	0.691
485.14	0.661
493.881	0.529
502.622	0.103
511.364	0.064
520.105	0.336
528.846	0.282
537.587	0.154
546.329	0.076
555.07	0.035
563.811	0.015
572.553	0.017
581.294	0.016
590.035	0.02
598.776	0.038
607.518	0.073
616.259	0.15
625	0.227
633.741	0.319
642.483	0.41
651.224	0.504
659.965	0.583
668.706	0.678
677.448	0.717
686.189	0.777
694.93	0.804
703.672	0.826
712.413	0.836
721.154	0.849
729.895	0.871
738.637	0.889
747.378	0.896
756.119	0.893
764.86	0.886
773.602	0.877
782.343	0.86
791.084	0.84
799.825	0.824
808.567	0.799
817.308	0.762
826.049	0.683
834.791	0.497
843.532	0.255
852.273	0.046
861.014	0.043
869.756	0.211
878.497	0.5
887.238	0.709
895.979	0.803
904.721	0.839
913.462	0.844
922.203	0.848
930.944	0.849
939.686	0.845
948.427	0.841
957.168	0.832
965.91	0.819
974.651	0.809
983.392	0.811
992.133	0.804
1000.87	0.811
1009.62	0.813
1018.36	0.813
1027.1	0.815
1035.84	0.826
1044.58	0.821
1053.32	0.81
1062.06	0.795
1070.8	0.751
1079.55	0.631
1088.29	0.538
1097.03	0.432
1105.77	0.309
1114.51	0.151
1123.25	0.096
1131.99	0.248
1140.73	0.473
1149.48	0.686
1158.22	0.777
1166.96	0.8
1175.7	0.799
1184.44	0.814
1193.18	0.822
1201.92	0.81
1210.67	0.778
1219.41	0.729
1228.15	0.663
1236.89	0.566
1245.63	0.412
1254.37	0.174
1263.11	0.004
1271.85	0.009
1280.6	0.107
1289.34	0.354
1298.08	0.563
1306.82	0.676
1315.56	0.788
1324.3	0.814
1333.04	0.825
1341.78	0.829
1350.53	0.821
1359.27	0.784
1368.01	0.727
1376.75	0.633
1385.49	0.551
1394.23	0.484
1402.97	0.388
1411.71	0.226
1420.46	0.186
1429.2	0.361
1437.94	0.264
1446.68	0.544
1455.42	0.575
1464.16	0.568
1472.9	0.564
1481.64	0.639
1490.39	0.706
1499.13	0.724
1507.87	0.706
1516.61	0.682
1525.35	0.643
1534.09	0.59
1542.83	0.492
1551.57	0.443
1560.32	0.5
1569.06	0.56
1577.8	0.634
1586.54	0.673
1595.28	0.738
1604.02	0.817
1612.76	0.889
1621.5	0.918
1630.25	0.934
1638.99	0.944
1647.73	0.953
1656.47	0.954
1665.21	0.957
1673.95	0.96
1682.69	0.963
1691.43	0.967
1700.18	0.964
1708.92	0.969
1717.66	0.974
1726.4	0.975
1735.14	0.976
1743.88	0.976
1752.62	0.979
1761.36	0.983
1770.11	0.984
1778.85	0.986
1787.59	0.984
1796.33	0.986
1805.07	0.987
1813.81	0.986
1822.55	0.986
1831.29	0.987
1840.04	0.986
1848.78	0.986
1857.52	0.987
1866.26	0.987
1875	0.987
1883.74	0.987
1892.48	0.989
1901.23	0.987
1909.97	0.987
1918.71	0.983
1927.45	0.983
1936.19	0.982
1944.93	0.978
1953.67	0.975
1962.41	0.972
1971.16	0.965
1979.9	0.961
1988.64	0.967
1997.38	0.972
2006.12	0.9795
2014.86	0.986
2023.6	0.989
2032.34	0.99
2041.09	0.992
2049.83	0.99
2058.57	0.988
2067.31	0.987
2076.05	0.987
2084.79	0.987
2093.53	0.9825
2102.27	0.978
2111.02	0.983
2119.76	0.9825
2128.5	0.98
2137.24	0.982
2145.98	0.982
2154.72	0.983
2163.46	0.9836
2172.2	0.9836
2180.95	0.983
2189.69	0.9824
2198.43	0.983
2207.17	0.9807
2215.91	0.9771
2224.65	0.976
2233.39	0.9732
2242.13	0.971
2250.88	0.9636
2259.62	0.9566
2268.36	0.953
2277.1	0.948
2285.84	0.944
2294.58	0.9444
2303.32	0.946
2312.06	0.9494
2320.81	0.9524
2329.55	0.9564
2338.29	0.96
2347.03	0.961
2355.77	0.963
2364.51	0.964
2373.25	0.965
2381.99	0.971
2390.74	0.974
2399.48	0.976
2408.22	0.976
2416.96	0.976
2425.7	0.976
2434.44	0.976
2443.18	0.975
2451.92	0.971
2460.67	0.971
2469.41	0.9647
2478.15	0.959
2486.89	0.9527
2495.63	0.948
2504.37	0.9404
2513.11	0.9363
2521.86	0.929
2530.6	0.921
2539.34	0.9134
2548.08	0.9096
2556.82	0.9113
2565.56	0.915
2574.3	0.9193
2583.04	0.922
2591.79	0.922
2600.53	0.9223
2609.27	0.9279
2618.01	0.933
2626.75	0.934
2635.49	0.937
2644.23	0.935
2652.97	0.9337
2661.72	0.9255
2670.46	0.9227
2679.2	0.92
2687.94	0.916
2696.68	0.918
2705.42	0.922
2714.16	0.924
2722.9	0.9237
2731.65	0.9198
2740.39	0.916
2749.13	0.914
2757.87	0.9065
2766.61	0.8985
2775.35	0.8818
2784.09	0.8613
2792.83	0.8224
2801.58	0.7792
2810.32	0.7079
2819.06	0.5934
2827.8	0.5207
2836.54	0.6159
2845.28	0.6541
2854.02	0.7037
2862.76	0.7388
2871.51	0.743
2880.25	0.7392
2888.99	0.7196
2897.73	0.6914
2906.47	0.6948
2915.21	0.675
2923.95	0.6229
2932.69	0.5749
2941.44	0.5205
2950.18	0.5809
2958.92	0.6845
2967.66	0.6844
2976.4	0.696
2985.14	0.7242
2993.88	0.7248
3002.62	0.724
3011.37	0.7322
3020.11	0.736
3028.85	0.7318
3037.59	0.7235
3046.33	0.7054
3055.07	0.6786
3063.81	0.644
3072.55	0.6026
3081.3	0.5651
3090.04	0.5232
3098.78	0.472
3107.52	0.4196
3116.26	0.3648
3125	0.3075
3133.74	0.2378
3142.48	0.182
3151.23	0.117
3159.97	0.0762
3168.71	0.0505
3177.45	0.0297
3186.19	0.0209
3194.93	0.02
3203.67	0.02
3212.42	0.0241
3221.16	0.0342
3229.9	0.0494
3238.64	0.0735
3247.38	0.1118
3256.12	0.1587
3264.86	0.1993
3273.6	0.2423
3282.35	0.2878
3291.09	0.3289
3299.83	0.3728
3308.57	0.423
3317.31	0.4957
3326.05	0.5568
3334.79	0.6388
3343.53	0.6995
3352.28	0.7445
3361.02	0.7893
3369.76	0.8253
3378.5	0.8511
3387.24	0.856
3395.98	0.8449
3404.72	0.7957
3413.46	0.8145
3422.21	0.8933
3430.95	0.9521
3439.69	0.9751
3448.43	0.983
3457.17	0.987
3465.91	0.989
3474.65	0.99
3483.39	0.991
3492.14	0.991
3500.88	0.995
3509.62	0.995
3518.36	0.993
3527.1	0.995
3535.84	0.998
3544.58	0.995
3553.32	0.991
3562.07	0.997
3570.81	0.997
3579.55	0.9951
3588.29	0.9929
3597.03	0.997
3605.77	0.991
3614.51	1.001
3623.25	0.9931
3632	0.994
3640.74	0.995
3649.48	0.99
3658.22	0.9969
3666.96	0.9941
3675.7	0.99
3684.44	0.9901
3693.18	0.9861
3701.93	0.986
3710.67	0.9928
3719.41	0.991
3728.15	0.993
3736.89	0.989
3745.63	0.9928
3754.37	0.993
3763.11	0.99
3771.86	0.989
3780.6	0.993
3789.34	0.991
3798.08	0.989
