Infrared Spectrum: Ethyl 2,6-dimethylbenzoate
Formula: C 11 H 14 O 2
CAS: 36596-67-5
State: gas
Origin: EPA-IR VAPOR PHASE LIBRARY
1/CM	ABSORBANCE
549.8	0.0009507
559.445	0.001763
569.09	0.004233
578.734	0.009203
588.379	0.005263
598.024	0.0016396
607.669	0.0008379
617.313	0.0008978
626.958	0.0009357
636.603	0.0016403
646.248	0.0016529
655.893	0.002223
665.537	0.002293
675.182	0.003013
684.827	0.004533
694.472	0.005423
704.116	0.009033
713.761	0.016263
723.406	0.020803
733.051	0.025963
742.695	0.031093
752.34	0.040773
761.985	0.095803
771.63	0.100953
781.275	0.041463
790.919	0.015743
800.564	0.009843
810.209	0.007773
819.854	0.007433
829.498	0.008253
839.143	0.012233
848.788	0.016073
858.433	0.014643
868.078	0.012573
877.722	0.009623
887.367	0.005363
897.012	0.004973
906.657	0.004543
916.301	0.004963
925.946	0.004953
935.591	0.005183
945.236	0.005533
954.88	0.006283
964.525	0.007443
974.17	0.008433
983.815	0.010253
993.46	0.014003
1003.1	0.019993
1012.75	0.028333
1022.39	0.032003
1032.04	0.030313
1041.68	0.034223
1051.33	0.063013
1060.97	0.169073
1070.62	0.347043
1080.26	0.319033
1089.91	0.174693
1099.55	0.177663
1109.2	0.286373
1118.84	0.228463
1128.49	0.097353
1138.13	0.052453
1147.78	0.037673
1157.42	0.034603
1167.07	0.035013
1176.71	0.030963
1186.36	0.025503
1196	0.024783
1205.64	0.027653
1215.29	0.048373
1224.93	0.096843
1234.58	0.206723
1244.22	0.336993
1253.87	0.450553
1263.51	0.456663
1273.16	0.232563
1282.8	0.101233
1292.45	0.058983
1302.09	0.045473
1311.74	0.034683
1321.38	0.025913
1331.03	0.020743
1340.67	0.018113
1350.32	0.018793
1359.96	0.028223
1369.61	0.037563
1379.25	0.035393
1388.9	0.036533
1398.54	0.031543
1408.18	0.029523
1417.83	0.036313
1427.47	0.047773
1437.12	0.051353
1446.76	0.054973
1456.41	0.067923
1466.05	0.076763
1475.7	0.066103
1485.34	0.044213
1494.99	0.028723
1504.63	0.021993
1514.28	0.019123
1523.92	0.018653
1533.57	0.018913
1543.21	0.017193
1552.86	0.016353
1562.5	0.017263
1572.15	0.022153
1581.79	0.032853
1591.44	0.042603
1601.08	0.029303
1610.73	0.014483
1620.37	0.010513
1630.01	0.009773
1639.66	0.010663
1649.3	0.012843
1658.95	0.013393
1668.59	0.012963
1678.24	0.015033
1687.88	0.021283
1697.53	0.033163
1707.17	0.048073
1716.82	0.070723
1726.46	0.148153
1736.11	0.347973
1745.75	0.427633
1755.4	0.195533
1765.04	0.065993
1774.69	0.037043
1784.33	0.021853
1793.98	0.015143
1803.62	0.012173
1813.27	0.010373
1822.91	0.008323
1832.55	0.007343
1842.2	0.007643
1851.84	0.007783
1861.49	0.006363
1871.13	0.004883
1880.78	0.004503
1890.42	0.004573
1900.07	0.004753
1909.71	0.005363
1919.36	0.007303
1929	0.009743
1938.65	0.008253
1948.29	0.005363
1957.94	0.004493
1967.58	0.003883
1977.23	0.003593
1986.87	0.003213
1996.52	0.002853
2006.16	0.002493
2015.81	0.002423
2025.45	0.002433
2035.1	0.002443
2044.74	0.002333
2054.38	0.002353
2064.03	0.002693
2073.67	0.003043
2083.32	0.003413
2092.96	0.003743
2102.61	0.003763
2112.25	0.003773
2121.9	0.003313
2131.54	0.002873
2141.19	0.002453
2150.83	0.002383
2160.48	0.002223
2170.12	0.002323
2179.77	0.002163
2189.41	0.001993
2199.06	0.001973
2208.7	0.001893
2218.35	0.002053
2227.99	0.001953
2237.64	0.002343
2247.28	0.002213
2256.92	0.002193
2266.57	0.002223
2276.21	0.001993
2285.86	0.002163
2295.5	0.002123
2305.15	0.002523
2314.79	0.002853
2324.44	0.003173
2334.08	0.003573
2343.73	0.003263
2353.37	0.003013
2363.02	0.002763
2372.66	0.002923
2382.31	0.002623
2391.95	0.002553
2401.6	0.002753
2411.24	0.002493
2420.89	0.002453
2430.53	0.002203
2440.18	0.002103
2449.82	0.002313
2459.47	0.002103
2469.11	0.002213
2478.75	0.002183
2488.4	0.002393
2498.04	0.002303
2507.69	0.002333
2517.33	0.001983
2526.98	0.002093
2536.62	0.001853
2546.27	0.001803
2555.91	0.001913
2565.56	0.001693
2575.2	0.0015649
2584.85	0.001783
2594.49	0.001753
2604.14	0.002023
2613.78	0.001943
2623.43	0.002273
2633.07	0.002133
2642.72	0.002083
2652.36	0.0015985
2662.01	0.001803
2671.65	0.002063
2681.29	0.002073
2690.94	0.002123
2700.58	0.002273
2710.23	0.002653
2719.87	0.003233
2729.52	0.003423
2739.16	0.004693
2748.81	0.005803
2758.45	0.005313
2768.1	0.004573
2777.74	0.004083
2787.39	0.004133
2797.03	0.004833
2806.68	0.005553
2816.32	0.007323
2825.97	0.008613
2835.61	0.010703
2845.26	0.014333
2854.9	0.019453
2864.55	0.027473
2874.19	0.036493
2883.84	0.042933
2893.48	0.042903
2903.12	0.045013
2912.77	0.051313
2922.41	0.062803
2932.06	0.089123
2941.7	0.106693
2951.35	0.089713
2960.99	0.081423
2970.64	0.096823
2980.28	0.124633
2989.93	0.120193
2999.57	0.080103
3009.22	0.058343
3018.86	0.052143
3028.51	0.053423
3038.15	0.050003
3047.8	0.048833
3057.44	0.056353
3067.09	0.062843
3076.73	0.050043
3086.38	0.024653
3096.02	0.012293
3105.67	0.007903
3115.31	0.006473
3124.95	0.005933
3134.6	0.005143
3144.24	0.004583
3153.89	0.004423
3163.53	0.004403
3173.18	0.004433
3182.82	0.003553
3192.47	0.002773
3202.11	0.002583
3211.76	0.002183
3221.4	0.001973
3231.05	0.0016413
3240.69	0.0015845
3250.34	0.0012854
3259.98	0.001302
3269.63	0.0014921
3279.27	0.0011914
3288.92	0.0014819
3298.56	0.0010194
3308.21	0.0012686
3317.85	0.0010456
3327.49	0.0014666
3337.14	0.0013149
3346.78	0.0015746
3356.43	0.0012566
3366.07	0.0013025
3375.72	0.0013567
3385.36	0.0010765
3395.01	0.001373
3404.65	0.0014153
3414.3	0.0013803
3423.94	0.001813
3433.59	0.001933
3443.23	0.002453
3452.88	0.003383
3462.52	0.004493
3472.17	0.004193
3481.81	0.003083
3491.46	0.001973
3501.1	0.0015467
3510.75	0.0010007
3520.39	0.0009657
3530.04	0.0008886
3539.68	0.000962
3549.32	0.0011334
3558.97	0.0012058
3568.61	0.0010638
3578.26	0.0010447
3587.9	0.0006492
3597.55	0.000685171
3607.19	0.00071203
3616.84	0.000496
3626.48	0.0008025
3636.13	0.0008382
3645.77	0.00047
3655.42	0.000397
3665.06	0.000505
3674.71	0.00071763
3684.35	0.00073843
3694	0.0008926
3703.64	0.0006565
3713.29	0.00071485
3722.93	0.0008094
3732.58	0.000796
3742.22	0.0009904
3751.86	0.0009968
3761.51	0.0008395
3771.15	0.0008181
3780.8	0.0014267
3790.44	0.0012826
3800.09	0.0012443
3809.73	0.001843
3819.38	0.0011287
3829.02	0.001273
3838.67	0.0013019
3848.31	0.0012299
3857.96	0.0013658
3867.6	0.0010197
3877.25	0.001201
3886.89	0.0014285
3896.54	0.0011576
3906.18	0.0013556
3915.83	0.0014776
3925.47	0.0011594
3935.12	0.0014645
3944.76	0.001733
3954.41	0.0013819
3964.05	0.0016153
3973.69	0.0014139
3983.34	0.0015092
3992.98	0.0013262
