Infrared Spectrum: Acetanilide, 2',4',5'-trifluoro-
Formula: C8 H6 F3 N O
CAS: 366-50-7
State: SOLID (0.4 mg / 650 mg KBr DISC)
Class: COBLENTZ III
Instrument: PERKIN-ELMER 21 (GRATING)
Instrument parameters: FILTER CHANGE ABOUT 1075 CM^-^1
Sampling: TRANSMISSION
Resolution: 2
Origin: SOUTHERN RESEARCH INSTITUTE
1/CM	TRANSMITTANCE
595.92	0.859
604.973	0.8544
614.026	0.8407
623.079	0.8135
632.132	0.7751
641.185	0.7672
650.239	0.7583
659.292	0.729
668.345	0.7175
677.398	0.661
686.451	0.5196
695.504	0.5765
704.557	0.3243
713.61	0.117
722.663	0.5436
731.716	0.4396
740.77	0.2969
749.823	0.271
758.876	0.2527
767.929	0.1937
776.982	0.6398
786.035	0.6708
795.088	0.6668
804.141	0.6606
813.194	0.6642
822.247	0.6561
831.3	0.627
840.354	0.5758
849.407	0.3494
858.46	0.4688
867.513	0.1533
876.566	0.0879
885.619	0.1375
894.672	0.2929
903.725	0.5676
912.778	0.7164
921.831	0.7238
930.885	0.7241
939.938	0.7185
948.991	0.7004
958.044	0.6747
967.097	0.629
976.15	0.6224
985.203	0.6069
994.256	0.5711
1003.31	0.4553
1012.36	0.2674
1021.42	0.384
1030.47	0.5668
1039.52	0.5421
1048.57	0.417
1057.63	0.5679
1066.68	0.5753
1075.73	0.5511
1084.79	0.4738
1093.84	0.4991
1102.89	0.3758
1111.95	0.3599
1121	0.4508
1130.05	0.4332
1139.11	0.3741
1148.16	0.146
1157.21	0.0786
1166.26	0.1608
1175.32	0.3609
1184.37	0.5227
1193.42	0.3927
1202.48	0.1848
1211.53	0.1173
1220.58	0.4289
1229.64	0.359
1238.69	0.2598
1247.74	0.1142
1256.8	0.0741
1265.85	0.1313
1274.9	0.459
1283.96	0.3361
1293.01	0.242
1302.06	0.3272
1311.11	0.5644
1320.17	0.5205
1329.22	0.5207
1338.27	0.471
1347.33	0.3985
1356.38	0.2874
1365.43	0.1575
1374.49	0.1184
1383.54	0.3256
1392.59	0.3549
1401.65	0.2683
1410.7	0.1659
1419.75	0.0901
1428.8	0.0181
1437.86	0.0853
1446.91	0.2818
1455.96	0.3161
1465.02	0.2535
1474.07	0.2113
1483.12	0.1565
1492.18	0.0508
1501.23	0.0406
1510.28	0.0666
1519.34	0.066
1528.39	0.0326
1537.44	0.0254
1546.49	0.0267
1555.55	0.0559
1564.6	0.0734
1573.65	0.111
1582.71	0.1475
1591.76	0.1969
1600.81	0.2734
1609.87	0.2967
1618.92	0.2958
1627.97	0.2658
1637.03	0.1863
1646.08	0.1687
1655.13	0.164
1664.19	0.0548
1673.24	0.0543
1682.29	0.1031
1691.34	0.1526
1700.4	0.3038
1709.45	0.3427
1718.5	0.361
1727.56	0.4188
1736.61	0.4881
1745.66	0.515
1754.72	0.5398
1763.77	0.575
1772.82	0.5956
1781.88	0.6192
1790.93	0.6436
1799.98	0.6543
1809.03	0.6546
1818.09	0.6545
1827.14	0.6842
1836.19	0.7085
1845.25	0.7208
1854.3	0.7275
1863.35	0.7281
1872.41	0.7282
1881.46	0.7275
1890.51	0.7265
1899.57	0.7244
1908.62	0.7222
1917.67	0.7191
1926.72	0.727
1935.78	0.7393
1944.83	0.7398
1953.88	0.7367
1962.94	0.7323
1971.99	0.7288
1981.04	0.7332
1990.1	0.7342
1999.15	0.7335
2008.2	0.7331
2017.26	0.7317
2026.31	0.7333
2035.36	0.7428
2044.42	0.7437
2053.47	0.7416
2062.52	0.7394
2071.57	0.7388
2080.63	0.7381
2089.68	0.7374
2098.73	0.7368
2107.79	0.7361
2116.84	0.7341
2125.89	0.7278
2134.95	0.7276
2144	0.7251
2153.05	0.7211
2162.11	0.7148
2171.16	0.7087
2180.21	0.7036
2189.26	0.6989
2198.32	0.6944
2207.37	0.6919
2216.42	0.692
2225.48	0.6868
2234.53	0.6808
2243.58	0.6751
2252.64	0.6734
2261.69	0.6742
2270.74	0.6837
2279.8	0.6863
2288.85	0.6753
2297.9	0.6649
2306.95	0.6624
2316.01	0.6621
2325.06	0.6617
2334.11	0.6639
2343.17	0.6743
2352.22	0.6754
2361.27	0.674
2370.33	0.6718
2379.38	0.6703
2388.43	0.6683
2397.49	0.6656
2406.54	0.6645
2415.59	0.6609
2424.65	0.656
2433.7	0.646
2442.75	0.6364
2451.8	0.6292
2460.86	0.6283
2469.91	0.6289
2478.96	0.6304
2488.02	0.6294
2497.07	0.6194
2506.12	0.608
2515.18	0.6034
2524.23	0.6028
2533.28	0.6093
2542.34	0.6151
2551.39	0.6181
2560.44	0.6185
2569.49	0.6172
2578.55	0.6147
2587.6	0.6119
2596.65	0.6084
2605.71	0.605
2614.76	0.6019
2623.81	0.5989
2632.87	0.5965
2641.92	0.5933
2650.97	0.5896
2660.03	0.5857
2669.08	0.5819
2678.13	0.5785
2687.18	0.5751
2696.24	0.5713
2705.29	0.5679
2714.34	0.567
2723.4	0.5698
2732.45	0.56
2741.5	0.5469
2750.56	0.5431
2759.61	0.5419
2768.66	0.5401
2777.72	0.5384
2786.77	0.537
2795.82	0.5354
2804.88	0.5337
2813.93	0.5325
2822.98	0.5319
2832.03	0.5296
2841.09	0.5258
2850.14	0.5211
2859.19	0.5166
2868.25	0.5122
2877.3	0.5087
2886.35	0.505
2895.41	0.4941
2904.46	0.4765
2913.51	0.4737
2922.57	0.4724
2931.62	0.4716
2940.67	0.4667
2949.72	0.4579
2958.78	0.4487
2967.83	0.4423
2976.88	0.4349
2985.94	0.4213
2994.99	0.4076
3004.04	0.3939
3013.1	0.3803
3022.15	0.3663
3031.2	0.3477
3040.26	0.336
3049.31	0.3332
3058.36	0.3281
3067.41	0.3115
3076.47	0.2903
3085.52	0.2792
3094.57	0.2907
3103.63	0.3135
3112.68	0.3043
3121.73	0.2886
3130.79	0.2789
3139.84	0.2705
3148.89	0.2692
3157.95	0.2715
3167	0.2731
3176.05	0.2714
3185.11	0.2547
3194.16	0.2418
3203.21	0.2283
3212.26	0.215
3221.32	0.2013
3230.37	0.1859
3239.42	0.1637
3248.48	0.1399
3257.53	0.1171
3266.58	0.1143
3275.64	0.1163
3284.69	0.1218
3293.74	0.1394
3302.8	0.1643
3311.85	0.1953
3320.9	0.2275
3329.95	0.2611
3339.01	0.2984
3348.06	0.3274
3357.11	0.3534
3366.17	0.3643
3375.22	0.382
3384.27	0.3932
3393.33	0.3995
3402.38	0.4045
3411.43	0.4068
3420.49	0.4079
3429.54	0.4088
3438.59	0.4111
3447.64	0.415
3456.7	0.4192
3465.75	0.4237
3474.8	0.4296
3483.86	0.4354
3492.91	0.4393
3501.96	0.4437
3511.02	0.4489
3520.07	0.4537
3529.12	0.4582
3538.18	0.4607
3547.23	0.4623
3556.28	0.4643
3565.34	0.4669
3574.39	0.4694
3583.44	0.4722
3592.49	0.4757
3601.55	0.4808
3610.6	0.4838
3619.65	0.4852
3628.71	0.4891
3637.76	0.4933
3646.81	0.4951
3655.87	0.4965
3664.92	0.4966
3673.97	0.4959
3683.03	0.4945
3692.08	0.4929
3701.13	0.4945
3710.18	0.4997
3719.24	0.5015
3728.29	0.4998
3737.34	0.4981
3746.4	0.4965
3755.45	0.4948
3764.5	0.4925
3773.56	0.4902
3782.61	0.4879
3791.66	0.4855
3800.72	0.4826
3809.77	0.4799
3818.82	0.4799
3827.88	0.4815
3836.93	0.4833
3845.98	0.4845
3855.03	0.4852
3864.09	0.4855
3873.14	0.4854
3882.19	0.4804
3891.25	0.4743
3900.3	0.4738
3909.35	0.4792
3918.41	0.4774
3927.46	0.4739
3936.51	0.4768
3945.57	0.4763
3954.62	0.4731
3963.67	0.468
3972.72	0.468
3981.78	0.468
3990.83	0.4669
3999.88	0.4609
4008.94	0.441
4017.99	0.4283
