Infrared Spectrum: 2,2'-Bipyridine
Formula: C 10 H 8 N 2
CAS: 366-18-7
State: gas
Instrument: HP-GC/MS/IRD
Origin: NIST Mass Spectrometry Data Center
1/CM	ABSORBANCE
550	0.0006086
562	0.0002244
574	0.000187
586	3.4e-05
598	0.0002346
610	0.0001462
622	9.18e-05
634	0.000255
646	0.0002686
658	0.000408
670	0.0023868
682	0.000952
694	0.000272
706	0.0002924
718	0.000272
730	0.0003366
742	0.0003536
754	0.0003876
766	0.0004046
778	0.0004454
790	0.0011866
802	0.0035666
814	0.0137836
826	0.0106284
838	0.0019686
850	0.000714
862	0.000714
874	0.0004862
886	0.0009724
898	0.001445
910	0.0007888
922	0.0004556
934	0.0003944
946	0.0005338
958	0.0008364
970	0.001037
982	0.0013056
994	0.0017544
1006	0.000714
1018	0.0005032
1030	0.0004216
1042	0.000867
1054	0.000816
1066	0.000782
1078	0.0007956
1090	0.0005338
1102	0.0015096
1114	0.0008024
1126	0.0004216
1138	0.0002312
1150	0.0003026
1162	0.0003536
1174	0.0003672
1186	0.0002652
1198	0.0002958
1210	0.0005168
1222	0.0010846
1234	0.001394
1246	0.0011628
1258	0.000442
1270	0.0003706
1282	0.0003502
1294	0.0003026
1306	0.0003502
1318	0.0004114
1330	0.0005916
1342	0.0013532
1354	0.0021318
1366	0.0054434
1378	0.0072182
1390	0.003451
1402	0.0023902
1414	0.0027574
1426	0.002958
1438	0.003264
1450	0.0055386
1462	0.0087516
1474	0.0043758
1486	0.002805
1498	0.002635
1510	0.0029716
1522	0.0037298
1534	0.004777
1546	0.0068306
1558	0.0078166
1570	0.0079866
1582	0.0149974
1594	0.034
1606	0.0159018
1618	0.0051
1630	0.0024106
1642	0.0015742
1654	0.000969
1666	0.0005644
1678	0.000459
1690	0.0003808
1702	0.0003978
1714	0.0004862
1726	0.0005134
1738	0.000357
1750	0.0002584
1762	0.0003298
1774	0.0004862
1786	0.000595
1798	0.0005372
1810	0.000425
1822	0.0002924
1834	0.0002584
1846	0.0002652
1858	0.0002754
1870	0.0002924
1882	0.000255
1894	0.0002584
1906	0.000544
1918	0.0008976
1930	0.0004964
1942	0.0002312
1954	0.000204
1966	0.0001666
1978	0.000204
1990	0.0002006
2002	0.0001326
2014	0.0001156
2026	0.000119
2038	0.0001258
2050	0.0001156
2062	0.0001428
2074	0.0001258
2086	9.86e-05
2098	0.0001428
2110	0.0001428
2122	0.0001428
2134	0.0001428
2146	0.0001088
2158	9.18e-05
2170	7.48e-05
2182	0.000153
2194	0.0001802
2206	0.0001768
2218	0.000204
2230	0.0001564
2242	0.0001326
2254	0.000119
2266	0.0001224
2278	0.0001292
2290	0.0001734
2302	0.0001088
2314	6.12e-05
2326	7.14e-05
2338	8.16e-05
2350	0.000102
2362	0.0001088
2374	0.0001224
2386	9.86e-05
2398	0.0001394
2410	0.000119
2422	0.0001292
2434	0.00017
2446	0.0001326
2458	0.0001632
2470	0.000204
2482	0.0001734
2494	0.000204
2506	0.0001564
2518	0.0001292
2530	7.82e-05
2542	0.0001292
2554	5.44e-05
2566	7.48e-05
2578	7.82e-05
2590	6.8e-05
2602	7.82e-05
2614	8.5e-05
2626	9.52e-05
2638	5.78e-05
2650	7.82e-05
2662	0.0001054
2674	0.0001428
2686	0.0001122
2698	9.86e-05
2710	5.44e-05
2722	8.16e-05
2734	0.0002074
2746	0.000323
2758	0.0002142
2770	0.000153
2782	0.0002006
2794	0.0001972
2806	0.0002652
2818	0.000357
2830	0.0004386
2842	0.0006256
2854	0.0009894
2866	0.0017374
2878	0.002159
2890	0.0020706
2902	0.002346
2914	0.003077
2926	0.005253
2938	0.0059262
2950	0.0035598
2962	0.0023766
2974	0.001853
2986	0.0020502
2998	0.0031892
3010	0.004624
3022	0.0056134
3034	0.0056236
3046	0.0066402
3058	0.010523
3070	0.0051748
3082	0.0025704
3094	0.001666
3106	0.0009486
3118	0.0005576
3130	0.0003638
3142	0.000272
3154	0.0002006
3166	0.0001768
3178	0.000187
3190	0.0001598
3202	0.0001972
3214	0.0001428
3226	0.0001666
3238	0.0001156
3250	0.0001496
3262	0.0001054
3274	6.12e-05
3286	7.82e-05
3298	8.84e-05
3310	0.0001258
3322	0.0001462
3334	0.000153
3346	0.0001734
3358	6.8e-05
3370	8.84e-05
3382	0.0001666
3394	0.000119
3406	9.52e-05
3418	0.0001496
3430	6.12e-05
3442	7.48e-05
3454	9.86e-05
3466	0.0001326
3478	6.8e-05
3490	0
3502	0.0001462
3514	0.0001122
3526	9.52e-05
3538	0.0001224
3550	0.0001734
3562	0.0001054
3574	8.16e-05
3586	0.0001394
3598	0.0001428
3610	0.0002108
3622	0.0001428
3634	0.000153
3646	0.0001462
3658	7.14e-05
3670	0.0001326
3682	0.0001394
3694	0.0001428
3706	0.0001598
3718	0.0001428
3730	0.000221
3742	0.0001734
3754	0.00017
3766	0.0002278
3778	0.000187
3790	0.0001428
3802	0.0001904
3814	0.0002278
3826	0.000102
3838	0.0001292
