Infrared Spectrum: 4-Methoxycarbonylphenyl isothiocyanate
Formula: C 9 H 7 N O 2 S
CAS: 3662-78-0
State: gas
Origin: EPA-IR VAPOR PHASE LIBRARY
1/CM	ABSORBANCE
549.8	0.003759
559.445	0.004789
569.09	0.005789
578.734	0.005659
588.379	0.005819
598.024	0.005729
607.669	0.004919
617.313	0.004069
626.958	0.003659
636.603	0.003899
646.248	0.002739
655.893	0.003379
665.537	0.003709
675.182	0.006769
684.827	0.009829
694.472	0.008419
704.116	0.005409
713.761	0.006159
723.406	0.009339
733.051	0.004589
742.695	0.005479
752.34	0.018779
761.985	0.040659
771.63	0.041629
781.275	0.022349
790.919	0.011799
800.564	0.013739
810.209	0.016919
819.854	0.034719
829.498	0.024269
839.143	0.019699
848.788	0.031349
858.433	0.028499
868.078	0.012759
877.722	0.005279
887.367	0.005109
897.012	0.008709
906.657	0.013649
916.301	0.018559
925.946	0.026369
935.591	0.039889
945.236	0.040699
954.88	0.028079
964.525	0.018339
974.17	0.012169
983.815	0.008309
993.46	0.007869
1003.1	0.006889
1012.75	0.018539
1022.39	0.022369
1032.04	0.004829
1041.68	0.004599
1051.33	0.006299
1060.97	0.009729
1070.62	0.018019
1080.26	0.041329
1089.91	0.092029
1099.55	0.161829
1109.2	0.166979
1118.84	0.131249
1128.49	0.059319
1138.13	0.029519
1147.78	0.021399
1157.42	0.022869
1167.07	0.082569
1176.71	0.076559
1186.36	0.030379
1196	0.028959
1205.64	0.020979
1215.29	0.024549
1224.93	0.040899
1234.58	0.042479
1244.22	0.068669
1253.87	0.152079
1263.51	0.314489
1273.16	0.491669
1282.8	0.357669
1292.45	0.164579
1302.09	0.076249
1311.74	0.052019
1321.38	0.040619
1331.03	0.025539
1340.67	0.014249
1350.32	0.011699
1359.96	0.012149
1369.61	0.009799
1379.25	0.008069
1388.9	0.008059
1398.54	0.010579
1408.18	0.019559
1417.83	0.024239
1427.47	0.023989
1437.12	0.074269
1446.76	0.039699
1456.41	0.016079
1466.05	0.012389
1475.7	0.010309
1485.34	0.011869
1494.99	0.029119
1504.63	0.049699
1514.28	0.015109
1523.92	0.009579
1533.57	0.009719
1543.21	0.012299
1552.86	0.016239
1562.5	0.020569
1572.15	0.025829
1581.79	0.039779
1591.44	0.086789
1601.08	0.159629
1610.73	0.113219
1620.37	0.040509
1630.01	0.017799
1639.66	0.012959
1649.3	0.012419
1658.95	0.011669
1668.59	0.011219
1678.24	0.011079
1687.88	0.012219
1697.53	0.014919
1707.17	0.018249
1716.82	0.027189
1726.46	0.062559
1736.11	0.172929
1745.75	0.349849
1755.4	0.180319
1765.04	0.055469
1774.69	0.020699
1784.33	0.015259
1793.98	0.014749
1803.62	0.012599
1813.27	0.010399
1822.91	0.009579
1832.55	0.009779
1842.2	0.010369
1851.84	0.011179
1861.49	0.012269
1871.13	0.013299
1880.78	0.014519
1890.42	0.015959
1900.07	0.018149
1909.71	0.023189
1919.36	0.029709
1929	0.037789
1938.65	0.048509
1948.29	0.064259
1957.94	0.088139
1967.58	0.119909
1977.23	0.158409
1986.87	0.209409
1996.52	0.282639
2006.16	0.368409
2015.81	0.442039
2025.45	0.508509
2035.1	0.616359
2044.74	0.550749
2054.38	0.339629
2064.03	0.260979
2073.67	0.292949
2083.32	0.398099
2092.96	0.407049
2102.61	0.256589
2112.25	0.155629
2121.9	0.117659
2131.54	0.115469
2141.19	0.116149
2150.83	0.093539
2160.48	0.068149
2170.12	0.052029
2179.77	0.043449
2189.41	0.039299
2199.06	0.035259
2208.7	0.027679
2218.35	0.019489
2227.99	0.014029
2237.64	0.009999
2247.28	0.007429
2256.92	0.005749
2266.57	0.005229
2276.21	0.004899
2285.86	0.004519
2295.5	0.004609
2305.15	0.005089
2314.79	0.005679
2324.44	0.005869
2334.08	0.004569
2343.73	0.003789
2353.37	0.003969
2363.02	0.004099
2372.66	0.004019
2382.31	0.003589
2391.95	0.003339
2401.6	0.003069
2411.24	0.003069
2420.89	0.003089
2430.53	0.002779
2440.18	0.002439
2449.82	0.002329
2459.47	0.002569
2469.11	0.003129
2478.75	0.003989
2488.4	0.004919
2498.04	0.005629
2507.69	0.005979
2517.33	0.005599
2526.98	0.005309
2536.62	0.005489
2546.27	0.005439
2555.91	0.005749
2565.56	0.006559
2575.2	0.007699
2584.85	0.009659
2594.49	0.013039
2604.14	0.015629
2613.78	0.012469
2623.43	0.006689
2633.07	0.004139
2642.72	0.003219
2652.36	0.003099
2662.01	0.002689
2671.65	0.002289
2681.29	0.002189
2690.94	0.001969
2700.58	0.002239
2710.23	0.002449
2719.87	0.002849
2729.52	0.003399
2739.16	0.003919
2748.81	0.004559
2758.45	0.005299
2768.1	0.005249
2777.74	0.003579
2787.39	0.002559
2797.03	0.002419
2806.68	0.002559
2816.32	0.002989
2825.97	0.002899
2835.61	0.003819
2845.26	0.007739
2854.9	0.009729
2864.55	0.005389
2874.19	0.004709
2883.84	0.005009
2893.48	0.006149
2903.12	0.007539
2912.77	0.009019
2922.41	0.008999
2932.06	0.008589
2941.7	0.011029
2951.35	0.022749
2960.99	0.056749
2970.64	0.027519
2980.28	0.012239
2989.93	0.011289
2999.57	0.012019
3009.22	0.012149
3018.86	0.011119
3028.51	0.010849
3038.15	0.009549
3047.8	0.007679
3057.44	0.006719
3067.09	0.005899
3076.73	0.006349
3086.38	0.006209
3096.02	0.005069
3105.67	0.004699
3115.31	0.003529
3124.95	0.002489
3134.6	0.001869
3144.24	0.001439
3153.89	0.0010668
3163.53	0.0010423
3173.18	0.0006832
3182.82	0.0005217
3192.47	0.0006403
3202.11	0.0004685
3211.76	0.00021
3221.4	0.000164
3231.05	0.000225
3240.69	0.000196
3250.34	5.5e-05
3259.98	1.1e-05
3269.63	0.000112
3279.27	0.00035279
3288.92	0.000208
3298.56	0.0002753
3308.21	0.000198
3317.85	0.00044929
3327.49	0.00042435
3337.14	0.00035199
3346.78	0.0007127
3356.43	0.0006654
3366.07	0.00037671
3375.72	0.00036965
3385.36	0.000179
3395.01	0.00042436
3404.65	0.000192
3414.3	0.000132
3423.94	0.0005456
3433.59	0.0005471
3443.23	0.00041293
3452.88	0.0010407
3462.52	0.002049
3472.17	0.002989
3481.81	0.002079
3491.46	0.0011152
3501.1	0.0007552
3510.75	0.0005745
3520.39	0.0005077
3530.04	0.000103
3539.68	0.00039164
3549.32	0.00035219
3558.97	0.000144
3568.61	4.7e-05
3578.26	0.000235
3587.9	0.0002861
3597.55	0.000198
3607.19	0.0002931
3616.84	0.000183
3626.48	0.000168
3636.13	0.000209
3645.77	0.0002804
3655.42	0.000148
3665.06	0.0002947
3674.71	0.00039534
3684.35	0.00042004
3694	0.00040817
3703.64	0.0004072
3713.29	0.0005753
3722.93	0.000248
3732.58	0.0003317
3742.22	0.000383
3751.86	0.000483
3761.51	0.00043911
3771.15	0.00037696
3780.8	0.0005362
3790.44	0.00039513
3800.09	0.00069
3809.73	0.0006034
3819.38	0.0007051
3829.02	0.0006374
3838.67	0.0007876
3848.31	0.0007185
3857.96	0.0007118
3867.6	0.0007867
3877.25	0.0007008
3886.89	0.0009573
3896.54	0.0010834
3906.18	0.0012808
3915.83	0.0013281
3925.47	0.0013035
3935.12	0.001579
3944.76	0.001529
3954.41	0.001639
3964.05	0.001749
3973.69	0.001979
3983.34	0.001929
3992.98	0.002169
