Infrared Spectrum: 1,5-Dihydroxyhexamethyltrisiloxane
Formula: C6 H20 O4 Si3
CAS: 3663-50-1
State: SOLUTION (11% CCl4 FOR 3800-1300, 3% CS2 FOR 1300-635, AND 11% CCl4 FOR 635-240) VS SOLVENT
Melting point: 5-7 C
Boiling point: 79-82 C AT 2 mmHg
Class: COBLENTZ II
Instrument: PERKIN-ELMER 521 (GRATING)
Instrument parameters: FILTERS AT 3150, 2500, 2000, 1150, 700, 410. GRATING CHANGES: 2000, 630
Path length: 0.013 CM, 0.011 CM, AND 0.010 CM
Resolution: 2
Origin: DOW CORNING CORP.
1/CM	TRANSMITTANCE
239	0.6679
247.95	0.6681
256.899	0.6672
265.849	0.6609
274.799	0.6565
283.749	0.6512
292.698	0.6467
301.648	0.6448
310.598	0.6323
319.548	0.6083
328.497	0.5546
337.447	0.4772
346.397	0.4492
355.347	0.4128
364.296	0.2932
373.246	0.2087
382.196	0.4112
391.145	0.5508
400.095	0.5881
409.045	0.589
417.995	0.6379
426.944	0.7509
435.894	0.7896
444.844	0.7968
453.794	0.8055
462.743	0.8231
471.693	0.8216
480.643	0.8141
489.592	0.8024
498.542	0.7758
507.492	0.7471
516.442	0.7456
525.391	0.7643
534.341	0.7768
543.291	0.7738
552.241	0.767
561.19	0.7413
570.14	0.6854
579.09	0.6671
588.04	0.7162
596.989	0.7551
605.939	0.7613
614.889	0.7589
623.838	0.7511
632.788	0.7345
641.738	0.8207
650.688	0.6516
659.637	0.8009
668.587	0.7836
677.537	0.7139
686.487	0.7506
695.436	0.7332
704.386	0.7528
713.336	0.8002
722.286	0.7979
731.235	0.7881
740.185	0.7795
749.135	0.767
758.084	0.7294
767.034	0.6717
775.984	0.4301
784.934	0.3073
793.883	0.0829
802.833	0.0538
811.783	0.133
820.733	0.2876
829.682	0.4218
838.632	0.3817
847.582	0.2922
856.531	0.285
865.481	0.3192
874.431	0.2433
883.381	0.165
892.33	0.2041
901.28	0.3071
910.23	0.4727
919.18	0.6597
928.129	0.7656
937.079	0.8012
946.029	0.8029
954.979	0.7904
963.928	0.7721
972.878	0.7525
981.828	0.7162
990.777	0.6576
999.727	0.5842
1008.68	0.4657
1017.63	0.3056
1026.58	0.1728
1035.53	0.0885
1044.48	0.065
1053.43	0.0662
1062.38	0.0681
1071.33	0.068
1080.27	0.081
1089.22	0.1285
1098.17	0.2196
1107.12	0.365
1116.07	0.4887
1125.02	0.5657
1133.97	0.6366
1142.92	0.6838
1151.87	0.7254
1160.82	0.7638
1169.77	0.7937
1178.72	0.817
1187.67	0.8286
1196.62	0.8315
1205.57	0.8293
1214.52	0.8205
1223.47	0.8011
1232.42	0.7443
1241.37	0.5986
1250.32	0.0411
1259.27	0.4421
1268.22	0.738
1277.17	0.8062
1286.12	0.8396
1295.07	0.845
1304.02	0.7406
1312.97	0.7456
1321.92	0.7433
1330.87	0.7413
1339.82	0.7559
1348.77	0.7604
1357.72	0.7568
1366.67	0.7473
1375.62	0.7253
1384.57	0.6502
1393.52	0.5697
1402.47	0.5091
1411.41	0.6258
1420.36	0.7039
1429.31	0.7064
1438.26	0.7122
1447.21	0.7545
1456.16	0.7731
1465.11	0.788
1474.06	0.7935
1483.01	0.8065
1491.96	0.8118
1500.91	0.8114
1509.86	0.8076
1518.81	0.8022
1527.76	0.7949
1536.71	0.7844
1545.66	0.7771
1554.61	0.78
1563.56	0.783
1572.51	0.7814
1581.46	0.7779
1590.41	0.777
1599.36	0.778
1608.31	0.7904
1617.26	0.8037
1626.21	0.8159
1635.16	0.8244
1644.11	0.8297
1653.06	0.8316
1662.01	0.8359
1670.96	0.8427
1679.91	0.849
1688.86	0.8505
1697.81	0.8504
1706.76	0.8502
1715.71	0.8493
1724.66	0.8446
1733.61	0.8395
1742.55	0.8434
1751.5	0.848
1760.45	0.8526
1769.4	0.8574
1778.35	0.8607
1787.3	0.8643
1796.25	0.8675
1805.2	0.8674
1814.15	0.8668
1823.1	0.8675
1832.05	0.8682
1841	0.8683
1849.95	0.8672
1858.9	0.8655
1867.85	0.8643
1876.8	0.8638
1885.75	0.8588
1894.7	0.8459
1903.65	0.834
1912.6	0.8429
1921.55	0.8436
1930.5	0.8312
1939.45	0.8234
1948.4	0.8291
1957.35	0.8396
1966.3	0.8484
1975.25	0.8518
1984.2	0.8524
1993.15	0.8526
2002.1	0.8645
2011.05	0.8645
2020	0.8608
2028.95	0.8535
2037.9	0.8472
2046.85	0.8432
2055.8	0.8452
2064.75	0.8482
2073.7	0.8499
2082.64	0.851
2091.59	0.8512
2100.54	0.8506
2109.49	0.8498
2118.44	0.8493
2127.39	0.8485
2136.34	0.8484
2145.29	0.8497
2154.24	0.8517
2163.19	0.8539
2172.14	0.8557
2181.09	0.8576
2190.04	0.8599
2198.99	0.8621
2207.94	0.8644
2216.89	0.866
2225.84	0.8675
2234.79	0.8687
2243.74	0.8698
2252.69	0.871
2261.64	0.8722
2270.59	0.8737
2279.54	0.8752
2288.49	0.8779
2297.44	0.8811
2306.39	0.8854
2315.34	0.8903
2324.29	0.8941
2333.24	0.8946
2342.19	0.8953
2351.14	0.8963
2360.09	0.8966
2369.04	0.8969
2377.99	0.8971
2386.94	0.8973
2395.89	0.8975
2404.84	0.8978
2413.78	0.898
2422.73	0.8983
2431.68	0.8986
2440.63	0.8988
2449.58	0.8991
2458.53	0.8993
2467.48	0.8996
2476.43	0.8995
2485.38	0.898
2494.33	0.8966
2503.28	0.8991
2512.23	0.9018
2521.18	0.9032
2530.13	0.9037
2539.08	0.9035
2548.03	0.9034
2556.98	0.9032
2565.93	0.9031
2574.88	0.9029
2583.83	0.9023
2592.78	0.9015
2601.73	0.9005
2610.68	0.8995
2619.63	0.8978
2628.58	0.8953
2637.53	0.8927
2646.48	0.8897
2655.43	0.8879
2664.38	0.8896
2673.33	0.8905
2682.28	0.8896
2691.23	0.8883
2700.18	0.8872
2709.13	0.8843
2718.08	0.8799
2727.03	0.8741
2735.98	0.868
2744.92	0.862
2753.87	0.8561
2762.82	0.8501
2771.77	0.8418
2780.72	0.8189
2789.67	0.8101
2798.62	0.8068
2807.57	0.8058
2816.52	0.8042
2825.47	0.8021
2834.42	0.7864
2843.37	0.7721
2852.32	0.7608
2861.27	0.7448
2870.22	0.7312
2879.17	0.7077
2888.12	0.67
2897.07	0.6217
2906.02	0.5544
2914.97	0.6052
2923.92	0.6124
2932.87	0.5884
2941.82	0.5478
2950.77	0.4403
2959.72	0.2379
2968.67	0.0737
2977.62	0.2164
2986.57	0.4428
2995.52	0.5088
3004.47	0.5196
3013.42	0.5153
3022.37	0.5004
3031.32	0.4819
3040.27	0.468
3049.22	0.4506
3058.17	0.428
3067.12	0.4051
3076.06	0.3779
3085.01	0.3554
3093.96	0.3316
3102.91	0.3029
3111.86	0.2805
3120.81	0.2607
3129.76	0.239
3138.71	0.2221
3147.66	0.2068
3156.61	0.1899
3165.56	0.1736
3174.51	0.161
3183.46	0.1487
3192.41	0.134
3201.36	0.121
3210.31	0.1087
3219.26	0.1003
3228.21	0.0949
3237.16	0.0899
3246.11	0.0864
3255.06	0.084
3264.01	0.0835
3272.96	0.0836
3281.91	0.0842
3290.86	0.0865
3299.81	0.089
3308.76	0.0927
3317.71	0.0973
3326.66	0.1022
3335.61	0.1086
3344.56	0.1188
3353.51	0.1293
3362.46	0.1385
3371.41	0.1478
3380.36	0.1586
3389.31	0.169
3398.26	0.1837
3407.21	0.2053
3416.15	0.225
3425.1	0.2509
3434.05	0.286
3443	0.3204
3451.95	0.3549
3460.9	0.3913
3469.85	0.416
3478.8	0.4499
3487.75	0.4774
3496.7	0.508
3505.65	0.5306
3514.6	0.5728
3523.55	0.6001
3532.5	0.6283
3541.45	0.6628
3550.4	0.6875
3559.35	0.7184
3568.3	0.7413
3577.25	0.7574
3586.2	0.768
3595.15	0.7825
3604.1	0.7987
3613.05	0.8025
3622	0.8036
3630.95	0.8024
3639.9	0.795
3648.85	0.7815
3657.8	0.7637
3666.75	0.7395
3675.7	0.7332
3684.65	0.7314
3693.6	0.7427
3702.55	0.8279
3711.5	0.8682
3720.45	0.8805
3729.4	0.8836
3738.35	0.8839
3747.29	0.8841
3756.24	0.8873
3765.19	0.8917
3774.14	0.8988
3783.09	0.9041
3792.04	0.9039
