Infrared Spectrum: 1-Indanol
Formula: C 9 H 10 O
CAS: 36643-74-0
State: gas
Instrument: HP-GC/MS/IRD
Origin: NIST Mass Spectrometry Data Center
1/CM	ABSORBANCE
550	0.001224
562	0.0007218
574	0.0005184
586	0.0009054
598	0.0018414
610	0.0017154
622	0.0008604
634	0.0003186
646	0.000153
658	0.000126
670	0.000216
682	0.0004086
694	0.0007308
706	0.0015048
718	0.0033012
730	0.0072972
742	0.0150156
754	0.0159354
766	0.0080784
778	0.0022392
790	0.0005688
802	0.0003546
814	0.0006138
826	0.0007992
838	0.000882
850	0.0009972
862	0.0009864
874	0.0010728
886	0.0013068
898	0.0016146
910	0.0015714
922	0.0017298
934	0.0028674
946	0.0049446
958	0.0067194
970	0.0050292
982	0.0028926
994	0.0032958
1006	0.0053298
1018	0.0069876
1030	0.0088596
1042	0.0132948
1054	0.0144684
1066	0.0093312
1078	0.004689
1090	0.0045126
1102	0.004194
1114	0.0028818
1126	0.002601
1138	0.0029538
1150	0.003699
1162	0.00432
1174	0.0050886
1186	0.0049896
1198	0.0045558
1210	0.0040518
1222	0.0032076
1234	0.0029412
1246	0.0030942
1258	0.003285
1270	0.0034308
1282	0.0036054
1294	0.0037188
1306	0.0041418
1318	0.0047862
1330	0.005508
1342	0.0059112
1354	0.00558
1366	0.0056448
1378	0.0061866
1390	0.0054252
1402	0.0033858
1414	0.0021348
1426	0.0017838
1438	0.0024606
1450	0.0040302
1462	0.0051894
1474	0.0057204
1486	0.0040194
1498	0.0013608
1510	0.0006282
1522	0.0002844
1534	0.0001458
1546	0.0001656
1558	0.0002736
1570	0.0002916
1582	0.0006246
1594	0.001152
1606	0.0014814
1618	0.0011358
1630	0.000369
1642	0.0001008
1654	0.0001368
1666	9.72e-05
1678	0.000279
1690	0.0002556
1702	0.0001962
1714	0.0001116
1726	0.0001098
1738	0.0001494
1750	0.0001566
1762	0.0001188
1774	0.0001944
1786	0.0003798
1798	0.0005274
1810	0.0004338
1822	0.0003474
1834	0.0003204
1846	0.0002934
1858	0.0001926
1870	0.0002754
1882	0.0002682
1894	0.0005184
1906	0.0007236
1918	0.0005634
1930	0.000378
1942	0.000558
1954	0.0003906
1966	5.58e-05
1978	2.16e-05
1990	4.5e-05
2002	2.34e-05
2014	2.16e-05
2026	2.52e-05
2038	1.26e-05
2050	1.26e-05
2062	6.48e-05
2074	6.84e-05
2086	6.48e-05
2098	7.74e-05
2110	0.0001152
2122	0.0001062
2134	0.0001116
2146	9e-05
2158	0.0001026
2170	8.64e-05
2182	7.38e-05
2194	6.84e-05
2206	0.0001044
2218	0.0001242
2230	0.0001746
2242	0.0001836
2254	0.0001692
2266	0.0001512
2278	0.0001746
2290	0.0001656
2302	0.0002448
2314	0.0002664
2326	0.000216
2338	0.0001458
2350	0.0001458
2362	0.0001152
2374	0.000126
2386	0.000126
2398	0.000135
2410	0.0001314
2422	0.0001494
2434	0.0001188
2446	0.0001062
2458	0.0001242
2470	0.000117
2482	0.0001098
2494	0.0001134
2506	0.0001026
2518	0.0001134
2530	0.0001026
2542	9.72e-05
2554	0.0001296
2566	0.0001476
2578	0.0001404
2590	0.0001548
2602	0.0002016
2614	0.0002142
2626	0.0002232
2638	0.0001854
2650	0.0002034
2662	0.00018
2674	0.0001872
2686	0.0001926
2698	0.0001836
2710	0.0002106
2722	0.000261
2734	0.000315
2746	0.0003834
2758	0.000423
2770	0.0004608
2782	0.0005202
2794	0.0005706
2806	0.0006948
2818	0.0009252
2830	0.001431
2842	0.002673
2854	0.005841
2866	0.007911
2878	0.00684
2890	0.0066024
2902	0.008001
2914	0.0095256
2926	0.011655
2938	0.0150426
2950	0.017046
2962	0.0162144
2974	0.0124128
2986	0.0063558
2998	0.0030024
3010	0.0035874
3022	0.0063054
3034	0.0077616
3046	0.0071568
3058	0.0075186
3070	0.0094968
3082	0.0084708
3094	0.00405
3106	0.0016902
3118	0.0007596
3130	0.0004788
3142	0.0003438
3154	0.0003582
3166	0.000315
3178	0.000306
3190	0.000189
3202	0.0001548
3214	0.000189
3226	7.74e-05
3238	0.0001296
3250	9.18e-05
3262	0.0001098
3274	8.46e-05
3286	0.0001116
3298	0.0001404
3310	0.0001404
3322	0.00018
3334	0.0001674
3346	0.0001728
3358	0.0002124
3370	0.0002664
3382	0.000252
3394	0.0002916
3406	0.0002646
3418	0.0002556
3430	0.0002286
3442	0.0002394
3454	0.0002466
3466	0.0003654
3478	0.0003654
3490	0.000396
3502	0.000369
3514	0.0003006
3526	0.0002988
3538	0.0003276
3550	0.0003366
3562	0.0003276
3574	0.0003474
3586	0.000423
3598	0.0004626
3610	0.0009306
3622	0.0018144
3634	0.0033066
3646	0.0036396
3658	0.0025434
3670	0.001368
3682	0.000693
3694	0.0004986
3706	0.0004518
3718	0.000459
3730	0.0004716
3742	0.0004824
3754	0.0004374
3766	0.0004356
3778	0.0004752
3790	0.000414
3802	0.0004482
3814	0.0004284
3826	0.0004392
3838	0.0005472
