Infrared Spectrum: 1-Hexadecanol
Formula: C 16 H 34 O
CAS: 36653-82-4
State: gas
Instrument: HP-GC/MS/IRD
Origin: NIST Mass Spectrometry Data Center
1/CM	ABSORBANCE
550	0.0003456
562	0.0002088
574	0.0001296
586	0.0002304
598	0.0001944
610	8.64e-05
622	0.0001296
634	0.000108
646	0.0001728
658	0.0001584
670	0.0001944
682	0.0001944
694	0.000396
706	0.0007344
718	0.000936
730	0.0009432
742	0.0007128
754	0.0005256
766	0.0005112
778	0.0003888
790	0.0002808
802	0.0003168
814	0.000252
826	0.0003312
838	0.000324
850	0.0004824
862	0.0005184
874	0.0005904
886	0.0007344
898	0.0007632
910	0.0007848
922	0.0008208
934	0.0008568
946	0.0009792
958	0.001224
970	0.001476
982	0.001728
994	0.002304
1006	0.0030096
1018	0.003888
1030	0.0050184
1042	0.0057456
1054	0.0054576
1066	0.004032
1078	0.0028224
1090	0.0018216
1102	0.0011736
1114	0.0008856
1126	0.0007272
1138	0.0004896
1150	0.0006048
1162	0.000612
1174	0.0007128
1186	0.0007848
1198	0.0008424
1210	0.0009864
1222	0.0010584
1234	0.0011304
1246	0.0011808
1258	0.0013248
1270	0.0014472
1282	0.0014184
1294	0.0016632
1306	0.0017784
1318	0.0017064
1330	0.001692
1342	0.00234
1354	0.0027144
1366	0.0025344
1378	0.002484
1390	0.0023544
1402	0.0016704
1414	0.0013896
1426	0.0014544
1438	0.0022968
1450	0.0039024
1462	0.0049752
1474	0.003312
1486	0.0015624
1498	0.0008424
1510	0.000756
1522	0.0004608
1534	0.000396
1546	0.0003672
1558	4.32e-05
1570	0.00018
1582	0.0002448
1594	0.0002088
1606	0.000216
1618	9.36e-05
1630	0.0001584
1642	0.0002088
1654	7.2e-05
1666	0.0002376
1678	0.0002952
1690	0.000288
1702	0.0001728
1714	0.0002808
1726	0.0003168
1738	0.0003456
1750	0.0003888
1762	0.0003168
1774	0.00018
1786	0.0002952
1798	0.0002448
1810	0.0002304
1822	0.0002376
1834	0.0002232
1846	0.0002304
1858	0.0002088
1870	0.0002232
1882	0.000216
1894	0.0001872
1906	0.0001728
1918	0.00018
1930	0.000144
1942	0.0002016
1954	0.0001656
1966	0.0001512
1978	0.0001512
1990	0.0001728
2002	0.0001728
2014	0.0001944
2026	0.000216
2038	0.0002232
2050	0.0002088
2062	0.0002016
2074	0.0001584
2086	0.0001656
2098	0.000144
2110	0.0001296
2122	0.0001008
2134	0.0001152
2146	0.0001008
2158	0.000144
2170	8.64e-05
2182	9.36e-05
2194	7.2e-05
2206	7.92e-05
2218	5.76e-05
2230	6.48e-05
2242	3.6e-05
2254	5.04e-05
2266	5.76e-05
2278	7.2e-05
2290	9.36e-05
2302	0.0001152
2314	8.64e-05
2326	0.0001008
2338	0.0001296
2350	0.000108
2362	0.000144
2374	0.0001152
2386	7.92e-05
2398	7.92e-05
2410	7.92e-05
2422	7.92e-05
2434	8.64e-05
2446	9.36e-05
2458	6.48e-05
2470	0
2482	6.48e-05
2494	8.64e-05
2506	0.0001152
2518	0.0001224
2530	0.0001296
2542	0.0001584
2554	0.000144
2566	0.0001728
2578	0.0001944
2590	0.0002592
2602	0.0003024
2614	0.0003096
2626	0.0004032
2638	0.0004176
2650	0.000504
2662	0.0005904
2674	0.0006768
2686	0.0007416
2698	0.0007272
2710	0.0007272
2722	0.0007344
2734	0.0007992
2746	0.0009216
2758	0.0010224
2770	0.0011232
2782	0.0013248
2794	0.0016776
2806	0.0021456
2818	0.0030168
2830	0.0043776
2842	0.0076752
2854	0.0184608
2866	0.0267768
2878	0.01908
2890	0.0162432
2902	0.0202896
2914	0.0329256
2926	0.0615888
2938	0.0656928
2950	0.0337968
2962	0.0200376
2974	0.0129456
2986	0.0062136
2998	0.0036504
3010	0.0023976
3022	0.0017064
3034	0.0013464
3046	0.00108
3058	0.0009072
3070	0.0007128
3082	0.0005832
3094	0.0005112
3106	0.0004032
3118	0.0003744
3130	0.0003024
3142	0.0003168
3154	0.0002952
3166	0.0002736
3178	0.0002304
3190	0.0002736
3202	0.0001728
3214	0.0001296
3226	0.0001584
3238	0.0001224
3250	7.92e-05
3262	5.76e-05
3274	0.0001008
3286	5.04e-05
3298	0.0001368
3310	0.0001224
3322	0.0001368
3334	0.0001296
3346	0.0001008
3358	0.0001224
3370	0.0001152
3382	0.0002016
3394	0.0001656
3406	0.0001224
3418	0.000216
3430	0.0001584
3442	0.0001008
3454	0.0001656
3466	0.0001656
3478	0.0002304
3490	0.0001224
3502	0.0002232
3514	0.0001512
3526	0.0001872
3538	0.0001656
3550	0.0001728
3562	0.0001584
3574	8.64e-05
3586	0.0002808
3598	0.0001656
3610	0.0002304
3622	0.0003024
3634	0.0004248
3646	0.0006192
3658	0.0012384
3670	0.0013968
3682	0.0008784
3694	0.000432
3706	0.0002232
3718	0.0002088
3730	0.00018
3742	7.92e-05
3754	0
3766	2.88e-05
3778	0.0001008
3790	0.0001512
3802	0
3814	2.16e-05
3826	7.2e-05
3838	0
