Infrared Spectrum: Benzyl 2,4-Dihydroxyphenyl ketone
Formula: C 14 H 12 O 3
CAS: 3669-41-8
State: gas
Origin: EPA-IR VAPOR PHASE LIBRARY
1/CM	ABSORBANCE
549.8	0.01821
559.445	0.02444
569.09	0.01222
578.734	0.00559
588.379	0.01063
598.024	0.02735
607.669	0.01795
617.313	0.00986
626.958	0.00983
636.603	0.00886
646.248	0.00735
655.893	0.00628
665.537	0.00883
675.182	0.01116
684.827	0.01504
694.472	0.02591
704.116	0.04308
713.761	0.03355
723.406	0.02886
733.051	0.02456
742.695	0.01534
752.34	0.01278
761.985	0.01564
771.63	0.02393
781.275	0.02877
790.919	0.02939
800.564	0.02602
810.209	0.0156
819.854	0.01021
829.498	0.01198
839.143	0.01934
848.788	0.01393
858.433	0.01287
868.078	0.00962
877.722	0.00532
887.367	0.0039
897.012	0.00393
906.657	0.00426
916.301	0.00509
925.946	0.00622
935.591	0.00591
945.236	0.00591
954.88	0.00918
964.525	0.01765
974.17	0.02386
983.815	0.01581
993.46	0.01832
1003.1	0.01504
1012.75	0.01034
1022.39	0.00966
1032.04	0.01104
1041.68	0.00401
1051.33	0.00368
1060.97	0.00445
1070.62	0.00644
1080.26	0.0064
1089.91	0.00883
1099.55	0.0113
1109.2	0.01776
1118.84	0.04608
1128.49	0.10375
1138.13	0.09164
1147.78	0.06988
1157.42	0.08281
1167.07	0.07529
1176.71	0.07399
1186.36	0.09981
1196	0.10331
1205.64	0.07098
1215.29	0.06261
1224.93	0.0517
1234.58	0.04592
1244.22	0.04744
1253.87	0.0627
1263.51	0.08697
1273.16	0.08535
1282.8	0.0566
1292.45	0.03848
1302.09	0.02992
1311.74	0.03335
1321.38	0.04871
1331.03	0.05895
1340.67	0.0695
1350.32	0.05921
1359.96	0.04339
1369.61	0.04133
1379.25	0.03363
1388.9	0.02447
1398.54	0.01885
1408.18	0.01774
1417.83	0.02183
1427.47	0.03597
1437.12	0.05761
1446.76	0.04873
1456.41	0.0262
1466.05	0.01862
1475.7	0.02079
1485.34	0.02805
1494.99	0.04662
1504.63	0.05351
1514.28	0.05323
1523.92	0.03868
1533.57	0.03125
1543.21	0.03012
1552.86	0.03102
1562.5	0.03464
1572.15	0.04373
1581.79	0.06261
1591.44	0.09
1601.08	0.0929
1610.73	0.09042
1620.37	0.12449
1630.01	0.13546
1639.66	0.17757
1649.3	0.17505
1658.95	0.09741
1668.59	0.04584
1678.24	0.02446
1687.88	0.01552
1697.53	0.0111
1707.17	0.00866
1716.82	0.00698
1726.46	0.00597
1736.11	0.00519
1745.75	0.00429
1755.4	0.00362
1765.04	0.00313
1774.69	0.00318
1784.33	0.00333
1793.98	0.00372
1803.62	0.003
1813.27	0.00254
1822.91	0.00229
1832.55	0.00222
1842.2	0.00242
1851.84	0.00285
1861.49	0.00322
1871.13	0.00354
1880.78	0.0034
1890.42	0.00266
1900.07	0.00223
1909.71	0.00212
1919.36	0.00224
1929	0.00291
1938.65	0.00348
1948.29	0.00338
1957.94	0.00294
1967.58	0.00197
1977.23	0.00154
1986.87	0.00145
1996.52	0.00146
2006.16	0.00138
2015.81	0.00122
2025.45	0.00128
2035.1	0.00114
2044.74	0.00106
2054.38	0.00103
2064.03	0.00113
2073.67	0.00116
2083.32	0.00115
2092.96	0.00121
2102.61	0.00141
2112.25	0.00136
2121.9	0.00117
2131.54	0.0011
2141.19	0.00112
2150.83	0.00119
2160.48	0.00127
2170.12	0.00137
2179.77	0.00136
2189.41	0.00136
2199.06	0.00119
2208.7	0.00115
2218.35	0.0011
2227.99	0.00106
2237.64	0.00116
2247.28	0.00127
2256.92	0.00127
2266.57	0.00137
2276.21	0.00145
2285.86	0.00148
2295.5	0.0015
2305.15	0.00166
2314.79	0.00197
2324.44	0.00208
2334.08	0.00227
2343.73	0.00247
2353.37	0.00251
2363.02	0.00269
2372.66	0.0027
2382.31	0.00251
2391.95	0.00232
2401.6	0.00216
2411.24	0.00208
2420.89	0.00204
2430.53	0.00197
2440.18	0.00203
2449.82	0.00212
2459.47	0.00231
2469.11	0.00227
2478.75	0.00245
2488.4	0.00257
2498.04	0.00276
2507.69	0.00288
2517.33	0.00312
2526.98	0.00323
2536.62	0.00322
2546.27	0.00313
2555.91	0.00314
2565.56	0.00305
2575.2	0.00315
2584.85	0.00328
2594.49	0.00356
2604.14	0.0038
2613.78	0.00399
2623.43	0.00425
2633.07	0.00445
2642.72	0.00441
2652.36	0.00438
2662.01	0.00429
2671.65	0.00419
2681.29	0.00435
2690.94	0.00464
2700.58	0.00476
2710.23	0.00483
2719.87	0.00484
2729.52	0.00455
2739.16	0.00457
2748.81	0.00451
2758.45	0.00451
2768.1	0.00463
2777.74	0.00446
2787.39	0.00445
2797.03	0.00422
2806.68	0.00427
2816.32	0.00454
2825.97	0.00491
2835.61	0.00509
2845.26	0.00554
2854.9	0.00577
2864.55	0.00605
2874.19	0.00625
2883.84	0.00657
2893.48	0.00738
2903.12	0.00861
2912.77	0.00975
2922.41	0.01027
2932.06	0.01108
2941.7	0.01124
2951.35	0.01098
2960.99	0.01122
2970.64	0.01155
2980.28	0.01156
2989.93	0.01176
2999.57	0.01231
3009.22	0.01409
3018.86	0.01668
3028.51	0.02349
3038.15	0.02796
3047.8	0.02368
3057.44	0.02259
3067.09	0.02869
3076.73	0.02896
3086.38	0.02179
3096.02	0.01864
3105.67	0.01542
3115.31	0.0131
3124.95	0.01115
3134.6	0.01051
3144.24	0.01015
3153.89	0.00983
3163.53	0.0097
3173.18	0.00955
3182.82	0.00945
3192.47	0.00935
3202.11	0.00918
3211.76	0.00876
3221.4	0.00846
3231.05	0.00835
3240.69	0.0081
3250.34	0.00819
3259.98	0.00822
3269.63	0.00831
3279.27	0.00797
3288.92	0.00747
3298.56	0.00715
3308.21	0.00657
3317.85	0.00627
3327.49	0.00574
3337.14	0.00555
3346.78	0.00509
3356.43	0.00479
3366.07	0.00443
3375.72	0.00443
3385.36	0.00393
3395.01	0.00344
3404.65	0.00329
3414.3	0.00326
3423.94	0.00296
3433.59	0.00273
3443.23	0.00248
3452.88	0.0022
3462.52	0.00214
3472.17	0.00183
3481.81	0.00199
3491.46	0.00158
3501.1	0.00168
3510.75	0.00139
3520.39	0.00124
3530.04	0.00135
3539.68	0.00124
3549.32	0.00129
3558.97	0.00121
3568.61	0.00117
3578.26	0.0012
3587.9	0.00125
3597.55	0.00133
3607.19	0.00187
3616.84	0.00303
3626.48	0.00948
3636.13	0.04655
3645.77	0.07233
3655.42	0.01672
3665.06	0.0032
3674.71	0.00162
3684.35	0.00118
3694	0.0008072
3703.64	0.0006984
3713.29	0.0005488
3722.93	0.0004832
3732.58	0.0004121
3742.22	0.0004481
3751.86	0.0004671
3761.51	0.0003754
3771.15	0.0004632
3780.8	0.0005355
3790.44	0.0003707
3800.09	0.0004388
3809.73	0.0002608
3819.38	0.0004503
3829.02	0.0006533
3838.67	0.0004582
3848.31	0.0005029
3857.96	0.0005497
3867.6	0.0004588
3877.25	0.0006028
3886.89	0.000408
3896.54	0.0005871
3906.18	0.0006442
3915.83	0.0006787
3925.47	0.0007221
3935.12	0.0005548
3944.76	0.0003949
3954.41	0.0004827
3964.05	0.0007413
3973.69	0.0005625
3983.34	0.0007434
3992.98	0.0007091
