Infrared Spectrum: Methyl 3,4-diaminobenzoate
Formula: C 8 H 10 N 2 O 2
CAS: 36692-49-6
State: gas
Origin: EPA-IR VAPOR PHASE LIBRARY
1/CM	ABSORBANCE
549.8	0.0159
559.445	0.01594
569.09	0.01615
578.734	0.01678
588.379	0.0173
598.024	0.01723
607.669	0.01736
617.313	0.01783
626.958	0.01997
636.603	0.02107
646.248	0.02057
655.893	0.02106
665.537	0.02258
675.182	0.02191
684.827	0.01981
694.472	0.01727
704.116	0.01582
713.761	0.01521
723.406	0.01615
733.051	0.01718
742.695	0.01888
752.34	0.02534
761.985	0.03653
771.63	0.02804
781.275	0.01585
790.919	0.0125
800.564	0.01179
810.209	0.01153
819.854	0.01218
829.498	0.01109
839.143	0.00939
848.788	0.00846
858.433	0.00801
868.078	0.00857
877.722	0.01063
887.367	0.01286
897.012	0.01394
906.657	0.01241
916.301	0.00947
925.946	0.00694
935.591	0.00614
945.236	0.00567
954.88	0.00545
964.525	0.00568
974.17	0.00687
983.815	0.00972
993.46	0.01405
1003.1	0.01389
1012.75	0.00779
1022.39	0.00632
1032.04	0.00641
1041.68	0.0069
1051.33	0.00847
1060.97	0.01099
1070.62	0.0154
1080.26	0.02384
1089.91	0.03937
1099.55	0.04716
1109.2	0.03581
1118.84	0.02238
1128.49	0.01553
1138.13	0.01552
1147.78	0.02368
1157.42	0.02527
1167.07	0.01478
1176.71	0.01334
1186.36	0.02018
1196	0.03747
1205.64	0.08091
1215.29	0.12714
1224.93	0.08985
1234.58	0.03374
1244.22	0.02227
1253.87	0.02492
1263.51	0.03711
1273.16	0.0498
1282.8	0.08057
1292.45	0.1535
1302.09	0.14209
1311.74	0.05911
1321.38	0.02661
1331.03	0.01991
1340.67	0.01492
1350.32	0.0094
1359.96	0.00636
1369.61	0.00487
1379.25	0.00458
1388.9	0.00469
1398.54	0.00548
1408.18	0.00676
1417.83	0.00894
1427.47	0.01684
1437.12	0.03839
1446.76	0.03943
1456.41	0.01695
1466.05	0.00936
1475.7	0.00748
1485.34	0.00731
1494.99	0.0105
1504.63	0.0224
1514.28	0.03472
1523.92	0.02215
1533.57	0.00906
1543.21	0.00681
1552.86	0.00665
1562.5	0.00834
1572.15	0.013
1581.79	0.02366
1591.44	0.03151
1601.08	0.02734
1610.73	0.03349
1620.37	0.05393
1630.01	0.05371
1639.66	0.03046
1649.3	0.01535
1658.95	0.00922
1668.59	0.00681
1678.24	0.00676
1687.88	0.00848
1697.53	0.00956
1707.17	0.01154
1716.82	0.02309
1726.46	0.06758
1736.11	0.12764
1745.75	0.09512
1755.4	0.02453
1765.04	0.00939
1774.69	0.0075
1784.33	0.00763
1793.98	0.00589
1803.62	0.00359
1813.27	0.00268
1822.91	0.00236
1832.55	0.00217
1842.2	0.00211
1851.84	0.00239
1861.49	0.00285
1871.13	0.00299
1880.78	0.00247
1890.42	0.002
1900.07	0.00178
1909.71	0.00164
1919.36	0.00133
1929	0.00127
1938.65	0.00116
1948.29	0.00109
1957.94	0.00114
1967.58	0.00126
1977.23	0.00128
1986.87	0.00132
1996.52	0.00136
2006.16	0.00142
2015.81	0.00137
2025.45	0.00129
2035.1	0.00126
2044.74	0.00136
2054.38	0.00155
2064.03	0.00181
2073.67	0.00184
2083.32	0.00153
2092.96	0.00133
2102.61	0.00132
2112.25	0.0012
2121.9	0.00127
2131.54	0.00108
2141.19	0.0009306
2150.83	0.0007776
2160.48	0.0007267
2170.12	0.0006565
2179.77	0.0007746
2189.41	0.0007268
2199.06	0.0007396
2208.7	0.0007375
2218.35	0.0007071
2227.99	0.000635
2237.64	0.0006968
2247.28	0.0005539
2256.92	0.0005707
2266.57	0.0005636
2276.21	0.0006263
2285.86	0.0006052
2295.5	0.0005869
2305.15	0.0004845
2314.79	0.0005569
2324.44	0.0005727
2334.08	0.0004813
2343.73	0.0005705
2353.37	0.0006053
2363.02	0.0005758
2372.66	0.0006042
2382.31	0.0005502
2391.95	0.0006695
2401.6	0.0006709
2411.24	0.0006588
2420.89	0.0006259
2430.53	0.0005388
2440.18	0.0004818
2449.82	0.0004616
2459.47	0.0002987
2469.11	0.0003231
2478.75	0.000421
2488.4	0.0003597
2498.04	0.0004111
2507.69	0.0004575
2517.33	0.0004756
2526.98	0.0006255
2536.62	0.0005706
2546.27	0.0006306
2555.91	0.0004688
2565.56	0.0004332
2575.2	0.0005138
2584.85	0.0005685
2594.49	0.0006433
2604.14	0.0007571
2613.78	0.0006482
2623.43	0.0009651
2633.07	0.00101
2642.72	0.00106
2652.36	0.00112
2662.01	0.00122
2671.65	0.0012
2681.29	0.000877
2690.94	0.0007816
2700.58	0.0005422
2710.23	0.0004381
2719.87	0.0003978
2729.52	0.0004437
2739.16	0.0004518
2748.81	0.0003712
2758.45	0.0004004
2768.1	0.0002424
2777.74	0.0003847
2787.39	0.0003271
2797.03	0.0003845
2806.68	0.0006234
2816.32	0.0007515
2825.97	0.00116
2835.61	0.00228
2845.26	0.00411
2854.9	0.0034
2864.55	0.00181
2874.19	0.00186
2883.84	0.00217
2893.48	0.00279
2903.12	0.00383
2912.77	0.00462
2922.41	0.00459
2932.06	0.00423
2941.7	0.00629
2951.35	0.01521
2960.99	0.02098
2970.64	0.0096
2980.28	0.0048
2989.93	0.00523
2999.57	0.00642
3009.22	0.00687
3018.86	0.00749
3028.51	0.00797
3038.15	0.00754
3047.8	0.00651
3057.44	0.00503
3067.09	0.00354
3076.73	0.00326
3086.38	0.00303
3096.02	0.00242
3105.67	0.00168
3115.31	0.00138
3124.95	0.0009073
3134.6	0.0007643
3144.24	0.0005952
3153.89	0.000615
3163.53	0.0005867
3173.18	0.0007451
3182.82	0.00075
3192.47	0.0008819
3202.11	0.000842
3211.76	0.0007655
3221.4	0.0008338
3231.05	0.000777
3240.69	0.0007099
3250.34	0.0006214
3259.98	0.0005448
3269.63	0.0003976
3279.27	0.0004678
3288.92	0.0004388
3298.56	0.0004403
3308.21	0.0005572
3317.85	0.0003122
3327.49	0.0005872
3337.14	0.0007574
3346.78	0.00102
3356.43	0.00234
3366.07	0.00446
3375.72	0.00684
3385.36	0.00643
3395.01	0.00384
3404.65	0.00254
3414.3	0.00187
3423.94	0.002
3433.59	0.00261
3443.23	0.00429
3452.88	0.00598
3462.52	0.007
3472.17	0.00678
3481.81	0.00523
3491.46	0.00347
3501.1	0.0021
3510.75	0.00165
3520.39	0.00119
3530.04	0.0009127
3539.68	0.0008356
3549.32	0.0004714
3558.97	0.0006166
3568.61	0.0007056
3578.26	0.0005772
3587.9	0.0006181
3597.55	0.0004639
3607.19	0.0003386
3616.84	0.000481
3626.48	0.0004543
3636.13	0.0004957
3645.77	0.0004769
3655.42	0.0003971
3665.06	0.0004184
3674.71	0.0006192
3684.35	0.0003822
3694	0.0004329
3703.64	0.0003114
3713.29	0.0003209
3722.93	0.0004751
3732.58	0.0002535
3742.22	0.0001305
3751.86	0.0001645
3761.51	0.0002396
3771.15	5.87e-06
3780.8	0.0001886
3790.44	0.000153
3800.09	0.0003638
3809.73	0.0003743
3819.38	0.0001534
3829.02	0.0002883
3838.67	0.0003837
3848.31	0.0003238
3857.96	0.0003756
3867.6	0.0003065
3877.25	0.0003813
3886.89	0.0003049
3896.54	0.0002723
3906.18	0.000356
3915.83	0.000153
3925.47	0.0004669
3935.12	0.0004864
3944.76	0.0004177
3954.41	0.0006392
3964.05	0.0005941
3973.69	0.0007049
3983.34	0.0007392
3992.98	0.0007273
