Infrared Spectrum: o-Fluorophenol
Formula: C6 H5 F O
CAS: 367-12-4
State: SOLUTION (10% CCl4 FOR 3800-1330, 10% CS2 FOR 1330-400 CM^-^1)
Class: COBLENTZ III
Instrument: DOW KBr FOREPRISM-GRATING
Instrument parameters: BLAZED AT 3.5, 12.0, 20.0 MICRON AND CHANGED AT 5.0, 7.5, 14.9 MICRON
Sampling: TRANSMISSION
Path length: 0.011 CM, 0.011 CM
Resolution: 2
Origin: DOW CHEMICAL COMPANY
1/CM	TRANSMITTANCE
3773.53	0.9252
3764.61	0.9239
3755.69	0.9204
3746.77	0.9234
3737.85	0.928
3728.93	0.9369
3720.01	0.9326
3711.09	0.9256
3702.17	0.9189
3693.25	0.9132
3684.33	0.8996
3675.41	0.8953
3666.49	0.8933
3657.57	0.896
3648.65	0.8916
3639.73	0.8828
3630.81	0.8637
3621.89	0.8473
3612.97	0.7717
3604.05	0.3621
3595.13	0.076
3586.21	0.0625
3577.29	0.2254
3568.37	0.3809
3559.45	0.4936
3550.53	0.579
3541.61	0.6096
3532.69	0.6256
3523.77	0.6318
3514.85	0.6291
3505.93	0.6132
3497.01	0.5951
3488.09	0.5777
3479.17	0.5677
3470.25	0.5634
3461.33	0.5649
3452.41	0.57
3443.5	0.5818
3434.58	0.5964
3425.66	0.6152
3416.74	0.6346
3407.82	0.6512
3398.9	0.6666
3389.98	0.6829
3381.06	0.6973
3372.14	0.7095
3363.22	0.7214
3354.3	0.7321
3345.38	0.7428
3336.46	0.7557
3327.54	0.7664
3318.62	0.7769
3309.7	0.7874
3300.78	0.7951
3291.86	0.8033
3282.94	0.812
3274.02	0.8184
3265.1	0.8246
3256.18	0.8291
3247.26	0.8355
3238.34	0.84
3229.42	0.844
3220.5	0.8488
3211.58	0.8536
3202.66	0.8571
3193.74	0.8626
3184.82	0.8647
3175.9	0.8677
3166.98	0.8708
3158.06	0.874
3149.14	0.8765
3140.22	0.8762
3131.3	0.8753
3122.38	0.8709
3113.46	0.8603
3104.54	0.8454
3095.62	0.8259
3086.7	0.7856
3077.78	0.7675
3068.86	0.6669
3059.94	0.6503
3051.02	0.7079
3042.1	0.7776
3033.18	0.8117
3024.26	0.8338
3015.34	0.8428
3006.42	0.8377
2997.5	0.8026
2988.58	0.758
2979.66	0.7321
2970.74	0.7297
2961.82	0.7609
2952.9	0.7996
2943.98	0.7964
2935.06	0.766
2926.14	0.7738
2917.22	0.7966
2908.3	0.8106
2899.38	0.8158
2890.46	0.8189
2881.54	0.8183
2872.62	0.8082
2863.7	0.8322
2854.78	0.8569
2845.86	0.8609
2836.94	0.8538
2828.02	0.8601
2819.1	0.8723
2810.18	0.8761
2801.26	0.8788
2792.35	0.8781
2783.43	0.8774
2774.51	0.8784
2765.59	0.8771
2756.67	0.8757
2747.75	0.8749
2738.83	0.8772
2729.91	0.8783
2720.99	0.8724
2712.07	0.8697
2703.15	0.8691
2694.23	0.8603
2685.31	0.8613
2676.39	0.8675
2667.47	0.8727
2658.55	0.8758
2649.63	0.8768
2640.71	0.8716
2631.79	0.8669
2622.87	0.8695
2613.95	0.8709
2605.03	0.8709
2596.11	0.8691
2587.19	0.862
2578.27	0.8604
2569.35	0.8592
2560.43	0.857
2551.51	0.855
2542.59	0.8558
2533.67	0.8576
2524.75	0.8457
2515.83	0.8194
2506.91	0.8153
2497.99	0.8466
2489.07	0.8548
2480.15	0.856
2471.23	0.8452
2462.31	0.8386
2453.39	0.8382
2444.47	0.8419
2435.55	0.8405
2426.63	0.8421
2417.71	0.8495
2408.79	0.8486
2399.87	0.8477
2390.95	0.8426
2382.03	0.8421
2373.11	0.8508
2364.19	0.859
2355.27	0.8728
2346.35	0.8769
2337.43	0.8739
2328.51	0.8691
2319.59	0.8606
2310.67	0.8441
2301.75	0.8366
2292.83	0.8392
2283.91	0.8374
2274.99	0.8288
2266.07	0.8127
2257.15	0.805
2248.23	0.8193
2239.31	0.831
2230.39	0.8397
2221.47	0.8459
2212.55	0.8499
2203.63	0.8478
2194.71	0.8442
2185.79	0.8416
2176.87	0.8415
2167.95	0.8404
2159.03	0.8415
2150.11	0.8423
2141.2	0.8429
2132.28	0.8433
2123.36	0.8435
2114.44	0.8437
2105.52	0.844
2096.6	0.8433
2087.68	0.8438
2078.76	0.8324
2069.84	0.8222
2060.92	0.8212
2052	0.8234
2043.08	0.8244
2034.16	0.8266
2025.24	0.8229
2016.32	0.8117
2007.4	0.817
1998.48	0.8314
1989.56	0.834
1980.64	0.8337
1971.72	0.8466
1962.8	0.8596
1953.88	0.8544
1944.96	0.8551
1936.04	0.8496
1927.12	0.8197
1918.2	0.8355
1909.28	0.8508
1900.36	0.8599
1891.44	0.8358
1882.52	0.806
1873.6	0.8424
1864.68	0.859
1855.76	0.864
1846.84	0.855
1837.92	0.8542
1829	0.8599
1820.08	0.8635
1811.16	0.8613
1802.24	0.852
1793.32	0.8553
1784.4	0.8625
1775.48	0.857
1766.56	0.8156
1757.64	0.7689
1748.72	0.8123
1739.8	0.8394
1730.88	0.8543
1721.96	0.8383
1713.04	0.8085
1704.12	0.8024
1695.2	0.8216
1686.28	0.8377
1677.36	0.8506
1668.44	0.8592
1659.52	0.8568
1650.6	0.8621
1641.68	0.8458
1632.76	0.8091
1623.84	0.6593
1614.92	0.095
1606	0.3569
1597.08	0.4376
1588.16	0.5041
1579.24	0.6512
1570.32	0.773
1561.4	0.8439
1552.48	0.8057
1543.56	0.7433
1534.64	0.6757
1525.72	0.36
1516.8	0.1716
1507.88	0.0292
1498.96	0.0159
1490.05	0.324
1481.13	0.469
1472.21	0.3752
1463.29	0.5132
1454.37	0.4783
1445.45	0.6941
1436.53	0.7056
1427.61	0.7708
1418.69	0.7727
1409.77	0.7482
1400.85	0.6756
1391.93	0.6691
1383.01	0.7213
1374.09	0.724
1365.17	0.6966
1356.25	0.6529
1347.33	0.3515
1338.41	0.6153
1329.49	0.6708
1320.57	0.6462
1311.65	0.5599
1302.73	0.6175
1293.81	0.2848
1284.89	0.3254
1275.97	0.2665
1267.05	0.1656
1258.13	0.0109
1249.21	0.2938
1240.29	0.3118
1231.37	0.2545
1222.45	0.1719
1213.53	0.045
1204.61	0.208
1195.69	0.2925
1186.77	0.3818
1177.85	0.2409
1168.93	0.0646
1160.01	0.3669
1151.09	0.4572
1142.17	0.6449
1133.25	0.7735
1124.33	0.7968
1115.41	0.6707
1106.49	0.5561
1097.57	0.6189
1088.65	0.2166
1079.73	0.6524
1070.81	0.8082
1061.89	0.8337
1052.97	0.8231
1044.05	0.7386
1035.13	0.6111
1026.21	0.6218
1017.29	0.3793
1008.37	0.7394
999.453	0.8246
990.533	0.8459
981.613	0.8624
972.693	0.8832
963.773	0.8827
954.853	0.8722
945.933	0.8678
937.014	0.86
928.094	0.8317
919.174	0.4909
910.254	0.7021
901.334	0.7453
892.414	0.8391
883.494	0.8833
874.575	0.864
865.655	0.8445
856.735	0.5002
847.815	0.6104
838.895	0.491
829.975	0.6973
821.055	0.7624
812.136	0.7945
803.216	0.821
794.296	0.8196
785.376	0.7499
776.456	0.6698
767.536	0.5286
758.616	0.1756
749.696	0.0235
740.777	0.0251
731.857	0.5383
722.937	0.6666
714.017	0.761
705.097	0.7939
696.177	0.8179
687.257	0.7898
678.338	0.8013
669.418	0.8213
660.498	0.8349
651.578	0.8323
642.658	0.8534
633.738	0.8629
624.818	0.8649
615.899	0.8581
606.979	0.8537
598.059	0.8447
589.139	0.8156
580.219	0.7847
571.299	0.7189
562.379	0.7532
553.459	0.7323
544.54	0.7111
535.62	0.8028
526.7	0.8126
517.78	0.8188
508.86	0.8026
499.94	0.7918
491.02	0.8135
482.101	0.814
473.181	0.8056
464.261	0.791
455.341	0.7519
446.421	0.6004
437.501	0.6485
428.581	0.654
419.662	0.6379
410.742	0.5932
401.822	0.5304
392.902	0.4559
383.982	0.392
