Infrared Spectrum: Butyl trifluoroacetate
Formula: C 6 H 9 F 3 O 2
CAS: 367-64-6
State: gas
Instrument: HP-GC/MS/IRD
Origin: NIST Mass Spectrometry Data Center
1/CM	ABSORBANCE
550	0.000657
562	0.000438
574	0.0005256
586	0.0006351
598	0.0005475
610	0.000219
622	6.57e-05
634	8.76e-05
646	8.76e-05
658	0.0001095
670	0.0001095
682	0.0002847
694	0.0005694
706	0.0014892
718	0.0063729
730	0.0167754
742	0.0083439
754	0.0038982
766	0.0054312
778	0.0076212
790	0.0056721
802	0.0039201
814	0.0036354
826	0.0045114
838	0.0060882
850	0.0065262
862	0.0047961
874	0.0034821
886	0.0024966
898	0.0020586
910	0.0023652
922	0.0042924
934	0.0083439
946	0.0084753
958	0.0057378
970	0.003504
982	0.0029346
994	0.003285
1006	0.0032631
1018	0.0030222
1030	0.0024747
1042	0.003285
1054	0.0054531
1066	0.0065481
1078	0.0068328
1090	0.0095046
1102	0.0162936
1114	0.0328719
1126	0.0691821
1138	0.146292
1150	0.215846
1162	0.196377
1174	0.160417
1186	0.137247
1198	0.099207
1210	0.0949803
1222	0.122969
1234	0.123735
1246	0.0554289
1258	0.0217905
1270	0.0125487
1282	0.00876
1294	0.0079278
1306	0.009417
1318	0.0130086
1330	0.0206079
1342	0.0314703
1354	0.0294993
1366	0.0165564
1378	0.0097017
1390	0.0089571
1402	0.0084096
1414	0.0051465
1426	0.0037887
1438	0.004161
1450	0.0055626
1462	0.0079497
1474	0.0075993
1486	0.0043581
1498	0.00219
1510	0.0014454
1522	0.0012045
1534	0.0012045
1546	0.001752
1558	0.0018177
1570	0.0010512
1582	0.0007008
1594	0.0005913
1606	0.0005256
1618	0.0005694
1630	0.0005694
1642	0.0006351
1654	0.0007008
1666	0.0007665
1678	0.0008979
1690	0.001095
1702	0.0013359
1714	0.0018396
1726	0.0026937
1738	0.0044457
1750	0.0080811
1762	0.0145416
1774	0.0299154
1786	0.0736716
1798	0.114252
1810	0.0572028
1822	0.0193596
1834	0.0082125
1846	0.0040296
1858	0.00219
1870	0.0014454
1882	0.001095
1894	0.0009417
1906	0.0008103
1918	0.0007446
1930	0.0006351
1942	0.0006351
1954	0.000657
1966	0.0006132
1978	0.0005694
1990	0.0005256
2002	0.000438
2014	0.0003504
2026	0.0002847
2038	0.0002847
2050	0.0002628
2062	0.0002628
2074	0.0003285
2086	0.0002847
2098	0.0002409
2110	0.000219
2122	0.0001752
2134	0.0001533
2146	6.57e-05
2158	8.76e-05
2170	0.0001314
2182	0.0001314
2194	0.0001314
2206	8.76e-05
2218	2.19e-05
2230	4.38e-05
2242	4.38e-05
2254	6.57e-05
2266	0.0001752
2278	0.0002847
2290	0.000438
2302	0.0004599
2314	0.0005256
2326	0.0005037
2338	0.000438
2350	0.0003504
2362	0.0002847
2374	0.0002628
2386	0.0003285
2398	0.0003285
2410	0.0003285
2422	0.0002847
2434	0.0002847
2446	0.0002847
2458	0.0003723
2470	0.0004161
2482	0.0004599
2494	0.0004818
2506	0.000438
2518	0.0003285
2530	0.0002847
2542	0.000219
2554	0.0002628
2566	0.000219
2578	0.0001971
2590	0.0001752
2602	0.0001533
2614	0.0001095
2626	0.0001314
2638	0.0001314
2650	0.0001533
2662	0.0001533
2674	0.0001752
2686	0.0001533
2698	0.0001533
2710	0.0001752
2722	0.0002409
2734	0.0002847
2746	0.0003723
2758	0.0004599
2770	0.0005475
2782	0.0007446
2794	0.0009636
2806	0.0010731
2818	0.0013359
2830	0.0015987
2842	0.0025185
2854	0.0042267
2866	0.0068547
2878	0.0113442
2890	0.0137532
2902	0.0121545
2914	0.0139284
2926	0.0172791
2938	0.0231045
2950	0.0284262
2962	0.0323901
2974	0.0405807
2986	0.0262581
2998	0.0131181
3010	0.0070299
3022	0.0039858
3034	0.0027375
3046	0.0018834
3058	0.0012921
3070	0.0008979
3082	0.0007884
3094	0.0007008
3106	0.0005913
3118	0.0005475
3130	0.0004599
3142	0.0004599
3154	0.0003723
3166	0.0003504
3178	0.0002847
3190	0.0003285
3202	0.0002628
3214	0.0001971
3226	0.000219
3238	0.0001095
3250	0.0001095
3262	6.57e-05
3274	4.38e-05
3286	2.19e-05
3298	0
3310	6.57e-05
3322	4.38e-05
3334	8.76e-05
3346	6.57e-05
3358	8.76e-05
3370	2.19e-05
3382	4.38e-05
3394	6.57e-05
3406	0
3418	4.38e-05
3430	8.76e-05
3442	8.76e-05
3454	0.0001095
3466	8.76e-05
3478	0.0001533
3490	0.0001971
3502	0.000219
3514	0.0002847
3526	0.0003504
3538	0.0005475
3550	0.0007008
3562	0.0010074
3574	0.0013578
3586	0.0011388
3598	0.000657
3610	0.0004599
3622	0.0003066
3634	0.0002409
3646	0.0001533
3658	0.0002409
3670	0.0002409
3682	0.0002628
3694	0.0002628
3706	0.0001971
3718	0.0001971
3730	0.0001533
3742	0.0002847
3754	0.000219
3766	0.000219
3778	0.0001752
3790	0.0001971
3802	0.0001314
3814	0.0001971
3826	0.0002409
3838	0.0001752
