Infrared Spectrum: 5-Fluoro-2-methylaniline
Formula: C 7 H 8 F N
CAS: 367-29-3
State: gas
Origin: EPA-IR VAPOR PHASE LIBRARY
1/CM	ABSORBANCE
549.9	0.01762
559.547	0.01709
569.193	0.01591
578.84	0.01536
588.486	0.01732
598.133	0.01966
607.779	0.02355
617.426	0.02193
627.072	0.02208
636.719	0.02469
646.365	0.02811
656.012	0.03024
665.658	0.03062
675.305	0.03157
684.951	0.03302
694.598	0.03341
704.245	0.03007
713.891	0.03078
723.538	0.03803
733.184	0.03913
742.831	0.02721
752.477	0.02054
762.124	0.0203
771.77	0.02749
781.417	0.03736
791.063	0.0478
800.71	0.03157
810.356	0.02272
820.003	0.02883
829.649	0.04572
839.296	0.07703
848.943	0.05016
858.589	0.0313
868.236	0.01651
877.882	0.01157
887.529	0.00996
897.175	0.0093
906.822	0.00924
916.468	0.00939
926.115	0.0103
935.761	0.01233
945.408	0.01763
955.054	0.02694
964.701	0.02915
974.347	0.02412
983.994	0.02546
993.64	0.03794
1003.29	0.03502
1012.93	0.01879
1022.58	0.00988
1032.23	0.01048
1041.87	0.01181
1051.52	0.01408
1061.17	0.02098
1070.81	0.0277
1080.46	0.02613
1090.11	0.01847
1099.75	0.01783
1109.4	0.02686
1119.05	0.03954
1128.69	0.03818
1138.34	0.02462
1147.99	0.03301
1157.63	0.07886
1167.28	0.0873
1176.92	0.04723
1186.57	0.02776
1196.22	0.03394
1205.86	0.0359
1215.51	0.02713
1225.16	0.01187
1234.8	0.00823
1244.45	0.0077
1254.1	0.01164
1263.74	0.02463
1273.39	0.05045
1283.04	0.07495
1292.68	0.07441
1302.33	0.0528
1311.98	0.02609
1321.62	0.01304
1331.27	0.0073
1340.92	0.00482
1350.56	0.00432
1360.21	0.00503
1369.86	0.00708
1379.5	0.01043
1389.15	0.01165
1398.79	0.00982
1408.44	0.01114
1418.09	0.01984
1427.73	0.03042
1437.38	0.03819
1447.03	0.03401
1456.67	0.03079
1466.32	0.02662
1475.97	0.0298
1485.61	0.04081
1495.26	0.08801
1504.91	0.16258
1514.55	0.1691
1524.2	0.10152
1533.85	0.04136
1543.49	0.02067
1553.14	0.01572
1562.79	0.02021
1572.43	0.03089
1582.08	0.05122
1591.73	0.08656
1601.37	0.12172
1611.02	0.12965
1620.67	0.13755
1630.31	0.15427
1639.96	0.13453
1649.6	0.08611
1659.25	0.03966
1668.9	0.02073
1678.54	0.0144
1688.19	0.0112
1697.84	0.00888
1707.48	0.00745
1717.13	0.00669
1726.78	0.0058
1736.42	0.00507
1746.07	0.00453
1755.72	0.00418
1765.36	0.00392
1775.01	0.00371
1784.66	0.00369
1794.3	0.0035147
1803.95	0.0034748
1813.6	0.00378
1823.24	0.00487
1832.89	0.00671
1842.54	0.00748
1852.18	0.00699
1861.83	0.00496
1871.47	0.00398
1881.12	0.00393
1890.77	0.00377
1900.41	0.0033774
1910.06	0.0030014
1919.71	0.00295
1929.35	0.0029285
1939	0.0030599
1948.65	0.0031157
1958.29	0.0030733
1967.94	0.0029453
1977.59	0.0026785
1987.23	0.00270997
1996.88	0.0028768
2006.53	0.0029879
2016.17	0.0030505
2025.82	0.0029837
2035.47	0.0028812
2045.11	0.00272974
2054.76	0.0026744
2064.41	0.00277535
2074.05	0.00275009
2083.7	0.0027465
2093.35	0.0026538
2102.99	0.00268405
2112.64	0.00273666
2122.28	0.00277745
2131.93	0.00276779
2141.58	0.00273219
2151.22	0.0026503
2160.87	0.0026495
2170.52	0.0026519
2180.16	0.002581
2189.81	0.002471
2199.46	0.002392
2209.1	0.002267
2218.75	0.002236
2228.4	0.002267
2238.04	0.002401
2247.69	0.002548
2257.34	0.0025988
2266.98	0.002534
2276.63	0.002473
2286.28	0.00247
2295.92	0.00241
2305.57	0.002396
2315.22	0.0026065
2324.86	0.0028068
2334.51	0.0028359
2344.16	0.00272217
2353.8	0.002671
2363.45	0.0026581
2373.09	0.002563
2382.74	0.00252
2392.39	0.002433
2402.03	0.002377
2411.68	0.002339
2421.33	0.002295
2430.97	0.002481
2440.62	0.0028962
2450.27	0.0031004
2459.91	0.0028796
2469.56	0.002376
2479.21	0.002175
2488.85	0.002104
2498.5	0.002006
2508.15	0.001873
2517.79	0.001724
2527.44	0.00161
2537.09	0.001764
2546.73	0.00198
2556.38	0.002085
2566.03	0.00221
2575.67	0.002324
2585.32	0.002503
2594.96	0.002424
2604.61	0.002205
2614.26	0.001989
2623.9	0.001743
2633.55	0.00168
2643.2	0.00151
2652.84	0.00148
2662.49	0.00157
2672.14	0.00165
2681.78	0.001744
2691.43	0.001853
2701.08	0.002077
2710.72	0.002241
2720.37	0.0026003
2730.02	0.0032681
2739.66	0.00392
2749.31	0.0038
2758.96	0.0026671
2768.6	0.002038
2778.25	0.002114
2787.9	0.002349
2797.54	0.00270172
2807.19	0.0031026
2816.84	0.0033216
2826.48	0.0036364
2836.13	0.00426
2845.77	0.00582
2855.42	0.00973
2865.07	0.01812
2874.71	0.02403
2884.36	0.02267
2894.01	0.01822
2903.65	0.02133
2913.3	0.02518
2922.95	0.02703
2932.59	0.02904
2942.24	0.02849
2951.89	0.0192
2961.53	0.01489
2971.18	0.01633
2980.83	0.01634
2990.47	0.01369
3000.12	0.00924
3009.77	0.00846
3019.41	0.01187
3029.06	0.01869
3038.71	0.0215
3048.35	0.0184
3058	0.01025
3067.64	0.00711
3077.29	0.00742
3086.94	0.00744
3096.58	0.00626
3106.23	0.00437
3115.88	0.0034048
3125.52	0.002378
3135.17	0.001802
3144.82	0.00133
3154.46	0.00117
3164.11	0.00072
3173.76	0.00053
3183.4	0.00049
3193.05	0.00086
3202.7	0.00126
3212.34	0.00157
3221.99	0.001913
3231.64	0.00191
3241.28	0.00154
3250.93	0.00096
3260.58	0.00049
3270.22	0.00038
3279.87	0.00014
3289.52	0.00039
3299.16	0.00018
3308.81	0.00017
3318.45	0.00016
3328.1	0.00016
3337.75	0.00011
3347.39	0.00025
3357.04	0.00041
3366.69	0.0006
3376.33	0.00109
3385.98	0.00251
3395.63	0.00538
3405.27	0.01136
3414.92	0.01471
3424.57	0.01285
3434.21	0.00675
3443.86	0.0032671
3453.51	0.002399
3463.15	0.0026488
3472.8	0.0045
3482.45	0.00872
3492.09	0.01424
3501.74	0.0159
3511.39	0.01217
3521.03	0.00694
3530.68	0.0033579
3540.33	0.00191
3549.97	0.00132
3559.62	0.00119
3569.26	0.00111
3578.91	0.00112
3588.56	0.00096
3598.2	0.00099
3607.85	0.00096
3617.5	0.00117
3627.14	0.00112
3636.79	0.00113
3646.44	0.00112
3656.08	0.00122
3665.73	0.00104
3675.38	0.00125
3685.02	0.00122
3694.67	0.00129
3704.32	0.0013
3713.96	0.0013
3723.61	0.00152
3733.26	0.00149
3742.9	0.001701
3752.55	0.001814
3762.2	0.001785
3771.84	0.001786
3781.49	0.001754
3791.13	0.001696
3800.78	0.00152
3810.43	0.001765
3820.07	0.00175
3829.72	0.00166
3839.37	0.001787
3849.01	0.001931
3858.66	0.002172
3868.31	0.002272
3877.95	0.002134
3887.6	0.002091
3897.25	0.001794
3906.89	0.001911
3916.54	0.001832
3926.19	0.001814
3935.83	0.001873
3945.48	0.001964
3955.13	0.002078
3964.77	0.002074
3974.42	0.001957
3984.07	0.001916
3993.71	0.00187
