Infrared Spectrum: 1,1,1-TRIFLUOROACETYL ACETONE
Formula: C5 H5 O2 F3
CAS: 367-57-7
State: LIQUID
Class: COBLENTZ
Instrument: Not specified, most likely a grating spectrometer.
Sampling: TRANSMISSION
Path length: 0.00204 CM
Resolution: 4
Origin: STANDARD OIL OF OHIO
MICROMETERS	TRANSMITTANCE
2.027	0.969
2.06075	0.966
2.09449	0.967
2.12824	0.966
2.16198	0.966
2.19573	0.962
2.22948	0.957
2.26322	0.951
2.29697	0.956
2.33071	0.962
2.36446	0.964
2.39821	0.962
2.43195	0.957
2.4657	0.956
2.49944	0.959
2.53319	0.959
2.56694	0.962
2.60068	0.966
2.63443	0.967
2.66817	0.964
2.70192	0.959
2.73567	0.951
2.76941	0.934
2.80316	0.91
2.8369	0.875
2.87065	0.832
2.9044	0.81
2.93814	0.812
2.97189	0.819
3.00564	0.829
3.03938	0.832
3.07313	0.836
3.10687	0.834
3.14062	0.79
3.17437	0.77
3.20811	0.787
3.24186	0.798
3.2756	0.765
3.30935	0.75
3.3431	0.751
3.37684	0.751
3.41059	0.763
3.44433	0.775
3.47808	0.78
3.51183	0.782
3.54557	0.785
3.57932	0.788
3.61306	0.793
3.64681	0.798
3.68056	0.809
3.7143	0.82
3.74805	0.827
3.78179	0.832
3.81554	0.837
3.84929	0.832
3.88303	0.829
3.91678	0.829
3.95052	0.832
3.98427	0.836
4.01802	0.837
4.05176	0.842
4.08551	0.849
4.11925	0.849
4.153	0.844
4.18675	0.846
4.22049	0.849
4.25424	0.851
4.28798	0.858
4.32173	0.861
4.35548	0.866
4.38922	0.873
4.42297	0.88
4.45671	0.88
4.49046	0.883
4.52421	0.885
4.55795	0.89
4.5917	0.89
4.62544	0.891
4.65919	0.89
4.69294	0.893
4.72668	0.896
4.76043	0.896
4.79417	0.891
4.82792	0.88
4.86167	0.881
4.89541	0.886
4.92916	0.886
4.96291	0.881
4.99665	0.888
5.0304	0.886
5.06414	0.883
5.09789	0.883
5.13164	0.881
5.16538	0.878
5.19913	0.88
5.23287	0.876
5.26662	0.871
5.30037	0.866
5.33411	0.869
5.36786	0.875
5.4016	0.875
5.43535	0.864
5.4691	0.853
5.50284	0.827
5.53659	0.798
5.57033	0.773
5.60408	0.766
5.63783	0.775
5.67157	0.758
5.70532	0.717
5.73906	0.643
5.77281	0.547
5.80656	0.459
5.8403	0.451
5.87405	0.452
5.90779	0.402
5.94154	0.285
5.97529	0.211
6.00903	0.192
6.04278	0.182
6.07652	0.165
6.11027	0.143
6.14402	0.135
6.17776	0.128
6.21151	0.131
6.24525	0.16
6.279	0.206
6.31275	0.305
6.34649	0.386
6.38024	0.461
6.41398	0.532
6.44773	0.569
6.48148	0.608
6.51522	0.623
6.54897	0.643
6.58271	0.65
6.61646	0.65
6.65021	0.625
6.68395	0.581
6.7177	0.535
6.75145	0.506
6.78519	0.501
6.81894	0.503
6.85268	0.5
6.88643	0.456
6.92018	0.408
6.95392	0.364
6.98767	0.339
7.02141	0.351
7.05516	0.405
7.08891	0.452
7.12265	0.51
7.1564	0.537
7.19014	0.511
7.22389	0.451
7.25764	0.388
7.29138	0.398
7.32513	0.466
7.35887	0.513
7.39262	0.537
7.42637	0.54
7.46011	0.506
7.49386	0.467
7.5276	0.396
7.56135	0.337
7.5951	0.288
7.62884	0.256
7.66259	0.229
7.69633	0.214
7.73008	0.206
7.76383	0.202
7.79757	0.204
7.83132	0.212
7.86506	0.234
7.89881	0.265
7.93256	0.3
7.9663	0.336
8.00005	0.364
8.03379	0.371
8.06754	0.354
8.10129	0.302
8.13503	0.25
8.16878	0.209
8.20252	0.194
8.23627	0.184
8.27002	0.175
8.30376	0.173
8.33751	0.179
8.37125	0.187
8.405	0.199
8.43875	0.204
8.47249	0.206
8.50624	0.204
8.53998	0.199
8.57373	0.187
8.60748	0.177
8.64122	0.173
8.67497	0.179
8.70872	0.212
8.74246	0.253
8.77621	0.305
8.80995	0.366
8.8437	0.38
8.87745	0.356
8.91119	0.292
8.94494	0.224
8.97868	0.192
9.01243	0.217
9.04618	0.295
9.07992	0.375
9.11367	0.457
9.14741	0.579
9.18116	0.635
9.21491	0.685
9.24865	0.714
9.2824	0.734
9.31614	0.75
9.34989	0.753
9.38364	0.756
9.41738	0.751
9.45113	0.743
9.48487	0.744
9.51862	0.751
9.55237	0.763
9.58611	0.758
9.61986	0.744
9.6536	0.739
9.68735	0.736
9.7211	0.741
9.75484	0.75
9.78859	0.755
9.82233	0.75
9.85608	0.739
9.88983	0.738
9.92357	0.75
9.95732	0.76
9.99106	0.775
10.0248	0.785
10.0586	0.788
10.0923	0.795
10.126	0.798
10.1598	0.8
10.1935	0.8
10.2273	0.798
10.261	0.79
10.2948	0.785
10.3285	0.783
10.3623	0.787
10.396	0.79
10.4298	0.792
10.4635	0.795
10.4973	0.795
10.531	0.782
10.5647	0.763
10.5985	0.758
10.6322	0.758
10.666	0.756
10.6997	0.751
10.7335	0.739
10.7672	0.724
10.801	0.707
10.8347	0.694
10.8685	0.68
10.9022	0.67
10.936	0.662
10.9697	0.653
11.0034	0.65
11.0372	0.643
11.0709	0.638
11.1047	0.633
11.1384	0.628
11.1722	0.625
11.2059	0.623
11.2397	0.623
11.2734	0.623
11.3072	0.621
11.3409	0.621
11.3747	0.619
11.4084	0.616
11.4421	0.614
11.4759	0.606
11.5096	0.591
11.5434	0.542
11.5771	0.467
11.6109	0.444
11.6446	0.442
11.6784	0.496
11.7121	0.569
11.7459	0.635
11.7796	0.673
11.8134	0.702
11.8471	0.724
11.8808	0.743
11.9146	0.758
11.9483	0.771
11.9821	0.778
12.0158	0.782
12.0496	0.78
12.0833	0.778
12.1171	0.773
12.1508	0.765
12.1846	0.75
12.2183	0.729
12.252	0.702
12.2858	0.672
12.3195	0.619
12.3533	0.587
12.387	0.538
12.4208	0.506
12.4545	0.488
12.4883	0.456
12.522	0.43
12.5558	0.429
12.5895	0.456
12.6233	0.54
12.657	0.597
12.6907	0.653
12.7245	0.685
12.7582	0.721
12.792	0.768
12.8257	0.788
12.8595	0.804
12.8932	0.819
12.927	0.829
12.9607	0.832
12.9945	0.834
13.0282	0.832
13.062	0.822
13.0957	0.807
13.1294	0.8
13.1632	0.798
13.1969	0.797
13.2307	0.798
13.2644	0.805
13.2982	0.809
13.3319	0.814
13.3657	0.819
13.3994	0.82
13.4332	0.819
13.4669	0.812
13.5007	0.802
13.5344	0.787
13.5681	0.771
13.6019	0.734
13.6356	0.628
13.6694	0.52
13.7031	0.489
13.7369	0.454
13.7706	0.469
13.8044	0.56
13.8381	0.645
13.8719	0.69
13.9056	0.721
13.9394	0.743
13.9731	0.763
14.0068	0.78
14.0406	0.795
14.0743	0.807
14.1081	0.819
14.1418	0.826
14.1756	0.829
14.2093	0.832
14.2431	0.836
14.2768	0.836
14.3106	0.836
14.3443	0.836
14.378	0.836
14.4118	0.837
14.4455	0.837
14.4793	0.837
14.513	0.836
14.5468	0.832
14.5805	0.827
14.6143	0.819
14.648	0.815
14.6818	0.812
14.7155	0.812
14.7493	0.817
14.783	0.819
