Infrared Spectrum: 2,4-Difluorophenol
Formula: C 6 H 4 F 2 O
CAS: 367-27-1
State: gas
Origin: EPA-IR VAPOR PHASE LIBRARY
1/CM	ABSORBANCE
549.9	0.000179
559.547	0.00053795
569.193	0.0007636
578.84	0.0011579
588.486	0.001499
598.133	0.0014126
607.779	0.0010318
617.426	0.0006586
627.072	0.0004347
636.719	0.0004708
646.365	0.00048149
656.012	0.00053266
665.658	0.0005907
675.305	0.00045533
684.951	0.0004072
694.598	0.0003791
704.245	0.00055578
713.891	0.0008935
723.538	0.001479
733.184	0.001469
742.831	0.0007883
752.477	0.00051325
762.124	0.0005967
771.77	0.001719
781.417	0.004159
791.063	0.004539
800.71	0.002859
810.356	0.002079
820.003	0.001499
829.649	0.001649
839.296	0.002389
848.943	0.004969
858.589	0.002459
868.236	0.0013358
877.882	0.0006282
887.529	0.0004482
897.175	0.0004231
906.822	0.0004078
916.468	0.0003869
926.115	0.00053214
935.761	0.0008283
945.408	0.002049
955.054	0.003889
964.701	0.003679
974.347	0.001479
983.994	0.0004529
993.64	0.0004031
1003.29	0.000435
1012.93	0.0003994
1022.58	0.0004264
1032.23	0.00047631
1041.87	0.00053638
1051.52	0.000576
1061.17	0.0006035
1070.81	0.0011245
1080.46	0.003519
1090.11	0.003809
1099.75	0.002489
1109.4	0.0008325
1119.05	0.0012985
1128.69	0.005119
1138.34	0.005849
1147.99	0.003829
1157.63	0.001669
1167.28	0.001569
1176.92	0.001499
1186.57	0.001669
1196.22	0.002099
1205.86	0.004449
1215.51	0.007839
1225.16	0.008389
1234.8	0.005829
1244.45	0.005199
1254.1	0.006349
1263.74	0.005309
1273.39	0.002119
1283.04	0.001809
1292.68	0.002449
1302.33	0.002469
1311.98	0.001879
1321.62	0.0012123
1331.27	0.0010269
1340.92	0.0013839
1350.56	0.002789
1360.21	0.002899
1369.86	0.002199
1379.5	0.0007717
1389.15	0.0005631
1398.79	0.0005929
1408.44	0.0005882
1418.09	0.00054191
1427.73	0.0010569
1437.38	0.001809
1447.03	0.001909
1456.67	0.0012471
1466.32	0.0008212
1475.97	0.0009098
1485.61	0.002279
1495.26	0.007249
1504.91	0.016229
1514.55	0.021079
1524.2	0.014889
1533.85	0.006119
1543.49	0.001839
1553.14	0.0010805
1562.79	0.0007017
1572.43	0.0006625
1582.08	0.0007022
1591.73	0.000915
1601.37	0.001559
1611.02	0.002469
1620.67	0.002779
1630.31	0.001899
1639.96	0.0010962
1649.6	0.0007607
1659.25	0.0006321
1668.9	0.00051804
1678.54	0.00049041
1688.19	0.00050846
1697.84	0.0005281
1707.48	0.000465964
1717.13	0.000466026
1726.78	0.0004169
1736.42	0.000458948
1746.07	0.0003843
1755.72	0.000347
1765.36	0.0004141
1775.01	0.0003801
1784.66	0.0003641
1794.3	0.0003711
1803.95	0.000444
1813.6	0.0004307
1823.24	0.00044933
1832.89	0.00046249
1842.54	0.0005595
1852.18	0.0006296
1861.83	0.0005671
1871.47	0.00045102
1881.12	0.0004387
1890.77	0.000342
1900.41	0.0004065
1910.06	0.0004058
1919.71	0.0003791
1929.35	0.0004006
1939	0.0004376
1948.65	0.0004206
1958.29	0.0004325
1967.94	0.0004271
1977.59	0.000433
1987.23	0.0003969
1996.88	0.0004476
2006.53	0.00045405
2016.17	0.00044963
2025.82	0.0003848
2035.47	0.0004388
2045.11	0.0004306
2054.76	0.0004431
2064.41	0.0003976
2074.05	0.0004381
2083.7	0.00049787
2093.35	0.00047601
2102.99	0.0004209
2112.64	0.000367
2122.28	0.0003817
2131.93	0.0003798
2141.58	0.0003951
2151.22	0.0003868
2160.87	0.000344
2170.52	0.0004042
2180.16	0.0003818
2189.81	0.0004059
2199.46	0.0003951
2209.1	0.0003947
2218.75	0.0004084
2228.4	0.0004156
2238.04	0.0004411
2247.69	0.0004164
2257.34	0.0004042
2266.98	0.0003847
2276.63	0.0004256
2286.28	0.00048268
2295.92	0.00048633
2305.57	0.00052279
2315.22	0.00049714
2324.86	0.0004389
2334.51	0.000367
2344.16	0.000409
2353.8	0.000466565
2363.45	0.00045289
2373.09	0.00044964
2382.74	0.0004331
2392.39	0.00048518
2402.03	0.00050576
2411.68	0.00051382
2421.33	0.0005062
2430.97	0.00052302
2440.62	0.00053972
2450.27	0.000439
2459.91	0.00045001
2469.56	0.00045179
2479.21	0.00045049
2488.85	0.00051622
2498.5	0.0004485
2508.15	0.0004424
2517.79	0.0004139
2527.44	0.00046204
2537.09	0.00047902
2546.73	0.00047078
2556.38	0.0004407
2566.03	0.00047788
2575.67	0.0004021
2585.32	0.0004457
2594.96	0.0004171
2604.61	0.000461341
2614.26	0.0004056
2623.9	0.0004287
2633.55	0.0004447
2643.2	0.00045396
2652.84	0.0004486
2662.49	0.0004114
2672.14	0.0004254
2681.78	0.0004458
2691.43	0.0004138
2701.08	0.0003873
2710.72	0.0004714
2720.37	0.00045628
2730.02	0.0004413
2739.66	0.0003849
2749.31	0.0003959
2758.96	0.0003683
2768.6	0.000304
2778.25	0.0004485
2787.9	0.00047415
2797.54	0.0004112
2807.19	0.000458013
2816.84	0.0003825
2826.48	0.00047007
2836.13	0.000353
2845.77	0.0004381
2855.42	0.000464109
2865.07	0.000426
2874.71	0.000398
2884.36	0.0004124
2894.01	0.000325
2903.65	0.000356
2913.3	0.0004351
2922.95	0.0004129
2932.59	0.000276
2942.24	0.000331
2951.89	0.0003874
2961.53	0.000327
2971.18	0.00048627
2980.83	0.00047861
2990.47	0.0004368
3000.12	0.000283
3009.77	0.000332
3019.41	0.0004165
3029.06	0.0003918
3038.71	0.0003913
3048.35	0.0004464
3058	0.0003789
3067.64	0.0003961
3077.29	0.0004488
3086.94	0.00048187
3096.58	0.000467368
3106.23	0.00031
3115.88	0.000183
3125.52	0.000326
3135.17	0.000262
3144.82	0.000187
3154.46	0.000124
3164.11	0.000326
3173.76	0.000328
3183.4	0.000242
3193.05	0.000185
3202.7	0.000295
3212.34	0.000197
3221.99	8.7e-05
3231.64	0.000108
3241.28	0.000284
3250.93	0.000215
3260.58	0.000227
3270.22	0.000157
3279.87	0.000202
3289.52	0.000203
3299.16	4.8e-05
3308.81	0.000244
3318.45	0.000166
3328.1	2.3e-05
3337.75	0.000159
3347.39	0.000118
3357.04	6.3e-05
3366.69	9.9e-05
3376.33	7.2e-05
3385.98	0.000188
3395.63	6e-05
3405.27	0.000101
3414.92	0.000101
3424.57	0.000217
3434.21	3.6e-05
3443.86	5e-05
3453.51	0.000131
3463.15	0.000207
3472.8	9.2e-05
3482.45	0.000151
3492.09	0.000158
3501.74	0.000213
3511.39	0.000193
3521.03	0.000112
3530.68	1.8e-05
3540.33	0.000249
3549.97	0.000269
3559.62	0.000258
3569.26	0.000156
3578.91	0.000158
3588.56	0.000294
3598.2	0.000294
3607.85	0.00049081
3617.5	0.002069
3627.14	0.005989
3636.79	0.006029
3646.44	0.003309
3656.08	0.0010193
3665.73	0.0006362
3675.38	0.000255
3685.02	0.000187
3694.67	0.000141
3704.32	0.00026
3713.96	0.000287
3723.61	0.000152
3733.26	0.000245
3742.9	0.000265
3752.55	0.000259
3762.2	0.000216
3771.84	0.000325
3781.49	0.000315
3791.13	0.000288
3800.78	0.000353
3810.43	0.000319
3820.07	0.00025
3829.72	0.000284
3839.37	0.000231
3849.01	0.000189
3858.66	0.000301
3868.31	0.000304
3877.95	0.000313
3887.6	0.000283
3897.25	0.000257
3906.89	0.000354
3916.54	0.000199
3926.19	0.000304
3935.83	0.00029
3945.48	0.000223
3955.13	0.0003785
3964.77	0.000315
3974.42	0.000253
3984.07	0.000336
3993.71	0.000288
