Infrared Spectrum: 4-Bromo-2-fluoroaniline
Formula: C 6 H 5 Br F N
CAS: 367-24-8
State: gas
Origin: EPA-IR VAPOR PHASE LIBRARY
1/CM	ABSORBANCE
549.8	0.0075324
559.445	0.0109324
569.09	0.0145124
578.734	0.0102324
588.379	0.0080424
598.024	0.0076224
607.669	0.0086324
617.313	0.0144024
626.958	0.0262424
636.603	0.0219624
646.248	0.0150624
655.893	0.0134724
665.537	0.0127824
675.182	0.0112724
684.827	0.0094424
694.472	0.0089524
704.116	0.0106024
713.761	0.0121124
723.406	0.0108324
733.051	0.0088624
742.695	0.0087124
752.34	0.0100424
761.985	0.0109424
771.63	0.0140124
781.275	0.0182124
790.919	0.0182024
800.564	0.0218224
810.209	0.0168124
819.854	0.0097224
829.498	0.0058824
839.143	0.0065424
848.788	0.0121124
858.433	0.0211624
868.078	0.0214624
877.722	0.0396824
887.367	0.0328524
897.012	0.0110224
906.657	0.0078124
916.301	0.0064024
925.946	0.0048124
935.591	0.0041124
945.236	0.0034424
954.88	0.0036924
964.525	0.0033624
974.17	0.0031724
983.815	0.0030324
993.46	0.0028024
1003.1	0.0029524
1012.75	0.0021824
1022.39	0.0025724
1032.04	0.0023624
1041.68	0.0034324
1051.33	0.0066724
1060.97	0.0107724
1070.62	0.0099624
1080.26	0.0055624
1089.91	0.0042324
1099.55	0.0032824
1109.2	0.0033724
1118.84	0.0029324
1128.49	0.0051324
1138.13	0.0083924
1147.78	0.0110024
1157.42	0.0089124
1167.07	0.0038924
1176.71	0.0033724
1186.36	0.0071624
1196	0.0191924
1205.64	0.0315824
1215.29	0.0313424
1224.93	0.0142124
1234.58	0.0084424
1244.22	0.0067424
1253.87	0.0065824
1263.51	0.0102124
1273.16	0.0231924
1282.8	0.0436824
1292.45	0.0305624
1302.09	0.0132124
1311.74	0.0209924
1321.38	0.0222624
1331.03	0.0085124
1340.67	0.0036624
1350.32	0.0028724
1359.96	0.0025724
1369.61	0.0027824
1379.25	0.0026824
1388.9	0.0034224
1398.54	0.0061624
1408.18	0.0107024
1417.83	0.0133424
1427.47	0.0133924
1437.12	0.0079824
1446.76	0.0044124
1456.41	0.0047524
1466.05	0.0071624
1475.7	0.0212124
1485.34	0.0680524
1494.99	0.126762
1504.63	0.118102
1514.28	0.0538424
1523.92	0.0205724
1533.57	0.0090124
1543.21	0.0061424
1552.86	0.0058224
1562.5	0.0076324
1572.15	0.0136324
1581.79	0.0227724
1591.44	0.0211524
1601.08	0.0141924
1610.73	0.0162524
1620.37	0.0241224
1630.01	0.0349024
1639.66	0.0267124
1649.3	0.0096324
1658.95	0.0045024
1668.59	0.0030824
1678.24	0.0023324
1687.88	0.0024124
1697.53	0.0029824
1707.17	0.0033224
1716.82	0.0034624
1726.46	0.0024524
1736.11	0.0017924
1745.75	0.0015924
1755.4	0.0015324
1765.04	0.0015424
1774.69	0.0014924
1784.33	0.0013724
1793.98	0.0011324
1803.62	0.0009229
1813.27	0.0008548
1822.91	0.0010273
1832.55	0.0013524
1842.2	0.0019424
1851.84	0.0019424
1861.49	0.0015024
1871.13	0.0010385
1880.78	0.0008301
1890.42	0.0008153
1900.07	0.0007759
1909.71	0.0008435
1919.36	0.0008075
1929	0.0008706
1938.65	0.0009514
1948.29	0.0009145
1957.94	0.0008422
1967.58	0.0007956
1977.23	0.0007713
1986.87	0.0007677
1996.52	0.0007466
2006.16	0.0007247
2015.81	0.0006513
2025.45	0.0007123
2035.1	0.0007939
2044.74	0.0008084
2054.38	0.0010924
2064.03	0.0012124
2073.67	0.0011724
2083.32	0.000974
2092.96	0.0010092
2102.61	0.0007538
2112.25	0.0005861
2121.9	0.0006215
2131.54	0.0005151
2141.19	0.0005377
2150.83	0.0003936
2160.48	0.000438
2170.12	0.0004269
2179.77	0.0003788
2189.41	0.0004048
2199.06	0.0005372
2208.7	0.0006106
2218.35	0.0004863
2227.99	0.0004058
2237.64	0.0004111
2247.28	0.0005521
2256.92	0.0005902
2266.57	0.0007395
2276.21	0.0007538
2285.86	0.0007319
2295.5	0.0008368
2305.15	0.0005983
2314.79	0.0004008
2324.44	0.0003931
2334.08	0.0003863
2343.73	0.0003858
2353.37	0.0004603
2363.02	0.0005189
2372.66	0.0005428
2382.31	0.0005712
2391.95	0.0006073
2401.6	0.0007056
2411.24	0.0008279
2420.89	0.000716
2430.53	0.000544
2440.18	0.0003311
2449.82	0.0003959
2459.47	0.0004208
2469.11	0.0004681
2478.75	0.0004371
2488.4	0.0003949
2498.04	0.0003614
2507.69	0.0004945
2517.33	0.0004816
2526.98	0.0004949
2536.62	0.0004322
2546.27	0.0002704
2555.91	0.0003934
2565.56	0.0004694
2575.2	0.0003533
2584.85	0.000454
2594.49	0.0007552
2604.14	0.0010413
2613.78	0.0008303
2623.43	0.0004856
2633.07	0.0003905
2642.72	0.0003699
2652.36	0.0003801
2662.01	0.0003639
2671.65	0.0003387
2681.29	0.0002705
2690.94	0.0004552
2700.58	0.0002921
2710.23	0.0002212
2719.87	0.0002687
2729.52	0.0001979
2739.16	0.00016165
2748.81	0.0002218
2758.45	0.0001911
2768.1	0.0002854
2777.74	0.0003018
2787.39	0.000226
2797.03	0.0002567
2806.68	0.00015378
2816.32	0.00011122
2825.97	0.0002135
2835.61	0.0002793
2845.26	0.0003536
2854.9	0.0004163
2864.55	0.0005213
2874.19	0.0005499
2883.84	0.0004749
2893.48	0.0003847
2903.12	0.0002772
2912.77	0.0003012
2922.41	0.0003232
2932.06	0.0002964
2941.7	0.0003283
2951.35	0.0004261
2960.99	0.0002205
2970.64	0.00010292
2980.28	0.0004071
2989.93	0.0004366
2999.57	0.0005781
3009.22	0.0005141
3018.86	0.0009989
3028.51	0.0020724
3038.15	0.0042024
3047.8	0.0040624
3057.44	0.0024424
3067.09	0.0023324
3076.73	0.0025924
3086.38	0.0018124
3096.02	0.000945
3105.67	0.0004905
3115.31	0.0003886
3124.95	0.0003371
3134.6	0.0002325
3144.24	0.000264
3153.89	0.0003087
3163.53	0.0002039
3173.18	0.0003804
3182.82	0.0006338
3192.47	0.0007872
3202.11	0.0007845
3211.76	0.0010422
3221.4	0.0011124
3231.05	0.0010724
3240.69	0.0007191
3250.34	0.000565
3259.98	0.0004908
3269.63	0.0002074
3279.27	0.0002524
3288.92	0.0004209
3298.56	0.00017223
3308.21	0.0003651
3317.85	0.0002705
3327.49	0.0003005
3337.14	0.0001753
3346.78	0.000217
3356.43	0.0002263
3366.07	0.0005518
3375.72	0.0010152
3385.36	0.0016624
3395.01	0.0034724
3404.65	0.0078324
3414.3	0.0140724
3423.94	0.0141924
3433.59	0.0085624
3443.23	0.0024024
3452.88	0.0013624
3462.52	0.0013224
3472.17	0.0020624
3481.81	0.0038224
3491.46	0.0062824
3501.1	0.0083224
3510.75	0.0084924
3520.39	0.0068324
3530.04	0.0043424
3539.68	0.0018424
3549.32	0.0008704
3558.97	0.000531
3568.61	0.0004293
3578.26	0.0001862
3587.9	0.0002963
3597.55	0.000254
3607.19	0.0003839
3616.84	0.0003031
3626.48	0.0003814
3636.13	6.687e-05
3645.77	0.0002173
3655.42	0.0004827
3665.06	0
3674.71	0.000483
3684.35	0.0005171
3694	0.0003166
3703.64	0.0004063
3713.29	0.0004054
3722.93	0.0005107
3732.58	0.0005547
3742.22	0.0005119
3751.86	0.0005655
3761.51	0.0002855
3771.15	0.0003488
3780.8	0.0003027
3790.44	0.0001824
3800.09	0.0004417
3809.73	0.0001901
3819.38	0.0003465
3829.02	0.0005035
3838.67	0.0005163
3848.31	0.0003668
3857.96	0.0007858
3867.6	0.0009325
3877.25	0.0005975
3886.89	0.0007285
3896.54	0.0007019
3906.18	0.0005438
3915.83	0.0006519
3925.47	0.0004657
3935.12	0.0004385
3944.76	0.0005029
3954.41	0.0007144
3964.05	0.0005693
3973.69	0.0004336
3983.34	0.0003542
3992.98	0.0006036
