Infrared Spectrum: BENZIMIDAZOLE, 5-METHOXY-2-(TRIFLUOROMETHYL)-
Formula: C9 H7 F3 N2 O
CAS: 3671-65-6
State: SOLID (KBr DISC)
Class: COBLENTZ III
Instrument: UNICAM SP-200
Sampling: TRANSMISSION
Resolution: 2
Origin: FISONS LTD., VIA S.D.C. (DR. G. T. NEWBOLD)
1/CM	TRANSMITTANCE
646.539	0.911
658.122	0.914
669.706	0.915
681.289	0.901
692.872	0.874
704.455	0.86
716.039	0.809
727.622	0.652
739.205	0.802
750.789	0.7486
762.372	0.798
773.955	0.6081
785.538	0.7298
797.122	0.761
808.705	0.659
820.288	0.3642
831.872	0.2297
843.455	0.614
855.038	0.614
866.621	0.636
878.205	0.634
889.788	0.68
901.371	0.717
912.955	0.753
924.538	0.771
936.121	0.782
947.704	0.758
959.288	0.51
970.871	0.66
982.454	0.447
994.038	0.11
1005.62	0.791
1017.2	0.759
1028.79	0.4954
1040.37	0.25
1051.95	0.688
1063.54	0.682
1075.12	0.587
1086.7	0.489
1098.29	0.358
1109.87	0.188
1121.45	0.025
1133.04	0.026
1144.62	0.038
1156.2	0.035
1167.79	0.011
1179.37	0.009
1190.95	0.021
1202.54	0.022
1214.12	0.0559
1225.7	0.306
1237.29	0.09
1248.87	0.268
1260.45	0.1581
1272.04	0.033
1283.62	0.044
1295.2	0.4138
1306.79	0.639
1318.37	0.782
1329.95	0.833
1341.54	0.656
1353.12	0.5788
1364.7	0.838
1376.29	0.5412
1387.87	0.23
1399.45	0.4528
1411.04	0.731
1422.62	0.728
1434.2	0.4371
1445.79	0.4358
1457.37	0.235
1468.95	0.104
1480.54	0.3257
1492.12	0.699
1503.7	0.688
1515.29	0.634
1526.87	0.654
1538.45	0.429
1550.04	0.03
1561.62	0.2799
1573.2	0.467
1584.79	0.604
1596.37	0.7458
1607.95	0.778
1619.53	0.571
1631.12	0.3111
1642.7	0.5699
1654.28	0.753
1665.87	0.781
1677.45	0.79
1689.03	0.795
1700.62	0.828
1712.2	0.844
1723.78	0.851
1735.37	0.843
1746.95	0.872
1758.53	0.888
1770.12	0.902
1781.7	0.908
1793.28	0.92
1804.87	0.93
1816.45	0.934
1828.03	0.925
1839.62	0.933
1851.2	0.937
1862.78	0.884
1874.37	0.914
1885.95	0.941
1897.53	0.942
1909.12	0.951
1920.7	0.947
1932.28	0.951
1943.87	0.958
1955.45	0.952
1967.03	0.941
1978.62	0.94
1990.2	0.94
2001.78	0.94
2013.37	0.94
2024.95	0.938
2036.53	0.9271
2048.12	0.91
2059.7	0.91
2071.28	0.9141
2082.87	0.918
2094.45	0.918
2106.03	0.918
2117.62	0.918
2129.2	0.9155
2140.78	0.9114
2152.37	0.9089
2163.95	0.903
2175.53	0.8994
2187.12	0.8892
2198.7	0.8784
2210.28	0.8706
2221.87	0.8659
2233.45	0.848
2245.03	0.846
2256.62	0.841
2268.2	0.8324
2279.78	0.8183
2291.37	0.7975
2302.95	0.7831
2314.53	0.7713
2326.12	0.7688
2337.7	0.7651
2349.28	0.76
2360.87	0.755
2372.45	0.7316
2384.03	0.6999
2395.62	0.6763
2407.2	0.6589
2418.78	0.6393
2430.36	0.6301
2441.95	0.6162
2453.53	0.608
2465.11	0.5868
2476.7	0.5556
2488.28	0.5308
2499.86	0.4973
2511.45	0.4502
2523.03	0.4196
2534.61	0.401
2546.2	0.3996
2557.78	0.3967
2569.36	0.3845
2580.95	0.3591
2592.53	0.3331
2604.11	0.28
2615.7	0.2759
2627.28	0.2638
2638.86	0.2578
2650.45	0.2513
2662.03	0.2232
2673.61	0.187
2685.2	0.1626
2696.78	0.156
2708.36	0.1607
2719.95	0.174
2731.53	0.1876
2743.11	0.2
2754.7	0.2027
2766.28	0.1946
2777.86	0.1714
2789.45	0.1687
2801.03	0.1509
2812.61	0.14
2824.2	0.143
2835.78	0.147
2847.36	0.149
2858.95	0.1518
2870.53	0.1551
2882.11	0.157
2893.7	0.1629
2905.28	0.184
2916.86	0.1724
2928.45	0.161
2940.03	0.1583
2951.61	0.156
2963.2	0.1555
2974.78	0.1694
2986.36	0.1908
2997.95	0.191
3009.53	0.1869
3021.11	0.1814
3032.7	0.181
3044.28	0.1959
3055.86	0.2199
3067.45	0.2319
3079.03	0.242
3090.61	0.2843
3102.2	0.2981
3113.78	0.3366
3125.36	0.3619
3136.95	0.414
3148.53	0.4445
3160.11	0.4876
3171.7	0.5465
3183.28	0.5784
3194.86	0.5984
3206.45	0.627
3218.03	0.6461
3229.61	0.6655
3241.19	0.6815
3252.78	0.6902
3264.36	0.7041
3275.94	0.717
3287.53	0.7229
3299.11	0.7252
3310.69	0.7285
3322.28	0.7298
3333.86	0.73
3345.44	0.73
3357.03	0.73
3368.61	0.729
3380.19	0.726
3391.78	0.725
3403.36	0.7233
3414.94	0.723
3426.53	0.723
3438.11	0.723
3449.69	0.7248
3461.28	0.725
3472.86	0.725
3484.44	0.725
3496.03	0.7279
3507.61	0.73
3519.19	0.73
3530.78	0.73
3542.36	0.73
3553.94	0.73
3565.53	0.731
3577.11	0.7318
3588.69	0.734
3600.28	0.7353
3611.86	0.7366
3623.44	0.738
3635.03	0.738
3646.61	0.739
3658.19	0.74
3669.78	0.741
3681.36	0.7407
3692.94	0.74
3704.53	0.739
3716.11	0.738
3727.69	0.7376
3739.28	0.7344
3750.86	0.7331
3762.44	0.731
3774.03	0.73
3785.61	0.7273
3797.19	0.726
3808.78	0.7247
3820.36	0.7234
3831.94	0.7212
3843.53	0.7189
3855.11	0.7143
3866.69	0.7077
3878.28	0.7022
3889.86	0.701
3901.44	0.6975
3913.03	0.6953
3924.61	0.693
3936.19	0.6897
3947.78	0.6864
3959.36	0.6852
3970.94	0.682
3982.53	0.681
3994.11	0.6793
4005.69	0.6761
4017.28	0.6726
4028.86	0.67
4040.44	0.669
4052.02	0.666
4063.61	0.665
4075.19	0.665
4086.77	0.665
4098.36	0.664
4109.94	0.6592
4121.52	0.651
4133.11	0.65
4144.69	0.65
4156.27	0.65
4167.86	0.649
4179.44	0.6489
4191.02	0.645
4202.61	0.6428
4214.19	0.6411
4225.77	0.638
4237.36	0.6356
4248.94	0.6347
4260.52	0.635
4272.11	0.6308
4283.69	0.6265
4295.27	0.624
4306.86	0.625
4318.44	0.6243
4330.02	0.6218
4341.61	0.621
4353.19	0.6208
4364.77	0.6167
4376.36	0.612
4387.94	0.612
4399.52	0.6117
4411.11	0.608
4422.69	0.6062
4434.27	0.6029
4445.86	0.6006
4457.44	0.5977
4469.02	0.5941
4480.61	0.594
4492.19	0.593
4503.77	0.592
4515.36	0.592
4526.94	0.592
4538.52	0.59
4550.11	0.59
4561.69	0.59
4573.27	0.59
4584.86	0.5884
4596.44	0.5871
4608.02	0.585
4619.61	0.5835
4631.19	0.582
4642.77	0.579
4654.36	0.5787
4665.94	0.577
4677.52	0.5752
4689.11	0.575
4700.69	0.575
4712.27	0.5743
4723.86	0.5711
4735.44	0.57
4747.02	0.568
4758.61	0.5662
4770.19	0.564
4781.77	0.5643
4793.36	0.5644
4804.94	0.564
4816.52	0.5629
4828.11	0.5606
4839.69	0.56
4851.27	0.557
4862.85	0.5538
4874.44	0.552
4886.02	0.551
4897.6	0.551
4909.19	0.5507
4920.77	0.5494
4932.35	0.549
4943.94	0.549
4955.52	0.5476
4967.1	0.5463
4978.69	0.545
