Infrared Spectrum: 5-BENZIMIDAZOLE CARBONITRILE, 2-(TRIFLUOROMETHYL)-
Formula: C9 H4 F3 N3
CAS: 3671-61-2
State: SOLID (KBr DISC)
Class: COBLENTZ III
Instrument: UNICAM SP-200
Sampling: TRANSMISSION
Resolution: 2
Origin: FISONS LTD., VIA S.D.C. (DR. G. T. NEWBOLD)
1/CM	TRANSMITTANCE
656.28	0.909
667.879	0.918
679.478	0.897
691.077	0.881
702.677	0.856
714.276	0.833
725.875	0.779
737.474	0.706
749.073	0.891
760.672	0.8241
772.272	0.832
783.871	0.795
795.47	0.786
807.069	0.797
818.668	0.792
830.267	0.5442
841.867	0.6469
853.466	0.841
865.065	0.901
876.664	0.902
888.263	0.82
899.862	0.5659
911.462	0.882
923.061	0.888
934.66	0.884
946.259	0.859
957.858	0.6651
969.457	0.675
981.057	0.658
992.656	0.7168
1004.25	0.888
1015.85	0.868
1027.45	0.819
1039.05	0.791
1050.65	0.77
1062.25	0.733
1073.85	0.69
1085.45	0.631
1097.05	0.559
1108.65	0.4151
1120.25	0.293
1131.85	0.227
1143.44	0.117
1155.04	0.2519
1166.64	0.247
1178.24	0.096
1189.84	0.13
1201.44	0.123
1213.04	0.1149
1224.64	0.4489
1236.24	0.26
1247.84	0.592
1259.44	0.611
1271.04	0.605
1282.63	0.411
1294.23	0.777
1305.83	0.6051
1317.43	0.16
1329.03	0.581
1340.63	0.908
1352.23	0.929
1363.83	0.79
1375.43	0.763
1387.03	0.7881
1398.63	0.5441
1410.23	0.4649
1421.82	0.636
1433.42	0.828
1445.02	0.776
1456.62	0.775
1468.22	0.682
1479.82	0.682
1491.42	0.7849
1503.02	0.867
1514.62	0.899
1526.22	0.896
1537.82	0.878
1549.42	0.664
1561.01	0.6129
1572.61	0.83
1584.21	0.865
1595.81	0.87
1607.41	0.866
1619.01	0.719
1630.61	0.925
1642.21	0.929
1653.81	0.9
1665.41	0.871
1677.01	0.899
1688.61	0.92
1700.2	0.941
1711.8	0.941
1723.4	0.935
1735	0.94
1746.6	0.93
1758.2	0.926
1769.8	0.94
1781.4	0.946
1793	0.957
1804.6	0.957
1816.2	0.953
1827.8	0.945
1839.39	0.944
1850.99	0.945
1862.59	0.941
1874.19	0.938
1885.79	0.927
1897.39	0.917
1908.99	0.895
1920.59	0.915
1932.19	0.925
1943.79	0.927
1955.39	0.923
1966.99	0.922
1978.58	0.919
1990.18	0.912
2001.78	0.9079
2013.38	0.9024
2024.98	0.901
2036.58	0.898
2048.18	0.897
2059.78	0.8943
2071.38	0.893
2082.98	0.8916
2094.58	0.8879
2106.18	0.881
2117.77	0.8768
2129.37	0.869
2140.97	0.867
2152.57	0.8637
2164.17	0.8449
2175.77	0.8374
2187.37	0.8325
2198.97	0.8026
2210.57	0.6887
2222.17	0.5946
2233.77	0.6259
2245.37	0.8178
2256.96	0.8365
2268.56	0.8378
2280.16	0.8391
2291.76	0.84
2303.36	0.84
2314.96	0.84
2326.56	0.838
2338.16	0.837
2349.76	0.8353
2361.36	0.83
2372.96	0.8004
2384.56	0.7904
2396.15	0.7865
2407.75	0.78
2419.35	0.774
2430.95	0.7593
2442.55	0.757
2454.15	0.7523
2465.75	0.7405
2477.35	0.7279
2488.95	0.7108
2500.55	0.6964
2512.15	0.6846
2523.75	0.6714
2535.34	0.6604
2546.94	0.6313
2558.54	0.6183
2570.14	0.6151
2581.74	0.6088
2593.34	0.5999
2604.94	0.5791
2616.54	0.5599
2628.14	0.5473
2639.74	0.5294
2651.34	0.5251
2662.94	0.5167
2674.53	0.4974
2686.13	0.4793
2697.73	0.477
2709.33	0.4705
2720.93	0.4639
2732.53	0.4539
2744.13	0.439
2755.73	0.4354
2767.33	0.439
2778.93	0.4418
2790.53	0.4321
2802.13	0.4181
2813.72	0.416
2825.32	0.416
2836.92	0.4173
2848.52	0.418
2860.12	0.4113
2871.72	0.3944
2883.32	0.3836
2894.92	0.383
2906.52	0.3889
2918.12	0.3888
2929.72	0.385
2941.32	0.3782
2952.91	0.363
2964.51	0.3613
2976.11	0.364
2987.71	0.3631
2999.31	0.3574
3010.91	0.349
3022.51	0.3436
3034.11	0.339
3045.71	0.338
3057.31	0.3385
3068.91	0.34
3080.51	0.3442
3092.1	0.3527
3103.7	0.3706
3115.3	0.3909
3126.9	0.4195
3138.5	0.4333
3150.1	0.4705
3161.7	0.489
3173.3	0.5225
3184.9	0.5481
3196.5	0.5781
3208.1	0.6112
3219.7	0.6187
3231.29	0.6269
3242.89	0.6446
3254.49	0.6514
3266.09	0.6569
3277.69	0.6597
3289.29	0.663
3300.89	0.67
3312.49	0.6706
3324.09	0.673
3335.69	0.6741
3347.29	0.6764
3358.89	0.678
3370.48	0.678
3382.08	0.679
3393.68	0.678
3405.28	0.678
3416.88	0.678
3428.48	0.6777
3440.08	0.677
3451.68	0.676
3463.28	0.6761
3474.88	0.677
3486.48	0.678
3498.08	0.68
3509.67	0.682
3521.27	0.683
3532.87	0.683
3544.47	0.681
3556.07	0.681
3567.67	0.681
3579.27	0.682
3590.87	0.683
3602.47	0.683
3614.07	0.684
3625.67	0.684
3637.27	0.684
3648.86	0.683
3660.46	0.682
3672.06	0.6809
3683.66	0.6776
3695.26	0.676
3706.86	0.675
3718.46	0.6748
3730.06	0.6731
3741.66	0.67
3753.26	0.669
3764.86	0.6675
3776.46	0.6629
3788.05	0.661
3799.65	0.6599
3811.25	0.659
3822.85	0.655
3834.45	0.651
3846.05	0.648
3857.65	0.641
3869.25	0.6393
3880.85	0.636
3892.45	0.6354
3904.05	0.6314
3915.65	0.6302
3927.24	0.625
3938.84	0.6242
3950.44	0.6187
3962.04	0.617
3973.64	0.616
3985.24	0.617
3996.84	0.617
4008.44	0.616
4020.04	0.6147
4031.64	0.6114
4043.24	0.6091
4054.84	0.6059
4066.43	0.6016
4078.03	0.5983
4089.63	0.596
4101.23	0.596
4112.83	0.5975
4124.43	0.598
4136.03	0.597
4147.63	0.5953
4159.23	0.5934
4170.83	0.591
4182.43	0.591
4194.03	0.59
4205.62	0.5893
4217.22	0.587
4228.82	0.587
4240.42	0.5835
4252.02	0.581
4263.62	0.582
4275.22	0.581
4286.82	0.5804
4298.42	0.579
4310.02	0.5768
4321.62	0.5745
4333.22	0.572
4344.81	0.571
4356.41	0.571
4368.01	0.5694
4379.61	0.5672
4391.21	0.566
4402.81	0.568
4414.41	0.568
4426.01	0.5661
4437.61	0.5648
4449.21	0.564
4460.81	0.563
4472.41	0.562
4484	0.561
4495.6	0.56
4507.2	0.56
4518.8	0.5589
4530.4	0.5572
4542	0.5543
4553.6	0.552
4565.2	0.55
4576.8	0.549
4588.4	0.548
4600	0.547
4611.6	0.546
4623.19	0.5444
4634.79	0.543
4646.39	0.5408
4657.99	0.539
4669.59	0.538
4681.19	0.536
4692.79	0.5327
4704.39	0.531
4715.99	0.531
4727.59	0.53
4739.19	0.5296
4750.79	0.529
4762.38	0.528
4773.98	0.526
4785.58	0.525
4797.18	0.5243
4808.78	0.523
4820.38	0.522
4831.98	0.521
4843.58	0.5202
4855.18	0.519
4866.78	0.518
4878.38	0.514
4889.98	0.513
4901.57	0.5088
4913.17	0.507
4924.77	0.507
4936.37	0.507
4947.97	0.5073
4959.57	0.509
4971.17	0.507
4982.77	0.505
4994.37	0.5044
