Infrared Spectrum: BENZIMIDAZOLE, 6-CHLORO-4-NITRO-2-(TRIFLUOROMETHYL)-
Formula: C8 H3 Cl F3 N3 O2
CAS: 3671-18-9
State: SOLID (KBr DISC)
Class: COBLENTZ III
Instrument: UNICAM SP-200
Sampling: TRANSMISSION
Resolution: 2
Origin: FISONS LTD., VIA S.D.C. (DR. G. T. NEWBOLD)
1/CM	TRANSMITTANCE
659.794	0.738
671.409	0.692
683.024	0.561
694.639	0.379
706.254	0.641
717.87	0.765
729.485	0.817
741.1	0.748
752.715	0.7148
764.33	0.6001
775.945	0.528
787.56	0.841
799.175	0.877
810.791	0.876
822.406	0.855
834.021	0.821
845.636	0.484
857.251	0.864
868.866	0.859
880.481	0.833
892.096	0.61
903.712	0.767
915.327	0.4401
926.942	0.7383
938.557	0.856
950.172	0.853
961.787	0.838
973.402	0.7
985.017	0.794
996.633	0.794
1008.25	0.761
1019.86	0.7
1031.48	0.6639
1043.09	0.737
1054.71	0.714
1066.32	0.67
1077.94	0.577
1089.55	0.533
1101.17	0.551
1112.78	0.462
1124.4	0.279
1136.01	0.038
1147.63	0.302
1159.24	0.0771
1170.86	0.091
1182.47	0.298
1194.09	0.0942
1205.7	0.042
1217.32	0.116
1228.93	0.333
1240.55	0.059
1252.17	0.106
1263.78	0.2908
1275.4	0.3362
1287.01	0.024
1298.63	0.0569
1310.24	0.3929
1321.86	0.522
1333.47	0.419
1345.09	0.0592
1356.7	0.295
1368.32	0.381
1379.93	0.4669
1391.55	0.675
1403.16	0.717
1414.78	0.592
1426.39	0.674
1438.01	0.554
1449.62	0.771
1461.24	0.6052
1472.85	0.609
1484.47	0.724
1496.08	0.713
1507.7	0.4901
1519.31	0.217
1530.93	0.132
1542.54	0.4979
1554.16	0.568
1565.77	0.539
1577.39	0.4799
1589	0.767
1600.62	0.906
1612.23	0.918
1623.85	0.88
1635.46	0.81
1647.08	0.904
1658.69	0.936
1670.31	0.945
1681.92	0.95
1693.54	0.945
1705.15	0.923
1716.77	0.888
1728.39	0.918
1740	0.916
1751.62	0.859
1763.23	0.943
1774.85	0.927
1786.46	0.893
1798.08	0.938
1809.69	0.92
1821.31	0.912
1832.92	0.93
1844.54	0.937
1856.15	0.939
1867.77	0.937
1879.38	0.929
1891	0.926
1902.61	0.926
1914.23	0.92
1925.84	0.919
1937.46	0.918
1949.07	0.91
1960.69	0.913
1972.3	0.91
1983.92	0.91
1995.53	0.906
2007.15	0.9039
2018.76	0.8985
2030.38	0.8934
2041.99	0.892
2053.61	0.89
2065.22	0.89
2076.84	0.89
2088.45	0.89
2100.07	0.8874
2111.68	0.8807
2123.3	0.8772
2134.91	0.8719
2146.53	0.8686
2158.14	0.867
2169.76	0.866
2181.37	0.8627
2192.99	0.86
2204.61	0.8573
2216.22	0.856
2227.84	0.856
2239.45	0.855
2251.07	0.8501
2262.68	0.8385
2274.3	0.837
2285.91	0.837
2297.53	0.836
2309.14	0.836
2320.76	0.836
2332.37	0.835
2343.99	0.833
2355.6	0.8295
2367.22	0.8262
2378.83	0.8189
2390.45	0.8149
2402.06	0.8074
2413.68	0.805
2425.29	0.8028
2436.91	0.801
2448.52	0.7992
2460.14	0.7956
2471.75	0.784
2483.37	0.782
2494.98	0.78
2506.6	0.7732
2518.21	0.7606
2529.83	0.7505
2541.44	0.75
2553.06	0.747
2564.67	0.7424
2576.29	0.738
2587.9	0.736
2599.52	0.737
2611.13	0.7363
2622.75	0.7309
2634.36	0.7237
2645.98	0.7194
2657.59	0.7133
2669.21	0.708
2680.83	0.707
2692.44	0.704
2704.06	0.704
2715.67	0.6981
2727.29	0.6934
2738.9	0.6903
2750.52	0.688
2762.13	0.6751
2773.75	0.6623
2785.36	0.659
2796.98	0.6567
2808.59	0.6463
2820.21	0.6173
2831.82	0.6108
2843.44	0.609
2855.05	0.6127
2866.67	0.613
2878.28	0.6039
2889.9	0.5879
2901.51	0.588
2913.13	0.59
2924.74	0.5896
2936.36	0.5847
2947.97	0.5712
2959.59	0.5615
2971.2	0.559
2982.82	0.5572
2994.43	0.5373
3006.05	0.5029
3017.66	0.4758
3029.28	0.4317
3040.89	0.3622
3052.51	0.3435
3064.12	0.383
3075.74	0.439
3087.35	0.441
3098.97	0.441
3110.58	0.4391
3122.2	0.4292
3133.81	0.4086
3145.43	0.3742
3157.05	0.3385
3168.66	0.3066
3180.28	0.2833
3191.89	0.2623
3203.51	0.2217
3215.12	0.1503
3226.74	0.107
3238.35	0.0769
3249.97	0.076
3261.58	0.0996
3273.2	0.1612
3284.81	0.208
3296.43	0.2784
3308.04	0.3555
3319.66	0.4312
3331.27	0.4816
3342.89	0.5332
3354.5	0.5818
3366.12	0.5981
3377.73	0.6049
3389.35	0.6121
3400.96	0.617
3412.58	0.617
3424.19	0.617
3435.81	0.617
3447.42	0.6171
3459.04	0.618
3470.65	0.619
3482.27	0.619
3493.88	0.617
3505.5	0.617
3517.11	0.617
3528.73	0.618
3540.34	0.618
3551.96	0.619
3563.57	0.621
3575.19	0.622
3586.8	0.622
3598.42	0.621
3610.03	0.6209
3621.65	0.6166
3633.27	0.616
3644.88	0.6169
3656.5	0.6188
3668.11	0.6165
3679.73	0.6142
3691.34	0.6151
3702.96	0.617
3714.57	0.6154
3726.19	0.6121
3737.8	0.6118
3749.42	0.611
3761.03	0.6092
3772.65	0.6089
3784.26	0.6067
3795.88	0.6027
3807.49	0.6011
3819.11	0.5968
3830.72	0.59
3842.34	0.5842
3853.95	0.581
3865.57	0.5807
3877.18	0.5794
3888.8	0.5762
3900.41	0.571
3912.03	0.57
3923.64	0.568
3935.26	0.559
3946.87	0.558
3958.49	0.5574
3970.1	0.557
3981.72	0.557
3993.33	0.556
4004.95	0.555
4016.56	0.553
4028.18	0.549
4039.79	0.548
4051.41	0.548
4063.02	0.5469
4074.64	0.545
4086.25	0.5436
4097.87	0.541
4109.49	0.539
4121.1	0.537
4132.72	0.536
4144.33	0.5339
4155.95	0.5316
4167.56	0.53
4179.18	0.53
4190.79	0.5297
4202.41	0.5275
4214.02	0.526
4225.64	0.523
4237.25	0.522
4248.87	0.523
4260.48	0.522
4272.1	0.5198
4283.71	0.5175
4295.33	0.5144
4306.94	0.508
4318.56	0.505
4330.17	0.5033
4341.79	0.502
4353.4	0.501
4365.02	0.501
4376.63	0.501
4388.25	0.5
4399.86	0.498
4411.48	0.496
4423.09	0.496
4434.71	0.495
4446.32	0.495
4457.94	0.494
4469.55	0.492
4481.17	0.491
4492.78	0.489
4504.4	0.488
4516.01	0.487
4527.63	0.4855
4539.24	0.484
4550.86	0.482
4562.47	0.4807
4574.09	0.4774
4585.71	0.4761
4597.32	0.4738
4608.94	0.471
4620.55	0.4703
4632.17	0.469
4643.78	0.4687
4655.4	0.467
4667.01	0.4633
4678.63	0.4629
4690.24	0.462
4701.86	0.462
4713.47	0.461
4725.09	0.458
4736.7	0.4519
4748.32	0.45
4759.93	0.4479
4771.55	0.4456
4783.16	0.444
4794.78	0.443
4806.39	0.44
4818.01	0.439
4829.62	0.439
4841.24	0.439
4852.85	0.439
4864.47	0.439
4876.08	0.438
4887.7	0.436
4899.31	0.435
4910.93	0.4332
4922.54	0.4309
4934.16	0.428
4945.77	0.4273
4957.39	0.4183
4969	0.417
4980.62	0.4165
4992.23	0.416
5003.85	0.416
