Infrared Spectrum: 4-Methoxybenzoylacetonitrile
Formula: C 10 H 9 N O 2
CAS: 3672-47-7
State: gas
Origin: EPA-IR VAPOR PHASE LIBRARY
1/CM	ABSORBANCE
549.8	0.00485
559.445	0.00575
569.09	0.00549
578.734	0.00391
588.379	0.00363
598.024	0.00404
607.669	0.00331
617.313	0.00286
626.958	0.00305
636.603	0.0032
646.248	0.00305
655.893	0.00229
665.537	0.0011452
675.182	0.0018814
684.827	0.00226
694.472	0.00266
704.116	0.0015401
713.761	0.000711
723.406	0.0014667
733.051	0.0014283
742.695	0.00262
752.34	0.00236
761.985	0.001847
771.63	0.002096
781.275	0.0016764
790.919	0.00303
800.564	0.00497
810.209	0.00499
819.854	0.00485
829.498	0.0097
839.143	0.01157
848.788	0.00662
858.433	0.00339
868.078	0.0021935
877.722	0.00225
887.367	0.0021001
897.012	0.0027
906.657	0.00343
916.301	0.00491
925.946	0.00492
935.591	0.00346
945.236	0.00234
954.88	0.0021633
964.525	0.00292
974.17	0.00274
983.815	0.00321
993.46	0.00553
1003.1	0.00931
1012.75	0.01043
1022.39	0.01548
1032.04	0.01401
1041.68	0.0117
1051.33	0.00578
1060.97	0.00469
1070.62	0.0034
1080.26	0.000796
1089.91	0.00292
1099.55	0.00284
1109.2	0.0031
1118.84	0.00371
1128.49	0.00379
1138.13	0.00259
1147.78	0.00479
1157.42	0.01109
1167.07	0.04382
1176.71	0.04767
1186.36	0.01503
1196	0.00859
1205.64	0.01101
1215.29	0.01292
1224.93	0.01425
1234.58	0.01656
1244.22	0.03182
1253.87	0.06455
1263.51	0.07051
1273.16	0.03889
1282.8	0.02091
1292.45	0.01922
1302.09	0.02159
1311.74	0.02112
1321.38	0.01854
1331.03	0.01226
1340.67	0.00641
1350.32	0.00438
1359.96	0.00343
1369.61	0.00275
1379.25	0.00269
1388.9	0.00291
1398.54	0.00382
1408.18	0.00641
1417.83	0.01033
1427.47	0.00826
1437.12	0.00561
1446.76	0.00609
1456.41	0.00631
1466.05	0.00835
1475.7	0.00729
1485.34	0.00529
1494.99	0.00753
1504.63	0.01674
1514.28	0.01918
1523.92	0.00646
1533.57	0.00437
1543.21	0.00411
1552.86	0.00414
1562.5	0.00774
1572.15	0.01598
1581.79	0.02165
1591.44	0.03046
1601.08	0.04816
1610.73	0.03878
1620.37	0.01529
1630.01	0.00676
1639.66	0.0041
1649.3	0.00375
1658.95	0.00371
1668.59	0.00459
1678.24	0.00576
1687.88	0.01164
1697.53	0.02875
1707.17	0.043
1716.82	0.02893
1726.46	0.01077
1736.11	0.00483
1745.75	0.00313
1755.4	0.00261
1765.04	0.00244
1774.69	0.0021296
1784.33	0.0016736
1793.98	0.0016319
1803.62	0.0016842
1813.27	0.0016037
1822.91	0.0015559
1832.55	0.0015658
1842.2	0.0015165
1851.84	0.0013757
1861.49	0.0014709
1871.13	0.0015887
1880.78	0.0015492
1890.42	0.0014929
1900.07	0.0017213
1909.71	0.0018545
1919.36	0.0018957
1929	0.0017
1938.65	0.0015389
1948.29	0.0015479
1957.94	0.001488
1967.58	0.0015656
1977.23	0.001338
1986.87	0.0016108
1996.52	0.0013531
2006.16	0.0013805
2015.81	0.0015154
2025.45	0.0016261
2035.1	0.0015928
2044.74	0.0019275
2054.38	0.0020196
2064.03	0.0018267
2073.67	0.001708
2083.32	0.0015288
2092.96	0.001517
2102.61	0.0013387
2112.25	0.00123074
2121.9	0.00124095
2131.54	0.00128714
2141.19	0.0011888
2150.83	0.001104
2160.48	0.00108
2170.12	0.001024
2179.77	0.00122311
2189.41	0.001024
2199.06	0.00124832
2208.7	0.00122735
2218.35	0.001206
2227.99	0.0014882
2237.64	0.00128526
2247.28	0.0016079
2256.92	0.0019406
2266.57	0.0016604
2276.21	0.00131403
2285.86	0.0015012
2295.5	0.0014544
2305.15	0.0013906
2314.79	0.00127145
2324.44	0.001478
2334.08	0.0014915
2343.73	0.0013758
2353.37	0.0017526
2363.02	0.0017168
2372.66	0.001128
2382.31	0.0011613
2391.95	0.0011378
2401.6	0.00122972
2411.24	0.0014641
2420.89	0.0015553
2430.53	0.0016942
2440.18	0.0015403
2449.82	0.001067
2459.47	0.001438
2469.11	0.001112
2478.75	0.000971
2488.4	0.0014871
2498.04	0.0014052
2507.69	0.0013544
2517.33	0.0019841
2526.98	0.0014046
2536.62	0.0016697
2546.27	0.0020059
2555.91	0.0021845
2565.56	0.0021022
2575.2	0.00234
2584.85	0.001812
2594.49	0.00184
2604.14	0.001995
2613.78	0.0016093
2623.43	0.0016756
2633.07	0.0016301
2642.72	0.00124655
2652.36	0.0011539
2662.01	0.001105
2671.65	0.00124977
2681.29	0.001547
2690.94	0.0015386
2700.58	0.0015409
2710.23	0.0011855
2719.87	0.00125349
2729.52	0.0013758
2739.16	0.001521
2748.81	0.001555
2758.45	0.00127557
2768.1	0.0017598
2777.74	0.0019589
2787.39	0.0015955
2797.03	0.0018543
2806.68	0.0017953
2816.32	0.0021239
2825.97	0.00231
2835.61	0.00274
2845.26	0.00533
2854.9	0.00522
2864.55	0.00326
2874.19	0.00277
2883.84	0.00277
2893.48	0.00231
2903.12	0.00311
2912.77	0.00376
2922.41	0.00496
2932.06	0.00549
2941.7	0.00745
2951.35	0.0079
2960.99	0.00679
2970.64	0.0063
2980.28	0.00441
2989.93	0.00342
2999.57	0.00381
3009.22	0.00606
3018.86	0.00698
3028.51	0.00336
3038.15	0.00262
3047.8	0.00316
3057.44	0.00352
3067.09	0.00301
3076.73	0.00348
3086.38	0.00305
3096.02	0.00292
3105.67	0.00235
3115.31	0.0020996
3124.95	0.00129515
3134.6	0.0015739
3144.24	0.00122272
3153.89	0.0018066
3163.53	0.0012173
3173.18	0.0015993
3182.82	0.001102
3192.47	0.0015972
3202.11	0.0018783
3211.76	0.0020083
3221.4	0.0011603
3231.05	0.00128309
3240.69	0.0011304
3250.34	0.0013765
3259.98	0.00103
3269.63	0.001045
3279.27	0.001069
3288.92	0.000936
3298.56	0.000938
3308.21	0.00105
3317.85	0.001052
3327.49	0.00125361
3337.14	0.0014341
3346.78	0.0011926
3356.43	0.0012136
3366.07	0.0014814
3375.72	0.0019302
3385.36	0.0012159
3395.01	0.001573
3404.65	0.0015104
3414.3	0.0018076
3423.94	0.0015841
3433.59	0.000921
3443.23	0.000943
3452.88	0.000943
3462.52	0.000506
3472.17	0.0015004
3481.81	0.000557
3491.46	0.001054
3501.1	0.0013818
3510.75	0.0016624
3520.39	0.001059
3530.04	0.0016032
3539.68	0.000815
3549.32	0.00131981
3558.97	0.000689
3568.61	0.0013398
3578.26	0.000574
3587.9	0.0017053
3597.55	0.000758
3607.19	0.000707
3616.84	0.00127329
3626.48	0.001053
3636.13	0.001206
3645.77	0.0017809
3655.42	0.0012486
3665.06	0.000833
3674.71	0.000841
3684.35	0.000995
3694	0.0011898
3703.64	0.000801
3713.29	0.0013371
3722.93	0.000365
3732.58	0.0016958
3742.22	0.001001
3751.86	0.000774
3761.51	0.001005
3771.15	0.0011683
3780.8	0.00132384
3790.44	0.001042
3800.09	0.000897
3809.73	0.000925
3819.38	0.0018628
3829.02	0.0016368
3838.67	0.0016311
3848.31	0.000575
3857.96	0.0016959
3867.6	0.000902
3877.25	0.001156
3886.89	0.0011873
3896.54	0.000606
3906.18	0.000613
3915.83	0.0014783
3925.47	0.00123763
3935.12	0.000713
3944.76	0.001022
3954.41	0.0019575
3964.05	0.000761
3973.69	0.000645
3983.34	0.00122403
3992.98	0.000878
