Infrared Spectrum: 4,4-DIMETHYL-5-ISOPROPYL-2-PYRAZOLINE
Formula: C8 H16 N2
CAS: 3674-43-9
State: LIQUID
Boiling point: 55-56 C AT 2.5-3.5 mmHg
Class: COBLENTZ
Instrument: Not specified, most likely a prism, grating, or hybrid spectrometer.
Sampling: TRANSMISSION
Path length: SMEAR
Resolution: 4
Origin: TENNESSEE EASTMAN COMPANY, RESEARCH LABORATORIES
MICROMETERS	TRANSMITTANCE
2.041	0.976
2.08198	0.976
2.12295	0.976
2.16393	0.976
2.20491	0.974
2.24588	0.96
2.28686	0.943
2.32784	0.943
2.36881	0.945
2.40979	0.943
2.45077	0.943
2.49174	0.947
2.53272	0.947
2.5737	0.948
2.61467	0.952
2.65565	0.953
2.69662	0.952
2.7376	0.929
2.77858	0.909
2.81955	0.888
2.86053	0.849
2.90151	0.82
2.94248	0.786
2.98346	0.625
3.02444	0.393
3.06541	0.471
3.10639	0.697
3.14737	0.805
3.18834	0.849
3.22932	0.863
3.2703	0.794
3.31127	0.764
3.35225	0.121
3.39323	0.164
3.4342	0.367
3.47518	0.43
3.51616	0.55
3.55713	0.589
3.59811	0.786
3.63909	0.83
3.68006	0.837
3.72104	0.851
3.76201	0.88
3.80299	0.888
3.84397	0.876
3.88494	0.883
3.92592	0.897
3.9669	0.917
4.00787	0.919
4.04885	0.917
4.08983	0.917
4.1308	0.919
4.17178	0.919
4.21276	0.921
4.25373	0.919
4.29471	0.919
4.33569	0.917
4.37666	0.923
4.41764	0.928
4.45862	0.929
4.49959	0.929
4.54057	0.931
4.58155	0.931
4.62252	0.931
4.6635	0.931
4.70448	0.931
4.74545	0.931
4.78643	0.933
4.8274	0.933
4.86838	0.931
4.90936	0.931
4.95033	0.931
4.99131	0.935
5.03229	0.935
5.07326	0.933
5.11424	0.931
5.15522	0.933
5.19619	0.933
5.23717	0.929
5.27815	0.928
5.31912	0.921
5.3601	0.921
5.40108	0.921
5.44205	0.914
5.48303	0.912
5.52401	0.911
5.56498	0.907
5.60596	0.897
5.64694	0.89
5.68791	0.88
5.72889	0.842
5.76987	0.82
5.81084	0.81
5.85182	0.818
5.89279	0.817
5.93377	0.82
5.97475	0.806
6.01572	0.806
6.0567	0.808
6.09768	0.808
6.13865	0.808
6.17963	0.798
6.22061	0.74
6.26158	0.647
6.30256	0.796
6.34354	0.839
6.38451	0.851
6.42549	0.858
6.46647	0.841
6.50744	0.849
6.54842	0.835
6.5894	0.829
6.63037	0.813
6.67135	0.776
6.71233	0.625
6.7533	0.304
6.79428	0.247
6.83526	0.35
6.87623	0.499
6.91721	0.603
6.95818	0.652
6.99916	0.644
7.04014	0.629
7.08111	0.639
7.12209	0.634
7.16307	0.49
7.20404	0.323
7.24502	0.569
7.286	0.584
7.32697	0.347
7.36795	0.558
7.40893	0.731
7.4499	0.769
7.49088	0.743
7.53186	0.618
7.57283	0.719
7.61381	0.776
7.65479	0.707
7.69576	0.803
7.73674	0.818
7.77772	0.786
7.81869	0.736
7.85967	0.738
7.90065	0.576
7.94162	0.668
7.9826	0.796
8.02357	0.827
8.06455	0.829
8.10553	0.827
8.1465	0.789
8.18748	0.762
8.22846	0.729
8.26943	0.699
8.31041	0.772
8.35139	0.798
8.39236	0.801
8.43334	0.772
8.47432	0.731
8.51529	0.673
8.55627	0.748
8.59725	0.8
8.63822	0.817
8.6792	0.822
8.72018	0.823
8.76115	0.803
8.80213	0.801
8.84311	0.817
8.88408	0.822
8.92506	0.822
8.96604	0.813
9.00701	0.784
9.04799	0.769
9.08896	0.796
9.12994	0.806
9.17092	0.808
9.21189	0.805
9.25287	0.801
9.29385	0.794
9.33482	0.772
9.3758	0.757
9.41678	0.743
9.45775	0.728
9.49873	0.716
9.53971	0.705
9.58068	0.678
9.62166	0.646
9.66264	0.605
9.70361	0.617
9.74459	0.709
9.78557	0.781
9.82654	0.808
9.86752	0.817
9.9085	0.817
9.94947	0.793
9.99045	0.731
10.0314	0.676
10.0724	0.705
10.1134	0.736
10.1544	0.791
10.1953	0.823
10.2363	0.835
10.2773	0.842
10.3183	0.846
10.3592	0.844
10.4002	0.839
10.4412	0.827
10.4822	0.825
10.5231	0.796
10.5641	0.748
10.6051	0.709
10.6461	0.695
10.687	0.605
10.728	0.548
10.769	0.642
10.81	0.656
10.851	0.613
10.8919	0.572
10.9329	0.507
10.9739	0.538
11.0149	0.664
11.0558	0.747
11.0968	0.8
11.1378	0.822
11.1788	0.825
11.2197	0.825
11.2607	0.825
11.3017	0.817
11.3427	0.801
11.3837	0.786
11.4246	0.769
11.4656	0.736
11.5066	0.683
11.5476	0.68
11.5885	0.685
11.6295	0.678
11.6705	0.656
11.7115	0.632
11.7524	0.615
11.7934	0.594
11.8344	0.579
11.8754	0.565
11.9163	0.565
11.9573	0.567
11.9983	0.579
12.0393	0.596
12.0803	0.596
12.1212	0.569
12.1622	0.526
12.2032	0.466
12.2442	0.398
12.2851	0.331
12.3261	0.278
12.3671	0.247
12.4081	0.247
12.449	0.249
12.49	0.246
12.531	0.222
12.572	0.194
12.6129	0.179
12.6539	0.177
12.6949	0.188
12.7359	0.268
12.7769	0.362
12.8178	0.449
12.8588	0.564
12.8998	0.634
12.9408	0.678
12.9817	0.714
13.0227	0.74
13.0637	0.755
13.1047	0.764
13.1456	0.769
13.1866	0.772
13.2276	0.757
13.2686	0.747
13.3095	0.728
13.3505	0.705
13.3915	0.683
13.4325	0.647
13.4735	0.61
13.5144	0.586
13.5554	0.555
13.5964	0.528
13.6374	0.507
13.6783	0.49
13.7193	0.475
13.7603	0.468
13.8013	0.458
13.8422	0.451
13.8832	0.447
13.9242	0.446
13.9652	0.441
14.0061	0.437
14.0471	0.434
14.0881	0.43
14.1291	0.425
14.1701	0.415
14.211	0.406
14.252	0.394
14.293	0.381
14.334	0.37
14.3749	0.367
14.4159	0.365
14.4569	0.369
14.4979	0.384
14.5388	0.398
14.5798	0.418
14.6208	0.437
14.6618	0.454
14.7028	0.466
14.7437	0.485
14.7847	0.495
14.8257	0.507
14.8667	0.514
14.9076	0.517
14.9486	0.528
14.9896	0.531
15.0306	0.536
15.0715	0.541
15.1125	0.541
15.1535	0.541
15.1945	0.541
15.2354	0.545
15.2764	0.545
15.3174	0.545
15.3584	0.545
15.3994	0.545
15.4403	0.547
15.4813	0.545
15.5223	0.541
15.5633	0.541
15.6042	0.543
15.6452	0.543
15.6862	0.543
15.7272	0.541
15.7681	0.541
15.8091	0.54
15.8501	0.54
15.8911	0.541
15.932	0.543
15.973	0.543
16.014	0.545
