Infrared Spectrum: 2,3-DIMETHYL PHENANTHRENE
Formula: C16 H14
CAS: 3674-65-5
State: SOLUTION (SATURATED IN HEPTANE)
Class: COBLENTZ
Instrument: Not specified, most likely a prism, grating, or hybrid spectrometer.
Sampling: TRANSMISSION
Path length: 0.01 CM
Resolution: 4
Origin: CENTRE D'ETUDES NUCLEAIRES DE GRENOBLE
MICROMETERS	TRANSMITTANCE
1.977	0.87
2.0171	0.875
2.05721	0.876
2.09731	0.876
2.13742	0.868
2.17752	0.873
2.21763	0.876
2.25773	0.873
2.29784	0.87
2.33794	0.866
2.37805	0.866
2.41815	0.871
2.45826	0.876
2.49836	0.88
2.53847	0.881
2.57857	0.881
2.61868	0.883
2.65878	0.888
2.69889	0.893
2.73899	0.896
2.7791	0.891
2.8192	0.898
2.85931	0.898
2.89941	0.896
2.93952	0.903
2.97962	0.908
3.01973	0.905
3.05983	0.903
3.09994	0.905
3.14004	0.901
3.18015	0.896
3.22025	0.878
3.26036	0.733
3.30046	0.676
3.34057	0.688
3.38067	0.66
3.42078	0.625
3.46088	0.605
3.50099	0.578
3.54109	0.561
3.5812	0.743
3.6213	0.88
3.66141	0.895
3.70151	0.9
3.74161	0.906
3.78172	0.911
3.82182	0.913
3.86193	0.915
3.90203	0.916
3.94214	0.918
3.98224	0.918
4.02235	0.915
4.06245	0.913
4.10256	0.916
4.14266	0.918
4.18277	0.918
4.22287	0.916
4.26298	0.91
4.30308	0.895
4.34319	0.903
4.38329	0.92
4.4234	0.921
4.4635	0.925
4.50361	0.926
4.54371	0.928
4.58382	0.928
4.62392	0.928
4.66403	0.928
4.70413	0.928
4.74424	0.928
4.78434	0.928
4.82445	0.93
4.86455	0.93
4.90466	0.931
4.94476	0.931
4.98487	0.933
5.02497	0.933
5.06508	0.933
5.10518	0.931
5.14529	0.923
5.18539	0.906
5.2255	0.906
5.2656	0.896
5.30571	0.911
5.34581	0.93
5.38592	0.93
5.42602	0.93
5.46612	0.916
5.50623	0.91
5.54633	0.923
5.58644	0.913
5.62654	0.921
5.66665	0.908
5.70675	0.873
5.74686	0.868
5.78696	0.893
5.82707	0.906
5.86717	0.911
5.90728	0.91
5.94738	0.906
5.98749	0.903
6.02759	0.903
6.0677	0.905
6.1078	0.9
6.14791	0.89
6.18801	0.866
6.22812	0.848
6.26822	0.85
6.30833	0.9
6.34843	0.905
6.38854	0.906
6.42864	0.905
6.46875	0.898
6.50885	0.893
6.54896	0.886
6.58906	0.88
6.62917	0.876
6.66927	0.726
6.70938	0.73
6.74948	0.823
6.78959	0.841
6.82969	0.803
6.8698	0.763
6.9099	0.73
6.95001	0.663
6.99011	0.648
7.03022	0.745
7.07032	0.815
7.11043	0.873
7.15053	0.881
7.19064	0.88
7.23074	0.878
7.27084	0.875
7.31095	0.813
7.35105	0.813
7.39116	0.845
7.43126	0.836
7.47137	0.85
7.51147	0.883
7.55158	0.9
7.59168	0.91
7.63179	0.913
7.67189	0.908
7.712	0.903
7.7521	0.905
7.79221	0.91
7.83231	0.911
7.87242	0.913
7.91252	0.91
7.95263	0.881
7.99273	0.826
8.03284	0.92
8.07294	0.916
8.11305	0.913
8.15315	0.905
8.19326	0.816
8.23336	0.841
8.27347	0.865
8.31357	0.856
8.35368	0.903
8.39378	0.905
8.43389	0.903
8.47399	0.915
8.5141	0.916
8.5542	0.915
8.59431	0.905
8.63441	0.903
8.67452	0.9
8.71462	0.88
8.75473	0.881
8.79483	0.88
8.83494	0.876
8.87504	0.898
8.91515	0.91
8.95525	0.913
8.99535	0.923
9.03546	0.928
9.07556	0.918
9.11567	0.911
9.15577	0.91
9.19588	0.916
9.23598	0.916
9.27609	0.915
9.31619	0.913
9.3563	0.913
9.3964	0.916
9.43651	0.921
9.47661	0.921
9.51672	0.911
9.55682	0.903
9.59693	0.901
9.63703	0.895
9.67714	0.815
9.71724	0.8
9.75735	0.758
9.79745	0.768
9.83756	0.823
9.87766	0.865
9.91777	0.878
9.95787	0.805
9.99798	0.795
10.0381	0.901
10.0782	0.915
10.1183	0.921
10.1584	0.926
10.1985	0.926
10.2386	0.926
10.2787	0.926
10.3188	0.916
10.3589	0.91
10.399	0.903
10.4391	0.896
10.4792	0.898
10.5193	0.905
10.5594	0.901
10.5996	0.881
10.6397	0.855
10.6798	0.911
10.7199	0.913
10.76	0.908
10.8001	0.91
10.8402	0.921
10.8803	0.928
10.9204	0.925
10.9605	0.926
11.0006	0.923
11.0407	0.915
11.0808	0.915
11.1209	0.91
11.161	0.903
11.2011	0.883
11.2412	0.846
11.2813	0.833
11.3214	0.673
11.3615	0.35
11.4016	0.473
11.4418	0.533
11.4819	0.435
11.522	0.698
11.5621	0.801
11.6022	0.855
11.6423	0.843
11.6824	0.868
11.7225	0.903
11.7626	0.918
11.8027	0.921
11.8428	0.923
11.8829	0.926
11.923	0.926
11.9631	0.923
12.0032	0.921
12.0433	0.923
12.0834	0.925
12.1235	0.923
12.1636	0.918
12.2037	0.908
12.2439	0.898
12.284	0.868
12.3241	0.785
12.3642	0.548
12.4043	0.175
12.4444	0.36
12.4845	0.651
12.5246	0.785
12.5647	0.851
12.6048	0.89
12.6449	0.908
12.685	0.915
12.7251	0.921
12.7652	0.915
12.8053	0.908
12.8454	0.905
12.8855	0.905
12.9256	0.903
12.9657	0.898
13.0058	0.896
13.0459	0.898
13.0861	0.906
13.1262	0.92
13.1663	0.918
13.2064	0.918
13.2465	0.911
13.2866	0.905
13.3267	0.88
13.3668	0.825
13.4069	0.658
13.447	0.295
13.4871	0.198
13.5272	0.355
13.5673	0.578
13.6074	0.726
13.6475	0.796
13.6876	0.828
13.7277	0.85
13.7678	0.851
13.8079	0.846
13.848	0.833
13.8882	0.828
13.9283	0.83
13.9684	0.845
14.0085	0.871
14.0486	0.898
14.0887	0.9
14.1288	0.881
14.1689	0.738
14.209	0.766
14.2491	0.856
14.2892	0.9
14.3293	0.915
14.3694	0.921
14.4095	0.926
14.4496	0.928
14.4897	0.93
14.5298	0.931
14.5699	0.933
14.61	0.936
14.6501	0.936
14.6902	0.931
14.7304	0.938
14.7705	0.938
14.8106	0.936
14.8507	0.935
14.8908	0.931
14.9309	0.93
14.971	0.933
15.0111	0.928
15.0512	0.921
15.0913	0.921
15.1314	0.926
15.1715	0.925
15.2116	0.92
15.2517	0.918
15.2918	0.91
15.3319	0.895
15.372	0.808
15.4121	0.8
15.4522	0.831
15.4923	0.881
15.5325	0.9
15.5726	0.906
15.6127	0.911
15.6528	0.913
15.6929	0.918
15.733	0.92
15.7731	0.92
15.8132	0.921
15.8533	0.916
15.8934	0.916
15.9335	0.915
