Infrared Spectrum: 4,5-DIMETHYL-PHENANTHRENE
Formula: C16 H14
CAS: 3674-69-9
State: SOLUTION (50 g/L IN HEPTANE)
Class: COBLENTZ
Instrument: Not specified, most likely a prism, grating, or hybrid spectrometer.
Sampling: TRANSMISSION
Path length: 0.01 CM
Resolution: 4
Origin: CENTRE D'ETUDES NUCLEAIRES DE GRENOBLE
MICROMETERS	TRANSMITTANCE
2.488	0.86
2.52788	0.872
2.56776	0.879
2.60763	0.885
2.64751	0.892
2.68739	0.899
2.72727	0.905
2.76714	0.91
2.80702	0.91
2.8469	0.912
2.88678	0.913
2.92665	0.917
2.96653	0.915
3.00641	0.915
3.04629	0.912
3.08616	0.91
3.12604	0.912
3.16592	0.894
3.2058	0.88
3.24567	0.874
3.28555	0.832
3.32543	0.617
3.36531	0.63
3.40518	0.645
3.44506	0.655
3.48494	0.668
3.52482	0.683
3.56469	0.695
3.60457	0.698
3.64445	0.764
3.68433	0.844
3.7242	0.854
3.76408	0.875
3.80396	0.875
3.84384	0.887
3.88371	0.892
3.92359	0.9
3.96347	0.915
4.00335	0.925
4.04322	0.93
4.0831	0.933
4.12298	0.933
4.16286	0.933
4.20274	0.933
4.24261	0.932
4.28249	0.93
4.32237	0.93
4.36225	0.932
4.40212	0.932
4.442	0.935
4.48188	0.938
4.52176	0.94
4.56163	0.943
4.60151	0.943
4.64139	0.945
4.68127	0.945
4.72114	0.947
4.76102	0.95
4.8009	0.953
4.84078	0.955
4.88065	0.955
4.92053	0.955
4.96041	0.951
5.00029	0.947
5.04016	0.956
5.08004	0.961
5.11992	0.963
5.1598	0.958
5.19967	0.953
5.23955	0.942
5.27943	0.892
5.31931	0.927
5.35918	0.94
5.39906	0.953
5.43894	0.95
5.47882	0.918
5.51869	0.933
5.55857	0.951
5.59845	0.953
5.63833	0.945
5.67821	0.927
5.71808	0.85
5.75796	0.905
5.79784	0.903
5.83772	0.895
5.87759	0.892
5.91747	0.869
5.95735	0.88
5.99723	0.89
6.0371	0.897
6.07698	0.902
6.11686	0.885
6.15674	0.879
6.19661	0.889
6.23649	0.897
6.27637	0.9
6.31625	0.849
6.35612	0.852
6.396	0.864
6.43588	0.857
6.47576	0.892
6.51563	0.902
6.55551	0.9
6.59539	0.894
6.63527	0.879
6.67514	0.859
6.71502	0.844
6.7549	0.811
6.79478	0.781
6.83465	0.769
6.87453	0.761
6.91441	0.751
6.95429	0.741
6.99416	0.692
7.03404	0.614
7.07392	0.703
7.1138	0.753
7.15367	0.793
7.19355	0.819
7.23343	0.809
7.27331	0.788
7.31319	0.721
7.35306	0.708
7.39294	0.804
7.43282	0.834
7.4727	0.849
7.51257	0.844
7.55245	0.857
7.59233	0.877
7.63221	0.879
7.67208	0.87
7.71196	0.847
7.75184	0.824
7.79172	0.862
7.83159	0.857
7.87147	0.789
7.91135	0.836
7.95123	0.874
7.9911	0.882
8.03098	0.89
8.07086	0.89
8.11074	0.875
8.15061	0.786
8.19049	0.849
8.23037	0.887
8.27025	0.882
8.31012	0.882
8.35	0.887
8.38988	0.892
8.42976	0.895
8.46963	0.899
8.50951	0.894
8.54939	0.884
8.58927	0.864
8.62914	0.738
8.66902	0.841
8.7089	0.862
8.74878	0.869
8.78865	0.854
8.82853	0.846
8.86841	0.849
8.90829	0.877
8.94817	0.892
8.98804	0.884
9.02792	0.809
9.0678	0.824
9.10768	0.875
9.14755	0.89
9.18743	0.887
9.22731	0.869
9.26719	0.874
9.30706	0.86
9.34694	0.869
9.38682	0.874
9.4267	0.884
9.46657	0.864
9.50645	0.87
9.54633	0.889
9.58621	0.897
9.62608	0.903
9.66596	0.897
9.70584	0.867
9.74572	0.867
9.78559	0.895
9.82547	0.897
9.86535	0.897
9.90523	0.902
9.9451	0.91
9.98498	0.9
10.0249	0.857
10.0647	0.798
10.1046	0.872
10.1445	0.905
10.1844	0.913
10.2242	0.92
10.2641	0.912
10.304	0.892
10.3439	0.892
10.3838	0.905
10.4236	0.897
10.4635	0.867
10.5034	0.895
10.5433	0.905
10.5831	0.894
10.623	0.907
10.6629	0.905
10.7028	0.894
10.7427	0.877
10.7825	0.872
10.8224	0.882
10.8623	0.91
10.9022	0.92
10.942	0.93
10.9819	0.928
11.0218	0.922
11.0617	0.915
11.1016	0.905
11.1414	0.897
11.1813	0.895
11.2212	0.892
11.2611	0.829
11.3009	0.748
11.3408	0.841
11.3807	0.849
11.4206	0.855
11.4605	0.885
11.5003	0.9
11.5402	0.922
11.5801	0.92
11.62	0.92
11.6598	0.928
11.6997	0.933
11.7396	0.932
11.7795	0.93
11.8193	0.93
11.8592	0.928
11.8991	0.923
11.939	0.922
11.9789	0.917
12.0187	0.905
12.0586	0.884
12.0985	0.859
12.1384	0.791
12.1782	0.591
12.2181	0.149
12.258	0.082
12.2979	0.448
12.3378	0.708
12.3776	0.791
12.4175	0.798
12.4574	0.847
12.4973	0.882
12.5371	0.9
12.577	0.905
12.6169	0.912
12.6568	0.912
12.6967	0.918
12.7365	0.913
12.7764	0.905
12.8163	0.887
12.8562	0.869
12.896	0.827
12.9359	0.721
12.9758	0.652
13.0157	0.693
13.0556	0.682
13.0954	0.693
13.1353	0.802
13.1752	0.844
13.2151	0.865
13.2549	0.862
13.2948	0.834
13.3347	0.665
13.3746	0.407
13.4145	0.463
13.4543	0.67
13.4942	0.754
13.5341	0.804
13.574	0.827
13.6138	0.844
13.6537	0.849
13.6936	0.85
13.7335	0.844
13.7734	0.809
13.8132	0.781
13.8531	0.745
13.893	0.625
13.9329	0.46
13.9727	0.49
14.0126	0.657
14.0525	0.754
14.0924	0.809
14.1322	0.855
14.1721	0.872
14.212	0.887
14.2519	0.885
14.2918	0.857
14.3316	0.708
14.3715	0.491
14.4114	0.557
14.4513	0.74
14.4911	0.846
14.531	0.897
14.5709	0.92
14.6108	0.933
14.6507	0.942
14.6905	0.943
14.7304	0.955
14.7703	0.958
14.8102	0.961
14.85	0.97
14.8899	0.968
14.9298	0.97
14.9697	0.975
15.0096	0.971
15.0494	0.965
15.0893	0.965
15.1292	0.966
15.1691	0.968
15.2089	0.973
15.2488	0.971
15.2887	0.973
15.3286	0.975
15.3685	0.971
15.4083	0.966
15.4482	0.968
15.4881	0.968
15.528	0.97
15.5678	0.97
15.6077	0.971
15.6476	0.97
15.6875	0.968
15.7274	0.971
15.7672	0.975
15.8071	0.97
15.847	0.97
15.8869	0.97
