Infrared Spectrum: 9-ETHYL-PHENANTHRENE
Formula: C16 H14
CAS: 3674-75-7
State: SOLUTION (SATURATED IN HEPTANE)
Class: COBLENTZ
Instrument: Not specified, most likely a prism, grating, or hybrid spectrometer.
Sampling: TRANSMISSION
Path length: 0.01 CM
Resolution: 4
Origin: CENTRE D'ETUDES NUCLEAIRES DE GRENOBLE
MICROMETERS	TRANSMITTANCE
1.998	0.883
2.03808	0.886
2.07816	0.881
2.11825	0.873
2.15833	0.875
2.19841	0.876
2.23849	0.88
2.27857	0.876
2.31865	0.866
2.35874	0.861
2.39882	0.863
2.4389	0.865
2.47898	0.866
2.51906	0.868
2.55914	0.868
2.59923	0.868
2.63931	0.866
2.67939	0.861
2.71947	0.863
2.75955	0.866
2.79964	0.871
2.83972	0.873
2.8798	0.876
2.91988	0.881
2.95996	0.885
3.00004	0.888
3.04013	0.89
3.08021	0.886
3.12029	0.881
3.16037	0.876
3.20045	0.868
3.24054	0.853
3.28062	0.683
3.3207	0.667
3.36078	0.695
3.40086	0.68
3.44094	0.579
3.48103	0.542
3.52111	0.479
3.56119	0.454
3.60127	0.697
3.64135	0.845
3.68143	0.856
3.72152	0.863
3.7616	0.866
3.80168	0.87
3.84176	0.871
3.88184	0.875
3.92193	0.88
3.96201	0.88
4.00209	0.881
4.04217	0.881
4.08225	0.883
4.12233	0.885
4.16242	0.886
4.2025	0.89
4.24258	0.886
4.28266	0.863
4.32274	0.848
4.36283	0.871
4.40291	0.886
4.44299	0.888
4.48307	0.886
4.52315	0.885
4.56323	0.885
4.60332	0.885
4.6434	0.885
4.68348	0.885
4.72356	0.886
4.76364	0.888
4.80372	0.89
4.84381	0.89
4.88389	0.89
4.92397	0.89
4.96405	0.89
5.00413	0.89
5.04422	0.89
5.0843	0.89
5.12438	0.893
5.16446	0.871
5.20454	0.848
5.24462	0.86
5.28471	0.866
5.32479	0.871
5.36487	0.885
5.40495	0.878
5.44503	0.901
5.48512	0.878
5.5252	0.86
5.56528	0.865
5.60536	0.87
5.64544	0.865
5.68552	0.856
5.72561	0.86
5.76569	0.87
5.80577	0.866
5.84585	0.861
5.88593	0.856
5.92601	0.851
5.9661	0.846
6.00618	0.858
6.04626	0.878
6.08634	0.868
6.12642	0.858
6.16651	0.801
6.20659	0.82
6.24667	0.793
6.28675	0.808
6.32683	0.836
6.36691	0.856
6.407	0.865
6.44708	0.87
6.48716	0.861
6.52724	0.84
6.56732	0.745
6.60741	0.635
6.64749	0.727
6.68757	0.76
6.72765	0.637
6.76773	0.733
6.80781	0.757
6.8479	0.687
6.88798	0.633
6.92806	0.547
6.96814	0.595
7.00822	0.645
7.0483	0.708
7.08839	0.798
7.12847	0.831
7.16855	0.818
7.20863	0.806
7.24871	0.838
7.2888	0.811
7.32888	0.803
7.36896	0.846
7.40904	0.865
7.44912	0.873
7.4892	0.865
7.52929	0.848
7.56937	0.803
7.60945	0.863
7.64953	0.866
7.68961	0.833
7.7297	0.828
7.76978	0.861
7.80986	0.868
7.84994	0.865
7.89002	0.871
7.9301	0.883
7.97019	0.883
8.01027	0.848
8.05035	0.752
8.09043	0.84
8.13051	0.865
8.17059	0.87
8.21068	0.861
8.25076	0.831
8.29084	0.821
8.33092	0.851
8.371	0.87
8.41109	0.881
8.45117	0.888
8.49125	0.89
8.53133	0.881
8.57141	0.843
8.61149	0.863
8.65158	0.876
8.69166	0.878
8.73174	0.818
8.77182	0.873
8.8119	0.875
8.85198	0.888
8.89207	0.893
8.93215	0.9
8.97223	0.895
9.01231	0.885
9.05239	0.871
9.09248	0.891
9.13256	0.896
9.17264	0.881
9.21272	0.871
9.2528	0.881
9.29288	0.871
9.33297	0.87
9.37305	0.816
9.41313	0.826
9.45321	0.865
9.49329	0.866
9.53338	0.84
9.57346	0.806
9.61354	0.816
9.65362	0.826
9.6937	0.856
9.73378	0.84
9.77387	0.865
9.81395	0.868
9.85403	0.873
9.89411	0.88
9.93419	0.87
9.97427	0.813
10.0144	0.868
10.0544	0.876
10.0945	0.878
10.1346	0.881
10.1747	0.886
10.2148	0.888
10.2548	0.891
10.2949	0.896
10.335	0.901
10.3751	0.898
10.4152	0.89
10.4553	0.873
10.4953	0.856
10.5354	0.823
10.5755	0.695
10.6156	0.773
10.6557	0.83
10.6957	0.853
10.7358	0.863
10.7759	0.87
10.816	0.878
10.8561	0.886
10.8962	0.89
10.9362	0.89
10.9763	0.89
11.0164	0.888
11.0565	0.881
11.0966	0.871
11.1366	0.861
11.1767	0.841
11.2168	0.753
11.2569	0.539
11.297	0.449
11.3371	0.703
11.3771	0.83
11.4172	0.851
11.4573	0.858
11.4974	0.856
11.5375	0.841
11.5775	0.81
11.6176	0.825
11.6577	0.866
11.6978	0.873
11.7379	0.838
11.778	0.793
11.818	0.82
11.8581	0.87
11.8982	0.886
11.9383	0.883
11.9784	0.878
12.0184	0.876
12.0585	0.881
12.0986	0.888
12.1387	0.893
12.1788	0.89
12.2189	0.888
12.2589	0.885
12.299	0.883
12.3391	0.88
12.3792	0.876
12.4193	0.871
12.4593	0.86
12.4994	0.828
12.5395	0.805
12.5796	0.78
12.6197	0.816
12.6598	0.825
12.6998	0.808
12.7399	0.82
12.78	0.845
12.8201	0.853
12.8602	0.848
12.9002	0.838
12.9403	0.828
12.9804	0.805
13.0205	0.755
13.0606	0.633
13.1007	0.397
13.1407	0.465
13.1808	0.635
13.2209	0.715
13.261	0.727
13.3011	0.707
13.3411	0.627
13.3812	0.429
13.4213	0.201
13.4614	0.141
13.5015	0.156
13.5416	0.254
13.5816	0.412
13.6217	0.567
13.6618	0.652
13.7019	0.675
13.742	0.618
13.782	0.439
13.8221	0.266
13.8622	0.302
13.9023	0.469
13.9424	0.66
13.9825	0.755
14.0225	0.801
14.0626	0.83
14.1027	0.841
14.1428	0.853
14.1829	0.866
14.2229	0.876
14.263	0.883
14.3031	0.891
14.3432	0.896
14.3833	0.906
14.4234	0.92
14.4634	0.915
14.5035	0.901
14.5436	0.898
14.5837	0.896
14.6238	0.895
14.6638	0.893
14.7039	0.896
14.744	0.9
14.7841	0.9
14.8242	0.896
14.8643	0.901
14.9043	0.896
14.9444	0.903
14.9845	0.886
15.0246	0.885
15.0647	0.893
15.1047	0.9
15.1448	0.903
15.1849	0.895
15.225	0.891
15.2651	0.896
15.3052	0.89
15.3452	0.876
15.3853	0.883
15.4254	0.888
15.4655	0.893
15.5056	0.896
15.5456	0.893
15.5857	0.885
15.6258	0.891
15.6659	0.878
15.706	0.885
15.7461	0.878
15.7861	0.89
15.8262	0.903
15.8663	0.896
15.9064	0.901
