Infrared Spectrum: 2-n-DODECYL PHENANTHRENE
Formula: C26 H34
CAS: 3674-72-4
State: SOLUTION (50 g/L IN HEPTANE)
Class: COBLENTZ
Instrument: Not specified, most likely a prism, grating, or hybrid spectrometer.
Sampling: TRANSMISSION
Path length: 0.01 CM
Resolution: 4
Origin: CENTRE D'ETUDES NUCLEAIRES DE GRENOBLE
MICROMETERS	TRANSMITTANCE
2.017	0.884
2.05712	0.889
2.09725	0.892
2.13737	0.889
2.1775	0.887
2.21762	0.894
2.25775	0.887
2.29787	0.859
2.338	0.844
2.37812	0.851
2.41825	0.854
2.45837	0.856
2.49849	0.874
2.53862	0.887
2.57874	0.892
2.61887	0.896
2.65899	0.899
2.69912	0.903
2.73924	0.906
2.77937	0.904
2.81949	0.903
2.85962	0.906
2.89974	0.908
2.93987	0.909
2.97999	0.911
3.02011	0.911
3.06024	0.908
3.10036	0.903
3.14049	0.896
3.18061	0.881
3.22074	0.877
3.26086	0.839
3.30099	0.744
3.34111	0.702
3.38124	0.688
3.42136	0.705
3.46148	0.707
3.50161	0.712
3.54173	0.72
3.58186	0.688
3.62198	0.77
3.66211	0.827
3.70223	0.836
3.74236	0.852
3.78248	0.857
3.82261	0.862
3.86273	0.879
3.90285	0.899
3.94298	0.909
3.9831	0.921
4.02323	0.926
4.06335	0.929
4.10348	0.931
4.1436	0.931
4.18373	0.929
4.22385	0.929
4.26398	0.926
4.3041	0.921
4.34422	0.919
4.38435	0.924
4.42447	0.931
4.4646	0.934
4.50472	0.936
4.54485	0.939
4.58497	0.939
4.6251	0.941
4.66522	0.943
4.70535	0.946
4.74547	0.946
4.7856	0.946
4.82572	0.946
4.86584	0.944
4.90597	0.943
4.94609	0.943
4.98622	0.944
5.02634	0.948
5.06647	0.951
5.10659	0.953
5.14672	0.953
5.18684	0.946
5.22697	0.943
5.26709	0.936
5.30721	0.931
5.34734	0.939
5.38746	0.948
5.42759	0.948
5.46771	0.948
5.50784	0.943
5.54796	0.943
5.58809	0.943
5.62821	0.943
5.66834	0.934
5.70846	0.914
5.74858	0.911
5.78871	0.897
5.82883	0.892
5.86896	0.889
5.90908	0.897
5.94921	0.904
5.98933	0.903
6.02946	0.892
6.06958	0.901
6.10971	0.903
6.14983	0.887
6.18995	0.846
6.23008	0.856
6.2702	0.861
6.31033	0.897
6.35045	0.911
6.39058	0.913
6.4307	0.914
6.47083	0.914
6.51095	0.906
6.55108	0.899
6.5912	0.891
6.63133	0.884
6.67145	0.882
6.71157	0.862
6.7517	0.789
6.79182	0.772
6.83195	0.764
6.87207	0.775
6.9122	0.784
6.95232	0.772
6.99245	0.717
7.03257	0.695
7.0727	0.75
7.11282	0.801
7.15294	0.821
7.19307	0.826
7.23319	0.811
7.27332	0.79
7.31344	0.745
7.35357	0.744
7.39369	0.794
7.43382	0.814
7.47394	0.821
7.51407	0.819
7.55419	0.849
7.59431	0.871
7.63444	0.867
7.67456	0.849
7.71469	0.821
7.75481	0.832
7.79494	0.864
7.83506	0.862
7.87519	0.859
7.91531	0.871
7.95544	0.877
7.99556	0.874
8.03568	0.847
8.07581	0.844
8.11593	0.862
8.15606	0.864
8.19618	0.869
8.23631	0.882
8.27643	0.889
8.31656	0.884
8.35668	0.874
8.39681	0.869
8.43693	0.882
8.47706	0.887
8.51718	0.884
8.5573	0.869
8.59743	0.862
8.63755	0.854
8.67768	0.867
8.7178	0.867
8.75793	0.852
8.79805	0.844
8.83818	0.844
8.8783	0.871
8.91843	0.891
8.95855	0.896
8.99867	0.899
9.0388	0.903
9.07892	0.901
9.11905	0.897
9.15917	0.894
9.1993	0.896
9.23942	0.889
9.27955	0.866
9.31967	0.859
9.3598	0.869
9.39992	0.877
9.44004	0.889
9.48017	0.894
9.52029	0.901
9.56042	0.904
9.60054	0.903
9.64067	0.884
9.68079	0.892
9.72092	0.906
9.76104	0.903
9.80117	0.894
9.84129	0.887
9.88142	0.903
9.92154	0.913
9.96166	0.916
10.0018	0.897
10.0419	0.906
10.082	0.919
10.1222	0.923
10.1623	0.926
10.2024	0.933
10.2425	0.938
10.2827	0.934
10.3228	0.933
10.3629	0.924
10.403	0.909
10.4432	0.908
10.4833	0.908
10.5234	0.896
10.5635	0.894
10.6037	0.884
10.6438	0.864
10.6839	0.871
10.724	0.867
10.7642	0.862
10.8043	0.867
10.8444	0.896
10.8845	0.909
10.9247	0.918
10.9648	0.916
11.0049	0.913
11.045	0.896
11.0852	0.887
11.1253	0.869
11.1654	0.861
11.2055	0.846
11.2457	0.801
11.2858	0.765
11.3259	0.775
11.366	0.834
11.4061	0.871
11.4463	0.884
11.4864	0.892
11.5265	0.904
11.5666	0.884
11.6068	0.844
11.6469	0.871
11.687	0.914
11.7271	0.926
11.7673	0.928
11.8074	0.928
11.8475	0.928
11.8876	0.926
11.9278	0.926
11.9679	0.924
12.008	0.921
12.0481	0.914
12.0883	0.894
12.1284	0.862
12.1685	0.812
12.2086	0.824
12.2488	0.842
12.2889	0.844
12.329	0.797
12.3691	0.491
12.4093	0.392
12.4494	0.642
12.4895	0.802
12.5296	0.884
12.5698	0.904
12.6099	0.911
12.65	0.916
12.6901	0.916
12.7303	0.909
12.7704	0.906
12.8105	0.896
12.8506	0.881
12.8908	0.857
12.9309	0.829
12.971	0.819
13.0111	0.829
13.0513	0.842
13.0914	0.856
13.1315	0.877
13.1716	0.879
13.2118	0.892
13.2519	0.887
13.292	0.879
13.3321	0.866
13.3723	0.849
13.4124	0.794
13.4525	0.486
13.4926	0.354
13.5328	0.513
13.5729	0.658
13.613	0.75
13.6531	0.79
13.6932	0.802
13.7334	0.801
13.7735	0.782
13.8136	0.759
13.8537	0.732
13.8939	0.702
13.934	0.685
13.9741	0.698
14.0142	0.717
14.0544	0.71
14.0945	0.727
14.1346	0.785
14.1747	0.829
14.2149	0.876
14.255	0.899
14.2951	0.921
14.3352	0.931
14.3754	0.938
14.4155	0.941
14.4556	0.944
14.4957	0.946
14.5359	0.941
14.576	0.926
14.6161	0.936
14.6562	0.946
14.6964	0.953
14.7365	0.958
14.7766	0.963
14.8167	0.968
14.8569	0.968
14.897	0.959
14.9371	0.964
14.9772	0.966
15.0174	0.956
15.0575	0.959
15.0976	0.968
15.1377	0.976
15.1779	0.976
15.218	0.971
15.2581	0.969
15.2982	0.971
15.3384	0.973
15.3785	0.976
15.4186	0.974
15.4587	0.976
15.4989	0.974
15.539	0.973
15.5791	0.974
15.6192	0.968
15.6594	0.969
15.6995	0.968
15.7396	0.966
15.7797	0.959
15.8199	0.954
15.86	0.948
15.9001	0.949
