Infrared Spectrum: 2-ETHYL-PHENANTHRENE
Formula: C16 H14
CAS: 3674-74-6
State: SOLUTION (SATURATED IN BENZENE)
Class: COBLENTZ
Instrument: Not specified, most likely a prism, grating, or hybrid spectrometer.
Sampling: TRANSMISSION
Path length: 0.05 CM
Resolution: 4
Origin: CENTRE D'ETUDES NUCLEAIRES DE GRENOBLE
MICROMETERS	TRANSMITTANCE
15.967	0.805
16.0227	0.806
16.0784	0.826
16.1341	0.838
16.1897	0.841
16.2454	0.84
16.3011	0.84
16.3568	0.816
16.4125	0.76
16.4682	0.708
16.5238	0.663
16.5795	0.645
16.6352	0.662
16.6909	0.685
16.7466	0.73
16.8023	0.755
16.8579	0.81
16.9136	0.828
16.9693	0.841
17.025	0.848
17.0807	0.841
17.1364	0.821
17.1921	0.785
17.2477	0.752
17.3034	0.712
17.3591	0.713
17.4148	0.738
17.4705	0.767
17.5262	0.806
17.5818	0.84
17.6375	0.851
17.6932	0.855
17.7489	0.853
17.8046	0.846
17.8603	0.835
17.9159	0.815
17.9716	0.805
18.0273	0.816
18.083	0.831
18.1387	0.851
18.1944	0.861
18.25	0.868
18.3057	0.871
18.3614	0.871
18.4171	0.87
18.4728	0.863
18.5285	0.855
18.5842	0.846
18.6398	0.836
18.6955	0.831
18.7512	0.826
18.8069	0.82
18.8626	0.815
18.9183	0.81
18.9739	0.801
19.0296	0.797
19.0853	0.798
19.141	0.806
19.1967	0.815
19.2524	0.821
19.308	0.828
19.3637	0.835
19.4194	0.84
19.4751	0.843
19.5308	0.843
19.5865	0.838
19.6422	0.826
19.6978	0.813
19.7535	0.793
19.8092	0.76
19.8649	0.72
19.9206	0.68
19.9763	0.662
20.0319	0.655
20.0876	0.662
20.1433	0.675
20.199	0.688
20.2547	0.702
20.3104	0.72
20.366	0.735
20.4217	0.742
20.4774	0.753
20.5331	0.767
20.5888	0.775
20.6445	0.778
20.7001	0.783
20.7558	0.793
20.8115	0.795
20.8672	0.79
20.9229	0.777
20.9786	0.752
21.0343	0.737
21.0899	0.725
21.1456	0.708
21.2013	0.693
21.257	0.675
21.3127	0.658
21.3684	0.645
21.424	0.64
21.4797	0.635
21.5354	0.628
21.5911	0.62
21.6468	0.612
21.7025	0.602
21.7581	0.585
21.8138	0.582
21.8695	0.58
21.9252	0.564
21.9809	0.54
22.0366	0.524
22.0923	0.47
22.1479	0.42
22.2036	0.364
22.2593	0.306
22.315	0.267
22.3707	0.227
22.4264	0.212
22.482	0.207
22.5377	0.211
22.5934	0.234
22.6491	0.257
22.7048	0.287
22.7605	0.307
22.8161	0.344
22.8718	0.372
22.9275	0.399
22.9832	0.417
23.0389	0.432
23.0946	0.435
23.1502	0.437
23.2059	0.444
23.2616	0.452
23.3173	0.462
23.373	0.482
23.4287	0.502
23.4844	0.534
23.54	0.562
23.5957	0.59
23.6514	0.617
23.7071	0.632
23.7628	0.637
23.8185	0.643
23.8741	0.662
23.9298	0.66
23.9855	0.658
24.0412	0.657
24.0969	0.658
24.1526	0.663
24.2082	0.672
24.2639	0.688
24.3196	0.695
24.3753	0.71
24.431	0.735
24.4867	0.74
24.5424	0.76
24.598	0.777
24.6537	0.792
24.7094	0.8
24.7651	0.805
24.8208	0.813
24.8765	0.821
24.9321	0.826
24.9878	0.835
25.0435	0.84
25.0992	0.845
25.1549	0.85
25.2106	0.851
25.2662	0.853
25.3219	0.86
25.3776	0.861
25.4333	0.863
25.489	0.865
25.5447	0.866
25.6003	0.868
25.656	0.868
25.7117	0.87
25.7674	0.871
25.8231	0.873
25.8788	0.876
25.9345	0.88
25.9901	0.88
26.0458	0.878
26.1015	0.876
26.1572	0.876
26.2129	0.878
26.2686	0.88
26.3242	0.878
26.3799	0.878
26.4356	0.878
26.4913	0.876
26.547	0.876
26.6027	0.876
26.6583	0.876
26.714	0.878
26.7697	0.878
26.8254	0.88
26.8811	0.878
26.9368	0.878
26.9925	0.88
27.0481	0.88
27.1038	0.881
27.1595	0.883
27.2152	0.88
27.2709	0.878
27.3266	0.878
27.3822	0.88
27.4379	0.881
27.4936	0.883
27.5493	0.886
27.605	0.886
27.6607	0.885
27.7163	0.88
27.772	0.881
27.8277	0.883
27.8834	0.88
27.9391	0.883
27.9948	0.885
28.0505	0.888
28.1061	0.888
28.1618	0.89
28.2175	0.888
28.2732	0.885
28.3289	0.881
28.3846	0.876
28.4402	0.875
28.4959	0.873
28.5516	0.873
28.6073	0.875
28.663	0.878
28.7187	0.881
28.7743	0.881
28.83	0.881
28.8857	0.878
28.9414	0.873
28.9971	0.87
29.0528	0.876
29.1084	0.88
29.1641	0.881
29.2198	0.88
29.2755	0.878
29.3312	0.873
29.3869	0.873
29.4426	0.871
29.4982	0.871
29.5539	0.873
29.6096	0.876
29.6653	0.876
29.721	0.873
29.7767	0.871
29.8323	0.868
29.888	0.866
29.9437	0.865
29.9994	0.861
30.0551	0.863
30.1108	0.865
30.1664	0.866
30.2221	0.868
30.2778	0.87
30.3335	0.866
30.3892	0.865
30.4449	0.865
30.5006	0.861
30.5562	0.856
30.6119	0.853
30.6676	0.848
30.7233	0.845
30.779	0.845
30.8347	0.828
30.8903	0.828
30.946	0.833
31.0017	0.831
31.0574	0.823
31.1131	0.815
31.1688	0.813
31.2244	0.803
31.2801	0.8
31.3358	0.798
31.3915	0.797
31.4472	0.795
31.5029	0.797
31.5585	0.798
31.6142	0.8
31.6699	0.803
31.7256	0.806
31.7813	0.813
31.837	0.82
31.8927	0.823
31.9483	0.826
32.004	0.83
32.0597	0.833
32.1154	0.838
32.1711	0.841
32.2268	0.843
32.2824	0.845
32.3381	0.846
32.3938	0.848
32.4495	0.851
32.5052	0.856
32.5609	0.86
32.6165	0.86
32.6722	0.861
32.7279	0.866
32.7836	0.871
32.8393	0.87
32.895	0.87
32.9507	0.866
33.0063	0.868
33.062	0.873
33.1177	0.865
33.1734	0.87
33.2291	0.866
33.2848	0.861
33.3404	0.863
33.3961	0.866
33.4518	0.866
33.5075	0.866
33.5632	0.863
33.6189	0.866
33.6745	0.871
33.7302	0.865
33.7859	0.866
33.8416	0.865
33.8973	0.863
33.953	0.861
34.0086	0.866
34.0643	0.866
34.12	0.86
34.1757	0.858
34.2314	0.86
34.2871	0.851
34.3428	0.855
34.3984	0.851
34.4541	0.848
34.5098	0.848
34.5655	0.846
34.6212	0.838
34.6769	0.838
34.7325	0.84
34.7882	0.836
34.8439	0.836
34.8996	0.833
34.9553	0.83
35.011	0.826
