Infrared Spectrum: 2,5-DIMETHYL-PHENANTHRENE
Formula: C16 H14
CAS: 3674-66-6
State: SOLUTION (100 g/L IN HEPTANE)
Class: COBLENTZ
Instrument: Not specified, most likely a prism, grating, or hybrid spectrometer.
Sampling: TRANSMISSION
Path length: 0.01 CM
Resolution: 4
Origin: CENTRE D'ETUDES NUCLEAIRES DE GRENOBLE
MICROMETERS	TRANSMITTANCE
2.013	0.895
2.053	0.895
2.093	0.895
2.133	0.896
2.173	0.896
2.213	0.896
2.25301	0.896
2.29301	0.896
2.33301	0.898
2.37301	0.903
2.41301	0.91
2.45301	0.915
2.49301	0.913
2.53301	0.913
2.57301	0.916
2.61301	0.918
2.65302	0.918
2.69302	0.921
2.73302	0.921
2.77302	0.923
2.81302	0.923
2.85302	0.923
2.89302	0.925
2.93302	0.926
2.97302	0.93
3.01302	0.933
3.05302	0.933
3.09303	0.936
3.13303	0.938
3.17303	0.935
3.21303	0.925
3.25303	0.905
3.29303	0.74
3.33303	0.62
3.37303	0.706
3.41303	0.726
3.45303	0.726
3.49304	0.741
3.53304	0.735
3.57304	0.765
3.61304	0.886
3.65304	0.94
3.69304	0.943
3.73304	0.948
3.77304	0.966
3.81304	0.968
3.85304	0.961
3.89305	0.958
3.93305	0.961
3.97305	0.955
4.01305	0.96
4.05305	0.963
4.09305	0.956
4.13305	0.96
4.17305	0.963
4.21305	0.96
4.25305	0.958
4.29305	0.96
4.33306	0.953
4.37306	0.951
4.41306	0.965
4.45306	0.966
4.49306	0.968
4.53306	0.968
4.57306	0.968
4.61306	0.968
4.65306	0.968
4.69306	0.968
4.73307	0.966
4.77307	0.966
4.81307	0.968
4.85307	0.97
4.89307	0.97
4.93307	0.97
4.97307	0.971
5.01307	0.971
5.05307	0.971
5.09307	0.971
5.13307	0.971
5.17308	0.968
5.21308	0.95
5.25308	0.913
5.29308	0.915
5.33308	0.951
5.37308	0.968
5.41308	0.953
5.45308	0.936
5.49308	0.951
5.53308	0.965
5.57309	0.968
5.61309	0.956
5.65309	0.926
5.69309	0.916
5.73309	0.92
5.77309	0.928
5.81309	0.935
5.85309	0.935
5.89309	0.925
5.93309	0.93
5.9731	0.941
6.0131	0.946
6.0531	0.935
6.0931	0.936
6.1331	0.903
6.1731	0.816
6.2131	0.725
6.2531	0.876
6.2931	0.863
6.3331	0.921
6.3731	0.913
6.41311	0.885
6.45311	0.911
6.49311	0.923
6.53311	0.913
6.57311	0.886
6.61311	0.895
6.65311	0.9
6.69311	0.89
6.73311	0.851
6.77311	0.836
6.81312	0.848
6.85312	0.845
6.89312	0.831
6.93312	0.818
6.97312	0.783
7.01312	0.755
7.05312	0.818
7.09312	0.873
7.13312	0.9
7.17312	0.91
7.21312	0.911
7.25313	0.926
7.29313	0.921
7.33313	0.87
7.37313	0.911
7.41313	0.941
7.45313	0.948
7.49313	0.955
7.53313	0.943
7.57313	0.943
7.61313	0.9
7.65314	0.916
7.69314	0.941
7.73314	0.888
7.77314	0.911
7.81314	0.946
7.85314	0.951
7.89314	0.936
7.93314	0.936
7.97314	0.95
8.01314	0.911
8.05314	0.855
8.09315	0.926
8.13315	0.94
8.17315	0.945
8.21315	0.905
8.25315	0.82
8.29315	0.913
8.33315	0.95
8.37315	0.953
8.41315	0.95
8.45315	0.945
8.49316	0.925
8.53316	0.893
8.57316	0.901
8.61316	0.866
8.65316	0.911
8.69316	0.94
8.73316	0.943
8.77316	0.935
8.81316	0.923
8.85316	0.928
8.89317	0.935
8.93317	0.941
8.97317	0.943
9.01317	0.93
9.05317	0.846
9.09317	0.891
9.13317	0.925
9.17317	0.933
9.21317	0.936
9.25317	0.94
9.29317	0.946
9.33318	0.955
9.37318	0.956
9.41318	0.953
9.45318	0.946
9.49318	0.938
9.53318	0.926
9.57318	0.911
9.61318	0.886
9.65318	0.865
9.69318	0.855
9.73319	0.893
9.77319	0.91
9.81319	0.925
9.85319	0.933
9.89319	0.931
9.93319	0.925
9.97319	0.92
10.0132	0.908
10.0532	0.855
10.0932	0.916
10.1332	0.943
10.1732	0.955
10.2132	0.948
10.2532	0.956
10.2932	0.956
10.3332	0.936
10.3732	0.923
10.4132	0.93
10.4532	0.926
10.4932	0.925
10.5332	0.938
10.5732	0.95
10.6132	0.956
10.6532	0.961
10.6932	0.961
10.7332	0.96
10.7732	0.956
10.8132	0.948
10.8532	0.938
10.8932	0.943
10.9332	0.956
10.9732	0.96
11.0132	0.96
11.0532	0.961
11.0932	0.96
11.1332	0.943
11.1732	0.843
11.2132	0.73
11.2532	0.83
11.2932	0.858
11.3332	0.753
11.3732	0.476
11.4132	0.603
11.4532	0.816
11.4932	0.886
11.5332	0.918
11.5732	0.93
11.6132	0.936
11.6532	0.943
11.6932	0.946
11.7332	0.943
11.7732	0.916
11.8132	0.878
11.8532	0.903
11.8932	0.903
11.9332	0.881
11.9732	0.845
12.0132	0.763
12.0532	0.626
12.0932	0.353
12.1332	0.126
12.1732	0.401
12.2132	0.688
12.2532	0.768
12.2932	0.741
12.3332	0.535
12.3732	0.478
12.4132	0.633
12.4533	0.748
12.4933	0.845
12.5333	0.88
12.5733	0.891
12.6133	0.883
12.6533	0.825
12.6933	0.688
12.7333	0.621
12.7733	0.798
12.8133	0.886
12.8533	0.911
12.8933	0.921
12.9333	0.918
12.9733	0.913
13.0133	0.901
13.0533	0.888
13.0933	0.873
13.1333	0.81
13.1733	0.715
13.2133	0.436
13.2533	0.26
13.2933	0.371
13.3333	0.636
13.3733	0.776
13.4133	0.823
13.4533	0.816
13.4933	0.82
13.5333	0.858
13.5733	0.888
13.6133	0.908
13.6533	0.928
13.6933	0.931
13.7333	0.921
13.7733	0.918
13.8133	0.915
13.8533	0.901
13.8933	0.895
13.9333	0.863
13.9733	0.821
14.0133	0.725
14.0533	0.593
14.0933	0.413
14.1333	0.335
14.1733	0.578
14.2133	0.731
14.2533	0.858
14.2933	0.896
14.3333	0.901
14.3733	0.9
14.4133	0.91
14.4533	0.928
14.4933	0.941
14.5333	0.948
14.5733	0.953
14.6133	0.955
14.6533	0.953
14.6933	0.951
14.7333	0.953
14.7733	0.956
14.8133	0.958
14.8533	0.958
14.8933	0.956
14.9333	0.956
14.9733	0.955
15.0133	0.951
15.0533	0.948
15.0933	0.951
15.1333	0.955
15.1733	0.951
15.2133	0.95
15.2533	0.95
15.2933	0.948
15.3333	0.95
15.3733	0.951
15.4133	0.945
15.4533	0.95
15.4933	0.948
15.5333	0.943
15.5733	0.945
15.6133	0.943
15.6533	0.943
15.6933	0.946
15.7333	0.945
15.7733	0.943
15.8133	0.943
15.8533	0.941
15.8933	0.941
