Infrared Spectrum: 2,3,5-TRIMETHYL-PHENANTHRENE
Formula: C17 H16
CAS: 3674-73-5
State: SOLUTION (114 g/L IN HEPTANE)
Class: COBLENTZ
Instrument: Not specified, most likely a prism, grating, or hybrid spectrometer.
Sampling: TRANSMISSION
Path length: 0.01 CM
Resolution: 4
Origin: CENTRE D'ETUDES NUCLEAIRES DE GRENOBLE
MICROMETERS	TRANSMITTANCE
1.97	0.858
2.01014	0.858
2.05028	0.86
2.09043	0.861
2.13057	0.861
2.17071	0.861
2.21085	0.861
2.251	0.861
2.29114	0.861
2.33128	0.856
2.37142	0.856
2.41157	0.87
2.45171	0.866
2.49185	0.863
2.53199	0.868
2.57214	0.873
2.61228	0.878
2.65242	0.873
2.69256	0.878
2.73271	0.88
2.77285	0.88
2.81299	0.876
2.85313	0.871
2.89328	0.866
2.93342	0.861
2.97356	0.858
3.0137	0.853
3.05385	0.853
3.09399	0.855
3.13413	0.856
3.17427	0.855
3.21442	0.848
3.25456	0.84
3.2947	0.761
3.33484	0.706
3.37499	0.711
3.41513	0.716
3.45527	0.72
3.49541	0.721
3.53556	0.723
3.5757	0.733
3.61584	0.843
3.65598	0.87
3.69613	0.865
3.73627	0.873
3.77641	0.886
3.81655	0.888
3.8567	0.886
3.89684	0.885
3.93698	0.881
3.97712	0.88
4.01727	0.88
4.05741	0.88
4.09755	0.88
4.13769	0.88
4.17784	0.881
4.21798	0.885
4.25812	0.885
4.29826	0.885
4.33841	0.883
4.37855	0.883
4.41869	0.885
4.45883	0.886
4.49898	0.886
4.53912	0.888
4.57926	0.888
4.6194	0.888
4.65955	0.888
4.69969	0.888
4.73983	0.89
4.77997	0.888
4.82012	0.888
4.86026	0.888
4.9004	0.888
4.94054	0.89
4.98069	0.891
5.02083	0.891
5.06097	0.888
5.10111	0.888
5.14126	0.89
5.1814	0.89
5.22154	0.863
5.26168	0.848
5.30183	0.861
5.34197	0.885
5.38211	0.89
5.42225	0.875
5.4624	0.87
5.50254	0.876
5.54268	0.885
5.58282	0.881
5.62297	0.855
5.66311	0.85
5.70325	0.81
5.74339	0.778
5.78353	0.796
5.82368	0.855
5.86382	0.846
5.90396	0.851
5.9441	0.866
5.98425	0.865
6.02439	0.856
6.06453	0.84
6.10467	0.835
6.14482	0.82
6.18496	0.785
6.2251	0.721
6.26524	0.741
6.30539	0.708
6.34553	0.748
6.38567	0.75
6.42581	0.776
6.46596	0.801
6.5061	0.826
6.54624	0.835
6.58638	0.815
6.62653	0.751
6.66667	0.705
6.70681	0.701
6.74695	0.758
6.7871	0.8
6.82724	0.825
6.86738	0.843
6.90752	0.851
6.94767	0.845
6.98781	0.805
7.02795	0.758
7.06809	0.748
7.10824	0.776
7.14838	0.808
7.18852	0.793
7.22866	0.795
7.26881	0.8
7.30895	0.793
7.34909	0.775
7.38923	0.795
7.42938	0.808
7.46952	0.83
7.50966	0.825
7.5498	0.828
7.58995	0.83
7.63009	0.795
7.67023	0.831
7.71037	0.838
7.75052	0.835
7.79066	0.823
7.8308	0.823
7.87094	0.825
7.91109	0.81
7.95123	0.818
7.99137	0.825
8.03151	0.82
8.07166	0.831
8.1118	0.84
8.15194	0.818
8.19208	0.805
8.23223	0.823
8.27237	0.826
8.31251	0.781
8.35265	0.801
8.3928	0.801
8.43294	0.805
8.47308	0.818
8.51322	0.806
8.55337	0.788
8.59351	0.688
8.63365	0.765
8.67379	0.793
8.71394	0.79
8.75408	0.811
8.79422	0.825
8.83436	0.818
8.87451	0.801
8.91465	0.788
8.95479	0.815
8.99493	0.825
9.03508	0.838
9.07522	0.833
9.11536	0.81
9.1555	0.75
9.19565	0.825
9.23579	0.846
9.27593	0.858
9.31607	0.865
9.35622	0.863
9.39636	0.86
9.4365	0.856
9.47664	0.846
9.51679	0.836
9.55693	0.83
9.59707	0.821
9.63721	0.813
9.67735	0.8
9.7175	0.785
9.75764	0.748
9.79778	0.701
9.83792	0.768
9.87807	0.82
9.91821	0.821
9.95835	0.801
9.99849	0.786
10.0386	0.833
10.0788	0.848
10.1189	0.86
10.1591	0.865
10.1992	0.868
10.2393	0.863
10.2795	0.871
10.3196	0.86
10.3598	0.841
10.3999	0.796
10.4401	0.783
10.4802	0.801
10.5203	0.835
10.5605	0.855
10.6006	0.871
10.6408	0.88
10.6809	0.881
10.7211	0.878
10.7612	0.881
10.8013	0.876
10.8415	0.878
10.8816	0.876
10.9218	0.878
10.9619	0.87
11.0021	0.873
11.0422	0.866
11.0823	0.861
11.1225	0.853
11.1626	0.84
11.2028	0.66
11.2429	0.693
11.2831	0.765
11.3232	0.765
11.3633	0.59
11.4035	0.398
11.4436	0.39
11.4838	0.475
11.5239	0.645
11.5641	0.738
11.6042	0.798
11.6443	0.813
11.6845	0.836
11.7246	0.85
11.7648	0.856
11.8049	0.863
11.845	0.865
11.8852	0.863
11.9253	0.863
11.9655	0.858
12.0056	0.86
12.0458	0.856
12.0859	0.846
12.126	0.796
12.1662	0.755
12.2063	0.681
12.2465	0.295
12.2866	0.291
12.3268	0.548
12.3669	0.696
12.407	0.738
12.4472	0.776
12.4873	0.785
12.5275	0.781
12.5676	0.638
12.6078	0.69
12.6479	0.793
12.688	0.845
12.7282	0.858
12.7683	0.865
12.8085	0.858
12.8486	0.85
12.8888	0.86
12.9289	0.861
12.969	0.861
13.0092	0.863
13.0493	0.856
13.0895	0.846
13.1296	0.826
13.1698	0.733
13.2099	0.33
13.25	0.42
13.2902	0.561
13.3303	0.695
13.3705	0.748
13.4106	0.806
13.4507	0.816
13.4909	0.82
13.531	0.831
13.5712	0.846
13.6113	0.868
13.6515	0.871
13.6916	0.87
13.7317	0.878
13.7719	0.871
13.812	0.865
13.8522	0.863
13.8923	0.856
13.9325	0.851
13.9726	0.85
14.0127	0.848
14.0529	0.793
14.093	0.535
14.1332	0.443
14.1733	0.546
14.2135	0.653
14.2536	0.748
14.2937	0.796
14.3339	0.836
14.374	0.85
14.4142	0.86
14.4543	0.866
14.4945	0.865
14.5346	0.868
14.5747	0.87
14.6149	0.871
14.655	0.876
14.6952	0.873
14.7353	0.878
14.7754	0.878
14.8156	0.88
14.8557	0.881
14.8959	0.878
14.936	0.876
14.9762	0.881
15.0163	0.876
15.0564	0.873
15.0966	0.868
15.1367	0.875
15.1769	0.87
15.217	0.86
15.2572	0.87
15.2973	0.861
15.3374	0.863
15.3776	0.86
15.4177	0.866
15.4579	0.86
15.498	0.86
15.5382	0.866
15.5783	0.86
15.6184	0.866
15.6586	0.868
15.6987	0.871
15.7389	0.87
15.779	0.868
15.8192	0.873
15.8593	0.868
15.8994	0.846
