Infrared Spectrum: 2,3-Dichloropropionic acid, methyl ester
Formula: C4 H6 Cl2 O2
CAS: 3674-09-7
State: SOLUTION (10% CCl4 FOR 2-7.6, 10% CS2 FOR 7.6-16 MICRON)
Class: COBLENTZ III
Instrument: BAIRD (GRATING)
Instrument parameters: NaCl PRISM
Sampling: TRANSMISSION
Path length: 0.012 CM, AND 0.012 CM
Resolution: 2
Origin: DOW CHEMICAL COMPANY
1/CM	TRANSMITTANCE
4000	0.933
3991	0.9321
3982	0.9343
3973	0.9337
3964	0.9342
3955	0.9347
3946	0.9351
3937	0.9356
3928	0.936
3919	0.935
3910	0.9365
3901	0.9378
3892	0.9369
3883	0.9369
3874	0.9365
3865	0.936
3856	0.9364
3847	0.9369
3838	0.9373
3829	0.9375
3820	0.9377
3811	0.9375
3802	0.9368
3793	0.9378
3784	0.9371
3775	0.9367
3766	0.9377
3757	0.9374
3748	0.9372
3739	0.9369
3730	0.9365
3721	0.9348
3712	0.934
3703	0.9342
3694	0.9323
3685	0.9306
3676	0.9306
3667	0.9307
3658	0.9296
3649	0.9267
3640	0.9234
3631	0.9214
3622	0.9183
3613	0.9152
3604	0.9145
3595	0.9139
3586	0.9136
3577	0.9134
3568	0.9121
3559	0.91
3550	0.9075
3541	0.9047
3532	0.9034
3523	0.9029
3514	0.905
3505	0.9081
3496	0.9118
3487	0.9153
3478	0.9186
3469	0.922
3460	0.9249
3451	0.9278
3442	0.9302
3433	0.9316
3424	0.9331
3415	0.9343
3406	0.9355
3397	0.9343
3388	0.9334
3379	0.932
3370	0.9318
3361	0.93
3352	0.9307
3343	0.9292
3334	0.9288
3325	0.9286
3316	0.9286
3307	0.929
3298	0.929
3289	0.9286
3280	0.928
3271	0.9275
3262	0.926
3253	0.9252
3244	0.9241
3235	0.9238
3226	0.9221
3217	0.9225
3208	0.9214
3199	0.9224
3190	0.9222
3181	0.921
3172	0.92
3163	0.9192
3154	0.9171
3145	0.9141
3136	0.9134
3127	0.9114
3118	0.9092
3109	0.9068
3100	0.9059
3091	0.9049
3082	0.8966
3073	0.8923
3064	0.8769
3055	0.8498
3046	0.8017
3037	0.7721
3028	0.739
3019	0.7199
3010	0.7048
3001	0.6943
2992	0.6855
2983	0.654
2974	0.6115
2965	0.6081
2956	0.6479
2947	0.7095
2938	0.7713
2929	0.7818
2920	0.7867
2911	0.7979
2902	0.8088
2893	0.8155
2884	0.8177
2875	0.8151
2866	0.8134
2857	0.8186
2848	0.8359
2839	0.8629
2830	0.8889
2821	0.9167
2812	0.9321
2803	0.9411
2794	0.9431
2785	0.9423
2776	0.9423
2767	0.9418
2758	0.9414
2749	0.9412
2740	0.9417
2731	0.9423
2722	0.9438
2713	0.9456
2704	0.9482
2695	0.9517
2686	0.9538
2677	0.9514
2668	0.948
2659	0.9461
2650	0.9449
2641	0.944
2632	0.9435
2623	0.9431
2614	0.9428
2605	0.9442
2596	0.9457
2587	0.9475
2578	0.949
2569	0.9498
2560	0.9504
2551	0.9511
2542	0.9517
2533	0.9524
2524	0.9536
2515	0.9546
2506	0.9552
2497	0.9548
2488	0.9538
2479	0.9546
2470	0.955
2461	0.955
2452	0.9549
2443	0.9503
2434	0.947
2425	0.9467
2416	0.9466
2407	0.9474
2398	0.9519
2389	0.9549
2380	0.957
2371	0.956
2362	0.9497
2353	0.9515
2344	0.9509
2335	0.9499
2326	0.9538
2317	0.9549
2308	0.9563
2299	0.9594
2290	0.9641
2281	0.9674
2272	0.969
2263	0.9692
2254	0.9685
2245	0.9692
2236	0.9687
2227	0.9649
2218	0.9612
2209	0.9599
2200	0.9588
2191	0.9593
2182	0.9601
2173	0.9617
2164	0.9605
2155	0.9597
2146	0.959
2137	0.9553
2128	0.954
2119	0.9542
2110	0.9542
2101	0.9534
2092	0.9515
2083	0.9455
2074	0.9433
2065	0.9433
2056	0.9452
2047	0.9446
2038	0.9465
2029	0.9465
2020	0.9465
2011	0.9448
2002	0.9454
1993	0.9493
1984	0.9542
1975	0.9568
1966	0.9571
1957	0.956
1948	0.9528
1939	0.9517
1930	0.9495
1921	0.9493
1912	0.9537
1903	0.9537
1894	0.9493
1885	0.9406
1876	0.9397
1867	0.9375
1858	0.9351
1849	0.9197
1840	0.9055
1831	0.8925
1822	0.8686
1813	0.8314
1804	0.7688
1795	0.637
1786	0.4673
1777	0.2788
1768	0.0688
1759	0.0397
1750	0.0967
1741	0.2888
1732	0.4892
1723	0.6584
1714	0.7631
1705	0.8222
1696	0.8719
1687	0.904
1678	0.9167
1669	0.926
1660	0.933
1651	0.93
1642	0.9219
1633	0.9149
1624	0.9
1615	0.8558
1606	0.8077
1597	0.7582
1588	0.769
1579	0.7535
1570	0.6935
1561	0.6534
1552	0.7134
1543	0.8417
1534	0.8284
1525	0.828
1516	0.8527
1507	0.8723
1498	0.8614
1489	0.8376
1480	0.7576
1471	0.6103
1462	0.4612
1453	0.314
1444	0.2125
1435	0.4955
1426	0.7823
1417	0.8305
1408	0.8354
1399	0.8145
1390	0.7917
1381	0.757
1372	0.6029
1363	0.2614
1354	0.334
1345	0.4987
1336	0.533
1327	0.4974
1318	0.5388
1309	0.5484
1300	0.393
1291	0.1178
1282	0.2541
1273	0.2698
1264	0.2259
1255	0.3455
1246	0.4341
1237	0.2615
1228	0.1804
1219	0.391
1210	0.2963
1201	0.1624
1192	0.2205
1183	0.2018
1174	0.1206
1165	0.1189
1156	0.2832
1147	0.5643
1138	0.5311
1129	0.4776
1120	0.6284
1111	0.6791
1102	0.713
1093	0.7045
1084	0.6917
1075	0.7154
1066	0.6668
1057	0.7528
1048	0.7369
1039	0.7265
1030	0.5765
1021	0.4742
1012	0.6497
1003	0.7227
994	0.5875
985	0.4539
976	0.7445
967	0.7659
958	0.7998
949	0.8844
940	0.8471
931	0.8409
922	0.8535
913	0.849
904	0.8717
895	0.8958
886	0.891
877	0.866
868	0.8084
859	0.7358
850	0.6536
841	0.7177
832	0.786
823	0.7314
814	0.8043
805	0.8503
796	0.8484
787	0.8367
778	0.8402
769	0.8234
760	0.8161
751	0.7728
742	0.4511
733	0.5198
724	0.5892
715	0.4703
706	0.1309
697	0.382
688	0.5576
679	0.5893
670	0.5593
661	0.5253
652	0.4773
643	0.4244
634	0.3716
