Infrared Spectrum: BENZAMIDE, 2-AMINO-3,5-DICHLORO-
Formula: C7 H6 Cl2 N2 O
CAS: 36765-01-2
State: SOLID (1 mg / 500 mg KBr DISC)
Class: COBLENTZ III
Instrument: PERKIN-ELMER 621
Sampling: TRANSMISSION
Resolution: 4
Origin: SOUTHERN RESEARCH INSTITUTE
1/CM	TRANSMITTANCE
277.098	0.365
287.588	0.5197
298.077	0.582
308.567	0.583
319.056	0.575
329.546	0.57
340.035	0.7189
350.525	0.74
361.014	0.761
371.504	0.75
381.993	0.761
392.483	0.776
402.972	0.745
413.462	0.695
423.952	0.68
434.441	0.776
444.931	0.798
455.42	0.783
465.91	0.765
476.399	0.748
486.889	0.742
497.378	0.737
507.868	0.72
518.357	0.702
528.847	0.678
539.337	0.655
549.826	0.6091
560.316	0.6009
570.805	0.657
581.295	0.62
591.784	0.621
602.274	0.622
612.763	0.604
623.253	0.558
633.742	0.515
644.232	0.472
654.721	0.437
665.211	0.415
675.701	0.486
686.19	0.603
696.68	0.584
707.169	0.621
717.659	0.659
728.148	0.655
738.638	0.548
749.127	0.703
759.617	0.66
770.106	0.712
780.596	0.762
791.086	0.725
801.575	0.605
812.065	0.6679
822.554	0.766
833.044	0.771
843.533	0.789
854.023	0.778
864.512	0.6861
875.002	0.7026
885.491	0.813
895.981	0.849
906.47	0.851
916.96	0.849
927.45	0.84
937.939	0.834
948.429	0.828
958.918	0.821
969.408	0.815
979.897	0.806
990.387	0.796
1000.88	0.789
1011.37	0.775
1021.86	0.765
1032.34	0.746
1042.83	0.725
1053.32	0.699
1063.81	0.66
1074.3	0.686
1084.79	0.704
1095.28	0.695
1105.77	0.681
1116.26	0.634
1126.75	0.612
1137.24	0.712
1147.73	0.693
1158.22	0.715
1168.71	0.745
1179.2	0.729
1189.69	0.714
1200.18	0.684
1210.67	0.64
1221.16	0.574
1231.65	0.557
1242.14	0.6649
1252.63	0.655
1263.11	0.607
1273.6	0.549
1284.09	0.6719
1294.58	0.665
1305.07	0.614
1315.56	0.698
1326.05	0.694
1336.54	0.687
1347.03	0.661
1357.52	0.633
1368.01	0.6
1378.5	0.549
1388.99	0.4281
1399.48	0.5099
1409.97	0.533
1420.46	0.428
1430.95	0.505
1441.44	0.57
1451.93	0.469
1462.42	0.567
1472.91	0.672
1483.4	0.665
1493.88	0.647
1504.37	0.61
1514.86	0.573
1525.35	0.494
1535.84	0.364
1546.33	0.3339
1556.82	0.571
1567.31	0.421
1577.8	0.506
1588.29	0.524
1598.78	0.391
1609.27	0.292
1619.76	0.411
1630.25	0.409
1640.74	0.2579
1651.23	0.3168
1661.72	0.524
1672.21	0.624
1682.7	0.691
1693.19	0.741
1703.68	0.774
1714.17	0.812
1724.65	0.826
1735.14	0.83
1745.63	0.825
1756.12	0.827
1766.61	0.861
1777.1	0.865
1787.59	0.887
1798.08	0.894
1808.57	0.902
1819.06	0.907
1829.55	0.907
1840.04	0.906
1850.53	0.903
1861.02	0.899
1871.51	0.896
1882	0.896
1892.49	0.896
1902.98	0.896
1913.47	0.895
1923.96	0.892
1934.45	0.89
1944.94	0.886
1955.42	0.885
1965.91	0.885
1976.4	0.885
1986.89	0.882
1997.38	0.877
2007.87	0.872
2018.36	0.872
2028.85	0.872
2039.34	0.872
2049.83	0.8681
2060.32	0.866
2070.81	0.865
2081.3	0.865
2091.79	0.864
2102.28	0.8591
2112.77	0.8562
2123.26	0.8512
2133.75	0.848
2144.24	0.847
2154.73	0.847
2165.22	0.845
2175.71	0.84
2186.19	0.8365
2196.68	0.835
2207.17	0.8313
2217.66	0.83
2228.15	0.827
2238.64	0.822
2249.13	0.8183
2259.62	0.818
2270.11	0.818
2280.6	0.817
2291.09	0.815
2301.58	0.8108
2312.07	0.8033
2322.56	0.8
2333.05	0.8006
2343.54	0.8
2354.03	0.808
2364.52	0.808
2375.01	0.809
2385.5	0.809
2395.99	0.806
2406.47	0.801
2416.96	0.801
2427.45	0.8006
2437.94	0.798
2448.43	0.796
2458.92	0.7942
2469.41	0.791
2479.9	0.788
2490.39	0.785
2500.88	0.7847
2511.37	0.783
2521.86	0.78
2532.35	0.7757
2542.84	0.776
2553.33	0.776
2563.82	0.776
2574.31	0.776
2584.8	0.775
2595.29	0.772
2605.78	0.7708
2616.27	0.77
2626.76	0.7678
2637.24	0.765
2647.73	0.7607
2658.22	0.751
2668.71	0.75
2679.2	0.7478
2689.69	0.7398
2700.18	0.7319
2710.67	0.7269
2721.16	0.72
2731.65	0.718
2742.14	0.716
2752.63	0.706
2763.12	0.704
2773.61	0.708
2784.1	0.715
2794.59	0.716
2805.08	0.716
2815.57	0.716
2826.06	0.716
2836.55	0.7162
2847.04	0.7151
2857.53	0.715
2868.01	0.7123
2878.5	0.712
2888.99	0.708
2899.48	0.704
2909.97	0.702
2920.46	0.701
2930.95	0.694
2941.44	0.6915
2951.93	0.682
2962.42	0.6763
2972.91	0.673
2983.4	0.6673
2993.89	0.6596
3004.38	0.6503
3014.87	0.6411
3025.36	0.6317
3035.85	0.6278
3046.34	0.614
3056.83	0.5986
3067.32	0.579
3077.81	0.5794
3088.3	0.5699
3098.78	0.5554
3109.27	0.536
3119.76	0.522
3130.25	0.5085
3140.74	0.4876
3151.23	0.4606
3161.72	0.4312
3172.21	0.3938
3182.7	0.3761
3193.19	0.3792
3203.68	0.4162
3214.17	0.4559
3224.66	0.4985
3235.15	0.5287
3245.64	0.532
3256.13	0.526
3266.62	0.5117
3277.11	0.4873
3287.6	0.4687
3298.09	0.4627
3308.58	0.442
3319.07	0.3928
3329.55	0.3115
3340.04	0.3189
3350.53	0.3364
3361.02	0.2899
3371.51	0.2702
3382	0.3156
3392.49	0.4019
3402.98	0.4942
3413.47	0.535
3423.96	0.495
3434.45	0.5012
3444.94	0.656
3455.43	0.7373
3465.92	0.7741
3476.41	0.792
3486.9	0.8061
3497.39	0.813
3507.88	0.817
3518.37	0.815
3528.86	0.815
3539.35	0.813
3549.83	0.812
3560.32	0.812
3570.81	0.813
3581.3	0.813
3591.79	0.814
3602.28	0.815
3612.77	0.815
3623.26	0.814
3633.75	0.812
3644.24	0.81
3654.73	0.81
3665.22	0.8092
3675.71	0.805
3686.2	0.804
3696.69	0.801
3707.18	0.8
3717.67	0.797
3728.16	0.793
3738.65	0.7913
3749.14	0.789
3759.63	0.7873
3770.12	0.785
3780.6	0.784
3791.09	0.7834
3801.58	0.783
3812.07	0.783
3822.56	0.78
3833.05	0.778
3843.54	0.775
3854.03	0.7745
3864.52	0.772
3875.01	0.7715
3885.5	0.7685
3895.99	0.7625
3906.48	0.761
3916.97	0.7616
3927.46	0.758
3937.95	0.7584
3948.44	0.758
3958.93	0.758
3969.42	0.757
3979.91	0.755
3990.4	0.7547
4000.89	0.751
