Infrared Spectrum: Oxadiazole, 1,2,4-,5-carboxamide,3-(5-nitrofuran-2-yl)-
Formula: C7 H4 N4 O5
CAS: 36770-34-0
State: SOLID (NUJOL MULL)
Melting point: 220 C
Class: COBLENTZ III
Instrument: PERKIN-ELMER 421 (GRATING)
Instrument parameters: GRATINGS: 1999 CM^-^1
Sampling: TRANSMISSION
Resolution: 2
Origin: ABBOTT LABORATORIES - WASHBURN
1/CM	TRANSMITTANCE
728	0.6311
737	0.3175
746	0.6317
755	0.5681
764	0.4901
773	0.5112
782	0.6739
791	0.6688
800	0.5529
809	0.5181
818	0.5814
827	0.4706
836	0.792
845	0.8235
854	0.8274
863	0.8242
872	0.8146
881	0.7886
890	0.7003
899	0.3611
908	0.8091
917	0.6485
926	0.732
935	0.8006
944	0.7868
953	0.7589
962	0.6005
971	0.7541
980	0.7456
989	0.7551
998	0.7412
1007	0.642
1016	0.2193
1025	0.7875
1034	0.8025
1043	0.7968
1052	0.7884
1061	0.7695
1070	0.7491
1079	0.7257
1088	0.6842
1097	0.638
1106	0.6826
1115	0.6941
1124	0.7003
1133	0.6952
1142	0.6861
1151	0.6797
1160	0.6758
1169	0.6666
1178	0.6293
1187	0.6567
1196	0.6303
1205	0.5856
1214	0.4732
1223	0.2708
1232	0.4374
1241	0.4129
1250	0.6698
1259	0.6358
1268	0.6159
1277	0.5752
1286	0.5279
1295	0.4801
1304	0.3256
1313	0.2282
1322	0.2222
1331	0.3683
1340	0.158
1349	0.1073
1358	0.1752
1367	0.2978
1376	0.3054
1385	0.4406
1394	0.5181
1403	0.3415
1412	0.4261
1421	0.5097
1430	0.315
1439	0.2922
1448	0.2395
1457	0.2104
1466	0.327
1475	0.5405
1484	0.5738
1493	0.5461
1502	0.4095
1511	0.1932
1520	0.3001
1529	0.601
1538	0.499
1547	0.3172
1556	0.4773
1565	0.4726
1574	0.3797
1583	0.5729
1592	0.4838
1601	0.3724
1610	0.4016
1619	0.4584
1628	0.7024
1637	0.7086
1646	0.6606
1655	0.6123
1664	0.5042
1673	0.3793
1682	0.2057
1691	0.1338
1700	0.2114
1709	0.3551
1718	0.4631
1727	0.5948
1736	0.7156
1745	0.7571
1754	0.7825
1763	0.8032
1772	0.816
1781	0.8151
1790	0.8038
1799	0.8061
1808	0.8151
1817	0.8332
1826	0.8374
1835	0.8445
1844	0.8469
1853	0.8513
1862	0.8517
1871	0.8512
1880	0.85
1889	0.8486
1898	0.8469
1907	0.8452
1916	0.8438
1925	0.843
1934	0.8423
1943	0.8418
1952	0.8407
1961	0.8389
1970	0.8361
1979	0.8333
1988	0.8288
1997	0.8276
2006	0.8379
2015	0.833
2024	0.8299
2033	0.8263
2042	0.8257
2051	0.8269
2060	0.8261
2069	0.825
2078	0.8234
2087	0.8217
2096	0.8204
2105	0.8165
2114	0.8165
2123	0.8128
2132	0.8113
2141	0.8063
2150	0.803
2159	0.8017
2168	0.8028
2177	0.8019
2186	0.798
2195	0.7957
2204	0.794
2213	0.7927
2222	0.7913
2231	0.7898
2240	0.788
2249	0.786
2258	0.7832
2267	0.7801
2276	0.7773
2285	0.7751
2294	0.7728
2303	0.7707
2312	0.7689
2321	0.7678
2330	0.7671
2339	0.7665
2348	0.7649
2357	0.763
2366	0.7625
2375	0.7619
2384	0.761
2393	0.7592
2402	0.756
2411	0.754
2420	0.7525
2429	0.7513
2438	0.7499
2447	0.7474
2456	0.7441
2465	0.7408
2474	0.7361
2483	0.7315
2492	0.7391
2501	0.7391
2510	0.7352
2519	0.7318
2528	0.7281
2537	0.7251
2546	0.7244
2555	0.7185
2564	0.7116
2573	0.7063
2582	0.7026
2591	0.6978
2600	0.6927
2609	0.6877
2618	0.6827
2627	0.6778
2636	0.6741
2645	0.6692
2654	0.6636
2663	0.6572
2672	0.6534
2681	0.6535
2690	0.654
2699	0.6538
2708	0.65
2717	0.6441
2726	0.6457
2735	0.65
2744	0.6505
2753	0.6473
2762	0.6432
2771	0.6362
2780	0.6222
2789	0.6062
2798	0.5872
2807	0.5667
2816	0.54
2825	0.4582
2834	0.3089
2843	0.0899
2852	0.0504
2861	0.0585
2870	0.0761
2879	0.1016
2888	0.0745
2897	0.0405
2906	0.0244
2915	0.0215
2924	0.0233
2933	0.0255
2942	0.0291
2951	0.0345
2960	0.0547
2969	0.1038
2978	0.1851
2987	0.2846
2996	0.332
3005	0.3636
3014	0.3906
3023	0.4067
3032	0.4168
3041	0.4228
3050	0.4251
3059	0.4254
3068	0.4255
3077	0.4238
3086	0.4179
3095	0.4055
3104	0.3848
3113	0.3553
3122	0.3214
3131	0.2629
3140	0.2931
3149	0.2588
3158	0.3157
3167	0.3126
3176	0.3331
3185	0.3789
3194	0.3927
3203	0.3948
3212	0.3919
3221	0.3825
3230	0.3723
3239	0.3766
3248	0.3978
3257	0.4293
3266	0.4705
3275	0.4867
3284	0.4824
3293	0.4595
3302	0.4457
3311	0.4468
3320	0.4578
3329	0.4877
3338	0.505
3347	0.5078
3356	0.5025
3365	0.4859
3374	0.4518
3383	0.4139
3392	0.3539
3401	0.2802
3410	0.3486
3419	0.4469
3428	0.4062
3437	0.2722
3446	0.2522
3455	0.5033
3464	0.6434
3473	0.6568
3482	0.6606
3491	0.6597
3500	0.6556
3509	0.6523
3518	0.6486
3527	0.6456
3536	0.6428
3545	0.6403
3554	0.6378
3563	0.6352
3572	0.6318
3581	0.628
3590	0.6254
3599	0.6227
3608	0.62
3617	0.6172
3626	0.6157
3635	0.6142
3644	0.6121
3653	0.6099
3662	0.6081
3671	0.6065
3680	0.6041
3689	0.6008
3698	0.6
3707	0.5988
3716	0.5971
3725	0.5946
3734	0.592
3743	0.5898
3752	0.5881
3761	0.5863
3770	0.5845
3779	0.5825
3788	0.5804
3797	0.5783
3806	0.5747
3815	0.572
3824	0.57
3833	0.5683
3842	0.5673
3851	0.5663
3860	0.5651
3869	0.5638
3878	0.5625
3887	0.5601
3896	0.5578
3905	0.5554
3914	0.5531
3923	0.5508
3932	0.5484
3941	0.5459
3950	0.5436
3959	0.5418
3968	0.5401
3977	0.5383
3986	0.5365
3995	0.5347
