Infrared Spectrum: Diphenyl-2-pyridylmethane
Formula: C 18 H 15 N
CAS: 3678-70-4
State: gas
Instrument: HP-GC/MS/IRD
Origin: NIST Mass Spectrometry Data Center
1/CM	ABSORBANCE
550	0.0004005
562	7.65e-05
574	0.000213
586	0.0005205
598	0.003501
610	0.0074025
622	0.003723
634	0.0019665
646	0.0008955
658	0.0012825
670	0.0032955
682	0.005229
694	0.0128475
706	0.0100935
718	0.0047895
730	0.0069345
742	0.0096945
754	0.0073665
766	0.003759
778	0.0014565
790	0.0008175
802	0.000573
814	0.000555
826	0.000603
838	0.000372
850	0.0003705
862	0.000393
874	0.000393
886	0.000279
898	0.0002565
910	0.0003195
922	0.0002895
934	0.000153
946	0.0001485
958	0.000222
970	0.000249
982	0.0004275
994	0.0012495
1006	0.000576
1018	0.0006
1030	0.002652
1042	0.0014055
1054	0.00099
1066	0.000834
1078	0.0010935
1090	0.0011835
1102	0.000606
1114	0.0003255
1126	0.000258
1138	0.0006795
1150	0.000831
1162	0.0003675
1174	0.00057
1186	0.001251
1198	0.000861
1210	0.0005025
1222	0.000546
1234	0.0007335
1246	0.000717
1258	0.0004665
1270	0.000426
1282	0.000513
1294	0.000519
1306	0.000588
1318	0.000567
1330	0.0004305
1342	0.000426
1354	0.000339
1366	0.000363
1378	0.0004785
1390	0.0004335
1402	0.000513
1414	0.001203
1426	0.005784
1438	0.006048
1450	0.0039345
1462	0.005607
1474	0.004812
1486	0.004137
1498	0.0066465
1510	0.001482
1522	0.0007845
1534	0.0007995
1546	0.0011085
1558	0.0021885
1570	0.006129
1582	0.012036
1594	0.0086175
1606	0.003564
1618	0.001164
1630	0.000594
1642	0.0004095
1654	0.000393
1666	0.0003405
1678	0.00024
1690	0.000198
1702	0.000273
1714	0.000234
1726	0.000252
1738	0.0003615
1750	0.0004755
1762	0.0003915
1774	0.0004335
1786	0.0006105
1798	0.0008745
1810	0.000531
1822	0.000378
1834	0.0003765
1846	0.00042
1858	0.0004125
1870	0.0006165
1882	0.000615
1894	0.0005805
1906	0.0004095
1918	0.0004305
1930	0.000678
1942	0.001011
1954	0.000798
1966	0.0004635
1978	0.0002235
1990	0.000105
2002	6e-05
2014	7.65e-05
2026	6.45e-05
2038	5.1e-05
2050	4.95e-05
2062	4.2e-05
2074	4.2e-05
2086	2.7e-05
2098	3.3e-05
2110	2.7e-05
2122	3.75e-05
2134	3.15e-05
2146	4.2e-05
2158	2.55e-05
2170	6.75e-05
2182	0.000108
2194	6.6e-05
2206	4.35e-05
2218	5.25e-05
2230	5.25e-05
2242	2.7e-05
2254	5.4e-05
2266	6.6e-05
2278	6.9e-05
2290	0.000105
2302	0.000126
2314	0.000171
2326	9.75e-05
2338	0.000138
2350	9e-05
2362	6.45e-05
2374	7.2e-05
2386	7.2e-05
2398	5.4e-05
2410	6.15e-05
2422	8.4e-05
2434	9e-05
2446	9.9e-05
2458	0.0001065
2470	7.2e-05
2482	5.4e-05
2494	7.05e-05
2506	6.9e-05
2518	6.75e-05
2530	0.0001035
2542	7.35e-05
2554	7.05e-05
2566	7.05e-05
2578	8.7e-05
2590	7.95e-05
2602	0.0001365
2614	9e-05
2626	6.45e-05
2638	6e-05
2650	6.75e-05
2662	6e-05
2674	4.05e-05
2686	3.3e-05
2698	1.2e-05
2710	3.3e-05
2722	2.4e-05
2734	1.8e-05
2746	2.4e-05
2758	4.95e-05
2770	7.95e-05
2782	6.75e-05
2794	6e-05
2806	4.5e-05
2818	5.4e-05
2830	9.75e-05
2842	0.0001425
2854	0.0001845
2866	0.0002445
2878	0.000393
2890	0.000681
2902	0.000906
2914	0.000831
2926	0.000531
2938	0.0003975
2950	0.0003195
2962	0.000291
2974	0.0004005
2986	0.000735
2998	0.001686
3010	0.0040095
3022	0.005736
3034	0.0079305
3046	0.006276
3058	0.008895
3070	0.015
3082	0.0089625
3094	0.004953
3106	0.002394
3118	0.001197
3130	0.000672
3142	0.000558
3154	0.000414
3166	0.0003255
3178	0.0001935
3190	0.000108
3202	8.25e-05
3214	9.75e-05
3226	5.4e-05
3238	1.5e-05
3250	4.95e-05
3262	3.15e-05
3274	5.4e-05
3286	5.1e-05
3298	6.15e-05
3310	6.3e-05
3322	3.9e-05
3334	4.8e-05
3346	2.85e-05
3358	9.6e-05
3370	5.85e-05
3382	5.7e-05
3394	7.8e-05
3406	6.6e-05
3418	9e-05
3430	6.9e-05
3442	8.7e-05
3454	9.6e-05
3466	8.55e-05
3478	9.9e-05
3490	8.55e-05
3502	8.25e-05
3514	8.1e-05
3526	0.000105
3538	0.0001095
3550	0.000126
3562	9.15e-05
3574	0.00012
3586	9.75e-05
3598	9.45e-05
3610	0.000105
3622	0.000135
3634	0.000153
3646	0.000168
3658	0.0001965
3670	0.0002055
3682	0.000174
3694	0.000207
3706	0.0001995
3718	0.0001635
3730	0.000153
3742	0.0001575
3754	0.0001455
3766	0.000141
3778	0.0001215
3790	0.000108
3802	0.0001215
3814	0.0001155
3826	0.0001035
3838	0.0001575
