Infrared Spectrum: 1-FORMYL-2(5'-NITRO-2'-FUROYL)HYDRAZINE
Formula: C6 H5 N3 O5
CAS: 3679-78-5
State: SOLID (NUJOL MULL)
Class: COBLENTZ
Instrument: PERKIN-ELMER
Sampling: TRANSMISSION
Resolution: 4
Origin: ABBOTT LABORATORIES - WASHBURN
MICROMETERS	TRANSMITTANCE
2.036	0.396
2.07579	0.404
2.11557	0.419
2.15536	0.4241
2.19514	0.4343
2.23493	0.439
2.27472	0.439
2.3145	0.408
2.35429	0.416
2.39408	0.433
2.43386	0.438
2.47365	0.4539
2.51343	0.478
2.55322	0.488
2.59301	0.5001
2.63279	0.508
2.67258	0.518
2.71236	0.535
2.75215	0.54
2.79194	0.548
2.83172	0.5529
2.87151	0.555
2.91129	0.55
2.95108	0.5102
2.99087	0.3089
3.03065	0.2561
3.07044	0.2943
3.11023	0.1852
3.15001	0.172
3.1898	0.2275
3.22958	0.2891
3.26937	0.2635
3.30916	0.1628
3.34894	0.0509
3.38873	0.003
3.42851	0
3.4683	0.0001
3.50809	0.0079
3.54787	0.3504
3.58766	0.4581
3.62744	0.4839
3.66723	0.479
3.70702	0.5009
3.7468	0.5127
3.78659	0.536
3.82638	0.5512
3.86616	0.5852
3.90595	0.6118
3.94573	0.623
3.98552	0.635
4.02531	0.657
4.06509	0.658
4.10488	0.66
4.14466	0.662
4.18445	0.668
4.22424	0.67
4.26402	0.672
4.30381	0.673
4.34359	0.6781
4.38338	0.688
4.42317	0.693
4.46295	0.6981
4.50274	0.707
4.54253	0.7099
4.58231	0.709
4.6221	0.714
4.66188	0.722
4.70167	0.7251
4.74146	0.7301
4.78124	0.734
4.82103	0.737
4.86081	0.739
4.9006	0.739
4.94039	0.74
4.98017	0.7469
5.01996	0.75
5.05974	0.7549
5.09953	0.759
5.13932	0.7594
5.1791	0.7631
5.21889	0.767
5.25868	0.767
5.29846	0.765
5.33825	0.7674
5.37803	0.769
5.41782	0.769
5.45761	0.764
5.49739	0.7436
5.53718	0.7186
5.57696	0.724
5.61675	0.7128
5.65654	0.681
5.69632	0.6054
5.73611	0.4951
5.77589	0.2266
5.81568	0.142
5.85547	0.1269
5.89525	0.1607
5.93504	0.1644
5.97483	0.1136
6.01461	0.127
6.0544	0.2237
6.09418	0.3638
6.13397	0.4483
6.17376	0.4865
6.21354	0.5108
6.25333	0.3567
6.29311	0.3715
6.3329	0.4548
6.37269	0.3039
6.41247	0.1763
6.45226	0.11
6.49204	0.127
6.53183	0.137
6.57162	0.1871
6.6114	0.318
6.65119	0.3066
6.69098	0.2438
6.73076	0.173
6.77055	0.0957
6.81033	0.039
6.85012	0.001
6.88991	0.0047
6.92969	0.019
6.96948	0.1464
7.00926	0.3053
7.04905	0.3603
7.08884	0.3896
7.12862	0.414
7.16841	0.3603
7.20819	0.1518
7.24798	0.071
7.28777	0.0187
7.32755	0.1426
7.36734	0.17
7.40713	0.1213
7.44691	0.1307
7.4867	0.2194
7.52648	0.3287
7.56627	0.357
7.60606	0.3038
7.64584	0.204
7.68563	0.1223
7.72541	0.0916
7.7652	0.1763
7.80499	0.2726
7.84477	0.3271
7.88456	0.3624
7.92435	0.3961
7.96413	0.4139
8.00392	0.336
8.0437	0.2211
8.08349	0.3653
8.12328	0.3964
8.16306	0.2059
8.20285	0.2045
8.24263	0.3046
8.28242	0.3603
8.32221	0.4089
8.36199	0.428
8.40178	0.414
8.44156	0.4426
8.48135	0.4774
8.52114	0.4904
8.56092	0.489
8.60071	0.494
8.6405	0.5036
8.68028	0.5145
8.72007	0.4845
8.75985	0.3981
8.79964	0.347
8.83943	0.3764
8.87921	0.4632
8.919	0.5103
8.95878	0.5391
8.99857	0.5565
9.03836	0.5618
9.07814	0.5717
9.11793	0.578
9.15771	0.581
9.1975	0.583
9.23729	0.583
9.27707	0.581
9.31686	0.5859
9.35665	0.5985
9.39643	0.6
9.43622	0.6
9.476	0.6
9.51579	0.5951
9.55558	0.5594
9.59536	0.4967
9.63515	0.4259
9.67493	0.426
9.71472	0.4814
9.75451	0.4405
9.79429	0.2545
9.83408	0.19
9.87386	0.2581
9.91365	0.4279
9.95344	0.495
9.99322	0.526
10.033	0.5412
10.0728	0.5482
10.1126	0.556
10.1524	0.5576
10.1922	0.56
10.2319	0.5517
10.2717	0.5367
10.3115	0.4053
10.3513	0.3063
10.3911	0.3235
10.4309	0.4365
10.4707	0.5012
10.5104	0.5354
10.5502	0.5522
10.59	0.558
10.6298	0.5658
10.6696	0.576
10.7094	0.5755
10.7492	0.5813
10.7889	0.5891
10.8287	0.6006
10.8685	0.605
10.9083	0.605
10.9481	0.61
10.9879	0.6148
11.0277	0.625
11.0674	0.623
11.1072	0.612
11.147	0.612
11.1868	0.613
11.2266	0.617
11.2664	0.617
11.3062	0.622
11.346	0.627
11.3857	0.632
11.4255	0.625
11.4653	0.617
11.5051	0.5998
11.5449	0.5711
11.5847	0.5293
11.6245	0.4087
11.6642	0.3034
11.704	0.1996
11.7438	0.3011
11.7836	0.4369
11.8234	0.5021
11.8632	0.526
11.903	0.4792
11.9427	0.4279
11.9825	0.3792
12.0223	0.2968
12.0621	0.1625
12.1019	0.142
12.1417	0.2061
12.1815	0.351
12.2212	0.4677
12.261	0.4795
12.3008	0.2642
12.3406	0.22
12.3804	0.4047
12.4202	0.5065
12.46	0.5503
12.4997	0.5787
12.5395	0.5963
12.5793	0.6123
12.6191	0.625
12.6589	0.6349
12.6987	0.6385
12.7385	0.638
12.7783	0.642
12.818	0.642
12.8578	0.64
12.8976	0.6394
12.9374	0.6378
12.9772	0.6316
13.017	0.6163
13.0568	0.5858
13.0965	0.5566
13.1363	0.545
13.1761	0.5557
13.2159	0.5691
13.2557	0.573
13.2955	0.5722
13.3353	0.568
13.375	0.5575
13.4148	0.5205
13.4546	0.4761
13.4944	0.3537
13.5342	0.1761
13.574	0.2959
13.6138	0.4561
13.6535	0.5017
13.6933	0.516
13.7331	0.5122
13.7729	0.4962
13.8127	0.4805
13.8525	0.4729
13.8923	0.4812
13.932	0.5099
13.9718	0.5308
14.0116	0.555
14.0514	0.57
14.0912	0.5821
14.131	0.591
14.1708	0.598
14.2106	0.602
14.2503	0.605
14.2901	0.607
14.3299	0.605
14.3697	0.6033
14.4095	0.5965
14.4493	0.5903
14.4891	0.5818
14.5288	0.5717
14.5686	0.5572
14.6084	0.5474
14.6482	0.5325
14.688	0.5144
14.7278	0.4961
14.7676	0.4731
14.8073	0.4424
14.8471	0.4148
14.8869	0.3949
14.9267	0.378
14.9665	0.3666
15.0063	0.3447
15.0461	0.3267
15.0858	0.319
15.1256	0.317
15.1654	0.316
15.2052	0.319
15.245	0.3282
15.2848	0.3403
15.3246	0.3502
15.3643	0.3665
15.4041	0.3854
15.4439	0.4096
15.4837	0.4235
