Infrared Spectrum: 2,3,3-Trimethylbutanol
Formula: C 7 H 16 O
CAS: 36794-64-6
State: gas
Instrument: HP-GC/MS/IRD
Origin: NIST Mass Spectrometry Data Center
1/CM	ABSORBANCE
550	0.0002379
562	5.46e-05
574	9.36e-05
586	0.0001287
598	9.36e-05
610	9.36e-05
622	8.58e-05
634	0.0001716
646	0.000156
658	0.0002886
670	0.0001716
682	0.0001014
694	0.0001365
706	0.0001053
718	0.0001131
730	9.36e-05
742	8.19e-05
754	0.0001014
766	0.0001053
778	0.0001872
790	0.0004212
802	0.0007176
814	0.0006045
826	0.0003315
838	0.0003588
850	0.0007839
862	0.0019773
874	0.0033228
886	0.0030498
898	0.0016653
910	0.0013104
922	0.0024921
934	0.0042939
946	0.0044343
958	0.0025155
970	0.0010179
982	0.0006864
994	0.0007332
1006	0.0009048
1018	0.0011232
1030	0.0010881
1042	0.0010101
1054	0.0011427
1066	0.0017082
1078	0.0029094
1090	0.0048906
1102	0.0064701
1114	0.0064857
1126	0.0063024
1138	0.0081549
1150	0.0115401
1162	0.0119301
1174	0.0079989
1186	0.0048672
1198	0.0035295
1210	0.0029055
1222	0.002535
1234	0.002223
1246	0.0019968
1258	0.0019266
1270	0.0020475
1282	0.0023751
1294	0.002925
1306	0.003315
1318	0.0031434
1330	0.0025857
1342	0.0025077
1354	0.004602
1366	0.0098553
1378	0.0130377
1390	0.008736
1402	0.0034359
1414	0.0019968
1426	0.0016263
1438	0.0019617
1450	0.0028665
1462	0.0043485
1474	0.0051441
1486	0.0038961
1498	0.0020397
1510	0.0008775
1522	0.0005772
1534	0.0004173
1546	0.0003237
1558	0.000312
1570	0.0002106
1582	0.0001443
1594	0.0001248
1606	0.0001209
1618	0.0001599
1630	0.0001248
1642	0.0001443
1654	0.000195
1666	0.0001287
1678	0.000117
1690	0.000117
1702	0.0001638
1714	0.0001326
1726	9.36e-05
1738	0.0001248
1750	0.0001287
1762	8.19e-05
1774	5.85e-05
1786	5.85e-05
1798	9.75e-05
1810	0.0001014
1822	8.19e-05
1834	6.24e-05
1846	5.85e-05
1858	5.46e-05
1870	7.02e-05
1882	5.46e-05
1894	5.07e-05
1906	7.8e-06
1918	2.34e-05
1930	3.12e-05
1942	2.73e-05
1954	1.95e-05
1966	0
1978	2.34e-05
1990	2.73e-05
2002	1.56e-05
2014	3.51e-05
2026	5.85e-05
2038	7.41e-05
2050	6.24e-05
2062	3.12e-05
2074	1.95e-05
2086	2.73e-05
2098	1.56e-05
2110	1.56e-05
2122	1.95e-05
2134	7.8e-06
2146	3.9e-06
2158	3.9e-05
2170	3.51e-05
2182	4.29e-05
2194	4.29e-05
2206	3.12e-05
2218	2.73e-05
2230	3.51e-05
2242	1.56e-05
2254	4.68e-05
2266	3.9e-05
2278	7.02e-05
2290	7.41e-05
2302	7.02e-05
2314	4.29e-05
2326	3.51e-05
2338	4.68e-05
2350	5.07e-05
2362	4.29e-05
2374	7.02e-05
2386	8.97e-05
2398	8.19e-05
2410	7.8e-05
2422	7.02e-05
2434	5.46e-05
2446	5.07e-05
2458	3.51e-05
2470	3.9e-05
2482	3.12e-05
2494	4.29e-05
2506	4.29e-05
2518	3.51e-05
2530	5.07e-05
2542	5.85e-05
2554	6.24e-05
2566	8.19e-05
2578	0.0001092
2590	0.0001248
2602	0.0001053
2614	0.0001209
2626	0.0001248
2638	0.0001326
2650	0.0001053
2662	0.0001443
2674	0.0001599
2686	0.0001716
2698	0.0002535
2710	0.0003198
2722	0.0004017
2734	0.0004836
2746	0.0004251
2758	0.0004212
2770	0.0004563
2782	0.0004992
2794	0.0005889
2806	0.0007176
2818	0.0009048
2830	0.0011544
2842	0.0015717
2854	0.0024141
2866	0.0046527
2878	0.0081978
2890	0.0104325
2902	0.0109239
2914	0.0117897
2926	0.0132522
2938	0.0153075
2950	0.0207714
2962	0.030888
2974	0.0387504
2986	0.0329979
2998	0.0181077
3010	0.0070941
3022	0.0027768
3034	0.0016224
3046	0.0012714
3058	0.0009906
3070	0.0007839
3082	0.0006357
3094	0.0005655
3106	0.0005577
3118	0.0005343
3130	0.0005109
3142	0.0005148
3154	0.0005148
3166	0.0005382
3178	0.000585
3190	0.0005772
3202	0.0005343
3214	0.0005265
3226	0.0004251
3238	0.0003393
3250	0.0002379
3262	0.0001716
3274	0.0001443
3286	7.8e-05
3298	0.0001248
3310	0.0001053
3322	0.0001014
3334	0.0001248
3346	0.0001092
3358	0.0001638
3370	0.0001326
3382	0.0001716
3394	0.0001287
3406	0.0001092
3418	0.0001287
3430	9.75e-05
3442	0.0001209
3454	0.0001638
3466	0.0001482
3478	0.0001209
3490	0.0001209
3502	0.0001014
3514	7.02e-05
3526	5.46e-05
3538	2.34e-05
3550	3.12e-05
3562	5.46e-05
3574	3.9e-05
3586	5.46e-05
3598	0.0001014
3610	0.0001794
3622	0.0004212
3634	0.0012714
3646	0.0022308
3658	0.0015249
3670	0.0006123
3682	0.0001482
3694	0.0001131
3706	5.85e-05
3718	5.07e-05
3730	7.41e-05
3742	7.8e-05
3754	6.63e-05
3766	4.68e-05
3778	4.68e-05
3790	6.24e-05
3802	0.0001209
3814	0.0001092
3826	0.0001014
3838	0.0001911
