Infrared Spectrum: 4-(Trifluoromethyl)phenyl hydrazine
Formula: C 7 H 7 F 3 N 2
CAS: 368-90-1
State: gas
Origin: EPA-IR VAPOR PHASE LIBRARY
1/CM	ABSORBANCE
549.8	0.023368
559.445	0.025418
569.09	0.028518
578.734	0.029908
588.379	0.030608
598.024	0.029488
607.669	0.023518
617.313	0.017378
626.958	0.012828
636.603	0.011448
646.248	0.010278
655.893	0.007008
665.537	0.006398
675.182	0.007278
684.827	0.007658
694.472	0.007968
704.116	0.007518
713.761	0.007768
723.406	0.007998
733.051	0.008248
742.695	0.008068
752.34	0.008008
761.985	0.010098
771.63	0.011898
781.275	0.012818
790.919	0.014708
800.564	0.019178
810.209	0.028018
819.854	0.036808
829.498	0.041838
839.143	0.034528
848.788	0.023348
858.433	0.017528
868.078	0.021248
877.722	0.025028
887.367	0.020788
897.012	0.015788
906.657	0.012618
916.301	0.009768
925.946	0.009698
935.591	0.008368
945.236	0.008318
954.88	0.006768
964.525	0.005608
974.17	0.005488
983.815	0.004418
993.46	0.005818
1003.1	0.011368
1012.75	0.014028
1022.39	0.006958
1032.04	0.006698
1041.68	0.007688
1051.33	0.013378
1060.97	0.059148
1070.62	0.112588
1080.26	0.048858
1089.91	0.027648
1099.55	0.030568
1109.2	0.053298
1118.84	0.095748
1128.49	0.156288
1138.13	0.198988
1147.78	0.133458
1157.42	0.112588
1167.07	0.125018
1176.71	0.093298
1186.36	0.063708
1196	0.024548
1205.64	0.009168
1215.29	0.006968
1224.93	0.008418
1234.58	0.010548
1244.22	0.015788
1253.87	0.022868
1263.51	0.039468
1273.16	0.041698
1282.8	0.028458
1292.45	0.034838
1302.09	0.067188
1311.74	0.156708
1321.38	0.317818
1331.03	0.292188
1340.67	0.086858
1350.32	0.030148
1359.96	0.018348
1369.61	0.012938
1379.25	0.009218
1388.9	0.008008
1398.54	0.007588
1408.18	0.006638
1417.83	0.005308
1427.47	0.004708
1437.12	0.004908
1446.76	0.005508
1456.41	0.006958
1466.05	0.009938
1475.7	0.010418
1485.34	0.007398
1494.99	0.005858
1504.63	0.009078
1514.28	0.022918
1523.92	0.027608
1533.57	0.012098
1543.21	0.007588
1552.86	0.006988
1562.5	0.007758
1572.15	0.008338
1581.79	0.010478
1591.44	0.016058
1601.08	0.034298
1610.73	0.068808
1620.37	0.080108
1630.01	0.052988
1639.66	0.028818
1649.3	0.016288
1658.95	0.010178
1668.59	0.006818
1678.24	0.004708
1687.88	0.003898
1697.53	0.003538
1707.17	0.002938
1716.82	0.002848
1726.46	0.002848
1736.11	0.002928
1745.75	0.003328
1755.4	0.003618
1765.04	0.003098
1774.69	0.002398
1784.33	0.002238
1793.98	0.002258
1803.62	0.001908
1813.27	0.002158
1822.91	0.002018
1832.55	0.001868
1842.2	0.002178
1851.84	0.002288
1861.49	0.002498
1871.13	0.003098
1880.78	0.004068
1890.42	0.004258
1900.07	0.003698
1909.71	0.003088
1919.36	0.002498
1929	0.002228
1938.65	0.002068
1948.29	0.001828
1957.94	0.001768
1967.58	0.001697
1977.23	0.0013642
1986.87	0.0015747
1996.52	0.0016727
2006.16	0.0016661
2015.81	0.0015503
2025.45	0.0015302
2035.1	0.0015184
2044.74	0.0014689
2054.38	0.0015522
2064.03	0.001788
2073.67	0.001908
2083.32	0.001988
2092.96	0.001988
2102.61	0.001808
2112.25	0.0016891
2121.9	0.0016662
2131.54	0.0016846
2141.19	0.0016249
2150.83	0.0015017
2160.48	0.0016621
2170.12	0.0014391
2179.77	0.001928
2189.41	0.001828
2199.06	0.001838
2208.7	0.001888
2218.35	0.0017446
2227.99	0.001888
2237.64	0.0017137
2247.28	0.001978
2256.92	0.001818
2266.57	0.001978
2276.21	0.001788
2285.86	0.001778
2295.5	0.0016514
2305.15	0.0016937
2314.79	0.001818
2324.44	0.001948
2334.08	0.001808
2343.73	0.001868
2353.37	0.0011742
2363.02	0.0013087
2372.66	0.0011477
2382.31	0.0014074
2391.95	0.0011781
2401.6	0.0012939
2411.24	0.0014187
2420.89	0.0012543
2430.53	0.001392
2440.18	0.0015343
2449.82	0.0013735
2459.47	0.001778
2469.11	0.0014513
2478.75	0.0017018
2488.4	0.0013571
2498.04	0.001416
2507.69	0.001376
2517.33	0.001598
2526.98	0.0015872
2536.62	0.0013528
2546.27	0.0016563
2555.91	0.001918
2565.56	0.002188
2575.2	0.002518
2584.85	0.002648
2594.49	0.002438
2604.14	0.002128
2613.78	0.001908
2623.43	0.001798
2633.07	0.002038
2642.72	0.002088
2652.36	0.0017027
2662.01	0.0014795
2671.65	0.0014153
2681.29	0.0011013
2690.94	0.0012461
2700.58	0.0012092
2710.23	0.0010883
2719.87	0.0011349
2729.52	0.001396
2739.16	0.0015393
2748.81	0.0013578
2758.45	0.0012855
2768.1	0.00077954
2777.74	0.0014513
2787.39	0.0013844
2797.03	0.0017083
2806.68	0.0012023
2816.32	0.0017362
2825.97	0.0015698
2835.61	0.001858
2845.26	0.0012754
2854.9	0.0013445
2864.55	0.0016004
2874.19	0.0015691
2883.84	0.0014599
2893.48	0.001768
2903.12	0.0011598
2912.77	0.001878
2922.41	0.0015009
2932.06	0.002028
2941.7	0.002738
2951.35	0.001888
2960.99	0.0017132
2970.64	0.0015758
2980.28	0.0014049
2989.93	0.0017302
2999.57	0.002098
3009.22	0.002328
3018.86	0.003448
3028.51	0.005208
3038.15	0.006868
3047.8	0.006098
3057.44	0.004638
3067.09	0.004458
3076.73	0.004368
3086.38	0.003438
3096.02	0.003028
3105.67	0.002978
3115.31	0.002768
3124.95	0.002298
3134.6	0.001768
3144.24	0.001788
3153.89	0.001798
3163.53	0.0012649
3173.18	0.0012334
3182.82	0.001828
3192.47	0.0014576
3202.11	0.0014719
3211.76	0.00129
3221.4	0.0010469
3231.05	0.0012143
3240.69	0.001858
3250.34	0.0016275
3259.98	0.001908
3269.63	0.002028
3279.27	0.0010447
3288.92	0.002078
3298.56	0.001798
3308.21	0.002818
3317.85	0.001978
3327.49	0.001928
3337.14	0.001158
3346.78	0.0012048
3356.43	0.0015866
3366.07	0.002698
3375.72	0.004468
3385.36	0.005038
3395.01	0.003828
3404.65	0.003668
3414.3	0.005538
3423.94	0.007868
3433.59	0.010758
3443.23	0.007888
3452.88	0.003878
3462.52	0.002688
3472.17	0.002088
3481.81	0.0015875
3491.46	0.0015801
3501.1	0.0007154
3510.75	0.00074967
3520.39	0.0010539
3530.04	0.0009975
3539.68	0.0010698
3549.32	0.000484
3558.97	0.00031
3568.61	0.0011852
3578.26	0.0007366
3587.9	0.0010473
3597.55	0.0011439
3607.19	0.00081458
3616.84	0.0009787
3626.48	0.0010059
3636.13	0.000247
3645.77	0.0010602
3655.42	0.00088
3665.06	0.00054
3674.71	0.0009294
3684.35	0.0013889
3694	0.000302
3703.64	0.0016545
3713.29	0.0008857
3722.93	0.0009191
3732.58	0.0011287
3742.22	0.0010413
3751.86	0.0011731
3761.51	0.0009705
3771.15	0.000408
3780.8	0.0011179
3790.44	0.0015489
3800.09	0.00081646
3809.73	0.0009288
3819.38	0.000628
3829.02	0.000625
3838.67	0.0012154
3848.31	0.000563
3857.96	0.0009666
3867.6	0.0012772
3877.25	0.0014417
3886.89	0.0006733
3896.54	0.000383
3906.18	0.0011236
3915.83	0.0011403
3925.47	0.0012714
3935.12	0.0008886
3944.76	0.0013559
3954.41	0.0015637
3964.05	0.0009524
3973.69	0.0013439
3983.34	0.0011196
3992.98	0.00077558
