Infrared Spectrum: 4-(Trifluoromethyl)-1,2-phenyldiamine
Formula: C 7 H 7 F 3 N 2
CAS: 368-71-8
State: gas
Origin: EPA-IR VAPOR PHASE LIBRARY
1/CM	ABSORBANCE
549.8	0.029044
559.445	0.029334
569.09	0.030524
578.734	0.035754
588.379	0.043124
598.024	0.045764
607.669	0.051654
617.313	0.060574
626.958	0.064234
636.603	0.047044
646.248	0.038394
655.893	0.038914
665.537	0.041414
675.182	0.041534
684.827	0.038634
694.472	0.035994
704.116	0.032274
713.761	0.029634
723.406	0.028074
733.051	0.029964
742.695	0.032564
752.34	0.027364
761.985	0.023614
771.63	0.021234
781.275	0.020584
790.919	0.022854
800.564	0.033724
810.209	0.045514
819.854	0.037724
829.498	0.025924
839.143	0.019634
848.788	0.018914
858.433	0.024404
868.078	0.033874
877.722	0.033444
887.367	0.025584
897.012	0.020684
906.657	0.025534
916.301	0.036864
925.946	0.031954
935.591	0.018974
945.236	0.014094
954.88	0.011994
964.525	0.011154
974.17	0.010114
983.815	0.010954
993.46	0.010694
1003.1	0.010594
1012.75	0.009684
1022.39	0.009864
1032.04	0.011984
1041.68	0.014604
1051.33	0.022534
1060.97	0.046504
1070.62	0.076584
1080.26	0.065324
1089.91	0.038984
1099.55	0.038974
1109.2	0.051754
1118.84	0.103334
1128.49	0.209104
1138.13	0.296884
1147.78	0.189634
1157.42	0.157424
1167.07	0.211514
1176.71	0.123814
1186.36	0.048574
1196	0.030754
1205.64	0.037504
1215.29	0.071204
1224.93	0.117904
1234.58	0.091304
1244.22	0.040994
1253.87	0.026204
1263.51	0.027434
1273.16	0.032124
1282.8	0.036844
1292.45	0.051734
1302.09	0.064724
1311.74	0.082684
1321.38	0.231614
1331.03	0.372624
1340.67	0.252924
1350.32	0.119814
1359.96	0.042614
1369.61	0.029274
1379.25	0.021194
1388.9	0.012794
1398.54	0.010934
1408.18	0.011984
1417.83	0.017584
1427.47	0.029294
1437.12	0.046344
1446.76	0.050534
1456.41	0.030784
1466.05	0.015614
1475.7	0.009844
1485.34	0.009054
1494.99	0.011694
1504.63	0.021004
1514.28	0.039814
1523.92	0.047004
1533.57	0.029414
1543.21	0.014404
1552.86	0.010874
1562.5	0.011234
1572.15	0.014774
1581.79	0.022434
1591.44	0.035174
1601.08	0.043924
1610.73	0.052624
1620.37	0.078384
1630.01	0.091704
1639.66	0.066454
1649.3	0.033584
1658.95	0.017934
1668.59	0.011774
1678.24	0.008704
1687.88	0.007754
1697.53	0.006684
1707.17	0.006234
1716.82	0.006414
1726.46	0.007004
1736.11	0.007894
1745.75	0.007264
1755.4	0.005964
1765.04	0.005234
1774.69	0.004904
1784.33	0.004714
1793.98	0.004674
1803.62	0.004404
1813.27	0.004364
1822.91	0.004164
1832.55	0.004244
1842.2	0.004904
1851.84	0.005604
1861.49	0.005304
1871.13	0.004124
1880.78	0.003504
1890.42	0.003184
1900.07	0.003224
1909.71	0.002994
1919.36	0.002604
1929	0.002494
1938.65	0.002384
1948.29	0.002344
1957.94	0.002134
1967.58	0.002134
1977.23	0.002204
1986.87	0.002154
1996.52	0.002124
2006.16	0.002374
2015.81	0.002194
2025.45	0.002254
2035.1	0.002494
2044.74	0.002764
2054.38	0.002994
2064.03	0.003044
2073.67	0.002994
2083.32	0.002694
2092.96	0.002514
2102.61	0.001994
2112.25	0.001934
2121.9	0.001994
2131.54	0.002254
2141.19	0.002024
2150.83	0.001994
2160.48	0.001864
2170.12	0.001834
2179.77	0.001894
2189.41	0.002054
2199.06	0.002414
2208.7	0.002264
2218.35	0.002094
2227.99	0.002514
2237.64	0.002774
2247.28	0.003104
2256.92	0.002964
2266.57	0.002734
2276.21	0.002274
2285.86	0.002134
2295.5	0.002374
2305.15	0.002124
2314.79	0.001864
2324.44	0.001864
2334.08	0.001844
2343.73	0.002014
2353.37	0.001954
2363.02	0.001864
2372.66	0.002084
2382.31	0.001834
2391.95	0.002134
2401.6	0.001894
2411.24	0.001784
2420.89	0.001272
2430.53	0.0015446
2440.18	0.001824
2449.82	0.0017507
2459.47	0.0015174
2469.11	0.0011662
2478.75	0.0014149
2488.4	0.00148
2498.04	0.0013405
2507.69	0.001283
2517.33	0.0012075
2526.98	0.0017063
2536.62	0.001774
2546.27	0.001784
2555.91	0.0015509
2565.56	0.0015399
2575.2	0.0012683
2584.85	0.0012304
2594.49	0.0016502
2604.14	0.0015299
2613.78	0.001774
2623.43	0.0015552
2633.07	0.0017119
2642.72	0.002444
2652.36	0.002364
2662.01	0.002674
2671.65	0.003214
2681.29	0.002544
2690.94	0.0016735
2700.58	0.0013755
2710.23	0.0012046
2719.87	0.001417
2729.52	0.0009394
2739.16	0.00082183
2748.81	0.0013475
2758.45	0.000648
2768.1	0.0011262
2777.74	0.0012051
2787.39	0.001452
2797.03	0.0013462
2806.68	0.0010024
2816.32	0.00082527
2825.97	0.0011731
2835.61	0.000766326
2845.26	0.0010415
2854.9	0.0012315
2864.55	0.0017461
2874.19	0.0009771
2883.84	0.0009596
2893.48	0.0011957
2903.12	0.0013171
2912.77	0.0012902
2922.41	0.0015971
2932.06	0.0015457
2941.7	0.0016964
2951.35	0.0015731
2960.99	0.0014983
2970.64	0.001784
2980.28	0.0010942
2989.93	0.0011901
2999.57	0.001884
3009.22	0.002964
3018.86	0.005684
3028.51	0.008634
3038.15	0.009504
3047.8	0.008964
3057.44	0.006714
3067.09	0.005214
3076.73	0.004294
3086.38	0.004204
3096.02	0.002634
3105.67	0.002804
3115.31	0.001814
3124.95	0.0015173
3134.6	0.001653
3144.24	0.001499
3153.89	0.0017078
3163.53	0.001295
3173.18	0.0017079
3182.82	0.0015811
3192.47	0.0015964
3202.11	0.001904
3211.76	0.002004
3221.4	0.002164
3231.05	0.002214
3240.69	0.001804
3250.34	0.001874
3259.98	0.0014931
3269.63	0.0012542
3279.27	0.0015336
3288.92	0.0016631
3298.56	0.00085858
3308.21	0.0010311
3317.85	0.0013441
3327.49	0.0014379
3337.14	0.0012519
3346.78	0.001854
3356.43	0.003974
3366.07	0.009924
3375.72	0.014994
3385.36	0.012434
3395.01	0.007144
3404.65	0.004864
3414.3	0.004404
3423.94	0.003724
3433.59	0.004464
3443.23	0.007244
3452.88	0.012144
3462.52	0.015894
3472.17	0.014334
3481.81	0.010504
3491.46	0.007004
3501.1	0.004184
3510.75	0.004034
3520.39	0.003794
3530.04	0.002714
3539.68	0.002424
3549.32	0.002704
3558.97	0.002384
3568.61	0.001804
3578.26	0.0012028
3587.9	0.002224
3597.55	0.001844
3607.19	0.001763
3616.84	0.002474
3626.48	0.0012564
3636.13	0.000434
3645.77	0.001188
3655.42	0.000606
3665.06	0.001894
3674.71	0.001702
3684.35	0.0017157
3694	0.0011397
3703.64	0.000456
3713.29	3.5e-05
3722.93	0.0013517
3732.58	0.0009552
3742.22	0.001477
3751.86	0.0007568
3761.51	0.00077959
3771.15	0.0009164
3780.8	0.0009877
3790.44	0.0010951
3800.09	0.0011716
3809.73	0.0010225
3819.38	0.0011961
3829.02	0.00084225
3838.67	0.0011026
3848.31	0.001994
3857.96	0.00071
3867.6	0.0007396
3877.25	0.000599
3886.89	0.0012043
3896.54	0.00044
3906.18	0.0012852
3915.83	0.001432
3925.47	0.0012592
3935.12	0.000203
3944.76	0.00035
3954.41	0.000316
3964.05	0.0011028
3973.69	0.0013624
3983.34	0.002084
3992.98	0.0017241
