Infrared Spectrum: p-Fluorobenzenesulfonic acid
Formula: C6 H5 F O3 S
CAS: 368-88-7
State: SOLID (SPLIT MULL)
Class: COBLENTZ III
Instrument: DOW KBr FOREPRISM-GRATING
Instrument parameters: BLAZED AT 3.5, 12.0, 20.0 MICRON AND CHANGED AT 5.0, 7.5, 14.9 MICRON
Sampling: TRANSMISSION
Resolution: 2
Origin: DOW CHEMICAL COMPANY
1/CM	TRANSMITTANCE
3800	0.9781
3791	0.9792
3782	0.9809
3773	0.9833
3764	0.9848
3755	0.9868
3746	0.9894
3737	0.9986
3728	0.9999
3719	1.0012
3710	1.0025
3701	1.0044
3692	1.0068
3683	1.009
3674	1.0101
3665	1.0074
3656	1.005
3647	1.0063
3638	1.0084
3629	1.005
3620	1.0043
3611	1.0039
3602	1.0028
3593	1.0015
3584	1
3575	0.9973
3566	0.9945
3557	0.9918
3548	0.9893
3539	0.9858
3530	0.9825
3521	0.9792
3512	0.9761
3503	0.9728
3494	0.97
3485	0.967
3476	0.964
3467	0.9609
3458	0.9578
3449	0.9545
3440	0.9513
3431	0.9478
3422	0.9445
3413	0.9411
3404	0.9377
3395	0.9342
3386	0.9307
3377	0.927
3368	0.9232
3359	0.9194
3350	0.916
3341	0.9125
3332	0.9081
3323	0.9031
3314	0.8978
3305	0.8912
3296	0.8865
3287	0.8787
3278	0.8714
3269	0.8642
3260	0.8568
3251	0.8497
3242	0.8428
3233	0.8359
3224	0.829
3215	0.8195
3206	0.8088
3197	0.7953
3188	0.7838
3179	0.7748
3170	0.7648
3161	0.7537
3152	0.7405
3143	0.7272
3134	0.7132
3125	0.6953
3116	0.6678
3107	0.5538
3098	0.6275
3089	0.581
3080	0.5618
3071	0.5523
3062	0.5851
3053	0.5832
3044	0.5664
3035	0.5512
3026	0.537
3017	0.5208
3008	0.5102
2999	0.4995
2990	0.4859
2981	0.4728
2972	0.4603
2963	0.4475
2954	0.4347
2945	0.4231
2936	0.4124
2927	0.4018
2918	0.3914
2909	0.3809
2900	0.3707
2891	0.3607
2882	0.351
2873	0.342
2864	0.3329
2855	0.3244
2846	0.3162
2837	0.3079
2828	0.3001
2819	0.2924
2810	0.2859
2801	0.2805
2792	0.275
2783	0.269
2774	0.2631
2765	0.2571
2756	0.2515
2747	0.2458
2738	0.2406
2729	0.2361
2720	0.2317
2711	0.2272
2702	0.2228
2693	0.2183
2684	0.2138
2675	0.2099
2666	0.2065
2657	0.2044
2648	0.2026
2639	0.2004
2630	0.1991
2621	0.1974
2612	0.1956
2603	0.1934
2594	0.1912
2585	0.1912
2576	0.1919
2567	0.1933
2558	0.1951
2549	0.1979
2540	0.2015
2531	0.205
2522	0.2085
2513	0.2123
2504	0.216
2495	0.2197
2486	0.2234
2477	0.227
2468	0.2304
2459	0.2335
2450	0.2376
2441	0.2419
2432	0.2461
2423	0.2505
2414	0.2557
2405	0.2609
2396	0.2687
2387	0.2792
2378	0.2883
2369	0.2961
2360	0.3049
2351	0.3138
2342	0.3221
2333	0.3278
2324	0.3329
2315	0.3366
2306	0.3353
2297	0.3083
2288	0.2816
2279	0.2625
2270	0.2408
2261	0.2237
2252	0.208
2243	0.1942
2234	0.1857
2225	0.1819
2216	0.1779
2207	0.1748
2198	0.1731
2189	0.1728
2180	0.1748
2171	0.1802
2162	0.1882
2153	0.1984
2144	0.2075
2135	0.2172
2126	0.2292
2117	0.2421
2108	0.2556
2099	0.2691
2090	0.2826
2081	0.2964
2072	0.313
2063	0.3297
2054	0.3468
2045	0.3618
2036	0.3759
2027	0.391
2018	0.4062
2009	0.4187
2000	0.4298
1991	0.4407
1982	0.4487
1973	0.4565
1964	0.4637
1955	0.4694
1946	0.4697
1937	0.4697
1928	0.4777
1919	0.4423
1910	0.4671
1901	0.473
1892	0.4768
1883	0.478
1874	0.4788
1865	0.4796
1856	0.4791
1847	0.4787
1838	0.4779
1829	0.4771
1820	0.4766
1811	0.4762
1802	0.4767
1793	0.4798
1784	0.4827
1775	0.4949
1766	0.5062
1757	0.5162
1748	0.523
1739	0.5331
1730	0.5426
1721	0.5504
1712	0.557
1703	0.5603
1694	0.5612
1685	0.5583
1676	0.5358
1667	0.5321
1658	0.5338
1649	0.555
1640	0.5867
1631	0.6266
1622	0.6724
1613	0.7182
1604	0.7319
1595	0.2858
1586	0.4059
1577	0.6649
1568	0.7593
1559	0.8093
1550	0.8455
1541	0.8677
1532	0.8647
1523	0.8881
1514	0.9083
1505	0.6921
1496	0.2724
1487	0.6711
1478	0.7885
1469	0.8345
1460	0.8612
1451	0.8832
1442	0.9042
1433	0.924
1424	0.9381
1415	0.9234
1406	0.7601
1397	0.8172
1388	0.8968
1379	0.9221
1370	0.8963
1361	0.8678
1352	0.8698
1343	0.8441
1334	0.849
1325	0.857
1316	0.8575
1307	0.8566
1298	0.7986
1289	0.8096
1280	0.8145
1271	0.8042
1262	0.7783
1253	0.7249
1244	0.5898
1235	0.3946
1226	0.3762
1217	0.4856
1208	0.4437
1199	0.3562
1190	0.2259
1181	0.1221
1172	0.0763
1163	0.0652
1154	0.0609
1145	0.0597
1136	0.0402
1127	0.0289
1118	0.1028
1109	0.207
1100	0.2023
1091	0.3591
1082	0.4541
1073	0.496
1064	0.5577
1055	0.5775
1046	0.4373
1037	0.162
1028	0.2448
1019	0.6593
1010	0.1522
1001	0.4062
992	0.6108
983	0.6937
974	0.7257
965	0.7636
956	0.7854
947	0.7325
938	0.8131
929	0.8291
920	0.8384
911	0.849
902	0.8592
893	0.8585
884	0.8401
875	0.8581
866	0.8659
857	0.821
848	0.2107
839	0.4887
830	0.5856
821	0.6921
812	0.8458
803	0.8717
794	0.863
785	0.831
776	0.8064
767	0.8193
758	0.8457
749	0.8631
740	0.869
731	0.8693
722	0.8515
713	0.7344
704	0.816
695	0.7193
686	0.4515
677	0.6393
668	0.8049
659	0.8764
650	0.8942
641	0.9084
632	0.9095
623	0.8925
614	0.8717
605	0.8543
596	0.7701
587	0.4896
578	0.4644
569	0.1521
560	0.4259
551	0.514
542	0.7865
533	0.8403
524	0.8525
515	0.8199
506	0.7778
497	0.8674
488	0.8839
479	0.8818
470	0.8697
461	0.859
