Infrared Spectrum: Uracil, 2-thio-6-(trifluoromethyl)-
Formula: C5 H3 F3 N2 O S
CAS: 368-54-7
State: SOLID (1 mg / 650 mg KBr DISC)
Class: COBLENTZ III
Instrument: PERKIN-ELMER 21 (GRATING)
Instrument parameters: FILTER CHANGE ABOUT 1020 CM^-^1
Resolution: 2
Origin: SOUTHERN RESEARCH INSTITUTE
1/CM	TRANSMITTANCE
604	0.6362
613.016	0.6337
622.033	0.6345
631.049	0.6349
640.065	0.6334
649.082	0.6264
658.098	0.6196
667.115	0.6101
676.131	0.5959
685.147	0.5803
694.164	0.5641
703.18	0.4457
712.196	0.3494
721.213	0.6482
730.229	0.6322
739.245	0.5843
748.262	0.5265
757.278	0.5166
766.295	0.6182
775.311	0.6709
784.327	0.6809
793.344	0.6796
802.36	0.6717
811.376	0.6537
820.393	0.6168
829.409	0.565
838.425	0.3016
847.442	0.2266
856.458	0.5336
865.475	0.5043
874.491	0.6024
883.507	0.5495
892.524	0.485
901.54	0.4635
910.556	0.4733
919.573	0.4991
928.589	0.5005
937.605	0.578
946.622	0.6647
955.638	0.6644
964.655	0.6516
973.671	0.6339
982.687	0.612
991.704	0.5818
1000.72	0.5059
1009.74	0.3796
1018.75	0.6679
1027.77	0.659
1036.79	0.6335
1045.8	0.6108
1054.82	0.5867
1063.83	0.5471
1072.85	0.4628
1081.87	0.331
1090.88	0.1751
1099.9	0.5388
1108.92	0.5592
1117.93	0.5179
1126.95	0.4722
1135.97	0.4198
1144.98	0.2861
1154	0.1359
1163.01	0.0612
1172.03	0.1168
1181.05	0.1649
1190.06	0.1261
1199.08	0.1356
1208.1	0.0476
1217.11	0.0559
1226.13	0.1836
1235.15	0.2484
1244.16	0.2315
1253.18	0.1765
1262.19	0.2531
1271.21	0.0988
1280.23	0.2727
1289.24	0.5377
1298.26	0.6079
1307.28	0.6459
1316.29	0.6437
1325.31	0.6083
1334.33	0.5899
1343.34	0.5455
1352.36	0.4733
1361.37	0.3576
1370.39	0.1943
1379.41	0.1007
1388.42	0.3098
1397.44	0.4934
1406.46	0.5441
1415.47	0.5247
1424.49	0.4446
1433.51	0.521
1442.52	0.5363
1451.54	0.5267
1460.55	0.5202
1469.57	0.541
1478.59	0.5671
1487.6	0.557
1496.62	0.5416
1505.64	0.536
1514.65	0.5248
1523.67	0.5044
1532.69	0.4789
1541.7	0.3839
1550.72	0.2889
1559.73	0.225
1568.75	0.1907
1577.77	0.0812
1586.78	0.1291
1595.8	0.3316
1604.82	0.4437
1613.83	0.4267
1622.85	0.3725
1631.87	0.3185
1640.88	0.2629
1649.9	0.1848
1658.91	0.3416
1667.93	0.2442
1676.95	0.0723
1685.96	0.0355
1694.98	0.1322
1704	0.1762
1713.01	0.2023
1722.03	0.3186
1731.05	0.4431
1740.06	0.5286
1749.08	0.587
1758.09	0.6219
1767.11	0.6613
1776.13	0.6982
1785.14	0.7334
1794.16	0.7551
1803.18	0.7717
1812.19	0.7971
1821.21	0.8158
1830.23	0.8308
1839.24	0.8365
1848.26	0.8304
1857.27	0.8183
1866.29	0.7866
1875.31	0.7946
1884.32	0.8371
1893.34	0.8596
1902.36	0.8659
1911.37	0.8732
1920.39	0.8667
1929.41	0.8647
1938.42	0.8659
1947.44	0.87
1956.45	0.8732
1965.47	0.8746
1974.49	0.874
1983.5	0.8726
1992.52	0.874
2001.54	0.8687
2010.55	0.8597
2019.57	0.8495
2028.59	0.8414
2037.6	0.8419
2046.62	0.8474
2055.63	0.8468
2064.65	0.844
2073.67	0.8409
2082.68	0.8378
2091.7	0.8344
2100.72	0.8308
2109.73	0.8278
2118.75	0.828
2127.77	0.829
2136.78	0.8272
2145.8	0.8235
2154.81	0.8187
2163.83	0.814
2172.85	0.8097
2181.86	0.8084
2190.88	0.8093
2199.9	0.8096
2208.91	0.8084
2217.93	0.8035
2226.95	0.7998
2235.96	0.7968
2244.98	0.7954
2253.99	0.7958
2263.01	0.7943
2272.03	0.7901
2281.04	0.7824
2290.06	0.7812
2299.08	0.7826
2308.09	0.7858
2317.11	0.7877
2326.13	0.7881
2335.14	0.7877
2344.16	0.7847
2353.17	0.7778
2362.19	0.7691
2371.21	0.7567
2380.22	0.743
2389.24	0.7287
2398.26	0.7195
2407.27	0.7128
2416.29	0.7086
2425.31	0.7054
2434.32	0.7017
2443.34	0.6956
2452.35	0.6885
2461.37	0.682
2470.39	0.6796
2479.4	0.6779
2488.42	0.675
2497.44	0.6708
2506.45	0.6598
2515.47	0.6523
2524.49	0.6438
2533.5	0.6365
2542.52	0.6309
2551.53	0.6236
2560.55	0.6095
2569.57	0.5921
2578.58	0.584
2587.6	0.5765
2596.62	0.5654
2605.63	0.5577
2614.65	0.5573
2623.67	0.5571
2632.68	0.5562
2641.7	0.5543
2650.71	0.5496
2659.73	0.5422
2668.75	0.5314
2677.76	0.5211
2686.78	0.5093
2695.8	0.4962
2704.81	0.4797
2713.83	0.4622
2722.85	0.4467
2731.86	0.4339
2740.88	0.4205
2749.89	0.4064
2758.91	0.3928
2767.93	0.3781
2776.94	0.362
2785.96	0.344
2794.98	0.3256
2803.99	0.3077
2813.01	0.2791
2822.03	0.2517
2831.04	0.2346
2840.06	0.2216
2849.07	0.2123
2858.09	0.2063
2867.11	0.2017
2876.12	0.1978
2885.14	0.1956
2894.16	0.196
2903.17	0.1997
2912.19	0.2063
2921.21	0.2162
2930.22	0.2282
2939.24	0.2368
2948.25	0.2355
2957.27	0.2342
2966.29	0.2363
2975.3	0.2508
2984.32	0.2814
2993.34	0.2968
3002.35	0.3041
3011.37	0.3002
3020.39	0.2895
3029.4	0.2775
3038.42	0.257
3047.43	0.2326
3056.45	0.2207
3065.47	0.2184
3074.48	0.2239
3083.5	0.2327
3092.52	0.2477
3101.53	0.2693
3110.55	0.2878
3119.57	0.2986
3128.58	0.3018
3137.6	0.3118
3146.61	0.3242
3155.63	0.3283
3164.65	0.3353
3173.66	0.3622
3182.68	0.4249
3191.7	0.4474
3200.71	0.4779
3209.73	0.5053
3218.75	0.5218
3227.76	0.5479
3236.78	0.5663
3245.79	0.583
3254.81	0.5999
3263.83	0.6182
3272.84	0.6356
3281.86	0.6513
3290.88	0.6631
3299.89	0.6673
3308.91	0.6683
3317.93	0.667
3326.94	0.6632
3335.96	0.6577
3344.97	0.6526
3353.99	0.6443
3363.01	0.6342
3372.02	0.6216
3381.04	0.6086
3390.06	0.6004
3399.07	0.596
3408.09	0.59
3417.11	0.5884
3426.12	0.5886
3435.14	0.5881
3444.15	0.5883
3453.17	0.5889
3462.19	0.5908
3471.2	0.5938
3480.22	0.598
3489.24	0.6031
3498.25	0.6089
3507.27	0.6167
3516.29	0.6253
3525.3	0.6334
3534.32	0.6399
3543.33	0.645
3552.35	0.6556
3561.37	0.6668
3570.38	0.6761
3579.4	0.6802
3588.42	0.6855
3597.43	0.6924
3606.45	0.7008
3615.47	0.7095
3624.48	0.7181
3633.5	0.7279
3642.51	0.74
3651.53	0.7423
3660.55	0.7482
3669.56	0.754
3678.58	0.7553
3687.6	0.7553
3696.61	0.7552
3705.63	0.755
3714.65	0.7548
3723.66	0.7556
3732.68	0.7567
3741.69	0.7569
3750.71	0.7563
3759.73	0.7561
3768.74	0.7566
3777.76	0.7581
3786.78	0.759
3795.79	0.7571
3804.81	0.7536
3813.83	0.7479
3822.84	0.7432
3831.86	0.7369
3840.87	0.7353
3849.89	0.7368
3858.91	0.7394
3867.92	0.7408
3876.94	0.7272
3885.96	0.7235
3894.97	0.7229
3903.99	0.7202
