Infrared Spectrum: TRIFLUOROPHENYLSILANE
Formula: C6 H5 F3 Si
CAS: 368-47-8
State: SOLUTION (15% IN CCl4 FOR 3800-1400, 10% IN CS2 FOR 1400-620, AND 15% IN CCl4 FOR 620-250 CM^-^1)
Class: COBLENTZ III
Instrument: PERKIN-ELMER 521 (GRATING)
Instrument parameters: FILTERS AT 3150, 2500, 2000, 1150, 700, 410. GRATING CHANGES: 2000, 630 CM^-^1
Sampling: TRANSMISSION
Path length: 0.011 CM, 0.011 CM, AND 0.020 CM
Resolution: 2
Origin: DOW CORNING CORP.
1/CM	TRANSMITTANCE
241.475	0.497
250.692	0.473
259.908	0.431
269.125	0.602
278.341	0.789
287.558	0.795
296.775	0.774
305.991	0.755
315.208	0.706
324.424	0.439
333.641	0.078
342.858	0.505
352.074	0.574
361.291	0.51
370.508	0.253
379.724	0.118
388.941	0.574
398.157	0.739
407.374	0.778
416.591	0.77
425.807	0.72
435.024	0.72
444.24	0.614
453.457	0.356
462.674	0
471.89	0
481.107	0.068
490.323	0.352
499.54	0.662
508.757	0.772
517.973	0.807
527.19	0.843
536.407	0.846
545.623	0.853
554.84	0.853
564.056	0.837
573.273	0.828
582.49	0.837
591.706	0.852
600.923	0.866
610.139	0.857
619.356	0.84
628.573	0.814
637.789	0.807
647.006	0.835
656.222	0.821
665.439	0.75
674.656	0.474
683.872	0.608
693.089	0.102
702.306	0.4451
711.522	0.725
720.739	0.75
729.955	0.517
739.172	0.042
748.389	0.693
757.605	0.777
766.822	0.835
776.038	0.851
785.255	0.86
794.472	0.857
803.688	0.837
812.905	0.823
822.121	0.795
831.338	0.685
840.555	0.301
849.771	0.001
858.988	0.0421
868.205	0.362
877.421	0.688
886.638	0.748
895.854	0.705
905.071	0.637
914.288	0.576
923.504	0.493
932.721	0.2199
941.937	0.002
951.154	0
960.371	0
969.587	0.0511
978.804	0.3521
988.02	0.701
997.237	0.6961
1006.45	0.823
1015.67	0.835
1024.89	0.813
1034.1	0.837
1043.32	0.85
1052.54	0.84
1061.75	0.816
1070.97	0.813
1080.19	0.804
1089.4	0.777
1098.62	0.753
1107.84	0.695
1117.05	0.6
1126.27	0.4669
1135.49	0.008
1144.7	0.1591
1153.92	0.387
1163.14	0.4302
1172.35	0.711
1181.57	0.743
1190.79	0.7321
1200	0.824
1209.22	0.836
1218.44	0.841
1227.65	0.852
1236.87	0.851
1246.09	0.851
1255.3	0.851
1264.52	0.848
1273.74	0.856
1282.95	0.858
1292.17	0.856
1301.39	0.843
1310.6	0.832
1319.82	0.783
1329.04	0.85
1338.25	0.826
1347.47	0.879
1356.68	0.879
1365.9	0.867
1375.12	0.841
1384.33	0.885
1393.55	0.909
1402.77	0.905
1411.98	0.892
1421.2	0.8519
1430.42	0.3758
1439.63	0.5856
1448.85	0.877
1458.07	0.919
1467.28	0.908
1476.5	0.8769
1485.72	0.911
1494.93	0.8871
1504.15	0.95
1513.37	0.949
1522.58	0.947
1531.8	0.943
1541.02	0.931
1550.23	0.919
1559.45	0.923
1568.67	0.914
1577.88	0.896
1587.1	0.8029
1596.32	0.3508
1605.53	0.829
1614.75	0.863
1623.97	0.919
1633.18	0.925
1642.4	0.919
1651.62	0.9
1660.83	0.855
1670.05	0.913
1679.27	0.935
1688.48	0.929
1697.7	0.93
1706.92	0.934
1716.13	0.931
1725.35	0.937
1734.57	0.939
1743.78	0.935
1753	0.933
1762.22	0.925
1771.43	0.867
1780.65	0.894
1789.87	0.928
1799.08	0.909
1808.3	0.874
1817.52	0.819
1826.73	0.823
1835.95	0.872
1845.17	0.901
1854.38	0.914
1863.6	0.933
1872.82	0.925
1882.03	0.9
1891.25	0.8229
1900.46	0.857
1909.68	0.862
1918.9	0.884
1928.11	0.915
1937.33	0.921
1946.55	0.92
1955.76	0.886
1964.98	0.821
1974.2	0.895
1983.41	0.881
1992.63	0.928
2001.85	0.9688
2011.06	0.938
2020.28	0.94
2029.5	0.9389
2038.71	0.9381
2047.93	0.9376
2057.15	0.9372
2066.36	0.935
2075.58	0.938
2084.8	0.934
2094.01	0.9349
2103.23	0.9337
2112.45	0.931
2121.66	0.93
2130.88	0.93
2140.1	0.9321
2149.31	0.931
2158.53	0.9285
2167.75	0.924
2176.96	0.9255
2186.18	0.9143
2195.4	0.9006
2204.61	0.931
2213.83	0.926
2223.05	0.924
2232.26	0.923
2241.48	0.923
2250.7	0.9159
2259.91	0.9102
2269.13	0.9042
2278.35	0.897
2287.56	0.9009
2296.78	0.9109
2306	0.913
2315.21	0.909
2324.43	0.908
2333.65	0.913
2342.86	0.91
2352.08	0.91
2361.3	0.913
2370.51	0.911
2379.73	0.913
2388.95	0.913
2398.16	0.9125
2407.38	0.9107
2416.6	0.9109
2425.81	0.911
2435.03	0.9117
2444.24	0.9096
2453.46	0.909
2462.68	0.908
2471.89	0.9119
2481.11	0.9105
2490.33	0.9005
2499.54	0.903
2508.76	0.9
2517.98	0.8978
2527.19	0.896
2536.41	0.894
2545.63	0.8984
2554.84	0.9007
2564.06	0.897
2573.28	0.901
2582.49	0.9002
2591.71	0.8917
2600.93	0.903
2610.14	0.8991
2619.36	0.8913
2628.58	0.891
2637.79	0.9
2647.01	0.9
2656.23	0.901
2665.44	0.901
2674.66	0.8999
2683.88	0.8973
2693.09	0.899
2702.31	0.8918
2711.53	0.8908
2720.74	0.8892
2729.96	0.8753
2739.18	0.8912
2748.39	0.893
2757.61	0.89
2766.83	0.89
2776.04	0.8914
2785.26	0.892
2794.48	0.8976
2803.69	0.8905
2812.91	0.89
2822.13	0.8877
2831.34	0.8814
2840.56	0.8794
2849.78	0.8598
2858.99	0.8714
2868.21	0.887
2877.43	0.886
2886.64	0.882
2895.86	0.8754
2905.08	0.8633
2914.29	0.8536
2923.51	0.8174
2932.73	0.8176
2941.94	0.8555
2951.16	0.869
2960.38	0.869
2969.59	0.869
2978.81	0.8608
2988.02	0.8509
2997.24	0.8421
3006.46	0.8035
3015.67	0.6812
3024.89	0.724
3034.11	0.6862
3043.32	0.6825
3052.54	0.6668
3061.76	0.5786
3070.97	0.673
3080.19	0.5199
3089.41	0.623
3098.62	0.7835
3107.84	0.8444
3117.06	0.881
3126.27	0.8905
3135.49	0.8788
3144.71	0.8612
3153.92	0.8928
3163.14	0.8947
3172.36	0.899
3181.57	0.8922
3190.79	0.891
3200.01	0.897
3209.22	0.903
3218.44	0.901
3227.66	0.9048
3236.87	0.904
3246.09	0.904
3255.31	0.904
3264.52	0.904
3273.74	0.905
3282.96	0.904
3292.17	0.9029
3301.39	0.9
3310.61	0.9
3319.82	0.9
3329.04	0.899
3338.26	0.899
3347.47	0.899
3356.69	0.899
3365.91	0.899
3375.12	0.899
3384.34	0.899
3393.56	0.899
3402.77	0.899
3411.99	0.899
3421.21	0.899
3430.42	0.899
3439.64	0.899
3448.86	0.899
3458.07	0.899
3467.29	0.899
3476.51	0.899
3485.72	0.899
3494.94	0.899
3504.16	0.899
3513.37	0.899
3522.59	0.899
3531.8	0.899
3541.02	0.899
3550.24	0.9
3559.45	0.901
3568.67	0.9028
3577.89	0.9049
3587.1	0.9111
3596.32	0.903
3605.54	0.904
3614.75	0.904
3623.97	0.901
3633.19	0.8987
3642.4	0.8901
3651.62	0.903
3660.84	0.899
3670.05	0.901
3679.27	0.8968
3688.49	0.891
3697.7	0.891
3706.92	0.8997
3716.14	0.892
3725.35	0.901
3734.57	0.904
3743.79	0.9021
3753	0.8965
3762.22	0.8965
3771.44	0.891
3780.65	0.897
3789.87	0.8964
3799.09	0.896
