Infrared Spectrum: Metanilyl fluoride
Formula: C6 H6 F N O2 S
CAS: 368-50-3
State: LIQUID (NEAT)
Boiling point: 168 C AT 12 mmHg
Class: COBLENTZ III
Instrument: BECKMAN IR-9 (GRATING)
Instrument parameters: ORDER CHANGES: 670, 1200, 2000 CM^-^1
Sampling: TRANSMISSION
Path length: CAPILLARY
Resolution: 2
Origin: DOW CHEMICAL COMPANY
1/CM	TRANSMITTANCE
3800	0.9433
3791	0.9447
3782	0.9461
3773	0.9467
3764	0.9468
3755	0.9471
3746	0.9477
3737	0.9485
3728	0.9492
3719	0.9485
3710	0.9466
3701	0.9414
3692	0.9315
3683	0.9188
3674	0.9048
3665	0.8941
3656	0.8917
3647	0.8917
3638	0.8921
3629	0.8921
3620	0.892
3611	0.8917
3602	0.8914
3593	0.8898
3584	0.8868
3575	0.883
3566	0.8778
3557	0.8707
3548	0.8575
3539	0.8383
3530	0.8051
3521	0.7478
3512	0.6371
3503	0.5019
3494	0.4557
3485	0.4672
3476	0.4933
3467	0.5282
3458	0.5639
3449	0.5995
3440	0.627
3431	0.62
3422	0.5668
3413	0.395
3404	0.2616
3395	0.275
3386	0.3341
3377	0.4206
3368	0.4809
3359	0.5343
3350	0.583
3341	0.6182
3332	0.6545
3323	0.6832
3314	0.7067
3305	0.73
3296	0.7557
3287	0.7669
3278	0.7696
3269	0.7603
3260	0.7392
3251	0.716
3242	0.6986
3233	0.6905
3224	0.6949
3215	0.7272
3206	0.7665
3197	0.7924
3188	0.8061
3179	0.8149
3170	0.8182
3161	0.8136
3152	0.8037
3143	0.8017
3134	0.8008
3125	0.7945
3116	0.7804
3107	0.7581
3098	0.7348
3089	0.7276
3080	0.729
3071	0.7375
3062	0.754
3053	0.7805
3044	0.79
3035	0.8082
3026	0.8132
3017	0.8321
3008	0.8517
2999	0.867
2990	0.8721
2981	0.8693
2972	0.8671
2963	0.8665
2954	0.8664
2945	0.8663
2936	0.8668
2927	0.8673
2918	0.8673
2909	0.8674
2900	0.8682
2891	0.8696
2882	0.8717
2873	0.8735
2864	0.8766
2855	0.8865
2846	0.8946
2837	0.9008
2828	0.9031
2819	0.9042
2810	0.9018
2801	0.8992
2792	0.8968
2783	0.896
2774	0.897
2765	0.9002
2756	0.9037
2747	0.907
2738	0.91
2729	0.912
2720	0.9128
2711	0.9118
2702	0.9106
2693	0.9091
2684	0.9068
2675	0.8974
2666	0.8902
2657	0.8898
2648	0.8995
2639	0.9117
2630	0.916
2621	0.915
2612	0.9123
2603	0.9137
2594	0.9187
2585	0.926
2576	0.9323
2567	0.938
2558	0.9432
2549	0.9478
2540	0.9511
2531	0.9538
2522	0.9559
2513	0.9577
2504	0.9595
2495	0.9621
2486	0.9649
2477	0.9678
2468	0.9705
2459	0.9728
2450	0.9742
2441	0.9753
2432	0.9721
2423	0.9678
2414	0.9651
2405	0.9624
2396	0.9666
2387	0.9708
2378	0.9751
2369	0.9792
2360	0.9821
2351	0.9848
2342	0.9874
2333	0.9893
2324	0.9903
2315	0.9892
2306	0.9834
2297	0.9815
2288	0.984
2279	0.986
2270	0.987
2261	0.988
2252	0.9886
2243	0.989
2234	0.9891
2225	0.9875
2216	0.9844
2207	0.9808
2198	0.9787
2189	0.977
2180	0.9781
2171	0.9812
2162	0.9846
2153	0.986
2144	0.9871
2135	0.9873
2126	0.9875
2117	0.9875
2108	0.9875
2099	0.9871
2090	0.9868
2081	0.9863
2072	0.9857
2063	0.9848
2054	0.9837
2045	0.9821
2036	0.9803
2027	0.9781
2018	0.975
2009	0.9671
2000	0.9563
1991	0.9495
1982	0.9496
1973	0.9506
1964	0.935
1955	0.9364
1946	0.9368
1937	0.9495
1928	0.9595
1919	0.9595
1910	0.958
1901	0.9553
1892	0.9537
1883	0.9521
1874	0.9504
1865	0.9509
1856	0.9565
1847	0.9617
1838	0.964
1829	0.9618
1820	0.9586
1811	0.9534
1802	0.9484
1793	0.945
1784	0.9447
1775	0.949
1766	0.9456
1757	0.9435
1748	0.9404
1739	0.9338
1730	0.9248
1721	0.9004
1712	0.8765
1703	0.8832
1694	0.9
1685	0.8866
1676	0.8591
1667	0.8074
1658	0.7128
1649	0.4732
1640	0.2279
1631	0.0712
1622	0.1671
1613	0.3079
1604	0.1302
1595	0.3964
1586	0.6598
1577	0.7506
1568	0.8115
1559	0.84
1550	0.8542
1541	0.8621
1532	0.8415
1523	0.8365
1514	0.8293
1505	0.736
1496	0.3262
1487	0.1015
1478	0.4432
1469	0.5128
1460	0.2747
1451	0.3784
1442	0.6353
1433	0.6474
1424	0.4762
1415	0.059
1406	0.007
1397	0.0126
1388	0.0656
1379	0.3637
1370	0.5932
1361	0.7001
1352	0.6628
1343	0.4153
1334	0.3026
1325	0.2281
1316	0.2323
1307	0.5949
1298	0.6221
1289	0.2601
1280	0.371
1271	0.6258
1262	0.7147
1253	0.7215
1244	0.5997
1235	0.4705
1226	0.4141
1217	0.0119
1208	0.0004
1199	0.0205
1190	0.3786
1181	0.5581
1172	0.4482
1163	0.2993
1154	0.4466
1145	0.7244
1136	0.7739
1127	0.7386
1118	0.7415
1109	0.7328
1100	0.7037
1091	0.6121
1082	0.5691
1073	0.7871
1064	0.8245
1055	0.8623
1046	0.877
1037	0.8792
1028	0.8808
1019	0.8815
1010	0.8759
1001	0.8252
992	0.5027
983	0.8007
974	0.8015
965	0.7711
956	0.7285
947	0.6965
938	0.7135
929	0.7349
920	0.7147
911	0.5476
902	0.368
893	0.6308
884	0.5936
875	0.5215
866	0.4514
857	0.5621
848	0.6336
839	0.6262
830	0.6001
821	0.5594
812	0.3291
803	0.1939
794	0.0423
785	0.0115
776	0.0035
767	0.0212
758	0.1165
749	0.2866
740	0.4115
731	0.426
722	0.4332
713	0.4268
704	0.0862
695	0.3044
686	0.3214
677	0.1318
668	0.4526
659	0.481
650	0.4894
641	0.4955
632	0.4998
623	0.4944
614	0.4569
605	0.1951
596	0.0036
587	0.0951
578	0.28
569	0.4005
560	0.4917
551	0.5044
542	0.4719
533	0.4709
524	0.4648
515	0.4738
506	0.3618
497	0.2432
488	0.305
479	0.4036
470	0.4673
461	0.4759
452	0.4685
443	0.4572
434	0.4283
425	0.363
416	0.3425
407	0.3954
398	0.4092
