Infrared Spectrum: 2-Tetrahydrofurfuryl isothiocyanate
Formula: C 6 H 9 N O S
CAS: 36810-87-4
State: gas
Origin: EPA-IR VAPOR PHASE LIBRARY
1/CM	ABSORBANCE
549.8	0.00826
559.445	0.00731
569.09	0.00718
578.734	0.00747
588.379	0.00799
598.024	0.00796
607.669	0.00783
617.313	0.00729
626.958	0.00713
636.603	0.00696
646.248	0.00719
655.893	0.00689
665.537	0.00725
675.182	0.00769
684.827	0.00947
694.472	0.01162
704.116	0.01394
713.761	0.01514
723.406	0.01501
733.051	0.01263
742.695	0.00873
752.34	0.0057
761.985	0.00447
771.63	0.00409
781.275	0.00406
790.919	0.0041
800.564	0.00438
810.209	0.00508
819.854	0.00625
829.498	0.00707
839.143	0.00756
848.788	0.00931
858.433	0.0107
868.078	0.01107
877.722	0.01007
887.367	0.0086
897.012	0.00837
906.657	0.00946
916.301	0.01187
925.946	0.01203
935.591	0.01103
945.236	0.01059
954.88	0.00958
964.525	0.00942
974.17	0.01168
983.815	0.01592
993.46	0.01841
1003.1	0.01628
1012.75	0.01349
1022.39	0.01286
1032.04	0.01344
1041.68	0.01564
1051.33	0.02017
1060.97	0.0315
1070.62	0.05863
1080.26	0.0916
1089.91	0.08803
1099.55	0.05514
1109.2	0.03117
1118.84	0.0211
1128.49	0.01653
1138.13	0.01283
1147.78	0.01078
1157.42	0.0095
1167.07	0.00931
1176.71	0.01028
1186.36	0.01025
1196	0.00865
1205.64	0.00814
1215.29	0.00879
1224.93	0.00914
1234.58	0.01014
1244.22	0.01056
1253.87	0.01034
1263.51	0.00984
1273.16	0.01095
1282.8	0.01387
1292.45	0.01742
1302.09	0.01976
1311.74	0.02328
1321.38	0.02979
1331.03	0.03209
1340.67	0.02497
1350.32	0.022
1359.96	0.03088
1369.61	0.02927
1379.25	0.01628
1388.9	0.00752
1398.54	0.00524
1408.18	0.00491
1417.83	0.00572
1427.47	0.00821
1437.12	0.01855
1446.76	0.02892
1456.41	0.02771
1466.05	0.01732
1475.7	0.00862
1485.34	0.00523
1494.99	0.00373
1504.63	0.00256
1514.28	0.00202
1523.92	0.0016
1533.57	0.0014104
1543.21	0.001351
1552.86	0.0012355
1562.5	0.0012996
1572.15	0.0011719
1581.79	0.0011814
1591.44	0.0010827
1601.08	0.0011516
1610.73	0.0011342
1620.37	0.0011338
1630.01	0.0011407
1639.66	0.0011568
1649.3	0.001126
1658.95	0.0012085
1668.59	0.0012791
1678.24	0.0012722
1687.88	0.0014177
1697.53	0.0014767
1707.17	0.00161
1716.82	0.00165
1726.46	0.0015489
1736.11	0.0014741
1745.75	0.0014996
1755.4	0.0014849
1765.04	0.0013763
1774.69	0.0014649
1784.33	0.0014328
1793.98	0.0015047
1803.62	0.00159
1813.27	0.00163
1822.91	0.00186
1832.55	0.00198
1842.2	0.0022
1851.84	0.00252
1861.49	0.00302
1871.13	0.00366
1880.78	0.00438
1890.42	0.00551
1900.07	0.00686
1909.71	0.00838
1919.36	0.01044
1929	0.01308
1938.65	0.01667
1948.29	0.02124
1957.94	0.0273
1967.58	0.03555
1977.23	0.04698
1986.87	0.06301
1996.52	0.08523
2006.16	0.11683
2015.81	0.16216
2025.45	0.22459
2035.1	0.30091
2044.74	0.37542
2054.38	0.4244
2064.03	0.4274
2073.67	0.36917
2083.32	0.27331
2092.96	0.19443
2102.61	0.1519
2112.25	0.13225
2121.9	0.12053
2131.54	0.1047
2141.19	0.08642
2150.83	0.07248
2160.48	0.06303
2170.12	0.05595
2179.77	0.0507
2189.41	0.04692
2199.06	0.04381
2208.7	0.04097
2218.35	0.03749
2227.99	0.03278
2237.64	0.02725
2247.28	0.02175
2256.92	0.01674
2266.57	0.01253
2276.21	0.00951
2285.86	0.00755
2295.5	0.00614
2305.15	0.00502
2314.79	0.0042
2324.44	0.00352
2334.08	0.00305
2343.73	0.00268
2353.37	0.00258
2363.02	0.00236
2372.66	0.00219
2382.31	0.00207
2391.95	0.00209
2401.6	0.00218
2411.24	0.00204
2420.89	0.00195
2430.53	0.00173
2440.18	0.00162
2449.82	0.00158
2459.47	0.0015279
2469.11	0.0014775
2478.75	0.0015227
2488.4	0.00161
2498.04	0.00162
2507.69	0.00179
2517.33	0.00184
2526.98	0.00206
2536.62	0.00231
2546.27	0.00254
2555.91	0.00274
2565.56	0.00301
2575.2	0.00311
2584.85	0.00292
2594.49	0.00252
2604.14	0.00238
2613.78	0.00239
2623.43	0.00256
2633.07	0.00284
2642.72	0.00301
2652.36	0.0031
2662.01	0.00332
2671.65	0.00343
2681.29	0.00387
2690.94	0.00409
2700.58	0.00467
2710.23	0.00528
2719.87	0.00548
2729.52	0.00559
2739.16	0.00576
2748.81	0.00621
2758.45	0.00661
2768.1	0.00693
2777.74	0.00725
2787.39	0.00711
2797.03	0.00718
2806.68	0.00798
2816.32	0.00923
2825.97	0.01108
2835.61	0.01442
2845.26	0.01961
2854.9	0.02921
2864.55	0.04475
2874.19	0.05871
2883.84	0.06022
2893.48	0.05091
2903.12	0.04142
2912.77	0.03843
2922.41	0.0418
2932.06	0.05075
2941.7	0.05894
2951.35	0.06304
2960.99	0.06523
2970.64	0.06785
2980.28	0.07334
2989.93	0.05889
2999.57	0.03182
3009.22	0.01734
3018.86	0.0107
3028.51	0.00701
3038.15	0.0049
3047.8	0.00345
3057.44	0.00264
3067.09	0.00207
3076.73	0.00165
3086.38	0.0014482
3096.02	0.0010449
3105.67	0.0011724
3115.31	0.0009656
3124.95	0.0009556
3134.6	0.0007779
3144.24	0.0007242
3153.89	0.000566642
3163.53	0.0004891
3173.18	0.000427
3182.82	0.000379
3192.47	0.000421
3202.11	0.000328
3211.76	0.000199
3221.4	0.00036
3231.05	0.000262
3240.69	0.000118
3250.34	0.000131
3259.98	0.00019
3269.63	0.00014
3279.27	0.000307
3288.92	0.000248
3298.56	0.000208
3308.21	0.000154
3317.85	3.4e-05
3327.49	0.000169
3337.14	5.9e-05
3346.78	0.000326
3356.43	0.000205
3366.07	0.000129
3375.72	0.00022
3385.36	0.000283
3395.01	0.000164
3404.65	0.000166
3414.3	0.000202
3423.94	0.00024
3433.59	0.000162
3443.23	0.000344
3452.88	0.000239
3462.52	0.000382
3472.17	0.000364
3481.81	0.000357
3491.46	0.000245
3501.1	0.0004758
3510.75	0.00036
3520.39	0.00025
3530.04	0.000415
3539.68	0.000431
3549.32	0.000423
3558.97	0.00057866
3568.61	0.0004964
3578.26	0.000564462
3587.9	0.000441
3597.55	0.0005198
3607.19	0.000294
3616.84	0.000305
3626.48	0.000439
3636.13	0.0004863
3645.77	0.0005137
3655.42	0.000272
3665.06	0.000431
3674.71	0.000375
3684.35	0.0005019
3694	0.00062322
3703.64	0.0005022
3713.29	0.0005463
3722.93	0.000403
3732.58	0.0004998
3742.22	0.0004929
3751.86	0.00060465
3761.51	0.0005369
3771.15	0.00063223
3780.8	0.0006803
3790.44	0.0005079
3800.09	0.00062207
3809.73	0.00058148
3819.38	0.0008738
3829.02	0.0007432
3838.67	0.0008958
3848.31	0.0007736
3857.96	0.000676
3867.6	0.0009952
3877.25	0.0010075
3886.89	0.0010166
3896.54	0.0008959
3906.18	0.0007965
3915.83	0.0009694
3925.47	0.001011
3935.12	0.0012226
3944.76	0.0010067
3954.41	0.0012609
3964.05	0.0014618
3973.69	0.0015478
3983.34	0.00163
3992.98	0.00181
