Infrared Spectrum: p-(PENTYLOXY)BENZOYL CHLORIDE
Formula: C12 H15 Cl O2
CAS: 36823-84-4
State: LIQUID (NEAT)
Boiling point: 160 C AT 6 mmHg
Class: COBLENTZ III
Instrument: BAIRD NaCl PRISM
Sampling: TRANSMISSION
Path length: 0.005 CM
Resolution: 4
Origin: WYANDOTTE CHEMICALS CORP.
MICROMETERS	TRANSMITTANCE
2.001	0.82
2.04017	0.837
2.07934	0.845
2.11851	0.843
2.15768	0.843
2.19685	0.841
2.23602	0.82
2.27518	0.788
2.31435	0.78
2.35352	0.776
2.39269	0.776
2.43186	0.765
2.47103	0.767
2.5102	0.778
2.54937	0.783
2.58854	0.788
2.62771	0.792
2.66688	0.798
2.70605	0.798
2.74521	0.798
2.78438	0.8
2.82355	0.804
2.86272	0.798
2.90189	0.755
2.94106	0.727
2.98023	0.73
3.0194	0.75
3.05857	0.749
3.09774	0.748
3.13691	0.739
3.17608	0.673
3.21525	0.625
3.25441	0.566
3.29358	0.458
3.33275	0.472
3.37192	0.283
3.41109	0.049
3.45026	0.019
3.48943	0.022
3.5286	0.025
3.56777	0.082
3.60694	0.399
3.64611	0.47
3.68528	0.48
3.72445	0.535
3.76361	0.578
3.80278	0.542
3.84195	0.495
3.88112	0.485
3.92029	0.447
3.95946	0.501
3.99863	0.558
4.0378	0.563
4.07697	0.588
4.11614	0.59
4.15531	0.619
4.19448	0.6
4.23364	0.592
4.27281	0.647
4.31198	0.648
4.35115	0.651
4.39032	0.651
4.42949	0.659
4.46866	0.68
4.50783	0.706
4.547	0.727
4.58617	0.727
4.62534	0.73
4.66451	0.732
4.70368	0.727
4.74284	0.721
4.78201	0.713
4.82118	0.699
4.86035	0.651
4.89952	0.637
4.93869	0.641
4.97786	0.609
5.01703	0.574
5.0562	0.598
5.09537	0.644
5.13454	0.675
5.17371	0.683
5.21288	0.683
5.25204	0.624
5.29121	0.557
5.33038	0.578
5.36955	0.62
5.40872	0.647
5.44789	0.644
5.48706	0.62
5.52623	0.556
5.5654	0.443
5.60457	0.302
5.64374	0.133
5.68291	0.019
5.72207	0.015
5.76124	0.013
5.80041	0.013
5.83958	0.018
5.87875	0.056
5.91792	0.095
5.95709	0.11
5.99626	0.199
6.03543	0.308
6.0746	0.315
6.11377	0.3
6.15294	0.184
6.19211	0.084
6.23127	0.011
6.27044	0.008
6.30961	0.009
6.34878	0.011
6.38795	0.06
6.42712	0.214
6.46629	0.31
6.50546	0.331
6.54463	0.332
6.5838	0.244
6.62297	0.076
6.66214	0.031
6.70131	0.095
6.74047	0.131
6.77964	0.054
6.81881	0.015
6.85798	0.022
6.89715	0.072
6.93632	0.152
6.97549	0.162
7.01466	0.06
7.05383	0.056
7.093	0.224
7.13217	0.245
7.17134	0.156
7.2105	0.089
7.24967	0.098
7.28884	0.164
7.32801	0.25
7.36718	0.297
7.40635	0.3
7.44552	0.221
7.48469	0.163
7.52386	0.039
7.56303	0.011
7.6022	0.011
7.64137	0.011
7.68054	0.009
7.7197	0.012
7.75887	0.014
7.79804	0.012
7.83721	0.011
7.87638	0.008
7.91555	0.008
7.95472	0.008
7.99389	0.007
8.03306	0.008
8.07223	0.008
8.1114	0.008
8.15057	0.008
8.18974	0.008
8.2289	0.008
8.26807	0.008
8.30724	0.008
8.34641	0.012
8.38558	0.04
8.42475	0.067
8.46392	0.066
8.50309	0.02
8.54226	0.013
8.58143	0.012
8.6206	0.012
8.65977	0.011
8.69893	0.011
8.7381	0.012
8.77727	0.044
8.81644	0.116
8.85561	0.135
8.89478	0.094
8.93395	0.041
8.97312	0.106
9.01229	0.283
9.05146	0.366
9.09063	0.412
9.1298	0.429
9.16897	0.428
9.20813	0.359
9.2473	0.287
9.28647	0.19
9.32564	0.148
9.36481	0.153
9.40398	0.169
9.44315	0.144
9.48232	0.081
9.52149	0.04
9.56066	0.034
9.59983	0.046
9.639	0.084
9.67817	0.088
9.71733	0.071
9.7565	0.049
9.79567	0.035
9.83484	0.023
9.87401	0.02
9.91318	0.017
9.95235	0.017
9.99152	0.017
10.0307	0.017
10.0699	0.018
10.109	0.022
10.1482	0.022
10.1874	0.023
10.2265	0.04
10.2657	0.085
10.3049	0.153
10.344	0.212
10.3832	0.253
10.4224	0.297
10.4615	0.331
10.5007	0.341
10.5399	0.341
10.5791	0.339
10.6182	0.339
10.6574	0.339
10.6966	0.339
10.7357	0.339
10.7749	0.337
10.8141	0.315
10.8532	0.282
10.8924	0.227
10.9316	0.176
10.9707	0.137
11.0099	0.105
11.0491	0.09
11.0883	0.083
11.1274	0.071
11.1666	0.05
11.2058	0.027
11.2449	0.02
11.2841	0.018
11.3233	0.017
11.3624	0.015
11.4016	0.014
11.4408	0.012
11.4799	0.012
11.5191	0.012
11.5583	0.012
11.5975	0.012
11.6366	0.012
11.6758	0.014
11.715	0.02
11.7541	0.027
11.7933	0.027
11.8325	0.023
11.8716	0.017
11.9108	0.015
11.95	0.013
11.9891	0.013
12.0283	0.013
12.0675	0.013
12.1067	0.015
12.1458	0.019
12.185	0.024
12.2242	0.03
12.2633	0.033
12.3025	0.034
12.3417	0.033
12.3808	0.03
12.42	0.03
12.4592	0.031
12.4983	0.05
12.5375	0.081
12.5767	0.1
12.6159	0.115
12.655	0.122
12.6942	0.127
12.7334	0.127
12.7725	0.127
12.8117	0.128
12.8509	0.13
12.89	0.13
12.9292	0.125
12.9684	0.108
13.0075	0.084
13.0467	0.072
13.0859	0.073
13.1251	0.104
13.1642	0.164
13.2034	0.24
13.2426	0.313
13.2817	0.366
13.3209	0.399
13.3601	0.404
13.3992	0.401
13.4384	0.388
13.4776	0.359
13.5167	0.337
13.5559	0.302
13.5951	0.234
13.6343	0.141
13.6734	0.072
13.7126	0.07
13.7518	0.125
13.7909	0.195
13.8301	0.264
13.8693	0.352
13.9084	0.422
13.9476	0.476
13.9868	0.511
14.0259	0.536
14.0651	0.55
14.1043	0.56
14.1435	0.56
14.1826	0.563
14.2218	0.566
14.261	0.563
14.3001	0.561
14.3393	0.555
14.3785	0.552
14.4176	0.547
14.4568	0.541
14.496	0.538
14.5351	0.538
14.5743	0.539
14.6135	0.539
14.6527	0.539
14.6918	0.538
14.731	0.534
14.7702	0.529
14.8093	0.519
14.8485	0.497
14.8877	0.469
14.9268	0.437
14.966	0.402
15.0052	0.362
15.0443	0.342
15.0835	0.314
15.1227	0.254
15.1619	0.205
15.201	0.175
15.2402	0.171
15.2794	0.171
15.3185	0.175
15.3577	0.185
15.3969	0.192
15.436	0.2
15.4752	0.211
15.5144	0.222
15.5535	0.23
15.5927	0.237
15.6319	0.249
15.6711	0.254
15.7102	0.266
15.7494	0.285
15.7886	0.298
15.8277	0.321
15.8669	0.34
15.9061	0.353
15.9452	0.359
15.9844	0.362
