Infrared Spectrum: 2,4,6-Tris(2-pyridyl)-s-triazine
Formula: C18 H12 N6
CAS: 3682-35-7
State: gas
Origin: EPA-IR VAPOR PHASE LIBRARY
1/CM	ABSORBANCE
549.8	0.00103015
559.445	0.000663
569.09	0.000712
578.734	0.0010637
588.379	0.0013069
598.024	0.00095043
607.669	0.00093385
617.313	0.0016302
626.958	0.0010993
636.603	0.0013212
646.248	0.0009034
655.893	0.0010975
665.537	0.004366
675.182	0.002456
684.827	0.0011138
694.472	0.0008717
704.116	0.00103433
713.761	0.0010589
723.406	0.0012472
733.051	0.0016051
742.695	0.002336
752.34	0.0014997
761.985	0.002836
771.63	0.003566
781.275	0.0015176
790.919	0.001316
800.564	0.00092737
810.209	0.0011047
819.854	0.0010364
829.498	0.0011377
839.143	0.0011167
848.788	0.002156
858.433	0.0012968
868.078	0.0010848
877.722	0.000745
887.367	0.0008968
897.012	0.00102427
906.657	0.000776
916.301	0.000807
925.946	0.000607
935.591	0.000745
945.236	0.00064
954.88	0.00059
964.525	0.000676
974.17	0.000518
983.815	0.000778
993.46	0.0013786
1003.1	0.000477
1012.75	0.000354
1022.39	0.000416
1032.04	0.000398
1041.68	0.0009178
1051.33	0.00056
1060.97	0.00053
1070.62	0
1080.26	0.000577
1089.91	0.000614
1099.55	0.0008532
1109.2	0.000419
1118.84	0.00100125
1128.49	0.0008913
1138.13	0.0011183
1147.78	0.0018489
1157.42	0.0013872
1167.07	0.0013558
1176.71	0.002256
1186.36	0.001986
1196	0.002076
1205.64	0.002706
1215.29	0.002956
1224.93	0.003026
1234.58	0.003326
1244.22	0.003776
1253.87	0.003246
1263.51	0.003376
1273.16	0.003126
1282.8	0.002886
1292.45	0.002736
1302.09	0.002276
1311.74	0.001996
1321.38	0.001966
1331.03	0.0018482
1340.67	0.0019321
1350.32	0.002586
1359.96	0.004846
1369.61	0.008136
1379.25	0.004626
1388.9	0.002156
1398.54	0.0015726
1408.18	0.0015105
1417.83	0.0015381
1427.47	0.002486
1437.12	0.002636
1446.76	0.0015776
1456.41	0.0018963
1466.05	0.003076
1475.7	0.002406
1485.34	0.001966
1494.99	0.002436
1504.63	0.004726
1514.28	0.012726
1523.92	0.020086
1533.57	0.013126
1543.21	0.006826
1552.86	0.003676
1562.5	0.002616
1572.15	0.002716
1581.79	0.002486
1591.44	0.002066
1601.08	0.0017228
1610.73	0.0017187
1620.37	0.0016526
1630.01	0.0016422
1639.66	0.0016356
1649.3	0.0015991
1658.95	0.0016049
1668.59	0.0015399
1678.24	0.0013929
1687.88	0.0014679
1697.53	0.0015585
1707.17	0.0014442
1716.82	0.0014566
1726.46	0.0014053
1736.11	0.0015454
1745.75	0.0014975
1755.4	0.0015172
1765.04	0.0015611
1774.69	0.0014348
1784.33	0.0014042
1793.98	0.0014024
1803.62	0.0013418
1813.27	0.0013241
1822.91	0.0013298
1832.55	0.0013834
1842.2	0.001307
1851.84	0.001323
1861.49	0.0013786
1871.13	0.0013329
1880.78	0.0013524
1890.42	0.0013792
1900.07	0.0012574
1909.71	0.0013634
1919.36	0.0012441
1929	0.0012725
1938.65	0.001291
1948.29	0.0013439
1957.94	0.001301
1967.58	0.0012957
1977.23	0.0013399
1986.87	0.0012877
1996.52	0.0012353
2006.16	0.0011941
2015.81	0.0012618
2025.45	0.0013453
2035.1	0.0011965
2044.74	0.0012846
2054.38	0.0012651
2064.03	0.0011862
2073.67	0.0011974
2083.32	0.0011649
2092.96	0.0013057
2102.61	0.0012054
2112.25	0.0013136
2121.9	0.0012946
2131.54	0.001266
2141.19	0.0012771
2150.83	0.0013059
2160.48	0.0012526
2170.12	0.0011828
2179.77	0.0012684
2189.41	0.0012824
2199.06	0.0012766
2208.7	0.0011717
2218.35	0.0012853
2227.99	0.0013136
2237.64	0.0012203
2247.28	0.0012271
2256.92	0.0013372
2266.57	0.0012897
2276.21	0.0013382
2285.86	0.0013283
2295.5	0.0012672
2305.15	0.0012021
2314.79	0.0013132
2324.44	0.0012805
2334.08	0.0012145
2343.73	0.0012179
2353.37	0.0012919
2363.02	0.0012592
2372.66	0.001184
2382.31	0.0012721
2391.95	0.001211
2401.6	0.0012956
2411.24	0.0011738
2420.89	0.0012983
2430.53	0.0012604
2440.18	0.0012782
2449.82	0.0012366
2459.47	0.0013098
2469.11	0.0013234
2478.75	0.001287
2488.4	0.0014241
2498.04	0.001404
2507.69	0.0013461
2517.33	0.001233
2526.98	0.0011754
2536.62	0.0013183
2546.27	0.0013121
2555.91	0.0012806
2565.56	0.0013268
2575.2	0.0012959
2584.85	0.0013491
2594.49	0.0012109
2604.14	0.001234
2613.78	0.0012963
2623.43	0.0012996
2633.07	0.0012049
2642.72	0.0014135
2652.36	0.0013707
2662.01	0.0014688
2671.65	0.0013368
2681.29	0.0014627
2690.94	0.0012062
2700.58	0.0014306
2710.23	0.0012959
2719.87	0.0013103
2729.52	0.0012999
2739.16	0.0012677
2748.81	0.0012387
2758.45	0.0012533
2768.1	0.0014085
2777.74	0.0013513
2787.39	0.0012123
2797.03	0.0011745
2806.68	0.0012606
2816.32	0.0013007
2825.97	0.0012138
2835.61	0.0011998
2845.26	0.0013937
2854.9	0.0011391
2864.55	0.0013489
2874.19	0.001369
2883.84	0.0013888
2893.48	0.0011142
2903.12	0.0014693
2912.77	0.0013546
2922.41	0.0012472
2932.06	0.0012354
2941.7	0.0013756
2951.35	0.0015357
2960.99	0.0015386
2970.64	0.0014314
2980.28	0.0013526
2989.93	0.0015061
2999.57	0.0016544
3009.22	0.0015948
3018.86	0.0018176
3028.51	0.001966
3038.15	0.0019085
3047.8	0.001986
3057.44	0.002956
3067.09	0.003366
3076.73	0.002816
3086.38	0.0017541
3096.02	0.001718
3105.67	0.0014811
3115.31	0.001274
3124.95	0.0014278
3134.6	0.0014858
3144.24	0.0014061
3153.89	0.0014886
3163.53	0.0013652
3173.18	0.0014439
3182.82	0.0012242
3192.47	0.001244
3202.11	0.001405
3211.76	0.0014886
3221.4	0.0014336
3231.05	0.0012144
3240.69	0.0015806
3250.34	0.0014824
3259.98	0.0011759
3269.63	0.0013678
3279.27	0.0012685
3288.92	0.0013947
3298.56	0.0013537
3308.21	0.001501
3317.85	0.0012876
3327.49	0.0012612
3337.14	0.0013896
3346.78	0.00156
3356.43	0.0012586
3366.07	0.0014037
3375.72	0.0014019
3385.36	0.0013189
3395.01	0.0016514
3404.65	0.0014404
3414.3	0.0013456
3423.94	0.0013575
3433.59	0.0012901
3443.23	0.0016424
3452.88	0.0015818
3462.52	0.0013845
3472.17	0.0014307
3481.81	0.00148
3491.46	0.0014407
3501.1	0.0012797
3510.75	0.0015898
3520.39	0.0017523
3530.04	0.0014188
3539.68	0.0016229
3549.32	0.0015163
3558.97	0.0014189
3568.61	0.0014357
3578.26	0.0015491
3587.9	0.0012755
3597.55	0.001323
3607.19	0.0014278
3616.84	0.0012647
3626.48	0.0014034
3636.13	0.0012502
3645.77	0.001412
3655.42	0.001308
3665.06	0.0015205
3674.71	0.0013224
3684.35	0.001506
3694	0.001309
3703.64	0.0014191
3713.29	0.0016251
3722.93	0.0015334
3732.58	0.0011178
3742.22	0.0012334
3751.86	0.0013704
3761.51	0.0013871
3771.15	0.0011396
3780.8	0.0012894
3790.44	0.001425
3800.09	0.0012498
3809.73	0.0011749
3819.38	0.0011513
3829.02	0.0015522
3838.67	0.0014303
3848.31	0.0013986
3857.96	0.0012688
3867.6	0.001283
3877.25	0.0014528
3886.89	0.001448
3896.54	0.0012453
3906.18	0.001352
3915.83	0.0012258
3925.47	0.0012266
3935.12	0.0013228
3944.76	0.0012618
3954.41	0.0012994
3964.05	0.001351
3973.69	0.0014132
3983.34	0.0014719
3992.98	0.0012137
