Infrared Spectrum: 4-(Trifluoromethoxy)benzoyl chloride
Formula: C 8 H 4 Cl F 3 O 2
CAS: 36823-88-8
State: gas
Origin: EPA-IR VAPOR PHASE LIBRARY
1/CM	ABSORBANCE
549.8	0.009169
559.445	0.009599
569.09	0.004719
578.734	0.002709
588.379	0.001889
598.024	0.003049
607.669	0.003579
617.313	0.005809
626.958	0.007579
636.603	0.012669
646.248	0.017689
655.893	0.020569
665.537	0.026499
675.182	0.023509
684.827	0.021519
694.472	0.015499
704.116	0.009779
713.761	0.006429
723.406	0.006069
733.051	0.005349
742.695	0.005619
752.34	0.004629
761.985	0.004039
771.63	0.004279
781.275	0.005569
790.919	0.010799
800.564	0.017319
810.209	0.017739
819.854	0.013549
829.498	0.013729
839.143	0.020409
848.788	0.035029
858.433	0.055569
868.078	0.091949
877.722	0.157719
887.367	0.127729
897.012	0.056849
906.657	0.029189
916.301	0.017669
925.946	0.013069
935.591	0.010599
945.236	0.007339
954.88	0.005449
964.525	0.004849
974.17	0.004869
983.815	0.004839
993.46	0.003769
1003.1	0.004269
1012.75	0.007059
1022.39	0.006829
1032.04	0.002939
1041.68	0.003239
1051.33	0.003449
1060.97	0.004349
1070.62	0.003119
1080.26	0.004109
1089.91	0.005199
1099.55	0.006129
1109.2	0.009209
1118.84	0.010729
1128.49	0.012339
1138.13	0.016729
1147.78	0.027919
1157.42	0.057489
1167.07	0.147999
1176.71	0.159149
1186.36	0.200069
1196	0.309669
1205.64	0.328879
1215.29	0.421249
1224.93	0.345989
1234.58	0.161549
1244.22	0.139499
1253.87	0.221339
1263.51	0.399259
1273.16	0.387239
1282.8	0.160879
1292.45	0.087539
1302.09	0.062269
1311.74	0.042539
1321.38	0.024689
1331.03	0.013869
1340.67	0.009299
1350.32	0.007629
1359.96	0.006639
1369.61	0.005029
1379.25	0.004569
1388.9	0.004409
1398.54	0.005389
1408.18	0.007689
1417.83	0.008299
1427.47	0.005819
1437.12	0.004789
1446.76	0.004639
1456.41	0.005039
1466.05	0.005449
1475.7	0.005589
1485.34	0.008039
1494.99	0.020849
1504.63	0.040239
1514.28	0.015939
1523.92	0.006639
1533.57	0.005729
1543.21	0.005549
1552.86	0.005779
1562.5	0.006749
1572.15	0.009619
1581.79	0.018099
1591.44	0.032359
1601.08	0.038199
1610.73	0.029629
1620.37	0.014319
1630.01	0.007609
1639.66	0.004929
1649.3	0.004499
1658.95	0.004169
1668.59	0.004569
1678.24	0.004639
1687.88	0.004539
1697.53	0.004799
1707.17	0.005229
1716.82	0.007039
1726.46	0.011549
1736.11	0.019609
1745.75	0.031819
1755.4	0.040009
1765.04	0.043539
1774.69	0.062659
1784.33	0.101569
1793.98	0.100139
1803.62	0.049459
1813.27	0.020279
1822.91	0.011379
1832.55	0.008049
1842.2	0.005799
1851.84	0.003919
1861.49	0.002799
1871.13	0.002589
1880.78	0.002319
1890.42	0.002399
1900.07	0.002629
1909.71	0.003369
1919.36	0.003489
1929	0.002799
1938.65	0.002109
1948.29	0.0016265
1957.94	0.001739
1967.58	0.0016056
1977.23	0.0015891
1986.87	0.001789
1996.52	0.001979
2006.16	0.002469
2015.81	0.002719
2025.45	0.003129
2035.1	0.002889
2044.74	0.002489
2054.38	0.002379
2064.03	0.002429
2073.67	0.002439
2083.32	0.002269
2092.96	0.002299
2102.61	0.002309
2112.25	0.001909
2121.9	0.001989
2131.54	0.002309
2141.19	0.002319
2150.83	0.001749
2160.48	0.0015583
2170.12	0.0015379
2179.77	0.001719
2189.41	0.001779
2199.06	0.0016254
2208.7	0.0010762
2218.35	0.0009594
2227.99	0.0010025
2237.64	0.0009974
2247.28	0.0009852
2256.92	0.0008882
2266.57	0.0011111
2276.21	0.0014208
2285.86	0.0010785
2295.5	0.0016009
2305.15	0.0014175
2314.79	0.0013389
2324.44	0.0012699
2334.08	0.0013994
2343.73	0.001508
2353.37	0.001669
2363.02	0.0015174
2372.66	0.002019
2382.31	0.002709
2391.95	0.002439
2401.6	0.002649
2411.24	0.002899
2420.89	0.002879
2430.53	0.003759
2440.18	0.003539
2449.82	0.003659
2459.47	0.002959
2469.11	0.002859
2478.75	0.002489
2488.4	0.002529
2498.04	0.002379
2507.69	0.002249
2517.33	0.002409
2526.98	0.002389
2536.62	0.002059
2546.27	0.002109
2555.91	0.002239
2565.56	0.001859
2575.2	0.002169
2584.85	0.001829
2594.49	0.001729
2604.14	0.0013638
2613.78	0.0014139
2623.43	0.0011493
2633.07	0.0011898
2642.72	0.0012706
2652.36	0.0013218
2662.01	0.001204
2671.65	0.0008484
2681.29	0.0010454
2690.94	0.0013583
2700.58	0.0013263
2710.23	0.0012992
2719.87	0.0012559
2729.52	0.0010889
2739.16	0.0010821
2748.81	0.0012883
2758.45	0.0015825
2768.1	0.0014046
2777.74	0.0013467
2787.39	0.001427
2797.03	0.0013589
2806.68	0.0013706
2816.32	0.0012714
2825.97	0.0013384
2835.61	0.0011921
2845.26	0.0012344
2854.9	0.0009589
2864.55	0.0012597
2874.19	0.0009143
2883.84	0.0012134
2893.48	0.0008089
2903.12	0.0008979
2912.77	0.00103
2922.41	0.0012585
2932.06	0.0009266
2941.7	0.00068712
2951.35	0.0010873
2960.99	0.001132
2970.64	0.0011726
2980.28	0.00118
2989.93	0.0008743
2999.57	0.0012143
3009.22	0.0012246
3018.86	0.0008764
3028.51	0.0009944
3038.15	0.0008854
3047.8	0.0008451
3057.44	0.0013791
3067.09	0.0013535
3076.73	0.001859
3086.38	0.002569
3096.02	0.002089
3105.67	0.0012052
3115.31	0.0010861
3124.95	0.0010833
3134.6	0.0009394
3144.24	0.0011584
3153.89	0.00069775
3163.53	0.0010249
3173.18	0.0009577
3182.82	0.0014127
3192.47	0.00068721
3202.11	0.0008456
3211.76	0.00066702
3221.4	0.0010962
3231.05	0.0007295
3240.69	0.000858
3250.34	0.0007764
3259.98	0.00072139
3269.63	0.0008062
3279.27	0.0008175
3288.92	0.0010807
3298.56	0.000908
3308.21	0.0006224
3317.85	0.000232
3327.49	0.0009726
3337.14	0.000428
3346.78	0.00065312
3356.43	0.0008756
3366.07	0.0009346
3375.72	0.0009723
3385.36	0.0008757
3395.01	0.001145
3404.65	0.0012822
3414.3	0.00072761
3423.94	0.00071318
3433.59	0.0009649
3443.23	0.0013379
3452.88	0.0012714
3462.52	0.0010798
3472.17	0.000529
3481.81	0.0011156
3491.46	0.0008236
3501.1	0.0010979
3510.75	0.0015099
3520.39	0.0016209
3530.04	0.002409
3539.68	0.001979
3549.32	0.001869
3558.97	0.001649
3568.61	0.0014697
3578.26	0.0011735
3587.9	0.0010151
3597.55	0.0011927
3607.19	0.0012391
3616.84	0.0011263
3626.48	0.0009561
3636.13	0.0007529
3645.77	0.001649
3655.42	0.00029
3665.06	0.0012392
3674.71	0.0008781
3684.35	0.0008475
3694	0.0009338
3703.64	0.000351
3713.29	0.0010604
3722.93	0.0012243
3732.58	0.0009261
3742.22	0.0012121
3751.86	0.0008462
3761.51	0.0009817
3771.15	0.0013386
3780.8	0.0008799
3790.44	0.0011327
3800.09	0.00032
3809.73	0.0008503
3819.38	0.00037
3829.02	0.0011427
3838.67	0.0008579
3848.31	0.0010603
3857.96	0.000206
3867.6	0.0010322
3877.25	0.0014162
3886.89	0.0011055
3896.54	0.000322
3906.18	0.000451
3915.83	0.0011961
3925.47	0.000812
3935.12	0.00071471
3944.76	0.0012296
3954.41	0.000495
3964.05	0.0007672
3973.69	0.0007384
3983.34	0.0011861
3992.98	0.0012233
