Infrared Spectrum: cis-4-Methyl-2-hexene
Formula: C 7 H 14
CAS: 3683-19-0
State: gas
Instrument: HP-GC/MS/IRD
Origin: NIST Mass Spectrometry Data Center
1/CM	ABSORBANCE
550	0.000279
562	9.9e-05
574	0.0003225
586	0.0003585
598	0.000255
610	9.45e-05
622	7.5e-05
634	3.9e-05
646	7.8e-05
658	0.0001155
670	0.0002415
682	0.000579
694	0.0012675
706	0.0027315
718	0.003507
730	0.0022305
742	0.0007185
754	0.000441
766	0.000489
778	0.000588
790	0.00036
802	0.000342
814	0.000288
826	0.000378
838	0.000171
850	0.000165
862	7.05e-05
874	0.0001725
886	0.0002445
898	0.0001965
910	0.000294
922	0.000516
934	0.0007215
946	0.0007095
958	0.000645
970	0.000888
982	0.000903
994	0.0007005
1006	0.000627
1018	0.0004815
1030	0.000435
1042	0.0003045
1054	0.000231
1066	0.0002895
1078	0.0002835
1090	0.00039
1102	0.0003495
1114	0.000261
1126	0.0002865
1138	0.0002955
1150	0.0003045
1162	0.00021
1174	0.000216
1186	0.000174
1198	0.000141
1210	0.000117
1222	0.0001395
1234	0.000165
1246	0.000249
1258	0.0002955
1270	0.000381
1282	0.0004815
1294	0.000459
1306	0.000564
1318	0.0005835
1330	0.000525
1342	0.000474
1354	0.0006585
1366	0.0011055
1378	0.001509
1390	0.0015105
1402	0.0012795
1414	0.001122
1426	0.0009315
1438	0.0012405
1450	0.001986
1462	0.0023235
1474	0.0016965
1486	0.0009225
1498	0.00054
1510	0.000402
1522	0.0003855
1534	0.0003765
1546	0.000333
1558	0.0003225
1570	0.000243
1582	0.0002535
1594	0.0002475
1606	0.000231
1618	0.0001935
1630	0.0002715
1642	0.0004005
1654	0.0004905
1666	0.0005025
1678	0.0004845
1690	0.00039
1702	0.0002625
1714	0.0001815
1726	0.000171
1738	0.0001305
1750	0.0001905
1762	0.0001455
1774	0.000129
1786	0.00012
1798	0.0001005
1810	9.3e-05
1822	6.3e-05
1834	8.7e-05
1846	7.05e-05
1858	6.45e-05
1870	5.4e-05
1882	7.35e-05
1894	7.65e-05
1906	7.8e-05
1918	7.5e-05
1930	7.35e-05
1942	6.15e-05
1954	6.75e-05
1966	0.000102
1978	5.4e-05
1990	0.0001035
2002	8.1e-05
2014	9.45e-05
2026	3.9e-05
2038	5.25e-05
2050	6.45e-05
2062	7.8e-05
2074	6.15e-05
2086	2.1e-05
2098	4.05e-05
2110	5.4e-05
2122	5.25e-05
2134	4.05e-05
2146	4.35e-05
2158	5.7e-05
2170	4.8e-05
2182	5.85e-05
2194	5.85e-05
2206	2.85e-05
2218	5.4e-05
2230	4.95e-05
2242	6.45e-05
2254	9.15e-05
2266	9e-05
2278	7.05e-05
2290	0.000108
2302	0.000114
2314	0.0001005
2326	0.000102
2338	0.000102
2350	0.000114
2362	8.7e-05
2374	9.9e-05
2386	0.000135
2398	8.85e-05
2410	9.75e-05
2422	0.0001065
2434	8.4e-05
2446	9.15e-05
2458	0.000117
2470	0.0001035
2482	0.0001035
2494	0.000135
2506	0.0001125
2518	0.000138
2530	0.0001155
2542	0.000156
2554	0.00015
2566	0.000183
2578	0.0001605
2590	0.000189
2602	0.0001575
2614	0.0002025
2626	0.000186
2638	0.0001545
2650	0.0001545
2662	0.000246
2674	0.000249
2686	0.000228
2698	0.000231
2710	0.000285
2722	0.000321
2734	0.0003825
2746	0.0004305
2758	0.0004245
2770	0.0004065
2782	0.0005145
2794	0.000585
2806	0.0006495
2818	0.0008235
2830	0.0010395
2842	0.0016185
2854	0.0028905
2866	0.004914
2878	0.0063165
2890	0.0064155
2902	0.006372
2914	0.0082035
2926	0.0106875
2938	0.010938
2950	0.010605
2962	0.014403
2974	0.013872
2986	0.008121
2998	0.004788
3010	0.0053385
3022	0.004899
3034	0.0031725
3046	0.0018915
3058	0.001413
3070	0.001236
3082	0.0009735
3094	0.000723
3106	0.0005685
3118	0.000465
3130	0.00039
3142	0.0004125
3154	0.000396
3166	0.0003195
3178	0.000351
3190	0.000351
3202	0.0002025
3214	0.000174
3226	0.000159
3238	0.000108
3250	0.0001515
3262	7.5e-05
3274	9.75e-05
3286	9.15e-05
3298	0.000114
3310	0.000126
3322	0.0001245
3334	0.00015
3346	0.000117
3358	8.1e-05
3370	7.65e-05
3382	0.0001155
3394	0.000108
3406	0.000111
3418	7.95e-05
3430	7.2e-05
3442	7.65e-05
3454	6.6e-05
3466	0.0001785
3478	8.4e-05
3490	0.0001185
3502	7.95e-05
3514	8.25e-05
3526	7.35e-05
3538	0.000111
3550	3.45e-05
3562	7.2e-05
3574	0.000117
3586	0.0001215
3598	4.95e-05
3610	6e-05
3622	0.000132
3634	5.85e-05
3646	9.9e-05
3658	4.5e-05
3670	0.0001335
3682	0.00012
3694	7.2e-05
3706	0.000117
3718	6.75e-05
3730	8.55e-05
3742	0.0001695
3754	0.000108
3766	6.15e-05
3778	9.3e-05
3790	7.2e-05
3802	8.55e-05
3814	4.35e-05
3826	6.9e-05
3838	4.95e-05
