Infrared Spectrum: trans-4-Methyl-2-hexene
Formula: C 7 H 14
CAS: 3683-22-5
State: gas
Instrument: HP-GC/MS/IRD
Origin: NIST Mass Spectrometry Data Center
1/CM	ABSORBANCE
550	8.91e-05
562	6.6e-06
574	0.0001518
586	0.0002772
598	0.0002409
610	0.0002343
622	0.0002508
634	0.0003828
646	0.0002475
658	0.0001848
670	0.0001584
682	0.0001419
694	0.0001947
706	0.0001221
718	0.0001881
730	0.0002277
742	0.0002574
754	0.0003696
766	0.0005148
778	0.0006765
790	0.000627
802	0.0004224
814	0.0003399
826	0.000429
838	0.0003135
850	0.0003498
862	0.0003663
874	0.000528
886	0.0006501
898	0.0008052
910	0.0009207
922	0.0011649
934	0.0020064
946	0.0041745
958	0.0068805
970	0.0076857
982	0.0055176
994	0.0036102
1006	0.0026301
1018	0.0018843
1030	0.0012573
1042	0.0008679
1054	0.0007029
1066	0.0006072
1078	0.0006864
1090	0.0007326
1102	0.0006633
1114	0.0005445
1126	0.000462
1138	0.0004851
1150	0.0005115
1162	0.0005412
1174	0.0004752
1186	0.0005115
1198	0.000462
1210	0.0005016
1222	0.000594
1234	0.0007029
1246	0.0006864
1258	0.0006534
1270	0.0007986
1282	0.0009141
1294	0.0009966
1306	0.0009438
1318	0.0009009
1330	0.0010824
1342	0.001353
1354	0.0015642
1366	0.0022374
1378	0.0032109
1390	0.0030921
1402	0.0017985
1414	0.0013167
1426	0.0016368
1438	0.0027225
1450	0.004356
1462	0.005049
1474	0.0037455
1486	0.0020295
1498	0.0011418
1510	0.0008118
1522	0.0006435
1534	0.0005676
1546	0.0004752
1558	0.000462
1570	0.0004323
1582	0.0003927
1594	0.000396
1606	0.0003564
1618	0.0003366
1630	0.0003234
1642	0.000363
1654	0.0003729
1666	0.0004191
1678	0.000363
1690	0.0002772
1702	0.0002871
1714	0.0003432
1726	0.000429
1738	0.0005049
1750	0.0004752
1762	0.0003993
1774	0.0002805
1786	0.000264
1798	0.0002574
1810	0.000231
1822	0.0002244
1834	0.0001617
1846	0.000165
1858	0.0001551
1870	0.000132
1882	8.91e-05
1894	8.25e-05
1906	8.25e-05
1918	6.93e-05
1930	6.27e-05
1942	7.59e-05
1954	8.25e-05
1966	5.28e-05
1978	8.25e-05
1990	0.0001287
2002	0.0001419
2014	0.0001089
2026	7.92e-05
2038	7.92e-05
2050	6.27e-05
2062	6.93e-05
2074	6.27e-05
2086	5.28e-05
2098	4.29e-05
2110	5.94e-05
2122	2.31e-05
2134	3.96e-05
2146	2.97e-05
2158	3.63e-05
2170	6.6e-06
2182	2.64e-05
2194	2.97e-05
2206	1.32e-05
2218	2.97e-05
2230	4.29e-05
2242	1.32e-05
2254	3.63e-05
2266	1.32e-05
2278	4.29e-05
2290	5.28e-05
2302	6.6e-05
2314	6.27e-05
2326	6.6e-05
2338	9.57e-05
2350	0.0001056
2362	0.0001056
2374	0.0001188
2386	9.9e-05
2398	0.0001221
2410	0.0001386
2422	0.0001221
2434	0.0001221
2446	8.25e-05
2458	8.25e-05
2470	7.26e-05
2482	0.0001056
2494	7.59e-05
2506	7.59e-05
2518	8.58e-05
2530	7.92e-05
2542	0.0001254
2554	0.0001683
2566	0.000132
2578	0.000165
2590	0.0001848
2602	0.0002376
2614	0.0001683
2626	0.0002046
2638	0.0001881
2650	0.0001782
2662	0.0002112
2674	0.0002706
2686	0.0003201
2698	0.0003366
2710	0.0003663
2722	0.0005412
2734	0.0007656
2746	0.0008448
2758	0.000726
2770	0.0006534
2782	0.0007953
2794	0.0009537
2806	0.0012045
2818	0.0015213
2830	0.0020691
2842	0.003168
2854	0.0067254
2866	0.0124608
2878	0.0161205
2890	0.0156981
2902	0.0144672
2914	0.0180246
2926	0.0240834
2938	0.0245817
2950	0.0234102
2962	0.0310332
2974	0.0310695
2986	0.0188892
2998	0.0089991
3010	0.0062304
3022	0.0053394
3034	0.0046002
3046	0.0035277
3058	0.0026532
3070	0.0020988
3082	0.0017292
3094	0.0014289
3106	0.0011682
3118	0.0009867
3130	0.000924
3142	0.0007986
3154	0.0006534
3166	0.0005874
3178	0.0004785
3190	0.000396
3202	0.0003597
3214	0.0002772
3226	0.0002673
3238	0.000165
3250	0.0001782
3262	0.0001353
3274	0.0001188
3286	7.26e-05
3298	0.0001188
3310	6.6e-05
3322	9.9e-05
3334	0.0001386
3346	9.24e-05
3358	9.9e-05
3370	6.93e-05
3382	5.94e-05
3394	7.59e-05
3406	0.0001155
3418	0.0001188
3430	0.0001056
3442	0.0001485
3454	5.94e-05
3466	4.95e-05
3478	2.97e-05
3490	8.91e-05
3502	7.26e-05
3514	4.29e-05
3526	8.25e-05
3538	8.25e-05
3550	3.3e-05
3562	7.26e-05
3574	4.62e-05
3586	9.57e-05
3598	5.94e-05
3610	1.32e-05
3622	3.3e-06
3634	7.92e-05
3646	3.63e-05
3658	2.97e-05
3670	3.96e-05
3682	4.62e-05
3694	8.91e-05
3706	4.95e-05
3718	6.6e-05
3730	0.0001089
3742	4.95e-05
3754	8.25e-05
3766	3.96e-05
3778	0.0001353
3790	7.26e-05
3802	3.3e-05
3814	8.91e-05
3826	2.64e-05
3838	1.65e-05
