Infrared Spectrum: .beta.-Phenylethyl methacrylate
Formula: C 12 H 14 O 2
CAS: 3683-12-3
State: gas
Origin: EPA-IR VAPOR PHASE LIBRARY
1/CM	ABSORBANCE
549.8	0.001895
559.445	0.003485
569.09	0.005995
578.734	0.004325
588.379	0.003835
598.024	0.004385
607.669	0.003915
617.313	0.002955
626.958	0.002725
636.603	0.003945
646.248	0.005695
655.893	0.006685
665.537	0.007475
675.182	0.011225
684.827	0.020345
694.472	0.036145
704.116	0.030805
713.761	0.020175
723.406	0.017465
733.051	0.020955
742.695	0.028795
752.34	0.019295
761.985	0.010105
771.63	0.006235
781.275	0.004675
790.919	0.005945
800.564	0.009215
810.209	0.013965
819.854	0.012535
829.498	0.008685
839.143	0.006035
848.788	0.004785
858.433	0.004595
868.078	0.004075
877.722	0.003725
887.367	0.003705
897.012	0.004835
906.657	0.006745
916.301	0.010305
925.946	0.019525
935.591	0.030685
945.236	0.025335
954.88	0.013975
964.525	0.009995
974.17	0.011665
983.815	0.018075
993.46	0.023035
1003.1	0.023735
1012.75	0.032995
1022.39	0.029295
1032.04	0.023215
1041.68	0.017525
1051.33	0.016445
1060.97	0.013145
1070.62	0.011995
1080.26	0.012715
1089.91	0.012725
1099.55	0.013835
1109.2	0.017755
1118.84	0.026305
1128.49	0.048325
1138.13	0.109505
1147.78	0.254545
1157.42	0.362635
1167.07	0.249695
1176.71	0.126385
1186.36	0.073835
1196	0.049385
1205.64	0.035225
1215.29	0.026095
1224.93	0.019695
1234.58	0.014225
1244.22	0.012205
1253.87	0.013155
1263.51	0.016955
1273.16	0.026835
1282.8	0.052655
1292.45	0.092895
1302.09	0.085735
1311.74	0.089295
1321.38	0.080165
1331.03	0.031555
1340.67	0.017065
1350.32	0.013035
1359.96	0.011535
1369.61	0.012365
1379.25	0.015105
1388.9	0.017525
1398.54	0.021375
1408.18	0.025775
1417.83	0.019765
1427.47	0.016965
1437.12	0.020085
1446.76	0.026105
1456.41	0.033925
1466.05	0.030195
1475.7	0.020125
1485.34	0.014575
1494.99	0.020915
1504.63	0.014785
1514.28	0.005815
1523.92	0.004575
1533.57	0.004215
1543.21	0.003835
1552.86	0.003685
1562.5	0.004075
1572.15	0.004975
1581.79	0.006445
1591.44	0.009185
1601.08	0.012635
1610.73	0.012375
1620.37	0.011845
1630.01	0.015065
1639.66	0.017625
1649.3	0.012105
1658.95	0.007355
1668.59	0.006645
1678.24	0.007785
1687.88	0.010465
1697.53	0.014385
1707.17	0.022475
1716.82	0.046625
1726.46	0.109285
1736.11	0.177235
1745.75	0.136125
1755.4	0.056665
1765.04	0.022755
1774.69	0.013225
1784.33	0.011035
1793.98	0.010105
1803.62	0.007115
1813.27	0.004575
1822.91	0.003415
1832.55	0.002975
1842.2	0.003115
1851.84	0.003765
1861.49	0.004825
1871.13	0.005585
1880.78	0.005605
1890.42	0.004005
1900.07	0.002745
1909.71	0.002405
1919.36	0.002515
1929	0.003005
1938.65	0.003495
1948.29	0.003695
1957.94	0.003385
1967.58	0.002525
1977.23	0.002525
1986.87	0.002495
1996.52	0.002255
2006.16	0.001695
2015.81	0.001445
2025.45	0.001177
2035.1	0.0011026
2044.74	0.0010642
2054.38	0.0011594
2064.03	0.0012019
2073.67	0.0012419
2083.32	0.0012152
2092.96	0.0012489
2102.61	0.001275
2112.25	0.0010891
2121.9	0.0010907
2131.54	0.0010982
2141.19	0.0011079
2150.83	0.0010737
2160.48	0.0009313
2170.12	0.0008495
2179.77	0.0007709
2189.41	0.0007229
2199.06	0.0007582
2208.7	0.000778
2218.35	0.0008044
2227.99	0.0007773
2237.64	0.0008168
2247.28	0.0008216
2256.92	0.0007697
2266.57	0.0007751
2276.21	0.0007621
2285.86	0.0009382
2295.5	0.0012203
2305.15	0.001345
2314.79	0.001585
2324.44	0.001335
2334.08	0.0011878
2343.73	0.0011019
2353.37	0.0008788
2363.02	0.0007709
2372.66	0.000744
2382.31	0.0005518
2391.95	0.0005694
2401.6	0.0006435
2411.24	0.0005446
2420.89	0.0006757
2430.53	0.0006954
2440.18	0.0006809
2449.82	0.00068
2459.47	0.0006695
2469.11	0.0006324
2478.75	0.0006299
2488.4	0.0005406
2498.04	0.0004123
2507.69	0.0004437
2517.33	0.0003878
2526.98	0.0004442
2536.62	0.0005348
2546.27	0.000658
2555.91	0.0005886
2565.56	0.000657
2575.2	0.0006275
2584.85	0.000627
2594.49	0.0007265
2604.14	0.0007433
2613.78	0.0006566
2623.43	0.0005648
2633.07	0.0005578
2642.72	0.0005751
2652.36	0.0005845
2662.01	0.000612
2671.65	0.0005575
2681.29	0.0006528
2690.94	0.0005927
2700.58	0.0006517
2710.23	0.0005715
2719.87	0.0006238
2729.52	0.0009471
2739.16	0.0011656
2748.81	0.001335
2758.45	0.001365
2768.1	0.0011792
2777.74	0.0011942
2787.39	0.001395
2797.03	0.001375
2806.68	0.001615
2816.32	0.001835
2825.97	0.002385
2835.61	0.003395
2845.26	0.004805
2854.9	0.006435
2864.55	0.007365
2874.19	0.008435
2883.84	0.009435
2893.48	0.011645
2903.12	0.014535
2912.77	0.017895
2922.41	0.022505
2932.06	0.027515
2941.7	0.032135
2951.35	0.031695
2960.99	0.037135
2970.64	0.037585
2980.28	0.033015
2989.93	0.030105
2999.57	0.021245
3009.22	0.017825
3018.86	0.019895
3028.51	0.030045
3038.15	0.033445
3047.8	0.021245
3057.44	0.018505
3067.09	0.028155
3076.73	0.027975
3086.38	0.018205
3096.02	0.015145
3105.67	0.013405
3115.31	0.009065
3124.95	0.003695
3134.6	0.002205
3144.24	0.001535
3153.89	0.001285
3163.53	0.0011379
3173.18	0.0008502
3182.82	0.0004997
3192.47	0.0004224
3202.11	0.0004801
3211.76	0.0004736
3221.4	0.000385
3231.05	0.0006203
3240.69	0.00035637
3250.34	0.0004224
3259.98	0.0005139
3269.63	0.0003913
3279.27	0.00034797
3288.92	0.0002975
3298.56	0.0003804
3308.21	0.00036398
3317.85	0.0003888
3327.49	0.00036533
3337.14	0.0005456
3346.78	0.00036957
3356.43	0.0004916
3366.07	0.00035706
3375.72	0.00054
3385.36	0.0004111
3395.01	0.0004386
3404.65	0.000645
3414.3	0.0005373
3423.94	0.0006982
3433.59	0.0010085
3443.23	0.001445
3452.88	0.001995
3462.52	0.001815
3472.17	0.001515
3481.81	0.0009201
3491.46	0.0008221
3501.1	0.0005376
3510.75	0.0003917
3520.39	0.0004455
3530.04	0.000105
3539.68	0.00034268
3549.32	0.0001995
3558.97	0.0002458
3568.61	0.00026633
3578.26	0.00026824
3587.9	0.0001776
3597.55	0.00036045
3607.19	0.0002085
3616.84	0.00033679
3626.48	0.000278011
3636.13	0.000282559
3645.77	0.00034178
3655.42	0.0005203
3665.06	0.00035275
3674.71	0.0004393
3684.35	0.0004204
3694	0.0002245
3703.64	0.0004478
3713.29	0.0004485
3722.93	0.0004561
3732.58	0.0002187
3742.22	0.00027368
3751.86	0.000174
3761.51	0.0005043
3771.15	0.0003934
3780.8	0.00034036
3790.44	0.00034555
3800.09	0.00035931
3809.73	0.00035624
3819.38	0.0006498
3829.02	0.000151
3838.67	0.0004022
3848.31	0.00037308
3857.96	0.00036391
3867.6	0.0002294
3877.25	0.0001972
3886.89	0.0004172
3896.54	0.0004011
3906.18	0.00030503
3915.83	0.0006412
3925.47	0.00037319
3935.12	0.0004076
3944.76	0.0004396
3954.41	0.00035707
3964.05	0.0006211
3973.69	0.0006001
3983.34	0.0006996
3992.98	0.0006326
