Infrared Spectrum: BUTYRYL CHLORIDE, 2-PHENYL-
Formula: C10 H11 Cl O
CAS: 36854-57-6
State: SOLUTION (10% CCl4 FOR 3800-1330, 10% CS2 FOR 1330-450 CM^-^1)
Boiling point: 111 C AT 10 mmHg
Class: COBLENTZ III
Instrument: DOW KBr FOREPRISM-GRATING
Instrument parameters: BLAZED AT 3.5, 12.0, 20.0 MICRON AND CHANGED AT 5.0, 7.5, 14.9 MICRON
Sampling: TRANSMISSION
Path length: 0.012 CM, 0.011 CM
Resolution: 2
Origin: DOW CHEMICAL COMPANY
1/CM	TRANSMITTANCE
457	0.6431
466	0.6446
475	0.6386
484	0.616
493	0.5753
502	0.5591
511	0.6451
520	0.7298
529	0.7393
538	0.7208
547	0.6273
556	0.5587
565	0.536
574	0.5401
583	0.626
592	0.6501
601	0.62
610	0.58
619	0.6159
628	0.6697
637	0.7225
646	0.6944
655	0.5778
664	0.5521
673	0.7076
682	0.6761
691	0.5401
700	0.1014
709	0.1794
718	0.3718
727	0.1642
736	0.1479
745	0.4255
754	0.2351
763	0.4567
772	0.5162
781	0.2814
790	0.3704
799	0.3878
808	0.1853
817	0.4903
826	0.6644
835	0.6162
844	0.6373
853	0.6275
862	0.65
871	0.6887
880	0.7078
889	0.7018
898	0.5321
907	0.4048
916	0.5675
925	0.6874
934	0.7039
943	0.6478
952	0.5659
961	0.373
970	0.1836
979	0.4121
988	0.3344
997	0.4012
1006	0.4319
1015	0.6397
1024	0.5983
1033	0.6262
1042	0.6507
1051	0.7326
1060	0.7275
1069	0.6418
1078	0.6861
1087	0.6792
1096	0.627
1105	0.5587
1114	0.3414
1123	0.6587
1132	0.7701
1141	0.7745
1150	0.7634
1159	0.7635
1168	0.7775
1177	0.7336
1186	0.7217
1195	0.7884
1204	0.7993
1213	0.7921
1222	0.7675
1231	0.7484
1240	0.7401
1249	0.6925
1258	0.686
1267	0.6649
1276	0.7455
1285	0.7554
1294	0.7301
1303	0.7425
1312	0.7397
1321	0.7305
1330	0.7608
1339	0.7501
1348	0.7491
1357	0.7749
1366	0.8266
1375	0.8254
1384	0.626
1393	0.8246
1402	0.8498
1411	0.8475
1420	0.8413
1429	0.8263
1438	0.7578
1447	0.6389
1456	0.2051
1465	0.4444
1474	0.7451
1483	0.7278
1492	0.5409
1501	0.4144
1510	0.6721
1519	0.6401
1528	0.5968
1537	0.5143
1546	0.4423
1555	0.4484
1564	0.5168
1573	0.5827
1582	0.5708
1591	0.6025
1600	0.6006
1609	0.7403
1618	0.8228
1627	0.8425
1636	0.8493
1645	0.8523
1654	0.8521
1663	0.8482
1672	0.8501
1681	0.8437
1690	0.8318
1699	0.8074
1708	0.7667
1717	0.7812
1726	0.7622
1735	0.7057
1744	0.605
1753	0.5201
1762	0.3176
1771	0.1423
1780	0.0678
1789	0.0111
1798	0.0045
1807	0.0626
1816	0.3942
1825	0.5634
1834	0.6901
1843	0.7421
1852	0.7751
1861	0.7793
1870	0.7483
1879	0.761
1888	0.7808
1897	0.8021
1906	0.8274
1915	0.8405
1924	0.8393
1933	0.8271
1942	0.7765
1951	0.8134
1960	0.8196
1969	0.8358
1978	0.8525
1987	0.8484
1996	0.8595
2005	0.866
2014	0.8691
2023	0.8721
2032	0.8748
2041	0.8767
2050	0.8773
2059	0.8775
2068	0.8759
2077	0.8809
2086	0.8812
2095	0.8813
2104	0.8816
2113	0.8828
2122	0.8844
2131	0.8853
2140	0.8858
2149	0.8861
2158	0.8855
2167	0.8843
2176	0.8827
2185	0.8821
2194	0.882
2203	0.8816
2212	0.881
2221	0.8799
2230	0.8783
2239	0.8751
2248	0.872
2257	0.8696
2266	0.8697
2275	0.8649
2284	0.8601
2293	0.8593
2302	0.8655
2311	0.8746
2320	0.8828
2329	0.888
2338	0.8884
2347	0.8868
2356	0.8858
2365	0.8851
2374	0.8844
2383	0.8827
2392	0.8812
2401	0.88
2410	0.8801
2419	0.8813
2428	0.8837
2437	0.8861
2446	0.8843
2455	0.8834
2464	0.8835
2473	0.8832
2482	0.8828
2491	0.8825
2500	0.8815
2509	0.8803
2518	0.8792
2527	0.878
2536	0.8768
2545	0.8758
2554	0.8748
2563	0.8737
2572	0.8732
2581	0.8728
2590	0.8724
2599	0.8717
2608	0.8705
2617	0.8692
2626	0.869
2635	0.8691
2644	0.8696
2653	0.8691
2662	0.8682
2671	0.8674
2680	0.8682
2689	0.8687
2698	0.8681
2707	0.8671
2716	0.8663
2725	0.8644
2734	0.8564
2743	0.8535
2752	0.861
2761	0.8623
2770	0.8582
2779	0.8521
2788	0.8531
2797	0.8556
2806	0.8574
2815	0.8523
2824	0.8404
2833	0.8295
2842	0.8231
2851	0.8044
2860	0.7593
2869	0.6415
2878	0.4616
2887	0.7169
2896	0.7201
2905	0.6991
2914	0.6817
2923	0.6341
2932	0.4266
2941	0.4543
2950	0.5568
2959	0.4376
2968	0.2812
2977	0.2524
2986	0.4517
2995	0.651
3004	0.7578
3013	0.7683
3022	0.6503
3031	0.5123
3040	0.5971
3049	0.7464
3058	0.6819
3067	0.5978
3076	0.7299
3085	0.6921
3094	0.718
3103	0.7943
3112	0.8265
3121	0.8449
3130	0.849
3139	0.8513
3148	0.852
3157	0.8523
3166	0.854
3175	0.8586
3184	0.8608
3193	0.8618
3202	0.862
3211	0.862
3220	0.8621
3229	0.8621
3238	0.8628
3247	0.8639
3256	0.8648
3265	0.8653
3274	0.8655
3283	0.8641
3292	0.8628
3301	0.8624
3310	0.8618
3319	0.8618
3328	0.8623
3337	0.8634
3346	0.8651
3355	0.8667
3364	0.8675
3373	0.8678
3382	0.8681
3391	0.8683
3400	0.8683
3409	0.868
3418	0.8678
3427	0.8675
3436	0.8671
3445	0.8665
3454	0.8662
3463	0.8659
3472	0.8659
3481	0.8623
3490	0.8593
3499	0.8559
3508	0.8524
3517	0.8465
3526	0.84
3535	0.8343
3544	0.8289
3553	0.829
3562	0.8312
3571	0.8271
3580	0.8413
3589	0.8493
3598	0.8521
3607	0.8624
3616	0.8646
3625	0.8645
3634	0.8625
3643	0.8618
3652	0.8647
3661	0.8656
3670	0.8635
3679	0.8608
3688	0.8604
3697	0.8617
3706	0.8635
3715	0.865
3724	0.8663
3733	0.8657
3742	0.8647
3751	0.8637
3760	0.8635
3769	0.864
3778	0.8644
3787	0.863
