Infrared Spectrum: Oxadiazole, 1,2,4-, 3-(5-nitrofuran-2-yl)-5-(phenyloxymethyl)-
Formula: C13 H9 N3 O5
CAS: 36883-92-8
State: SOLID (NUJOL MULL)
Melting point: 137 C
Class: COBLENTZ III
Instrument: PERKIN-ELMER 21, NaCl PRISM
Instrument parameters: FILTER CHANGE AT 10 MICRON
Sampling: TRANSMISSION
Resolution: 2
Origin: ABBOTT LABORATORIES - WASHBURN
1/CM	TRANSMITTANCE
670	0.7516
679	0.7453
688	0.5081
697	0.7452
706	0.7658
715	0.7395
724	0.7146
733	0.6896
742	0.4246
751	0.674
760	0.3187
769	0.6297
778	0.7313
787	0.7603
796	0.7585
805	0.705
814	0.4939
823	0.6814
832	0.6303
841	0.4074
850	0.6924
859	0.7449
868	0.7529
877	0.7359
886	0.6837
895	0.6045
904	0.5611
913	0.719
922	0.5868
931	0.7519
940	0.7436
949	0.7249
958	0.6993
967	0.5248
976	0.7176
985	0.7016
994	0.6667
1003	0.6844
1012	0.6664
1021	0.6203
1030	0.3786
1039	0.705
1048	0.7156
1057	0.6821
1066	0.5115
1075	0.575
1084	0.6198
1093	0.7402
1102	0.731
1111	0.7175
1120	0.7122
1129	0.704
1138	0.6776
1147	0.6593
1156	0.6605
1165	0.6412
1174	0.5049
1183	0.657
1192	0.5938
1201	0.598
1210	0.5662
1219	0.5138
1228	0.3841
1237	0.2315
1246	0.4127
1255	0.6385
1264	0.6191
1273	0.5052
1282	0.4979
1291	0.4168
1300	0.4932
1309	0.3754
1318	0.3961
1327	0.3485
1336	0.2641
1345	0.3764
1354	0.134
1363	0.2483
1372	0.3917
1381	0.4512
1390	0.5984
1399	0.5643
1408	0.3711
1417	0.6311
1426	0.6061
1435	0.5103
1444	0.3767
1453	0.2598
1462	0.2832
1471	0.3614
1480	0.5075
1489	0.423
1498	0.332
1507	0.3103
1516	0.4178
1525	0.69
1534	0.7063
1543	0.571
1552	0.4334
1561	0.6056
1570	0.6803
1579	0.6789
1588	0.6076
1597	0.4324
1606	0.4983
1615	0.651
1624	0.724
1633	0.7983
1642	0.8097
1651	0.8038
1660	0.7981
1669	0.7927
1678	0.787
1687	0.7797
1696	0.7813
1705	0.779
1714	0.7773
1723	0.7814
1732	0.7835
1741	0.7844
1750	0.7821
1759	0.7808
1768	0.7792
1777	0.7776
1786	0.7756
1795	0.7736
1804	0.7703
1813	0.7665
1822	0.751
1831	0.7513
1840	0.7641
1849	0.7634
1858	0.7648
1867	0.7679
1876	0.7659
1885	0.7618
1894	0.7599
1903	0.757
1912	0.7534
1921	0.7519
1930	0.7518
1939	0.7516
1948	0.7449
1957	0.7386
1966	0.7378
1975	0.7377
1984	0.7381
1993	0.7372
2002	0.7348
2011	0.731
2020	0.7281
2029	0.7252
2038	0.7223
2047	0.7191
2056	0.7159
2065	0.7183
2074	0.7218
2083	0.7204
2092	0.7175
2101	0.715
2110	0.7132
2119	0.7118
2128	0.7105
2137	0.7092
2146	0.708
2155	0.707
2164	0.706
2173	0.705
2182	0.7038
2191	0.7022
2200	0.6999
2209	0.6977
2218	0.6947
2227	0.6918
2236	0.6892
2245	0.6868
2254	0.6843
2263	0.682
2272	0.6796
2281	0.6771
2290	0.6746
2299	0.6723
2308	0.6707
2317	0.6692
2326	0.6685
2335	0.6682
2344	0.6677
2353	0.6671
2362	0.6665
2371	0.6657
2380	0.665
2389	0.6638
2398	0.6623
2407	0.6602
2416	0.6566
2425	0.6534
2434	0.6522
2443	0.6511
2452	0.6507
2461	0.6502
2470	0.6498
2479	0.6491
2488	0.6484
2497	0.6453
2506	0.6417
2515	0.6372
2524	0.633
2533	0.6316
2542	0.6297
2551	0.6269
2560	0.6249
2569	0.6237
2578	0.6236
2587	0.6231
2596	0.6193
2605	0.613
2614	0.6073
2623	0.603
2632	0.6
2641	0.5974
2650	0.595
2659	0.5932
2668	0.5917
2677	0.5906
2686	0.5899
2695	0.5893
2704	0.589
2713	0.5888
2722	0.5884
2731	0.588
2740	0.5875
2749	0.5866
2758	0.5851
2767	0.5812
2776	0.5738
2785	0.5636
2794	0.5537
2803	0.544
2812	0.5337
2821	0.4781
2830	0.3743
2839	0.2711
2848	0.1691
2857	0.1419
2866	0.1528
2875	0.1547
2884	0.1505
2893	0.0997
2902	0.0536
2911	0.0476
2920	0.0498
2929	0.0634
2938	0.0794
2947	0.0854
2956	0.0895
2965	0.0943
2974	0.1226
2983	0.2146
2992	0.3061
3001	0.3999
3010	0.4494
3019	0.4795
3028	0.4911
3037	0.4962
3046	0.4987
3055	0.4992
3064	0.499
3073	0.4972
3082	0.4937
3091	0.4886
3100	0.4798
3109	0.4652
3118	0.4618
3127	0.4641
3136	0.4699
3145	0.479
3154	0.4886
3163	0.5006
3172	0.5242
3181	0.5325
3190	0.5354
3199	0.5365
3208	0.5371
3217	0.5373
3226	0.5374
3235	0.5374
3244	0.5375
3253	0.5376
3262	0.5374
3271	0.5369
3280	0.5363
3289	0.5357
3298	0.535
3307	0.5343
3316	0.5335
3325	0.5325
3334	0.5314
3343	0.5304
3352	0.5293
3361	0.5282
3370	0.5272
3379	0.5261
3388	0.5251
3397	0.524
3406	0.5229
3415	0.5218
3424	0.5206
3433	0.5196
3442	0.5184
3451	0.5174
3460	0.5164
3469	0.5155
3478	0.5146
3487	0.5136
3496	0.5128
3505	0.5119
3514	0.511
3523	0.5101
3532	0.5092
3541	0.5083
3550	0.5073
3559	0.5062
3568	0.5051
3577	0.504
3586	0.5029
3595	0.5019
3604	0.5008
3613	0.4997
3622	0.4987
3631	0.4977
3640	0.4966
3649	0.4955
3658	0.4945
3667	0.4935
3676	0.4925
3685	0.4915
3694	0.4905
3703	0.4894
3712	0.4884
3721	0.4875
3730	0.4865
3739	0.4855
3748	0.4845
3757	0.4835
3766	0.4826
3775	0.4816
3784	0.4806
3793	0.4796
3802	0.4787
3811	0.4777
3820	0.4768
3829	0.4759
3838	0.4749
3847	0.474
3856	0.4731
3865	0.4721
3874	0.4712
3883	0.4703
3892	0.4694
3901	0.4685
3910	0.4676
3919	0.4667
3928	0.4658
3937	0.465
3946	0.464
3955	0.4631
3964	0.4623
3973	0.4614
3982	0.4605
3991	0.4596
4000	0.4591
