Infrared Spectrum: Sulfotep
Formula: C 8 H 20 O 5 P 2 S 2
CAS: 3689-24-5
State: gas
Instrument: HP-GC/MS/IRD
Origin: NIST Mass Spectrometry Data Center
1/CM	ABSORBANCE
550	0.00306
562	0.000306
574	0.00068
586	0.001258
598	0.001496
610	0.002856
622	0.008772
634	0.030872
646	0.035054
658	0.016694
670	0.006086
682	0.00323
694	0.00255
706	0.002992
718	0.004148
730	0.005882
742	0.008602
754	0.01207
766	0.015572
778	0.024174
790	0.03723
802	0.050558
814	0.077486
826	0.118694
838	0.120156
850	0.05814
862	0.027778
874	0.021964
886	0.0255
898	0.036686
910	0.061642
922	0.119952
934	0.228242
946	0.272204
958	0.243372
970	0.266866
982	0.199138
994	0.117708
1006	0.10506
1018	0.15793
1030	0.286484
1042	0.331228
1054	0.227664
1066	0.15878
1078	0.119612
1090	0.08585
1102	0.063648
1114	0.04471
1126	0.0357
1138	0.033218
1150	0.03264
1162	0.03026
1174	0.024922
1186	0.017918
1198	0.011696
1210	0.008194
1222	0.006562
1234	0.005406
1246	0.004998
1258	0.005032
1270	0.005406
1282	0.005644
1294	0.00612
1306	0.006154
1318	0.004624
1330	0.003502
1342	0.003332
1354	0.00408
1366	0.006528
1378	0.01088
1390	0.020808
1402	0.017816
1414	0.00918
1426	0.007616
1438	0.008058
1450	0.009044
1462	0.008092
1474	0.008364
1486	0.007446
1498	0.004862
1510	0.003876
1522	0.003128
1534	0.002482
1546	0.002006
1558	0.001564
1570	0.001258
1582	0.001054
1594	0.00102
1606	0.001054
1618	0.000952
1630	0.00085
1642	0.000782
1654	0.000918
1666	0.001156
1678	0.001394
1690	0.001564
1702	0.001666
1714	0.001802
1726	0.001768
1738	0.0017
1750	0.001564
1762	0.001598
1774	0.001734
1786	0.001904
1798	0.00221
1810	0.002482
1822	0.002856
1834	0.003162
1846	0.0034
1858	0.003604
1870	0.003298
1882	0.002652
1894	0.002006
1906	0.001564
1918	0.001224
1930	0.000986
1942	0.000748
1954	0.000544
1966	0.000408
1978	0.00034
1990	0.000272
2002	0.000204
2014	0.000204
2026	0.000204
2038	0.000204
2050	0.000204
2062	0.000204
2074	0.000272
2086	0.000272
2098	0.000374
2110	0.00034
2122	0.000306
2134	0.00034
2146	0.000306
2158	0.000272
2170	0.00034
2182	0.00034
2194	0.00034
2206	0.000306
2218	0.000272
2230	0.000238
2242	0.000238
2254	0.000272
2266	0.000306
2278	0.000306
2290	0.000272
2302	0.000204
2314	0.000238
2326	0.000306
2338	0.000374
2350	0.000442
2362	0.000442
2374	0.000374
2386	0.000306
2398	0.000272
2410	0.000272
2422	0.00034
2434	0.000408
2446	0.00051
2458	0.000578
2470	0.000476
2482	0.000374
2494	0.00034
2506	0.000238
2518	0.000204
2530	0.000204
2542	0.000204
2554	0.000204
2566	0.000204
2578	0.000204
2590	0.000272
2602	0.000306
2614	0.000306
2626	0.000272
2638	0.000306
2650	0.000306
2662	0.000306
2674	0.000306
2686	0.000374
2698	0.000442
2710	0.000544
2722	0.000816
2734	0.001224
2746	0.00119
2758	0.001326
2770	0.001734
2782	0.001938
2794	0.0017
2806	0.001802
2818	0.002108
2830	0.002618
2842	0.003162
2854	0.004182
2866	0.00646
2878	0.010676
2890	0.012546
2902	0.015504
2914	0.020536
2926	0.021726
2938	0.037196
2950	0.033592
2962	0.026792
2974	0.03825
2986	0.0578
2998	0.046308
3010	0.0255
3022	0.015062
3034	0.008704
3046	0.005304
3058	0.003536
3070	0.002584
3082	0.002006
3094	0.0017
3106	0.001564
3118	0.001462
3130	0.001394
3142	0.001292
3154	0.001224
3166	0.001122
3178	0.00102
3190	0.000952
3202	0.000952
3214	0.000986
3226	0.000884
3238	0.000714
3250	0.000578
3262	0.00051
3274	0.000408
3286	0.000442
3298	0.000408
3310	0.000374
3322	0.000408
3334	0.000408
3346	0.00034
3358	0.00034
3370	0.000306
3382	0.000306
3394	0.000374
3406	0.000374
3418	0.00034
3430	0.00034
3442	0.000306
3454	0.000306
3466	0.000306
3478	0.000238
3490	0.000306
3502	0.000204
3514	0.000204
3526	0.000204
3538	0.000238
3550	0.000272
3562	0.000272
3574	0.000204
3586	0.000238
3598	0.000238
3610	0.000238
3622	0.000238
3634	0.000238
3646	0.000272
3658	0.000272
3670	0.000238
3682	0.000272
3694	0.000238
3706	0.000272
3718	0.000374
3730	0.000374
3742	0.00034
3754	0.00034
3766	0.000408
3778	0.000374
3790	0.000442
3802	0.00034
3814	0.000272
3826	0.000306
3838	0.000238
