Infrared Spectrum: [2-(m-NITROPHENOXY)ETHYL]TRIMETHYLAMMONIUM BROMIDE
Formula: C11 H17 Br N2 O3
CAS: 369-38-0
State: SOLID (NUJOL MULL)
Class: COBLENTZ III
Instrument: PERKIN-ELMER 221 (GRATING)
Instrument parameters: FILTER AT 980 CM^-^1. GRATING 4000-1428 CM^-^1, NaCl PRISM 1428-650 CM^-^1
Sampling: TRANSMISSION
Resolution: 2
Origin: SOUTHERN RESEARCH INSTITUTE
1/CM	TRANSMITTANCE
657.895	0.696
667.033	0.6478
676.172	0.8483
685.31	0.868
694.449	0.8599
703.587	0.8098
712.725	0.7159
721.864	0.4589
731.002	0.4881
740.14	0.8405
749.279	0.868
758.417	0.866
767.556	0.858
776.694	0.7875
785.832	0.496
794.971	0.427
804.109	0.8804
813.247	0.88
822.386	0.875
831.524	0.8542
840.663	0.8086
849.801	0.637
858.939	0.7411
868.078	0.5689
877.216	0.569
886.354	0.6701
895.493	0.8019
904.631	0.7638
913.77	0.4851
922.908	0.5863
932.046	0.6495
941.185	0.387
950.323	0.4547
959.461	0.5599
968.6	0.6292
977.738	0.675
986.877	0.603
996.015	0.808
1005.15	0.6944
1014.29	0.6071
1023.43	0.5684
1032.57	0.432
1041.71	0.5484
1050.85	0.7427
1059.98	0.73
1069.12	0.74
1078.26	0.623
1087.4	0.7777
1096.54	0.8153
1105.68	0.8007
1114.81	0.7907
1123.95	0.7004
1133.09	0.7331
1142.23	0.7537
1151.37	0.741
1160.51	0.72
1169.64	0.7071
1178.78	0.6991
1187.92	0.6588
1197.06	0.5803
1206.2	0.4973
1215.34	0.3567
1224.47	0.206
1233.61	0.2928
1242.75	0.5633
1251.89	0.6985
1261.03	0.5307
1270.17	0.4847
1279.3	0.4325
1288.44	0.2286
1297.58	0.3732
1306.72	0.4341
1315.86	0.5509
1325	0.5179
1334.13	0.3547
1343.27	0.1664
1352.41	0.2963
1361.55	0.3988
1370.69	0.4328
1379.83	0.6439
1388.97	0.6874
1398.1	0.6774
1407.24	0.5775
1416.38	0.6576
1425.52	0.5677
1434.66	0.4025
1443.8	0.2008
1452.93	0.1325
1462.07	0.1391
1471.21	0.2191
1480.35	0.2595
1489.49	0.3542
1498.63	0.4403
1507.76	0.2319
1516.9	0.0956
1526.04	0.1056
1535.18	0.3502
1544.32	0.5699
1553.46	0.7393
1562.59	0.8406
1571.73	0.8349
1580.87	0.8309
1590.01	0.8264
1599.15	0.7812
1608.29	0.4798
1617.42	0.7528
1626.56	0.861
1635.7	0.8893
1644.84	0.897
1653.98	0.893
1663.12	0.884
1672.25	0.8741
1681.39	0.871
1690.53	0.868
1699.67	0.8605
1708.81	0.858
1717.95	0.855
1727.08	0.854
1736.22	0.849
1745.36	0.843
1754.5	0.842
1763.64	0.8376
1772.78	0.8337
1781.92	0.83
1791.05	0.828
1800.19	0.829
1809.33	0.83
1818.47	0.83
1827.61	0.83
1836.75	0.8339
1845.88	0.8331
1855.02	0.8304
1864.16	0.8227
1873.3	0.8173
1882.44	0.8043
1891.58	0.804
1900.71	0.8121
1909.85	0.821
1918.99	0.82
1928.13	0.816
1937.27	0.8104
1946.41	0.8025
1955.54	0.7916
1964.68	0.79
1973.82	0.8001
1982.96	0.801
1992.1	0.786
2001.24	0.7971
2010.37	0.786
2019.51	0.783
2028.65	0.782
2037.79	0.7761
2046.93	0.783
2056.07	0.7801
2065.2	0.7741
2074.34	0.772
2083.48	0.7711
2092.62	0.77
2101.76	0.7671
2110.9	0.767
2120.04	0.7621
2129.17	0.758
2138.31	0.7551
2147.45	0.754
2156.59	0.751
2165.73	0.749
2174.87	0.746
2184	0.744
2193.14	0.744
2202.28	0.741
2211.42	0.738
2220.56	0.737
2229.7	0.7331
2238.83	0.7291
2247.97	0.7251
2257.11	0.724
2266.25	0.7191
2275.39	0.7121
2284.53	0.708
2293.66	0.7061
2302.8	0.706
2311.94	0.7
2321.08	0.6941
2330.22	0.6901
2339.36	0.6871
2348.49	0.687
2357.63	0.6851
2366.77	0.682
2375.91	0.683
2385.05	0.685
2394.19	0.686
2403.32	0.683
2412.46	0.6791
2421.6	0.6751
2430.74	0.671
2439.88	0.671
2449.02	0.671
2458.15	0.67
2467.29	0.67
2476.43	0.6729
2485.57	0.6641
2494.71	0.6571
2503.85	0.6531
2512.99	0.6479
2522.12	0.644
2531.26	0.6371
2540.4	0.6321
2549.54	0.632
2558.68	0.6291
2567.82	0.629
2576.95	0.627
2586.09	0.6201
2595.23	0.615
2604.37	0.614
2613.51	0.611
2622.65	0.608
2631.78	0.604
2640.92	0.603
2650.06	0.603
2659.2	0.6011
2668.34	0.5991
2677.48	0.598
2686.61	0.595
2695.75	0.5931
2704.89	0.591
2714.03	0.5871
2723.17	0.5821
2732.31	0.5869
2741.44	0.591
2750.58	0.594
2759.72	0.5901
2768.86	0.5851
2778	0.569
2787.14	0.5601
2796.27	0.5471
2805.41	0.5222
2814.55	0.4982
2823.69	0.4503
2832.83	0.3515
2841.97	0.1666
2851.11	0.0242
2860.24	0.0219
2869.38	0.0259
2878.52	0.034
2887.66	0.0341
2896.8	0.018
2905.94	0.0071
2915.07	0.003
2924.21	0.0021
2933.35	0.001
2942.49	0.002
2951.63	0.0029
2960.77	0.007
2969.9	0.0169
2979.04	0.0515
2988.18	0.1535
2997.32	0.1948
3006.46	0.2002
3015.6	0.1789
3024.73	0.2708
3033.87	0.3465
3043.01	0.3996
3052.15	0.408
3061.29	0.4189
3070.43	0.4231
3079.56	0.4041
3088.7	0.3799
3097.84	0.4468
3106.98	0.4717
3116.12	0.4838
3125.26	0.488
3134.39	0.489
3143.53	0.4891
3152.67	0.489
3161.81	0.489
3170.95	0.489
3180.09	0.489
3189.22	0.489
3198.36	0.489
3207.5	0.489
3216.64	0.49
3225.78	0.492
3234.92	0.492
3244.06	0.492
3253.19	0.49
3262.33	0.49
3271.47	0.489
3280.61	0.488
3289.75	0.486
3298.89	0.4841
3308.02	0.482
3317.16	0.481
3326.3	0.4791
3335.44	0.479
3344.58	0.48
3353.72	0.479
3362.85	0.477
3371.99	0.482
3381.13	0.4751
3390.27	0.472
3399.41	0.471
3408.55	0.471
3417.68	0.471
3426.82	0.471
3435.96	0.471
3445.1	0.471
3454.24	0.4711
3463.38	0.471
3472.51	0.469
3481.65	0.468
3490.79	0.467
3499.93	0.465
3509.07	0.465
3518.21	0.465
3527.34	0.465
3536.48	0.467
3545.62	0.464
3554.76	0.461
3563.9	0.459
3573.04	0.46
3582.18	0.46
3591.31	0.46
3600.45	0.4591
3609.59	0.458
3618.73	0.4551
3627.87	0.451
3637.01	0.451
3646.14	0.451
3655.28	0.451
3664.42	0.4481
3673.56	0.447
3682.7	0.4459
3691.84	0.446
3700.97	0.444
3710.11	0.443
3719.25	0.442
3728.39	0.44
3737.53	0.439
3746.67	0.437
3755.8	0.435
3764.94	0.434
3774.08	0.433
3783.22	0.43
3792.36	0.429
3801.5	0.429
3810.63	0.429
3819.77	0.427
3828.91	0.426
3838.05	0.425
3847.19	0.423
3856.33	0.423
3865.46	0.425
3874.6	0.4211
3883.74	0.418
3892.88	0.414
3902.02	0.414
3911.16	0.4159
3920.29	0.414
3929.43	0.414
3938.57	0.412
3947.71	0.4091
3956.85	0.409
3965.99	0.408
3975.13	0.4061
3984.26	0.4051
3993.4	0.405
4002.54	0.405
4011.68	0.405
4020.82	0.404
