Infrared Spectrum: 3,4-Difluoronitrobenzene
Formula: C 6 H 3 F 2 N O 2
CAS: 369-34-6
State: gas
Origin: EPA-IR VAPOR PHASE LIBRARY
1/CM	ABSORBANCE
549.8	0.00179
559.445	0.0009668
569.09	0.00141
578.734	0.00227
588.379	0.00211
598.024	0.00187
607.669	0.00177
617.313	0.00228
626.958	0.01175
636.603	0.02255
646.248	0.01522
655.893	0.00561
665.537	0.00329
675.182	0.00194
684.827	0.00214
694.472	0.00283
704.116	0.00245
713.761	0.00268
723.406	0.00831
733.051	0.01985
742.695	0.0333
752.34	0.01841
761.985	0.02012
771.63	0.04489
781.275	0.04697
790.919	0.02735
800.564	0.01531
810.209	0.03301
819.854	0.04292
829.498	0.02281
839.143	0.00913
848.788	0.00291
858.433	0.00243
868.078	0.00605
877.722	0.0168
887.367	0.02943
897.012	0.02128
906.657	0.00976
916.301	0.00447
925.946	0.00932
935.591	0.01736
945.236	0.01625
954.88	0.00648
964.525	0.0023
974.17	0.00173
983.815	0.00204
993.46	0.0023
1003.1	0.0021
1012.75	0.00162
1022.39	0.00149
1032.04	0.0012198
1041.68	0.0016
1051.33	0.00356
1060.97	0.01012
1070.62	0.0194
1080.26	0.01535
1089.91	0.00595
1099.55	0.00569
1109.2	0.01482
1118.84	0.01752
1128.49	0.00748
1138.13	0.0028
1147.78	0.0015
1157.42	0.00164
1167.07	0.00193
1176.71	0.00257
1186.36	0.00417
1196	0.01069
1205.64	0.02978
1215.29	0.04001
1224.93	0.03192
1234.58	0.01546
1244.22	0.01109
1253.87	0.00986
1263.51	0.01986
1273.16	0.05754
1282.8	0.1285
1292.45	0.12341
1302.09	0.04301
1311.74	0.01903
1321.38	0.02252
1331.03	0.04241
1340.67	0.07809
1350.32	0.13845
1359.96	0.14564
1369.61	0.05958
1379.25	0.01592
1388.9	0.00892
1398.54	0.00709
1408.18	0.00915
1417.83	0.01555
1427.47	0.02392
1437.12	0.02263
1446.76	0.01163
1456.41	0.00902
1466.05	0.01091
1475.7	0.0147
1485.34	0.02411
1494.99	0.06337
1504.63	0.16019
1514.28	0.17935
1523.92	0.10238
1533.57	0.11336
1543.21	0.18174
1552.86	0.19786
1562.5	0.161
1572.15	0.11679
1581.79	0.05959
1591.44	0.03511
1601.08	0.03329
1610.73	0.03187
1620.37	0.02075
1630.01	0.01544
1639.66	0.01096
1649.3	0.00648
1658.95	0.00434
1668.59	0.00301
1678.24	0.00273
1687.88	0.00237
1697.53	0.0023
1707.17	0.00257
1716.82	0.00256
1726.46	0.00197
1736.11	0.00143
1745.75	0.00172
1755.4	0.00248
1765.04	0.00362
1774.69	0.00391
1784.33	0.00273
1793.98	0.00158
1803.62	0.0009419
1813.27	0.000787
1822.91	0.0007953
1832.55	0.0008759
1842.2	0.0010954
1851.84	0.0011158
1861.49	0.00131
1871.13	0.00175
1880.78	0.00255
1890.42	0.00285
1900.07	0.00208
1909.71	0.0010459
1919.36	0.0006199
1929	0.000622
1938.65	0.0006143
1948.29	0.0004329
1957.94	0.0004092
1967.58	0.0004286
1977.23	0.0005533
1986.87	0.0006372
1996.52	0.0007629
2006.16	0.0010312
2015.81	0.0011792
2025.45	0.0010763
2035.1	0.0010431
2044.74	0.0009411
2054.38	0.00159
2064.03	0.0018
2073.67	0.00137
2083.32	0.00086
2092.96	0.0006508
2102.61	0.0005277
2112.25	0.000388
2121.9	0.0003887
2131.54	0.0005321
2141.19	0.000417
2150.83	0.0006019
2160.48	0.0005863
2170.12	0.0005927
2179.77	0.0006877
2189.41	0.000558
2199.06	0.0004767
2208.7	0.0004667
2218.35	0.0005574
2227.99	0.0006446
2237.64	0.0006487
2247.28	0.0005895
2256.92	0.000596
2266.57	0.0008448
2276.21	0.0014
2285.86	0.00159
2295.5	0.00144
2305.15	0.0011384
2314.79	0.0009363
2324.44	0.0009355
2334.08	0.0007888
2343.73	0.0008994
2353.37	0.000959
2363.02	0.0011439
2372.66	0.0011537
2382.31	0.001023
2391.95	0.0008594
2401.6	0.0007779
2411.24	0.0008711
2420.89	0.0012175
2430.53	0.0012053
2440.18	0.0010186
2449.82	0.0011252
2459.47	0.0010132
2469.11	0.0007334
2478.75	0.0007201
2488.4	0.000994
2498.04	0.0011531
2507.69	0.0010519
2517.33	0.0007421
2526.98	0.0008264
2536.62	0.0009729
2546.27	0.00143
2555.91	0.00147
2565.56	0.00153
2575.2	0.00161
2584.85	0.00153
2594.49	0.00184
2604.14	0.00238
2613.78	0.0023
2623.43	0.00204
2633.07	0.00151
2642.72	0.00137
2652.36	0.0011658
2662.01	0.0009822
2671.65	0.0011845
2681.29	0.0012718
2690.94	0.00147
2700.58	0.00149
2710.23	0.0012113
2719.87	0.0007367
2729.52	0.0008282
2739.16	0.0007028
2748.81	0.0007527
2758.45	0.0008375
2768.1	0.0008083
2777.74	0.0009469
2787.39	0.001092
2797.03	0.0011281
2806.68	0.0010132
2816.32	0.0011419
2825.97	0.0011651
2835.61	0.00132
2845.26	0.00151
2854.9	0.00195
2864.55	0.00227
2874.19	0.0025
2883.84	0.00281
2893.48	0.00284
2903.12	0.00257
2912.77	0.00241
2922.41	0.00222
2932.06	0.00155
2941.7	0.0012739
2951.35	0.0009649
2960.99	0.0011046
2970.64	0.0009457
2980.28	0.0007094
2989.93	0.000561
2999.57	0.000736
3009.22	0.000783
3018.86	0.0007017
3028.51	0.0006311
3038.15	0.0006676
3047.8	0.0007782
3057.44	0.0008359
3067.09	0.00133
3076.73	0.00211
3086.38	0.00513
3096.02	0.00991
3105.67	0.00892
3115.31	0.00412
3124.95	0.00244
3134.6	0.00174
3144.24	0.0012216
3153.89	0.0005736
3163.53	0.00031492
3173.18	0.0004527
3182.82	0.00035637
3192.47	0.0004323
3202.11	0.0003919
3211.76	0.000289002
3221.4	0.00031055
3231.05	0.0005588
3240.69	0.0004306
3250.34	0.0006559
3259.98	0.0005916
3269.63	0.00029575
3279.27	0.0002279
3288.92	0.00035517
3298.56	0.000279474
3308.21	0.000466
3317.85	0.0002308
3327.49	0.000286377
3337.14	0.00030433
3346.78	0.000288966
3356.43	0.00035213
3366.07	0.0002565
3375.72	0.0004239
3385.36	0.000284375
3395.01	0.00033029
3404.65	0.000279431
3414.3	0.00029787
3423.94	0.0002416
3433.59	0.00031889
3443.23	0.00035982
3452.88	0.000281294
3462.52	0.0002501
3472.17	0.00036287
3481.81	0.000158
3491.46	0.00033926
3501.1	0.0002292
3510.75	0.000123
3520.39	0.00037656
3530.04	0.0002613
3539.68	9.9e-05
3549.32	0.000151
3558.97	0.0002351
3568.61	0.00037484
3578.26	0.000111
3587.9	0.00032177
3597.55	0.00031825
3607.19	0.0003805
3616.84	0.00036232
3626.48	0.00035684
3636.13	0.00027289
3645.77	0.0003608
3655.42	0.0004635
3665.06	0.0002433
3674.71	0.0003816
3684.35	0.00027098
3694	0.0004864
3703.64	0.0005035
3713.29	0.0005443
3722.93	0.00034831
3732.58	0.0005426
3742.22	0.0002508
3751.86	0.0005098
3761.51	0.00030018
3771.15	0.0004695
3780.8	0.00032281
3790.44	0.0003495
3800.09	0.0001832
3809.73	0.000493
3819.38	0.0004488
3829.02	0.00036965
3838.67	0.0002273
3848.31	0.00034927
3857.96	0.00036039
3867.6	0.0004548
3877.25	0.0003971
3886.89	0.0005652
3896.54	0.00037701
3906.18	0.0004615
3915.83	0.0006443
3925.47	0.00037903
3935.12	0.00034049
3944.76	0.00032487
3954.41	0.0001974
3964.05	0.0003028
3973.69	0.00036007
3983.34	0.0002147
3992.98	0.00031232
