Infrared Spectrum: 2-Fluoro-5-nitroaniline
Formula: C 6 H 5 F N 2 O 2
CAS: 369-36-8
State: gas
Origin: EPA-IR VAPOR PHASE LIBRARY
1/CM	ABSORBANCE
501.5	0.00414
513.074	0.0038
524.648	0.00379
536.222	0.00473
547.796	0.00472
559.37	0.00452
570.944	0.00449
582.518	0.00389
594.092	0.00378
605.666	0.00431
617.24	0.006
628.814	0.01308
640.388	0.01597
651.962	0.0133
663.536	0.0117
675.11	0.01022
686.684	0.0094
698.258	0.01088
709.832	0.0139
721.406	0.01687
732.98	0.0222
744.554	0.02263
756.128	0.01586
767.702	0.01801
779.276	0.01526
790.85	0.0102
802.423	0.01297
813.997	0.02576
825.571	0.01683
837.145	0.00468
848.719	0.00436
860.293	0.00807
871.867	0.01405
883.441	0.01222
895.015	0.00605
906.589	0.00332
918.163	0.00336
929.737	0.00476
941.311	0.00632
952.885	0.00505
964.459	0.00249
976.033	0.00216
987.607	0.0021
999.181	0.00206
1010.76	0.00179
1022.33	0.00146
1033.9	0.00174
1045.48	0.00233
1057.05	0.00497
1068.63	0.00696
1080.2	0.00575
1091.77	0.00688
1103.35	0.00548
1114.92	0.00485
1126.49	0.00859
1138.07	0.00583
1149.64	0.00258
1161.22	0.00225
1172.79	0.00254
1184.36	0.00412
1195.94	0.00983
1207.51	0.03781
1219.09	0.05313
1230.66	0.01431
1242.23	0.0057
1253.81	0.00652
1265.38	0.01068
1276.96	0.02305
1288.53	0.03947
1300.1	0.02273
1311.68	0.01085
1323.25	0.01998
1334.83	0.03385
1346.4	0.06442
1357.97	0.08955
1369.55	0.03455
1381.12	0.00851
1392.7	0.00491
1404.27	0.00415
1415.84	0.00403
1427.42	0.00623
1438.99	0.01195
1450.57	0.01048
1462.14	0.00638
1473.71	0.00942
1485.29	0.01763
1496.86	0.0476
1508.44	0.08055
1520.01	0.05704
1531.58	0.07059
1543.16	0.10458
1554.73	0.08731
1566.31	0.05232
1577.88	0.03324
1589.45	0.02664
1601.03	0.02483
1612.6	0.02091
1624.18	0.02195
1635.75	0.02722
1647.32	0.02456
1658.9	0.0116
1670.47	0.00527
1682.05	0.00397
1693.62	0.00339
1705.19	0.00286
1716.77	0.00233
1728.34	0.00224
1739.92	0.00272
1751.49	0.00251
1763.06	0.00167
1774.64	0.00114
1786.21	0.0009783
1797.79	0.0008422
1809.36	0.0007565
1820.93	0.0007886
1832.51	0.00102
1844.08	0.00155
1855.66	0.00209
1867.23	0.00186
1878.8	0.00121
1890.38	0.0009263
1901.95	0.0007777
1913.53	0.0006756
1925.1	0.000712
1936.67	0.0007397
1948.25	0.0007031
1959.82	0.00071
1971.4	0.0008609
1982.97	0.0011
1994.54	0.00101
2006.12	0.0008114
2017.69	0.0006929
2029.27	0.0007508
2040.84	0.0008433
2052.41	0.000885
2063.99	0.0008358
2075.56	0.0006691
2087.14	0.0005685
2098.71	0.0004899
2110.28	0.0004343
2121.86	0.0004032
2133.43	0.0004251
2145.01	0.0004681
2156.58	0.0005335
2168.15	0.0005
2179.73	0.0004822
2191.3	0.0005453
2202.88	0.0005152
2214.45	0.000456
2226.02	0.000472
2237.6	0.0004432
2249.17	0.0004762
2260.74	0.0005941
2272.32	0.0007688
2283.89	0.000777
2295.47	0.0006579
2307.04	0.0005985
2318.61	0.0005477
2330.19	0.0005381
2341.76	0.000606
2353.34	0.0007529
2364.91	0.0007644
2376.48	0.0006801
2388.06	0.0006059
2399.63	0.0005679
2411.21	0.0006368
2422.78	0.0008128
2434.35	0.0007825
2445.93	0.0006231
2457.5	0.0005572
2469.08	0.0003968
2480.65	0.0003876
2492.22	0.0003557
2503.8	0.000352
2515.37	0.0003739
2526.95	0.0004578
2538.52	0.0006101
2550.09	0.0006194
2561.67	0.0006249
2573.24	0.0006951
2584.82	0.0006202
2596.39	0.0004593
2607.96	0.0004473
2619.54	0.0005352
2631.11	0.000779
2642.69	0.00111
2654.26	0.00148
2665.83	0.00155
2677.41	0.00123
2688.98	0.000954
2700.56	0.0008466
2712.13	0.0007893
2723.7	0.0006594
2735.28	0.0005162
2746.85	0.0004249
2758.43	0.0004554
2770	0.0004739
2781.57	0.0005147
2793.15	0.0004956
2804.72	0.0004666
2816.3	0.000509
2827.87	0.000624
2839.44	0.0007857
2851.02	0.0009884
2862.59	0.0012
2874.17	0.00147
2885.74	0.00152
2897.31	0.00139
2908.89	0.00132
2920.46	0.0012
2932.04	0.0009754
2943.61	0.0007175
2955.18	0.0005561
2966.76	0.0004426
2978.33	0.0003245
2989.91	0.0003497
3001.48	0.0004141
3013.05	0.0004496
3024.63	0.0004046
3036.2	0.0003996
3047.78	0.0004633
3059.35	0.0008422
3070.92	0.00151
3082.5	0.00262
3094.07	0.00195
3105.65	0.00138
3117.22	0.00105
3128.79	0.0005124
3140.37	0.000317
3151.94	0.0003751
3163.52	0.0003821
3175.09	0.0004982
3186.66	0.0006885
3198.24	0.0008517
3209.81	0.00111
3221.39	0.00121
3232.96	0.0009344
3244.53	0.00064
3256.11	0.0004429
3267.68	0.0003704
3279.26	0.0004042
3290.83	0.0003766
3302.4	0.0003321
3313.98	0.0003432
3325.55	0.0003722
3337.13	0.000355
3348.7	0.0004627
3360.27	0.0006153
3371.85	0.0009383
3383.42	0.00135
3395	0.00234
3406.57	0.00531
3418.14	0.01174
3429.72	0.01417
3441.29	0.00802
3452.86	0.00312
3464.44	0.00181
3476.01	0.00184
3487.59	0.00278
3499.16	0.00531
3510.73	0.00837
3522.31	0.00836
3533.88	0.00517
3545.46	0.00251
3557.03	0.00115
3568.6	0.0006371
3580.18	0.0004371
3591.75	0.0003606
3603.33	0.0003229
3614.9	0.000355
3626.47	0.0003165
3638.05	0.0002989
3649.62	0.0003405
3661.2	0.0003264
3672.77	0.0002634
3684.34	0.0002464
3695.92	0.0003199
3707.49	0.0003198
3719.07	0.0004111
3730.64	0.0004369
3742.21	0.0003676
3753.79	0.0003944
3765.36	0.0003388
3776.94	0.0004002
3788.51	0.0004099
3800.08	0.0004511
3811.66	0.0004335
3823.23	0.0003961
3834.81	0.000488
3846.38	0.0005401
3857.95	0.0006819
3869.53	0.0008234
3881.1	0.0007371
3892.68	0.0006458
3904.25	0.0006079
3915.82	0.0004399
3927.4	0.0004082
3938.97	0.0004019
3950.55	0.0005123
3962.12	0.0005515
3973.69	0.0004771
3985.27	0.0004117
3996.84	0.0004218
