Infrared Spectrum: Galactopyranoside, o-nitrophenyl, Beta-D-
Formula: C12 H15 N O8
CAS: 369-07-3
State: SOLID (SPLIT MULL), FLUOROLUBE FOR 3800-1330 CM^-^1, NUJOL FOR 1330-400 CM^-^1
Class: COBLENTZ III
Instrument: BECKMAN IR-9 (GRATING)
Instrument parameters: ORDER CHANGES: 670, 1200, 2000 CM^-^1
Sampling: TRANSMISSION
Resolution: 2
Origin: DOW CHEMICAL COMPANY
1/CM	TRANSMITTANCE
402	0.524
411	0.5354
420	0.5877
429	0.6445
438	0.6183
447	0.6725
456	0.7216
465	0.7378
474	0.7381
483	0.7201
492	0.6906
501	0.6729
510	0.5558
519	0.6619
528	0.672
537	0.6584
546	0.6452
555	0.6518
564	0.6844
573	0.7278
582	0.7574
591	0.7647
600	0.7745
609	0.6449
618	0.6238
627	0.7256
636	0.7074
645	0.6711
654	0.6348
663	0.5983
672	0.4856
681	0.4874
690	0.6947
699	0.6761
708	0.6676
717	0.6473
726	0.631
735	0.6734
744	0.5859
753	0.586
762	0.5288
771	0.3303
780	0.5723
789	0.773
798	0.8886
807	0.9093
816	0.8932
825	0.784
834	0.9033
843	0.8972
852	0.7451
861	0.7858
870	0.7009
879	0.8811
888	0.8693
897	0.8477
906	0.8268
915	0.7678
924	0.4868
933	0.4462
942	0.7755
951	0.7909
960	0.773
969	0.7273
978	0.5225
987	0.4077
996	0.5706
1005	0.5061
1014	0.4281
1023	0.1419
1032	0.4373
1041	0.4365
1050	0.2135
1059	0.2302
1068	0.0631
1077	0.0478
1086	0.3248
1095	0.2979
1104	0.143
1113	0.5463
1122	0.5404
1131	0.4327
1140	0.6088
1149	0.3478
1158	0.6761
1167	0.7261
1176	0.7915
1185	0.8021
1194	0.7758
1203	0.685
1212	0.4823
1221	0.3825
1230	0.5844
1239	0.5163
1248	0.4138
1257	0.2129
1266	0.3589
1275	0.6129
1284	0.313
1293	0.5074
1302	0.4208
1311	0.5599
1320	0.685
1329	0.5805
1338	0.5222
1347	0.5664
1356	0.5236
1365	0.5498
1374	0.3905
1383	0.4015
1392	0.4601
1401	0.6184
1410	0.6862
1419	0.6592
1428	0.5247
1437	0.6852
1446	0.7456
1455	0.6402
1464	0.6489
1473	0.6718
1482	0.4137
1491	0.3071
1500	0.5087
1509	0.439
1518	0.1852
1527	0.0742
1536	0.3878
1545	0.7338
1554	0.8114
1563	0.8329
1572	0.8388
1581	0.8179
1590	0.5546
1599	0.702
1608	0.5551
1617	0.779
1626	0.8428
1635	0.8706
1644	0.8829
1653	0.8904
1662	0.8941
1671	0.8966
1680	0.8975
1689	0.8979
1698	0.8981
1707	0.8983
1716	0.8975
1725	0.8967
1734	0.8961
1743	0.895
1752	0.8936
1761	0.8916
1770	0.8893
1779	0.8862
1788	0.8818
1797	0.876
1806	0.8687
1815	0.8704
1824	0.8788
1833	0.882
1842	0.881
1851	0.8788
1860	0.8769
1869	0.8727
1878	0.8713
1887	0.8712
1896	0.8717
1905	0.8717
1914	0.8698
1923	0.8663
1932	0.8596
1941	0.8555
1950	0.8611
1959	0.8633
1968	0.8607
1977	0.8536
1986	0.8514
1995	0.8492
2004	0.8585
2013	0.8579
2022	0.8543
2031	0.8501
2040	0.8476
2049	0.8447
2058	0.8421
2067	0.8394
2076	0.8365
2085	0.8336
2094	0.8309
2103	0.8277
2112	0.8248
2121	0.824
2130	0.8233
2139	0.8215
2148	0.8191
2157	0.8166
2166	0.8142
2175	0.8117
2184	0.8092
2193	0.8067
2202	0.8043
2211	0.8019
2220	0.799
2229	0.7949
2238	0.7909
2247	0.787
2256	0.7849
2265	0.7829
2274	0.7806
2283	0.7781
2292	0.7763
2301	0.7763
2310	0.7762
2319	0.7762
2328	0.7773
2337	0.7783
2346	0.7793
2355	0.7801
2364	0.778
2373	0.7726
2382	0.767
2391	0.7642
2400	0.7642
2409	0.763
2418	0.7595
2427	0.7588
2436	0.7588
2445	0.7582
2454	0.757
2463	0.7543
2472	0.7526
2481	0.7508
2490	0.7493
2499	0.7477
2508	0.7462
2517	0.7449
2526	0.7431
2535	0.74
2544	0.7363
2553	0.7385
2562	0.7429
2571	0.7451
2580	0.7442
2589	0.741
2598	0.7363
2607	0.731
2616	0.7265
2625	0.7228
2634	0.7216
2643	0.721
2652	0.72
2661	0.7175
2670	0.7148
2679	0.715
2688	0.7157
2697	0.7141
2706	0.7094
2715	0.7025
2724	0.6928
2733	0.6887
2742	0.6883
2751	0.689
2760	0.6898
2769	0.6902
2778	0.6872
2787	0.682
2796	0.6767
2805	0.6724
2814	0.6679
2823	0.6628
2832	0.6571
2841	0.6497
2850	0.6348
2859	0.6123
2868	0.5731
2877	0.4835
2886	0.5654
2895	0.5752
2904	0.5519
2913	0.5833
2922	0.6089
2931	0.5933
2940	0.5893
2949	0.5756
2958	0.5668
2967	0.6301
2976	0.6232
2985	0.6572
2994	0.6589
3003	0.6584
3012	0.653
3021	0.6451
3030	0.637
3039	0.6289
3048	0.6209
3057	0.6125
3066	0.6041
3075	0.5942
3084	0.5835
3093	0.5717
3102	0.5602
3111	0.5488
3120	0.5366
3129	0.5234
3138	0.5077
3147	0.4919
3156	0.4759
3165	0.4552
3174	0.4375
3183	0.4205
3192	0.401
3201	0.3823
3210	0.3667
3219	0.3562
3228	0.3511
3237	0.3543
3246	0.3593
3255	0.3711
3264	0.3848
3273	0.3949
3282	0.3993
3291	0.3992
3300	0.3962
3309	0.3903
3318	0.3819
3327	0.3684
3336	0.3492
3345	0.3214
3354	0.2851
3363	0.2459
3372	0.2019
3381	0.1637
3390	0.1584
3399	0.1767
3408	0.2134
3417	0.2501
3426	0.2868
3435	0.3235
3444	0.3619
3453	0.3916
3462	0.4324
3471	0.4645
3480	0.4967
3489	0.526
3498	0.5575
3507	0.5881
3516	0.6082
3525	0.6169
3534	0.6205
3543	0.6153
3552	0.5956
3561	0.5642
3570	0.4403
3579	0.1994
3588	0.4558
3597	0.6854
3606	0.7077
3615	0.7157
3624	0.7172
3633	0.7191
3642	0.7179
3651	0.7153
3660	0.7129
3669	0.7104
3678	0.7081
3687	0.7057
3696	0.7034
3705	0.7003
3714	0.6973
3723	0.6944
3732	0.6918
3741	0.689
3750	0.6863
3759	0.6827
3768	0.6788
3777	0.675
3786	0.6724
