Infrared Spectrum: cis,cis-2,7-Nonadiene
Formula: C 9 H 16
CAS: 36901-84-5
State: gas
Instrument: HP-GC/MS/IRD
Origin: NIST Mass Spectrometry Data Center
1/CM	ABSORBANCE
550	0.0001232
562	0.0003318
574	0.0005852
586	0.0011508
598	0.0006846
610	0.0004256
622	0.0004466
634	0.0007938
646	0.0011578
658	0.0019012
670	0.002926
682	0.0042364
694	0.0046676
706	0.0041286
718	0.0024444
730	0.001246
742	0.0005922
754	0.0003514
766	0.0002632
778	0.000147
790	0.00014
802	0.0001078
814	0
826	6.44e-05
838	0.0001302
850	0.0001778
862	0.0001176
874	0.0001652
886	0.000133
898	0.0002086
910	0.0003626
922	0.000406
934	0.0005922
946	0.0006692
958	0.0005418
970	0.0005166
982	0.0004676
994	0.000595
1006	0.0006034
1018	0.0005992
1030	0.000609
1042	0.0005852
1054	0.0003976
1066	0.0001638
1078	0.0002156
1090	0.0002086
1102	0.000147
1114	0.0001834
1126	0.0001694
1138	8.4e-05
1150	3.64e-05
1162	6.72e-05
1174	0.0001274
1186	0.0001134
1198	0.0001722
1210	0.0001232
1222	0.0001876
1234	0.000175
1246	0.0002072
1258	0.0002772
1270	0.0002674
1282	0.000399
1294	0.0003864
1306	0.0004396
1318	0.0006258
1330	0.0007224
1342	0.0008218
1354	0.0008764
1366	0.000994
1378	0.00112
1390	0.001204
1402	0.0019054
1414	0.0017458
1426	0.0012936
1438	0.0016226
1450	0.0018746
1462	0.0015008
1474	0.0009786
1486	0.000637
1498	0.000476
1510	0.0004326
1522	0.0004704
1534	0.0004004
1546	0.0004214
1558	0.0003906
1570	0.0002996
1582	0.0002408
1594	0.0002786
1606	0.0002856
1618	0.000413
1630	0.000497
1642	0.0008008
1654	0.0010598
1666	0.0007924
1678	0.0005082
1690	0.0003402
1702	0.000259
1714	0.0001918
1726	0.000154
1738	0.0001008
1750	6.44e-05
1762	5.46e-05
1774	4.2e-05
1786	5.32e-05
1798	4.48e-05
1810	6.02e-05
1822	2.52e-05
1834	4.76e-05
1846	3.22e-05
1858	4.34e-05
1870	4.48e-05
1882	6.16e-05
1894	4.9e-05
1906	5.32e-05
1918	6.44e-05
1930	4.06e-05
1942	9.1e-05
1954	5.46e-05
1966	0.0001008
1978	0.0001582
1990	0.000189
2002	0.0001708
2014	8.96e-05
2026	9.38e-05
2038	4.62e-05
2050	9.1e-05
2062	8.96e-05
2074	7.84e-05
2086	7.84e-05
2098	6.16e-05
2110	7e-06
2122	5.32e-05
2134	3.78e-05
2146	4.06e-05
2158	5.04e-05
2170	0
2182	5.88e-05
2194	5.18e-05
2206	4.06e-05
2218	4.76e-05
2230	5.74e-05
2242	3.36e-05
2254	3.64e-05
2266	4.76e-05
2278	4.34e-05
2290	5.6e-05
2302	7e-05
2314	8.26e-05
2326	8.4e-05
2338	7.7e-05
2350	4.76e-05
2362	8.68e-05
2374	2.52e-05
2386	2.1e-05
2398	3.36e-05
2410	3.64e-05
2422	2.52e-05
2434	3.92e-05
2446	4.34e-05
2458	3.78e-05
2470	2.66e-05
2482	4.76e-05
2494	5.88e-05
2506	7.42e-05
2518	4.34e-05
2530	5.74e-05
2542	6.02e-05
2554	5.04e-05
2566	0.0001162
2578	6.16e-05
2590	6.72e-05
2602	2.8e-05
2614	8.82e-05
2626	0.00014
2638	0.0001428
2650	0.0001512
2662	0.0001372
2674	0.0001848
2686	0.0001162
2698	0.0001834
2710	0.0002072
2722	0.0002688
2734	0.0002954
2746	0.0002884
2758	0.000336
2770	0.0004298
2782	0.000434
2794	0.0006146
2806	0.0007028
2818	0.0009772
2830	0.0015414
2842	0.002702
2854	0.0045612
2866	0.0061278
2878	0.0061432
2890	0.0058436
2902	0.006629
2914	0.008967
2926	0.0127848
2938	0.0136486
2950	0.0098812
2962	0.0064918
2974	0.0050806
2986	0.0045794
2998	0.0047824
3010	0.0073458
3022	0.0104902
3034	0.0077322
3046	0.004102
3058	0.002338
3070	0.0016226
3082	0.001113
3094	0.0007462
3106	0.000546
3118	0.0003556
3130	0.0003024
3142	0.0001988
3154	0.0001918
3166	0.0001932
3178	0.0001386
3190	0.0001246
3202	0.0001274
3214	0.0001358
3226	0.0001092
3238	0.0001624
3250	9.8e-05
3262	3.36e-05
3274	0.000147
3286	0.0001442
3298	0.0001386
3310	0.0001638
3322	3.92e-05
3334	4.76e-05
3346	0.0001022
3358	8.54e-05
3370	7.56e-05
3382	5.04e-05
3394	0.0001008
3406	8.82e-05
3418	1.26e-05
3430	6.16e-05
3442	2.52e-05
3454	4.34e-05
3466	2.8e-05
3478	0.0001106
3490	0.0001022
3502	0.0001162
3514	0.0001246
3526	5.74e-05
3538	9.8e-05
3550	0.0001708
3562	0.0001624
3574	0.0001918
3586	0.000105
3598	0.0001078
3610	0.0001484
3622	0.0001554
3634	8.68e-05
3646	0.0001358
3658	0.0001568
3670	0.0001372
3682	9.52e-05
3694	0.0001568
3706	0.000133
3718	9.66e-05
3730	0.0001512
3742	0.0001554
3754	0.0001582
3766	0.0001274
3778	0.0001288
3790	0.0001568
3802	0.0001442
3814	0.0002548
3826	0.000147
3838	0.0001008
