Infrared Spectrum: Methylene diurethane
Formula: C 7 H 14 N 2 O 4
CAS: 3693-53-6
State: gas
Origin: EPA-IR VAPOR PHASE LIBRARY
1/CM	ABSORBANCE
549.8	0.00916
559.445	0.00898
569.09	0.00807
578.735	0.00737
588.38	0.00723
598.025	0.0072
607.67	0.00703
617.315	0.00618
626.96	0.00532
636.605	0.00496
646.251	0.00438
655.896	0.004
665.541	0.00383
675.186	0.00404
684.831	0.004
694.476	0.00386
704.121	0.00372
713.766	0.00354
723.411	0.00314
733.056	0.00306
742.701	0.00352
752.346	0.00392
761.991	0.00512
771.636	0.00837
781.281	0.01272
790.926	0.01188
800.571	0.00864
810.216	0.00618
819.861	0.00495
829.507	0.00458
839.152	0.00438
848.797	0.00501
858.442	0.00607
868.087	0.00662
877.732	0.00613
887.377	0.00569
897.022	0.00653
906.667	0.01104
916.312	0.02041
925.957	0.01769
935.602	0.01121
945.247	0.00947
954.892	0.00898
964.537	0.00829
974.182	0.0074
983.827	0.00777
993.472	0.00997
1003.12	0.0162
1012.76	0.03122
1022.41	0.05641
1032.05	0.0563
1041.7	0.03151
1051.34	0.01965
1060.99	0.01702
1070.63	0.02065
1080.28	0.02698
1089.92	0.03082
1099.57	0.03331
1109.21	0.0323
1118.86	0.02856
1128.5	0.02406
1138.15	0.02241
1147.79	0.02278
1157.44	0.02187
1167.08	0.02443
1176.73	0.033
1186.37	0.05237
1196.02	0.0954
1205.66	0.17593
1215.31	0.22822
1224.95	0.15903
1234.6	0.09013
1244.24	0.05726
1253.89	0.03897
1263.53	0.03047
1273.18	0.02795
1282.82	0.02934
1292.47	0.03225
1302.11	0.03406
1311.76	0.03714
1321.4	0.0394
1331.05	0.02785
1340.69	0.01554
1350.34	0.01099
1359.98	0.0114
1369.63	0.0148
1379.27	0.01668
1388.92	0.02044
1398.56	0.02088
1408.21	0.01645
1417.85	0.01499
1427.5	0.01559
1437.14	0.01922
1446.79	0.02625
1456.43	0.03571
1466.08	0.05106
1475.73	0.08029
1485.37	0.1294
1495.02	0.16714
1504.66	0.11502
1514.31	0.06
1523.95	0.03086
1533.6	0.01892
1543.24	0.01397
1552.89	0.0113
1562.53	0.00968
1572.18	0.00846
1581.82	0.00729
1591.47	0.00642
1601.11	0.00566
1610.76	0.00523
1620.4	0.00492
1630.05	0.00474
1639.69	0.00469
1649.34	0.00485
1658.98	0.0051
1668.63	0.0058
1678.27	0.00683
1687.92	0.00816
1697.56	0.01059
1707.21	0.01441
1716.85	0.02056
1726.5	0.03502
1736.14	0.09197
1745.79	0.19159
1755.43	0.16979
1765.08	0.08761
1774.72	0.04131
1784.37	0.02138
1794.01	0.0129
1803.66	0.00958
1813.3	0.00773
1822.95	0.00594
1832.59	0.0046
1842.24	0.00379
1851.88	0.00329
1861.53	0.00302
1871.17	0.00276
1880.82	0.00268
1890.46	0.00257
1900.11	0.00243
1909.75	0.0022665
1919.4	0.0022213
1929.04	0.0020762
1938.69	0.0019892
1948.33	0.0018592
1957.98	0.0018718
1967.62	0.0018772
1977.27	0.0018288
1986.91	0.0019373
1996.56	0.0019006
2006.2	0.0018
2015.85	0.001834
2025.49	0.0018607
2035.14	0.0018102
2044.78	0.0018599
2054.43	0.0018367
2064.07	0.0018766
2073.72	0.0020012
2083.36	0.0021922
2093.01	0.0022206
2102.65	0.0021286
2112.3	0.0020346
2121.94	0.0019117
2131.59	0.0018937
2141.23	0.0019623
2150.88	0.0020044
2160.52	0.0019794
2170.17	0.0019446
2179.81	0.00185
2189.46	0.0017862
2199.1	0.0017381
2208.75	0.0017288
2218.39	0.001946
2228.04	0.0022067
2237.68	0.00257
2247.33	0.00293
2256.97	0.00307
2266.62	0.00283
2276.26	0.00267
2285.91	0.00253
2295.55	0.0022359
2305.2	0.0018322
2314.84	0.0016078
2324.49	0.0015988
2334.13	0.001476
2343.78	0.0015373
2353.42	0.0015717
2363.07	0.00141267
2372.72	0.001543
2382.36	0.0015097
2392.01	0.00141454
2401.65	0.0015238
2411.3	0.0016188
2420.94	0.0016979
2430.59	0.0016846
2440.23	0.0015871
2449.88	0.0014772
2459.52	0.00142896
2469.17	0.0013191
2478.81	0.001216
2488.46	0.00112
2498.1	0.001097
2507.75	0.001108
2517.39	0.001041
2527.04	0.001125
2536.68	0.001092
2546.33	0.000957
2555.97	0.001058
2565.62	0.001107
2575.26	0.001107
2584.91	0.001071
2594.55	0.001101
2604.2	0.001152
2613.84	0.00123
2623.49	0.001205
2633.13	0.001083
2642.78	0.001014
2652.42	0.001011
2662.07	0.001001
2671.71	0.001099
2681.36	0.0012625
2691	0.0012738
2700.65	0.00134313
2710.29	0.00137659
2719.94	0.00139854
2729.58	0.00137097
2739.23	0.0012406
2748.87	0.0012592
2758.52	0.00132927
2768.16	0.0014108
2777.81	0.0014711
2787.45	0.00141705
2797.1	0.0013778
2806.74	0.00156
2816.39	0.0016828
2826.03	0.0019068
2835.68	0.0021203
2845.32	0.00247
2854.97	0.00279
2864.61	0.00345
2874.26	0.0047
2883.9	0.00637
2893.55	0.00693
2903.19	0.00764
2912.84	0.00874
2922.48	0.00944
2932.13	0.01187
2941.77	0.01692
2951.42	0.0173
2961.06	0.01836
2970.71	0.02307
2980.35	0.03061
2990	0.03106
2999.64	0.02115
3009.29	0.01346
3018.93	0.00854
3028.58	0.0052
3038.22	0.00351
3047.87	0.00243
3057.51	0.0017362
3067.16	0.00142463
3076.8	0.001189
3086.45	0.001165
3096.09	0.00096
3105.74	0.001023
3115.38	0.000886
3125.03	0.000803
3134.67	0.000877
3144.32	0.000764
3153.96	0.000671
3163.61	0.000779
3173.25	0.000524
3182.9	0.000663
3192.54	0.000474
3202.19	0.000593
3211.83	0.000383
3221.48	0.000391
3231.12	0.000462
3240.77	0.000351
3250.41	0.000361
3260.06	0.0003
3269.7	0.00021
3279.35	0.00022
3289	0.00021
3298.64	0.00023
3308.29	0.00023
3317.93	0.00016
3327.58	3e-05
3337.22	0.0002
3346.87	0.00023
3356.51	0.00028
3366.16	0.00026
3375.8	0.000514
3385.45	0.000491
3395.09	0.000756
3404.74	0.000937
3414.38	0.001253
3424.03	0.0018418
3433.67	0.00276
3443.32	0.00489
3452.96	0.00924
3462.61	0.01727
3472.25	0.02185
3481.9	0.01388
3491.54	0.00661
3501.19	0.00396
3510.83	0.00249
3520.48	0.0016843
3530.12	0.0012722
3539.77	0.001024
3549.41	0.000823
3559.06	0.000817
3568.7	0.000523
3578.35	0.000537
3587.99	0.000483
3597.64	0.000346
3607.28	0.00031
3616.93	0.000368
3626.57	0.00016
3636.22	0.00039
3645.86	0.00021
3655.51	5e-05
3665.15	0.00016
3674.8	0.00026
3684.44	0.00021
3694.09	0.00026
3703.73	0.00019
3713.38	0.00021
3723.02	0.00025
3732.67	0.00023
3742.31	0.00012
3751.96	2e-05
3761.6	0.00028
3771.25	0.00029
3780.89	0.00027
3790.54	0.00013
3800.18	0.00012
3809.83	0.00027
3819.47	0.00014
3829.12	0.0001
3838.76	0.00027
3848.41	0.000376
3858.05	0.000379
3867.7	0.00031
3877.34	0.000348
3886.99	0.0005
3896.63	0.00025
3906.28	0.000332
3915.92	0.00026
3925.57	0.000502
3935.21	0.000407
3944.86	0.000497
3954.5	0.00032
3964.15	0.000503
3973.79	0.000418
3983.44	0.00028
3993.08	0.000388
