Infrared Spectrum: 2-Isopropylimidazole
Formula: C 6 H 10 N 2
CAS: 36947-68-9
State: gas
Origin: EPA-IR VAPOR PHASE LIBRARY
1/CM	ABSORBANCE
549.9	0.006828
559.547	0.003358
569.193	0.002008
578.84	0.0015271
588.486	0.0014569
598.133	0.001908
607.779	0.002888
617.426	0.003958
627.072	0.005258
636.719	0.004068
646.365	0.003238
656.012	0.002498
665.658	0.002488
675.305	0.004358
684.951	0.008338
694.598	0.014608
704.245	0.022708
713.891	0.029928
723.538	0.023528
733.184	0.017508
742.831	0.011048
752.477	0.005658
762.124	0.002948
771.77	0.0016122
781.417	0.0009591
791.063	0.0006744
800.71	0.00064
810.356	0.0009214
820.003	0.0015159
829.649	0.002628
839.296	0.003908
848.943	0.006068
858.589	0.004518
868.236	0.003438
877.882	0.002268
887.529	0.002008
897.175	0.002468
906.822	0.003258
916.468	0.003838
926.115	0.004278
935.761	0.004768
945.408	0.006558
955.054	0.007358
964.701	0.006008
974.347	0.003308
983.994	0.002308
993.64	0.002978
1003.29	0.004918
1012.93	0.008458
1022.58	0.012778
1032.23	0.015368
1041.87	0.017348
1051.52	0.018908
1061.17	0.020128
1070.81	0.019598
1080.46	0.017588
1090.11	0.011668
1099.75	0.007128
1109.4	0.005048
1119.05	0.003928
1128.69	0.003168
1138.34	0.003498
1147.99	0.005388
1157.63	0.008818
1167.28	0.007908
1176.92	0.005128
1186.57	0.002368
1196.22	0.002678
1205.86	0.003168
1215.51	0.004338
1225.16	0.004748
1234.8	0.004888
1244.45	0.004988
1254.1	0.005118
1263.74	0.004848
1273.39	0.004068
1283.04	0.003998
1292.68	0.005358
1302.33	0.008208
1311.98	0.010528
1321.62	0.010298
1331.27	0.008298
1340.92	0.007138
1350.56	0.008018
1360.21	0.009918
1369.86	0.009638
1379.5	0.008978
1389.15	0.008498
1398.79	0.007788
1408.44	0.008518
1418.09	0.011928
1427.73	0.016388
1437.38	0.019618
1447.03	0.019788
1456.67	0.016748
1466.32	0.013608
1475.97	0.012638
1485.61	0.011978
1495.26	0.009018
1504.91	0.004948
1514.55	0.003238
1524.2	0.006088
1533.85	0.015668
1543.49	0.022728
1553.14	0.020478
1562.79	0.009478
1572.43	0.004308
1582.08	0.002618
1591.73	0.0017267
1601.37	0.0012548
1611.02	0.0008961
1620.67	0.0007276
1630.31	0.000643
1639.96	0.000644
1649.6	0.000642
1659.25	0.000765376
1668.9	0.0010797
1678.54	0.002138
1688.19	0.003148
1697.84	0.002888
1707.48	0.001928
1717.13	0.0009437
1726.78	0.000552
1736.42	0.000458
1746.07	0.000384
1755.72	0.000393
1765.36	0.000392
1775.01	0.000435
1784.66	0.000406
1794.3	0.000455
1803.95	0.000446
1813.6	0.000416
1823.24	0.00048
1832.89	0.000393
1842.54	0.00041
1852.18	0.000429
1861.83	0.000398
1871.47	0.000421
1881.12	0.000397
1890.77	0.000343
1900.41	0.000288
1910.06	0.000321
1919.71	0.000306
1929.35	0.000308
1939	0.000323
1948.65	0.000298
1958.29	0.000303
1967.94	0.00027
1977.59	0.000303
1987.23	0.000359
1996.88	0.000337
2006.53	0.000363
2016.17	0.000346
2025.82	0.0003
2035.47	0.000328
2045.11	0.000313
2054.76	0.000361
2064.41	0.00032
2074.05	0.000347
2083.7	0.000369
2093.35	0.000304
2102.99	0.000312
2112.64	0.0004
2122.28	0.000362
2131.93	0.000475
2141.58	0.000484
2151.22	0.000447
2160.87	0.000456
2170.52	0.000527
2180.16	0.000605
2189.81	0.000598
2199.46	0.0006914
2209.1	0.00081544
2218.75	0.00081824
2228.4	0.00078729
2238.04	0.0007135
2247.69	0.000636
2257.34	0.00057
2266.98	0.000531
2276.63	0.000513
2286.28	0.000468
2295.92	0.000519
2305.57	0.000496
2315.22	0.00048
2324.86	0.000485
2334.51	0.000451
2344.16	0.000438
2353.8	0.000435
2363.45	0.000526
2373.09	0.000546
2382.74	0.000564
2392.39	0.000608
2402.03	0.000645
2411.68	0.00080426
2421.33	0.00085252
2430.97	0.0009003
2440.62	0.00082492
2450.27	0.000764486
2459.91	0.000758267
2469.56	0.00079311
2479.21	0.0008618
2488.85	0.0009489
2498.5	0.0009285
2508.15	0.0008852
2517.79	0.0009253
2527.44	0.0008793
2537.09	0.00080463
2546.73	0.00080382
2556.38	0.00075102
2566.03	0.00079174
2575.67	0.00082969
2585.32	0.00078705
2594.96	0.00085635
2604.61	0.0008626
2614.26	0.0008631
2623.9	0.0009158
2633.55	0.0009215
2643.2	0.00084063
2652.84	0.00075342
2662.49	0.000632
2672.14	0.000525
2681.78	0.000568
2691.43	0.000619
2701.08	0.0006746
2710.72	0.00079889
2720.37	0.0009102
2730.02	0.0010395
2739.66	0.0011159
2749.31	0.0012009
2758.96	0.0011808
2768.6	0.0011356
2778.25	0.0011907
2787.9	0.0012379
2797.54	0.0013747
2807.19	0.0016237
2816.84	0.001848
2826.48	0.002178
2836.13	0.002568
2845.77	0.003658
2855.42	0.005758
2865.07	0.010228
2874.71	0.016078
2884.36	0.019468
2894.01	0.020118
2903.65	0.018868
2913.3	0.018808
2922.95	0.020808
2932.59	0.024698
2942.24	0.028388
2951.89	0.033788
2961.53	0.045748
2971.18	0.057108
2980.83	0.051268
2990.47	0.030188
3000.12	0.013278
3009.77	0.006198
3019.41	0.003038
3029.06	0.0016546
3038.71	0.00108
3048.35	0.0009137
3058	0.0009537
3067.64	0.0011467
3077.29	0.0015105
3086.94	0.0016283
3096.58	0.001808
3106.23	0.002468
3115.88	0.004298
3125.52	0.005088
3135.17	0.005178
3144.82	0.004738
3154.46	0.004248
3164.11	0.002678
3173.76	0.000951
3183.4	0.0010426
3193.05	0.00082287
3202.7	0.00077024
3212.34	0.000594
3221.99	0.000373
3231.64	0.000451
3241.28	0.00043
3250.93	0.000118
3260.58	0.000312
3270.22	0.00035
3279.87	9.3e-05
3289.52	0.000322
3299.16	0.000185
3308.81	0.00024
3318.45	0.000226
3328.1	0.000177
3337.75	0.000116
3347.39	4.2e-05
3357.04	7.8e-05
3366.69	0.000114
3376.33	0.000273
3385.98	0.000192
3395.63	0.000386
3405.27	0.000234
3414.92	0.000281
3424.57	0.00053
3434.21	0.000633
3443.86	0.000981
3453.51	0.001848
3463.15	0.003438
3472.8	0.006708
3482.45	0.011468
3492.09	0.017318
3501.74	0.019858
3511.39	0.017588
3521.03	0.013118
3530.68	0.005948
3540.33	0.002668
3549.97	0.0010577
3559.62	0.000599
3569.26	0.000383
3578.91	0.000177
3588.56	0.000361
3598.2	0.00032
3607.85	0.000331
3617.5	0.000268
3627.14	0.000192
3636.79	0.000277
3646.44	0.000176
3656.08	0.000143
3665.73	0.000166
3675.38	0.000298
3685.02	0.000181
3694.67	0.000184
3704.32	0.000182
3713.96	0.000419
3723.61	0.000292
3733.26	0.000295
3742.9	0.000239
3752.55	0.000109
3762.2	0.000162
3771.84	0.000329
3781.49	0.000153
3791.13	0.000223
3800.78	0.000133
3810.43	0.000311
3820.07	0.000246
3829.72	0.00029
3839.37	0.00035
3849.01	0.000414
3858.66	0.000238
3868.31	0.000297
3877.95	0.000265
3887.6	0.000213
3897.25	0.000204
3906.89	0.00032
3916.54	0.000381
3926.19	0.000303
3935.83	0.00037
3945.48	0.000347
3955.13	0.00027
3964.77	0.000372
3974.42	0.000312
3984.07	0.000567
3993.71	0.000539
