Infrared Spectrum: 3-Chlorobenzyl isothiocyanate
Formula: C 8 H 6 Cl N S
CAS: 3694-58-4
State: gas
Origin: EPA-IR VAPOR PHASE LIBRARY
1/CM	ABSORBANCE
549.8	0.012865
559.445	0.013585
569.09	0.013525
578.734	0.011465
588.379	0.009825
598.024	0.009815
607.669	0.007675
617.313	0.006135
626.958	0.005085
636.603	0.004155
646.248	0.004385
655.893	0.005245
665.537	0.009455
675.182	0.021295
684.827	0.040295
694.472	0.038835
704.116	0.032025
713.761	0.030185
723.406	0.025175
733.051	0.019875
742.695	0.016025
752.34	0.014865
761.985	0.017695
771.63	0.021675
781.275	0.021155
790.919	0.013905
800.564	0.006145
810.209	0.003015
819.854	0.002365
829.498	0.003105
839.143	0.005035
848.788	0.009845
858.433	0.017555
868.078	0.018585
877.722	0.013165
887.367	0.007555
897.012	0.004855
906.657	0.003525
916.301	0.002905
925.946	0.002495
935.591	0.002455
945.236	0.002375
954.88	0.002505
964.525	0.002545
974.17	0.002395
983.815	0.002575
993.46	0.003465
1003.1	0.003315
1012.75	0.003515
1022.39	0.003335
1032.04	0.002905
1041.68	0.002635
1051.33	0.003625
1060.97	0.005895
1070.62	0.011935
1080.26	0.018235
1089.91	0.022965
1099.55	0.018735
1109.2	0.012105
1118.84	0.007735
1128.49	0.004925
1138.13	0.003745
1147.78	0.004065
1157.42	0.005055
1167.07	0.005525
1176.71	0.006715
1186.36	0.009985
1196	0.016935
1205.64	0.020445
1215.29	0.014955
1224.93	0.008845
1234.58	0.006425
1244.22	0.005635
1253.87	0.006535
1263.51	0.008405
1273.16	0.009615
1282.8	0.012275
1292.45	0.014785
1302.09	0.016865
1311.74	0.020815
1321.38	0.033865
1331.03	0.079435
1340.67	0.095175
1350.32	0.034645
1359.96	0.016695
1369.61	0.012535
1379.25	0.009085
1388.9	0.008805
1398.54	0.010175
1408.18	0.012315
1417.83	0.020285
1427.47	0.034715
1437.12	0.035365
1446.76	0.034645
1456.41	0.033575
1466.05	0.018315
1475.7	0.023555
1485.34	0.020665
1494.99	0.010575
1504.63	0.005205
1514.28	0.003395
1523.92	0.002845
1533.57	0.002745
1543.21	0.003455
1552.86	0.005345
1562.5	0.010245
1572.15	0.019825
1581.79	0.026525
1591.44	0.031925
1601.08	0.030165
1610.73	0.010315
1620.37	0.003635
1630.01	0.002365
1639.66	0.002025
1649.3	0.001925
1658.95	0.001975
1668.59	0.002325
1678.24	0.002555
1687.88	0.002195
1697.53	0.001785
1707.17	0.001715
1716.82	0.001755
1726.46	0.002095
1736.11	0.002505
1745.75	0.002855
1755.4	0.003025
1765.04	0.002905
1774.69	0.002595
1784.33	0.002425
1793.98	0.002525
1803.62	0.002325
1813.27	0.002175
1822.91	0.002255
1832.55	0.002575
1842.2	0.003115
1851.84	0.004175
1861.49	0.005725
1871.13	0.005965
1880.78	0.006005
1890.42	0.007005
1900.07	0.008615
1909.71	0.010725
1919.36	0.013775
1929	0.018085
1938.65	0.022905
1948.29	0.029055
1957.94	0.037875
1967.58	0.051015
1977.23	0.069835
1986.87	0.096425
1996.52	0.133135
2006.16	0.181795
2015.81	0.241275
2025.45	0.303815
2035.1	0.360365
2044.74	0.399435
2054.38	0.403755
2064.03	0.372285
2073.67	0.302065
2083.32	0.212975
2092.96	0.141545
2102.61	0.092465
2112.25	0.064645
2121.9	0.050455
2131.54	0.043475
2141.19	0.040625
2150.83	0.042595
2160.48	0.050795
2170.12	0.059205
2179.77	0.058985
2189.41	0.052375
2199.06	0.044365
2208.7	0.036455
2218.35	0.029575
2227.99	0.023395
2237.64	0.017805
2247.28	0.013575
2256.92	0.010415
2266.57	0.008475
2276.21	0.006975
2285.86	0.006215
2295.5	0.005755
2305.15	0.005415
2314.79	0.004625
2324.44	0.004045
2334.08	0.003475
2343.73	0.003085
2353.37	0.002585
2363.02	0.002245
2372.66	0.002105
2382.31	0.001925
2391.95	0.001905
2401.6	0.001725
2411.24	0.001585
2420.89	0.001665
2430.53	0.001615
2440.18	0.001515
2449.82	0.001555
2459.47	0.001525
2469.11	0.001715
2478.75	0.001725
2488.4	0.001995
2498.04	0.001955
2507.69	0.001965
2517.33	0.001785
2526.98	0.001845
2536.62	0.001975
2546.27	0.002105
2555.91	0.002345
2565.56	0.002555
2575.2	0.002335
2584.85	0.001945
2594.49	0.001775
2604.14	0.001465
2613.78	0.001445
2623.43	0.001505
2633.07	0.001735
2642.72	0.001945
2652.36	0.002065
2662.01	0.002275
2671.65	0.002235
2681.29	0.002135
2690.94	0.002135
2700.58	0.002285
2710.23	0.002735
2719.87	0.003065
2729.52	0.003515
2739.16	0.003985
2748.81	0.004105
2758.45	0.004235
2768.1	0.004235
2777.74	0.004645
2787.39	0.004885
2797.03	0.004685
2806.68	0.004125
2816.32	0.003425
2825.97	0.003025
2835.61	0.002745
2845.26	0.002715
2854.9	0.003575
2864.55	0.005255
2874.19	0.007125
2883.84	0.008105
2893.48	0.007735
2903.12	0.005955
2912.77	0.005955
2922.41	0.008595
2932.06	0.012555
2941.7	0.013905
2951.35	0.013115
2960.99	0.010685
2970.64	0.006035
2980.28	0.003075
2989.93	0.002015
2999.57	0.001875
3009.22	0.002015
3018.86	0.003045
3028.51	0.004185
3038.15	0.004645
3047.8	0.005255
3057.44	0.006625
3067.09	0.008275
3076.73	0.008965
3086.38	0.007675
3096.02	0.004985
3105.67	0.003025
3115.31	0.001295
3124.95	0.0007386
3134.6	0.0005075
3144.24	0.0004191
3153.89	0.00037688
3163.53	0.0003972
3173.18	0.00032812
3182.82	0.0004395
3192.47	0.0004857
3202.11	0.0002738
3211.76	0.000287381
3221.4	0.0002088
3231.05	0.000149
3240.69	8.2e-05
3250.34	0.000167
3259.98	0.0002504
3269.63	0.0002698
3279.27	0.000286534
3288.92	0.000165
3298.56	0.0002443
3308.21	0.000151
3317.85	0.0004221
3327.49	0.0001994
3337.14	0
3346.78	0.0002725
3356.43	0.0002588
3366.07	0.000153
3375.72	0.00030644
3385.36	0.00037538
3395.01	0.00032147
3404.65	0.0002263
3414.3	0.0004592
3423.94	0.00036856
3433.59	0.00037231
3443.23	0.0002439
3452.88	0.0003824
3462.52	0.000215
3472.17	0.0002106
3481.81	0.0004942
3491.46	0.00033478
3501.1	0.0002662
3510.75	0.0004068
3520.39	0.00032842
3530.04	0.00037356
3539.68	0.00034019
3549.32	0.0002379
3558.97	0.0004642
3568.61	0.0004067
3578.26	0.00034694
3587.9	0.000292035
3597.55	0.0005219
3607.19	0.0006124
3616.84	0.0005287
3626.48	0.0004747
3636.13	0.0003932
3645.77	0.0003467
3655.42	0.00035853
3665.06	0.0003872
3674.71	0.0002651
3684.35	0.0005553
3694	0.0004114
3703.64	0.0005048
3713.29	0.000499
3722.93	0.0005241
3732.58	0.0005887
3742.22	0.0006185
3751.86	0.0004492
3761.51	0.0005331
3771.15	0.0005905
3780.8	0.0006572
3790.44	0.00062
3800.09	0.000576
3809.73	0.0005878
3819.38	0.0007798
3829.02	0.0005362
3838.67	0.0005446
3848.31	0.0007226
3857.96	0.0007052
3867.6	0.0006126
3877.25	0.0009508
3886.89	0.0009221
3896.54	0.0008729
3906.18	0.0007617
3915.83	0.0008444
3925.47	0.0011577
3935.12	0.00106
3944.76	0.001365
3954.41	0.0012801
3964.05	0.001535
3973.69	0.001695
3983.34	0.001705
3992.98	0.001735
