Infrared Spectrum: 4-Methoxybenzyl isothiocyanate
Formula: C 9 H 9 N O S
CAS: 3694-57-3
State: gas
Origin: EPA-IR VAPOR PHASE LIBRARY
1/CM	ABSORBANCE
549.8	0.013194
559.445	0.013234
569.09	0.013184
578.734	0.011954
588.379	0.009684
598.024	0.007384
607.669	0.005284
617.313	0.003734
626.958	0.003134
636.603	0.003154
646.248	0.003374
655.893	0.003794
665.537	0.005434
675.182	0.009174
684.827	0.012674
694.472	0.011594
704.116	0.008914
713.761	0.007754
723.406	0.008584
733.051	0.007794
742.695	0.007604
752.34	0.008204
761.985	0.007114
771.63	0.004674
781.275	0.004104
790.919	0.005614
800.564	0.009544
810.209	0.015124
819.854	0.020224
829.498	0.021804
839.143	0.020904
848.788	0.011434
858.433	0.004854
868.078	0.002994
877.722	0.002364
887.367	0.002104
897.012	0.002464
906.657	0.002184
916.301	0.002384
925.946	0.002314
935.591	0.002554
945.236	0.002244
954.88	0.002214
964.525	0.002884
974.17	0.003424
983.815	0.003924
993.46	0.004794
1003.1	0.006234
1012.75	0.010594
1022.39	0.017264
1032.04	0.028594
1041.68	0.031864
1051.33	0.021204
1060.97	0.010274
1070.62	0.005884
1080.26	0.004064
1089.91	0.004434
1099.55	0.004794
1109.2	0.006504
1118.84	0.006174
1128.49	0.005044
1138.13	0.004694
1147.78	0.006174
1157.42	0.010034
1167.07	0.028604
1176.71	0.053094
1186.36	0.022684
1196	0.012524
1205.64	0.012364
1215.29	0.016464
1224.93	0.025754
1234.58	0.051934
1244.22	0.110794
1253.87	0.140104
1263.51	0.079364
1273.16	0.044364
1282.8	0.039754
1292.45	0.044984
1302.09	0.039794
1311.74	0.028574
1321.38	0.029344
1331.03	0.039474
1340.67	0.053744
1350.32	0.041724
1359.96	0.019904
1369.61	0.010664
1379.25	0.007144
1388.9	0.005904
1398.54	0.005884
1408.18	0.006764
1417.83	0.008104
1427.47	0.009864
1437.12	0.013924
1446.76	0.024484
1456.41	0.031894
1466.05	0.021124
1475.7	0.015554
1485.34	0.012284
1494.99	0.020434
1504.63	0.059164
1514.28	0.106564
1523.92	0.046144
1533.57	0.012994
1543.21	0.006634
1552.86	0.005454
1562.5	0.005884
1572.15	0.008134
1581.79	0.013294
1591.44	0.018714
1601.08	0.026454
1610.73	0.035144
1620.37	0.024954
1630.01	0.011294
1639.66	0.006094
1649.3	0.004284
1658.95	0.003144
1668.59	0.002604
1678.24	0.002064
1687.88	0.001824
1697.53	0.001824
1707.17	0.001764
1716.82	0.001734
1726.46	0.001724
1736.11	0.001884
1745.75	0.002364
1755.4	0.002614
1765.04	0.002104
1774.69	0.001804
1784.33	0.001634
1793.98	0.001704
1803.62	0.001794
1813.27	0.001904
1822.91	0.001984
1832.55	0.002274
1842.2	0.002584
1851.84	0.003154
1861.49	0.003864
1871.13	0.004594
1880.78	0.005204
1890.42	0.005744
1900.07	0.006564
1909.71	0.007444
1919.36	0.008604
1929	0.010294
1938.65	0.012464
1948.29	0.015894
1957.94	0.020884
1967.58	0.028424
1977.23	0.039404
1986.87	0.055064
1996.52	0.076484
2006.16	0.104494
2015.81	0.138474
2025.45	0.175654
2035.1	0.211494
2044.74	0.239614
2054.38	0.251504
2064.03	0.241524
2073.67	0.212334
2083.32	0.164884
2092.96	0.115084
2102.61	0.078774
2112.25	0.055044
2121.9	0.041554
2131.54	0.035154
2141.19	0.033634
2150.83	0.035134
2160.48	0.038814
2170.12	0.044384
2179.77	0.048094
2189.41	0.043194
2199.06	0.033784
2208.7	0.025154
2218.35	0.018714
2227.99	0.013834
2237.64	0.010424
2247.28	0.008084
2256.92	0.006734
2266.57	0.005884
2276.21	0.005244
2285.86	0.005114
2295.5	0.004594
2305.15	0.004144
2314.79	0.003504
2324.44	0.002974
2334.08	0.002584
2343.73	0.002454
2353.37	0.002124
2363.02	0.001934
2372.66	0.001764
2382.31	0.001764
2391.95	0.001744
2401.6	0.001844
2411.24	0.001804
2420.89	0.001934
2430.53	0.001984
2440.18	0.001834
2449.82	0.001714
2459.47	0.001794
2469.11	0.001924
2478.75	0.001974
2488.4	0.002114
2498.04	0.002294
2507.69	0.002454
2517.33	0.002544
2526.98	0.002514
2536.62	0.002714
2546.27	0.002824
2555.91	0.002694
2565.56	0.002344
2575.2	0.002334
2584.85	0.002334
2594.49	0.002294
2604.14	0.002314
2613.78	0.002244
2623.43	0.002124
2633.07	0.002044
2642.72	0.001814
2652.36	0.001654
2662.01	0.001584
2671.65	0.001634
2681.29	0.001824
2690.94	0.002014
2700.58	0.002144
2710.23	0.002454
2719.87	0.002664
2729.52	0.003014
2739.16	0.003164
2748.81	0.003334
2758.45	0.003564
2768.1	0.003784
2777.74	0.004084
2787.39	0.004264
2797.03	0.004534
2806.68	0.004804
2816.32	0.005254
2825.97	0.006444
2835.61	0.010144
2845.26	0.015714
2854.9	0.012534
2864.55	0.009634
2874.19	0.010454
2883.84	0.011234
2893.48	0.011394
2903.12	0.011684
2912.77	0.014434
2922.41	0.017154
2932.06	0.022154
2941.7	0.028404
2951.35	0.028604
2960.99	0.023094
2970.64	0.015534
2980.28	0.010994
2989.93	0.010604
2999.57	0.014174
3009.22	0.020894
3018.86	0.015134
3028.51	0.011134
3038.15	0.012554
3047.8	0.009454
3057.44	0.006304
3067.09	0.005894
3076.73	0.006534
3086.38	0.005294
3096.02	0.004404
3105.67	0.003834
3115.31	0.003274
3124.95	0.002514
3134.6	0.002074
3144.24	0.001524
3153.89	0.0011352
3163.53	0.0011105
3173.18	0.0008694
3182.82	0.0008344
3192.47	0.0006553
3202.11	0.0007429
3211.76	0.0006959
3221.4	0.00057501
3231.05	0.00050729
3240.69	0.00054376
3250.34	0.0006873
3259.98	0.0004474
3269.63	0.00058576
3279.27	0.000439
3288.92	0.000292
3298.56	0.000275
3308.21	0.0004613
3317.85	0.0004445
3327.49	0.000126
3337.14	0.000278
3346.78	0.000391
3356.43	0.000282
3366.07	0.000195
3375.72	0.000209
3385.36	0.000372
3395.01	0.000353
3404.65	0.000332
3414.3	0.000167
3423.94	0.0004451
3433.59	0.000304
3443.23	0.000267
3452.88	0.000261
3462.52	0.000152
3472.17	0.000271
3481.81	0.000296
3491.46	0.000219
3501.1	0.00026
3510.75	0.00016
3520.39	0.0004018
3530.04	0.0004835
3539.68	0.000377
3549.32	0.00057708
3558.97	0.0004432
3568.61	6.4e-05
3578.26	0.00039
3587.9	0.0004545
3597.55	0.000264
3607.19	0.000369
3616.84	0.000316
3626.48	0.000284
3636.13	0.000343
3645.77	0.0006212
3655.42	0.000343
3665.06	0.000253
3674.71	0.00058541
3684.35	0.00051687
3694	0.00057931
3703.64	0.00052667
3713.29	0.000286
3722.93	0.000394
3732.58	0.000358
3742.22	0.0004442
3751.86	0.0004079
3761.51	0.0004053
3771.15	0.000362
3780.8	0.00055142
3790.44	0.000306
3800.09	0.00056457
3809.73	0.00052665
3819.38	0.00058713
3829.02	0.0004383
3838.67	0.000376
3848.31	0.0004242
3857.96	0.0003941
3867.6	0.0006969
3877.25	0.0006139
3886.89	0.0008405
3896.54	0.0004732
3906.18	0.0008777
3915.83	0.0007904
3925.47	0.0006696
3935.12	0.0011463
3944.76	0.0009762
3954.41	0.0008296
3964.05	0.0010965
3973.69	0.0011855
3983.34	0.0011917
3992.98	0.0012835
