Infrared Spectrum: 4-Chlorobenzyl isothiocyanate
Formula: C8 H6 Cl N S
CAS: 3694-45-9
State: gas
Origin: EPA-IR VAPOR PHASE LIBRARY
1/CM	ABSORBANCE
549.8	0.013218
559.445	0.012618
569.09	0.010988
578.734	0.008298
588.379	0.006078
598.024	0.003958
607.669	0.002748
617.313	0.002368
626.958	0.003458
636.603	0.004278
646.248	0.006088
655.893	0.007478
665.537	0.005848
675.182	0.006428
684.827	0.007928
694.472	0.009548
704.116	0.009448
713.761	0.010888
723.406	0.015328
733.051	0.015978
742.695	0.013268
752.34	0.008998
761.985	0.007138
771.63	0.007848
781.275	0.011488
790.919	0.021158
800.564	0.029948
810.209	0.032198
819.854	0.026398
829.498	0.020908
839.143	0.014148
848.788	0.006378
858.433	0.003528
868.078	0.002438
877.722	0.001768
887.367	0.001938
897.012	0.002208
906.657	0.002448
916.301	0.002338
925.946	0.002488
935.591	0.002458
945.236	0.002618
954.88	0.002218
964.525	0.002088
974.17	0.002158
983.815	0.002338
993.46	0.002708
1003.1	0.005458
1012.75	0.029478
1022.39	0.021148
1032.04	0.003798
1041.68	0.003098
1051.33	0.003688
1060.97	0.006178
1070.62	0.010538
1080.26	0.017518
1089.91	0.037148
1099.55	0.059618
1109.2	0.025548
1118.84	0.009638
1128.49	0.005008
1138.13	0.004138
1147.78	0.003318
1157.42	0.003738
1167.07	0.004488
1176.71	0.005068
1186.36	0.005368
1196	0.005108
1205.64	0.004768
1215.29	0.004828
1224.93	0.005718
1234.58	0.004718
1244.22	0.004218
1253.87	0.005268
1263.51	0.006438
1273.16	0.007528
1282.8	0.009548
1292.45	0.013768
1302.09	0.017968
1311.74	0.021848
1321.38	0.029768
1331.03	0.046898
1340.67	0.069638
1350.32	0.044508
1359.96	0.019688
1369.61	0.012988
1379.25	0.010568
1388.9	0.011408
1398.54	0.013958
1408.18	0.014398
1417.83	0.012028
1427.47	0.009458
1437.12	0.010178
1446.76	0.020298
1456.41	0.028678
1466.05	0.009888
1475.7	0.011038
1485.34	0.031778
1494.99	0.055698
1504.63	0.019738
1514.28	0.006718
1523.92	0.004068
1533.57	0.002908
1543.21	0.002388
1552.86	0.002398
1562.5	0.003178
1572.15	0.004318
1581.79	0.006318
1591.44	0.009328
1601.08	0.009338
1610.73	0.005478
1620.37	0.003658
1630.01	0.003158
1639.66	0.002928
1649.3	0.002588
1658.95	0.002078
1668.59	0.001528
1678.24	0.001278
1687.88	0.0012203
1697.53	0.001148
1707.17	0.0012396
1716.82	0.001178
1726.46	0.001428
1736.11	0.001608
1745.75	0.001918
1755.4	0.002228
1765.04	0.002768
1774.69	0.003498
1784.33	0.002178
1793.98	0.001588
1803.62	0.001548
1813.27	0.001588
1822.91	0.001718
1832.55	0.001808
1842.2	0.002148
1851.84	0.002658
1861.49	0.003558
1871.13	0.004988
1880.78	0.006998
1890.42	0.008768
1900.07	0.009538
1909.71	0.010308
1919.36	0.011908
1929	0.014398
1938.65	0.018058
1948.29	0.023268
1957.94	0.031118
1967.58	0.042638
1977.23	0.059728
1986.87	0.084278
1996.52	0.118058
2006.16	0.161758
2015.81	0.213208
2025.45	0.266578
2035.1	0.314078
2044.74	0.348028
2054.38	0.356968
2064.03	0.327148
2073.67	0.262068
2083.32	0.186648
2092.96	0.125188
2102.61	0.082928
2112.25	0.057958
2121.9	0.045168
2131.54	0.039488
2141.19	0.037578
2150.83	0.039378
2160.48	0.046018
2170.12	0.054508
2179.77	0.055778
2189.41	0.049498
2199.06	0.041088
2208.7	0.032848
2218.35	0.025538
2227.99	0.019088
2237.64	0.013898
2247.28	0.010438
2256.92	0.008098
2266.57	0.006878
2276.21	0.006068
2285.86	0.005898
2295.5	0.005748
2305.15	0.005278
2314.79	0.004398
2324.44	0.003548
2334.08	0.002828
2343.73	0.002408
2353.37	0.002118
2363.02	0.001908
2372.66	0.001708
2382.31	0.001758
2391.95	0.001628
2401.6	0.001618
2411.24	0.001408
2420.89	0.001308
2430.53	0.0012578
2440.18	0.0011705
2449.82	0.0012073
2459.47	0.0012337
2469.11	0.001368
2478.75	0.001468
2488.4	0.001638
2498.04	0.001838
2507.69	0.001868
2517.33	0.001798
2526.98	0.001738
2536.62	0.001868
2546.27	0.001928
2555.91	0.002128
2565.56	0.002338
2575.2	0.002768
2584.85	0.003008
2594.49	0.002828
2604.14	0.002318
2613.78	0.001618
2623.43	0.001278
2633.07	0.0011688
2642.72	0.0011229
2652.36	0.0011188
2662.01	0.0012215
2671.65	0.001328
2681.29	0.001598
2690.94	0.001878
2700.58	0.002198
2710.23	0.002608
2719.87	0.003018
2729.52	0.003268
2739.16	0.003638
2748.81	0.003758
2758.45	0.003718
2768.1	0.003838
2777.74	0.004048
2787.39	0.004328
2797.03	0.004098
2806.68	0.003478
2816.32	0.002988
2825.97	0.002628
2835.61	0.002528
2845.26	0.002578
2854.9	0.003368
2864.55	0.004958
2874.19	0.007068
2883.84	0.007888
2893.48	0.007198
2903.12	0.005268
2912.77	0.004858
2922.41	0.007268
2932.06	0.011448
2941.7	0.013178
2951.35	0.012148
2960.99	0.008858
2970.64	0.005268
2980.28	0.003288
2989.93	0.002708
2999.57	0.002318
3009.22	0.002308
3018.86	0.003158
3028.51	0.005468
3038.15	0.007318
3047.8	0.005738
3057.44	0.004508
3067.09	0.003418
3076.73	0.003068
3086.38	0.003718
3096.02	0.004148
3105.67	0.003368
3115.31	0.001818
3124.95	0.000818
3134.6	0.0006024
3144.24	0.0004704
3153.89	0.00035547
3163.53	0.0002491
3173.18	0.0002217
3182.82	0.0003925
3192.47	0.00028971
3202.11	0.00028655
3211.76	0.0002276
3221.4	0.0002092
3231.05	0.000132
3240.69	0.000151
3250.34	4.9e-05
3259.98	7.7e-05
3269.63	0.0001844
3279.27	0.0002036
3288.92	2.3e-05
3298.56	0
3308.21	3.9e-05
3317.85	0.00034125
3327.49	0.0002143
3337.14	0.0002155
3346.78	0.00032158
3356.43	0.0002477
3366.07	0.0002524
3375.72	0.000119
3385.36	0.0001945
3395.01	0.0002506
3404.65	0.0002843
3414.3	0.000147
3423.94	0.0001935
3433.59	0.0003802
3443.23	0.00028986
3452.88	0.00034879
3462.52	0.000113
3472.17	0.0002148
3481.81	0.00028784
3491.46	9.2e-05
3501.1	0.0003867
3510.75	0.0001723
3520.39	0.0004582
3530.04	0.00030894
3539.68	0.00029649
3549.32	0.0002085
3558.97	0.0003338
3568.61	0.0002328
3578.26	0.000269723
3587.9	0.00030021
3597.55	0.000267587
3607.19	0.0005112
3616.84	0.00029632
3626.48	0.0003875
3636.13	0.000164
3645.77	0.0003885
3655.42	0.0004133
3665.06	0.0003881
3674.71	0.0003849
3684.35	0.00034592
3694	0.0002653
3703.64	0.0002369
3713.29	0.0004477
3722.93	0.0005068
3732.58	0.0004591
3742.22	0.0004463
3751.86	0.0004237
3761.51	0.00032476
3771.15	0.0003753
3780.8	0.0004704
3790.44	0.0004145
3800.09	0.00034982
3809.73	0.0004801
3819.38	0.00035888
3829.02	0.0004624
3838.67	0.0003958
3848.31	0.0005785
3857.96	0.0007123
3867.6	0.0006016
3877.25	0.0006923
3886.89	0.000887
3896.54	0.0009642
3906.18	0.0007624
3915.83	0.0008883
3925.47	0.0009945
3935.12	0.0008882
3944.76	0.0009426
3954.41	0.0010758
3964.05	0.0010732
3973.69	0.0012132
3983.34	0.001498
3992.98	0.001468
