Infrared Spectrum: 4-Methylbenzyl isothiocyanate
Formula: C 9 H 9 N S
CAS: 3694-46-0
State: gas
Origin: EPA-IR VAPOR PHASE LIBRARY
1/CM	ABSORBANCE
549.8	0.011591
559.445	0.014611
569.09	0.016101
578.734	0.014681
588.379	0.011511
598.024	0.007651
607.669	0.005131
617.313	0.003511
626.958	0.002971
636.603	0.002941
646.248	0.003441
655.893	0.004221
665.537	0.005691
675.182	0.008791
684.827	0.011921
694.472	0.012421
704.116	0.013761
713.761	0.021031
723.406	0.026961
733.051	0.025091
742.695	0.020701
752.34	0.017281
761.985	0.012501
771.63	0.010331
781.275	0.012221
790.919	0.016301
800.564	0.018121
810.209	0.017121
819.854	0.012171
829.498	0.010301
839.143	0.007921
848.788	0.003481
858.433	0.002121
868.078	0.001631
877.722	0.001691
887.367	0.001681
897.012	0.001901
906.657	0.002581
916.301	0.002961
925.946	0.003351
935.591	0.003031
945.236	0.002711
954.88	0.002341
964.525	0.002381
974.17	0.002351
983.815	0.002271
993.46	0.002511
1003.1	0.002581
1012.75	0.005581
1022.39	0.008591
1032.04	0.004131
1041.68	0.003561
1051.33	0.003921
1060.97	0.003671
1070.62	0.003281
1080.26	0.002671
1089.91	0.002621
1099.55	0.003651
1109.2	0.004921
1118.84	0.005521
1128.49	0.005051
1138.13	0.003921
1147.78	0.003781
1157.42	0.004041
1167.07	0.004501
1176.71	0.006721
1186.36	0.010221
1196	0.007411
1205.64	0.007101
1215.29	0.006831
1224.93	0.006001
1234.58	0.007221
1244.22	0.005881
1253.87	0.005651
1263.51	0.006461
1273.16	0.008161
1282.8	0.010811
1292.45	0.015681
1302.09	0.023361
1311.74	0.029881
1321.38	0.039151
1331.03	0.055371
1340.67	0.075121
1350.32	0.055831
1359.96	0.023381
1369.61	0.013331
1379.25	0.010151
1388.9	0.009601
1398.54	0.009971
1408.18	0.011301
1417.83	0.012501
1427.47	0.013441
1437.12	0.014101
1446.76	0.023641
1456.41	0.030941
1466.05	0.011191
1475.7	0.006421
1485.34	0.006431
1494.99	0.007991
1504.63	0.013671
1514.28	0.025201
1523.92	0.017391
1533.57	0.006361
1543.21	0.004471
1552.86	0.003771
1562.5	0.003491
1572.15	0.003501
1581.79	0.003281
1591.44	0.003271
1601.08	0.003631
1610.73	0.004511
1620.37	0.004731
1630.01	0.003831
1639.66	0.003201
1649.3	0.002611
1658.95	0.002141
1668.59	0.001851
1678.24	0.001451
1687.88	0.0013604
1697.53	0.0012618
1707.17	0.0012942
1716.82	0.0012952
1726.46	0.001411
1736.11	0.001531
1745.75	0.001591
1755.4	0.001921
1765.04	0.002121
1774.69	0.002691
1784.33	0.003541
1793.98	0.002951
1803.62	0.001891
1813.27	0.001651
1822.91	0.001731
1832.55	0.001951
1842.2	0.002361
1851.84	0.002961
1861.49	0.003901
1871.13	0.005421
1880.78	0.007341
1890.42	0.008981
1900.07	0.009811
1909.71	0.010591
1919.36	0.012191
1929	0.014691
1938.65	0.018281
1948.29	0.023301
1957.94	0.030591
1967.58	0.041511
1977.23	0.057851
1986.87	0.081071
1996.52	0.113461
2006.16	0.156401
2015.81	0.209181
2025.45	0.267841
2035.1	0.325111
2044.74	0.370711
2054.38	0.391931
2064.03	0.380331
2073.67	0.338191
2083.32	0.268741
2092.96	0.188131
2102.61	0.127411
2112.25	0.087981
2121.9	0.064351
2131.54	0.052781
2141.19	0.048951
2150.83	0.049871
2160.48	0.054781
2170.12	0.064281
2179.77	0.073811
2189.41	0.070321
2199.06	0.056211
2208.7	0.041951
2218.35	0.030341
2227.99	0.022051
2237.64	0.015811
2247.28	0.011591
2256.92	0.009191
2266.57	0.007791
2276.21	0.007011
2285.86	0.006621
2295.5	0.006251
2305.15	0.005681
2314.79	0.004741
2324.44	0.003921
2334.08	0.003201
2343.73	0.002721
2353.37	0.002371
2363.02	0.002201
2372.66	0.002081
2382.31	0.002041
2391.95	0.002101
2401.6	0.002001
2411.24	0.001851
2420.89	0.001711
2430.53	0.001601
2440.18	0.001501
2449.82	0.001551
2459.47	0.001601
2469.11	0.001641
2478.75	0.001671
2488.4	0.001851
2498.04	0.001841
2507.69	0.001851
2517.33	0.001831
2526.98	0.001831
2536.62	0.001801
2546.27	0.001801
2555.91	0.001861
2565.56	0.001941
2575.2	0.002121
2584.85	0.002381
2594.49	0.002531
2604.14	0.002761
2613.78	0.002791
2623.43	0.002571
2633.07	0.002121
2642.72	0.001651
2652.36	0.001571
2662.01	0.0012764
2671.65	0.001421
2681.29	0.001731
2690.94	0.001921
2700.58	0.002421
2710.23	0.002951
2719.87	0.003471
2729.52	0.003841
2739.16	0.004591
2748.81	0.004891
2758.45	0.004481
2768.1	0.004631
2777.74	0.004821
2787.39	0.005011
2797.03	0.005051
2806.68	0.004771
2816.32	0.004381
2825.97	0.004271
2835.61	0.004681
2845.26	0.005331
2854.9	0.007681
2864.55	0.012581
2874.19	0.018171
2883.84	0.019561
2893.48	0.017431
2903.12	0.014651
2912.77	0.015581
2922.41	0.023441
2932.06	0.036061
2941.7	0.035051
2951.35	0.025581
2960.99	0.017841
2970.64	0.012051
2980.28	0.010321
2989.93	0.011971
2999.57	0.014941
3009.22	0.017691
3018.86	0.022061
3028.51	0.029301
3038.15	0.025671
3047.8	0.019531
3057.44	0.017651
3067.09	0.014111
3076.73	0.009641
3086.38	0.007081
3096.02	0.005771
3105.67	0.004511
3115.31	0.003561
3124.95	0.002701
3134.6	0.002161
3144.24	0.001681
3153.89	0.0008485
3163.53	0.0006023
3173.18	0.000379093
3182.82	0.000218
3192.47	0.000242
3202.11	0.0002855
3211.76	0.00017
3221.4	0.000111
3231.05	0.000377473
3240.69	0.000145
3250.34	0.000167
3259.98	5.7e-05
3269.63	0.000209
3279.27	0.000232
3288.92	0.000147
3298.56	0.00012
3308.21	6e-05
3317.85	6.5e-05
3327.49	0.000143
3337.14	0.000237
3346.78	1e-05
3356.43	0.000266
3366.07	9.3e-05
3375.72	0.000207
3385.36	5.2e-05
3395.01	0.0002963
3404.65	0.000227
3414.3	9.3e-05
3423.94	0.0002893
3433.59	0.000348
3443.23	0.000122
3452.88	0.000156
3462.52	0.000177
3472.17	6.1e-05
3481.81	0.0002919
3491.46	0.000243
3501.1	0.0002776
3510.75	0.00022
3520.39	0.00038686
3530.04	0.00036613
3539.68	0.000165
3549.32	0.000201
3558.97	0.0003065
3568.61	0.000227
3578.26	0.000212
3587.9	0.0003635
3597.55	0.000198
3607.19	0.000203
3616.84	0.00038198
3626.48	0.000228
3636.13	0.000129
3645.77	0.00042851
3655.42	0.0005935
3665.06	0.0003451
3674.71	0.0004945
3684.35	0.0004969
3694	0.00038342
3703.64	0.00039317
3713.29	0.0005024
3722.93	0.000177
3732.58	0.0003463
3742.22	0.0003016
3751.86	0.0006047
3761.51	0.0004395
3771.15	0.00043473
3780.8	0.000615
3790.44	0.0005375
3800.09	0.0005961
3809.73	0.000377296
3819.38	0.000374856
3829.02	0.0004719
3838.67	0.0005836
3848.31	0.0006785
3857.96	0.0005875
3867.6	0.0007641
3877.25	0.0006058
3886.89	0.0007865
3896.54	0.0008609
3906.18	0.0008335
3915.83	0.0009736
3925.47	0.0008903
3935.12	0.0010118
3944.76	0.0010572
3954.41	0.0012518
3964.05	0.0012559
3973.69	0.001336
3983.34	0.001451
3992.98	0.001681
