Infrared Spectrum: p-Chloro-.alpha.-phenylcinnamonitrile
Formula: C 15 H 10 Cl N
CAS: 3695-92-9
State: gas
Origin: EPA-IR VAPOR PHASE LIBRARY
1/CM	ABSORBANCE
549.8	0.001804
559.445	0.001394
569.09	0.0012408
578.734	0.0010201
588.379	0.0012494
598.024	0.001384
607.669	0.001354
617.313	0.001794
626.958	0.002454
636.603	0.002394
646.248	0.002404
655.893	0.003334
665.537	0.005624
675.182	0.010614
684.827	0.019114
694.472	0.022054
704.116	0.016994
713.761	0.009514
723.406	0.006934
733.051	0.006814
742.695	0.011994
752.34	0.021654
761.985	0.021844
771.63	0.011794
781.275	0.007404
790.919	0.006064
800.564	0.006974
810.209	0.011844
819.854	0.020264
829.498	0.025224
839.143	0.013404
848.788	0.007274
858.433	0.004654
868.078	0.004574
877.722	0.006394
887.367	0.010294
897.012	0.011024
906.657	0.005694
916.301	0.003194
925.946	0.002804
935.591	0.002344
945.236	0.002324
954.88	0.002024
964.525	0.001914
974.17	0.002284
983.815	0.002894
993.46	0.004134
1003.1	0.009404
1012.75	0.031334
1022.39	0.006754
1032.04	0.004714
1041.68	0.002594
1051.33	0.003174
1060.97	0.003494
1070.62	0.004944
1080.26	0.009924
1089.91	0.047134
1099.55	0.049954
1109.2	0.015014
1118.84	0.010904
1128.49	0.004844
1138.13	0.003174
1147.78	0.001804
1157.42	0.002304
1167.07	0.001924
1176.71	0.002294
1186.36	0.004114
1196	0.002364
1205.64	0.002564
1215.29	0.003544
1224.93	0.003944
1234.58	0.002824
1244.22	0.003274
1253.87	0.005204
1263.51	0.003414
1273.16	0.002734
1282.8	0.001824
1292.45	0.001924
1302.09	0.002024
1311.74	0.002024
1321.38	0.002264
1331.03	0.003154
1340.67	0.003414
1350.32	0.004494
1359.96	0.003434
1369.61	0.002514
1379.25	0.002504
1388.9	0.002744
1398.54	0.004154
1408.18	0.005894
1417.83	0.003574
1427.47	0.003364
1437.12	0.005254
1446.76	0.009294
1456.41	0.008164
1466.05	0.005714
1475.7	0.008274
1485.34	0.029174
1494.99	0.052144
1504.63	0.020624
1514.28	0.007314
1523.92	0.003674
1533.57	0.002684
1543.21	0.002054
1552.86	0.002294
1562.5	0.002964
1572.15	0.005104
1581.79	0.011924
1591.44	0.024824
1601.08	0.011384
1610.73	0.004834
1620.37	0.002914
1630.01	0.002744
1639.66	0.002784
1649.3	0.002304
1658.95	0.001964
1668.59	0.001874
1678.24	0.001384
1687.88	0.0009395
1697.53	0.0009145
1707.17	0.0010368
1716.82	0.001374
1726.46	0.001634
1736.11	0.001964
1745.75	0.001944
1755.4	0.001904
1765.04	0.002334
1774.69	0.003154
1784.33	0.002964
1793.98	0.003414
1803.62	0.002204
1813.27	0.001694
1822.91	0.0012362
1832.55	0.0008707
1842.2	0.0009039
1851.84	0.0009946
1861.49	0.0012167
1871.13	0.001814
1880.78	0.002354
1890.42	0.003114
1900.07	0.002814
1909.71	0.001864
1919.36	0.001374
1929	0.001454
1938.65	0.001714
1948.29	0.001864
1957.94	0.002184
1967.58	0.001534
1977.23	0.0006783
1986.87	0.0006026
1996.52	0.0005333
2006.16	0.0004955
2015.81	0.0004984
2025.45	0.0006158
2035.1	0.0005358
2044.74	0.0004483
2054.38	0.0003767
2064.03	0.0004538
2073.67	0.000431
2083.32	0.0004174
2092.96	0.00033842
2102.61	0.0003654
2112.25	0.0003688
2121.9	0.00029894
2131.54	0.00030585
2141.19	0.0004253
2150.83	0.00033347
2160.48	0.0004504
2170.12	0.0005026
2179.77	0.000526
2189.41	0.0006386
2199.06	0.0008516
2208.7	0.002374
2218.35	0.005364
2227.99	0.001934
2237.64	0.0008257
2247.28	0.0006246
2256.92	0.0006077
2266.57	0.0005561
2276.21	0.0006354
2285.86	0.0006616
2295.5	0.0006601
2305.15	0.0005986
2314.79	0.000762
2324.44	0.0007441
2334.08	0.0005503
2343.73	0.0006836
2353.37	0.0006209
2363.02	0.0005537
2372.66	0.0004119
2382.31	0.000452
2391.95	0.0004401
2401.6	0.0005047
2411.24	0.0005399
2420.89	0.0005004
2430.53	0.0005244
2440.18	0.0005603
2449.82	0.0005654
2459.47	0.0004397
2469.11	0.0003241
2478.75	0.0004696
2488.4	0.0004596
2498.04	0.0004738
2507.69	0.0004926
2517.33	0.0006563
2526.98	0.0007381
2536.62	0.0006873
2546.27	0.000763
2555.91	0.0006541
2565.56	0.0006311
2575.2	0.0005608
2584.85	0.0007987
2594.49	0.0008873
2604.14	0.0006982
2613.78	0.0004321
2623.43	0.0003801
2633.07	0.0003861
2642.72	0.0004011
2652.36	0.0002811
2662.01	0.000432
2671.65	0.0004212
2681.29	0.00033013
2690.94	0.0003982
2700.58	0.0004433
2710.23	0.00032428
2719.87	0.00028822
2729.52	0.00030556
2739.16	0.0002208
2748.81	0.00031363
2758.45	0.0004822
2768.1	0.0004525
2777.74	0.0004912
2787.39	0.0004276
2797.03	0.00031927
2806.68	0.00033114
2816.32	0.0005091
2825.97	0.0005221
2835.61	0.0007964
2845.26	0.0007819
2854.9	0.0006633
2864.55	0.0005108
2874.19	0.0005502
2883.84	0.0006117
2893.48	0.0006121
2903.12	0.0006384
2912.77	0.0006085
2922.41	0.0007186
2932.06	0.0009873
2941.7	0.0007712
2951.35	0.0008103
2960.99	0.0007304
2970.64	0.0008761
2980.28	0.0011017
2989.93	0.0010721
2999.57	0.001654
3009.22	0.002584
3018.86	0.005134
3028.51	0.011774
3038.15	0.016314
3047.8	0.008754
3057.44	0.008334
3067.09	0.016094
3076.73	0.020214
3086.38	0.012054
3096.02	0.010034
3105.67	0.006644
3115.31	0.003354
3124.95	0.001654
3134.6	0.0011991
3144.24	0.0010544
3153.89	0.0008362
3163.53	0.0006757
3173.18	0.0006183
3182.82	0.000569
3192.47	0.0006254
3202.11	0.0004336
3211.76	0.00027106
3221.4	0.0003769
3231.05	0.0005229
3240.69	0.00031703
3250.34	0.00024683
3259.98	7.7e-05
3269.63	0.0003674
3279.27	0.0002235
3288.92	0.0001741
3298.56	0.0003088
3308.21	6.8e-05
3317.85	0.000179
3327.49	0.00024953
3337.14	0.000203
3346.78	0.0003592
3356.43	0.00033988
3366.07	0.00027728
3375.72	5.6e-05
3385.36	8.4e-05
3395.01	8.3e-05
3404.65	0.000145
3414.3	0.0003819
3423.94	0.00026945
3433.59	0.00028699
3443.23	0.0002063
3452.88	0.00028869
3462.52	0.000121
3472.17	0.0004121
3481.81	0.00030913
3491.46	0.0003648
3501.1	3.4e-05
3510.75	0.0002009
3520.39	0.00027014
3530.04	0.00034987
3539.68	0.0004827
3549.32	7.7e-05
3558.97	0.0004258
3568.61	9.9e-05
3578.26	0.000261555
3587.9	0.0005203
3597.55	0.000118
3607.19	0.00026767
3616.84	0.0003562
3626.48	0.0003634
3636.13	0.0003589
3645.77	0.0004193
3655.42	0.0004757
3665.06	0.00034716
3674.71	0.0003563
3684.35	0.00031854
3694	0.00028795
3703.64	0.0005462
3713.29	0.0006323
3722.93	0.0004177
3732.58	0.0004519
3742.22	0.0001564
3751.86	0.0001948
3761.51	0.0003832
3771.15	0.000256819
3780.8	0.000262658
3790.44	0.0005121
3800.09	0.0002025
3809.73	0.0004566
3819.38	0.0004172
3829.02	0.00031882
3838.67	0.0003706
3848.31	0.0004864
3857.96	0.0002712
3867.6	0.0005221
3877.25	4.5e-05
3886.89	0.000258798
3896.54	0.000255949
3906.18	0.00032515
3915.83	0.0004855
3925.47	0.0004952
3935.12	0.00029746
3944.76	0.00027171
3954.41	0.00024816
3964.05	0.0004325
3973.69	0.00034836
3983.34	0.000224
3992.98	0.00024992
