Infrared Spectrum: Triphenylmethylmercaptan
Formula: C 19 H 16 S
CAS: 3695-77-0
State: gas
Instrument: HP-GC/MS/IRD
Origin: NIST Mass Spectrometry Data Center
1/CM	ABSORBANCE
550	0.000424
562	0.0003763
574	0.0004717
586	0.0009752
598	0.0095029
610	0.0153859
622	0.0050297
634	0.001484
646	0.001961
658	0.0051304
670	0.0084376
682	0.012243
694	0.0428028
706	0.0379374
718	0.0182638
730	0.0197743
742	0.0169706
754	0.0182002
766	0.0038849
778	0.0015741
790	0.0011713
802	0.0011183
814	0.0016536
826	0.0010441
838	0.0005989
850	0.000477
862	0.0008639
874	0.0002703
886	0.0002067
898	0.0002703
910	0.0010865
922	0.0005936
934	1.59e-05
946	5.3e-05
958	0.0002226
970	0.0002014
982	0.0001378
994	0.0003816
1006	0.0010282
1018	0.0015741
1030	0.00901
1042	0.0023797
1054	0.0007261
1066	0.0019822
1078	0.0040969
1090	0.0012561
1102	0.0008692
1114	0.0007579
1126	0.0003233
1138	0.0003233
1150	0.0004717
1162	0.0007261
1174	0.0014999
1186	0.0023797
1198	0.0014469
1210	0.001113
1222	0.0011501
1234	0.001696
1246	0.0017914
1258	0.0015741
1270	0.0012614
1282	0.0012932
1294	0.0012879
1306	0.0012879
1318	0.001431
1330	0.001537
1342	0.0009911
1354	0.0005777
1366	0.0006572
1378	0.0009116
1390	0.000636
1402	0.0006943
1414	0.0007473
1426	0.0014363
1438	0.0044732
1450	0.0097467
1462	0.0043619
1474	0.0037577
1486	0.0111459
1498	0.0219632
1510	0.0034503
1522	0.0013038
1534	0.0012985
1546	0.0010547
1558	0.0010706
1570	0.0020723
1582	0.0053212
1594	0.013038
1606	0.008215
1618	0.0022048
1630	0.000954
1642	0.0006784
1654	0.0007049
1666	0.0009169
1678	0.0004823
1690	0.0003074
1702	0.0003445
1714	0.0004187
1726	0.0005936
1738	0.0008162
1750	0.0014045
1762	0.001113
1774	0.0011501
1786	0.0016059
1798	0.0032383
1810	0.0018444
1822	0.0011077
1834	0.0006837
1846	0.0004982
1858	0.0006466
1870	0.0014893
1882	0.0021359
1894	0.0019239
1906	0.0007473
1918	0.0007155
1930	0.001643
1942	0.0030634
1954	0.0024221
1966	0.0008745
1978	0.0003127
1990	0.0002014
2002	0.0001272
2014	0.000106
2026	8.48e-05
2038	0.0001007
2050	8.48e-05
2062	8.48e-05
2074	7.42e-05
2086	6.36e-05
2098	1.59e-05
2110	2.65e-05
2122	1.06e-05
2134	3.71e-05
2146	4.24e-05
2158	6.89e-05
2170	6.89e-05
2182	0.0001007
2194	6.36e-05
2206	6.89e-05
2218	5.83e-05
2230	3.18e-05
2242	0
2254	6.36e-05
2266	6.89e-05
2278	7.42e-05
2290	7.42e-05
2302	0.0001537
2314	0.0004187
2326	0.0001537
2338	0.000318
2350	0.0002703
2362	0.0001484
2374	0.0001484
2386	0.0001537
2398	0.0001378
2410	0.0001961
2422	0.0001802
2434	0.0002067
2446	0.0001696
2458	0.0001537
2470	0.0001749
2482	0.0001749
2494	0.0001484
2506	0.0001431
2518	0.0001272
2530	0.0001325
2542	0.000106
2554	0.0001272
2566	0.000159
2578	0.000265
2590	0.0003074
2602	0.0002862
2614	0.000212
2626	0.0002173
2638	0.0001484
2650	0.0001166
2662	9.01e-05
2674	5.83e-05
2686	4.24e-05
2698	2.65e-05
2710	1.06e-05
2722	5.3e-06
2734	4.77e-05
2746	6.89e-05
2758	0.0001007
2770	0.000106
2782	0.0002226
2794	0.0001484
2806	0.000106
2818	0.0001749
2830	0.0002862
2842	0.0003922
2854	0.0005406
2866	0.0008745
2878	0.0021412
2890	0.0046322
2902	0.0019504
2914	0.0009911
2926	0.0008162
2938	0.0007738
2950	0.0006307
2962	0.0006095
2974	0.0008109
2986	0.0012508
2998	0.0025705
3010	0.0055968
3022	0.0160802
3034	0.0262085
3046	0.0155661
3058	0.0208979
3070	0.0394956
3082	0.0213802
3094	0.0140291
3106	0.0071232
3118	0.003286
3130	0.0012614
3142	0.0008798
3154	0.0008374
3166	0.000742
3178	0.0003127
3190	0.0002438
3202	0.0002173
3214	0.0001166
3226	6.89e-05
3238	6.89e-05
3250	6.36e-05
3262	2.12e-05
3274	5.83e-05
3286	4.77e-05
3298	3.18e-05
3310	5.83e-05
3322	6.36e-05
3334	7.95e-05
3346	4.77e-05
3358	6.36e-05
3370	6.89e-05
3382	5.83e-05
3394	5.83e-05
3406	0.000106
3418	6.89e-05
3430	9.01e-05
3442	0.0001166
3454	0.0001378
3466	0.0001537
3478	7.95e-05
3490	0.0001166
3502	9.54e-05
3514	0.0001272
3526	0.0001272
3538	0.0001219
3550	9.54e-05
3562	9.01e-05
3574	0.0001378
3586	0.0001272
3598	0.000106
3610	9.01e-05
3622	0.0001219
3634	0.0002809
3646	0.0003074
3658	0.0002809
3670	0.000318
3682	0.0002915
3694	0.0003233
3706	0.0003127
3718	0.0001537
3730	0.0001484
3742	0.0001113
3754	0.000159
3766	7.95e-05
3778	0.0001431
3790	0.0001166
3802	0.0001272
3814	0.0001272
3826	8.48e-05
3838	9.54e-05
