Infrared Spectrum: .alpha.-(p-Chlorophenyl)ciannamonitrile
Formula: C 15 H 10 Cl N
CAS: 3695-93-0
State: gas
Origin: EPA-IR VAPOR PHASE LIBRARY
1/CM	ABSORBANCE
551.7	0.002253
563.274	0.001593
574.848	0.001913
586.421	0.005553
597.995	0.003933
609.569	0.002263
621.143	0.002123
632.717	0.002593
644.291	0.002953
655.864	0.003933
667.438	0.008583
679.012	0.018863
690.586	0.025563
702.16	0.018533
713.734	0.018403
725.307	0.016603
736.881	0.015703
748.455	0.015223
760.029	0.009813
771.603	0.006543
783.177	0.005743
794.75	0.006703
806.324	0.012583
817.898	0.027853
829.472	0.042213
841.046	0.018823
852.619	0.007173
864.193	0.003983
875.767	0.003963
887.341	0.004383
898.915	0.004043
910.489	0.004843
922.062	0.006583
933.636	0.004353
945.21	0.002643
956.784	0.002513
968.358	0.003113
979.932	0.004693
991.505	0.013383
1003.08	0.009393
1014.65	0.030353
1026.23	0.008393
1037.8	0.004543
1049.37	0.003213
1060.95	0.004823
1072.52	0.009403
1084.1	0.022083
1095.67	0.068013
1107.24	0.025633
1118.82	0.010483
1130.39	0.005613
1141.97	0.002593
1153.54	0.002223
1165.11	0.002623
1176.69	0.003893
1188.26	0.006593
1199.83	0.005253
1211.41	0.004633
1222.98	0.004853
1234.56	0.003173
1246.13	0.004553
1257.7	0.004893
1269.28	0.001973
1280.85	0.001903
1292.42	0.002103
1304	0.002663
1315.57	0.002203
1327.15	0.003003
1338.72	0.004093
1350.29	0.006183
1361.87	0.004673
1373.44	0.003543
1385.02	0.003873
1396.59	0.006283
1408.16	0.007833
1419.74	0.004823
1431.31	0.004173
1442.88	0.007013
1454.46	0.008293
1466.03	0.007283
1477.61	0.016653
1489.18	0.056943
1500.75	0.045973
1512.33	0.010353
1523.9	0.004083
1535.48	0.002693
1547.05	0.002513
1558.62	0.003143
1570.2	0.004393
1581.77	0.006303
1593.34	0.011933
1604.92	0.009023
1616.49	0.003973
1628.07	0.003153
1639.64	0.003573
1651.21	0.003283
1662.79	0.002453
1674.36	0.001823
1685.93	0.001593
1697.51	0.001303
1709.08	0.001243
1720.66	0.001373
1732.23	0.001513
1743.8	0.002003
1755.38	0.002683
1766.95	0.003713
1778.53	0.003493
1790.1	0.003303
1801.67	0.002613
1813.25	0.001683
1824.82	0.001363
1836.39	0.001503
1847.97	0.001563
1859.54	0.001523
1871.12	0.002033
1882.69	0.002743
1894.26	0.003843
1905.84	0.003043
1917.41	0.001573
1928.99	0.001543
1940.56	0.001913
1952.13	0.002183
1963.71	0.002543
1975.28	0.0009729
1986.85	0.0006528
1998.43	0.0005496
2010	0.0005423
2021.58	0.0004267
2033.15	0.0004003
2044.72	0.0003703
2056.3	0.000394
2067.87	0.0003651
2079.44	0.0004076
2091.02	0.0003776
2102.59	0.0003635
2114.17	0.000388
2125.74	0.0002934
2137.31	0.0003013
2148.89	0.0003137
2160.46	0.0004244
2172.04	0.0004386
2183.61	0.0005614
2195.18	0.0009086
2206.76	0.002153
2218.33	0.005913
2229.9	0.001963
2241.48	0.0007566
2253.05	0.0006433
2264.63	0.0006414
2276.2	0.0005721
2287.77	0.0006343
2299.35	0.0006933
2310.92	0.0008597
2322.5	0.000978
2334.07	0.0005732
2345.64	0.0006872
2357.22	0.000569
2368.79	0.0005075
2380.36	0.0004259
2391.94	0.0004457
2403.51	0.0004708
2415.09	0.0004893
2426.66	0.0003852
2438.23	0.0004565
2449.81	0.0004294
2461.38	0.0004483
2472.96	0.0004055
2484.53	0.0005054
2496.1	0.0005145
2507.68	0.0006558
2519.25	0.000691
2530.82	0.0005994
2542.4	0.0005639
2553.97	0.0006315
2565.55	0.0006251
2577.12	0.000665
2588.69	0.0008053
2600.27	0.0009122
2611.84	0.0006598
2623.41	0.0004852
2634.99	0.0004567
2646.56	0.0003943
2658.14	0.000334
2669.71	0.0003492
2681.28	0.0003874
2692.86	0.0004113
2704.43	0.0004176
2716.01	0.0003602
2727.58	0.000299
2739.15	0.0004212
2750.73	0.0003732
2762.3	0.0003542
2773.87	0.0005127
2785.45	0.0006471
2797.02	0.0007406
2808.6	0.0007489
2820.17	0.0006714
2831.74	0.0007135
2843.32	0.0008123
2854.89	0.0007121
2866.47	0.0006757
2878.04	0.0007096
2889.61	0.0007701
2901.19	0.0007241
2912.76	0.0007809
2924.33	0.000934
2935.91	0.0010854
2947.48	0.0010344
2959.06	0.0010605
2970.63	0.0010551
2982.2	0.001413
2993.78	0.002063
3005.35	0.003043
3016.92	0.005873
3028.5	0.015583
3040.07	0.017073
3051.65	0.010513
3063.22	0.018043
3074.79	0.024513
3086.37	0.013963
3097.94	0.011453
3109.52	0.006883
3121.09	0.002693
3132.66	0.001333
3144.24	0.001193
3155.81	0.001046
3167.38	0.000752
3178.96	0.0006222
3190.53	0.0006387
3202.11	0.0005258
3213.68	0.0004332
3225.25	0.0003557
3236.83	0.0002625
3248.4	0.0002842
3259.98	0.00021861
3271.55	0.000134238
3283.12	0.00015057
3294.7	0.00018515
3306.27	0.000137176
3317.84	0.00022653
3329.42	0.00014898
3340.99	0.00015363
3352.57	0.000287
3364.14	0.00018441
3375.71	0.00019527
3387.29	0.00017837
3398.86	0.0001075
3410.43	0.0001063
3422.01	0.00015233
3433.58	0.00012567
3445.16	0.0001234
3456.73	0.00021107
3468.3	0.00021608
3479.88	0.00018115
3491.45	0.0002352
3503.03	0.0002407
3514.6	0.00015508
3526.17	2.1e-05
3537.75	0.0001219
3549.32	0.000116
3560.89	0.00016667
3572.47	0.00023093
3584.04	0.0001189
3595.62	0
3607.19	0.00018439
3618.76	9.39e-05
3630.34	0.0002824
3641.91	0.0002397
3653.49	0.0002887
3665.06	0.0003847
3676.63	0.00022003
3688.21	0.0003513
3699.78	0.0003019
3711.35	0.0003024
3722.93	0.0004265
3734.5	0.0003075
3746.08	0.00019375
3757.65	0.0002488
3769.22	0.00016081
3780.8	0.0004108
3792.37	0.0002838
3803.94	0.000355
3815.52	0.0004156
3827.09	0.0003904
3838.67	0.00016447
3850.24	0.00016443
3861.81	0.00019335
3873.39	0.00019722
3884.96	0.0002608
3896.54	0.000266
3908.11	0.0001718
3919.68	0.0002384
3931.26	0.0002953
3942.83	0.00014534
3954.4	0.00018244
3965.98	8.32e-05
3977.55	0.000289
3989.13	0.0002592
4000.7	0.0003257
