Infrared Spectrum: 2,4-THIAZOLIDINEDIONE, 5-(P-DIMETHYLAMINOBENZYLIDENE)-
Formula: C12 H12 N2 O2 S
CAS: 3695-48-5
State: SOLID (KBr PELLET)
Melting point: 265 C DECOMPOSES
Class: COBLENTZ
Instrument: Not specified, most likely a prism, grating, or hybrid spectrometer.
Sampling: TRANSMISSION
Resolution: 4
Origin: TENNESSEE EASTMAN COMPANY, RESEARCH LABORATORIES
MICROMETERS	TRANSMITTANCE
2.014	0.476
2.05503	0.478
2.09606	0.485
2.13709	0.495
2.17812	0.509
2.21915	0.523
2.26018	0.536
2.30121	0.548
2.34224	0.562
2.38327	0.569
2.42429	0.583
2.46532	0.593
2.50635	0.61
2.54738	0.614
2.58841	0.622
2.62944	0.634
2.67047	0.641
2.7115	0.643
2.75253	0.61
2.79356	0.579
2.83459	0.56
2.87562	0.543
2.91665	0.54
2.95768	0.576
2.99871	0.615
3.03974	0.627
3.08077	0.626
3.1218	0.572
3.16283	0.485
3.20385	0.394
3.24488	0.411
3.28591	0.415
3.32694	0.351
3.36797	0.463
3.409	0.514
3.45003	0.578
3.49106	0.579
3.53209	0.588
3.57312	0.55
3.61415	0.602
3.65518	0.677
3.69621	0.723
3.73724	0.734
3.77827	0.77
3.8193	0.804
3.86033	0.818
3.90136	0.823
3.94239	0.831
3.98342	0.843
4.02444	0.852
4.06547	0.852
4.1065	0.857
4.14753	0.857
4.18856	0.873
4.22959	0.881
4.27062	0.881
4.31165	0.881
4.35268	0.888
4.39371	0.89
4.43474	0.9
4.47577	0.915
4.5168	0.919
4.55783	0.919
4.59886	0.921
4.63989	0.927
4.68092	0.933
4.72195	0.934
4.76298	0.934
4.804	0.934
4.84503	0.933
4.88606	0.934
4.92709	0.939
4.96812	0.943
5.00915	0.946
5.05018	0.95
5.09121	0.95
5.13224	0.951
5.17327	0.95
5.2143	0.95
5.25533	0.929
5.29636	0.938
5.33739	0.941
5.37842	0.943
5.41945	0.938
5.46048	0.921
5.50151	0.922
5.54254	0.91
5.58356	0.898
5.62459	0.871
5.66562	0.713
5.70665	0.358
5.74768	0.144
5.78871	0.132
5.82974	0.59
5.87077	0.506
5.9118	0.061
5.95283	0.264
5.99386	0.639
6.03489	0.723
6.07592	0.74
6.11695	0.615
6.15798	0.447
6.19901	0.382
6.24004	0.619
6.28107	0.209
6.3221	0.039
6.36312	0.063
6.40415	0.32
6.44518	0.341
6.48621	0.121
6.52724	0.159
6.56827	0.523
6.6093	0.759
6.65033	0.831
6.69136	0.837
6.73239	0.845
6.77342	0.823
6.81445	0.799
6.85548	0.725
6.89651	0.598
6.93754	0.691
6.97857	0.806
7.0196	0.835
7.06063	0.785
7.10166	0.802
7.14269	0.727
7.18371	0.416
7.22474	0.375
7.26577	0.636
7.3068	0.686
7.34783	0.638
7.38886	0.382
7.42989	0.109
7.47092	0.224
7.51195	0.444
7.55298	0.656
7.59401	0.679
7.63504	0.559
7.67607	0.319
7.7171	0.469
7.75813	0.644
7.79916	0.807
7.84019	0.866
7.88122	0.881
7.92225	0.893
7.96327	0.859
8.0043	0.778
8.04533	0.715
8.08636	0.716
8.12739	0.847
8.16842	0.897
8.20945	0.929
8.25048	0.917
8.29151	0.742
8.33254	0.504
8.37357	0.138
8.4146	0.387
8.45563	0.622
8.49666	0.742
8.53769	0.794
8.57872	0.775
8.61975	0.495
8.66078	0.307
8.70181	0.42
8.74283	0.38
8.78386	0.62
8.82489	0.742
8.86592	0.797
8.90695	0.843
8.94798	0.871
8.98901	0.886
9.03004	0.9
9.07107	0.902
9.1121	0.914
9.15313	0.922
9.19416	0.922
9.23519	0.917
9.27622	0.866
9.31725	0.828
9.35828	0.859
9.39931	0.898
9.44034	0.924
9.48137	0.931
9.5224	0.933
9.56342	0.933
9.60445	0.903
9.64548	0.787
9.68651	0.763
9.72754	0.862
9.76857	0.881
9.8096	0.893
9.85063	0.91
9.89166	0.922
9.93269	0.927
9.97372	0.91
10.0147	0.895
10.0558	0.921
10.0968	0.931
10.1378	0.933
10.1789	0.938
10.2199	0.943
10.2609	0.945
10.302	0.946
10.343	0.948
10.384	0.95
10.425	0.946
10.4661	0.943
10.5071	0.891
10.5481	0.821
10.5892	0.826
10.6302	0.883
10.6712	0.915
10.7122	0.936
10.7533	0.941
10.7943	0.941
10.8353	0.945
10.8764	0.951
10.9174	0.953
10.9584	0.953
10.9995	0.953
11.0405	0.878
11.0815	0.854
11.1225	0.938
11.1636	0.951
11.2046	0.955
11.2456	0.96
11.2867	0.962
11.3277	0.96
11.3687	0.958
11.4098	0.955
11.4508	0.945
11.4918	0.927
11.5328	0.921
11.5739	0.919
11.6149	0.91
11.6559	0.9
11.697	0.902
11.738	0.919
11.779	0.927
11.82	0.929
11.8611	0.929
11.9021	0.927
11.9431	0.914
11.9842	0.89
12.0252	0.864
12.0662	0.826
12.1073	0.797
12.1483	0.758
12.1893	0.725
12.2303	0.682
12.2714	0.607
12.3124	0.487
12.3534	0.301
12.3945	0.344
12.4355	0.668
12.4765	0.787
12.5175	0.835
12.5586	0.855
12.5996	0.871
12.6406	0.874
12.6817	0.871
12.7227	0.873
12.7637	0.886
12.8048	0.903
12.8458	0.912
12.8868	0.917
12.9278	0.921
12.9689	0.922
13.0099	0.922
13.0509	0.917
13.092	0.902
13.133	0.903
13.174	0.912
13.215	0.922
13.2561	0.924
13.2971	0.929
13.3381	0.929
13.3792	0.929
13.4202	0.929
13.4612	0.917
13.5023	0.919
13.5433	0.946
13.5843	0.96
13.6253	0.963
13.6664	0.965
13.7074	0.967
13.7484	0.967
13.7895	0.963
13.8305	0.945
13.8715	0.919
13.9125	0.917
13.9536	0.933
13.9946	0.939
14.0356	0.939
14.0767	0.948
14.1177	0.953
14.1587	0.958
14.1998	0.955
14.2408	0.939
14.2818	0.9
14.3228	0.828
14.3639	0.735
14.4049	0.608
14.4459	0.528
14.487	0.5
14.528	0.554
14.569	0.663
14.6101	0.754
14.6511	0.842
14.6921	0.898
14.7331	0.936
14.7742	0.967
14.8152	0.986
14.8562	0.993
14.8973	0.996
14.9383	0.996
14.9793	0.994
15.0203	0.991
15.0614	0.991
15.1024	0.991
15.1434	0.991
15.1845	0.991
15.2255	0.991
15.2665	0.982
15.3076	0.965
15.3486	0.946
15.3896	0.926
15.4306	0.905
15.4717	0.874
15.5127	0.866
15.5537	0.854
15.5948	0.845
15.6358	0.814
15.6768	0.782
15.7178	0.732
15.7589	0.682
15.7999	0.617
15.8409	0.576
15.882	0.559
15.923	0.562
15.964	0.576
