Infrared Spectrum: 3-Methylbenzyl isothiocyanate
Formula: C 9 H 9 N S
CAS: 3696-66-0
State: gas
Origin: EPA-IR VAPOR PHASE LIBRARY
1/CM	ABSORBANCE
549.8	0.010109
559.445	0.009899
569.09	0.010389
578.734	0.009599
588.379	0.008229
598.024	0.008699
607.669	0.007819
617.313	0.006089
626.958	0.005329
636.603	0.004199
646.248	0.003299
655.893	0.003209
665.537	0.003919
675.182	0.006699
684.827	0.012089
694.472	0.019049
704.116	0.028019
713.761	0.031029
723.406	0.027819
733.051	0.023849
742.695	0.019289
752.34	0.016559
761.985	0.015829
771.63	0.014789
781.275	0.011919
790.919	0.007659
800.564	0.004069
810.209	0.001979
819.854	0.0013615
829.498	0.0008594
839.143	0.0009147
848.788	0.0013794
858.433	0.001859
868.078	0.003189
877.722	0.004179
887.367	0.003849
897.012	0.003319
906.657	0.003059
916.301	0.002519
925.946	0.002899
935.591	0.002879
945.236	0.002699
954.88	0.002619
964.525	0.002429
974.17	0.002409
983.815	0.002439
993.46	0.002819
1003.1	0.002479
1012.75	0.002469
1022.39	0.002499
1032.04	0.002849
1041.68	0.003109
1051.33	0.003199
1060.97	0.002899
1070.62	0.002819
1080.26	0.003249
1089.91	0.004269
1099.55	0.004669
1109.2	0.003569
1118.84	0.003469
1128.49	0.002529
1138.13	0.003259
1147.78	0.004149
1157.42	0.004959
1167.07	0.004679
1176.71	0.003949
1186.36	0.003159
1196	0.003129
1205.64	0.003119
1215.29	0.003429
1224.93	0.004559
1234.58	0.005559
1244.22	0.006089
1253.87	0.005989
1263.51	0.005899
1273.16	0.007079
1282.8	0.010079
1292.45	0.013629
1302.09	0.017429
1311.74	0.020509
1321.38	0.027689
1331.03	0.056099
1340.67	0.071729
1350.32	0.032299
1359.96	0.013889
1369.61	0.010599
1379.25	0.008489
1388.9	0.007159
1398.54	0.005959
1408.18	0.006049
1417.83	0.007869
1427.47	0.011729
1437.12	0.017649
1446.76	0.028239
1456.41	0.028669
1466.05	0.012079
1475.7	0.009799
1485.34	0.011789
1494.99	0.012159
1504.63	0.008319
1514.28	0.005819
1523.92	0.005079
1533.57	0.004519
1543.21	0.003819
1552.86	0.003239
1562.5	0.003269
1572.15	0.003939
1581.79	0.005299
1591.44	0.007569
1601.08	0.012289
1610.73	0.015809
1620.37	0.009009
1630.01	0.003319
1639.66	0.002169
1649.3	0.001829
1658.95	0.001859
1668.59	0.001939
1678.24	0.001829
1687.88	0.001769
1697.53	0.001729
1707.17	0.001619
1716.82	0.001619
1726.46	0.001759
1736.11	0.002099
1745.75	0.002389
1755.4	0.002339
1765.04	0.002279
1774.69	0.002269
1784.33	0.002099
1793.98	0.001979
1803.62	0.001759
1813.27	0.001729
1822.91	0.001919
1832.55	0.002389
1842.2	0.003139
1851.84	0.003739
1861.49	0.004229
1871.13	0.004409
1880.78	0.004729
1890.42	0.005429
1900.07	0.006649
1909.71	0.008189
1919.36	0.010389
1929	0.013259
1938.65	0.016639
1948.29	0.020779
1957.94	0.026939
1967.58	0.036199
1977.23	0.049699
1986.87	0.068689
1996.52	0.094799
2006.16	0.129239
2015.81	0.171749
2025.45	0.219209
2035.1	0.264609
2044.74	0.300999
2054.38	0.321299
2064.03	0.318439
2073.67	0.287839
2083.32	0.232799
2092.96	0.163939
2102.61	0.110129
2112.25	0.075689
2121.9	0.055519
2131.54	0.044669
2141.19	0.040429
2150.83	0.040049
2160.48	0.043459
2170.12	0.050969
2179.77	0.058329
2189.41	0.055289
2199.06	0.044819
2208.7	0.034699
2218.35	0.026459
2227.99	0.019509
2237.64	0.014379
2247.28	0.011279
2256.92	0.009309
2266.57	0.007719
2276.21	0.006419
2285.86	0.005409
2295.5	0.004709
2305.15	0.004119
2314.79	0.003919
2324.44	0.003489
2334.08	0.003109
2343.73	0.002629
2353.37	0.002449
2363.02	0.002099
2372.66	0.001919
2382.31	0.001799
2391.95	0.001809
2401.6	0.001529
2411.24	0.001579
2420.89	0.001449
2430.53	0.0014043
2440.18	0.001489
2449.82	0.001599
2459.47	0.001599
2469.11	0.001659
2478.75	0.001769
2488.4	0.001819
2498.04	0.001809
2507.69	0.001929
2517.33	0.001819
2526.98	0.001839
2536.62	0.001729
2546.27	0.001739
2555.91	0.001829
2565.56	0.001969
2575.2	0.001939
2584.85	0.001839
2594.49	0.001669
2604.14	0.001569
2613.78	0.0012937
2623.43	0.001499
2633.07	0.001459
2642.72	0.001609
2652.36	0.001679
2662.01	0.001939
2671.65	0.001939
2681.29	0.002029
2690.94	0.001979
2700.58	0.002289
2710.23	0.002469
2719.87	0.002759
2729.52	0.003319
2739.16	0.003829
2748.81	0.004239
2758.45	0.004139
2768.1	0.004149
2777.74	0.004259
2787.39	0.004259
2797.03	0.004189
2806.68	0.003859
2816.32	0.003539
2825.97	0.003599
2835.61	0.003839
2845.26	0.004499
2854.9	0.006429
2864.55	0.010099
2874.19	0.013519
2883.84	0.014539
2893.48	0.013219
2903.12	0.012469
2912.77	0.014139
2922.41	0.020819
2932.06	0.027509
2941.7	0.026479
2951.35	0.020919
2960.99	0.015649
2970.64	0.010219
2980.28	0.007319
2989.93	0.007599
2999.57	0.008739
3009.22	0.011659
3018.86	0.015769
3028.51	0.020939
3038.15	0.022289
3047.8	0.018219
3057.44	0.016789
3067.09	0.015889
3076.73	0.011529
3086.38	0.006949
3096.02	0.004859
3105.67	0.004049
3115.31	0.002909
3124.95	0.001989
3134.6	0.001177
3144.24	0.0006211
3153.89	0.0005764
3163.53	0.0005696
3173.18	0.00048194
3182.82	0.00049672
3192.47	0.00049755
3202.11	0.000231
3211.76	0.000254
3221.4	0.00021
3231.05	0.000246
3240.69	0.000126
3250.34	0.000127
3259.98	0.0003588
3269.63	0.000221
3279.27	9.3e-05
3288.92	0.000146
3298.56	0.000224
3308.21	0.000143
3317.85	0.000125
3327.49	0.000238
3337.14	0.000288
3346.78	0.0003538
3356.43	0.000259
3366.07	0
3375.72	0.000105
3385.36	0.00043787
3395.01	0.000274
3404.65	0.000273
3414.3	0.000266
3423.94	0.0003262
3433.59	0.000224
3443.23	0.0003728
3452.88	0.00042034
3462.52	0.000281
3472.17	0.00047554
3481.81	6.6e-05
3491.46	0.000136
3501.1	0.000271
3510.75	0.000291
3520.39	0.000256
3530.04	0.000277
3539.68	0.000203
3549.32	0.000249
3558.97	0.0003554
3568.61	0.000213
3578.26	0.000364
3587.9	0.0003277
3597.55	0.0003196
3607.19	0.000224
3616.84	0.000389
3626.48	0.0003524
3636.13	0.0003223
3645.77	0.000235
3655.42	0.00021
3665.06	0.000186
3674.71	0.0003231
3684.35	0.000326
3694	0.00045616
3703.64	0.00043181
3713.29	0.000336
3722.93	0.000271
3732.58	0.00048763
3742.22	0.0003534
3751.86	0.000253
3761.51	0.0005845
3771.15	0.00048903
3780.8	0.0005895
3790.44	0.0005167
3800.09	0.0003347
3809.73	0.00048363
3819.38	0.0003526
3829.02	0.000186
3838.67	0.0003
3848.31	0.000307
3857.96	0.0005845
3867.6	0.000415656
3877.25	0.0005244
3886.89	0.0006082
3896.54	0.0006545
3906.18	0.0006541
3915.83	0.0008392
3925.47	0.0007704
3935.12	0.0009757
3944.76	0.0010237
3954.41	0.0010602
3964.05	0.0011834
3973.69	0.0011476
3983.34	0.0012194
3992.98	0.0013061
