Infrared Spectrum: RHODANINE, 5-CYCLOHEXYLIDENE-
Formula: C9 H11 N O S2
CAS: 3698-06-4
State: SOLID (KBr PELLET)
Melting point: 168-170 C
Class: COBLENTZ
Instrument: Not specified, most likely a prism, grating, or hybrid spectrometer.
Sampling: TRANSMISSION
Resolution: 4
Origin: TENNESSEE EASTMAN COMPANY, RESEARCH LABORATORIES
MICROMETERS	TRANSMITTANCE
1.979	0.713
2.02001	0.716
2.06102	0.728
2.10203	0.734
2.14305	0.742
2.18406	0.758
2.22507	0.766
2.26608	0.771
2.30709	0.78
2.3481	0.783
2.38912	0.787
2.43013	0.792
2.47114	0.794
2.51215	0.795
2.55316	0.795
2.59417	0.794
2.63519	0.799
2.6762	0.801
2.71721	0.794
2.75822	0.754
2.79923	0.722
2.84024	0.701
2.88126	0.682
2.92227	0.684
2.96328	0.715
3.00429	0.727
3.0453	0.725
3.08631	0.624
3.12733	0.464
3.16834	0.224
3.20935	0.305
3.25036	0.219
3.29137	0.3
3.33238	0.523
3.3734	0.188
3.41441	0.382
3.45542	0.348
3.49643	0.523
3.53744	0.72
3.57845	0.77
3.61947	0.794
3.66048	0.823
3.70149	0.838
3.7425	0.845
3.78351	0.852
3.82452	0.857
3.86554	0.891
3.90655	0.909
3.94756	0.921
3.98857	0.921
4.02958	0.922
4.07059	0.931
4.11161	0.933
4.15262	0.939
4.19363	0.941
4.23464	0.905
4.27565	0.84
4.31666	0.852
4.35768	0.927
4.39869	0.941
4.4397	0.95
4.48071	0.953
4.52172	0.953
4.56273	0.955
4.60375	0.957
4.64476	0.97
4.68577	0.974
4.72678	0.974
4.76779	0.975
4.8088	0.975
4.84982	0.975
4.89083	0.975
4.93184	0.975
4.97285	0.981
5.01386	0.984
5.05487	0.982
5.09588	0.982
5.1369	0.982
5.17791	0.974
5.21892	0.965
5.25993	0.977
5.30094	0.981
5.34195	0.981
5.38297	0.981
5.42398	0.981
5.46499	0.981
5.506	0.975
5.54701	0.962
5.58802	0.95
5.62904	0.945
5.67005	0.898
5.71106	0.819
5.75207	0.802
5.79308	0.723
5.83409	0.535
5.87511	0.188
5.91612	0.018
5.95713	0.08
5.99814	0.415
6.03915	0.704
6.08016	0.734
6.12118	0.742
6.16219	0.73
6.2032	0.454
6.24421	0.068
6.28522	0.176
6.32623	0.567
6.36725	0.713
6.40826	0.813
6.44927	0.831
6.49028	0.852
6.53129	0.823
6.5723	0.804
6.61332	0.854
6.65433	0.861
6.69534	0.862
6.73635	0.825
6.77736	0.727
6.81837	0.495
6.85939	0.144
6.9004	0.022
6.94141	0.238
6.98242	0.526
7.02343	0.687
7.06444	0.744
7.10546	0.787
7.14647	0.794
7.18748	0.77
7.22849	0.744
7.2695	0.753
7.31051	0.771
7.35153	0.674
7.39254	0.428
7.43355	0.631
7.47456	0.785
7.51557	0.701
7.55658	0.586
7.5976	0.44
7.63861	0.392
7.67962	0.3
7.72063	0.588
7.76164	0.746
7.80265	0.777
7.84367	0.632
7.88468	0.723
7.92569	0.614
7.9667	0.476
8.00771	0.233
8.04872	0.506
8.08973	0.643
8.13075	0.485
8.17176	0.248
8.21277	0.037
8.25378	0.017
8.29479	0.133
8.3358	0.336
8.37682	0.451
8.41783	0.578
8.45884	0.701
8.49985	0.754
8.54086	0.801
8.58187	0.823
8.62289	0.838
8.6639	0.869
8.70491	0.859
8.74592	0.835
8.78693	0.674
8.82794	0.677
8.86896	0.804
8.90997	0.804
8.95098	0.783
8.99199	0.504
9.033	0.399
9.07401	0.698
9.11503	0.753
9.15604	0.67
9.19705	0.346
9.23806	0.198
9.27907	0.415
9.32008	0.675
9.3611	0.754
9.40211	0.818
9.44312	0.849
9.48413	0.854
9.52514	0.867
9.56615	0.879
9.60717	0.873
9.64818	0.799
9.68919	0.722
9.7302	0.775
9.77121	0.837
9.81222	0.826
9.85324	0.761
9.89425	0.821
9.93526	0.843
9.97627	0.814
10.0173	0.638
10.0583	0.584
10.0993	0.687
10.1403	0.744
10.1813	0.813
10.2223	0.854
10.2634	0.867
10.3044	0.888
10.3454	0.909
10.3864	0.917
10.4274	0.921
10.4684	0.924
10.5094	0.927
10.5504	0.926
10.5914	0.926
10.6325	0.931
10.6735	0.931
10.7145	0.931
10.7555	0.929
10.7965	0.929
10.8375	0.924
10.8785	0.909
10.9195	0.907
10.9605	0.912
11.0016	0.912
11.0426	0.9
11.0836	0.866
11.1246	0.873
11.1656	0.879
11.2066	0.847
11.2476	0.744
11.2886	0.524
11.3297	0.665
11.3707	0.77
11.4117	0.806
11.4527	0.823
11.4937	0.823
11.5347	0.819
11.5757	0.79
11.6167	0.723
11.6577	0.548
11.6988	0.579
11.7398	0.653
11.7808	0.653
11.8218	0.607
11.8628	0.559
11.9038	0.521
11.9448	0.476
11.9858	0.418
12.0269	0.385
12.0679	0.385
12.1089	0.384
12.1499	0.387
12.1909	0.454
12.2319	0.54
12.2729	0.598
12.3139	0.65
12.3549	0.691
12.396	0.723
12.437	0.754
12.478	0.777
12.519	0.789
12.56	0.795
12.601	0.806
12.642	0.809
12.683	0.816
12.7241	0.821
12.7651	0.821
12.8061	0.823
12.8471	0.823
12.8881	0.825
12.9291	0.825
12.9701	0.825
13.0111	0.823
13.0521	0.816
13.0932	0.794
13.1342	0.759
13.1752	0.704
13.2162	0.73
13.2572	0.869
13.2982	0.933
13.3392	0.951
13.3802	0.955
13.4212	0.957
13.4623	0.955
13.5033	0.957
13.5443	0.955
13.5853	0.962
13.6263	0.965
13.6673	0.965
13.7083	0.967
13.7493	0.967
13.7904	0.967
13.8314	0.967
13.8724	0.967
13.9134	0.965
13.9544	0.948
13.9954	0.926
14.0364	0.903
14.0774	0.864
14.1184	0.818
14.1595	0.799
14.2005	0.821
14.2415	0.864
14.2825	0.9
14.3235	0.927
14.3645	0.939
14.4055	0.948
14.4465	0.951
14.4876	0.951
14.5286	0.945
14.5696	0.912
14.6106	0.835
14.6516	0.749
14.6926	0.605
14.7336	0.439
14.7746	0.303
14.8156	0.24
14.8567	0.272
14.8977	0.391
14.9387	0.526
14.9797	0.665
15.0207	0.759
15.0617	0.84
15.1027	0.871
15.1437	0.886
15.1847	0.89
15.2258	0.89
15.2668	0.89
15.3078	0.89
15.3488	0.883
15.3898	0.876
15.4308	0.869
15.4718	0.864
15.5128	0.857
15.5539	0.845
15.5949	0.833
15.6359	0.828
15.6769	0.818
15.7179	0.802
15.7589	0.778
15.7999	0.771
15.8409	0.756
15.8819	0.742
15.923	0.73
