Infrared Spectrum: RHODANINE, 5-(P-DIMETHYLAMINOBENZYLIDENE)-3-PHENYL
Formula: C18 H16 N2 O S2
CAS: 3698-12-2
State: SOLID (KBr PELLET)
Melting point: 230-234 C
Class: COBLENTZ
Instrument: Not specified, most likely a prism, grating, or hybrid spectrometer.
Sampling: TRANSMISSION
Resolution: 4
Origin: TENNESSEE EASTMAN COMPANY, RESEARCH LABORATORIES
MICROMETERS	TRANSMITTANCE
2.034	0.689
2.07503	0.699
2.11606	0.706
2.1571	0.722
2.19813	0.732
2.23916	0.74
2.28019	0.746
2.32123	0.753
2.36226	0.759
2.40329	0.771
2.44432	0.777
2.48536	0.778
2.52639	0.782
2.56742	0.783
2.60845	0.783
2.64949	0.789
2.69052	0.79
2.73155	0.782
2.77258	0.749
2.81362	0.718
2.85465	0.698
2.89568	0.675
2.93671	0.677
2.97775	0.734
3.01878	0.785
3.05981	0.804
3.10084	0.823
3.14188	0.835
3.18291	0.842
3.22394	0.83
3.26497	0.789
3.30601	0.794
3.34704	0.825
3.38807	0.773
3.4291	0.735
3.47014	0.775
3.51117	0.809
3.5522	0.819
3.59323	0.867
3.63427	0.881
3.6753	0.888
3.71633	0.888
3.75736	0.891
3.7984	0.897
3.83943	0.907
3.88046	0.915
3.92149	0.915
3.96253	0.922
4.00356	0.934
4.04459	0.938
4.08562	0.941
4.12666	0.948
4.16769	0.95
4.20872	0.948
4.24975	0.936
4.29079	0.926
4.33182	0.926
4.37285	0.953
4.41388	0.958
4.45492	0.962
4.49595	0.963
4.53698	0.963
4.57801	0.965
4.61905	0.972
4.66008	0.974
4.70111	0.972
4.74214	0.974
4.78318	0.974
4.82421	0.977
4.86524	0.977
4.90627	0.977
4.94731	0.984
4.98834	0.984
5.02937	0.986
5.0704	0.984
5.11144	0.982
5.15247	0.982
5.1935	0.984
5.23453	0.987
5.27557	0.986
5.3166	0.987
5.35763	0.987
5.39866	0.986
5.4397	0.984
5.48073	0.987
5.52176	0.984
5.56279	0.981
5.60383	0.975
5.64486	0.969
5.68589	0.962
5.72692	0.931
5.76796	0.837
5.80899	0.456
5.85002	0.066
5.89105	0.389
5.93209	0.66
5.97312	0.801
6.01415	0.825
6.05518	0.833
6.09622	0.797
6.13725	0.732
6.17828	0.476
6.21931	0.593
6.26035	0.497
6.30138	0.075
6.34241	0.012
6.38344	0.08
6.42448	0.379
6.46551	0.265
6.50654	0.049
6.54757	0.125
6.58861	0.432
6.62964	0.564
6.67067	0.497
6.7117	0.639
6.75274	0.735
6.79377	0.801
6.8348	0.74
6.87583	0.572
6.91687	0.433
6.9579	0.655
6.99893	0.783
7.03996	0.753
7.081	0.802
7.12203	0.802
7.16306	0.718
7.20409	0.476
7.24513	0.24
7.28616	0.296
7.32719	0.281
7.36822	0.181
7.40926	0.317
7.45029	0.548
7.49132	0.687
7.53235	0.759
7.57339	0.674
7.61442	0.675
7.65545	0.643
7.69648	0.737
7.73752	0.732
7.77855	0.749
7.81958	0.782
7.86061	0.711
7.90165	0.487
7.94268	0.19
7.98371	0.149
8.02474	0.224
8.06578	0.082
8.10681	0.036
8.14784	0.198
8.18887	0.466
8.22991	0.638
8.27094	0.62
8.31197	0.327
8.353	0.416
8.39404	0.607
8.43507	0.614
8.4761	0.406
8.51713	0.404
8.55817	0.253
8.5992	0.077
8.64023	0.058
8.68126	0.132
8.7223	0.171
8.76333	0.099
8.80436	0.102
8.84539	0.166
8.88643	0.349
8.92746	0.576
8.96849	0.682
9.00952	0.775
9.05055	0.794
9.09159	0.818
9.13262	0.833
9.17365	0.84
9.21468	0.843
9.25572	0.813
9.29675	0.732
9.33778	0.716
9.37881	0.735
9.41985	0.768
9.46088	0.789
9.50191	0.828
9.54294	0.84
9.58398	0.842
9.62501	0.825
9.66604	0.778
9.70707	0.768
9.74811	0.79
9.78914	0.833
9.83017	0.862
9.8712	0.881
9.91224	0.89
9.95327	0.883
9.9943	0.85
10.0353	0.893
10.0764	0.912
10.1174	0.922
10.1584	0.926
10.1995	0.933
10.2405	0.931
10.2815	0.873
10.3226	0.881
10.3636	0.91
10.4046	0.921
10.4457	0.917
10.4867	0.811
10.5277	0.713
10.5688	0.703
10.6098	0.789
10.6508	0.828
10.6919	0.826
10.7329	0.878
10.7739	0.921
10.815	0.938
10.856	0.929
10.897	0.903
10.938	0.921
10.9791	0.931
11.0201	0.931
11.0611	0.934
11.1022	0.945
11.1432	0.955
11.1842	0.963
11.2253	0.962
11.2663	0.926
11.3073	0.871
11.3484	0.869
11.3894	0.907
11.4304	0.953
11.4715	0.97
11.5125	0.977
11.5535	0.984
11.5946	0.987
11.6356	0.987
11.6766	0.989
11.7177	0.989
11.7587	0.994
11.7997	0.994
11.8408	0.993
11.8818	0.986
11.9228	0.97
11.9639	0.941
12.0049	0.876
12.0459	0.801
12.087	0.73
12.128	0.651
12.169	0.545
12.2101	0.454
12.2511	0.543
12.2921	0.644
12.3332	0.711
12.3742	0.838
12.4152	0.912
12.4563	0.936
12.4973	0.874
12.5383	0.777
12.5793	0.854
12.6204	0.91
12.6614	0.912
12.7024	0.957
12.7435	0.979
12.7845	0.993
12.8255	1
12.8666	1.001
12.9076	1.001
12.9486	1.001
12.9897	1
13.0307	0.998
13.0717	0.993
13.1128	0.987
13.1538	0.981
13.1948	0.958
13.2359	0.921
13.2769	0.852
13.3179	0.754
13.359	0.662
13.4	0.687
13.441	0.789
13.4821	0.825
13.5231	0.826
13.5641	0.873
13.6052	0.936
13.6462	0.967
13.6872	0.972
13.7283	0.974
13.7693	0.965
13.8103	0.903
13.8514	0.866
13.8924	0.881
13.9334	0.926
13.9745	0.943
14.0155	0.915
14.0565	0.835
14.0976	0.751
14.1386	0.728
14.1796	0.771
14.2206	0.831
14.2617	0.871
14.3027	0.873
14.3437	0.802
14.3848	0.71
14.4258	0.608
14.4668	0.629
14.5079	0.723
14.5489	0.85
14.5899	0.926
14.631	0.965
14.672	0.977
14.713	0.963
14.7541	0.919
14.7951	0.893
14.8361	0.902
14.8772	0.946
14.9182	0.975
14.9592	0.986
15.0003	0.991
15.0413	0.993
15.0823	0.994
15.1234	0.998
15.1644	0.998
15.2054	0.998
15.2465	0.998
15.2875	0.994
15.3285	0.991
15.3696	0.989
15.4106	0.987
15.4516	0.977
15.4927	0.972
15.5337	0.962
15.5747	0.95
15.6158	0.939
15.6568	0.919
15.6978	0.902
15.7389	0.881
15.7799	0.855
15.8209	0.816
15.8619	0.768
15.903	0.734
15.944	0.703
15.985	0.696
