Infrared Spectrum: PROPIONIC ACID, 3-DIETHOXY PHOSPHINYL, ETHYL ESTER
Formula: C9 H19 O5 P
CAS: 3699-67-0
Class: COBLENTZ
Instrument: Not specified, most likely a prism, grating, or hybrid spectrometer.
Sampling: TRANSMISSION
Path length: SMEAR
Resolution: 4
Origin: TENNESSEE EASTMAN COMPANY, RESEARCH LABORATORIES
MICROMETERS	TRANSMITTANCE
2.032	0.949
2.07096	0.951
2.10993	0.951
2.14889	0.951
2.18785	0.951
2.22682	0.922
2.26578	0.899
2.30475	0.904
2.34371	0.915
2.38267	0.92
2.42164	0.92
2.4606	0.919
2.49956	0.922
2.53853	0.936
2.57749	0.94
2.61646	0.941
2.65542	0.943
2.69438	0.944
2.73335	0.914
2.77231	0.864
2.81127	0.825
2.85024	0.779
2.8892	0.757
2.92817	0.823
2.96713	0.873
3.00609	0.894
3.04506	0.909
3.08402	0.911
3.12298	0.911
3.16195	0.912
3.20091	0.912
3.23988	0.898
3.27884	0.844
3.3178	0.616
3.35677	0.15
3.39573	0.3
3.43469	0.322
3.47366	0.614
3.51262	0.797
3.55159	0.847
3.59055	0.878
3.62951	0.885
3.66848	0.898
3.70744	0.92
3.7464	0.935
3.78537	0.938
3.82433	0.94
3.86329	0.941
3.90226	0.941
3.94122	0.943
3.98019	0.941
4.01915	0.941
4.05811	0.941
4.09708	0.94
4.13604	0.94
4.175	0.94
4.21397	0.941
4.25293	0.948
4.2919	0.948
4.33086	0.943
4.36982	0.943
4.40879	0.941
4.44775	0.943
4.48671	0.944
4.52568	0.946
4.56464	0.944
4.60361	0.943
4.64257	0.941
4.68153	0.938
4.7205	0.935
4.75946	0.932
4.79842	0.932
4.83739	0.932
4.87635	0.932
4.91532	0.933
4.95428	0.935
4.99324	0.936
5.03221	0.938
5.07117	0.935
5.11013	0.935
5.1491	0.935
5.18806	0.935
5.22703	0.932
5.26599	0.92
5.30495	0.901
5.34392	0.896
5.38288	0.872
5.42184	0.868
5.46081	0.864
5.49977	0.847
5.53873	0.831
5.5777	0.802
5.61666	0.754
5.65563	0.64
5.69459	0.309
5.73355	0.095
5.77252	0.046
5.81148	0.119
5.85044	0.491
5.88941	0.58
5.92837	0.686
5.96734	0.747
6.0063	0.789
6.04526	0.802
6.08423	0.805
6.12319	0.815
6.16215	0.841
6.20112	0.859
6.24008	0.873
6.27905	0.878
6.31801	0.888
6.35697	0.888
6.39594	0.889
6.4349	0.883
6.47386	0.878
6.51283	0.873
6.55179	0.865
6.59076	0.857
6.62972	0.818
6.66868	0.754
6.70765	0.563
6.74661	0.483
6.78557	0.474
6.82454	0.472
6.8635	0.415
6.90247	0.299
6.94143	0.338
6.98039	0.333
7.01936	0.341
7.05832	0.415
7.09728	0.425
7.13625	0.341
7.17521	0.239
7.21417	0.3
7.25314	0.276
7.2921	0.182
7.33107	0.237
7.37003	0.472
7.40899	0.404
7.44796	0.467
7.48692	0.542
7.52588	0.598
7.56485	0.6
7.60381	0.488
7.64278	0.307
7.68174	0.233
7.7207	0.171
7.75967	0.15
7.79863	0.147
7.83759	0.131
7.87656	0.076
7.91552	0.033
7.95449	0.022
7.99345	0.017
8.03241	0.012
8.07138	0.009
8.11034	0.008
8.1493	0.012
8.18827	0.033
8.22723	0.066
8.2662	0.077
8.30516	0.095
8.34412	0.101
8.38309	0.093
8.42205	0.071
8.46101	0.058
8.49998	0.059
8.53894	0.071
8.57791	0.069
8.61687	0.088
8.65583	0.15
8.6948	0.173
8.73376	0.173
8.77272	0.173
8.81169	0.184
8.85065	0.236
8.88961	0.312
8.92858	0.331
8.96754	0.325
9.00651	0.284
9.04547	0.216
9.08443	0.152
9.1234	0.131
9.16236	0.177
9.20132	0.202
9.24029	0.184
9.27925	0.131
9.31822	0.077
9.35718	0.045
9.39614	0.035
9.43511	0.029
9.47407	0.025
9.51303	0.024
9.552	0.021
9.59096	0.021
9.62993	0.022
9.66889	0.019
9.70785	0.019
9.74682	0.017
9.78578	0.017
9.82474	0.019
9.86371	0.03
9.90267	0.082
9.94164	0.166
9.9806	0.239
10.0196	0.31
10.0585	0.315
10.0975	0.283
10.1365	0.216
10.1754	0.131
10.2144	0.071
10.2533	0.042
10.2923	0.029
10.3313	0.024
10.3702	0.021
10.4092	0.021
10.4482	0.022
10.4871	0.024
10.5261	0.025
10.5651	0.027
10.604	0.032
10.643	0.04
10.6819	0.064
10.7209	0.106
10.7599	0.197
10.7988	0.334
10.8378	0.43
10.8768	0.529
10.9157	0.608
10.9547	0.663
10.9937	0.707
11.0326	0.731
11.0716	0.752
11.1105	0.766
11.1495	0.77
11.1885	0.778
11.2274	0.784
11.2664	0.789
11.3054	0.789
11.3443	0.789
11.3833	0.786
11.4223	0.768
11.4612	0.754
11.5002	0.749
11.5391	0.731
11.5781	0.715
11.6171	0.673
11.656	0.629
11.695	0.58
11.734	0.525
11.7729	0.474
11.8119	0.394
11.8509	0.33
11.8898	0.296
11.9288	0.265
11.9677	0.258
12.0067	0.257
12.0457	0.258
12.0846	0.27
12.1236	0.291
12.1626	0.313
12.2015	0.32
12.2405	0.318
12.2795	0.313
12.3184	0.299
12.3574	0.279
12.3963	0.254
12.4353	0.226
12.4743	0.189
12.5132	0.153
12.5522	0.134
12.5912	0.127
12.6301	0.129
12.6691	0.14
12.7081	0.171
12.747	0.211
12.786	0.249
12.825	0.297
12.8639	0.322
12.9029	0.344
12.9418	0.362
12.9808	0.373
13.0198	0.391
13.0587	0.407
13.0977	0.43
13.1367	0.454
13.1756	0.477
13.2146	0.517
13.2536	0.545
13.2925	0.567
13.3315	0.601
13.3704	0.627
13.4094	0.647
13.4484	0.656
13.4873	0.669
13.5263	0.674
13.5653	0.677
13.6042	0.679
13.6432	0.677
13.6822	0.677
13.7211	0.677
13.7601	0.671
13.799	0.658
13.838	0.647
13.877	0.634
13.9159	0.622
13.9549	0.613
13.9939	0.605
14.0328	0.598
14.0718	0.593
14.1108	0.592
14.1497	0.59
14.1887	0.59
14.2276	0.59
14.2666	0.59
14.3056	0.592
14.3445	0.593
14.3835	0.597
14.4225	0.6
14.4614	0.605
14.5004	0.616
14.5394	0.622
14.5783	0.629
14.6173	0.639
14.6562	0.647
14.6952	0.65
14.7342	0.652
14.7731	0.652
14.8121	0.653
14.8511	0.655
14.89	0.655
14.929	0.655
14.968	0.655
15.0069	0.653
15.0459	0.65
15.0848	0.647
15.1238	0.645
15.1628	0.645
15.2017	0.64
15.2407	0.639
15.2797	0.635
15.3186	0.631
15.3576	0.627
15.3966	0.622
15.4355	0.621
15.4745	0.616
15.5134	0.61
15.5524	0.606
15.5914	0.603
15.6303	0.6
15.6693	0.597
15.7083	0.593
15.7472	0.592
15.7862	0.59
15.8252	0.588
15.8641	0.588
15.9031	0.587
15.942	0.585
15.981	0.582
