Infrared Spectrum: PENTACHLOROPHENYL SALICYLATE
Formula: C13 H5 Cl5 O3
CAS: 36994-69-1
State: SOLID (MINERAL OIL MULL)
Class: COBLENTZ
Instrument: Not specified, most likely a prism, grating, or hybrid spectrometer.
Sampling: TRANSMISSION
Resolution: 4
Origin: DOW CHEMICAL COMPANY
MICROMETERS	TRANSMITTANCE
2.02	0.334
2.0592	0.345
2.09839	0.355
2.13759	0.362
2.17678	0.371
2.21598	0.379
2.25517	0.384
2.29437	0.391
2.33356	0.399
2.37276	0.409
2.41195	0.418
2.45115	0.426
2.49034	0.435
2.52954	0.441
2.56873	0.448
2.60793	0.457
2.64712	0.464
2.68632	0.472
2.72552	0.48
2.76471	0.487
2.80391	0.491
2.8431	0.498
2.8823	0.504
2.92149	0.509
2.96069	0.511
2.99988	0.503
3.03908	0.464
3.07827	0.375
3.11747	0.415
3.15666	0.465
3.19586	0.485
3.23505	0.49
3.27425	0.487
3.31344	0.465
3.35264	0.288
3.39184	0.113
3.43103	0.137
3.47023	0.209
3.50942	0.36
3.54862	0.568
3.58781	0.586
3.62701	0.594
3.6662	0.599
3.7054	0.602
3.74459	0.607
3.78379	0.613
3.82298	0.62
3.86218	0.629
3.90137	0.641
3.94057	0.642
3.97976	0.65
4.01896	0.659
4.05816	0.662
4.09735	0.668
4.13655	0.67
4.17574	0.672
4.21494	0.662
4.25413	0.665
4.29333	0.686
4.33252	0.693
4.37172	0.693
4.41091	0.689
4.45011	0.699
4.4893	0.706
4.5285	0.711
4.56769	0.712
4.60689	0.714
4.64608	0.717
4.68528	0.72
4.72448	0.724
4.76367	0.724
4.80287	0.728
4.84206	0.737
4.88126	0.74
4.92045	0.75
4.95965	0.741
4.99884	0.75
5.03804	0.753
5.07723	0.748
5.11643	0.754
5.15562	0.75
5.19482	0.75
5.23401	0.754
5.27321	0.762
5.3124	0.767
5.3516	0.769
5.3908	0.762
5.42999	0.771
5.46919	0.766
5.50838	0.764
5.54758	0.769
5.58677	0.769
5.62597	0.754
5.66516	0.727
5.70436	0.668
5.74355	0.568
5.78275	0.524
5.82194	0.43
5.86114	0.225
5.90033	0.301
5.93953	0.491
5.97872	0.603
6.01792	0.662
6.05712	0.719
6.09631	0.722
6.13551	0.615
6.1747	0.482
6.2139	0.628
6.25309	0.563
6.29229	0.543
6.33148	0.646
6.37068	0.758
6.40987	0.767
6.44907	0.764
6.48826	0.771
6.52746	0.771
6.56665	0.748
6.60585	0.696
6.64504	0.667
6.68424	0.501
6.72344	0.521
6.76263	0.446
6.80183	0.277
6.84102	0.386
6.88022	0.517
6.91941	0.59
6.95861	0.646
6.9978	0.67
7.037	0.67
7.07619	0.577
7.11539	0.451
7.15458	0.301
7.19378	0.206
7.23297	0.196
7.27217	0.344
7.31137	0.271
7.35056	0.433
7.38976	0.538
7.42895	0.607
7.46815	0.584
7.50734	0.5
7.54654	0.587
7.58573	0.566
7.62493	0.448
7.66412	0.254
7.70332	0.146
7.74251	0.146
7.78171	0.202
7.8209	0.264
7.8601	0.366
7.89929	0.386
7.93849	0.35
7.97769	0.243
8.01688	0.248
8.05608	0.386
8.09527	0.456
8.13447	0.475
8.17366	0.443
8.21286	0.402
8.25205	0.308
8.29125	0.217
8.33044	0.319
8.36964	0.483
8.40883	0.534
8.44803	0.483
8.48722	0.48
8.52642	0.477
8.56561	0.285
8.60481	0.404
8.64401	0.607
8.6832	0.683
8.7224	0.702
8.76159	0.59
8.80079	0.381
8.83998	0.267
8.87918	0.392
8.91837	0.448
8.95757	0.467
8.99676	0.571
9.03596	0.639
9.07515	0.681
9.11435	0.711
9.15354	0.735
9.19274	0.75
9.23193	0.753
9.27113	0.745
9.31033	0.712
9.34952	0.639
9.38872	0.508
9.42791	0.344
9.46711	0.185
9.5063	0.094
9.5455	0.147
9.58469	0.285
9.62389	0.347
9.66308	0.396
9.70228	0.474
9.74147	0.534
9.78067	0.569
9.81986	0.6
9.85906	0.621
9.89825	0.646
9.93745	0.665
9.97665	0.685
10.0158	0.699
10.055	0.711
10.0942	0.717
10.1334	0.715
10.1726	0.715
10.2118	0.738
10.251	0.743
10.2902	0.741
10.3294	0.711
10.3686	0.68
10.4078	0.719
10.447	0.738
10.4862	0.732
10.5254	0.728
10.5646	0.737
10.6038	0.741
10.643	0.75
10.6822	0.751
10.7214	0.751
10.7606	0.745
10.7997	0.756
10.8389	0.756
10.8781	0.759
10.9173	0.761
10.9565	0.764
10.9957	0.766
11.0349	0.767
11.0741	0.769
11.1133	0.769
11.1525	0.771
11.1917	0.766
11.2309	0.759
11.2701	0.751
11.3093	0.764
11.3485	0.771
11.3877	0.771
11.4269	0.75
11.4661	0.663
11.5053	0.594
11.5445	0.629
11.5837	0.67
11.6228	0.701
11.662	0.732
11.7012	0.75
11.7404	0.756
11.7796	0.761
11.8188	0.764
11.858	0.766
11.8972	0.766
11.9364	0.751
11.9756	0.704
12.0148	0.66
12.054	0.707
12.0932	0.762
12.1324	0.769
12.1716	0.774
12.2108	0.775
12.25	0.775
12.2892	0.775
12.3284	0.775
12.3676	0.774
12.4068	0.771
12.4459	0.767
12.4851	0.764
12.5243	0.764
12.5635	0.762
12.6027	0.759
12.6419	0.756
12.6811	0.746
12.7203	0.738
12.7595	0.746
12.7987	0.751
12.8379	0.732
12.8771	0.683
12.9163	0.556
12.9555	0.443
12.9947	0.365
13.0339	0.435
13.0731	0.511
13.1123	0.511
13.1515	0.448
13.1907	0.321
13.2299	0.214
13.2691	0.201
13.3082	0.331
13.3474	0.472
13.3866	0.592
13.4258	0.65
13.465	0.672
13.5042	0.68
13.5434	0.68
13.5826	0.672
13.6218	0.66
13.661	0.629
13.7002	0.581
13.7394	0.506
13.7786	0.392
13.8178	0.301
13.857	0.355
13.8962	0.457
13.9354	0.548
13.9746	0.589
14.0138	0.61
14.053	0.615
14.0922	0.62
14.1313	0.618
14.1705	0.607
14.2097	0.594
14.2489	0.573
14.2881	0.535
14.3273	0.491
14.3665	0.43
14.4057	0.392
14.4449	0.4
14.4841	0.448
14.5233	0.496
14.5625	0.514
14.6017	0.504
14.6409	0.485
14.6801	0.449
14.7193	0.405
14.7585	0.358
14.7977	0.311
14.8369	0.277
14.8761	0.253
14.9153	0.246
14.9544	0.261
14.9936	0.295
15.0328	0.321
15.072	0.34
15.1112	0.36
15.1504	0.379
15.1896	0.397
15.2288	0.409
15.268	0.417
15.3072	0.422
15.3464	0.428
15.3856	0.43
15.4248	0.431
15.464	0.431
15.5032	0.431
15.5424	0.43
15.5816	0.428
15.6208	0.423
15.66	0.42
15.6992	0.417
15.7384	0.412
15.7775	0.409
15.8167	0.404
15.8559	0.404
15.8951	0.409
