Infrared Spectrum: 1-(2-Hydroxyethyl)-2-imidazolidinone
Formula: C 5 H 10 N 2 O 2
CAS: 3699-54-5
State: gas
Origin: EPA-IR VAPOR PHASE LIBRARY
1/CM	ABSORBANCE
549.8	0.00704
559.445	0.00682
569.09	0.00689
578.734	0.00702
588.379	0.00672
598.024	0.00651
607.669	0.00633
617.313	0.00632
626.958	0.00578
636.603	0.00519
646.248	0.00488
655.893	0.0045
665.537	0.00401
675.182	0.00319
684.827	0.00322
694.472	0.00423
704.116	0.00582
713.761	0.00717
723.406	0.00711
733.051	0.0066
742.695	0.00703
752.34	0.00874
761.985	0.00986
771.63	0.00906
781.275	0.00699
790.919	0.00526
800.564	0.00454
810.209	0.0039
819.854	0.00372
829.498	0.00363
839.143	0.00402
848.788	0.00474
858.433	0.00519
868.078	0.00499
877.722	0.00452
887.367	0.00439
897.012	0.00434
906.657	0.00428
916.301	0.00435
925.946	0.00493
935.591	0.00544
945.236	0.00597
954.88	0.00581
964.525	0.00532
974.17	0.00466
983.815	0.00484
993.46	0.00594
1003.1	0.00752
1012.75	0.01049
1022.39	0.01364
1032.04	0.01715
1041.68	0.02128
1051.33	0.0254
1060.97	0.02904
1070.62	0.02959
1080.26	0.02474
1089.91	0.01669
1099.55	0.01037
1109.2	0.00788
1118.84	0.00771
1128.49	0.00636
1138.13	0.006
1147.78	0.00559
1157.42	0.00612
1167.07	0.00704
1176.71	0.00808
1186.36	0.00936
1196	0.01044
1205.64	0.01219
1215.29	0.01459
1224.93	0.01793
1234.58	0.02163
1244.22	0.02573
1253.87	0.03516
1263.51	0.04945
1273.16	0.05151
1282.8	0.03593
1292.45	0.0203
1302.09	0.01576
1311.74	0.01442
1321.38	0.0125
1331.03	0.01018
1340.67	0.00987
1350.32	0.01227
1359.96	0.01504
1369.61	0.01412
1379.25	0.01189
1388.9	0.01332
1398.54	0.02054
1408.18	0.0355
1417.83	0.0483
1427.47	0.04737
1437.12	0.03493
1446.76	0.0243
1456.41	0.01511
1466.05	0.00972
1475.7	0.01279
1485.34	0.02374
1494.99	0.02394
1504.63	0.0126
1514.28	0.00583
1523.92	0.00398
1533.57	0.00317
1543.21	0.00257
1552.86	0.00224
1562.5	0.00205
1572.15	0.00201
1581.79	0.0019
1591.44	0.00189
1601.08	0.0018
1610.73	0.00174
1620.37	0.00184
1630.01	0.00193
1639.66	0.0023
1649.3	0.00266
1658.95	0.00321
1668.59	0.00388
1678.24	0.00519
1687.88	0.00728
1697.53	0.01086
1707.17	0.01778
1716.82	0.03408
1726.46	0.06791
1736.11	0.11607
1745.75	0.16182
1755.4	0.15628
1765.04	0.10467
1774.69	0.04145
1784.33	0.01596
1793.98	0.00837
1803.62	0.00542
1813.27	0.00385
1822.91	0.00302
1832.55	0.00258
1842.2	0.0022
1851.84	0.00204
1861.49	0.00185
1871.13	0.00166
1880.78	0.00148
1890.42	0.00146
1900.07	0.00142
1909.71	0.00132
1919.36	0.00134
1929	0.00128
1938.65	0.00121
1948.29	0.00107
1957.94	0.000958
1967.58	0.0009516
1977.23	0.0009167
1986.87	0.0008294
1996.52	0.000848
2006.16	0.0008249
2015.81	0.0008792
2025.45	0.0008555
2035.1	0.0008938
2044.74	0.0009029
2054.38	0.0008086
2064.03	0.0008169
2073.67	0.0007536
2083.32	0.0007332
2092.96	0.0007401
2102.61	0.0006897
2112.25	0.0007107
2121.9	0.0007568
2131.54	0.0007037
2141.19	0.0007233
2150.83	0.0006843
2160.48	0.0007725
2170.12	0.000679
2179.77	0.0007275
2189.41	0.0006541
2199.06	0.0007486
2208.7	0.0006527
2218.35	0.000648
2227.99	0.0005965
2237.64	0.0005715
2247.28	0.0005225
2256.92	0.0005158
2266.57	0.0005145
2276.21	0.0005485
2285.86	0.0005375
2295.5	0.000509
2305.15	0.0005605
2314.79	0.000484
2324.44	0.000552
2334.08	0.0006665
2343.73	0.0006519
2353.37	0.0006715
2363.02	0.0007551
2372.66	0.0007172
2382.31	0.0007316
2391.95	0.0006701
2401.6	0.0006257
2411.24	0.0006577
2420.89	0.0006408
2430.53	0.0007383
2440.18	0.0007693
2449.82	0.0007793
2459.47	0.0008305
2469.11	0.0008503
2478.75	0.0007804
2488.4	0.0008311
2498.04	0.0008308
2507.69	0.0008292
2517.33	0.0007663
2526.98	0.000648
2536.62	0.0006104
2546.27	0.0006257
2555.91	0.0006777
2565.56	0.0005697
2575.2	0.0006122
2584.85	0.0006685
2594.49	0.0006259
2604.14	0.0006873
2613.78	0.0006797
2623.43	0.0007008
2633.07	0.0007734
2642.72	0.0008485
2652.36	0.000767
2662.01	0.0009022
2671.65	0.00112
2681.29	0.00132
2690.94	0.0016
2700.58	0.00184
2710.23	0.00198
2719.87	0.00202
2729.52	0.00185
2739.16	0.00178
2748.81	0.00193
2758.45	0.0023
2768.1	0.00264
2777.74	0.00307
2787.39	0.00355
2797.03	0.00405
2806.68	0.00464
2816.32	0.00554
2825.97	0.00708
2835.61	0.00938
2845.26	0.01295
2854.9	0.01751
2864.55	0.02244
2874.19	0.02818
2883.84	0.03367
2893.48	0.03459
2903.12	0.03123
2912.77	0.02848
2922.41	0.02758
2932.06	0.02833
2941.7	0.02994
2951.35	0.02934
2960.99	0.02394
2970.64	0.01722
2980.28	0.01298
2989.93	0.01117
2999.57	0.00879
3009.22	0.00568
3018.86	0.0033
3028.51	0.00241
3038.15	0.00191
3047.8	0.00151
3057.44	0.00132
3067.09	0.0013
3076.73	0.0009707
3086.38	0.000829
3096.02	0.0007741
3105.67	0.0007086
3115.31	0.0006677
3124.95	0.0007066
3134.6	0.0007352
3144.24	0.0007892
3153.89	0.0006597
3163.53	0.0005956
3173.18	0.0004619
3182.82	0.0003594
3192.47	0.0005765
3202.11	0.0004335
3211.76	0.0004843
3221.4	0.0005951
3231.05	0.0006115
3240.69	0.0006323
3250.34	0.0007614
3259.98	0.0008417
3269.63	0.00101
3279.27	0.00103
3288.92	0.00101
3298.56	0.00103
3308.21	0.001
3317.85	0.00107
3327.49	0.001
3337.14	0.00103
3346.78	0.0009541
3356.43	0.0009979
3366.07	0.0009895
3375.72	0.00117
3385.36	0.00112
3395.01	0.00134
3404.65	0.00156
3414.3	0.00187
3423.94	0.00263
3433.59	0.00386
3443.23	0.00569
3452.88	0.00767
3462.52	0.0106
3472.17	0.01782
3481.81	0.02256
3491.46	0.01925
3501.1	0.01017
3510.75	0.00604
3520.39	0.00468
3530.04	0.00383
3539.68	0.00331
3549.32	0.00279
3558.97	0.00255
3568.61	0.00246
3578.26	0.00228
3587.9	0.00198
3597.55	0.00216
3607.19	0.00202
3616.84	0.00211
3626.48	0.00194
3636.13	0.00189
3645.77	0.00205
3655.42	0.00321
3665.06	0.00429
3674.71	0.00407
3684.35	0.00284
3694	0.00164
3703.64	0.00112
3713.29	0.0008627
3722.93	0.0005782
3732.58	0.0005933
3742.22	0.0004734
3751.86	0.0005915
3761.51	0.0005415
3771.15	0.0005226
3780.8	0.0004756
3790.44	0.0004132
3800.09	0.0005885
3809.73	0.0003942
3819.38	0.0004878
3829.02	0.0004573
3838.67	0.0005663
3848.31	0.000383
3857.96	0.0004721
3867.6	0.0003441
3877.25	0.000472
3886.89	0.0004962
3896.54	0.0004269
3906.18	0.0006
3915.83	0.0003651
3925.47	0.00048
3935.12	0.0004278
3944.76	0.0006114
3954.41	0.0004205
3964.05	0.0004141
3973.69	0.0005609
3983.34	0.0005442
3992.98	0.0004812
