Infrared Spectrum: Isopropyl m-trifluoromethylcarbanilate
Formula: C 11 H 12 F 3 N O 2
CAS: 370-56-9
State: gas
Origin: EPA-IR VAPOR PHASE LIBRARY
1/CM	ABSORBANCE
551.7	0.01008
563.274	0.00707
574.848	0.00531
586.421	0.00438
597.995	0.00365
609.569	0.00468
621.143	0.00392
632.717	0.00378
644.291	0.00585
655.864	0.01814
667.438	0.01704
679.012	0.01093
690.586	0.02625
702.16	0.02777
713.734	0.00813
725.307	0.00538
736.881	0.00907
748.455	0.0162
760.029	0.01494
771.603	0.02422
783.177	0.03332
794.75	0.033
806.324	0.01253
817.898	0.00933
829.472	0.01567
841.046	0.01154
852.619	0.00679
864.193	0.01117
875.767	0.01839
887.341	0.02976
898.915	0.0453
910.489	0.03203
922.062	0.01924
933.636	0.01714
945.21	0.0121
956.784	0.00781
968.358	0.00802
979.932	0.00853
991.505	0.0111
1003.08	0.01542
1014.65	0.01809
1026.23	0.03092
1037.8	0.04573
1049.37	0.04388
1060.95	0.04411
1072.52	0.07339
1084.1	0.06131
1095.67	0.09768
1107.24	0.13294
1118.82	0.15335
1130.39	0.16058
1141.97	0.27982
1153.54	0.24431
1165.11	0.19428
1176.69	0.32164
1188.26	0.28437
1199.83	0.32944
1211.41	0.25691
1222.98	0.13557
1234.56	0.13135
1246.13	0.07158
1257.7	0.05177
1269.28	0.06369
1280.85	0.086
1292.42	0.10458
1304	0.112
1315.57	0.12514
1327.15	0.27309
1338.72	0.23934
1350.29	0.06484
1361.87	0.04898
1373.44	0.05335
1385.02	0.05032
1396.59	0.04164
1408.16	0.03175
1419.74	0.04741
1431.31	0.07905
1442.88	0.14133
1454.46	0.08324
1466.03	0.04994
1477.61	0.05666
1489.18	0.09379
1500.75	0.11521
1512.33	0.14488
1523.9	0.22331
1535.48	0.15357
1547.05	0.0637
1558.62	0.03522
1570.2	0.02657
1581.77	0.02804
1593.34	0.04028
1604.92	0.04061
1616.49	0.04487
1628.07	0.02513
1639.64	0.01184
1651.21	0.00923
1662.79	0.00905
1674.36	0.00961
1685.93	0.01109
1697.51	0.01377
1709.08	0.01672
1720.66	0.02186
1732.23	0.04325
1743.8	0.1272
1755.38	0.2375
1766.95	0.14587
1778.53	0.04264
1790.1	0.02048
1801.67	0.01412
1813.25	0.01264
1824.82	0.00985
1836.39	0.00665
1847.97	0.00505
1859.54	0.00451
1871.12	0.004
1882.69	0.00388
1894.26	0.00296
1905.84	0.00258
1917.41	0.00273
1928.99	0.0032
1940.56	0.00295
1952.13	0.00262
1963.71	0.0021
1975.28	0.00189
1986.85	0.00176
1998.43	0.00166
2010	0.00153
2021.58	0.00155
2033.15	0.00169
2044.72	0.00172
2056.3	0.00173
2067.87	0.00191
2079.44	0.002
2091.02	0.00174
2102.59	0.00155
2114.17	0.00154
2125.74	0.00159
2137.31	0.00158
2148.89	0.00144
2160.46	0.00139
2172.04	0.00148
2183.61	0.00169
2195.18	0.00212
2206.76	0.00246
2218.33	0.00283
2229.9	0.00312
2241.48	0.00357
2253.05	0.00385
2264.63	0.00436
2276.2	0.00495
2287.77	0.00365
2299.35	0.0024
2310.92	0.00216
2322.5	0.00212
2334.07	0.00199
2345.64	0.00205
2357.22	0.0019
2368.79	0.00176
2380.36	0.00177
2391.94	0.00154
2403.51	0.00143
2415.09	0.00135
2426.66	0.0013
2438.23	0.00128
2449.81	0.00126
2461.38	0.00152
2472.96	0.00162
2484.53	0.00155
2496.1	0.00146
2507.68	0.00155
2519.25	0.00164
2530.82	0.00156
2542.4	0.00135
2553.97	0.00136
2565.55	0.00144
2577.12	0.00123
2588.69	0.00116
2600.27	0.00113
2611.84	0.00111
2623.41	0.0011
2634.99	0.0011
2646.56	0.00116
2658.14	0.00139
2669.71	0.00124
2681.28	0.00112
2692.86	0.00102
2704.43	0.00107
2716.01	0.00116
2727.58	0.00127
2739.15	0.00152
2750.73	0.00153
2762.3	0.00142
2773.87	0.00138
2785.45	0.00135
2797.02	0.00136
2808.6	0.00152
2820.17	0.00176
2831.74	0.00208
2843.32	0.00213
2854.89	0.00269
2866.47	0.00382
2878.04	0.00643
2889.61	0.00925
2901.19	0.00817
2912.76	0.00871
2924.33	0.01084
2935.91	0.01782
2947.48	0.02266
2959.06	0.01558
2970.63	0.02007
2982.2	0.05141
2993.78	0.04857
3005.35	0.01803
3016.92	0.00909
3028.5	0.0069
3040.07	0.00642
3051.65	0.00712
3063.22	0.0068
3074.79	0.00629
3086.37	0.00671
3097.94	0.00599
3109.52	0.00425
3121.09	0.00314
3132.66	0.00232
3144.24	0.00191
3155.81	0.00155
3167.38	0.00145
3178.96	0.00149
3190.53	0.00152
3202.11	0.00129
3213.68	0.00112
3225.25	0.0009121
3236.83	0.000789
3248.4	0.0006084
3259.98	0.0003468
3271.55	0.0003106
3283.12	0.000398
3294.7	0.0002852
3306.27	0.0002369
3317.84	0.00029
3329.42	0.0002751
3340.99	0.0003307
3352.57	0.0003852
3364.14	0.0005209
3375.71	0.0006246
3387.29	0.0006947
3398.86	0.0008526
3410.43	0.00119
3422.01	0.00192
3433.58	0.00404
3445.16	0.01022
3456.73	0.02071
3468.3	0.02352
3479.88	0.00935
3491.45	0.0041
3503.03	0.00292
3514.6	0.00181
3526.17	0.00115
3537.75	0.0008314
3549.32	0.0003181
3560.89	0.0003027
3572.47	0.0001472
3584.04	0.0001317
3595.62	0.0001836
3607.19	9.572e-05
3618.76	0.0001391
3630.34	0.0001497
3641.91	0.0001054
3653.49	0.0001632
3665.06	0.0002009
3676.63	0.0001884
3688.21	0.0003157
3699.78	0.0003273
3711.35	0.0002176
3722.93	0.0003366
3734.5	0.0002112
3746.08	0.0002645
3757.65	0.0003487
3769.22	0.0001625
3780.8	0.0002508
3792.37	0.0002442
3803.94	0.0002762
3815.52	0.0004436
3827.09	0.0003328
3838.67	0.0001821
3850.24	0.000308
3861.81	0.0002313
3873.39	0.0003398
3884.96	0.0004158
3896.54	0.0002308
3908.11	0.0003258
3919.68	0.0003584
3931.26	0.0002896
3942.83	0.0003421
3954.4	0.0003905
3965.98	0.0004469
3977.55	0.0005376
3989.13	0.0004521
4000.7	0.0004639
