Infrared Spectrum: MALONIC ACID, (Alpha,Alpha,Alpha-TRIFLUORO-m-TOLUIDINE)METHYLENE-, DIETHYL ESTER
Formula: C15 H16 F3 N O4
CAS: 370-35-4
State: SOLUTION (10% CCl4 FOR 3800-1330, 10% CS2 FOR 1330-400 CM^-^1)
Class: COBLENTZ III
Instrument: BECKMAN IR-9 (GRATING)
Instrument parameters: ORDER CHANGES: 670, 1200, 2000 CM^-^1
Sampling: TRANSMISSION
Path length: 0.011 CM, 0.011 CM
Resolution: 2
Origin: DOW CHEMICAL COMPANY
1/CM	TRANSMITTANCE
400	0.2159
409	0.1936
418	0.3589
427	0.5155
436	0.6052
445	0.6653
454	0.6643
463	0.7032
472	0.7421
481	0.7815
490	0.7853
499	0.82
508	0.8503
517	0.849
526	0.7871
535	0.867
544	0.8704
553	0.8557
562	0.6919
571	0.6615
580	0.7435
589	0.7634
598	0.8656
607	0.8686
616	0.8673
625	0.859
634	0.8385
643	0.8134
652	0.7197
661	0.6805
670	0.7289
679	0.7162
688	0.7256
697	0.4057
706	0.6383
715	0.6711
724	0.6519
733	0.613
742	0.55
751	0.5941
760	0.6592
769	0.6569
778	0.6319
787	0.1735
796	0.1895
805	0.1768
814	0.4039
823	0.6351
832	0.7248
841	0.7295
850	0.6414
859	0.53
868	0.421
877	0.3312
886	0.6302
895	0.6253
904	0.6594
913	0.6603
922	0.5662
931	0.6556
940	0.7899
949	0.7933
958	0.7357
967	0.6105
976	0.49
985	0.5466
994	0.6278
1003	0.6254
1012	0.5729
1021	0.3814
1030	0.2031
1039	0.4386
1048	0.5472
1057	0.4741
1066	0.1305
1075	0.0203
1084	0.1178
1093	0.0754
1102	0.0541
1111	0.385
1120	0.3493
1129	0.0753
1138	0.0049
1147	0.2153
1156	0.2965
1165	0.1161
1174	0.0134
1183	0.1149
1192	0.2141
1201	0.0224
1210	0.0523
1219	0.0109
1228	0.0016
1237	0.0018
1246	0.0019
1255	0.002
1264	0.0119
1273	0.0695
1282	0.0119
1291	0.0906
1300	0.0467
1309	0.1518
1318	0.1442
1327	0.0074
1336	0.006
1345	0.086
1354	0.0812
1363	0.2964
1372	0.3079
1381	0.1225
1390	0.2384
1399	0.299
1408	0.1785
1417	0.0217
1426	0.2128
1435	0.2845
1444	0.3803
1453	0.3778
1462	0.1836
1471	0.2289
1480	0.3117
1489	0.5154
1498	0.4455
1507	0.486
1516	0.5573
1525	0.5628
1534	0.5698
1543	0.5446
1552	0.358
1561	0.3545
1570	0.3547
1579	0.2563
1588	0.0276
1597	0.0077
1606	0.0081
1615	0.0073
1624	0.0098
1633	0.0254
1642	0.0679
1651	0.0143
1660	0.0051
1669	0.0162
1678	0.1046
1687	0.146
1696	0.0135
1705	0.0174
1714	0.115
1723	0.0606
1732	0.0372
1741	0.3153
1750	0.5156
1759	0.6062
1768	0.6789
1777	0.7288
1786	0.7633
1795	0.7808
1804	0.7936
1813	0.8034
1822	0.8118
1831	0.818
1840	0.8239
1849	0.8267
1858	0.8282
1867	0.8268
1876	0.8228
1885	0.8328
1894	0.8418
1903	0.8467
1912	0.8497
1921	0.8506
1930	0.8498
1939	0.8374
1948	0.8168
1957	0.8296
1966	0.8432
1975	0.853
1984	0.8615
1993	0.8657
2002	0.867
2011	0.8747
2020	0.8755
2029	0.8749
2038	0.8737
2047	0.8731
2056	0.8723
2065	0.8709
2074	0.8689
2083	0.8655
2092	0.8609
2101	0.8558
2110	0.8525
2119	0.8581
2128	0.8635
2137	0.8681
2146	0.8723
2155	0.8754
2164	0.8774
2173	0.8775
2182	0.8773
2191	0.8751
2200	0.872
2209	0.8691
2218	0.8698
2227	0.8707
2236	0.8695
2245	0.8652
2254	0.8588
2263	0.852
2272	0.8483
2281	0.8463
2290	0.8468
2299	0.8475
2308	0.8488
2317	0.8501
2326	0.8509
2335	0.8517
2344	0.8533
2353	0.8548
2362	0.857
2371	0.8627
2380	0.8664
2389	0.8651
2398	0.8621
2407	0.8596
2416	0.8577
2425	0.8585
2434	0.8621
2443	0.8652
2452	0.8655
2461	0.8571
2470	0.849
2479	0.8483
2488	0.8481
2497	0.8464
2506	0.8413
2515	0.8361
2524	0.8346
2533	0.8409
2542	0.8489
2551	0.8566
2560	0.8593
2569	0.8593
2578	0.8595
2587	0.8597
2596	0.8573
2605	0.8521
2614	0.8475
2623	0.8488
2632	0.8501
2641	0.8541
2650	0.8564
2659	0.8558
2668	0.8571
2677	0.8613
2686	0.8649
2695	0.8639
2704	0.8631
2713	0.862
2722	0.8609
2731	0.859
2740	0.857
2749	0.8548
2758	0.8525
2767	0.8502
2776	0.8478
2785	0.8454
2794	0.8415
2803	0.8373
2812	0.8317
2821	0.8266
2830	0.8244
2839	0.8243
2848	0.8233
2857	0.8103
2866	0.7831
2875	0.7045
2884	0.7349
2893	0.7354
2902	0.6055
2911	0.5703
2920	0.6382
2929	0.6225
2938	0.5477
2947	0.5373
2956	0.5909
2965	0.5107
2974	0.487
2983	0.3577
2992	0.2404
3001	0.3455
3010	0.549
3019	0.6819
3028	0.7308
3037	0.7425
3046	0.7443
3055	0.7368
3064	0.7381
3073	0.7169
3082	0.716
3091	0.7215
3100	0.7256
3109	0.7251
3118	0.724
3127	0.7197
3136	0.7098
3145	0.6957
3154	0.6799
3163	0.6581
3172	0.6368
3181	0.6232
3190	0.6212
3199	0.6231
3208	0.6307
3217	0.6343
3226	0.6321
3235	0.6335
3244	0.6362
3253	0.6331
3262	0.6257
3271	0.6229
3280	0.6346
3289	0.659
3298	0.6793
3307	0.7011
3316	0.7205
3325	0.7393
3334	0.759
3343	0.7711
3352	0.7821
3361	0.7931
3370	0.8
3379	0.8076
3388	0.813
3397	0.8175
3406	0.8218
3415	0.8253
3424	0.8278
3433	0.8306
3442	0.8335
3451	0.8364
3460	0.8408
3469	0.8447
3478	0.8475
3487	0.8493
3496	0.8509
3505	0.8524
3514	0.8538
3523	0.855
3532	0.8564
3541	0.857
3550	0.8574
3559	0.8578
3568	0.8582
3577	0.8575
3586	0.8536
3595	0.8573
3604	0.8641
3613	0.8598
3622	0.8603
3631	0.8631
3640	0.8663
3649	0.8682
3658	0.8695
3667	0.8692
3676	0.8688
3685	0.868
3694	0.867
3703	0.867
3712	0.8671
3721	0.868
3730	0.869
3739	0.8694
3748	0.8697
3757	0.8688
3766	0.8682
3775	0.8685
3784	0.8689
3793	0.8692
