Infrared Spectrum: ETHANETHIOSULFONIC ACID, 2-AMINO-N-(1,1-DIOXOTETRAHYDROTHIOPHEN-3-YL)-
Formula: C6 H13 N O5 S3
CAS: 37018-35-2
State: SOLID (1 mg / 500 mg KBr DISC)
Class: COBLENTZ III
Instrument: PERKIN-ELMER 621
Sampling: TRANSMISSION
Resolution: 4
Origin: SOUTHERN RESEARCH INSTITUTE
1/CM	TRANSMITTANCE
262.051	0.166
272.55	0.2108
283.048	0.3799
293.547	0.4238
304.046	0.4319
314.544	0.4568
325.043	0.4571
335.542	0.4848
346.04	0.5615
356.539	0.576
367.038	0.5391
377.537	0.5167
388.035	0.5622
398.534	0.5584
409.033	0.5596
419.531	0.4221
430.03	0.6224
440.529	0.602
451.027	0.5425
461.526	0.3885
472.025	0.5334
482.523	0.5818
493.022	0.6551
503.521	0.6356
514.019	0.5138
524.518	0.3914
535.017	0.4866
545.516	0.4845
556.014	0.5161
566.513	0.4378
577.012	0.6038
587.51	0.5512
598.009	0.522
608.508	0.4872
619.006	0.3073
629.505	0.0843
640.004	0.0851
650.502	0.4487
661.001	0.6704
671.5	0.7501
681.998	0.6915
692.497	0.7112
702.996	0.8253
713.494	0.839
723.993	0.8217
734.492	0.762
744.991	0.6401
755.489	0.7187
765.988	0.739
776.487	0.6817
786.985	0.7325
797.484	0.742
807.983	0.7045
818.481	0.6105
828.98	0.646
839.479	0.6337
849.977	0.6666
860.476	0.6918
870.975	0.6321
881.473	0.4793
891.972	0.5119
902.471	0.6123
912.969	0.637
923.468	0.6821
933.967	0.656
944.466	0.6029
954.964	0.5426
965.463	0.539
975.962	0.5315
986.46	0.4198
996.959	0.3597
1007.46	0.218
1017.96	0.064
1028.46	0.1785
1038.95	0.5511
1049.45	0.555
1059.95	0.4819
1070.45	0.5042
1080.95	0.4186
1091.45	0.4019
1101.95	0.3048
1112.44	0.3088
1122.94	0.15
1133.44	0.1993
1143.94	0.1892
1154.44	0.1967
1164.94	0.1634
1175.44	0.112
1185.94	0.1082
1196.43	0.096
1206.93	0.095
1217.43	0.0886
1227.93	0.0907
1238.43	0.1358
1248.93	0.2542
1259.43	0.366
1269.92	0.2547
1280.42	0.3484
1290.92	0.2038
1301.42	0.1534
1311.92	0.1018
1322.42	0.1492
1332.92	0.3895
1343.42	0.5157
1353.91	0.589
1364.41	0.6026
1374.91	0.6265
1385.41	0.6375
1395.91	0.5968
1406.41	0.439
1416.91	0.4777
1427.41	0.537
1437.9	0.4786
1448.4	0.4013
1458.9	0.4654
1469.4	0.4675
1479.9	0.5737
1490.4	0.7145
1500.9	0.7895
1511.39	0.8357
1521.89	0.8404
1532.39	0.8168
1542.89	0.76
1553.39	0.7207
1563.89	0.7177
1574.39	0.7085
1584.89	0.6915
1595.38	0.6723
1605.88	0.6538
1616.38	0.666
1626.88	0.7387
1637.38	0.7976
1647.88	0.8364
1658.38	0.8704
1668.87	0.8965
1679.37	0.913
1689.87	0.9222
1700.37	0.932
1710.87	0.9341
1721.37	0.9381
1731.87	0.942
1742.37	0.945
1752.86	0.945
1763.36	0.945
1773.86	0.945
1784.36	0.9449
1794.86	0.943
1805.36	0.942
1815.86	0.942
1826.36	0.939
1836.85	0.935
1847.35	0.934
1857.85	0.9321
1868.35	0.93
1878.85	0.93
1889.35	0.93
1899.85	0.928
1910.34	0.924
1920.84	0.9172
1931.34	0.9168
1941.84	0.915
1952.34	0.9153
1962.84	0.915
1973.34	0.9123
1983.84	0.909
1994.33	0.908
2004.83	0.901
2015.33	0.8953
2025.83	0.89
2036.33	0.888
2046.83	0.892
2057.33	0.892
2067.82	0.89
2078.32	0.8886
2088.82	0.887
2099.32	0.888
2109.82	0.887
2120.32	0.8833
2130.82	0.8813
2141.32	0.8773
2151.81	0.873
2162.31	0.867
2172.81	0.856
2183.31	0.842
2193.81	0.835
2204.31	0.833
2214.81	0.83
2225.31	0.827
2235.8	0.8206
2246.3	0.8237
2256.8	0.8364
2267.3	0.837
2277.8	0.835
2288.3	0.8286
2298.8	0.822
2309.29	0.811
2319.79	0.7973
2330.29	0.78
2340.79	0.7723
2351.29	0.7506
2361.79	0.746
2372.29	0.745
2382.79	0.7413
2393.28	0.7373
2403.78	0.7343
2414.28	0.733
2424.78	0.732
2435.28	0.733
2445.78	0.734
2456.28	0.737
2466.77	0.741
2477.27	0.745
2487.77	0.745
2498.27	0.7373
2508.77	0.733
2519.27	0.7253
2529.77	0.72
2540.27	0.7136
2550.76	0.7006
2561.26	0.685
2571.76	0.6656
2582.26	0.6506
2592.76	0.634
2603.26	0.6193
2613.76	0.619
2624.26	0.619
2634.75	0.615
2645.25	0.6093
2655.75	0.599
2666.25	0.5866
2676.75	0.5736
2687.25	0.564
2697.75	0.5553
2708.24	0.5403
2718.74	0.5323
2729.24	0.5136
2739.74	0.4933
2750.24	0.4783
2760.74	0.4566
2771.24	0.4473
2781.74	0.4363
2792.23	0.4103
2802.73	0.391
2813.23	0.385
2823.73	0.39
2834.23	0.396
2844.73	0.393
2855.23	0.392
2865.72	0.3967
2876.22	0.409
2886.72	0.4257
2897.22	0.4397
2907.72	0.458
2918.22	0.4546
2928.72	0.4443
2939.22	0.4039
2949.71	0.3883
2960.21	0.389
2970.71	0.378
2981.21	0.3452
2991.71	0.3143
3002.21	0.288
3012.71	0.283
3023.21	0.3017
3033.7	0.3157
3044.2	0.3314
3054.7	0.3467
3065.2	0.351
3075.7	0.347
3086.2	0.3436
3096.7	0.345
3107.19	0.3484
3117.69	0.362
3128.19	0.387
3138.69	0.4267
3149.19	0.4724
3159.69	0.5221
3170.19	0.5791
3180.69	0.6214
3191.18	0.6561
3201.68	0.69
3212.18	0.7131
3222.68	0.732
3233.18	0.743
3243.68	0.752
3254.18	0.752
3264.68	0.752
3275.17	0.7503
3285.67	0.749
3296.17	0.7463
3306.67	0.7383
3317.17	0.7286
3327.67	0.7156
3338.17	0.6996
3348.66	0.68
3359.16	0.6613
3369.66	0.6436
3380.16	0.6246
3390.66	0.6036
3401.16	0.5963
3411.66	0.5883
3422.16	0.586
3432.65	0.588
3443.15	0.589
3453.65	0.5954
3464.15	0.5994
3474.65	0.603
3485.15	0.61
3495.65	0.6174
3506.14	0.628
3516.64	0.637
3527.14	0.6527
3537.64	0.6667
3548.14	0.6817
3558.64	0.6974
3569.14	0.7137
3579.64	0.7314
3590.13	0.7444
3600.63	0.7597
3611.13	0.779
3621.63	0.7927
3632.13	0.803
3642.63	0.8097
3653.13	0.813
3663.63	0.813
3674.12	0.813
3684.62	0.818
3695.12	0.819
3705.62	0.819
3716.12	0.8193
3726.62	0.818
3737.12	0.816
3747.61	0.815
3758.11	0.815
3768.61	0.815
3779.11	0.814
3789.61	0.8133
3800.11	0.8103
3810.61	0.809
3821.11	0.806
3831.6	0.803
3842.1	0.802
3852.6	0.8
3863.1	0.798
3873.6	0.797
3884.1	0.796
3894.6	0.793
3905.09	0.792
3915.59	0.792
3926.09	0.793
3936.59	0.794
3947.09	0.793
3957.59	0.792
3968.09	0.793
3978.59	0.793
3989.08	0.789
3999.58	0.789
