Infrared Spectrum: 2-(ADAMANTYLAMINO)ETHANETHIOL, S-HYDROGEN SULFATE
Formula: C12 H21 N O3 S2
CAS: 37018-31-8
State: SOLID (1 mg / 650 mg KBr DISC)
Class: COBLENTZ III
Instrument: PERKIN-ELMER 521 (GRATING)
Instrument parameters: FILTERS AT 3130, 2475, 2000, 620. GRATING CHANGES: 2000, 630
Sampling: TRANSMISSION
Resolution: 2
Origin: SOUTHERN RESEARCH INSTITUTE
1/CM	TRANSMITTANCE
252.761	0.411
262.948	0.4799
273.135	0.5229
283.321	0.5609
293.508	0.6099
303.695	0.6508
313.882	0.67
324.068	0.6968
334.255	0.7319
344.442	0.7487
354.629	0.7659
364.815	0.775
375.002	0.7626
385.189	0.7599
395.376	0.771
405.563	0.7778
415.749	0.795
425.936	0.8018
436.123	0.807
446.31	0.7997
456.496	0.7989
466.683	0.8029
476.87	0.822
487.057	0.823
497.244	0.823
507.43	0.8083
517.617	0.7016
527.804	0.7237
537.991	0.7517
548.177	0.8148
558.364	0.8216
568.551	0.8182
578.738	0.7938
588.924	0.807
599.111	0.7857
609.298	0.7311
619.485	0.5528
629.672	0.3222
639.858	0.4803
650.045	0.7928
660.232	0.8496
670.419	0.861
680.605	0.8667
690.792	0.871
700.979	0.871
711.166	0.871
721.353	0.872
731.539	0.871
741.726	0.8583
751.913	0.858
762.1	0.8623
772.286	0.865
782.473	0.866
792.66	0.867
802.847	0.865
813.033	0.8656
823.22	0.87
833.407	0.8642
843.594	0.861
853.781	0.86
863.967	0.856
874.154	0.8524
884.341	0.853
894.528	0.8526
904.714	0.8566
914.901	0.8564
925.088	0.8438
935.275	0.8328
945.462	0.8419
955.648	0.8245
965.835	0.8037
976.022	0.7695
986.209	0.7975
996.395	0.7355
1006.58	0.5476
1016.77	0.3486
1026.96	0.5368
1037.14	0.7664
1047.33	0.7974
1057.52	0.7972
1067.7	0.7618
1077.89	0.7583
1088.08	0.82
1098.26	0.7958
1108.45	0.7786
1118.64	0.807
1128.82	0.7892
1139.01	0.7475
1149.2	0.6432
1159.38	0.4267
1169.57	0.3849
1179.76	0.3565
1189.94	0.4557
1200.13	0.5937
1210.32	0.6311
1220.5	0.6089
1230.69	0.4713
1240.88	0.4908
1251.06	0.551
1261.25	0.7186
1271.44	0.7413
1281.63	0.793
1291.81	0.788
1302	0.7658
1312.19	0.8034
1322.37	0.8273
1332.56	0.8288
1342.75	0.7445
1352.93	0.7105
1363.12	0.74
1373.31	0.8342
1383.49	0.851
1393.68	0.8435
1403.87	0.8328
1414.05	0.8239
1424.24	0.8096
1434.43	0.7946
1444.61	0.747
1454.8	0.694
1464.99	0.6596
1475.17	0.7874
1485.36	0.7807
1495.55	0.8398
1505.73	0.8572
1515.92	0.866
1526.11	0.867
1536.29	0.868
1546.48	0.866
1556.67	0.8597
1566.85	0.8489
1577.04	0.8367
1587.23	0.8166
1597.41	0.7857
1607.6	0.8027
1617.79	0.8312
1627.98	0.8421
1638.16	0.8491
1648.35	0.8601
1658.54	0.868
1668.72	0.876
1678.91	0.878
1689.1	0.881
1699.28	0.883
1709.47	0.883
1719.66	0.885
1729.84	0.885
1740.03	0.885
1750.22	0.883
1760.4	0.889
1770.59	0.89
1780.78	0.89
1790.96	0.891
1801.15	0.891
1811.34	0.891
1821.52	0.891
1831.71	0.89
1841.9	0.89
1852.08	0.89
1862.27	0.887
1872.46	0.887
1882.64	0.886
1892.83	0.886
1903.02	0.886
1913.2	0.8888
1923.39	0.89
1933.58	0.89
1943.77	0.89
1953.95	0.889
1964.14	0.887
1974.33	0.8851
1984.51	0.8785
1994.7	0.88
2004.89	0.878
2015.07	0.877
2025.26	0.877
2035.45	0.878
2045.63	0.88
2055.82	0.88
2066.01	0.88
2076.19	0.878
2086.38	0.878
2096.57	0.878
2106.75	0.878
2116.94	0.877
2127.13	0.877
2137.31	0.877
2147.5	0.877
2157.69	0.8733
2167.87	0.872
2178.06	0.872
2188.25	0.872
2198.43	0.8747
2208.62	0.873
2218.81	0.872
2228.99	0.872
2239.18	0.872
2249.37	0.872
2259.56	0.873
2269.74	0.875
2279.93	0.875
2290.12	0.873
2300.3	0.8702
2310.49	0.867
2320.68	0.865
2330.86	0.862
2341.05	0.861
2351.24	0.858
2361.42	0.854
2371.61	0.8532
2381.8	0.851
2391.98	0.848
2402.17	0.8472
2412.36	0.842
2422.54	0.836
2432.73	0.831
2442.92	0.8232
2453.1	0.8082
2463.29	0.7838
2473.48	0.8187
2483.66	0.8388
2493.85	0.8457
2504.04	0.846
2514.22	0.847
2524.41	0.846
2534.6	0.843
2544.78	0.841
2554.97	0.8362
2565.16	0.829
2575.35	0.825
2585.53	0.8203
2595.72	0.8082
2605.91	0.7952
2616.09	0.779
2626.28	0.775
2636.47	0.7838
2646.65	0.7833
2656.84	0.7752
2667.03	0.778
2677.21	0.778
2687.4	0.7763
2697.59	0.7713
2707.77	0.7502
2717.96	0.744
2728.15	0.7412
2738.33	0.736
2748.52	0.7225
2758.71	0.7085
2768.89	0.7032
2779.08	0.6755
2789.27	0.6392
2799.45	0.6027
2809.64	0.6045
2819.83	0.6148
2830.01	0.5978
2840.2	0.547
2850.39	0.4177
2860.57	0.4345
2870.76	0.5147
2880.95	0.5912
2891.14	0.5658
2901.32	0.4645
2911.51	0.3953
2921.7	0.4103
2931.88	0.4712
2942.07	0.5532
2952.26	0.631
2962.44	0.636
2972.63	0.6382
2982.82	0.6225
2993	0.5792
3003.19	0.5245
3013.38	0.4982
3023.56	0.4988
3033.75	0.5263
3043.94	0.5893
3054.12	0.6352
3064.31	0.6822
3074.5	0.7153
3084.68	0.7433
3094.87	0.764
3105.06	0.7847
3115.24	0.7948
3125.43	0.8017
3135.62	0.81
3145.8	0.818
3155.99	0.824
3166.18	0.8288
3176.36	0.831
3186.55	0.831
3196.74	0.833
3206.93	0.836
3217.11	0.8388
3227.3	0.839
3237.49	0.839
3247.67	0.839
3257.86	0.837
3268.05	0.834
3278.23	0.8328
3288.42	0.831
3298.61	0.8293
3308.79	0.825
3318.98	0.8203
3329.17	0.8153
3339.35	0.81
3349.54	0.804
3359.73	0.7963
3369.91	0.791
3380.1	0.7832
3390.29	0.776
3400.47	0.774
3410.66	0.773
3420.85	0.771
3431.03	0.773
3441.22	0.773
3451.41	0.7748
3461.59	0.776
3471.78	0.7798
3481.97	0.7838
3492.15	0.7877
3502.34	0.79
3512.53	0.794
3522.71	0.799
3532.9	0.808
3543.09	0.8148
3553.28	0.822
3563.46	0.825
3573.65	0.832
3583.84	0.838
3594.02	0.8478
3604.21	0.8518
3614.4	0.857
3624.58	0.8658
3634.77	0.87
3644.96	0.873
3655.14	0.876
3665.33	0.876
3675.52	0.875
3685.7	0.8758
3695.89	0.8783
3706.08	0.878
3716.26	0.878
3726.45	0.878
3736.64	0.878
3746.82	0.8797
3757.01	0.88
3767.2	0.881
3777.38	0.881
3787.57	0.881
3797.76	0.88
3807.94	0.88
3818.13	0.88
3828.32	0.878
3838.5	0.878
3848.69	0.88
3858.88	0.8762
3869.07	0.877
3879.25	0.877
3889.44	0.877
3899.63	0.877
3909.81	0.876
3920	0.876
3930.19	0.876
3940.37	0.876
3950.56	0.875
3960.75	0.875
3970.93	0.875
3981.12	0.875
3991.31	0.875
4001.49	0.873
