Infrared Spectrum: Ethyl 5-benzyloxyindole-2-carboxylate
Formula: C 18 H 17 N O 3
CAS: 37033-95-7
State: gas
Origin: EPA-IR VAPOR PHASE LIBRARY
1/CM	ABSORBANCE
549.8	0.0008363
559.445	0.0009043
569.09	0.0009753
578.734	0.0012122
588.379	0.002812
598.024	0.002972
607.669	0.002732
617.313	0.001742
626.958	0.002012
636.603	0.001842
646.248	0.0014416
655.893	0.0012676
665.537	0.0013115
675.182	0.001802
684.827	0.002712
694.472	0.004162
704.116	0.003502
713.761	0.003242
723.406	0.004382
733.051	0.005782
742.695	0.005012
752.34	0.006212
761.985	0.006392
771.63	0.005352
781.275	0.003082
790.919	0.003492
800.564	0.004152
810.209	0.003062
819.854	0.002642
829.498	0.002802
839.143	0.004462
848.788	0.004682
858.433	0.003932
868.078	0.004002
877.722	0.002882
887.367	0.002042
897.012	0.002162
906.657	0.002562
916.301	0.002142
925.946	0.002342
935.591	0.002442
945.236	0.003022
954.88	0.003072
964.525	0.002892
974.17	0.003052
983.815	0.003972
993.46	0.005112
1003.1	0.007172
1012.75	0.009712
1022.39	0.013042
1032.04	0.009692
1041.68	0.005172
1051.33	0.002922
1060.97	0.002172
1070.62	0.002262
1080.26	0.003432
1089.91	0.008552
1099.55	0.011662
1109.2	0.004992
1118.84	0.005512
1128.49	0.004892
1138.13	0.005992
1147.78	0.007882
1157.42	0.013582
1167.07	0.012422
1176.71	0.014462
1186.36	0.025062
1196	0.052922
1205.64	0.073882
1215.29	0.061692
1224.93	0.063952
1234.58	0.049062
1244.22	0.023462
1253.87	0.013602
1263.51	0.010682
1273.16	0.007212
1282.8	0.008002
1292.45	0.007882
1302.09	0.007022
1311.74	0.008762
1321.38	0.009322
1331.03	0.008622
1340.67	0.007072
1350.32	0.007372
1359.96	0.007182
1369.61	0.010702
1379.25	0.011312
1388.9	0.005892
1398.54	0.004722
1408.18	0.004902
1417.83	0.007242
1427.47	0.006452
1437.12	0.005892
1446.76	0.010212
1456.41	0.008052
1466.05	0.006322
1475.7	0.005802
1485.34	0.004102
1494.99	0.003792
1504.63	0.002942
1514.28	0.004292
1523.92	0.009632
1533.57	0.020612
1543.21	0.023412
1552.86	0.008182
1562.5	0.003812
1572.15	0.003352
1581.79	0.003102
1591.44	0.002742
1601.08	0.002602
1610.73	0.003022
1620.37	0.004272
1630.01	0.004752
1639.66	0.002992
1649.3	0.002532
1658.95	0.002352
1668.59	0.002382
1678.24	0.002822
1687.88	0.003242
1697.53	0.004382
1707.17	0.007622
1716.82	0.022702
1726.46	0.041092
1736.11	0.015182
1745.75	0.020072
1755.4	0.008932
1765.04	0.003322
1774.69	0.002472
1784.33	0.002282
1793.98	0.002262
1803.62	0.002152
1813.27	0.001932
1822.91	0.001732
1832.55	0.001642
1842.2	0.001532
1851.84	0.001852
1861.49	0.001542
1871.13	0.001532
1880.78	0.0013667
1890.42	0.0012609
1900.07	0.0009424
1909.71	0.0010433
1919.36	0.0010198
1929	0.0012583
1938.65	0.0013428
1948.29	0.0012106
1957.94	0.0013489
1967.58	0.0010728
1977.23	0.0008494
1986.87	0.000969
1996.52	0.0009673
2006.16	0.0010305
2015.81	0.0009548
2025.45	0.0011142
2035.1	0.0010078
2044.74	0.0009684
2054.38	0.0009268
2064.03	0.0009318
2073.67	0.0010399
2083.32	0.0006768
2092.96	0.00060129
2102.61	0.0009107
2112.25	0.0007287
2121.9	0.0007124
2131.54	0.000579
2141.19	0.0007947
2150.83	0.0006258
2160.48	0.0008504
2170.12	0.0009625
2179.77	0.0007084
2189.41	0.0008119
2199.06	0.0007186
2208.7	0.000769
2218.35	0.0008165
2227.99	0.0006521
2237.64	0.0007049
2247.28	0.0006567
2256.92	0.0007297
2266.57	0.0008814
2276.21	0.0009442
2285.86	0.0009543
2295.5	0.0009259
2305.15	0.000795
2314.79	0.000711
2324.44	0.0007029
2334.08	0.0007065
2343.73	0.0007919
2353.37	0.0009165
2363.02	0.0007216
2372.66	0.0008558
2382.31	0.0006427
2391.95	0.0009936
2401.6	0.0007588
2411.24	0.0007767
2420.89	0.000811
2430.53	0.0006447
2440.18	0.0008858
2449.82	0.0008421
2459.47	0.0007544
2469.11	0.0007887
2478.75	0.0008612
2488.4	0.0007692
2498.04	0.000529229
2507.69	0.00059279
2517.33	0.0007812
2526.98	0.0006996
2536.62	0.00059076
2546.27	0.0007699
2555.91	0.0006867
2565.56	0.0008074
2575.2	0.0006364
2584.85	0.0008286
2594.49	0.0006868
2604.14	0.0009086
2613.78	0.00056816
2623.43	0.000892
2633.07	0.000849
2642.72	0.0006934
2652.36	0.0009329
2662.01	0.0006255
2671.65	0.000744
2681.29	0.0006461
2690.94	0.0008447
2700.58	0.0006479
2710.23	0.0006948
2719.87	0.00061614
2729.52	0.0007312
2739.16	0.0007659
2748.81	0.0008634
2758.45	0.000755
2768.1	0.0008149
2777.74	0.0008647
2787.39	0.00058335
2797.03	0.00055594
2806.68	0.0008441
2816.32	0.0012625
2825.97	0.000941
2835.61	0.0009794
2845.26	0.0011657
2854.9	0.0014603
2864.55	0.002072
2874.19	0.002872
2883.84	0.003052
2893.48	0.002702
2903.12	0.002912
2912.77	0.002912
2922.41	0.002772
2932.06	0.003502
2941.7	0.004842
2951.35	0.004382
2960.99	0.003512
2970.64	0.004282
2980.28	0.005042
2989.93	0.005482
2999.57	0.003612
3009.22	0.003012
3018.86	0.002752
3028.51	0.003872
3038.15	0.004372
3047.8	0.003412
3057.44	0.003182
3067.09	0.004412
3076.73	0.004232
3086.38	0.002732
3096.02	0.002642
3105.67	0.001582
3115.31	0.001572
3124.95	0.0004563
3134.6	0.00059915
3144.24	0.0008678
3153.89	0.000297
3163.53	0.0011709
3173.18	0.000506
3182.82	0.000171
3192.47	0.0007819
3202.11	0.00058218
3211.76	0.0006544
3221.4	0.0005045
3231.05	0.0004595
3240.69	0.0007117
3250.34	0.0007503
3259.98	0.000388
3269.63	0.000705
3279.27	0.0004751
3288.92	0.0006998
3298.56	0.000383
3308.21	0.000227
3317.85	0.000421
3327.49	0.0011217
3337.14	0.0009079
3346.78	0.000418
3356.43	0.00060206
3366.07	2.6e-05
3375.72	7e-05
3385.36	0.0005009
3395.01	0.0007114
3404.65	0.0010005
3414.3	0.00051569
3423.94	0.001074
3433.59	0.0009489
3443.23	0.0011796
3452.88	0.0014069
3462.52	0.001902
3472.17	0.002842
3481.81	0.005692
3491.46	0.011162
3501.1	0.005262
3510.75	0.004572
3520.39	0.001562
3530.04	0.0009267
3539.68	0.0006407
3549.32	0.0008911
3558.97	0.0009851
3568.61	0.000375
3578.26	0.0004948
3587.9	0.000833
3597.55	0.0010636
3607.19	0.0007362
3616.84	0.0006956
3626.48	0.000326
3636.13	0.0007989
3645.77	0.0004552
3655.42	0.0004594
3665.06	0.0004901
3674.71	0.0006877
3684.35	0.000265
3694	0.0006721
3703.64	0.0008614
3713.29	0.00056524
3722.93	0.0007285
3732.58	0.00059818
3742.22	0.00061728
3751.86	0.00058217
3761.51	0.000168
3771.15	0.0006665
3780.8	0.000342
3790.44	0.000369
3800.09	0.0009244
3809.73	0.00055246
3819.38	0.00054943
3829.02	0.0008122
3838.67	0.00032
3848.31	0.0006503
3857.96	0.00054509
3867.6	0.0002
3877.25	0.000164
3886.89	0.0004565
3896.54	0.00028
3906.18	0.00059102
3915.83	0.0004651
3925.47	0.0006547
3935.12	0.0005001
3944.76	0.0009102
3954.41	0.000678
3964.05	0.000294
3973.69	0.000353
3983.34	0.000313
3992.98	0.000389
