Infrared Spectrum: 7-Methyl-3-octyne
Formula: C 9 H 16
CAS: 37050-06-9
State: gas
Instrument: HP-GC/MS/IRD
Origin: NIST Mass Spectrometry Data Center
1/CM	ABSORBANCE
550	0.000369
562	0.000306
574	0.000222
586	0.000258
598	0.000153
610	0.000285
622	0.000162
634	0.000195
646	0.000135
658	0.000171
670	0.000132
682	4.2e-05
694	0.000126
706	0.00015
718	0.000138
730	0.000159
742	0.000186
754	0.000264
766	0.000273
778	0.000222
790	0.000213
802	0.000177
814	0.000105
826	0.00015
838	9.9e-05
850	0.000114
862	0.000207
874	0.000267
886	0.000195
898	0.000198
910	0.000225
922	0.000351
934	0.000381
946	0.00027
958	0.000192
970	0.000189
982	0.000234
994	0.00024
1006	0.000348
1018	0.00036
1030	0.0003
1042	0.000303
1054	0.000561
1066	0.00072
1078	0.000564
1090	0.000462
1102	0.000513
1114	0.000612
1126	0.000486
1138	0.00045
1150	0.000573
1162	0.000918
1174	0.000918
1186	0.000486
1198	0.000432
1210	0.000534
1222	0.000462
1234	0.000486
1246	0.000585
1258	0.000696
1270	0.000579
1282	0.000633
1294	0.001086
1306	0.002499
1318	0.005841
1330	0.005331
1342	0.002487
1354	0.002418
1366	0.002676
1378	0.00294
1390	0.002964
1402	0.001593
1414	0.001266
1426	0.001842
1438	0.003099
1450	0.003696
1462	0.00414
1474	0.00372
1486	0.002019
1498	0.001062
1510	0.000636
1522	0.000441
1534	0.000309
1546	0.000264
1558	0.000231
1570	0.000195
1582	0.000195
1594	0.000186
1606	0.00018
1618	0.000171
1630	0.00015
1642	0.000159
1654	0.000147
1666	0.000144
1678	0.000138
1690	0.000123
1702	0.000129
1714	0.000102
1726	9.6e-05
1738	6.9e-05
1750	5.7e-05
1762	5.7e-05
1774	5.1e-05
1786	6.6e-05
1798	6.6e-05
1810	5.7e-05
1822	5.1e-05
1834	5.1e-05
1846	5.1e-05
1858	8.4e-05
1870	8.4e-05
1882	6.6e-05
1894	3e-05
1906	3.6e-05
1918	3.6e-05
1930	3e-05
1942	3.3e-05
1954	2.4e-05
1966	6e-06
1978	1.8e-05
1990	1.8e-05
2002	2.1e-05
2014	3e-05
2026	3e-05
2038	6.9e-05
2050	7.2e-05
2062	4.8e-05
2074	2.4e-05
2086	2.7e-05
2098	3.3e-05
2110	2.1e-05
2122	4.8e-05
2134	1.5e-05
2146	1.5e-05
2158	2.7e-05
2170	4.8e-05
2182	4.5e-05
2194	5.1e-05
2206	5.7e-05
2218	6.6e-05
2230	6.3e-05
2242	7.8e-05
2254	5.1e-05
2266	5.4e-05
2278	5.7e-05
2290	4.8e-05
2302	6e-05
2314	6.3e-05
2326	6.6e-05
2338	6.6e-05
2350	5.4e-05
2362	5.7e-05
2374	6.3e-05
2386	7.5e-05
2398	6e-05
2410	9.9e-05
2422	9.6e-05
2434	0.000102
2446	6.9e-05
2458	9.6e-05
2470	8.7e-05
2482	6.6e-05
2494	9.6e-05
2506	0.000117
2518	9.3e-05
2530	0.000102
2542	0.000111
2554	0.000135
2566	0.000174
2578	0.000204
2590	0.000261
2602	0.000228
2614	0.000282
2626	0.000351
2638	0.000366
2650	0.000318
2662	0.000261
2674	0.000276
2686	0.000315
2698	0.000336
2710	0.00036
2722	0.000504
2734	0.000627
2746	0.000654
2758	0.000681
2770	0.00069
2782	0.000738
2794	0.000852
2806	0.001095
2818	0.001449
2830	0.00204
2842	0.003459
2854	0.006345
2866	0.009387
2878	0.011739
2890	0.012417
2902	0.013209
2914	0.018267
2926	0.024516
2938	0.027504
2950	0.026919
2962	0.029958
2974	0.025596
2986	0.014538
2998	0.006444
3010	0.003708
3022	0.002217
3034	0.001461
3046	0.001131
3058	0.000924
3070	0.000825
3082	0.000735
3094	0.000705
3106	0.00069
3118	0.000645
3130	0.0006
3142	0.000585
3154	0.000555
3166	0.000534
3178	0.000513
3190	0.000429
3202	0.000378
3214	0.000297
3226	0.000246
3238	0.000174
3250	0.000108
3262	0.000135
3274	0.000111
3286	0.000117
3298	0.000144
3310	0.000144
3322	0.00018
3334	0.000198
3346	0.000204
3358	0.000144
3370	0.000144
3382	0.000153
3394	8.7e-05
3406	0.000117
3418	6.6e-05
3430	0.000147
3442	8.7e-05
3454	0.000102
3466	0.000108
3478	9e-05
3490	8.7e-05
3502	8.1e-05
3514	3.9e-05
3526	5.4e-05
3538	3.6e-05
3550	6e-05
3562	8.1e-05
3574	4.2e-05
3586	4.5e-05
3598	8.1e-05
3610	7.8e-05
3622	5.4e-05
3634	4.5e-05
3646	8.7e-05
3658	0.000117
3670	7.2e-05
3682	4.2e-05
3694	8.7e-05
3706	0.000111
3718	7.8e-05
3730	7.8e-05
3742	4.5e-05
3754	8.7e-05
3766	9e-05
3778	0.000111
3790	0.000138
3802	0.000195
3814	0.000171
3826	0.000129
3838	0.000144
