Infrared Spectrum: Phenethylamine, 4-methoxy-Alpha-methyl-, hydrochloride
Formula: C10 H16 Cl N O
CAS: 3706-26-1
State: SOLID (KBr DISC)
Class: COBLENTZ III
Instrument: PERKIN-ELMER 21 (GRATING)
Instrument parameters: NaCl PRISM
Sampling: TRANSMISSION
Resolution: 2
Origin: SMITH, KLINE & FRENCH LABS.
1/CM	TRANSMITTANCE
655	0.7824
664	0.786
673	0.7878
682	0.789
691	0.7812
700	0.753
709	0.6649
718	0.7702
727	0.7521
736	0.7328
745	0.6704
754	0.3658
763	0.7155
772	0.7014
781	0.6508
790	0.5655
799	0.3499
808	0.1383
817	0.3772
826	0.6093
835	0.4746
844	0.2721
853	0.4445
862	0.6764
871	0.7006
880	0.672
889	0.564
898	0.6932
907	0.6935
916	0.6881
925	0.6716
934	0.6845
943	0.6897
952	0.6741
961	0.6602
970	0.6422
979	0.6142
988	0.5592
997	0.3712
1006	0.4957
1015	0.3444
1024	0.274
1033	0.1505
1042	0.4731
1051	0.5903
1060	0.6101
1069	0.5563
1078	0.3617
1087	0.6136
1096	0.5857
1105	0.3431
1114	0.4357
1123	0.4886
1132	0.3369
1141	0.4911
1150	0.5122
1159	0.5149
1168	0.4247
1177	0.165
1186	0.5869
1195	0.5633
1204	0.377
1213	0.3196
1222	0.4177
1231	0.3394
1240	0.2319
1249	0.1434
1258	0.1673
1267	0.4171
1276	0.5331
1285	0.5631
1294	0.328
1303	0.424
1312	0.5203
1321	0.6891
1330	0.7255
1339	0.7018
1348	0.6733
1357	0.5587
1366	0.4435
1375	0.533
1384	0.2793
1393	0.3482
1402	0.6167
1411	0.5694
1420	0.4863
1429	0.4613
1438	0.3152
1447	0.3099
1456	0.2989
1465	0.2525
1474	0.4463
1483	0.4237
1492	0.3272
1501	0.2745
1510	0.1446
1519	0.2236
1528	0.3733
1537	0.5181
1546	0.6228
1555	0.6303
1564	0.6234
1573	0.6071
1582	0.4662
1591	0.5027
1600	0.4673
1609	0.3216
1618	0.2617
1627	0.4328
1636	0.5434
1645	0.6132
1654	0.6188
1663	0.6111
1672	0.6037
1681	0.641
1690	0.68
1699	0.7204
1708	0.7641
1717	0.7771
1726	0.7832
1735	0.7856
1744	0.7904
1753	0.7905
1762	0.7728
1771	0.7586
1780	0.757
1789	0.7487
1798	0.7498
1807	0.74
1816	0.7218
1825	0.71
1834	0.7332
1843	0.7392
1852	0.7292
1861	0.7137
1870	0.6925
1879	0.6594
1888	0.6534
1897	0.7117
1906	0.7063
1915	0.6984
1924	0.6744
1933	0.6654
1942	0.6566
1951	0.6253
1960	0.6455
1969	0.6514
1978	0.6245
1987	0.5772
1996	0.5302
2005	0.4837
2014	0.438
2023	0.3952
2032	0.3562
2041	0.3252
2050	0.296
2059	0.2866
2068	0.3231
2077	0.4491
2086	0.5716
2095	0.6719
2104	0.6925
2113	0.7057
2122	0.7076
2131	0.7088
2140	0.7183
2149	0.7232
2158	0.7257
2167	0.7268
2176	0.725
2185	0.718
2194	0.7023
2203	0.6791
2212	0.6714
2221	0.6746
2230	0.6835
2239	0.6851
2248	0.6827
2257	0.6798
2266	0.6781
2275	0.6763
2284	0.6688
2293	0.652
2302	0.6219
2311	0.6053
2320	0.5927
2329	0.5871
2338	0.5842
2347	0.5825
2356	0.5831
2365	0.5848
2374	0.5856
2383	0.5774
2392	0.5653
2401	0.5486
2410	0.5352
2419	0.5182
2428	0.5012
2437	0.4862
2446	0.4706
2455	0.4488
2464	0.4117
2473	0.3473
2482	0.3135
2491	0.2768
2500	0.2702
2509	0.2757
2518	0.3289
2527	0.3779
2536	0.3787
2545	0.3636
2554	0.3358
2563	0.328
2572	0.2843
2581	0.249
2590	0.2451
2599	0.2471
2608	0.2547
2617	0.2673
2626	0.2847
2635	0.2952
2644	0.2859
2653	0.2532
2662	0.2206
2671	0.1938
2680	0.1725
2689	0.1657
2698	0.1668
2707	0.1745
2716	0.1765
2725	0.1734
2734	0.1679
2743	0.1586
2752	0.1491
2761	0.1412
2770	0.1382
2779	0.131
2788	0.1189
2797	0.1179
2806	0.1178
2815	0.1172
2824	0.1163
2833	0.115
2842	0.1134
2851	0.1114
2860	0.1093
2869	0.1071
2878	0.1049
2887	0.1036
2896	0.1038
2905	0.1049
2914	0.1067
2923	0.1093
2932	0.1141
2941	0.1206
2950	0.126
2959	0.1305
2968	0.1354
2977	0.141
2986	0.1465
2995	0.153
3004	0.1589
3013	0.164
3022	0.1732
3031	0.1971
3040	0.2163
3049	0.2274
3058	0.2364
3067	0.2435
3076	0.2503
3085	0.2554
3094	0.2608
3103	0.2693
3112	0.2873
3121	0.3106
3130	0.3282
3139	0.339
3148	0.3495
3157	0.3587
3166	0.3681
3175	0.3767
3184	0.3838
3193	0.3918
3202	0.4004
3211	0.4107
3220	0.4223
3229	0.4405
3238	0.458
3247	0.4711
3256	0.4758
3265	0.4796
3274	0.4818
3283	0.4816
3292	0.4797
3301	0.4769
3310	0.4736
3319	0.4692
3328	0.4637
3337	0.4572
3346	0.4518
3355	0.4476
3364	0.4439
3373	0.441
3382	0.4406
3391	0.4403
3400	0.4411
3409	0.4443
3418	0.4501
3427	0.4566
3436	0.4637
3445	0.4733
3454	0.4804
3463	0.4851
3472	0.4898
3481	0.4947
3490	0.5012
3499	0.5077
3508	0.5136
3517	0.5182
3526	0.5226
3535	0.5301
3544	0.5368
3553	0.5463
3562	0.5604
3571	0.5734
3580	0.5807
3589	0.5827
3598	0.5839
3607	0.5854
3616	0.5883
3625	0.5934
3634	0.6042
3643	0.6132
3652	0.6186
3661	0.6197
3670	0.6201
3679	0.62
3688	0.6197
3697	0.6173
3706	0.6138
3715	0.6107
3724	0.6081
3733	0.6058
3742	0.6036
3751	0.6025
3760	0.6017
3769	0.6008
3778	0.6
3787	0.5995
3796	0.5993
3805	0.5991
3814	0.5989
3823	0.5986
3832	0.5985
3841	0.5983
3850	0.5982
3859	0.598
3868	0.5979
3877	0.5978
3886	0.5977
3895	0.5974
3904	0.5968
3913	0.596
3922	0.5941
3931	0.5921
3940	0.5904
3949	0.5887
3958	0.587
3967	0.5856
3976	0.5844
3985	0.5832
3994	0.582
