Infrared Spectrum: 1-CARBETHOXY-4-PHENYL-4-PIPERIDINOL
Formula: C14 H19 N O2
CAS: 37083-27-5
State: SOLUTION (3.5% CHCl3)
Class: COBLENTZ
Instrument: Not specified, most likely a grating spectrometer.
Sampling: TRANSMISSION
Path length: 0.030 CM
Resolution: 4
Origin: ABBOTT LABORATORIES
MICROMETERS	TRANSMITTANCE
2.026	0.98
2.06564	0.973
2.10527	0.972
2.14491	0.968
2.18454	0.965
2.22418	0.963
2.26381	0.955
2.30345	0.949
2.34308	0.945
2.38272	0.949
2.42235	0.95
2.46199	0.945
2.50163	0.95
2.54126	0.949
2.5809	0.952
2.62053	0.952
2.66017	0.955
2.6998	0.957
2.73944	0.929
2.77907	0.699
2.81871	0.814
2.85834	0.735
2.89798	0.633
2.93762	0.571
2.97725	0.599
3.01689	0.696
3.05652	0.765
3.09616	0.821
3.13579	0.85
3.17543	0.865
3.21506	0.844
3.2547	0.825
3.29433	0.77
3.33397	0.587
3.37361	0.495
3.41324	0.441
3.45288	0.528
3.49251	0.692
3.53215	0.809
3.57178	0.853
3.61142	0.888
3.65105	0.891
3.69069	0.904
3.73032	0.908
3.76996	0.912
3.8096	0.914
3.84923	0.914
3.88887	0.911
3.9285	0.908
3.96814	0.898
4.00777	0.881
4.04741	0.86
4.08704	0.857
4.12668	0.866
4.16631	0.894
4.20595	0.912
4.24559	0.914
4.28522	0.917
4.32486	0.912
4.36449	0.929
4.40413	0.922
4.44376	0.919
4.4834	0.916
4.52303	0.927
4.56267	0.919
4.6023	0.909
4.64194	0.921
4.68158	0.922
4.72121	0.922
4.76085	0.927
4.80048	0.932
4.84012	0.934
4.87975	0.932
4.91939	0.932
4.95902	0.924
4.99866	0.934
5.03829	0.914
5.07793	0.899
5.11757	0.891
5.1572	0.909
5.19684	0.909
5.23647	0.908
5.27611	0.901
5.31574	0.893
5.35538	0.911
5.39501	0.917
5.43465	0.909
5.47428	0.899
5.51392	0.878
5.55356	0.893
5.59319	0.903
5.63283	0.896
5.67246	0.878
5.7121	0.875
5.75173	0.87
5.79137	0.873
5.831	0.863
5.87064	0.853
5.91027	0.821
5.94991	0.76
5.98955	0.587
6.02918	0.328
6.06882	0.045
6.10845	0.016
6.14809	0.014
6.18772	0.041
6.22736	0.188
6.26699	0.443
6.30663	0.607
6.34626	0.715
6.3859	0.765
6.42554	0.798
6.46517	0.812
6.50481	0.825
6.54444	0.837
6.58408	0.829
6.62371	0.801
6.66335	0.678
6.70298	0.41
6.74262	0.316
6.78225	0.221
6.82189	0.223
6.86152	0.213
6.90116	0.108
6.9408	0.085
6.98043	0.114
7.02007	0.183
7.0597	0.285
7.09934	0.499
7.13897	0.571
7.17861	0.592
7.21824	0.563
7.25788	0.377
7.29751	0.262
7.33715	0.356
7.37679	0.471
7.41642	0.522
7.45606	0.561
7.49569	0.614
7.53533	0.62
7.57496	0.623
7.6146	0.571
7.65423	0.543
7.69387	0.556
7.7335	0.586
7.77314	0.569
7.81278	0.532
7.85241	0.433
7.89205	0.321
7.93168	0.348
7.97132	0.377
8.01095	0.394
8.05059	0.387
8.09022	0.39
8.12986	0.405
8.16949	0.426
8.20913	0.451
8.24877	0.471
8.2884	0.499
8.32804	0.515
8.36767	0.523
8.40731	0.528
8.44694	0.536
8.48658	0.543
8.52621	0.558
8.56585	0.612
8.60548	0.711
8.64512	0.743
8.68476	0.758
8.72439	0.773
8.76403	0.776
8.80366	0.709
8.8433	0.553
8.88293	0.402
8.92257	0.502
8.9622	0.555
9.00184	0.546
9.04147	0.55
9.08111	0.564
9.12075	0.563
9.16038	0.558
9.20002	0.555
9.23965	0.517
9.27929	0.456
9.31892	0.418
9.35856	0.495
9.39819	0.591
9.43783	0.66
9.47746	0.692
9.5171	0.692
9.55674	0.669
9.59637	0.648
9.63601	0.589
9.67564	0.413
9.71528	0.444
9.75491	0.443
9.79455	0.272
9.83418	0.151
9.87382	0.313
9.91345	0.513
9.95309	0.545
9.99273	0.461
10.0324	0.4
10.072	0.413
10.1116	0.525
10.1513	0.576
10.1909	0.646
10.2305	0.686
10.2702	0.661
10.3098	0.596
10.3494	0.5
10.3891	0.499
10.4287	0.533
10.4684	0.535
10.508	0.486
10.5476	0.449
10.5873	0.454
10.6269	0.525
10.6665	0.632
10.7062	0.74
10.7458	0.776
10.7854	0.799
10.8251	0.814
10.8647	0.806
10.9043	0.699
10.944	0.627
10.9836	0.609
11.0232	0.663
11.0629	0.725
11.1025	0.771
11.1422	0.799
11.1818	0.801
11.2214	0.788
11.2611	0.783
11.3007	0.799
11.3403	0.812
11.38	0.816
11.4196	0.83
11.4592	0.837
11.4989	0.858
11.5385	0.862
11.5781	0.863
11.6178	0.866
11.6574	0.875
11.697	0.886
11.7367	0.894
11.7763	0.904
11.816	0.908
11.8556	0.906
11.8952	0.893
11.9349	0.886
11.9745	0.881
12.0141	0.876
12.0538	0.873
12.0934	0.873
12.133	0.868
12.1727	0.86
12.2123	0.852
12.2519	0.837
12.2916	0.832
12.3312	0.835
12.3709	0.845
12.4105	0.857
12.4501	0.865
12.4898	0.875
12.5294	0.889
12.569	0.896
12.6087	0.903
12.6483	0.908
12.6879	0.911
12.7276	0.922
12.7672	0.929
12.8068	0.935
12.8465	0.942
12.8861	0.954
12.9257	0.96
12.9654	0.973
13.005	0.977
13.0447	0.98
13.0843	0.983
13.1239	0.986
13.1636	0.99
13.2032	1
13.2428	1.004
13.2825	1.021
13.3221	1.024
13.3617	1.027
13.4014	1.027
13.441	1.027
13.4806	1.027
13.5203	1.027
13.5599	1.027
13.5996	1.027
13.6392	1.026
13.6788	1.024
13.7185	1.022
13.7581	1.019
13.7977	1.018
13.8374	1.022
13.877	1.026
13.9166	1.026
13.9563	1.026
13.9959	1.022
14.0355	1.016
14.0752	1.019
14.1148	1.024
14.1544	1.026
14.1941	1.026
14.2337	1.024
14.2734	1.019
14.313	1.004
14.3526	0.998
14.3923	0.99
14.4319	0.977
14.4715	0.967
14.5112	0.97
14.5508	0.963
14.5904	0.968
14.6301	0.968
14.6697	0.972
14.7093	0.972
14.749	0.967
14.7886	0.98
14.8283	0.978
14.8679	0.98
14.9075	0.981
14.9472	0.981
14.9868	0.986
15.0264	0.981
15.0661	0.978
15.1057	0.978
15.1453	0.957
15.185	0.906
15.2246	0.827
15.2642	0.768
15.3039	0.742
15.3435	0.738
15.3831	0.733
15.4228	0.73
