Infrared Spectrum: 2-ETHYL-4,6-DIHYDROXYPYRIMIDINE
Formula: C6 H8 N2 O2
CAS: 3709-98-6
State: SOLID (0.4 mg / 650 mg, KBr DISC)
Class: COBLENTZ III
Instrument: PERKIN-ELMER 21 (GRATING)
Instrument parameters: FILTER CHANGE ABOUT 1020 CM^-^1
Sampling: TRANSMISSION
Resolution: 4
Origin: SOUTHERN RESEARCH INSTITUTE
1/CM	TRANSMITTANCE
605.405	0.576
614.762	0.575
624.118	0.575
633.475	0.575
642.832	0.575
652.189	0.575
661.545	0.573
670.902	0.569
680.259	0.5646
689.616	0.5659
698.972	0.58
708.329	0.5747
717.686	0.5668
727.043	0.563
736.399	0.5601
745.756	0.5453
755.113	0.5281
764.469	0.5136
773.826	0.5005
783.183	0.4776
792.54	0.4025
801.896	0.2397
811.253	0.1223
820.61	0.2658
829.967	0.3607
839.323	0.4654
848.68	0.498
858.037	0.4911
867.394	0.4821
876.75	0.4612
886.107	0.4402
895.464	0.3991
904.821	0.3775
914.177	0.3347
923.534	0.2921
932.891	0.238
942.247	0.1572
951.604	0.1869
960.961	0.274
970.318	0.2699
979.674	0.2374
989.031	0.1926
998.388	0.171
1007.74	0.2097
1017.1	0.2629
1026.46	0.3039
1035.81	0.3325
1045.17	0.3267
1054.53	0.3664
1063.89	0.37
1073.24	0.3574
1082.6	0.3038
1091.96	0.3178
1101.31	0.2703
1110.67	0.3608
1120.03	0.3732
1129.38	0.3635
1138.74	0.3543
1148.1	0.3478
1157.45	0.339
1166.81	0.322
1176.17	0.3039
1185.52	0.2806
1194.88	0.2434
1204.24	0.214
1213.59	0.284
1222.95	0.2681
1232.31	0.2445
1241.66	0.2087
1251.02	0.197
1260.38	0.189
1269.73	0.14
1279.09	0.113
1288.45	0.1066
1297.8	0.0969
1307.16	0.0561
1316.52	0.014
1325.87	0.0291
1335.23	0.1991
1344.59	0.1751
1353.94	0.075
1363.3	0.1209
1372.66	0.1986
1382.01	0.2043
1391.37	0.2166
1400.73	0.1989
1410.08	0.1689
1419.44	0.1353
1428.8	0.1089
1438.15	0.0801
1447.51	0.0492
1456.87	0.0288
1466.22	0.023
1475.58	0.0427
1484.94	0.079
1494.29	0.111
1503.65	0.108
1513.01	0.0955
1522.37	0.0505
1531.72	0.0321
1541.08	0.0186
1550.44	0.014
1559.79	0.013
1569.15	0.0142
1578.51	0.0335
1587.86	0.049
1597.22	0.0231
1606.58	0.0131
1615.93	0.013
1625.29	0.013
1634.65	0.011
1644	0.0136
1653.36	0.015
1662.72	0.017
1672.07	0.0223
1681.43	0.056
1690.79	0.1074
1700.14	0.1435
1709.5	0.1852
1718.86	0.2157
1728.21	0.2525
1737.57	0.3002
1746.93	0.3496
1756.28	0.3796
1765.64	0.4207
1775	0.4555
1784.35	0.4843
1793.71	0.506
1803.07	0.517
1812.42	0.5114
1821.78	0.4897
1831.14	0.475
1840.49	0.4423
1849.85	0.4066
1859.21	0.3794
1868.56	0.3543
1877.92	0.3453
1887.28	0.342
1896.63	0.345
1905.99	0.3544
1915.35	0.3734
1924.7	0.3875
1934.06	0.4026
1943.42	0.4191
1952.77	0.43
1962.13	0.4379
1971.49	0.4479
1980.85	0.455
1990.2	0.4615
1999.56	0.462
2008.92	0.459
2018.27	0.4553
2027.63	0.451
2036.99	0.4473
2046.34	0.4407
2055.7	0.438
2065.06	0.432
2074.41	0.431
2083.77	0.431
2093.13	0.431
2102.48	0.43
2111.84	0.4273
2121.2	0.4233
2130.55	0.4183
2139.91	0.4077
2149.27	0.396
2158.62	0.3863
2167.98	0.3757
2177.34	0.3663
2186.69	0.3557
2196.05	0.3463
2205.41	0.3357
2214.76	0.322
2224.12	0.31
2233.48	0.2973
2242.83	0.2813
2252.19	0.2693
2261.55	0.258
2270.9	0.2493
2280.26	0.2403
2289.62	0.232
2298.97	0.2133
2308.33	0.1857
2317.69	0.159
2327.04	0.1527
2336.4	0.15
2345.76	0.147
2355.11	0.1463
2364.47	0.146
2373.83	0.146
2383.18	0.1423
2392.54	0.139
2401.9	0.134
2411.25	0.1287
2420.61	0.1247
2429.97	0.12
2439.33	0.116
2448.68	0.1113
2458.04	0.108
2467.4	0.1047
2476.75	0.103
2486.11	0.1007
2495.47	0.099
2504.82	0.098
2514.18	0.096
2523.54	0.096
2532.89	0.096
2542.25	0.095
2551.61	0.095
2560.96	0.095
2570.32	0.096
2579.68	0.096
2589.03	0.098
2598.39	0.098
2607.75	0.099
2617.1	0.1
2626.46	0.102
2635.82	0.103
2645.17	0.104
2654.53	0.1053
2663.89	0.1093
2673.24	0.118
2682.6	0.1237
2691.96	0.127
2701.31	0.132
2710.67	0.135
2720.03	0.136
2729.38	0.138
2738.74	0.136
2748.1	0.136
2757.45	0.14
2766.81	0.1453
2776.17	0.1507
2785.52	0.156
2794.88	0.1637
2804.24	0.1703
2813.59	0.1807
2822.95	0.187
2832.31	0.1943
2841.66	0.2007
2851.02	0.205
2860.38	0.2103
2869.73	0.216
2879.09	0.2237
2888.45	0.2317
2897.81	0.2397
2907.16	0.248
2916.52	0.2567
2925.88	0.2617
2935.23	0.2673
2944.59	0.2727
2953.95	0.2833
2963.3	0.299
2972.66	0.3173
2982.02	0.3347
2991.37	0.352
3000.73	0.3663
3010.09	0.374
3019.44	0.381
3028.8	0.387
3038.16	0.3937
3047.51	0.4017
3056.87	0.4217
3066.23	0.4413
3075.58	0.4507
3084.94	0.4677
3094.3	0.471
3103.65	0.4733
3113.01	0.4747
3122.37	0.476
3131.72	0.482
3141.08	0.489
3150.44	0.4987
3159.79	0.5087
3169.15	0.5227
3178.51	0.543
3187.86	0.5543
3197.22	0.557
3206.58	0.556
3215.93	0.553
3225.29	0.5513
3234.65	0.548
3244	0.556
3253.36	0.555
3262.72	0.547
3272.07	0.5443
3281.43	0.544
3290.79	0.543
3300.14	0.5417
3309.5	0.5377
3318.86	0.533
3328.21	0.5257
3337.57	0.5193
3346.93	0.5137
3356.29	0.5113
3365.64	0.507
3375	0.5033
3384.36	0.496
3393.71	0.4913
3403.07	0.4887
3412.43	0.4873
3421.78	0.486
3431.14	0.487
3440.5	0.488
3449.85	0.49
3459.21	0.494
3468.57	0.4973
3477.92	0.5007
3487.28	0.505
3496.64	0.5117
3505.99	0.519
3515.35	0.5277
3524.71	0.5367
3534.06	0.5437
3543.42	0.5583
3552.78	0.565
3562.13	0.5727
3571.49	0.577
3580.85	0.5837
3590.2	0.5887
3599.56	0.592
3608.92	0.596
3618.27	0.598
3627.63	0.6033
3636.99	0.6087
3646.34	0.612
3655.7	0.6107
3665.06	0.608
3674.41	0.605
3683.77	0.605
3693.13	0.605
3702.48	0.605
3711.84	0.6043
3721.2	0.602
3730.55	0.602
3739.91	0.602
3749.27	0.601
3758.62	0.601
3767.98	0.601
3777.34	0.601
3786.69	0.6
3796.05	0.6
3805.41	0.5963
3814.77	0.594
3824.12	0.5993
3833.48	0.6003
3842.84	0.5947
3852.19	0.592
3861.55	0.5883
3870.91	0.588
3880.26	0.586
3889.62	0.585
3898.98	0.583
3908.33	0.581
3917.69	0.581
3927.05	0.5803
3936.4	0.5763
3945.76	0.575
3955.12	0.5713
3964.47	0.567
3973.83	0.564
3983.19	0.563
3992.54	0.56
4001.9	0.5563
4011.26	0.5513
