Infrared Spectrum: BUTYRIC ACID, 2,2-DIMETHYL-4-HYDROXY-, G-LACTONE
Formula: C6 H10 O2
CAS: 3709-08-8
Boiling point: 85-87 C AT 15 mmHg
Class: COBLENTZ
Instrument: Not specified, most likely a prism, grating, or hybrid spectrometer.
Sampling: TRANSMISSION
Path length: SMEAR
Resolution: 4
Origin: TENNESSEE EASTMAN COMPANY, RESEARCH LABORATORIES
MICROMETERS	TRANSMITTANCE
1.993	0.876
2.03427	0.874
2.07554	0.874
2.11681	0.874
2.15808	0.878
2.19935	0.878
2.24062	0.876
2.28189	0.876
2.32316	0.874
2.36443	0.876
2.4057	0.874
2.44697	0.876
2.48824	0.878
2.52951	0.878
2.57078	0.878
2.61205	0.878
2.65332	0.879
2.69459	0.883
2.73586	0.881
2.77713	0.878
2.8184	0.871
2.85967	0.847
2.90094	0.852
2.94221	0.86
2.98348	0.86
3.02475	0.853
3.06602	0.848
3.10729	0.847
3.14856	0.841
3.18983	0.843
3.2311	0.85
3.27237	0.852
3.31364	0.828
3.35491	0.482
3.39618	0.475
3.43745	0.596
3.47872	0.651
3.51999	0.838
3.56126	0.859
3.60253	0.879
3.6438	0.883
3.68507	0.884
3.72634	0.888
3.76761	0.895
3.80888	0.9
3.85015	0.902
3.89142	0.903
3.93269	0.903
3.97396	0.907
4.01524	0.905
4.05651	0.902
4.09778	0.903
4.13905	0.905
4.18032	0.905
4.22159	0.91
4.26286	0.908
4.30413	0.907
4.3454	0.905
4.38667	0.907
4.42794	0.908
4.46921	0.912
4.51048	0.912
4.55175	0.912
4.59302	0.914
4.63429	0.914
4.67556	0.914
4.71683	0.915
4.7581	0.915
4.79937	0.915
4.84064	0.914
4.88191	0.912
4.92318	0.912
4.96445	0.912
5.00572	0.912
5.04699	0.912
5.08826	0.914
5.12953	0.912
5.1708	0.908
5.21207	0.905
5.25334	0.905
5.29461	0.905
5.33588	0.9
5.37715	0.886
5.41842	0.865
5.45969	0.824
5.50096	0.723
5.54223	0.575
5.5835	0.326
5.62477	0.097
5.66604	0.07
5.70731	0.226
5.74858	0.463
5.78985	0.556
5.83112	0.618
5.87239	0.69
5.91366	0.769
5.95493	0.821
5.9962	0.84
6.03747	0.847
6.07874	0.848
6.12001	0.836
6.16128	0.843
6.20255	0.857
6.24382	0.886
6.28509	0.895
6.32636	0.9
6.36763	0.9
6.4089	0.891
6.45017	0.888
6.49144	0.883
6.53271	0.871
6.57398	0.833
6.61525	0.802
6.65652	0.774
6.69779	0.728
6.73906	0.695
6.78033	0.58
6.8216	0.517
6.86287	0.575
6.90414	0.676
6.94541	0.757
6.98668	0.798
7.02795	0.812
7.06922	0.816
7.11049	0.778
7.15176	0.621
7.19303	0.41
7.2343	0.663
7.27557	0.635
7.31684	0.518
7.35811	0.654
7.39938	0.795
7.44065	0.821
7.48192	0.836
7.52319	0.843
7.56446	0.845
7.60573	0.845
7.647	0.845
7.68827	0.841
7.72954	0.833
7.77081	0.816
7.81208	0.776
7.85335	0.731
7.89462	0.634
7.93589	0.587
7.97716	0.699
8.01844	0.718
8.05971	0.659
8.10098	0.532
8.14225	0.462
8.18352	0.567
8.22479	0.493
8.26606	0.286
8.30733	0.221
8.3486	0.357
8.38987	0.498
8.43114	0.601
8.47241	0.639
8.51368	0.613
8.55495	0.52
8.59622	0.606
8.63749	0.652
8.67876	0.676
8.72003	0.701
8.7613	0.706
8.80257	0.666
8.84384	0.585
8.88511	0.484
8.92638	0.333
8.96765	0.228
9.00892	0.173
9.05019	0.192
9.09146	0.3
9.13273	0.439
9.174	0.56
9.21527	0.634
9.25654	0.692
9.29781	0.718
9.33908	0.723
9.38035	0.721
9.42162	0.701
9.46289	0.678
9.50416	0.656
9.54543	0.575
9.5867	0.489
9.62797	0.405
9.66924	0.228
9.71051	0.192
9.75178	0.323
9.79305	0.463
9.83432	0.561
9.87559	0.591
9.91686	0.585
9.95813	0.525
9.9994	0.469
10.0407	0.594
10.0819	0.699
10.1232	0.752
10.1645	0.778
10.2058	0.795
10.247	0.795
10.2883	0.766
10.3296	0.718
10.3708	0.706
10.4121	0.709
10.4534	0.721
10.4946	0.759
10.5359	0.785
10.5772	0.792
10.6185	0.793
10.6597	0.798
10.701	0.807
10.7423	0.821
10.7835	0.824
10.8248	0.831
10.8661	0.829
10.9073	0.805
10.9486	0.728
10.9899	0.616
11.0312	0.524
11.0724	0.62
11.1137	0.737
11.155	0.785
11.1962	0.807
11.2375	0.829
11.2788	0.835
11.32	0.843
11.3613	0.85
11.4026	0.853
11.4439	0.853
11.4851	0.855
11.5264	0.857
11.5677	0.862
11.6089	0.864
11.6502	0.864
11.6915	0.862
11.7327	0.864
11.774	0.862
11.8153	0.862
11.8566	0.86
11.8978	0.857
11.9391	0.853
11.9804	0.852
12.0216	0.852
12.0629	0.852
12.1042	0.853
12.1454	0.853
12.1867	0.853
12.228	0.855
12.2693	0.852
12.3105	0.847
12.3518	0.843
12.3931	0.847
12.4343	0.85
12.4756	0.852
12.5169	0.852
12.5581	0.852
12.5994	0.852
12.6407	0.847
12.682	0.845
12.7232	0.841
12.7645	0.838
12.8058	0.836
12.847	0.835
12.8883	0.836
12.9296	0.836
12.9708	0.831
13.0121	0.824
13.0534	0.807
13.0947	0.762
13.1359	0.69
13.1772	0.621
13.2185	0.625
13.2597	0.713
13.301	0.771
13.3423	0.8
13.3835	0.807
13.4248	0.817
13.4661	0.823
13.5074	0.823
13.5486	0.823
13.5899	0.823
13.6312	0.821
13.6724	0.821
13.7137	0.814
13.755	0.804
13.7962	0.757
13.8375	0.719
13.8788	0.713
13.9201	0.754
13.9613	0.781
14.0026	0.795
14.0439	0.8
14.0851	0.802
14.1264	0.8
14.1677	0.8
14.209	0.797
14.2502	0.79
14.2915	0.788
14.3328	0.783
14.374	0.781
14.4153	0.776
14.4566	0.769
14.4978	0.764
14.5391	0.759
14.5804	0.752
14.6217	0.74
14.6629	0.735
14.7042	0.728
14.7455	0.721
14.7867	0.711
14.828	0.702
14.8693	0.687
14.9105	0.666
14.9518	0.652
14.9931	0.644
15.0344	0.64
15.0756	0.652
15.1169	0.658
15.1582	0.661
15.1994	0.659
15.2407	0.656
15.282	0.651
15.3232	0.646
15.3645	0.639
15.4058	0.632
15.4471	0.628
15.4883	0.623
15.5296	0.62
15.5709	0.616
15.6121	0.615
15.6534	0.613
15.6947	0.606
15.7359	0.603
15.7772	0.601
15.8185	0.599
15.8598	0.594
15.901	0.591
15.9423	0.589
15.9836	0.585
