Infrared Spectrum: 2-Fluoroethanol
Formula: C 2 H 5 F O
CAS: 371-62-0
State: liquid
Instrument: Bruker Tensor 27 FTIR
Resolution: 0.48212986
Origin: Pacific Northwest National Laboratory Under IARPA Contract
1/cm	dispersion index
7797.49	1.35177
7778.93	1.3518
7760.37	1.35178
7741.81	1.35176
7723.24	1.35174
7704.68	1.35172
7686.12	1.35169
7667.56	1.35167
7649	1.35164
7630.44	1.35161
7611.88	1.35159
7593.31	1.35156
7574.75	1.35153
7556.19	1.3515
7537.63	1.35147
7519.07	1.35144
7500.51	1.3514
7481.95	1.35137
7463.38	1.35133
7444.82	1.35129
7426.26	1.35128
7407.7	1.35127
7389.14	1.35124
7370.58	1.35121
7352.02	1.35117
7333.46	1.35113
7314.89	1.3511
7296.33	1.35106
7277.77	1.35103
7259.21	1.35099
7240.65	1.35095
7222.09	1.35091
7203.53	1.35087
7184.96	1.35083
7166.4	1.35079
7147.84	1.35075
7129.28	1.3507
7110.72	1.35065
7092.16	1.35061
7073.6	1.35056
7055.03	1.35052
7036.47	1.35047
7017.91	1.35042
6999.35	1.35036
6980.79	1.35031
6962.23	1.35025
6943.67	1.35018
6925.1	1.35011
6906.54	1.35004
6887.98	1.34996
6869.42	1.34991
6850.86	1.34985
6832.3	1.34978
6813.74	1.34971
6795.17	1.34966
6776.61	1.34959
6758.05	1.34951
6739.49	1.34944
6720.93	1.34936
6702.37	1.34927
6683.81	1.34918
6665.25	1.34908
6646.68	1.34898
6628.12	1.34888
6609.56	1.34877
6591	1.34866
6572.44	1.34854
6553.88	1.3484
6535.32	1.34828
6516.75	1.3482
6498.19	1.34807
6479.63	1.34794
6461.07	1.3478
6442.51	1.34766
6423.95	1.3475
6405.39	1.34733
6386.82	1.34715
6368.26	1.34698
6349.7	1.34682
6331.14	1.34665
6312.58	1.3465
6294.02	1.34635
6275.46	1.34617
6256.89	1.34597
6238.33	1.34574
6219.77	1.34548
6201.21	1.3452
6182.65	1.3449
6164.09	1.34455
6145.53	1.34415
6126.96	1.34367
6108.4	1.34366
6089.84	1.3435
6071.28	1.34323
6052.72	1.3428
6034.16	1.3423
6015.6	1.3418
5997.03	1.34129
5978.47	1.34068
5959.91	1.3399
5941.35	1.33915
5922.79	1.33856
5904.23	1.33826
5885.67	1.33745
5867.11	1.33636
5848.54	1.33506
5829.98	1.33347
5811.42	1.33181
5792.86	1.32969
5774.3	1.32698
5755.74	1.32309
5737.18	1.31709
5718.61	1.3122
5700.05	1.31036
5681.49	1.31071
5662.93	1.30336
5644.37	1.29934
5625.81	1.3029
5607.25	1.3154
5588.68	1.3336
5570.12	1.35331
5551.56	1.37018
5533	1.38176
5514.44	1.3878
5495.88	1.38824
5477.32	1.38449
5458.75	1.37854
5440.19	1.37157
5421.63	1.36298
5403.07	1.34724
5384.51	1.35351
5365.95	1.37307
5347.39	1.37748
5328.82	1.38249
5310.26	1.3803
5291.7	1.37599
5273.14	1.37295
5254.58	1.37128
5236.02	1.3691
5217.46	1.36774
5198.89	1.36621
5180.33	1.36438
5161.77	1.36342
5143.21	1.36261
5124.65	1.36189
5106.09	1.36106
5087.53	1.35955
5068.97	1.35845
5050.4	1.35755
5031.84	1.35678
5013.28	1.35584
4994.72	1.35449
4976.16	1.35408
4957.6	1.35298
4939.04	1.35193
4920.47	1.35095
4901.91	1.34935
4883.35	1.3487
4864.79	1.34845
4846.23	1.34666
4827.67	1.3459
4809.11	1.34373
4790.54	1.34137
4771.98	1.33959
4753.42	1.33824
4734.86	1.33492
4716.3	1.33539
4697.74	1.33246
4679.18	1.32659
4660.61	1.31889
4642.05	1.30402
4623.49	1.33646
4604.93	1.32588
4586.37	1.33408
4567.81	1.33381
4549.25	1.33234
4530.68	1.32096
4512.12	1.3208
4493.56	1.31638
4475	1.27753
4456.44	1.19817
4437.88	1.45111
4419.32	1.29931
4400.75	1.51292
4382.19	1.41333
4363.63	1.35548
4345.07	1.19011
4326.51	1.42417
4307.95	1.4445
4289.39	1.40053
4270.83	1.38654
4252.26	1.37929
4233.7	1.37861
4215.14	1.38432
4196.58	1.39127
4178.02	1.38783
4159.46	1.33579
4140.9	1.45884
4122.33	1.4555
4103.77	1.48702
4085.21	0.000182097
4066.65	0.000182524
4048.09	0.00017996
4029.53	0.000179531
4010.97	0.000180386
3992.4	0.000180386
3973.84	0.000181669
3955.28	0.000183806
3936.72	0.000188508
3918.16	0.000194065
3899.6	0.000201331
3881.04	0.000208599
3862.47	0.000217148
3843.91	0.000220567
3825.35	0.000226125
3806.79	0.000232964
3788.23	0.000245787
3769.67	0.000282976
3751.11	0.0003612
3732.54	0.000448829
3713.98	0.000465928
3695.42	0.000427456
3676.86	0.000399672
3658.3	0.00039155
3639.74	0.000395825
3621.18	0.000403091
3602.61	0.000407793
3584.05	0.000411213
3565.49	0.000413777
3546.93	0.00041506
3528.37	0.00041335
3509.81	0.000412068
3491.25	0.000412922
3472.69	0.000412922
3454.12	0.000412495
3435.56	0.00041506
3417	0.00042019
3398.44	0.000427456
3379.88	0.000431731
3361.32	0.000427456
3342.76	0.000413777
3324.19	0.000392832
3305.63	0.000370177
3287.07	0.000348376
3268.51	0.000330424
3249.95	0.000314608
3231.39	0.000304349
3212.83	0.000306486
3194.26	0.00034453
3175.7	0.00044028
3157.14	0.000444554
3138.58	0.000470201
3120.02	0.000483025
3101.46	0.000521497
3082.9	0.000478751
3064.33	0.000457378
3045.77	0.000470201
3027.21	0.000427456
3008.65	0.000397107
2990.09	0.000371887
2971.53	0.00034111
2952.97	0.000315463
2934.4	0.000311188
2915.84	0.000301785
2897.28	0.00029409
2878.72	0.000286395
2860.16	0.000310333
2841.6	0.0004873
2823.04	0.000555693
2804.47	0.0004873
2785.91	0.000491575
2767.35	0.000500123
2748.79	0.000491575
2730.23	0.00049585
2711.67	0.000500123
2693.11	0.000589889
2674.55	0.0007395
2655.98	0.000863462
2637.42	0.00102162
2618.86	0.00116696
2600.3	0.00121398
2581.74	0.00112848
2563.18	0.00103017
2544.62	0.000931854
2526.05	0.000846364
2507.49	0.000790793
2488.93	0.000760872
2470.37	0.000782245
2451.81	0.000893384
2433.25	0.00145335
2414.69	0.00330424
2396.12	0.0029238
2377.56	0.00244505
2359	0.00200477
2340.44	0.00174402
2321.88	0.00174402
2303.32	0.00184234
2284.76	0.0016799
2266.19	0.00169273
2247.63	0.00262458
2229.07	0.00395397
2210.51	0.00500124
2191.95	0.00356498
2173.39	0.00260748
2154.83	0.00202187
2136.26	0.00186798
2117.7	0.0024536
2099.14	0.00235101
2080.58	0.00256474
2062.02	0.00311188
2043.46	0.00897658
2024.9	0.0285541
2006.33	0.063691
1987.77	0.0790794
1969.21	0.0936129
1950.65	0.144908
1932.09	0.21672
1913.53	0.286823
1894.97	0.332133
1876.41	0.343247
1857.84	0.319737
1839.28	0.273572
1820.72	0.21672
1802.16	0.159014
1783.6	0.110284
1765.04	0.0760872
1746.48	0.0547144
1727.91	0.0431731
1709.35	0.0474476
1690.79	0.150037
1672.23	0.152174
1653.67	0.11926
1635.11	0.103872
1616.55	0.0611262
1597.98	0.0403091
1579.42	0.0322302
1560.86	0.0281266
1542.3	0.0223987
1523.74	0.0205179
1505.18	0.0163716
1486.62	0.0141488
1468.05	0.0148327
1449.49	0.0145763
1430.93	0.0126954
1412.37	0.0103872
1393.81	0.0073095
1375.25	0.00816441
1356.69	0.00863461
1338.12	0.00790794
1319.56	0.00696754
1301	0.0068393
1282.44	0.00859187
1263.88	0.00735225
1245.32	0.00709577
1226.76	0.00713852
1208.19	0.00675381
1189.63	0.0125245
1171.07	0.0109429
1152.51	0.00876285
1133.95	0.00957502
1115.39	0.00743774
1096.83	0.00893383
1078.27	0.0132084
1059.7	0.016628
1041.14	0.0179104
1022.58	0.0313753
1004.02	0.0206461
985.458	0.0197485
966.897	0.0264168
948.335	0.04873
929.774	0.277419
911.213	0.145763
892.651	0.168418
874.09	0.123962
855.528	0.113276
836.967	0.120115
818.406	0.138923
799.844	0.0760872
781.283	0.0594164
762.721	0.134221
744.16	1.54312
725.599	0.577066
707.037	0.615537
688.476	0.0846363
669.915	0.0611262
651.353	0.177394
632.792	0.415915
614.23	0.0931854
595.669	0.083354
577.108	0.138496
558.546	0.17483
539.985	0.224414
521.423	0.264595
502.862	0.281266
484.301	0.276564
465.739	0.324867
447.178	0.400954
428.616	0.322302
410.055	0.331706
