Infrared Spectrum: 1,7-Octadiene
Formula: C8 H14
CAS: 3710-30-3
State: LIQUID (NEAT)
Class: COBLENTZ III
Instrument: BECKMAN IR-12 (GRATING)
Instrument parameters: GRATING
Sampling: TRANSMISSION
Path length: 0.0094 CM
Resolution: 2
Origin: COLGATE-PALMOLIVE COMPANY (KELLENBACH)
1/CM	TRANSMITTANCE
201	0.6296
211	0.6415
221	0.7269
231	0.8214
241	0.9572
251	0.9958
261	1.0133
271	1.0182
281	1.0183
291	1.0183
301	1.0183
311	1.0184
321	1.0184
331	1.0184
341	1.0185
351	1.0185
361	1.0185
371	1.0168
381	1.0035
391	0.9801
401	0.95
411	0.9223
421	0.8843
431	0.8631
441	0.8239
451	0.8267
461	0.8292
471	0.823
481	0.8134
491	0.8276
501	0.8667
511	0.8834
521	0.8783
531	0.8363
541	0.6549
551	0.4378
561	0.4132
571	0.5676
581	0.6805
591	0.7019
601	0.6427
611	0.4219
621	0.1682
631	0.0803
641	0.0774
651	0.203
661	0.3776
671	0.4803
681	0.6461
691	0.6968
701	0.7169
711	0.7173
721	0.6572
731	0.4463
741	0.3608
751	0.5551
761	0.6346
771	0.6603
781	0.6427
791	0.6652
801	0.65
811	0.5529
821	0.5538
831	0.604
841	0.5846
851	0.5245
861	0.4386
871	0.4047
881	0.2578
891	0.0732
901	0.0005
911	0.0002
921	0.0002
931	0.0487
941	0.1534
951	0.256
961	0.2928
971	0.2676
981	0.0523
991	0.0008
1001	0.0001
1011	0.0415
1021	0.1611
1031	0.2732
1041	0.3385
1051	0.3798
1061	0.4249
1071	0.4699
1081	0.5202
1091	0.5235
1101	0.524
1111	0.5434
1121	0.5377
1131	0.5467
1141	0.5628
1151	0.5802
1161	0.602
1171	0.6125
1181	0.5803
1191	0.5149
1201	0.5325
1211	0.5504
1221	0.5678
1231	0.6038
1241	0.6137
1251	0.5678
1261	0.5321
1271	0.4741
1281	0.4884
1291	0.4396
1301	0.4016
1311	0.4723
1321	0.4261
1331	0.4723
1341	0.4409
1351	0.3836
1361	0.4528
1371	0.5035
1381	0.5379
1391	0.5137
1401	0.4526
1411	0.112
1421	0.1259
1431	0.0574
1441	0.0154
1451	0.0255
1461	0.0253
1471	0.265
1481	0.4988
1491	0.5879
1501	0.6407
1511	0.645
1521	0.649
1531	0.6288
1541	0.6026
1551	0.5967
1561	0.6159
1571	0.6507
1581	0.6663
1591	0.6479
1601	0.6096
1611	0.4885
1621	0.3739
1631	0.1272
1641	0.0029
1651	0.2116
1661	0.4679
1671	0.6041
1681	0.646
1691	0.6717
1701	0.6802
1711	0.6936
1721	0.7029
1731	0.71
1741	0.7198
1751	0.7304
1761	0.7363
1771	0.7262
1781	0.7184
1791	0.6847
1801	0.5605
1811	0.3575
1821	0.2454
1831	0.3282
1841	0.5341
1851	0.6376
1861	0.6934
1871	0.7138
1881	0.7185
1891	0.709
1901	0.7146
1911	0.7324
1921	0.7453
1931	0.7513
1941	0.7516
1951	0.7456
1961	0.707
1971	0.6539
1981	0.659
1991	0.6962
2001	0.7354
2011	0.7536
2021	0.7558
2031	0.7566
2041	0.7575
2051	0.7581
2061	0.7584
2071	0.7602
2081	0.7659
2091	0.7753
2101	0.779
2111	0.7813
2121	0.7812
2131	0.7799
2141	0.7771
2151	0.7779
2161	0.7785
2171	0.7754
2181	0.7707
2191	0.7682
2201	0.7677
2211	0.7703
2221	0.7753
2231	0.775
2241	0.7712
2251	0.7661
2261	0.7609
2271	0.7567
2281	0.7531
2291	0.7535
2301	0.7549
2311	0.757
2321	0.7568
2331	0.7536
2341	0.7576
2351	0.7621
2361	0.7646
2371	0.7667
2381	0.7766
2391	0.7835
2401	0.7857
2411	0.7859
2421	0.7832
2431	0.7786
2441	0.7715
2451	0.77
2461	0.7699
2471	0.7708
2481	0.7738
2491	0.7651
2501	0.7556
2511	0.7462
2521	0.7412
2531	0.7348
2541	0.7279
2551	0.7316
2561	0.7314
2571	0.7288
2581	0.7253
2591	0.7212
2601	0.7143
2611	0.7046
2621	0.6907
2631	0.6758
2641	0.6612
2651	0.6492
2661	0.64
2671	0.6313
2681	0.6277
2691	0.6344
2701	0.6441
2711	0.6491
2721	0.6428
2731	0.6353
2741	0.6321
2751	0.6096
2761	0.5776
2771	0.5693
2781	0.5243
2791	0.4745
2801	0.3626
2811	0.2495
2821	0.1363
2831	0.0284
2841	0.0068
2851	0.0002
2861	0
2871	0.0052
2881	0.007
2891	0.0001
2901	0
2911	0
2921	0.0001
2931	0.0001
2941	0.0002
2951	0.0066
2961	0.0143
2971	0.0033
2981	0.0084
2991	0.0052
3001	0.065
3011	0.171
3021	0.2653
3031	0.2749
3041	0.2107
3051	0.1205
3061	0.0312
3071	0.0043
3081	0.081
3091	0.3291
3101	0.4018
3111	0.4755
3121	0.563
3131	0.5957
3141	0.6152
3151	0.6302
3161	0.6455
3171	0.6548
3181	0.6668
3191	0.6799
3201	0.69
3211	0.6984
3221	0.7059
3231	0.7128
3241	0.7144
3251	0.7096
3261	0.7031
3271	0.7057
3281	0.7145
3291	0.719
3301	0.7199
3311	0.7207
3321	0.7217
3331	0.7223
3341	0.7226
3351	0.7239
3361	0.7252
3371	0.7268
3381	0.7289
3391	0.7287
3401	0.7269
3411	0.7249
3421	0.7225
3431	0.7205
3441	0.719
3451	0.7175
3461	0.7186
3471	0.7216
3481	0.7232
3491	0.7234
3501	0.7225
3511	0.721
3521	0.7196
3531	0.7196
3541	0.7209
3551	0.7221
3561	0.7263
3571	0.7304
3581	0.7321
3591	0.7311
3601	0.7282
3611	0.7251
3621	0.7215
3631	0.7179
3641	0.7153
3651	0.7131
3661	0.711
3671	0.7094
3681	0.7079
3691	0.7064
3701	0.7051
3711	0.7042
3721	0.7033
3731	0.7025
3741	0.7023
3751	0.7022
3761	0.7044
3771	0.705
3781	0.7009
3791	0.6996
3801	0.6987
3811	0.6988
3821	0.6982
3831	0.6958
3841	0.6934
3851	0.6904
3861	0.6856
3871	0.681
3881	0.6817
3891	0.6823
3901	0.6678
3911	0.6688
3921	0.6717
3931	0.6722
3941	0.6665
3951	0.6612
3961	0.6564
3971	0.6524
3981	0.6495
3991	0.6487
