Infrared Spectrum: THIOPHENE, 2,5-DICHLORO-3-NITRO-
Formula: C4 H Cl2 N O2 S
CAS: 37105-12-7
Class: COBLENTZ
Instrument: Not specified, most likely a prism, grating, or hybrid spectrometer.
Sampling: TRANSMISSION
Path length: SMEAR
Resolution: 4
Origin: TENNESSEE EASTMAN COMPANY, RESEARCH LABORATORIES
MICROMETERS	TRANSMITTANCE
2.028	0.953
2.06907	0.953
2.11015	0.953
2.15122	0.955
2.19229	0.955
2.23337	0.955
2.27444	0.955
2.31551	0.955
2.35659	0.953
2.39766	0.955
2.43874	0.952
2.47981	0.952
2.52088	0.952
2.56196	0.952
2.60303	0.952
2.6441	0.947
2.68518	0.943
2.72625	0.943
2.76732	0.941
2.8084	0.931
2.84947	0.933
2.89054	0.933
2.93162	0.935
2.97269	0.935
3.01376	0.933
3.05484	0.933
3.09591	0.933
3.13699	0.929
3.17806	0.895
3.21913	0.502
3.26021	0.904
3.30128	0.897
3.34235	0.916
3.38343	0.916
3.4245	0.852
3.46557	0.829
3.50665	0.858
3.54772	0.87
3.58879	0.914
3.62987	0.923
3.67094	0.924
3.71201	0.926
3.75309	0.914
3.79416	0.917
3.83524	0.926
3.87631	0.928
3.91738	0.931
3.95846	0.933
3.99953	0.931
4.0406	0.926
4.08168	0.924
4.12275	0.924
4.16382	0.926
4.2049	0.941
4.24597	0.984
4.28704	0.96
4.32812	0.921
4.36919	0.904
4.41026	0.943
4.45134	0.95
4.49241	0.95
4.53349	0.945
4.57456	0.948
4.61563	0.947
4.65671	0.948
4.69778	0.952
4.73885	0.947
4.77993	0.948
4.821	0.947
4.86207	0.945
4.90315	0.952
4.94422	0.953
4.98529	0.952
5.02637	0.945
5.06744	0.945
5.10851	0.947
5.14959	0.952
5.19066	0.953
5.23174	0.945
5.27281	0.95
5.31388	0.952
5.35496	0.936
5.39603	0.957
5.4371	0.938
5.47818	0.935
5.51925	0.931
5.56032	0.938
5.6014	0.935
5.64247	0.943
5.68354	0.931
5.72462	0.897
5.76569	0.868
5.80676	0.89
5.84784	0.864
5.88891	0.861
5.92999	0.873
5.97106	0.852
6.01213	0.837
6.05321	0.842
6.09428	0.808
6.13535	0.83
6.17643	0.813
6.2175	0.791
6.25857	0.765
6.29965	0.675
6.34072	0.528
6.38179	0.434
6.42287	0.022
6.46394	0.054
6.50501	0.249
6.54609	0.311
6.58716	0.188
6.62824	0.382
6.66931	0.591
6.71038	0.682
6.75146	0.668
6.79253	0.516
6.8336	0.288
6.87468	0.141
6.91575	0.601
6.95682	0.712
6.9979	0.774
7.03897	0.784
7.08004	0.731
7.12112	0.654
7.16219	0.509
7.20326	0.382
7.24434	0.266
7.28541	0.09
7.32649	0.032
7.36756	0.112
7.40863	0.362
7.44971	0.519
7.49078	0.502
7.53185	0.263
7.57293	0.097
7.614	0.37
7.65507	0.388
7.69615	0.282
7.73722	0.391
7.77829	0.553
7.81937	0.723
7.86044	0.835
7.90151	0.878
7.94259	0.897
7.98366	0.904
8.02474	0.921
8.06581	0.929
8.10688	0.935
8.14796	0.941
8.18903	0.947
8.2301	0.943
8.27118	0.936
8.31225	0.953
8.35332	0.948
8.3944	0.948
8.43547	0.943
8.47654	0.933
8.51762	0.907
8.55869	0.808
8.59976	0.548
8.64084	0.391
8.68191	0.454
8.72299	0.678
8.76406	0.728
8.80513	0.741
8.84621	0.743
8.88728	0.762
8.92835	0.784
8.96943	0.774
9.0105	0.817
9.05157	0.837
9.09265	0.854
9.13372	0.868
9.17479	0.873
9.21587	0.875
9.25694	0.866
9.29801	0.822
9.33909	0.683
9.38016	0.398
9.42124	0.099
9.46231	0.114
9.50338	0.398
9.54446	0.629
9.58553	0.719
9.6266	0.77
9.66768	0.769
9.70875	0.765
9.74982	0.801
9.7909	0.788
9.83197	0.729
9.87304	0.623
9.91412	0.577
9.95519	0.618
9.99626	0.714
10.0373	0.794
10.0784	0.851
10.1195	0.866
10.1606	0.878
10.2016	0.887
10.2427	0.895
10.2838	0.914
10.3249	0.923
10.3659	0.924
10.407	0.924
10.4481	0.916
10.4891	0.907
10.5302	0.909
10.5713	0.905
10.6124	0.88
10.6534	0.801
10.6945	0.584
10.7356	0.473
10.7767	0.641
10.8177	0.822
10.8588	0.88
10.8999	0.904
10.941	0.905
10.982	0.882
11.0231	0.9
11.0642	0.924
11.1052	0.933
11.1463	0.94
11.1874	0.941
11.2285	0.941
11.2695	0.941
11.3106	0.941
11.3517	0.941
11.3928	0.938
11.4338	0.924
11.4749	0.916
11.516	0.9
11.5571	0.875
11.5981	0.851
11.6392	0.829
11.6803	0.798
11.7214	0.757
11.7624	0.7
11.8035	0.634
11.8446	0.574
11.8856	0.516
11.9267	0.476
11.9678	0.437
12.0089	0.403
12.0499	0.398
12.091	0.423
12.1321	0.538
12.1732	0.666
12.2142	0.738
12.2553	0.798
12.2964	0.829
12.3375	0.852
12.3785	0.861
12.4196	0.861
12.4607	0.859
12.5017	0.852
12.5428	0.839
12.5839	0.829
12.625	0.803
12.666	0.77
12.7071	0.697
12.7482	0.569
12.7893	0.447
12.8303	0.307
12.8714	0.22
12.9125	0.172
12.9536	0.184
12.9946	0.345
13.0357	0.478
13.0768	0.584
13.1179	0.576
13.1589	0.494
13.2	0.384
13.2411	0.23
13.2821	0.237
13.3232	0.4
13.3643	0.598
13.4054	0.7
13.4464	0.767
13.4875	0.8
13.5286	0.817
13.5697	0.834
13.6107	0.846
13.6518	0.852
13.6929	0.859
13.734	0.866
13.775	0.873
13.8161	0.882
13.8572	0.883
13.8982	0.885
13.9393	0.887
13.9804	0.89
14.0215	0.892
14.0625	0.892
14.1036	0.892
14.1447	0.892
14.1858	0.894
14.2268	0.892
14.2679	0.89
14.309	0.883
14.3501	0.878
14.3911	0.863
14.4322	0.842
14.4733	0.805
14.5144	0.781
14.5554	0.774
14.5965	0.786
14.6376	0.811
14.6786	0.818
14.7197	0.825
14.7608	0.83
14.8019	0.834
14.8429	0.835
14.884	0.832
14.9251	0.827
14.9662	0.822
15.0072	0.818
15.0483	0.815
15.0894	0.796
15.1305	0.774
15.1715	0.752
15.2126	0.719
15.2537	0.688
15.2947	0.642
15.3358	0.603
15.3769	0.581
15.418	0.553
15.459	0.547
15.5001	0.548
15.5412	0.55
15.5823	0.555
15.6233	0.584
15.6644	0.601
15.7055	0.618
15.7466	0.651
15.7876	0.663
15.8287	0.675
15.8698	0.685
15.9109	0.694
15.9519	0.699
15.993	0.699
