Infrared Spectrum: 4-HYDRAZINO-6-METHYL-1,3,3a,7-TETRAZAINDENE
Formula: C6 H8 N6
CAS: 37140-08-2
State: SOLID (KBr PRESSING)
Melting point: 276-278 C
Class: COBLENTZ
Instrument: Not specified, most likely a prism, grating, or hybrid spectrometer.
Sampling: TRANSMISSION
Resolution: 4
Origin: EASTMAN KODAK COMPANY, RESEARCH LABORATORIES, ROCHESTER, N.Y.
MICROMETERS	TRANSMITTANCE
2.044	0.482
2.07916	0.48
2.11432	0.48
2.14948	0.479
2.18465	0.473
2.21981	0.47
2.25497	0.465
2.29013	0.465
2.32529	0.473
2.36045	0.477
2.39562	0.48
2.43078	0.486
2.46594	0.489
2.5011	0.491
2.53626	0.5
2.57142	0.508
2.60659	0.515
2.64175	0.526
2.67691	0.533
2.71207	0.536
2.74723	0.536
2.78239	0.531
2.81756	0.505
2.85272	0.48
2.88788	0.473
2.92304	0.463
2.9582	0.463
2.99336	0.47
3.02853	0.475
3.06369	0.363
3.09885	0.421
3.13401	0.3
3.16917	0.323
3.20433	0.335
3.2395	0.312
3.27466	0.318
3.30982	0.304
3.34498	0.309
3.38014	0.318
3.4153	0.323
3.45047	0.325
3.48563	0.34
3.52079	0.344
3.55595	0.37
3.59111	0.395
3.62627	0.423
3.66144	0.438
3.6966	0.461
3.73176	0.486
3.76692	0.503
3.80208	0.526
3.83724	0.54
3.8724	0.559
3.90757	0.571
3.94273	0.585
3.97789	0.594
4.01305	0.611
4.04821	0.62
4.08337	0.629
4.11854	0.638
4.1537	0.643
4.18886	0.648
4.22402	0.65
4.25918	0.652
4.29434	0.66
4.32951	0.68
4.36467	0.687
4.39983	0.692
4.43499	0.697
4.47015	0.701
4.50531	0.702
4.54048	0.702
4.57564	0.704
4.6108	0.708
4.64596	0.713
4.68112	0.722
4.71628	0.725
4.75145	0.722
4.78661	0.727
4.82177	0.729
4.85693	0.73
4.89209	0.73
4.92725	0.739
4.96242	0.748
4.99758	0.748
5.03274	0.76
5.0679	0.763
5.10306	0.769
5.13822	0.776
5.17339	0.788
5.20855	0.791
5.24371	0.802
5.27887	0.807
5.31403	0.832
5.34919	0.825
5.38435	0.851
5.41952	0.84
5.45468	0.828
5.48984	0.851
5.525	0.851
5.56016	0.835
5.59532	0.874
5.63049	0.863
5.66565	0.867
5.70081	0.832
5.73597	0.8
5.77113	0.739
5.80629	0.652
5.84146	0.575
5.87662	0.442
5.91178	0.288
5.94694	0.243
5.9821	0.323
6.01726	0.379
6.05243	0.423
6.08759	0.489
6.12275	0.5
6.15791	0.349
6.19307	0.283
6.22823	0.309
6.2634	0.122
6.29856	0.227
6.33372	0.34
6.36888	0.438
6.40404	0.468
6.4392	0.548
6.47437	0.561
6.50953	0.594
6.54469	0.538
6.57985	0.424
6.61501	0.421
6.65017	0.48
6.68534	0.533
6.7205	0.615
6.75566	0.631
6.79082	0.659
6.82598	0.62
6.86114	0.506
6.89631	0.44
6.93147	0.382
6.96663	0.372
7.00179	0.335
7.03695	0.34
7.07211	0.398
7.10727	0.414
7.14244	0.444
7.1776	0.529
7.21276	0.589
7.24792	0.622
7.28308	0.599
7.31824	0.632
7.35341	0.68
7.38857	0.69
7.42373	0.608
7.45889	0.47
7.49405	0.382
7.52921	0.463
7.56438	0.52
7.59954	0.501
7.6347	0.466
7.66986	0.5
7.70502	0.573
7.74018	0.641
7.77535	0.659
7.81051	0.681
7.84567	0.722
7.88083	0.73
7.91599	0.697
7.95115	0.463
7.98632	0.332
8.02148	0.638
8.05664	0.69
8.0918	0.463
8.12696	0.248
8.16212	0.548
8.19729	0.667
8.23245	0.715
8.26761	0.732
8.30277	0.715
8.33793	0.725
8.37309	0.713
8.40826	0.526
8.44342	0.305
8.47858	0.34
8.51374	0.5
8.5489	0.599
8.58406	0.638
8.61923	0.673
8.65439	0.692
8.68955	0.688
8.72471	0.685
8.75987	0.685
8.79503	0.744
8.83019	0.765
8.86536	0.786
8.90052	0.802
8.93568	0.809
8.97084	0.821
9.006	0.83
9.04116	0.833
9.07633	0.821
9.11149	0.776
9.14665	0.638
9.18181	0.477
9.21697	0.37
9.25213	0.372
9.2873	0.486
9.32246	0.601
9.35762	0.655
9.39278	0.695
9.42794	0.708
9.4631	0.73
9.49827	0.739
9.53343	0.748
9.56859	0.751
9.60375	0.741
9.63891	0.704
9.67407	0.704
9.70924	0.708
9.7444	0.673
9.77956	0.617
9.81472	0.571
9.84988	0.601
9.88504	0.673
9.92021	0.725
9.95537	0.746
9.99053	0.708
10.0257	0.643
10.0609	0.606
10.096	0.568
10.1312	0.515
10.1663	0.473
10.2015	0.426
10.2367	0.402
10.2718	0.402
10.307	0.438
10.3421	0.484
10.3773	0.534
10.4125	0.585
10.4476	0.625
10.4828	0.608
10.518	0.545
10.5531	0.655
10.5883	0.695
10.6234	0.713
10.6586	0.736
10.6938	0.755
10.7289	0.776
10.7641	0.781
10.7992	0.769
10.8344	0.718
10.8696	0.744
10.9047	0.795
10.9399	0.811
10.9751	0.818
11.0102	0.809
11.0454	0.685
11.0805	0.75
11.1157	0.823
11.1509	0.854
11.186	0.865
11.2212	0.87
11.2563	0.877
11.2915	0.884
11.3267	0.886
11.3618	0.886
11.397	0.891
11.4322	0.895
11.4673	0.9
11.5025	0.902
11.5376	0.903
11.5728	0.907
11.608	0.909
11.6431	0.91
11.6783	0.912
11.7134	0.916
11.7486	0.917
11.7838	0.917
11.8189	0.919
11.8541	0.924
11.8893	0.931
11.9244	0.923
11.9596	0.926
11.9947	0.912
12.0299	0.835
12.0651	0.65
12.1002	0.545
12.1354	0.615
12.1705	0.667
12.2057	0.688
12.2409	0.694
12.276	0.692
12.3112	0.704
12.3464	0.73
12.3815	0.76
12.4167	0.774
12.4518	0.784
12.487	0.793
12.5222	0.8
12.5573	0.804
12.5925	0.805
12.6277	0.807
12.6628	0.809
12.698	0.812
12.7331	0.809
12.7683	0.814
12.8035	0.812
12.8386	0.8
12.8738	0.739
12.9089	0.534
12.9441	0.419
12.9793	0.559
13.0144	0.625
13.0496	0.638
13.0848	0.645
13.1199	0.648
13.1551	0.648
13.1902	0.653
13.2254	0.655
13.2606	0.655
13.2957	0.664
13.3309	0.674
13.366	0.678
13.4012	0.692
13.4364	0.701
13.4715	0.708
13.5067	0.72
13.5419	0.706
13.577	0.667
13.6122	0.634
13.6473	0.641
13.6825	0.659
13.7177	0.68
13.7528	0.706
13.788	0.715
13.8231	0.723
13.8583	0.744
13.8935	0.756
13.9286	0.762
13.9638	0.767
13.999	0.772
14.0341	0.772
14.0693	0.77
14.1044	0.769
14.1396	0.756
14.1748	0.73
14.2099	0.704
14.2451	0.687
14.2802	0.671
14.3154	0.671
14.3506	0.695
14.3857	0.741
14.4209	0.776
14.4561	0.795
14.4912	0.802
14.5264	0.804
14.5615	0.807
14.5967	0.809
14.6319	0.812
14.667	0.816
14.7022	0.819
14.7373	0.821
14.7725	0.819
14.8077	0.814
14.8428	0.805
14.878	0.779
14.9132	0.718
14.9483	0.694
14.9835	0.734
15.0186	0.753
15.0538	0.741
15.089	0.727
15.1241	0.709
15.1593	0.692
15.1945	0.674
15.2296	0.666
15.2648	0.662
15.2999	0.653
15.3351	0.652
15.3703	0.646
15.4054	0.643
15.4406	0.634
15.4757	0.625
15.5109	0.617
15.5461	0.599
15.5812	0.58
15.6164	0.562
15.6516	0.555
15.6867	0.555
15.7219	0.566
15.757	0.582
15.7922	0.604
15.8274	0.618
15.8625	0.627
15.8977	0.636
15.9328	0.645
15.968	0.645
16.0032	0.645
