Infrared Spectrum: 3-Methylbenzylthiocyanate
Formula: C 9 H 9 N S
CAS: 37141-50-7
State: gas
Origin: EPA-IR VAPOR PHASE LIBRARY
1/CM	ABSORBANCE
549.9	0.0006449
559.547	0.0007078
569.193	0.001324
578.84	0.002324
588.486	0.001904
598.133	0.0006267
607.779	0.000412
617.426	0.0004691
627.072	0.0004944
636.719	0.0008552
646.365	0.001634
656.012	0.002214
665.658	0.002444
675.305	0.002774
684.951	0.004654
694.598	0.008684
704.245	0.011794
713.891	0.009404
723.538	0.006604
733.184	0.004394
742.831	0.002754
752.477	0.002264
762.124	0.003284
771.77	0.005964
781.417	0.008484
791.063	0.005874
800.71	0.002484
810.356	0.0011121
820.003	0.0006594
829.649	0.0005302
839.296	0.0004989
848.943	0.0004904
858.589	0.0008363
868.236	0.001564
877.882	0.001904
887.529	0.001394
897.175	0.0011562
906.822	0.0012436
916.468	0.001334
926.115	0.0011435
935.761	0.0006873
945.408	0.0004571
955.054	0.0004271
964.701	0.0004053
974.347	0.0005206
983.994	0.0005769
993.64	0.0008343
1003.29	0.0007734
1012.93	0.0004157
1022.58	0.00034146
1032.23	0.0004661
1041.87	0.0007304
1051.52	0.0008756
1061.17	0.0008068
1070.81	0.0009306
1080.46	0.001584
1090.11	0.002094
1099.75	0.001654
1109.4	0.0009914
1119.05	0.0006452
1128.69	0.0005724
1138.34	0.0006227
1147.99	0.0008765
1157.63	0.0011718
1167.28	0.0009089
1176.92	0.0007141
1186.57	0.0005998
1196.22	0.0006569
1205.86	0.0011397
1215.51	0.002524
1225.16	0.006954
1234.8	0.006674
1244.45	0.004754
1254.1	0.005654
1263.74	0.004414
1273.39	0.002244
1283.04	0.0012225
1292.68	0.0010535
1302.33	0.0010077
1311.98	0.000887
1321.62	0.0008642
1331.27	0.000809
1340.92	0.0007384
1350.56	0.0007527
1360.21	0.0008682
1369.86	0.0010979
1379.5	0.001504
1389.15	0.001754
1398.79	0.001584
1408.44	0.001844
1418.09	0.002764
1427.73	0.004084
1437.38	0.004654
1447.03	0.004274
1456.67	0.003174
1466.32	0.003054
1475.97	0.003864
1485.61	0.005594
1495.26	0.005474
1504.91	0.003394
1514.55	0.002394
1524.2	0.002074
1533.85	0.001914
1543.49	0.001574
1553.14	0.001324
1562.79	0.001524
1572.43	0.002044
1582.08	0.002934
1591.73	0.004104
1601.37	0.006114
1611.02	0.006704
1620.67	0.003434
1630.31	0.0010785
1639.96	0.0006004
1649.6	0.0005167
1659.25	0.0004814
1668.9	0.0005612
1678.54	0.0007037
1688.19	0.0007799
1697.84	0.0005622
1707.48	0.0004503
1717.13	0.0003892
1726.78	0.0004334
1736.42	0.0005333
1746.07	0.0006075
1755.72	0.0006846
1765.36	0.000707
1775.01	0.0007679
1784.66	0.0007643
1794.3	0.0005738
1803.95	0.0004867
1813.6	0.0004495
1823.24	0.0004826
1832.89	0.000568
1842.54	0.0007345
1852.18	0.0007458
1861.83	0.0006853
1871.47	0.0007358
1881.12	0.0005678
1890.77	0.0004147
1900.41	0.0003599
1910.06	0.0003977
1919.71	0.0006056
1929.35	0.000837
1939	0.0009444
1948.65	0.0005854
1958.29	0.0003918
1967.94	0.000346
1977.59	0.000357
1987.23	0.00035297
1996.88	0.0003705
2006.53	0.0005145
2016.17	0.0005255
2025.82	0.0006365
2035.47	0.0005678
2045.11	0.0006368
2054.76	0.0005987
2064.41	0.0006473
2074.05	0.0005615
2083.7	0.0005102
2093.35	0.0004679
2102.99	0.0004352
2112.64	0.0004715
2122.28	0.0005772
2131.93	0.0007257
2141.58	0.001344
2151.22	0.003064
2160.87	0.005044
2170.52	0.003274
2180.16	0.0009725
2189.81	0.0005034
2199.46	0.000359
2209.1	0.00033006
2218.75	0.000259357
2228.4	0.00028467
2238.04	0.00024491
2247.69	0.00028558
2257.34	0.0002706
2266.98	0.0003007
2276.63	0.0003024
2286.28	0.0003741
2295.92	0.0003953
2305.57	0.0004505
2315.22	0.00034814
2324.86	0.00031588
2334.51	0.00029699
2344.16	0.00032884
2353.8	0.00028707
2363.45	0.00029805
2373.09	0.00030074
2382.74	0.00026546
2392.39	0.00029931
2402.03	0.0002873
2411.68	0.00031484
2421.33	0.00029549
2430.97	0.00032608
2440.62	0.00030655
2450.27	0.00031504
2459.91	0.00034543
2469.56	0.00028458
2479.21	0.00035157
2488.85	0.00029666
2498.5	0.00028229
2508.15	0.00026509
2517.79	0.00033317
2527.44	0.00027674
2537.09	0.0003829
2546.73	0.000428
2556.38	0.0004182
2566.03	0.0003442
2575.67	0.0003584
2585.32	0.0003676
2594.96	0.0003795
2604.61	0.000445
2614.26	0.0004015
2623.9	0.00024733
2633.55	0.00027395
2643.2	0.00027138
2652.84	0.0004078
2662.49	0.000501
2672.14	0.0003673
2681.78	0.00031615
2691.43	0.00032464
2701.08	0.00033361
2710.72	0.0002324
2720.37	0.0003799
2730.02	0.0005045
2739.66	0.0006137
2749.31	0.0006644
2758.96	0.0005889
2768.6	0.0004654
2778.25	0.0003084
2787.9	0.0004402
2797.54	0.0005193
2807.19	0.0006241
2816.84	0.0008136
2826.48	0.0011537
2836.13	0.001404
2845.77	0.001744
2855.42	0.002134
2865.07	0.002894
2874.71	0.003714
2884.36	0.003764
2894.01	0.003484
2903.65	0.003834
2913.3	0.004844
2922.95	0.007294
2932.59	0.009774
2942.24	0.009244
2951.89	0.006624
2961.53	0.004494
2971.18	0.003434
2980.83	0.003144
2990.47	0.003714
3000.12	0.004434
3009.77	0.005394
3019.41	0.007444
3029.06	0.009784
3038.71	0.010184
3048.35	0.008474
3058	0.007784
3067.64	0.007554
3077.29	0.005294
3086.94	0.003224
3096.58	0.002464
3106.23	0.002174
3115.88	0.001464
3125.52	0.0008945
3135.17	0.0005701
3144.82	0.00033211
3154.46	0.0002252
3164.11	0.0003778
3173.76	0.0003729
3183.4	0.00031515
3193.05	0.00025202
3202.7	0.0004765
3212.34	0.00032476
3221.99	0.000111
3231.64	0.00027495
3241.28	0.0002247
3250.93	0.0001704
3260.58	5.3e-05
3270.22	0.000152
3279.87	9.7e-05
3289.52	0.00024564
3299.16	0.000108
3308.81	0.0001877
3318.45	0.000121
3328.1	0.000154
3337.75	0.0001708
3347.39	0.0002111
3357.04	0.00028323
3366.69	0.00030551
3376.33	9.8e-05
3385.98	0
3395.63	0.000137
3405.27	0.00030358
3414.92	0.0002162
3424.57	6.5e-05
3434.21	0.0001912
3443.86	0.0001936
3453.51	0.00032643
3463.15	0.00031624
3472.8	0.000119
3482.45	6.7e-05
3492.09	8.2e-05
3501.74	0.000109
3511.39	0.00032227
3521.03	0.000134
3530.68	5.4e-05
3540.33	0.0001639
3549.97	0.00033155
3559.62	0.000108
3569.26	0.000121
3578.91	0.0002269
3588.56	0.0001845
3598.2	0.0002091
3607.85	0.00028345
3617.5	0.000135
3627.14	0.0001933
3636.79	8.6e-05
3646.44	0.0002249
3656.08	0.0003215
3665.73	0.000184
3675.38	0.000126
3685.02	0.00028013
3694.67	0.00026647
3704.32	0.0002165
3713.96	0.0001771
3723.61	0.0001915
3733.26	0.0001908
3742.9	0.0001833
3752.55	0.00022
3762.2	0.0002405
3771.84	0.0002948
3781.49	0.0002122
3791.13	0.00027685
3800.78	0.00026507
3810.43	0.0001945
3820.07	0.00029438
3829.72	0.00027579
3839.37	0.0001581
3849.01	0.000243
3858.66	0.00032385
3868.31	0.00026513
3877.95	0.000262554
3887.6	0.000179
3897.25	0.0002003
3906.89	0.00026598
3916.54	0.00033631
3926.19	0.00029463
3935.83	0.00030381
3945.48	0.0002403
3955.13	0.0002193
3964.77	0.0002956
3974.42	0.0002301
3984.07	0.00025005
3993.71	0.000415
