Infrared Spectrum: Ethyl p-(p-pentyloxybenzylidene)aminobenzoate
Formula: C 21 H 25 N O 3
CAS: 37168-42-6
State: gas
Origin: EPA-IR VAPOR PHASE LIBRARY
1/CM	ABSORBANCE
549.8	0.002022
559.445	0.001892
569.09	0.002092
578.734	0.002242
588.379	0.001592
598.024	0.000852
607.669	0.0006081
617.313	0.0005301
626.958	0.0008983
636.603	0.001472
646.248	0.0010129
655.893	0.002282
665.537	0.003432
675.182	0.001852
684.827	0.001432
694.472	0.002092
704.116	0.002662
713.761	0.001742
723.406	0.001512
733.051	0.001362
742.695	0.001502
752.34	0.002132
761.985	0.002992
771.63	0.004552
781.275	0.003572
790.919	0.002492
800.564	0.002402
810.209	0.002652
819.854	0.003902
829.498	0.005952
839.143	0.006732
848.788	0.008372
858.433	0.005942
868.078	0.004222
877.722	0.004792
887.367	0.007292
897.012	0.005602
906.657	0.002912
916.301	0.002472
925.946	0.001752
935.591	0.001752
945.236	0.001792
954.88	0.001942
964.525	0.002642
974.17	0.003462
983.815	0.004552
993.46	0.006412
1003.1	0.008012
1012.75	0.012312
1022.39	0.011312
1032.04	0.009042
1041.68	0.007442
1051.33	0.006002
1060.97	0.004652
1070.62	0.006392
1080.26	0.009632
1089.91	0.020742
1099.55	0.037952
1109.2	0.038632
1118.84	0.016832
1128.49	0.008522
1138.13	0.007212
1147.78	0.011522
1157.42	0.044832
1167.07	0.058072
1176.71	0.012972
1186.36	0.012222
1196	0.013302
1205.64	0.011032
1215.29	0.016732
1224.93	0.027922
1234.58	0.040202
1244.22	0.050362
1253.87	0.058502
1263.51	0.077462
1273.16	0.063012
1282.8	0.031912
1292.45	0.020112
1302.09	0.019972
1311.74	0.012682
1321.38	0.006992
1331.03	0.004982
1340.67	0.004362
1350.32	0.004322
1359.96	0.005332
1369.61	0.009332
1379.25	0.005902
1388.9	0.006322
1398.54	0.005332
1408.18	0.006532
1417.83	0.008412
1427.47	0.005042
1437.12	0.003832
1446.76	0.004162
1456.41	0.005132
1466.05	0.007302
1475.7	0.009882
1485.34	0.006022
1494.99	0.007572
1504.63	0.021582
1514.28	0.026212
1523.92	0.008162
1533.57	0.004532
1543.21	0.004022
1552.86	0.004702
1562.5	0.008132
1572.15	0.020752
1581.79	0.022632
1591.44	0.052662
1601.08	0.054222
1610.73	0.019402
1620.37	0.011472
1630.01	0.018702
1639.66	0.016942
1649.3	0.007602
1658.95	0.004762
1668.59	0.003792
1678.24	0.003322
1687.88	0.003292
1697.53	0.003622
1707.17	0.004602
1716.82	0.008122
1726.46	0.020562
1736.11	0.047302
1745.75	0.021032
1755.4	0.007612
1765.04	0.003762
1774.69	0.002622
1784.33	0.002272
1793.98	0.001842
1803.62	0.001342
1813.27	0.001192
1822.91	0.0009245
1832.55	0.0009066
1842.2	0.0009285
1851.84	0.0008914
1861.49	0.0009055
1871.13	0.0009671
1880.78	0.0010185
1890.42	0.001132
1900.07	0.001142
1909.71	0.001252
1919.36	0.001242
1929	0.001242
1938.65	0.001142
1948.29	0.0009934
1957.94	0.0009944
1967.58	0.0009731
1977.23	0.0009352
1986.87	0.0009163
1996.52	0.0010015
2006.16	0.0010982
2015.81	0.001192
2025.45	0.001152
2035.1	0.001077
2044.74	0.0010663
2054.38	0.001152
2064.03	0.0009725
2073.67	0.0009634
2083.32	0.0009698
2092.96	0.0008492
2102.61	0.0008286
2112.25	0.000774
2121.9	0.000775
2131.54	0.0007242
2141.19	0.0005871
2150.83	0.0005512
2160.48	0.000543
2170.12	0.0005444
2179.77	0.0006024
2189.41	0.0004002
2199.06	0.0004508
2208.7	0.0004318
2218.35	0.0004381
2227.99	0.0004603
2237.64	0.0004738
2247.28	0.0004393
2256.92	0.0005456
2266.57	0.0005697
2276.21	0.0006022
2285.86	0.0005971
2295.5	0.0005815
2305.15	0.0004921
2314.79	0.0005616
2324.44	0.0005802
2334.08	0.0005762
2343.73	0.0005748
2353.37	0.0006529
2363.02	0.0006905
2372.66	0.0007664
2382.31	0.0007251
2391.95	0.0006892
2401.6	0.0007327
2411.24	0.0006992
2420.89	0.0007278
2430.53	0.0007008
2440.18	0.000711
2449.82	0.0007756
2459.47	0.0008343
2469.11	0.0008146
2478.75	0.0008484
2488.4	0.0008812
2498.04	0.0008318
2507.69	0.0008681
2517.33	0.0009318
2526.98	0.000844
2536.62	0.0010088
2546.27	0.001152
2555.91	0.001142
2565.56	0.0010315
2575.2	0.000935
2584.85	0.0008623
2594.49	0.0007794
2604.14	0.0006633
2613.78	0.0006128
2623.43	0.0006454
2633.07	0.0005264
2642.72	0.0003989
2652.36	0.0004884
2662.01	0.0004225
2671.65	0.0004912
2681.29	0.0004931
2690.94	0.0004749
2700.58	0.0005458
2710.23	0.0006116
2719.87	0.0006709
2729.52	0.0008384
2739.16	0.0009973
2748.81	0.0010342
2758.45	0.001152
2768.1	0.0011016
2777.74	0.0011206
2787.39	0.0010474
2797.03	0.001152
2806.68	0.001232
2816.32	0.001472
2825.97	0.001822
2835.61	0.002282
2845.26	0.003372
2854.9	0.005462
2864.55	0.007512
2874.19	0.009112
2883.84	0.009782
2893.48	0.008272
2903.12	0.008002
2912.77	0.009452
2922.41	0.011142
2932.06	0.014292
2941.7	0.017742
2951.35	0.015812
2960.99	0.015592
2970.64	0.016702
2980.28	0.013012
2989.93	0.009472
2999.57	0.006112
3009.22	0.004562
3018.86	0.003172
3028.51	0.002962
3038.15	0.003762
3047.8	0.002742
3057.44	0.002152
3067.09	0.002432
3076.73	0.003212
3086.38	0.002412
3096.02	0.002212
3105.67	0.001622
3115.31	0.001222
3124.95	0.0009441
3134.6	0.000759
3144.24	0.0007178
3153.89	0.0006497
3163.53	0.0004256
3173.18	0.0005663
3182.82	0.0006008
3192.47	0.0006588
3202.11	0.0005678
3211.76	0.0004348
3221.4	0.0005311
3231.05	0.0004581
3240.69	0.0003354
3250.34	0.0004778
3259.98	0.0006025
3269.63	0.0004019
3279.27	0.0004776
3288.92	0.0003409
3298.56	0.00018405
3308.21	0.0002782
3317.85	0.0002776
3327.49	0.0002469
3337.14	0.000399
3346.78	0.0003232
3356.43	0.000251
3366.07	0.00019126
3375.72	0.0002579
3385.36	0.00018151
3395.01	0.00014882
3404.65	0.00021238
3414.3	8.76e-05
3423.94	0.00021041
3433.59	0.0003761
3443.23	0.0004669
3452.88	0.0006565
3462.52	0.0004707
3472.17	0.0003251
3481.81	0.0002824
3491.46	0.0001155
3501.1	0.00016009
3510.75	0.0002797
3520.39	9.38e-05
3530.04	0.00015483
3539.68	0.0001197
3549.32	0.000243
3558.97	0.00021788
3568.61	0.0002773
3578.26	0.00012686
3587.9	0.000134136
3597.55	0.00021068
3607.19	0.0003587
3616.84	0.00017611
3626.48	7.5e-05
3636.13	0.0002626
3645.77	0.0003279
3655.42	0.0002468
3665.06	0.0002376
3674.71	0.00028
3684.35	0.00019814
3694	8.52e-05
3703.64	0.0001673
3713.29	0.0002704
3722.93	0.0003273
3732.58	0.00020947
3742.22	0.00022592
3751.86	0.00022443
3761.51	0.0003235
3771.15	0
3780.8	0.0002368
3790.44	0.0003153
3800.09	0.0002548
3809.73	0.00021575
3819.38	0.0002359
3829.02	0.00022326
3838.67	0.0002804
3848.31	0.00018274
3857.96	0.00019373
3867.6	0.0003615
3877.25	0.0003614
3886.89	0.0003299
3896.54	0.0002899
3906.18	0.00017436
3915.83	0.0001885
3925.47	0.0002674
3935.12	0.00017765
3944.76	0.0001868
3954.41	0.0002978
3964.05	0.00020489
3973.69	0.00022225
3983.34	0.00016406
3992.98	0.000276
