Infrared Spectrum: FLUOROCYCLOHEXANE
Formula: C6 H11 F
CAS: 372-46-3
State: SOLUTION (10% CCl4 FOR 5000-1330, 10% CS2 FOR 1330-625 CM^-^1)
Class: COBLENTZ
Instrument: Not specified, most likely a prism, grating, or hybrid spectrometer.
Sampling: TRANSMISSION
Path length: 0.0110 CM, 0.0111 CM
Resolution: 4
Origin: DOW CHEMICAL COMPANY
MICROMETERS	TRANSMITTANCE
2.055	0.886
2.09616	0.892
2.13731	0.892
2.17847	0.892
2.21963	0.888
2.26078	0.868
2.30194	0.869
2.3431	0.878
2.38425	0.878
2.42541	0.876
2.46656	0.881
2.50772	0.885
2.54888	0.898
2.59003	0.9
2.63119	0.9
2.67235	0.902
2.7135	0.905
2.75466	0.909
2.79582	0.909
2.83697	0.902
2.87813	0.892
2.91929	0.88
2.96044	0.878
3.0016	0.886
3.04275	0.893
3.08391	0.897
3.12507	0.904
3.16622	0.904
3.20738	0.904
3.24854	0.898
3.28969	0.857
3.33085	0.719
3.37201	0.116
3.41316	0.058
3.45432	0.309
3.49548	0.383
3.53663	0.832
3.57779	0.868
3.61894	0.895
3.6601	0.888
3.70126	0.871
3.74241	0.833
3.78357	0.89
3.82473	0.909
3.86588	0.912
3.90704	0.929
3.9482	0.928
3.98935	0.928
4.03051	0.928
4.07167	0.928
4.11282	0.929
4.15398	0.928
4.19513	0.928
4.23629	0.928
4.27745	0.928
4.3186	0.922
4.35976	0.924
4.40092	0.928
4.44207	0.929
4.48323	0.929
4.52439	0.929
4.56554	0.929
4.6067	0.933
4.64786	0.936
4.68901	0.94
4.73017	0.94
4.77132	0.941
4.81248	0.941
4.85364	0.941
4.89479	0.941
4.93595	0.938
4.97711	0.928
5.01826	0.929
5.05942	0.938
5.10058	0.938
5.14173	0.936
5.18289	0.934
5.22405	0.934
5.2652	0.931
5.30636	0.929
5.34751	0.928
5.38867	0.928
5.42983	0.928
5.47098	0.928
5.51214	0.928
5.5533	0.929
5.59445	0.931
5.63561	0.931
5.67677	0.929
5.71792	0.929
5.75908	0.929
5.80024	0.929
5.84139	0.929
5.88255	0.929
5.9237	0.929
5.96486	0.928
6.00602	0.924
6.04717	0.917
6.08833	0.902
6.12949	0.902
6.17064	0.88
6.2118	0.815
6.25296	0.75
6.29411	0.688
6.33527	0.662
6.37643	0.623
6.41758	0.556
6.45874	0.535
6.4999	0.597
6.54105	0.65
6.58221	0.688
6.62336	0.741
6.66452	0.797
6.70568	0.818
6.74683	0.796
6.78799	0.66
6.82915	0.542
6.8703	0.268
6.91146	0.482
6.95262	0.645
6.99377	0.75
7.03493	0.83
7.07609	0.852
7.11724	0.863
7.1584	0.863
7.19955	0.837
7.24071	0.75
7.28187	0.44
7.32302	0.344
7.36418	0.772
7.40534	0.717
7.44649	0.707
7.48765	0.71
7.52881	0.779
7.56996	0.801
7.61112	0.818
7.65228	0.828
7.69343	0.828
7.73459	0.828
7.77574	0.816
7.8169	0.797
7.85806	0.753
7.89921	0.719
7.94037	0.691
7.98153	0.743
8.02268	0.77
8.06384	0.78
8.105	0.82
8.14615	0.847
8.18731	0.857
8.22847	0.866
8.26962	0.871
8.31078	0.873
8.35193	0.825
8.39309	0.803
8.43425	0.84
8.4754	0.857
8.51656	0.859
8.55772	0.825
8.59887	0.726
8.64003	0.66
8.68119	0.703
8.72234	0.779
8.7635	0.796
8.80466	0.755
8.84581	0.59
8.88697	0.52
8.92812	0.693
8.96928	0.796
9.01044	0.827
9.05159	0.827
9.09275	0.787
9.13391	0.736
9.17506	0.744
9.21622	0.791
9.25738	0.799
9.29853	0.763
9.33969	0.748
9.38085	0.722
9.422	0.614
9.46316	0.407
9.50431	0.154
9.54547	0.078
9.58663	0.356
9.62778	0.571
9.66894	0.534
9.7101	0.489
9.75125	0.5
9.79241	0.421
9.83357	0.238
9.87472	0.215
9.91588	0.554
9.95704	0.719
9.99819	0.794
10.0393	0.818
10.0805	0.823
10.1217	0.825
10.1628	0.818
10.204	0.789
10.2451	0.729
10.2863	0.583
10.3274	0.398
10.3686	0.246
10.4098	0.188
10.4509	0.195
10.4921	0.301
10.5332	0.342
10.5744	0.289
10.6155	0.179
10.6567	0.09
10.6979	0.133
10.739	0.381
10.7802	0.568
10.8213	0.63
10.8625	0.688
10.9036	0.773
10.9448	0.82
10.9859	0.83
11.0271	0.83
11.0683	0.825
11.1094	0.785
11.1506	0.707
11.1917	0.546
11.2329	0.505
11.274	0.602
11.3152	0.703
11.3564	0.741
11.3975	0.75
11.4387	0.748
11.4798	0.717
11.521	0.664
11.5621	0.626
11.6033	0.645
11.6444	0.678
11.6856	0.7
11.7268	0.712
11.7679	0.717
11.8091	0.669
11.8502	0.597
11.8914	0.666
11.9325	0.748
11.9737	0.736
12.0149	0.63
12.056	0.595
12.0972	0.684
12.1383	0.791
12.1795	0.828
12.2206	0.839
12.2618	0.849
12.303	0.851
12.3441	0.854
12.3853	0.854
12.4264	0.849
12.4676	0.816
12.5087	0.768
12.5499	0.703
12.591	0.647
12.6322	0.667
12.6734	0.729
12.7145	0.791
12.7557	0.82
12.7968	0.837
12.838	0.845
12.8791	0.849
12.9203	0.849
12.9615	0.849
13.0026	0.851
13.0438	0.851
13.0849	0.851
13.1261	0.851
13.1672	0.851
13.2084	0.851
13.2496	0.851
13.2907	0.851
13.3319	0.847
13.373	0.844
13.4142	0.839
13.4553	0.832
13.4965	0.83
13.5376	0.827
13.5788	0.82
13.62	0.818
13.6611	0.813
13.7023	0.809
13.7434	0.803
13.7846	0.799
13.8257	0.792
13.8669	0.784
13.9081	0.775
13.9492	0.77
13.9904	0.765
14.0315	0.76
14.0727	0.753
14.1138	0.75
14.155	0.743
14.1961	0.739
14.2373	0.731
14.2785	0.726
14.3196	0.72
14.3608	0.715
14.4019	0.705
14.4431	0.7
14.4842	0.693
14.5254	0.683
14.5666	0.674
14.6077	0.667
14.6489	0.659
14.69	0.648
14.7312	0.636
14.7723	0.619
14.8135	0.611
14.8547	0.609
14.8958	0.607
14.937	0.602
14.9781	0.592
15.0193	0.57
15.0604	0.546
15.1016	0.522
15.1427	0.51
15.1839	0.503
15.2251	0.501
15.2662	0.5
15.3074	0.5
15.3485	0.5
15.3897	0.501
15.4308	0.5
15.472	0.5
15.5132	0.498
15.5543	0.496
15.5955	0.496
15.6366	0.496
15.6778	0.493
15.7189	0.491
15.7601	0.491
15.8012	0.491
15.8424	0.493
15.8836	0.494
