Infrared Spectrum: 2-Fluoropyridine
Formula: C 5 H 4 F N
CAS: 372-48-5
State: gas
Instrument: HP-GC/MS/IRD
Origin: NIST Mass Spectrometry Data Center
1/CM	ABSORBANCE
550	0.0007172
562	0.0010274
574	0.0004202
586	0.0001782
598	0.000297
610	0.000561
622	0.000638
634	0.0004752
646	0.00033
658	0.0002134
670	0.000154
682	0.0002508
694	0.0002068
706	0.0005984
718	0.000913
730	0.0019338
742	0.0021846
754	0.004367
766	0.0076472
778	0.0135718
790	0.0069784
802	0.0048224
814	0.0028556
826	0.0043318
838	0.005302
850	0.004334
862	0.0015818
874	0.0006182
886	0.000418
898	0.000297
910	0.0002486
922	0.0002244
934	0.0003586
946	0.0004224
958	0.00055
970	0.0006996
982	0.0012694
994	0.0012782
1006	0.0012628
1018	0.0011264
1030	0.0013684
1042	0.0013574
1054	0.0011242
1066	0.000572
1078	0.0005038
1090	0.0004312
1102	0.0003982
1114	0.0004796
1126	0.0010362
1138	0.001364
1150	0.0012254
1162	0.000319
1174	0.000121
1186	2.2e-06
1198	3.3e-05
1210	0.0001914
1222	0.0011572
1234	0.0047806
1246	0.0137632
1258	0.020218
1270	0.0189728
1282	0.0084964
1294	0.0042834
1306	0.0023892
1318	0.0009042
1330	0.0003476
1342	0.0002772
1354	0.0003542
1366	0.000495
1378	0.000671
1390	0.0008624
1402	0.001364
1414	0.004928
1426	0.0135762
1438	0.0154176
1450	0.0137786
1462	0.0148016
1474	0.0174394
1486	0.015576
1498	0.0042812
1510	0.0021736
1522	0.0012914
1534	0.0016192
1546	0.0025806
1558	0.0050468
1570	0.0111848
1582	0.0202136
1594	0.0200948
1606	0.010373
1618	0.0036366
1630	0.0016126
1642	0.000792
1654	0.0005874
1666	0.0005544
1678	0.000616
1690	0.0005566
1702	0.0004862
1714	0.0004444
1726	0.0004532
1738	0.0003278
1750	0.0002926
1762	0.0002002
1774	0.000187
1786	0.0002794
1798	0.0003784
1810	0.0005214
1822	0.0005522
1834	0.0005038
1846	0.0003784
1858	0.0002948
1870	0.000209
1882	0.0001826
1894	0.0002662
1906	0.0003674
1918	0.0004444
1930	0.0005104
1942	0.0005148
1954	0.0004532
1966	0.0003718
1978	0.0002816
1990	0.0001892
2002	0.0001628
2014	0.0001452
2026	0.0001452
2038	0.0001496
2050	0.0001804
2062	0.0002222
2074	0.0003256
2086	0.000407
2098	0.0004356
2110	0.0003124
2122	0.0001848
2134	0.0001738
2146	0.0001386
2158	0.000121
2170	0.0001034
2182	0.000121
2194	0.000143
2206	0.000143
2218	0.0001474
2230	0.0001716
2242	0.0001936
2254	0.0001958
2266	0.0002508
2278	0.000297
2290	0.0002332
2302	0.0002618
2314	0.0002002
2326	0.0002112
2338	0.0001452
2350	9.68e-05
2362	0.0001012
2374	0.0001144
2386	9.9e-05
2398	0.0001496
2410	0.0001848
2422	0.0002134
2434	0.0002596
2446	0.000187
2458	0.0001562
2470	0.00011
2482	0.000176
2494	0.000209
2506	0.0002684
2518	0.0003454
2530	0.000308
2542	0.0002332
2554	0.0002288
2566	0.0002222
2578	0.0001496
2590	0.0001144
2602	0.00011
2614	6.16e-05
2626	8.14e-05
2638	4.18e-05
2650	8.8e-05
2662	7.48e-05
2674	8.14e-05
2686	0.000132
2698	0.000154
2710	0.0001298
2722	0.0001056
2734	0.0001518
2746	0.0001386
2758	3.52e-05
2770	4.18e-05
2782	3.3e-05
2794	6.38e-05
2806	6.38e-05
2818	0.0001012
2830	0.0001254
2842	0.0001254
2854	0.0001254
2866	0.0001188
2878	7.26e-05
2890	0.000121
2902	7.92e-05
2914	7.48e-05
2926	0.0001518
2938	0.000143
2950	0.000165
2962	0.000154
2974	0.0001166
2986	0.0001562
2998	0.000297
3010	0.0006292
3022	0.0010362
3034	0.0013508
3046	0.001518
3058	0.0019712
3070	0.0023606
3082	0.0030426
3094	0.002508
3106	0.0016038
3118	0.000616
3130	0.000297
3142	0.0002376
3154	0.0001694
3166	0.0002288
3178	0.000198
3190	0.0001386
3202	0.0001386
3214	0.0001188
3226	0.00011
3238	0.0001056
3250	0.0001276
3262	0.0001122
3274	0.0001826
3286	0.0001034
3298	7.92e-05
3310	7.92e-05
3322	7.48e-05
3334	3.52e-05
3346	9.9e-05
3358	0.00011
3370	0.0001188
3382	4.62e-05
3394	1.98e-05
3406	0.0001188
3418	3.96e-05
3430	0.0001298
3442	8.36e-05
3454	5.28e-05
3466	8.8e-06
3478	5.5e-05
3490	9.02e-05
3502	0.0001188
3514	0.0001034
3526	0.00011
3538	8.36e-05
3550	0.0001034
3562	0.0001254
3574	0.0001078
3586	8.14e-05
3598	0.0001276
3610	0.0001826
3622	0.00022
3634	0.0001562
3646	0.000187
3658	0.0001144
3670	9.24e-05
3682	8.58e-05
3694	0.000143
3706	0.0001232
3718	0.0001628
3730	0.0001782
3742	0.0001452
3754	0.0001298
3766	0.0001364
3778	0.000176
3790	0.0001584
3802	0.0002024
3814	0.0001078
3826	0.0001848
3838	0.000121
