Infrared Spectrum: Ethyl 3-amino-4,4,4-trifluorocrotonate
Formula: C 6 H 8 F 3 N O 2
CAS: 372-29-2
State: gas
Origin: EPA-IR VAPOR PHASE LIBRARY
1/CM	ABSORBANCE
549.9	0.0131
559.547	0.01558
569.193	0.01982
578.84	0.02758
588.486	0.02682
598.133	0.02048
607.779	0.01787
617.426	0.01598
627.072	0.01484
636.719	0.01375
646.365	0.0172
656.012	0.02359
665.658	0.02245
675.305	0.02042
684.951	0.01993
694.598	0.01979
704.245	0.01971
713.891	0.01976
723.538	0.02024
733.184	0.02074
742.831	0.01991
752.477	0.01756
762.124	0.01528
771.77	0.014
781.417	0.01474
791.063	0.01984
800.71	0.03155
810.356	0.04274
820.003	0.03533
829.649	0.0217
839.296	0.01347
848.943	0.0104
858.589	0.00981
868.236	0.01079
877.882	0.01502
887.529	0.01607
897.175	0.01065
906.822	0.0086
916.468	0.00814
926.115	0.00813
935.761	0.00833
945.408	0.00913
955.054	0.01117
964.701	0.01278
974.347	0.01216
983.994	0.01142
993.64	0.01197
1003.29	0.01477
1012.93	0.02364
1022.58	0.04522
1032.23	0.06213
1041.87	0.04693
1051.52	0.02824
1061.17	0.02306
1070.81	0.02447
1080.46	0.02682
1090.11	0.03533
1099.75	0.04836
1109.4	0.04396
1119.05	0.04561
1128.69	0.07307
1138.34	0.14731
1147.99	0.30388
1157.63	0.47429
1167.28	0.44577
1176.92	0.29421
1186.57	0.20545
1196.22	0.17047
1205.86	0.16903
1215.51	0.19914
1225.16	0.22578
1234.8	0.18568
1244.45	0.10783
1254.1	0.0603
1263.74	0.04635
1273.39	0.04885
1283.04	0.06346
1292.68	0.09555
1302.33	0.1632
1311.98	0.33207
1321.62	0.41905
1331.27	0.16955
1340.92	0.04864
1350.56	0.02939
1360.21	0.04311
1369.86	0.07377
1379.5	0.03783
1389.15	0.0266
1398.79	0.02528
1408.44	0.02095
1418.09	0.01979
1427.73	0.02212
1437.38	0.02171
1447.03	0.0188
1456.67	0.0165
1466.32	0.01552
1475.97	0.01459
1485.61	0.01124
1495.26	0.00857
1504.91	0.00717
1514.55	0.00699
1524.2	0.00769
1533.85	0.00914
1543.49	0.012
1553.14	0.01738
1562.79	0.02737
1572.43	0.04049
1582.08	0.0443
1591.73	0.03324
1601.37	0.02321
1611.02	0.02223
1620.67	0.02658
1630.31	0.03536
1639.96	0.0654
1649.6	0.14247
1659.25	0.15138
1668.9	0.06812
1678.54	0.05451
1688.19	0.0854
1697.84	0.12669
1707.48	0.11208
1717.13	0.05666
1726.78	0.02981
1736.42	0.02848
1746.07	0.02201
1755.72	0.01123
1765.36	0.00811
1775.01	0.00695
1784.66	0.00628
1794.3	0.00552
1803.95	0.00474
1813.6	0.00396
1823.24	0.003264
1832.89	0.0030352
1842.54	0.0028366
1852.18	0.0028158
1861.83	0.0026728
1871.47	0.0025142
1881.12	0.0025646
1890.77	0.0027642
1900.41	0.003029
1910.06	0.0030959
1919.71	0.0028785
1929.35	0.0026744
1939	0.00253083
1948.65	0.002437
1958.29	0.0024229
1967.94	0.0024175
1977.59	0.0024318
1987.23	0.00250756
1996.88	0.002579
2006.53	0.00251847
2016.17	0.0025314
2025.82	0.0023986
2035.47	0.002323
2045.11	0.002229
2054.76	0.002059
2064.41	0.001927
2074.05	0.001716
2083.7	0.001807
2093.35	0.001909
2102.99	0.002011
2112.64	0.00218
2122.28	0.002302
2131.93	0.0025369
2141.58	0.0031033
2151.22	0.0033894
2160.87	0.002954
2170.52	0.002223
2180.16	0.002047
2189.81	0.002011
2199.46	0.001874
2209.1	0.001748
2218.75	0.001623
2228.4	0.001657
2238.04	0.001758
2247.69	0.001932
2257.34	0.002115
2266.98	0.002239
2276.63	0.0023857
2286.28	0.0024141
2295.92	0.002315
2305.57	0.00221
2315.22	0.002095
2324.86	0.002132
2334.51	0.002198
2344.16	0.002261
2353.8	0.002157
2363.45	0.002093
2373.09	0.001908
2382.74	0.001821
2392.39	0.001796
2402.03	0.001755
2411.68	0.001727
2421.33	0.001632
2430.97	0.00151
2440.62	0.00143
2450.27	0.00144
2459.91	0.00142
2469.56	0.00136
2479.21	0.00128
2488.85	0.00119
2498.5	0.00112
2508.15	0.00113
2517.79	0.00122
2527.44	0.00127
2537.09	0.00128
2546.73	0.00107
2556.38	0.0009
2566.03	0.00076
2575.67	0.00062
2585.32	0.00068
2594.96	0.00079
2604.61	0.00103
2614.26	0.00119
2623.9	0.00096
2633.55	0.00078
2643.2	0.00062
2652.84	0.00069
2662.49	0.00069
2672.14	0.00079
2681.78	0.00071
2691.43	0.00065
2701.08	0.00064
2710.72	0.0006
2720.37	0.00085
2730.02	0.00103
2739.66	0.00131
2749.31	0.00123
2758.96	0.00126
2768.6	0.00104
2778.25	0.00102
2787.9	0.00091
2797.54	0.00107
2807.19	0.0012
2816.84	0.00149
2826.48	0.001633
2836.13	0.001728
2845.77	0.00188
2855.42	0.002321
2865.07	0.0029995
2874.71	0.00445
2884.36	0.00667
2894.01	0.00726
2903.65	0.00782
2913.3	0.00917
2922.95	0.00925
2932.59	0.01146
2942.24	0.01798
2951.89	0.01754
2961.53	0.01544
2971.18	0.02018
2980.83	0.03139
2990.47	0.0336
3000.12	0.02175
3009.77	0.01415
3019.41	0.00834
3029.06	0.00479
3038.71	0.0027948
3048.35	0.001762
3058	0.00112
3067.64	0.00111
3077.29	0.00082
3086.94	0.00048
3096.58	0.00044
3106.23	0.00068
3115.88	0.00081
3125.52	0.00104
3135.17	0.00064
3144.82	0.00053
3154.46	0.00028
3164.11	6e-05
3173.76	0.0002
3183.4	0.00023
3193.05	0.00014
3202.7	0.00054
3212.34	0.0007
3221.99	0.00094
3231.64	0.00095
3241.28	0.00122
3250.93	0.00131
3260.58	0.00143
3270.22	0.001735
3279.87	0.0024119
3289.52	0.0032215
3299.16	0.00404
3308.81	0.00471
3318.45	0.00659
3328.1	0.01131
3337.75	0.01865
3347.39	0.02285
3357.04	0.01979
3366.69	0.01406
3376.33	0.00911
3385.98	0.00616
3395.63	0.00456
3405.27	0.00385
3414.92	0.00359
3424.57	0.0033219
3434.21	0.0026714
3443.86	0.0027272
3453.51	0.0032351
3463.15	0.00412
3472.8	0.00578
3482.45	0.00846
3492.09	0.01407
3501.74	0.02434
3511.39	0.03919
3521.03	0.04907
3530.68	0.04258
3540.33	0.02473
3549.97	0.01183
3559.62	0.0064
3569.26	0.004
3578.91	0.0029902
3588.56	0.002263
3598.2	0.001642
3607.85	0.00134
3617.5	0.00107
3627.14	0.00103
3636.79	0.00105
3646.44	0.00079
3656.08	0.00098
3665.73	0.00074
3675.38	0.00084
3685.02	0.00086
3694.67	0.00088
3704.32	0.00078
3713.96	0.00067
3723.61	0.00074
3733.26	0.00061
3742.9	0.0006
3752.55	0.00072
3762.2	0.00069
3771.84	0.00079
3781.49	0.00077
3791.13	0.00094
3800.78	0.00059
3810.43	0.00079
3820.07	0.00072
3829.72	0.0006
3839.37	0.00069
3849.01	0.0008
3858.66	0.00084
3868.31	0.00073
3877.95	0.00085
3887.6	0.00065
3897.25	0.00068
3906.89	0.00065
3916.54	0.00072
3926.19	0.00068
3935.83	0.00068
3945.48	0.00062
3955.13	0.0008
3964.77	0.00082
3974.42	0.00073
3984.07	0.00084
3993.71	0.00088
