Infrared Spectrum: Ethyl 3-hydroxy-4,4,4-trifluorobutyrate
Formula: C 6 H 9 F 3 O 3
CAS: 372-30-5
State: gas
Origin: EPA-IR VAPOR PHASE LIBRARY
1/CM	ABSORBANCE
549.9	0.01458
559.547	0.01578
569.193	0.01418
578.84	0.01091
588.486	0.00932
598.133	0.0092
607.779	0.00966
617.426	0.00963
627.072	0.01057
636.719	0.01449
646.365	0.02531
656.012	0.03411
665.658	0.02617
675.305	0.01455
684.951	0.00832
694.598	0.0061
704.245	0.00539
713.891	0.00531
723.538	0.00547
733.184	0.00547
742.831	0.00499
752.477	0.00482
762.124	0.00487
771.77	0.00518
781.417	0.00559
791.063	0.00595
800.71	0.00601
810.356	0.00589
820.003	0.00614
829.649	0.00693
839.296	0.00864
848.943	0.01131
858.589	0.01475
868.236	0.02185
877.882	0.02725
887.529	0.02194
897.175	0.0157
906.822	0.01273
916.468	0.01261
926.115	0.01603
935.761	0.02023
945.408	0.02102
955.054	0.01803
964.701	0.01398
974.347	0.0126
983.994	0.0146
993.64	0.0208
1003.29	0.03303
1012.93	0.05319
1022.58	0.07256
1032.23	0.07404
1041.87	0.0627
1051.52	0.04913
1061.17	0.04256
1070.81	0.04567
1080.46	0.06136
1090.11	0.08813
1099.75	0.11083
1109.4	0.12418
1119.05	0.1435
1128.69	0.19844
1138.34	0.27906
1147.99	0.28757
1157.63	0.25256
1167.28	0.29142
1176.92	0.36742
1186.57	0.35047
1196.22	0.26934
1205.86	0.20848
1215.51	0.17253
1225.16	0.1525
1234.8	0.14585
1244.45	0.14401
1254.1	0.14375
1263.74	0.14666
1273.39	0.15414
1283.04	0.15619
1292.68	0.14704
1302.33	0.13196
1311.98	0.12573
1321.62	0.12372
1331.27	0.09612
1340.92	0.06107
1350.56	0.0476
1360.21	0.04386
1369.86	0.05857
1379.5	0.07017
1389.15	0.05535
1398.79	0.04528
1408.44	0.04012
1418.09	0.04004
1427.73	0.03799
1437.38	0.03133
1447.03	0.02515
1456.67	0.02143
1466.32	0.02056
1475.97	0.01854
1485.61	0.01314
1495.26	0.00938
1504.91	0.00744
1514.55	0.00641
1524.2	0.00577
1533.85	0.00533
1543.49	0.00494
1553.14	0.00468
1562.79	0.00448
1572.43	0.00451
1582.08	0.00454
1591.73	0.00466
1601.37	0.0045
1611.02	0.00431
1620.67	0.00427
1630.31	0.00441
1639.96	0.00462
1649.6	0.0049
1659.25	0.00546
1668.9	0.00625
1678.54	0.00754
1688.19	0.00978
1697.84	0.01362
1707.48	0.02068
1717.13	0.03486
1726.78	0.06417
1736.42	0.10482
1746.07	0.13659
1755.72	0.15465
1765.36	0.13497
1775.01	0.07665
1784.66	0.03311
1794.3	0.01745
1803.95	0.01146
1813.6	0.00839
1823.24	0.00664
1832.89	0.00557
1842.54	0.00487
1852.18	0.00451
1861.83	0.00433
1871.47	0.00417
1881.12	0.00403
1890.77	0.0038202
1900.41	0.0035905
1910.06	0.0033512
1919.71	0.0032635
1929.35	0.0031974
1939	0.0031663
1948.65	0.0032178
1958.29	0.0031721
1967.94	0.0032383
1977.59	0.0031468
1987.23	0.0032681
1996.88	0.0032596
2006.53	0.0033033
2016.17	0.0033447
2025.82	0.0033207
2035.47	0.0032505
2045.11	0.0031757
2054.76	0.0031849
2064.41	0.0031006
2074.05	0.0031006
2083.7	0.0030802
2093.35	0.00297526
2102.99	0.0028804
2112.64	0.002837
2122.28	0.00274
2131.93	0.002591
2141.58	0.002604
2151.22	0.002569
2160.87	0.002514
2170.52	0.002489
2180.16	0.002405
2189.81	0.002382
2199.46	0.002379
2209.1	0.002381
2218.75	0.002478
2228.4	0.002528
2238.04	0.002558
2247.69	0.002565
2257.34	0.002659
2266.98	0.002633
2276.63	0.002676
2286.28	0.002678
2295.92	0.002753
2305.57	0.002857
2315.22	0.00305964
2324.86	0.0031683
2334.51	0.0030965
2344.16	0.00306348
2353.8	0.00299701
2363.45	0.0029606
2373.09	0.0029277
2382.74	0.002811
2392.39	0.0029319
2402.03	0.0029264
2411.68	0.002812
2421.33	0.002694
2430.97	0.00259
2440.62	0.002426
2450.27	0.002354
2459.91	0.002247
2469.56	0.002236
2479.21	0.002132
2488.85	0.002098
2498.5	0.002062
2508.15	0.001989
2517.79	0.00186
2527.44	0.00184
2537.09	0.00179
2546.73	0.00177
2556.38	0.00181
2566.03	0.0018
2575.67	0.00169
2585.32	0.00174
2594.96	0.00158
2604.61	0.00156
2614.26	0.00151
2623.9	0.00146
2633.55	0.00149
2643.2	0.00147
2652.84	0.00137
2662.49	0.00135
2672.14	0.00143
2681.78	0.00148
2691.43	0.00148
2701.08	0.00136
2710.72	0.00127
2720.37	0.00134
2730.02	0.00141
2739.66	0.00133
2749.31	0.0014
2758.96	0.00158
2768.6	0.00167
2778.25	0.00169
2787.9	0.00174
2797.54	0.00177
2807.19	0.00185
2816.84	0.002193
2826.48	0.002397
2836.13	0.002629
2845.77	0.0029309
2855.42	0.0035077
2865.07	0.00457
2874.71	0.00612
2884.36	0.00846
2894.01	0.00948
2903.65	0.01075
2913.3	0.01337
2922.95	0.01545
2932.59	0.01981
2942.24	0.0289
2951.89	0.02922
2961.53	0.02393
2971.18	0.02705
2980.83	0.03988
2990.47	0.04753
3000.12	0.03311
3009.77	0.02211
3019.41	0.01347
3029.06	0.00774
3038.71	0.00476
3048.35	0.00300644
3058	0.002371
3067.64	0.00174
3077.29	0.0013
3086.94	0.00089
3096.58	0.0009
3106.23	0.00073
3115.88	0.00086
3125.52	0.00084
3135.17	0.00061
3144.82	0.00057
3154.46	0.00053
3164.11	0.00057
3173.76	0.00045
3183.4	0.00032
3193.05	0.00021
3202.7	0.00023
3212.34	0
3221.99	0.0002
3231.64	0.00019
3241.28	0.00029
3250.93	0.00019
3260.58	0.00015
3270.22	0.00016
3279.87	0.0003
3289.52	0.00035
3299.16	0.00031
3308.81	0.00033
3318.45	0.00075
3328.1	0.00072
3337.75	0.00069
3347.39	0.00088
3357.04	0.00088
3366.69	0.00091
3376.33	0.00102
3385.98	0.00143
3395.63	0.00131
3405.27	0.00171
3414.92	0.00186
3424.57	0.00211
3434.21	0.00247
3443.86	0.0031325
3453.51	0.0037804
3463.15	0.00486
3472.8	0.00574
3482.45	0.00729
3492.09	0.00976
3501.74	0.0126
3511.39	0.01332
3521.03	0.0127
3530.68	0.01155
3540.33	0.01095
3549.97	0.0108
3559.62	0.01092
3569.26	0.01145
3578.91	0.01253
3588.56	0.01229
3598.2	0.01123
3607.85	0.01086
3617.5	0.01173
3627.14	0.01345
3636.79	0.01515
3646.44	0.01882
3656.08	0.02096
3665.73	0.01478
3675.38	0.00811
3685.02	0.00467
3694.67	0.0032725
3704.32	0.002721
3713.96	0.002296
3723.61	0.00189
3733.26	0.0019
3742.9	0.0019
3752.55	0.00168
3762.2	0.00163
3771.84	0.00162
3781.49	0.00184
3791.13	0.00187
3800.78	0.00178
3810.43	0.00193
3820.07	0.002067
3829.72	0.002071
3839.37	0.00194
3849.01	0.00191
3858.66	0.001999
3868.31	0.00178
3877.95	0.00179
3887.6	0.00178
3897.25	0.0017
3906.89	0.00171
3916.54	0.00179
3926.19	0.00176
3935.83	0.00176
3945.48	0.00166
3955.13	0.00166
3964.77	0.00163
3974.42	0.00177
3984.07	0.00177
3993.71	0.00172
