Infrared Spectrum: m-FLUOROPHENOL
Formula: C6 H5 F O
CAS: 372-20-3
State: SOLUTION (10% CCl4 FOR 2-7.6, 10% CS2 FOR 7.6-15.9 MICRON)
Class: COBLENTZ III
Instrument: BAIRD (PRISM)
Instrument parameters: NaCl PRISM
Sampling: TRANSMISSION
Path length: 0.012 CM, 0.011 CM
Resolution: 2
Origin: DOW CHEMICAL COMPANY
MICROMETERS	TRANSMITTANCE
2.009	0.867
2.04804	0.867
2.08708	0.862
2.12613	0.872
2.16517	0.878
2.20421	0.873
2.24325	0.871
2.28229	0.878
2.32134	0.879
2.36038	0.878
2.39942	0.872
2.43846	0.874
2.47751	0.874
2.51655	0.872
2.55559	0.876
2.59463	0.873
2.63367	0.878
2.67272	0.845
2.71176	0.752
2.7508	0.501
2.78984	0.414
2.82888	0.488
2.86793	0.349
2.90697	0.309
2.94601	0.301
2.98505	0.331
3.0241	0.401
3.06314	0.472
3.10218	0.552
3.14122	0.634
3.18026	0.669
3.21931	0.669
3.25835	0.668
3.29739	0.742
3.33643	0.763
3.37547	0.773
3.41452	0.801
3.45356	0.808
3.4926	0.802
3.53164	0.812
3.57069	0.824
3.60973	0.835
3.64877	0.831
3.68781	0.84
3.72685	0.85
3.7659	0.842
3.80494	0.836
3.84398	0.831
3.88302	0.84
3.92206	0.861
3.96111	0.868
4.00015	0.868
4.03919	0.861
4.07823	0.841
4.11728	0.849
4.15632	0.871
4.19536	0.867
4.2344	0.863
4.27344	0.884
4.31249	0.896
4.35153	0.894
4.39057	0.896
4.42961	0.889
4.46865	0.904
4.5077	0.922
4.54674	0.923
4.58578	0.932
4.62482	0.931
4.66387	0.932
4.70291	0.932
4.74195	0.932
4.78099	0.903
4.82003	0.919
4.85908	0.923
4.89812	0.909
4.93716	0.907
4.9762	0.911
5.01524	0.919
5.05429	0.909
5.09333	0.909
5.13237	0.91
5.17141	0.868
5.21046	0.873
5.2495	0.906
5.28854	0.892
5.32758	0.872
5.36662	0.9
5.40567	0.894
5.44471	0.88
5.48375	0.892
5.52279	0.901
5.56183	0.917
5.60088	0.917
5.63992	0.903
5.67896	0.888
5.718	0.866
5.75704	0.863
5.79609	0.853
5.83513	0.841
5.87417	0.823
5.91321	0.801
5.95226	0.701
5.9913	0.585
6.03034	0.561
6.06938	0.503
6.10842	0.36
6.14747	0.065
6.18651	0.02
6.22555	0.05
6.26459	0.209
6.30363	0.342
6.34268	0.417
6.38172	0.375
6.42076	0.352
6.4598	0.365
6.49885	0.44
6.53789	0.433
6.57693	0.381
6.61597	0.193
6.65501	0.04
6.69406	0.061
6.7331	0.191
6.77214	0.31
6.81118	0.203
6.85022	0.37
6.88927	0.564
6.92831	0.685
6.96735	0.755
7.00639	0.746
7.04544	0.75
7.08448	0.781
7.12352	0.788
7.16256	0.76
7.2016	0.727
7.24065	0.68
7.27969	0.644
7.31873	0.602
7.35777	0.563
7.39681	0.537
7.43586	0.503
7.4749	0.46
7.51394	0.4
7.55298	0.369
7.59203	0.256
7.63107	0.211
7.67011	0.139
7.70915	0.11
7.74819	0.074
7.78724	0.1
7.82628	0.234
7.86532	0.353
7.90436	0.538
7.9434	0.59
7.98245	0.593
8.02149	0.534
8.06053	0.482
8.09957	0.428
8.13862	0.39
8.17766	0.352
8.2167	0.317
8.25574	0.296
8.29478	0.304
8.33383	0.317
8.37287	0.303
8.41191	0.242
8.45095	0.206
8.48999	0.224
8.52904	0.261
8.56808	0.207
8.60712	0.213
8.64616	0.358
8.68521	0.476
8.72425	0.385
8.76329	0.109
8.80233	0.006
8.84137	0.006
8.88042	0.03
8.91946	0.203
8.9585	0.44
8.99754	0.582
9.03658	0.646
9.07563	0.673
9.11467	0.698
9.15371	0.722
9.19275	0.746
9.23179	0.746
9.27084	0.673
9.30988	0.553
9.34892	0.521
9.38796	0.626
9.42701	0.719
9.46605	0.769
9.50509	0.798
9.54413	0.814
9.58317	0.822
9.62222	0.828
9.66126	0.829
9.7003	0.83
9.73934	0.831
9.77838	0.829
9.81743	0.822
9.85647	0.803
9.89551	0.703
9.93455	0.573
9.9736	0.733
10.0126	0.792
10.0517	0.795
10.0907	0.804
10.1298	0.801
10.1688	0.771
10.2078	0.722
10.2469	0.678
10.2859	0.655
10.325	0.603
10.364	0.471
10.4031	0.185
10.4421	0.029
10.4811	0.023
10.5202	0.153
10.5592	0.371
10.5983	0.575
10.6373	0.677
10.6764	0.717
10.7154	0.734
10.7544	0.739
10.7935	0.739
10.8325	0.75
10.8716	0.761
10.9106	0.769
10.9496	0.769
10.9887	0.77
11.0277	0.771
11.0668	0.773
11.1058	0.766
11.1449	0.76
11.1839	0.75
11.2229	0.732
11.262	0.71
11.301	0.684
11.3401	0.662
11.3791	0.642
11.4182	0.613
11.4572	0.574
11.4962	0.542
11.5353	0.5
11.5743	0.45
11.6134	0.371
11.6524	0.272
11.6914	0.174
11.7305	0.1
11.7695	0.078
11.8086	0.13
11.8476	0.159
11.8867	0.165
11.9257	0.168
11.9647	0.173
12.0038	0.238
12.0428	0.371
12.0819	0.487
12.1209	0.575
12.16	0.623
12.199	0.652
12.238	0.665
12.2771	0.669
12.3161	0.671
12.3552	0.673
12.3942	0.672
12.4332	0.673
12.4723	0.672
12.5113	0.666
12.5504	0.658
12.5894	0.649
12.6285	0.636
12.6675	0.617
12.7065	0.591
12.7456	0.553
12.7846	0.514
12.8237	0.444
12.8627	0.35
12.9018	0.229
12.9408	0.128
12.9798	0.058
13.0189	0.034
13.0579	0.034
13.097	0.052
13.136	0.104
13.1751	0.212
13.2141	0.339
13.2531	0.442
13.2922	0.517
13.3312	0.543
13.3703	0.55
13.4093	0.532
13.4483	0.473
13.4874	0.382
13.5264	0.353
13.5655	0.45
13.6045	0.559
13.6436	0.59
13.6826	0.601
13.7216	0.606
13.7607	0.606
13.7997	0.607
13.8388	0.606
13.8778	0.602
13.9169	0.598
13.9559	0.593
13.9949	0.585
14.034	0.577
14.073	0.57
14.1121	0.564
14.1511	0.558
14.1901	0.552
14.2292	0.544
14.2682	0.538
14.3073	0.526
14.3463	0.515
14.3854	0.5
14.4244	0.482
14.4634	0.457
14.5025	0.417
14.5415	0.36
14.5806	0.28
14.6196	0.198
14.6587	0.11
14.6977	0.049
14.7367	0.036
14.7758	0.077
14.8148	0.158
14.8539	0.235
14.8929	0.299
14.9319	0.365
14.971	0.404
15.01	0.423
15.0491	0.422
15.0881	0.417
15.1272	0.412
15.1662	0.406
15.2052	0.401
15.2443	0.392
15.2833	0.39
15.3224	0.385
15.3614	0.377
15.4005	0.374
15.4395	0.365
15.4785	0.358
15.5176	0.352
15.5566	0.35
15.5957	0.346
15.6347	0.338
15.6737	0.333
15.7128	0.326
15.7518	0.316
15.7909	0.309
15.8299	0.305
15.869	0.306
15.908	0.32
