Infrared Spectrum: 1,2,4-Trifluorobenzene
Formula: C 6 H 3 F 3
CAS: 372-38-3
State: gas
Instrument: HP-GC/MS/IRD
Origin: NIST Mass Spectrometry Data Center
1/CM	ABSORBANCE
550	0.0001456
562	0.0001848
574	0.0002506
586	0.0004039
598	0.0002702
610	0.0003178
622	0.0001729
634	0.0001176
646	0.000147
658	0.0001673
670	0.000105
682	6.23e-05
694	0.0001638
706	0.0001246
718	0.0004935
730	0.0005614
742	0.0003423
754	0.0002345
766	0.0006342
778	0.0013293
790	0.0011403
802	0.0008134
814	0.0005026
826	0.0004004
838	0.000609
850	0.0011431
862	0.0007798
874	0.0004305
886	0.0001638
898	9.45e-05
910	0.0001575
922	0.0002177
934	0.0002471
946	0.0003626
958	0.0009401
970	0.0009002
982	0.0003108
994	0.0001946
1006	0.0001792
1018	3.15e-05
1030	0.0001344
1042	0.0001106
1054	0.0001442
1066	0.0001197
1078	0.0001953
1090	0.0004725
1102	0.0006153
1114	0.0002856
1126	0.0003822
1138	0.001778
1150	0.001813
1162	0.0002583
1174	0.0001029
1186	0.0001743
1198	0.0010073
1210	0.0011452
1222	0.0006419
1234	0.0007112
1246	0.0017339
1258	0.0016569
1270	0.0003626
1282	0.0002415
1294	0.0003808
1306	0.0007427
1318	0.000679
1330	0.0002597
1342	9.38e-05
1354	7.56e-05
1366	9.31e-05
1378	0.0001274
1390	0.0001365
1402	0.0001673
1414	0.000175
1426	0.0003465
1438	0.0005425
1450	0.0006622
1462	0.0004627
1474	0.0002989
1486	0.000546
1498	0.0015603
1510	0.0052402
1522	0.0068362
1534	0.0031752
1546	0.0007252
1558	0.0003759
1570	0.0002366
1582	0.0002709
1594	0.0003983
1606	0.0005719
1618	0.0009331
1630	0.0009555
1642	0.0004396
1654	0.000259
1666	0.0001372
1678	9.24e-05
1690	0.0001099
1702	0.0001421
1714	0.0001001
1726	7.56e-05
1738	6.65e-05
1750	8.05e-05
1762	4.55e-05
1774	7.77e-05
1786	6.44e-05
1798	9.24e-05
1810	6.86e-05
1822	7.84e-05
1834	0.0001113
1846	0.0001414
1858	0.0001099
1870	9.1e-05
1882	8.96e-05
1894	8.75e-05
1906	8.33e-05
1918	7.91e-05
1930	6.51e-05
1942	8.19e-05
1954	4.13e-05
1966	7.21e-05
1978	3.22e-05
1990	4.97e-05
2002	7.35e-05
2014	3.36e-05
2026	6.37e-05
2038	6.44e-05
2050	7.63e-05
2062	5.53e-05
2074	4.9e-05
2086	7.35e-05
2098	4.13e-05
2110	6.51e-05
2122	3.36e-05
2134	2.66e-05
2146	3.01e-05
2158	6.93e-05
2170	3.29e-05
2182	7.42e-05
2194	6.23e-05
2206	1.61e-05
2218	4.97e-05
2230	6.23e-05
2242	4.62e-05
2254	6.44e-05
2266	6.16e-05
2278	3.57e-05
2290	6.37e-05
2302	4.62e-05
2314	1.82e-05
2326	0.0001029
2338	6.65e-05
2350	4.2e-05
2362	9.03e-05
2374	3.15e-05
2386	7.49e-05
2398	0.0001071
2410	8.54e-05
2422	4.27e-05
2434	6.51e-05
2446	8.26e-05
2458	7.35e-05
2470	4.97e-05
2482	4.27e-05
2494	6.79e-05
2506	6.23e-05
2518	4.13e-05
2530	5.95e-05
2542	5.74e-05
2554	5.04e-05
2566	3.36e-05
2578	9.1e-05
2590	5.32e-05
2602	8.12e-05
2614	5.88e-05
2626	7.49e-05
2638	1.54e-05
2650	1.47e-05
2662	2.8e-05
2674	5.88e-05
2686	6.58e-05
2698	7.07e-05
2710	7.07e-05
2722	3.92e-05
2734	5.39e-05
2746	2.87e-05
2758	7.63e-05
2770	0.0001288
2782	6.79e-05
2794	3.78e-05
2806	5.74e-05
2818	6.51e-05
2830	8.96e-05
2842	9.59e-05
2854	4.62e-05
2866	0.0001064
2878	8.75e-05
2890	0.0001029
2902	4.13e-05
2914	5.46e-05
2926	6.16e-05
2938	8.19e-05
2950	0.0001064
2962	0.0001239
2974	7.28e-05
2986	7.7e-05
2998	9.66e-05
3010	7.07e-05
3022	9.8e-05
3034	4.27e-05
3046	0.0001057
3058	0.0001064
3070	0.0001204
3082	8.75e-05
3094	0.0001393
3106	0.0001526
3118	5.6e-05
3130	2.52e-05
3142	0.0001113
3154	3.92e-05
3166	7.98e-05
3178	8.75e-05
3190	7.84e-05
3202	5.74e-05
3214	0.0001575
3226	7.35e-05
3238	5.67e-05
3250	5.32e-05
3262	8.89e-05
3274	2.73e-05
3286	0.0001932
3298	0.0001295
3310	6.58e-05
3322	5.18e-05
3334	9.87e-05
3346	0.0001029
3358	0.0001148
3370	0.0001232
3382	0.0001477
3394	8.82e-05
3406	0.0001456
3418	4.41e-05
3430	6.79e-05
3442	0.0001792
3454	0.0001701
3466	0.0001078
3478	0.0001015
3490	0.000112
3502	0.0001631
3514	7.84e-05
3526	6.16e-05
3538	9.38e-05
3550	0.0001064
3562	0.0001071
3574	0.0001092
3586	0.0001351
3598	0.000133
3610	0.0001764
3622	0.0001645
3634	0.0001617
3646	0.0001386
3658	0.0001463
3670	0.000133
3682	0.0001484
3694	0.0001316
3706	6.3e-05
3718	0.000168
3730	8.61e-05
3742	7.07e-05
3754	0.0001414
3766	0.0001659
3778	0.0001372
3790	0.0001932
3802	9.66e-05
3814	9.87e-05
3826	0.0001274
3838	0.0002492
