Infrared Spectrum: ACETOACETIC ACID, 4-TRIFLUORO-, ETHYL ESTER
Formula: C6 H7 F3 O3
CAS: 372-31-6
Class: COBLENTZ
Instrument: Not specified, most likely a prism, grating, or hybrid spectrometer.
Sampling: TRANSMISSION
Path length: SMEAR
Resolution: 4
Origin: TENNESSEE EASTMAN COMPANY, RESEARCH LABORATORIES
MICROMETERS	TRANSMITTANCE
2.013	0.944
2.05296	0.946
2.09293	0.948
2.13289	0.948
2.17285	0.948
2.21281	0.948
2.25278	0.948
2.29274	0.948
2.3327	0.948
2.37267	0.948
2.41263	0.949
2.45259	0.951
2.49256	0.953
2.53252	0.954
2.57248	0.956
2.61244	0.956
2.65241	0.958
2.69237	0.958
2.73233	0.956
2.7723	0.953
2.81226	0.948
2.85222	0.933
2.89219	0.906
2.93215	0.874
2.97211	0.851
3.01207	0.848
3.05204	0.844
3.092	0.841
3.13196	0.826
3.17193	0.781
3.21189	0.712
3.25185	0.752
3.29182	0.734
3.33178	0.489
3.37174	0.604
3.4117	0.637
3.45167	0.701
3.49163	0.747
3.53159	0.779
3.57156	0.803
3.61152	0.821
3.65148	0.841
3.69144	0.853
3.73141	0.859
3.77137	0.859
3.81133	0.859
3.8513	0.884
3.89126	0.896
3.93122	0.908
3.97119	0.921
4.01115	0.924
4.05111	0.924
4.09107	0.928
4.13104	0.928
4.171	0.929
4.21096	0.931
4.25093	0.928
4.29089	0.928
4.33085	0.928
4.37082	0.934
4.41078	0.946
4.45074	0.949
4.4907	0.954
4.53067	0.954
4.57063	0.953
4.61059	0.958
4.65056	0.969
4.69052	0.968
4.73048	0.966
4.77044	0.966
4.81041	0.964
4.85037	0.968
4.89033	0.968
4.9303	0.968
4.97026	0.968
5.01022	0.968
5.05019	0.968
5.09015	0.968
5.13011	0.968
5.17007	0.968
5.21004	0.966
5.25	0.966
5.28996	0.964
5.32993	0.964
5.36989	0.958
5.40985	0.956
5.44982	0.954
5.48978	0.949
5.52974	0.936
5.5697	0.899
5.60967	0.724
5.64963	0.664
5.68959	0.582
5.72956	0.454
5.76952	0.58
5.80948	0.614
5.84945	0.56
5.88941	0.449
5.92937	0.171
5.96933	0.12
6.0093	0.15
6.04926	0.273
6.08922	0.368
6.12919	0.549
6.16915	0.699
6.20911	0.749
6.24907	0.757
6.28904	0.784
6.329	0.823
6.36896	0.831
6.40893	0.839
6.44889	0.846
6.48885	0.844
6.52882	0.841
6.56878	0.844
6.60874	0.844
6.6487	0.834
6.68867	0.794
6.72863	0.606
6.76859	0.574
6.80856	0.585
6.84852	0.619
6.88848	0.557
6.92845	0.602
6.96841	0.57
7.00837	0.549
7.04833	0.595
7.0883	0.606
7.12826	0.599
7.16822	0.542
7.20819	0.5
7.24815	0.397
7.28811	0.242
7.32808	0.215
7.36804	0.348
7.408	0.222
7.44796	0.175
7.48793	0.205
7.52789	0.228
7.56785	0.273
7.60782	0.292
7.64778	0.257
7.68774	0.21
7.7277	0.145
7.76767	0.078
7.80763	0.055
7.84759	0.046
7.88756	0.06
7.92752	0.158
7.96748	0.203
8.00745	0.212
8.04741	0.168
8.08737	0.105
8.12733	0.075
8.1673	0.065
8.20726	0.065
8.24722	0.066
8.28719	0.058
8.32715	0.048
8.36711	0.046
8.40708	0.051
8.44704	0.068
8.487	0.08
8.52696	0.08
8.56693	0.073
8.60689	0.063
8.64685	0.055
8.68682	0.073
8.72678	0.178
8.76674	0.323
8.8067	0.444
8.84667	0.515
8.88663	0.525
8.92659	0.52
8.96656	0.494
9.00652	0.459
9.04648	0.405
9.08645	0.27
9.12641	0.181
9.16637	0.325
9.20633	0.515
9.2463	0.614
9.28626	0.659
9.32622	0.687
9.36619	0.682
9.40615	0.694
9.44611	0.707
9.48608	0.711
9.52604	0.674
9.566	0.594
9.60596	0.447
9.64593	0.297
9.68589	0.23
9.72585	0.225
9.76582	0.313
9.80578	0.402
9.84574	0.507
9.88571	0.624
9.92567	0.704
9.96563	0.757
10.0056	0.792
10.0456	0.804
10.0855	0.808
10.1255	0.819
10.1654	0.844
10.2054	0.853
10.2454	0.864
10.2853	0.881
10.3253	0.891
10.3653	0.898
10.4052	0.906
10.4452	0.909
10.4851	0.904
10.5251	0.901
10.5651	0.904
10.605	0.876
10.645	0.879
10.685	0.893
10.7249	0.898
10.7649	0.903
10.8049	0.904
10.8448	0.906
10.8848	0.903
10.9247	0.899
10.9647	0.893
11.0047	0.799
11.0446	0.642
11.0846	0.559
11.1246	0.601
11.1645	0.719
11.2045	0.821
11.2444	0.859
11.2844	0.886
11.3244	0.896
11.3643	0.901
11.4043	0.903
11.4443	0.904
11.4842	0.904
11.5242	0.903
11.5641	0.898
11.6041	0.891
11.6441	0.878
11.684	0.854
11.724	0.846
11.764	0.841
11.8039	0.809
11.8439	0.766
11.8839	0.722
11.9238	0.677
11.9638	0.637
12.0037	0.579
12.0437	0.495
12.0837	0.405
12.1236	0.37
12.1636	0.365
12.2036	0.387
12.2435	0.437
12.2835	0.47
12.3234	0.505
12.3634	0.52
12.4034	0.527
12.4433	0.545
12.4833	0.569
12.5233	0.585
12.5632	0.597
12.6032	0.614
12.6432	0.646
12.6831	0.667
12.7231	0.697
12.763	0.724
12.803	0.752
12.843	0.771
12.8829	0.787
12.9229	0.816
12.9629	0.839
13.0028	0.853
13.0428	0.858
13.0827	0.869
13.1227	0.891
13.1627	0.896
13.2026	0.898
13.2426	0.901
13.2826	0.901
13.3225	0.894
13.3625	0.879
13.4024	0.868
13.4424	0.838
13.4824	0.786
13.5223	0.749
13.5623	0.731
13.6023	0.724
13.6422	0.732
13.6822	0.757
13.7222	0.767
13.7621	0.801
13.8021	0.829
13.842	0.854
13.882	0.869
13.922	0.889
13.9619	0.898
14.0019	0.906
14.0419	0.899
14.0818	0.871
14.1218	0.811
14.1617	0.757
14.2017	0.737
14.2417	0.741
14.2816	0.761
14.3216	0.792
14.3616	0.819
14.4015	0.849
14.4415	0.853
14.4814	0.863
14.5214	0.891
14.5614	0.903
14.6013	0.906
14.6413	0.916
14.6813	0.926
14.7212	0.929
14.7612	0.931
14.8012	0.933
14.8411	0.929
14.8811	0.904
14.921	0.893
14.961	0.938
15.001	0.949
15.0409	0.863
15.0809	0.876
15.1209	0.926
15.1608	0.959
15.2008	0.983
15.2407	1
15.2807	1.01
15.3207	1.015
15.3606	1.02
15.4006	1.021
15.4406	1.023
15.4805	1.025
15.5205	1.025
15.5604	1.026
15.6004	1.03
15.6404	1.031
15.6803	1.035
15.7203	1.036
15.7603	1.038
15.8002	1.04
15.8402	1.041
15.8802	1.041
15.9201	1.041
15.9601	1.043
16	1.045
