Infrared Spectrum: 3-Fluoropyridine
Formula: C 5 H 4 F N
CAS: 372-47-4
State: gas
Instrument: HP-GC/MS/IRD
Origin: NIST Mass Spectrometry Data Center
1/CM	ABSORBANCE
550	0.000693
562	0.0002982
574	8.19e-05
586	0.0002373
598	0.0005313
610	0.0007413
622	0.001281
634	0.0005334
646	0.0003087
658	0.0003717
670	0.0013923
682	0.0033159
694	0.0044667
706	0.004809
718	0.0029022
730	0.0012432
742	0.0003675
754	0.0005208
766	0.00147
778	0.0033873
790	0.0054894
802	0.0094521
814	0.0066087
826	0.0045591
838	0.0021357
850	0.0006993
862	0.0003024
874	0.0003276
886	0.0004158
898	0.0005985
910	0.0005733
922	0.000651
934	0.0010038
946	0.0004641
958	0.0002583
970	0.0002121
982	0.000231
994	0.0006237
1006	0.0020748
1018	0.0023037
1030	0.0023604
1042	0.0011361
1054	0.0004809
1066	0.0004494
1078	0.0011256
1090	0.0014091
1102	0.0017283
1114	0.0009534
1126	0.0006426
1138	0.0005082
1150	0.0003339
1162	0.0006321
1174	0.0017367
1186	0.0024108
1198	0.0041664
1210	0.0099309
1222	0.0141561
1234	0.021
1246	0.0154056
1258	0.0126105
1270	0.0018081
1282	0.0006678
1294	0.0007476
1306	0.0007896
1318	0.0005334
1330	0.0004116
1342	0.0003612
1354	0.0003969
1366	0.0004536
1378	0.0006531
1390	0.0011949
1402	0.0037422
1414	0.008799
1426	0.0117621
1438	0.0092316
1450	0.0048867
1462	0.0079128
1474	0.0112812
1486	0.0105168
1498	0.0036288
1510	0.000987
1522	0.0005733
1534	0.000567
1546	0.0012579
1558	0.0032109
1570	0.0055503
1582	0.006468
1594	0.0048804
1606	0.0026271
1618	0.0011193
1630	0.0006132
1642	0.0003801
1654	0.0002289
1666	0.0002163
1678	0.0002184
1690	0.0002562
1702	0.0002667
1714	0.0003549
1726	0.0003549
1738	0.0003633
1750	0.0003045
1762	0.0003423
1774	0.0003234
1786	0.0003528
1798	0.0003696
1810	0.0004725
1822	0.0005523
1834	0.0004977
1846	0.0004431
1858	0.00042
1870	0.000441
1882	0.0004977
1894	0.0004473
1906	0.0004074
1918	0.0003885
1930	0.0003549
1942	0.0002982
1954	0.0002016
1966	0.0001302
1978	0.0001008
1990	0.0001071
2002	0.0001302
2014	0.0001659
2026	0.0002226
2038	0.0003843
2050	0.0004053
2062	0.0003192
2074	0.0002226
2086	0.0001533
2098	0.0001197
2110	6.72e-05
2122	4.62e-05
2134	6.51e-05
2146	9.87e-05
2158	5.88e-05
2170	7.77e-05
2182	7.98e-05
2194	0.0001113
2206	7.14e-05
2218	0.0001092
2230	9.45e-05
2242	0.0001155
2254	9.24e-05
2266	0.0001113
2278	0.0001281
2290	0.0001197
2302	9.45e-05
2314	0.0001029
2326	0.0001134
2338	6.3e-05
2350	5.67e-05
2362	9.66e-05
2374	0.0001281
2386	0.0001512
2398	0.0001617
2410	0.0001344
2422	0.0001134
2434	0.0001407
2446	0.0002142
2458	0.000336
2470	0.0003549
2482	0.000252
2494	0.000126
2506	2.52e-05
2518	6.72e-05
2530	4.41e-05
2542	4.83e-05
2554	0.0001176
2566	7.56e-05
2578	4.41e-05
2590	4.83e-05
2602	4.2e-06
2614	7.56e-05
2626	4.41e-05
2638	4.62e-05
2650	9.66e-05
2662	5.67e-05
2674	6.51e-05
2686	5.88e-05
2698	7.14e-05
2710	2.73e-05
2722	6.72e-05
2734	3.78e-05
2746	4.2e-05
2758	3.57e-05
2770	7.56e-05
2782	4.62e-05
2794	4.41e-05
2806	7.35e-05
2818	0.0001008
2830	7.56e-05
2842	4.2e-06
2854	5.88e-05
2866	6.51e-05
2878	0.0001134
2890	9.24e-05
2902	0.0001029
2914	0.0001008
2926	4.62e-05
2938	6.93e-05
2950	8.4e-05
2962	0.0001197
2974	0.0001554
2986	0.0003066
2998	0.0005187
3010	0.0008883
3022	0.0011298
3034	0.0019761
3046	0.0031815
3058	0.0044667
3070	0.0041496
3082	0.0034503
3094	0.0017871
3106	0.0009345
3118	0.0003465
3130	0.0002058
3142	0.000105
3154	0.0001974
3166	0.0001554
3178	0.0001617
3190	8.4e-05
3202	2.73e-05
3214	4.2e-06
3226	7.14e-05
3238	7.77e-05
3250	4.83e-05
3262	6.93e-05
3274	0.0001155
3286	8.4e-05
3298	0.0001071
3310	0.0001638
3322	0.0001491
3334	0.0001617
3346	8.82e-05
3358	0.0001323
3370	9.87e-05
3382	9.03e-05
3394	9.66e-05
3406	4.83e-05
3418	6.51e-05
3430	0.0001029
3442	8.82e-05
3454	0.0001176
3466	0.000105
3478	0.0001197
3490	4.41e-05
3502	0.0001638
3514	0.0001176
3526	5.88e-05
3538	0.0001155
3550	0.0001323
3562	0.0002079
3574	0.0001953
3586	0.0001008
3598	0.0001659
3610	9.45e-05
3622	0.0001029
3634	0.0001071
3646	0.000168
3658	0.0001743
3670	0.0001953
3682	0.000147
3694	0.0001701
3706	0.0001449
3718	0.0002247
3730	0.000126
3742	0.0001176
3754	0.0001827
3766	0.0001239
3778	0.0001512
3790	0.0001554
3802	0.0001008
3814	0.0001617
3826	0.0002415
3838	0.0001008
