Infrared Spectrum: 3-Pyridinepropionic acid
Formula: C8 H9 N O2
CAS: 3724-19-4
State: SOLID (SPLIT MULL), FLUOROLUBE FOR 3800-1330 CM^-^1, NUJOL FOR 1330-400 CM^-^1
Class: COBLENTZ III
Instrument: DOW KBr FOREPRISM-GRATING
Instrument parameters: BLAZED AT 3.5, 12.0, 20.0 MICRON AND CHANGED AT 5.0, 7.5, 14.9 MICRON
Sampling: TRANSMISSION
Resolution: 2
Origin: DOW CHEMICAL COMPANY
1/CM	TRANSMITTANCE
3800	0.6801
3791	0.6798
3782	0.6795
3773	0.6795
3764	0.68
3755	0.6818
3746	0.6847
3737	0.6883
3728	0.6928
3719	0.6965
3710	0.6982
3701	0.6988
3692	0.7003
3683	0.7018
3674	0.7042
3665	0.7065
3656	0.7086
3647	0.7105
3638	0.7124
3629	0.7147
3620	0.7171
3611	0.719
3602	0.7208
3593	0.7214
3584	0.7139
3575	0.7207
3566	0.7274
3557	0.7285
3548	0.7294
3539	0.7296
3530	0.73
3521	0.731
3512	0.7321
3503	0.7334
3494	0.7348
3485	0.7361
3476	0.7374
3467	0.7386
3458	0.7401
3449	0.7415
3440	0.7432
3431	0.7448
3422	0.7468
3413	0.7491
3404	0.7512
3395	0.754
3386	0.7568
3377	0.7596
3368	0.7622
3359	0.7648
3350	0.7672
3341	0.7698
3332	0.7725
3323	0.7751
3314	0.7778
3305	0.7807
3296	0.7837
3287	0.7867
3278	0.7898
3269	0.7926
3260	0.7957
3251	0.7986
3242	0.8018
3233	0.8051
3224	0.8084
3215	0.8112
3206	0.8142
3197	0.8168
3188	0.8189
3179	0.821
3170	0.8231
3161	0.8251
3152	0.8271
3143	0.83
3134	0.8331
3125	0.8357
3116	0.8375
3107	0.8375
3098	0.828
3089	0.8244
3080	0.8248
3071	0.8298
3062	0.834
3053	0.8271
3044	0.8225
3035	0.8115
3026	0.7992
3017	0.8105
3008	0.8274
2999	0.8335
2990	0.8394
2981	0.8445
2972	0.8489
2963	0.8504
2954	0.8454
2945	0.7861
2936	0.7983
2927	0.7587
2918	0.7065
2909	0.7505
2900	0.8105
2891	0.8268
2882	0.8348
2873	0.8392
2864	0.8405
2855	0.8394
2846	0.8373
2837	0.837
2828	0.8377
2819	0.8398
2810	0.847
2801	0.8598
2792	0.8659
2783	0.8694
2774	0.8721
2765	0.8742
2756	0.8751
2747	0.876
2738	0.877
2729	0.8774
2720	0.8765
2711	0.876
2702	0.8759
2693	0.876
2684	0.8762
2675	0.8767
2666	0.8775
2657	0.8775
2648	0.8778
2639	0.8773
2630	0.8766
2621	0.8731
2612	0.8627
2603	0.8507
2594	0.8394
2585	0.8341
2576	0.8278
2567	0.8199
2558	0.8095
2549	0.798
2540	0.7864
2531	0.7733
2522	0.7597
2513	0.7421
2504	0.7258
2495	0.7108
2486	0.6953
2477	0.6792
2468	0.6608
2459	0.6453
2450	0.631
2441	0.6197
2432	0.612
2423	0.605
2414	0.5989
2405	0.5947
2396	0.5922
2387	0.5904
2378	0.5894
2369	0.5886
2360	0.5881
2351	0.5879
2342	0.588
2333	0.588
2324	0.5895
2315	0.6077
2306	0.6388
2297	0.6801
2288	0.7095
2279	0.7307
2270	0.7496
2261	0.7636
2252	0.7775
2243	0.793
2234	0.8089
2225	0.8211
2216	0.8333
2207	0.8449
2198	0.8563
2189	0.8642
2180	0.8686
2171	0.8718
2162	0.8743
2153	0.8756
2144	0.8759
2135	0.8718
2126	0.8639
2117	0.8521
2108	0.8373
2099	0.8237
2090	0.8071
2081	0.7878
2072	0.769
2063	0.7495
2054	0.7282
2045	0.7107
2036	0.6951
2027	0.6799
2018	0.6622
2009	0.6468
2000	0.6276
1991	0.6212
1982	0.6101
1973	0.5921
1964	0.5829
1955	0.5832
1946	0.5833
1937	0.5795
1928	0.5788
1919	0.5782
1910	0.576
1901	0.5747
1892	0.5755
1883	0.5886
1874	0.6124
1865	0.6387
1856	0.6492
1847	0.641
1838	0.6298
1829	0.6269
1820	0.6184
1811	0.6125
1802	0.6118
1793	0.6127
1784	0.6112
1775	0.6036
1766	0.5748
1757	0.5044
1748	0.4135
1739	0.342
1730	0.2589
1721	0.2051
1712	0.1812
1703	0.2175
1694	0.3094
1685	0.4092
1676	0.5077
1667	0.5756
1658	0.6101
1649	0.6289
1640	0.651
1631	0.7067
1622	0.7622
1613	0.8204
1604	0.4654
1595	0.5987
1586	0.5629
1577	0.6646
1568	0.7106
1559	0.7392
1550	0.7558
1541	0.7647
1532	0.7711
1523	0.7795
1514	0.7925
1505	0.8008
1496	0.763
1487	0.4187
1478	0.7769
1469	0.8634
1460	0.9005
1451	0.9012
1442	0.528
1433	0.432
1424	0.197
1415	0.4559
1406	0.6892
1397	0.6876
1388	0.5325
1379	0.3689
1370	0.4123
1361	0.5872
1352	0.6342
1343	0.6159
1334	0.1786
1325	0.3007
1316	0.1721
1307	0.2011
1298	0.2348
1289	0.2696
1280	0.2863
1271	0.2952
1262	0.2771
1253	0.2609
1244	0.339
1235	0.3416
1226	0.1511
1217	0.1598
1208	0.1983
1199	0.2605
1190	0.2362
1181	0.1124
1172	0.1335
1163	0.1455
1154	0.1539
1145	0.1668
1136	0.1772
1127	0.0609
1118	0.1259
1109	0.1554
1100	0.1718
1091	0.1385
1082	0.1665
1073	0.2014
1064	0.2373
1055	0.1021
1046	0.1495
1037	0.2209
1028	0.4134
1019	0.316
1010	0.2704
1001	0.2525
992	0.2519
983	0.2479
974	0.2562
965	0.2789
956	0.3041
947	0.3134
938	0.3291
929	0.3379
920	0.3454
911	0.2166
902	0.266
893	0.3038
884	0.331
875	0.3548
866	0.3748
857	0.393
848	0.3929
839	0.3297
830	0.396
821	0.2438
812	0.288
803	0.4426
794	0.4791
785	0.5141
776	0.5367
767	0.5519
758	0.5495
749	0.5601
740	0.5766
731	0.5788
722	0.5732
713	0.5973
704	0.2242
695	0.5179
686	0.5299
677	0.6084
668	0.6392
659	0.6056
650	0.1969
641	0.6164
632	0.7387
623	0.7508
614	0.7711
605	0.7815
596	0.7921
587	0.7865
578	0.7598
569	0.798
560	0.8169
551	0.8288
542	0.8355
533	0.8401
524	0.8377
515	0.8131
506	0.7512
497	0.5942
488	0.4554
479	0.6054
470	0.6748
461	0.6847
452	0.7068
443	0.7086
434	0.7041
425	0.6965
416	0.6868
407	0.6732
398	0.6565
389	0.6412
