Infrared Spectrum: 1-Ethyl-4-methylcyclohexane
Formula: C 9 H 18
CAS: 3728-56-1
State: gas
Instrument: HP-GC/MS/IRD
Origin: NIST Mass Spectrometry Data Center
1/CM	ABSORBANCE
550	3.15e-05
562	0.0002295
574	0.000189
586	8.1e-05
598	0.000207
610	0.0002025
622	0.0003645
634	0.0002115
646	0.0001575
658	0.000189
670	0.0002475
682	0.0003195
694	0.000234
706	0.000243
718	0.000225
730	0.00027
742	0.000243
754	0.000288
766	0.0003465
778	0.0003285
790	0.0002565
802	0.000261
814	0.000234
826	0.000207
838	0.000261
850	0.000216
862	0.0003375
874	0.0004545
886	0.000567
898	0.000495
910	0.0004545
922	0.000459
934	0.000333
946	0.0004365
958	0.000927
970	0.0009675
982	0.000594
994	0.000504
1006	0.00054
1018	0.0004635
1030	0.0003645
1042	0.0003735
1054	0.000396
1066	0.000522
1078	0.000477
1090	0.0003555
1102	0.000459
1114	0.0004365
1126	0.0002745
1138	0.0002745
1150	0.00027
1162	0.000288
1174	0.0002475
1186	0.0002655
1198	0.00018
1210	0.000315
1222	0.000549
1234	0.0007155
1246	0.000504
1258	0.000396
1270	0.0005085
1282	0.0004995
1294	0.0004455
1306	0.0004095
1318	0.0003735
1330	0.0004005
1342	0.0004995
1354	0.000621
1366	0.000936
1378	0.001737
1390	0.00153
1402	0.000711
1414	0.000531
1426	0.000873
1438	0.0022995
1450	0.0044235
1462	0.0044325
1474	0.002664
1486	0.0010755
1498	0.0005175
1510	0.0003375
1522	0.0002565
1534	0.000234
1546	0.000225
1558	0.000189
1570	0.000198
1582	0.0001665
1594	0.000153
1606	0.000144
1618	0.00018
1630	0.000189
1642	0.0001755
1654	0.000162
1666	0.0001485
1678	0.000189
1690	0.000126
1702	0.0001485
1714	0.000108
1726	9.45e-05
1738	0.0001215
1750	0.0001305
1762	0.0001125
1774	0.000117
1786	8.1e-05
1798	9.45e-05
1810	5.85e-05
1822	3.6e-05
1834	3.6e-05
1846	7.2e-05
1858	8.55e-05
1870	6.3e-05
1882	3.15e-05
1894	5.4e-05
1906	7.2e-05
1918	6.3e-05
1930	3.15e-05
1942	2.25e-05
1954	3.15e-05
1966	2.7e-05
1978	4.05e-05
1990	1.35e-05
2002	0
2014	1.8e-05
2026	3.6e-05
2038	3.15e-05
2050	2.25e-05
2062	1.8e-05
2074	4.95e-05
2086	1.35e-05
2098	1.8e-05
2110	4.5e-06
2122	4.5e-06
2134	2.7e-05
2146	9e-06
2158	2.7e-05
2170	2.25e-05
2182	1.35e-05
2194	1.8e-05
2206	6.3e-05
2218	4.95e-05
2230	3.6e-05
2242	4.05e-05
2254	4.95e-05
2266	6.75e-05
2278	5.4e-05
2290	4.5e-05
2302	4.5e-05
2314	6.75e-05
2326	8.1e-05
2338	0.0001305
2350	0.000108
2362	0.000135
2374	0.000126
2386	0.000126
2398	0.000126
2410	0.00018
2422	0.000135
2434	0.0001215
2446	0.000108
2458	0.000108
2470	0.0001305
2482	0.0001035
2494	0.0001215
2506	0.000117
2518	0.000162
2530	0.0002025
2542	0.0001665
2554	0.0002115
2566	0.000225
2578	0.000243
2590	0.0002745
2602	0.00036
2614	0.0004455
2626	0.000459
2638	0.0004815
2650	0.0005445
2662	0.0005355
2674	0.0005445
2686	0.000567
2698	0.000549
2710	0.0005445
2722	0.000585
2734	0.00072
2746	0.000765
2758	0.000747
2770	0.0007785
2782	0.0008955
2794	0.0011655
2806	0.0014805
2818	0.001971
2830	0.003411
2842	0.0088605
2854	0.0160515
2866	0.0169965
2878	0.015507
2890	0.0152775
2902	0.020934
2914	0.036081
2926	0.0445545
2938	0.032436
2950	0.0212805
2962	0.02097
2974	0.0144855
2986	0.00549
2998	0.002232
3010	0.0013365
3022	0.0010305
3034	0.000936
3046	0.0007875
3058	0.000765
3070	0.000729
3082	0.0006525
3094	0.0006165
3106	0.000513
3118	0.0005355
3130	0.000567
3142	0.0005445
3154	0.00054
3166	0.0005355
3178	0.0004275
3190	0.00027
3202	0.0002295
3214	0.0001755
3226	0.0001575
3238	0.0001575
3250	0.000144
3262	0.000225
3274	0.0001665
3286	0.000108
3298	0.000153
3310	0.000162
3322	0.000162
3334	0.0001215
3346	0.000144
3358	0.000162
3370	0.000117
3382	0.0001845
3394	0.0001485
3406	8.55e-05
3418	9e-05
3430	7.2e-05
3442	4.95e-05
3454	5.85e-05
3466	6.3e-05
3478	9.45e-05
3490	4.95e-05
3502	7.65e-05
3514	0.0001035
3526	7.2e-05
3538	6.3e-05
3550	9.9e-05
3562	4.05e-05
3574	8.1e-05
3586	7.2e-05
3598	3.15e-05
3610	0.000108
3622	6.75e-05
3634	4.5e-05
3646	4.05e-05
3658	6.3e-05
3670	9.45e-05
3682	0.0001395
3694	0.000153
3706	0.0001215
3718	9.9e-05
3730	9.45e-05
3742	0.0001395
3754	9.45e-05
3766	6.3e-05
3778	0.0001485
3790	0.0001935
3802	0.0001485
3814	0.0001395
3826	0.0001665
3838	0.000162
