Infrared Spectrum: 1-Ethyl-2-methylcyclohexane
Formula: C 9 H 18
CAS: 3728-54-9
State: gas
Instrument: HP-GC/MS/IRD
Origin: NIST Mass Spectrometry Data Center
1/CM	ABSORBANCE
550	7.04e-05
562	0.0002624
574	0.0001792
586	0.0002432
598	0.0003456
610	0.0001088
622	9.6e-05
634	8.32e-05
646	3.84e-05
658	4.48e-05
670	0.0001408
682	0.000128
694	0.0001088
706	9.6e-05
718	0.0002368
730	0.0001792
742	0.0001984
754	0.00016
766	5.12e-05
778	0.0001792
790	0.000192
802	0.0002496
814	0.0002112
826	0.0002752
838	0.0005632
850	0.000704
862	0.000416
874	0.0002816
886	0.000352
898	0.0003584
910	0.0002432
922	0.0001408
934	0.000192
946	0.00048
958	0.000992
970	0.001088
982	0.0008192
994	0.0004352
1006	0.0002624
1018	0.000288
1030	0.0002624
1042	0.0002752
1054	0.0002688
1066	0.000256
1078	0.000256
1090	0.0004288
1102	0.0003648
1114	0.000288
1126	0.000192
1138	0.0003136
1150	0.0006912
1162	0.0008064
1174	0.0003264
1186	0.0001408
1198	0.0002176
1210	0.0002496
1222	0.0001984
1234	0.0002368
1246	0.0003456
1258	0.0003456
1270	0.0003712
1282	0.0003968
1294	0.0004224
1306	0.0004032
1318	0.000448
1330	0.000512
1342	0.0005504
1354	0.000736
1366	0.0015104
1378	0.0029504
1390	0.0028288
1402	0.0011968
1414	0.0006848
1426	0.0009536
1438	0.0026176
1450	0.0053632
1462	0.0061632
1474	0.0041408
1486	0.0016704
1498	0.0006656
1510	0.0003904
1522	0.000288
1534	0.000224
1546	0.0001728
1558	0.0001984
1570	0.0001792
1582	0.0001792
1594	0.0001728
1606	0.0001344
1618	0.0001536
1630	0.0001408
1642	0.000128
1654	0.0001664
1666	0.0001088
1678	8.32e-05
1690	7.04e-05
1702	7.04e-05
1714	4.48e-05
1726	2.56e-05
1738	4.48e-05
1750	4.48e-05
1762	3.84e-05
1774	4.48e-05
1786	2.56e-05
1798	3.84e-05
1810	3.84e-05
1822	1.28e-05
1834	0
1846	2.56e-05
1858	2.56e-05
1870	1.92e-05
1882	6.4e-06
1894	2.56e-05
1906	3.2e-05
1918	6.4e-06
1930	3.2e-05
1942	6.4e-06
1954	1.92e-05
1966	1.92e-05
1978	2.56e-05
1990	3.84e-05
2002	1.28e-05
2014	1.28e-05
2026	1.92e-05
2038	1.92e-05
2050	2.56e-05
2062	1.92e-05
2074	1.92e-05
2086	1.92e-05
2098	1.28e-05
2110	3.2e-05
2122	1.28e-05
2134	3.2e-05
2146	1.92e-05
2158	3.2e-05
2170	3.84e-05
2182	6.4e-05
2194	4.48e-05
2206	4.48e-05
2218	4.48e-05
2230	3.84e-05
2242	5.12e-05
2254	3.2e-05
2266	4.48e-05
2278	7.04e-05
2290	6.4e-05
2302	5.76e-05
2314	7.04e-05
2326	6.4e-05
2338	9.6e-05
2350	0.0001088
2362	0.0001088
2374	0.000128
2386	0.000128
2398	0.000128
2410	0.0001472
2422	0.0001216
2434	8.32e-05
2446	8.32e-05
2458	0.000128
2470	0.0001088
2482	0.0001024
2494	0.0001216
2506	0.0001152
2518	0.000128
2530	0.00016
2542	0.0001856
2554	0.0002176
2566	0.0002624
2578	0.0003136
2590	0.0003968
2602	0.0004608
2614	0.00048
2626	0.000512
2638	0.0006464
2650	0.0008256
2662	0.0009664
2674	0.0008768
2686	0.000704
2698	0.00064
2710	0.0006592
2722	0.0007552
2734	0.0008256
2746	0.0008448
2758	0.0008384
2770	0.000896
2782	0.001088
2794	0.0013056
2806	0.0015936
2818	0.002016
2830	0.0030336
2842	0.0065152
2854	0.0165248
2866	0.0247552
2878	0.024256
2890	0.0202624
2902	0.0217216
2914	0.034976
2926	0.0559872
2938	0.0582464
2950	0.0366208
2962	0.027936
2974	0.0225536
2986	0.010112
2998	0.003808
3010	0.002176
3022	0.0015936
3034	0.0013568
3046	0.001216
3058	0.00112
3070	0.0010112
3082	0.0009536
3094	0.0008256
3106	0.0007744
3118	0.0006336
3130	0.0005824
3142	0.000544
3154	0.00048
3166	0.0004608
3178	0.0003776
3190	0.00032
3202	0.0002368
3214	0.0002176
3226	0.0002368
3238	0.0002048
3250	0.0001984
3262	0.0001664
3274	0.0001088
3286	0.0001472
3298	0.0001408
3310	0.0001664
3322	0.0001088
3334	0.0001472
3346	8.32e-05
3358	7.68e-05
3370	8.32e-05
3382	0.0001152
3394	0.0001216
3406	9.6e-05
3418	0.0001152
3430	0.0001152
3442	0.0001024
3454	0.0001088
3466	0.0001152
3478	6.4e-05
3490	7.04e-05
3502	8.32e-05
3514	7.04e-05
3526	8.96e-05
3538	8.32e-05
3550	5.12e-05
3562	4.48e-05
3574	9.6e-05
3586	7.04e-05
3598	7.04e-05
3610	8.96e-05
3622	5.76e-05
3634	9.6e-05
3646	0.0001088
3658	0.000128
3670	0.00016
3682	0.0001664
3694	0.0001408
3706	0.0001408
3718	0.0001472
3730	0.00016
3742	0.0001216
3754	0.0001536
3766	0.000128
3778	0.0001472
3790	0.0001408
3802	0.00016
3814	0.0001856
3826	0.000128
3838	0.0001664
