Infrared Spectrum: 1-Ethyl-3-methylcyclohexane (c,t)
Formula: C 9 H 18
CAS: 3728-55-0
State: gas
Instrument: HP-GC/MS/IRD
Origin: NIST Mass Spectrometry Data Center
1/CM	ABSORBANCE
550	0.00028
562	0.00015
574	8.5e-05
586	0.0001
598	4.5e-05
610	0.000115
622	0.000165
634	0.0001
646	0.00015
658	0.000155
670	0.000115
682	0.00015
694	0.00018
706	0.00016
718	0.000185
730	0.000145
742	0.000165
754	0.000275
766	0.000245
778	0.0003
790	0.000325
802	0.000305
814	0.00034
826	0.00053
838	0.00042
850	0.00036
862	0.000375
874	0.000445
886	0.000405
898	0.00044
910	0.000405
922	0.00029
934	0.000435
946	0.00056
958	0.000475
970	0.00039
982	0.00034
994	0.00025
1006	0.000295
1018	0.00038
1030	0.000365
1042	0.00036
1054	0.000305
1066	0.000195
1078	0.000185
1090	0.000275
1102	0.000315
1114	0.00042
1126	0.000295
1138	0.00022
1150	0.00023
1162	0.000235
1174	0.00026
1186	0.000195
1198	0.000165
1210	0.000205
1222	0.00031
1234	0.000415
1246	0.0005
1258	0.000635
1270	0.00076
1282	0.00066
1294	0.000485
1306	0.00046
1318	0.00045
1330	0.00062
1342	0.00108
1354	0.001415
1366	0.00143
1378	0.00197
1390	0.00163
1402	0.000695
1414	0.000525
1426	0.0008
1438	0.00221
1450	0.00452
1462	0.004825
1474	0.0028
1486	0.001085
1498	0.000455
1510	0.000255
1522	0.00021
1534	0.00019
1546	0.00017
1558	0.00013
1570	0.00013
1582	0.00016
1594	0.000155
1606	0.00014
1618	0.00012
1630	0.00012
1642	0.000135
1654	8.5e-05
1666	0.00011
1678	0.00011
1690	8.5e-05
1702	8.5e-05
1714	6.5e-05
1726	9e-05
1738	7e-05
1750	5e-05
1762	7.5e-05
1774	7.5e-05
1786	7.5e-05
1798	5.5e-05
1810	5.5e-05
1822	5.5e-05
1834	2e-05
1846	3.5e-05
1858	6e-05
1870	3.5e-05
1882	4.5e-05
1894	4.5e-05
1906	4e-05
1918	1.5e-05
1930	2.5e-05
1942	1e-05
1954	2e-05
1966	1e-05
1978	5e-06
1990	2e-05
2002	3e-05
2014	2e-05
2026	1e-05
2038	2e-05
2050	2e-05
2062	0
2074	0
2086	1.5e-05
2098	5e-06
2110	3e-05
2122	3e-05
2134	4.5e-05
2146	4e-05
2158	1e-05
2170	2.5e-05
2182	4.5e-05
2194	3.5e-05
2206	4e-05
2218	2.5e-05
2230	4.5e-05
2242	3e-05
2254	1.5e-05
2266	3e-05
2278	3.5e-05
2290	4e-05
2302	3e-05
2314	3e-05
2326	3e-05
2338	4.5e-05
2350	6.5e-05
2362	7e-05
2374	6.5e-05
2386	8.5e-05
2398	0.000115
2410	0.00013
2422	0.00015
2434	0.000145
2446	0.000105
2458	7.5e-05
2470	9.5e-05
2482	0.0001
2494	0.00012
2506	0.000105
2518	0.000105
2530	0.00013
2542	0.00013
2554	0.00018
2566	0.000205
2578	0.00027
2590	0.0003
2602	0.000345
2614	0.000435
2626	0.000425
2638	0.000495
2650	0.000505
2662	0.00057
2674	0.00054
2686	0.00054
2698	0.00055
2710	0.000595
2722	0.000655
2734	0.00073
2746	0.000715
2758	0.000705
2770	0.000805
2782	0.001075
2794	0.001355
2806	0.001625
2818	0.002105
2830	0.00375
2842	0.009045
2854	0.01626
2866	0.01835
2878	0.01698
2890	0.017225
2902	0.021635
2914	0.03564
2926	0.05
2938	0.03762
2950	0.02455
2962	0.02332
2974	0.01523
2986	0.00567
2998	0.002295
3010	0.001455
3022	0.001105
3034	0.001005
3046	0.000965
3058	0.0009
3070	0.000795
3082	0.000785
3094	0.00068
3106	0.0006
3118	0.00047
3130	0.00046
3142	0.00043
3154	0.00043
3166	0.00042
3178	0.00039
3190	0.00033
3202	0.00026
3214	0.00017
3226	0.000165
3238	0.00014
3250	0.000125
3262	0.000125
3274	0.00016
3286	9.5e-05
3298	0.000105
3310	0.000125
3322	0.000145
3334	0.000135
3346	0.000165
3358	0.000125
3370	0.0001
3382	0.000125
3394	9e-05
3406	6.5e-05
3418	8e-05
3430	9.5e-05
3442	8.5e-05
3454	5e-05
3466	0.00011
3478	9.5e-05
3490	6.5e-05
3502	4.5e-05
3514	1.5e-05
3526	5.5e-05
3538	8e-05
3550	5e-05
3562	1.5e-05
3574	3.5e-05
3586	3.5e-05
3598	6e-05
3610	5.5e-05
3622	6.5e-05
3634	6.5e-05
3646	7.5e-05
3658	7.5e-05
3670	9.5e-05
3682	0.000125
3694	0.00012
3706	0.00013
3718	0.00014
3730	7.5e-05
3742	8.5e-05
3754	0.000145
3766	0.000145
3778	0.000135
3790	0.000135
3802	0.00012
3814	0.000105
3826	0.00017
3838	0.000185
