Infrared Spectrum: Silane, p-tolyl-trimethyl-,
Formula: C10 H16 Si
CAS: 3728-43-6
State: SOLUTION (10% CCl4 FOR 3800-1300, 2% CS2 FOR 1300-650, AND 10% CCl4 FOR 650-250)
Melting point: -38 C
Boiling point: 192 C
Class: COBLENTZ III
Instrument: PERKIN-ELMER 521 (GRATING)
Instrument parameters: FILTERS AT 3150, 2500, 2000, 1150, 700, 410. GRATING CHANGES: 2000, 630
Path length: 0.011 CM, 0.011 CM, AND 0.011 CM
Resolution: 2
Origin: DOW CORNING CORP.
1/CM	TRANSMITTANCE
250	0.7431
259	0.746
268	0.7473
277	0.7446
286	0.7633
295	0.832
304	0.8378
313	0.836
322	0.8315
331	0.8311
340	0.8264
349	0.625
358	0.4257
367	0.8437
376	0.8795
385	0.8899
394	0.8945
403	0.8927
412	0.8898
421	0.886
430	0.8839
439	0.8834
448	0.8985
457	0.8991
466	0.8946
475	0.8785
484	0.8338
493	0.399
502	0.4972
511	0.8699
520	0.8924
529	0.8989
538	0.8986
547	0.8946
556	0.8892
565	0.8926
574	0.8933
583	0.8886
592	0.8857
601	0.8853
610	0.8795
619	0.8839
628	0.8963
637	0.7722
646	0.2734
655	0.8869
664	0.9023
673	0.9079
682	0.8931
691	0.8008
700	0.8711
709	0.856
718	0.9064
727	0.9054
736	0.8791
745	0.813
754	0.4341
763	0.7881
772	0.8733
781	0.8758
790	0.8206
799	0.4599
808	0.8337
817	0.8129
826	0.7098
835	0.269
844	0.2853
853	0.2861
862	0.632
871	0.7982
880	0.87
889	0.9007
898	0.9185
907	0.9281
916	0.9351
925	0.938
934	0.9382
943	0.9391
952	0.9397
961	0.9393
970	0.9368
979	0.9304
988	0.9369
997	0.9343
1006	0.9275
1015	0.9151
1024	0.901
1033	0.8834
1042	0.8832
1051	0.8808
1060	0.8774
1069	0.8751
1078	0.8743
1087	0.8727
1096	0.8378
1105	0.3545
1114	0.8845
1123	0.9222
1132	0.9386
1141	0.9425
1150	0.9452
1159	0.9432
1168	0.9383
1177	0.9278
1186	0.8654
1195	0.9238
1204	0.9199
1213	0.9138
1222	0.9017
1231	0.8601
1240	0.5026
1249	0.7361
1258	0.7734
1267	0.8931
1276	0.9007
1285	0.9209
1294	0.87
1303	0.7153
1312	0.7822
1321	0.8069
1330	0.7227
1339	0.7979
1348	0.8095
1357	0.8033
1366	0.7704
1375	0.7024
1384	0.6107
1393	0.5294
1402	0.5083
1411	0.6088
1420	0.6561
1429	0.6321
1438	0.5472
1447	0.552
1456	0.6179
1465	0.7353
1474	0.7837
1483	0.7953
1492	0.7619
1501	0.7737
1510	0.8307
1519	0.851
1528	0.8537
1537	0.8697
1546	0.8812
1555	0.8809
1564	0.8759
1573	0.8668
1582	0.8359
1591	0.7436
1600	0.4243
1609	0.7775
1618	0.8488
1627	0.8548
1636	0.8162
1645	0.8519
1654	0.8806
1663	0.888
1672	0.889
1681	0.8904
1690	0.8914
1699	0.8975
1708	0.9008
1717	0.8989
1726	0.894
1735	0.8882
1744	0.8897
1753	0.8953
1762	0.8963
1771	0.8964
1780	0.8939
1789	0.888
1798	0.8487
1807	0.8766
1816	0.899
1825	0.8954
1834	0.8882
1843	0.895
1852	0.8994
1861	0.8983
1870	0.8906
1879	0.8744
1888	0.8546
1897	0.8179
1906	0.7926
1915	0.8841
1924	0.8768
1933	0.8716
1942	0.8892
1951	0.8956
1960	0.8974
1969	0.9002
1978	0.9016
1987	0.9016
1996	0.8993
2005	0.9253
2014	0.9307
2023	0.9333
2032	0.9341
2041	0.9339
2050	0.9338
2059	0.9335
2068	0.931
2077	0.9279
2086	0.923
2095	0.9198
2104	0.9225
2113	0.9317
2122	0.9322
2131	0.9328
2140	0.9332
2149	0.9329
2158	0.9327
2167	0.9324
2176	0.9322
2185	0.9318
2194	0.9313
2203	0.9303
2212	0.9292
2221	0.9293
2230	0.9305
2239	0.9309
2248	0.9314
2257	0.9325
2266	0.9337
2275	0.9327
2284	0.9322
2293	0.9317
2302	0.9307
2311	0.93
2320	0.9338
2329	0.9359
2338	0.9371
2347	0.9372
2356	0.9367
2365	0.9356
2374	0.9345
2383	0.9335
2392	0.9327
2401	0.9319
2410	0.931
2419	0.9306
2428	0.9306
2437	0.9305
2446	0.9305
2455	0.9296
2464	0.9286
2473	0.9273
2482	0.9237
2491	0.9255
2500	0.9282
2509	0.9284
2518	0.9287
2527	0.9313
2536	0.9339
2545	0.9334
2554	0.9322
2563	0.9308
2572	0.9294
2581	0.9279
2590	0.9285
2599	0.9296
2608	0.9285
2617	0.9272
2626	0.9269
2635	0.9265
2644	0.9266
2653	0.9266
2662	0.9267
2671	0.9267
2680	0.9257
2689	0.921
2698	0.9171
2707	0.9161
2716	0.9141
2725	0.8949
2734	0.8926
2743	0.9109
2752	0.908
2761	0.9025
2770	0.8932
2779	0.879
2788	0.8584
2797	0.8478
2806	0.8431
2815	0.8376
2824	0.834
2833	0.8257
2842	0.8052
2851	0.7801
2860	0.7254
2869	0.619
2878	0.6494
2887	0.6315
2896	0.5216
2905	0.4818
2914	0.5391
2923	0.4417
2932	0.4428
2941	0.4873
2950	0.3318
2959	0.1596
2968	0.0874
2977	0.2865
2986	0.4857
2995	0.5858
3004	0.5995
3013	0.4706
3022	0.4035
3031	0.5219
3040	0.4426
3049	0.5388
3058	0.6629
3067	0.5747
3076	0.5143
3085	0.7113
3094	0.8401
3103	0.8505
3112	0.8384
3121	0.8487
3130	0.895
3139	0.8982
3148	0.9071
3157	0.9141
3166	0.9174
3175	0.9191
3184	0.9216
3193	0.927
3202	0.9338
3211	0.9372
3220	0.9402
3229	0.9418
3238	0.9427
3247	0.9428
3256	0.9426
3265	0.9419
3274	0.9413
3283	0.9406
3292	0.9399
3301	0.9392
3310	0.9385
3319	0.9377
3328	0.9373
3337	0.9368
3346	0.9364
3355	0.9359
3364	0.9356
3373	0.9355
3382	0.9354
3391	0.9353
3400	0.9353
3409	0.9352
3418	0.9352
3427	0.9355
3436	0.9358
3445	0.936
3454	0.9363
3463	0.9366
3472	0.9369
3481	0.9372
3490	0.9375
3499	0.9377
3508	0.9379
3517	0.9381
3526	0.9383
3535	0.9382
3544	0.9375
3553	0.9368
3562	0.9361
3571	0.9353
3580	0.9337
3589	0.932
3598	0.9302
3607	0.9284
3616	0.9267
3625	0.9245
3634	0.922
3643	0.9193
3652	0.9138
3661	0.9065
3670	0.9127
3679	0.9228
3688	0.9298
3697	0.9283
3706	0.9242
3715	0.9204
3724	0.917
3733	0.9136
3742	0.9105
3751	0.911
3760	0.9167
3769	0.9232
3778	0.9268
3787	0.9291
3796	0.9261
3805	0.92
3814	0.9197
