Infrared Spectrum: 1,8-Diaminooctane
Formula: C 8 H 20 N 2
CAS: 373-44-4
State: gas
Origin: EPA-IR VAPOR PHASE LIBRARY
1/CM	ABSORBANCE
501.5	0.00841
513.074	0.00825
524.648	0.00833
536.222	0.00833
547.796	0.00849
559.37	0.00874
570.944	0.00928
582.518	0.00988
594.092	0.01042
605.666	0.01118
617.24	0.01215
628.814	0.01324
640.388	0.01476
651.962	0.01633
663.536	0.01802
675.11	0.01999
686.684	0.02274
698.258	0.02698
709.832	0.03406
721.406	0.04441
732.98	0.05775
744.554	0.07379
756.128	0.08915
767.702	0.09773
779.276	0.09331
790.85	0.0699
802.423	0.04696
813.997	0.03435
825.571	0.0273
837.145	0.02302
848.719	0.02009
860.293	0.01767
871.867	0.01579
883.441	0.01453
895.015	0.01354
906.589	0.01265
918.163	0.01192
929.737	0.01134
941.311	0.01061
952.885	0.01006
964.459	0.00983
976.033	0.00937
987.607	0.00953
999.181	0.01004
1010.76	0.01137
1022.33	0.0133
1033.9	0.01609
1045.48	0.01904
1057.05	0.02347
1068.63	0.03029
1080.2	0.02881
1091.77	0.02105
1103.35	0.0136
1114.92	0.0092
1126.49	0.00695
1138.07	0.00581
1149.64	0.00505
1161.22	0.00458
1172.79	0.00439
1184.36	0.00449
1195.94	0.00458
1207.51	0.00467
1219.09	0.00485
1230.66	0.00505
1242.23	0.00538
1253.81	0.00576
1265.38	0.00622
1276.96	0.00682
1288.53	0.00794
1300.1	0.00922
1311.68	0.00959
1323.25	0.00957
1334.83	0.01125
1346.4	0.01553
1357.97	0.01888
1369.55	0.01968
1381.12	0.02019
1392.7	0.0173
1404.27	0.01101
1415.84	0.00851
1427.42	0.00963
1438.99	0.01482
1450.57	0.02148
1462.14	0.02416
1473.71	0.01967
1485.29	0.01168
1496.86	0.00724
1508.44	0.00568
1520.01	0.00512
1531.58	0.00497
1543.16	0.00513
1554.73	0.00563
1566.31	0.00655
1577.88	0.00822
1589.45	0.0111
1601.03	0.01644
1612.6	0.02523
1624.18	0.02993
1635.75	0.02103
1647.32	0.01221
1658.9	0.00756
1670.47	0.00524
1682.05	0.00394
1693.62	0.0032
1705.19	0.00274
1716.77	0.00254
1728.34	0.00244
1739.92	0.00233
1751.49	0.00225
1763.06	0.00222
1774.64	0.0022
1786.21	0.0022
1797.79	0.00222
1809.36	0.00221
1820.93	0.0022
1832.51	0.00209
1844.08	0.00196
1855.66	0.00168
1867.23	0.00138
1878.8	0.00111
1890.38	0.0008962
1901.95	0.0007444
1913.53	0.0006427
1925.1	0.0005825
1936.67	0.0004977
1948.25	0.0004656
1959.82	0.0004551
1971.4	0.0004486
1982.97	0.0004272
1994.54	0.0004512
2006.12	0.0005092
2017.69	0.0006423
2029.27	0.0006992
2040.84	0.0007442
2052.41	0.0006796
2063.99	0.0006494
2075.56	0.0006347
2087.14	0.0005782
2098.71	0.000558
2110.28	0.0005575
2121.86	0.000563
2133.43	0.0005517
2145.01	0.0005218
2156.58	0.0005269
2168.15	0.0004935
2179.73	0.0004722
2191.3	0.0004772
2202.88	0.0004432
2214.45	0.0004325
2226.02	0.0004464
2237.6	0.0004508
2249.17	0.0004782
2260.74	0.0005322
2272.32	0.000542
2283.89	0.0005472
2295.47	0.0005387
2307.04	0.0005205
2318.61	0.0005052
2330.19	0.0005243
2341.76	0.0004943
2353.34	0.0005098
2364.91	0.0005522
2376.48	0.0005405
2388.06	0.000498
2399.63	0.0005033
2411.21	0.0005266
2422.78	0.0005486
2434.35	0.0005901
2445.93	0.0005802
2457.5	0.000626
2469.08	0.000652
2480.65	0.0007011
2492.22	0.0007517
2503.8	0.0008503
2515.37	0.0009748
2526.95	0.00114
2538.52	0.00129
2550.09	0.00148
2561.67	0.0016
2573.24	0.00179
2584.82	0.00206
2596.39	0.00232
2607.96	0.00266
2619.54	0.00302
2631.11	0.00351
2642.69	0.00405
2654.26	0.00471
2665.83	0.00541
2677.41	0.00619
2688.98	0.00678
2700.56	0.00706
2712.13	0.00735
2723.7	0.00808
2735.28	0.0091
2746.85	0.01005
2758.43	0.01068
2770	0.01107
2781.57	0.01203
2793.15	0.01438
2804.72	0.01864
2816.3	0.02607
2827.87	0.03918
2839.44	0.06483
2851.02	0.11437
2862.59	0.15486
2874.17	0.13023
2885.74	0.09934
2897.31	0.10624
2908.89	0.1584
2920.46	0.26299
2932.04	0.35122
2943.61	0.26859
2955.18	0.13538
2966.76	0.0632
2978.33	0.03317
2989.91	0.01991
3001.48	0.01313
3013.05	0.00921
3024.63	0.00676
3036.2	0.00519
3047.78	0.00403
3059.35	0.00323
3070.92	0.00268
3082.5	0.00219
3094.07	0.00184
3105.65	0.00158
3117.22	0.0014
3128.79	0.00133
3140.37	0.00127
3151.94	0.00119
3163.52	0.0011
3175.09	0.00107
3186.66	0.0009812
3198.24	0.0009452
3209.81	0.0008461
3221.39	0.0008075
3232.96	0.0007432
3244.53	0.0006443
3256.11	0.0005991
3267.68	0.0005247
3279.26	0.000498
3290.83	0.0005678
3302.4	0.0006558
3313.98	0.0008504
3325.55	0.00133
3337.13	0.00242
3348.7	0.0031
3360.27	0.002
3371.85	0.0013
3383.42	0.00101
3395	0.0009552
3406.57	0.00113
3418.14	0.00112
3429.72	0.0008253
3441.29	0.0006006
3452.86	0.0004351
3464.44	0.000343
3476.01	0.0003317
3487.59	0.0003086
3499.16	0.0002831
3510.73	0.0001824
3522.31	0.000222
3533.88	0.0002214
3545.46	0.0002443
3557.03	0.0002483
3568.6	0.0002435
3580.18	0.0003216
3591.75	0.0003493
3603.33	0.0004283
3614.9	0.0005049
3626.47	0.0005054
3638.05	0.0005682
3649.62	0.0005969
3661.2	0.0005375
3672.77	0.0005432
3684.34	0.0005039
3695.92	0.0005405
3707.49	0.0003751
3719.07	0.0004754
3730.64	0.0004842
3742.21	0.0004576
3753.79	0.0005031
3765.36	0.000452
3776.94	0.0004883
3788.51	0.0004979
3800.08	0.000508
3811.66	0.0005431
3823.23	0.0005046
3834.81	0.0005266
3846.38	0.0005063
3857.95	0.0005469
3869.53	0.0005994
3881.1	0.0006038
3892.68	0.0006022
3904.25	0.0006156
3915.82	0.0006999
3927.4	0.00065
3938.97	0.0007265
3950.55	0.0007546
3962.12	0.0007557
3973.69	0.0007854
3985.27	0.0007932
3996.84	0.0007922
