Infrared Spectrum: ETHYLAMINE, 2,2,2-TRIFLUORO-,HYDROCHLORIDE
Formula: C2 H5 Cl F3 N
CAS: 373-88-6
State: SOLID (SPLIT MULL)
Class: COBLENTZ III
Instrument: BECKMAN IR-9 (GRATING)
Instrument parameters: ORDER CHANGES: 670, 1200, 2000 CM^-^1
Sampling: TRANSMISSION
Resolution: 2
Origin: DOW CHEMICAL COMPANY
1/CM	TRANSMITTANCE
3802	0.8349
3793	0.8373
3784	0.8399
3775	0.8406
3766	0.8413
3757	0.842
3748	0.8424
3739	0.8425
3730	0.8427
3721	0.8428
3712	0.8428
3703	0.8427
3694	0.8427
3685	0.8425
3676	0.8424
3667	0.8421
3658	0.8418
3649	0.8418
3640	0.8418
3631	0.842
3622	0.8418
3613	0.8416
3604	0.8414
3595	0.8385
3586	0.8368
3577	0.8405
3568	0.8401
3559	0.8394
3550	0.8384
3541	0.8373
3532	0.8362
3523	0.8351
3514	0.834
3505	0.8333
3496	0.8327
3487	0.8321
3478	0.8314
3469	0.8307
3460	0.83
3451	0.8293
3442	0.8286
3433	0.8281
3424	0.8278
3415	0.8274
3406	0.8271
3397	0.8268
3388	0.8267
3379	0.8267
3370	0.8267
3361	0.8261
3352	0.8253
3343	0.824
3334	0.8224
3325	0.8198
3316	0.8172
3307	0.8139
3298	0.8096
3289	0.8046
3280	0.7968
3271	0.7851
3262	0.7715
3253	0.756
3244	0.7342
3235	0.7044
3226	0.6643
3217	0.6283
3208	0.5787
3199	0.5359
3190	0.511
3181	0.5051
3172	0.4944
3163	0.4817
3154	0.4586
3145	0.423
3136	0.3616
3127	0.3399
3118	0.3264
3109	0.3145
3100	0.2998
3091	0.2825
3082	0.2662
3073	0.2528
3064	0.2347
3055	0.2111
3046	0.1835
3037	0.1569
3028	0.1403
3019	0.1528
3010	0.1625
3001	0.1527
2992	0.1135
2983	0.1106
2974	0.1051
2965	0.0936
2956	0.0804
2947	0.0761
2938	0.0761
2929	0.0758
2920	0.0725
2911	0.0621
2902	0.0524
2893	0.0518
2884	0.0524
2875	0.0544
2866	0.059
2857	0.0644
2848	0.0724
2839	0.0836
2830	0.0979
2821	0.1111
2812	0.1148
2803	0.1165
2794	0.1196
2785	0.1322
2776	0.1538
2767	0.182
2758	0.2159
2749	0.2342
2740	0.2449
2731	0.2565
2722	0.2833
2713	0.3258
2704	0.3675
2695	0.3834
2686	0.3812
2677	0.3784
2668	0.3714
2659	0.3532
2650	0.3151
2641	0.3161
2632	0.3868
2623	0.4089
2614	0.4053
2605	0.394
2596	0.3855
2587	0.3808
2578	0.3838
2569	0.4232
2560	0.5231
2551	0.5696
2542	0.5895
2533	0.6076
2524	0.6366
2515	0.6499
2506	0.6422
2497	0.6123
2488	0.5776
2479	0.5936
2470	0.6543
2461	0.6949
2452	0.7118
2443	0.7101
2434	0.693
2425	0.6683
2416	0.6468
2407	0.679
2398	0.7247
2389	0.7551
2380	0.7755
2371	0.7806
2362	0.7811
2353	0.7822
2344	0.7895
2335	0.7921
2326	0.7925
2317	0.7934
2308	0.7944
2299	0.7951
2290	0.7955
2281	0.7958
2272	0.7971
2263	0.805
2254	0.8098
2245	0.8117
2236	0.8155
2227	0.8216
2218	0.8281
2209	0.8343
2200	0.839
2191	0.8375
2182	0.835
2173	0.8336
2164	0.837
2155	0.8427
2146	0.8458
2137	0.8475
2128	0.848
2119	0.8474
2110	0.8467
2101	0.8458
2092	0.845
2083	0.8438
2074	0.8425
2065	0.8366
2056	0.8261
2047	0.8147
2038	0.8035
2029	0.7928
2020	0.7818
2011	0.7694
2002	0.7633
1993	0.7758
1984	0.7846
1975	0.7867
1966	0.7722
1957	0.7422
1948	0.7301
1939	0.7525
1930	0.771
1921	0.7918
1912	0.801
1903	0.8193
1894	0.8271
1885	0.8253
1876	0.8265
1867	0.8384
1858	0.8425
1849	0.8432
1840	0.8458
1831	0.8488
1822	0.8516
1813	0.8544
1804	0.8565
1795	0.8583
1786	0.8599
1777	0.8613
1768	0.8625
1759	0.8635
1750	0.8643
1741	0.8652
1732	0.8659
1723	0.8633
1714	0.8571
1705	0.8518
1696	0.8503
1687	0.8498
1678	0.85
1669	0.8434
1660	0.8373
1651	0.8307
1642	0.8162
1633	0.8
1624	0.7708
1615	0.7211
1606	0.4916
1597	0.18
1588	0.158
1579	0.4236
1570	0.6003
1561	0.633
1552	0.6162
1543	0.358
1534	0.2992
1525	0.4507
1516	0.5556
1507	0.7022
1498	0.763
1489	0.7717
1480	0.7618
1471	0.6381
1462	0.653
1453	0.7358
1444	0.7105
1435	0.6275
1426	0.3886
1417	0.4009
1408	0.6908
1399	0.7592
1390	0.7778
1381	0.7756
1372	0.7574
1363	0.7331
1354	0.7151
1345	0.6925
1336	0.6704
1327	0.6214
1318	0.6895
1309	0.6801
1300	0.6588
1291	0.5941
1282	0.4821
1273	0.2689
1264	0.1182
1255	0.3636
1246	0.4043
1237	0.2563
1228	0.1083
1219	0.0303
1210	0.0248
1201	0.034
1192	0.1022
1183	0.3829
1174	0.5728
1165	0.6501
1156	0.6975
1147	0.735
1138	0.7421
1129	0.7384
1120	0.7212
1111	0.6742
1102	0.5346
1093	0.2025
1084	0.1745
1075	0.382
1066	0.1601
1057	0.0341
1048	0.1883
1039	0.5297
1030	0.4002
1021	0.2289
1012	0.5128
1003	0.6948
994	0.7461
985	0.7797
976	0.7974
967	0.8115
958	0.8234
949	0.829
940	0.8328
931	0.8359
922	0.8378
913	0.8358
904	0.8252
895	0.6908
886	0.7974
877	0.8521
868	0.8561
859	0.8555
850	0.8588
841	0.8612
832	0.8594
823	0.8287
814	0.819
805	0.8671
796	0.8654
787	0.864
778	0.8624
769	0.861
760	0.857
751	0.8421
742	0.8262
733	0.7985
724	0.7767
715	0.824
706	0.8578
697	0.8575
688	0.8587
679	0.8617
670	0.8813
661	0.8683
652	0.8082
643	0.4099
634	0.8657
625	0.8889
616	0.8924
607	0.8917
598	0.8897
589	0.8857
580	0.8797
571	0.8712
562	0.8366
553	0.4195
544	0.8383
535	0.8673
526	0.858
517	0.8468
508	0.8362
499	0.8268
490	0.8111
481	0.7947
472	0.7784
463	0.7621
454	0.7358
445	0.693
436	0.6132
427	0.3793
418	0.5475
409	0.5931
