Infrared Spectrum: 2,5-Dimethyl-2-hexanol
Formula: C 8 H 18 O
CAS: 3730-60-7
State: gas
Instrument: HP-GC/MS/IRD
Origin: NIST Mass Spectrometry Data Center
1/CM	ABSORBANCE
550	0.0005177
562	0.0002883
574	0.0001116
586	0.000124
598	0.0001767
610	3.41e-05
622	0.0001147
634	7.13e-05
646	0.0001023
658	2.79e-05
670	1.24e-05
682	4.96e-05
694	8.37e-05
706	3.41e-05
718	7.44e-05
730	0.0001054
742	0.0002976
754	0.0004929
766	0.0004526
778	0.0002604
790	0.0001426
802	0.000124
814	0.0001395
826	0.0002697
838	0.0002697
850	0.000341
862	0.0003255
874	0.0005208
886	0.0011315
898	0.0027063
910	0.0039773
922	0.0031682
934	0.0019809
946	0.0012958
958	0.0011067
970	0.001085
982	0.0009238
994	0.0005952
1006	0.0004619
1018	0.0004495
1030	0.0004991
1042	0.0006665
1054	0.0009765
1066	0.0015562
1078	0.0023963
1090	0.0029419
1102	0.0031868
1114	0.0030814
1126	0.0032054
1138	0.003782
1150	0.0043028
1162	0.0047864
1174	0.0047244
1186	0.003813
1198	0.0030163
1210	0.0029884
1222	0.0033852
1234	0.0033387
1246	0.0029109
1258	0.0025885
1270	0.0025513
1282	0.0023343
1294	0.0022568
1306	0.0023653
1318	0.0027466
1330	0.0031496
1342	0.0028954
1354	0.0032147
1366	0.0054529
1378	0.0069719
1390	0.0052452
1402	0.0022227
1414	0.0011687
1426	0.0010726
1438	0.0014012
1450	0.0023312
1462	0.003596
1474	0.0035309
1486	0.0018662
1498	0.0008339
1510	0.0004867
1522	0.0003224
1534	0.000217
1546	0.0001891
1558	0.0001798
1570	0.0001178
1582	8.99e-05
1594	0.0001209
1606	9.61e-05
1618	8.37e-05
1630	0.000124
1642	0.0001209
1654	0.0001178
1666	0.0001364
1678	0.0001302
1690	9.92e-05
1702	9.61e-05
1714	8.99e-05
1726	8.06e-05
1738	6.51e-05
1750	7.13e-05
1762	4.03e-05
1774	6.82e-05
1786	5.89e-05
1798	6.82e-05
1810	6.82e-05
1822	5.89e-05
1834	4.65e-05
1846	4.34e-05
1858	6.51e-05
1870	5.27e-05
1882	4.34e-05
1894	4.96e-05
1906	3.1e-05
1918	5.27e-05
1930	1.24e-05
1942	0
1954	9.3e-06
1966	1.86e-05
1978	3.72e-05
1990	9.3e-06
2002	2.79e-05
2014	3.1e-05
2026	3.1e-05
2038	1.55e-05
2050	4.34e-05
2062	3.1e-05
2074	3.1e-05
2086	2.79e-05
2098	3.1e-05
2110	4.34e-05
2122	4.96e-05
2134	2.48e-05
2146	3.41e-05
2158	1.86e-05
2170	1.86e-05
2182	2.48e-05
2194	2.17e-05
2206	2.48e-05
2218	9.3e-06
2230	1.24e-05
2242	1.55e-05
2254	1.55e-05
2266	2.79e-05
2278	5.27e-05
2290	7.13e-05
2302	5.58e-05
2314	4.65e-05
2326	5.89e-05
2338	2.17e-05
2350	4.03e-05
2362	4.96e-05
2374	6.82e-05
2386	4.65e-05
2398	3.41e-05
2410	4.34e-05
2422	4.65e-05
2434	4.03e-05
2446	4.65e-05
2458	5.89e-05
2470	5.58e-05
2482	4.96e-05
2494	5.27e-05
2506	2.79e-05
2518	4.65e-05
2530	5.27e-05
2542	6.51e-05
2554	8.06e-05
2566	8.99e-05
2578	0.0001178
2590	0.0001054
2602	0.0001426
2614	0.0001612
2626	0.0001984
2638	0.0002201
2650	0.000186
2662	0.0001953
2674	0.0002077
2686	0.0001891
2698	0.0002201
2710	0.0002976
2722	0.0004092
2734	0.0004619
2746	0.000434
2758	0.0004154
2770	0.0004464
2782	0.0005146
2794	0.0006541
2806	0.000868
2818	0.0011594
2830	0.0015717
2842	0.0024118
2854	0.0039556
2866	0.0066433
2878	0.009548
2890	0.0099107
2902	0.0100657
2914	0.0124186
2926	0.0166966
2938	0.0198462
2950	0.0209498
2962	0.02945
2974	0.0280643
2986	0.0143065
2998	0.0051119
3010	0.0020026
3022	0.0011377
3034	0.0008339
3046	0.0007006
3058	0.0005735
3070	0.0005549
3082	0.0005456
3094	0.000527
3106	0.0004619
3118	0.0003875
3130	0.0003224
3142	0.0003131
3154	0.0003255
3166	0.000341
3178	0.0003844
3190	0.0003565
3202	0.0002883
3214	0.0002356
3226	0.0001705
3238	9.92e-05
3250	8.68e-05
3262	7.13e-05
3274	4.96e-05
3286	3.72e-05
3298	4.96e-05
3310	3.41e-05
3322	4.96e-05
3334	7.75e-05
3346	6.82e-05
3358	0.0001085
3370	8.99e-05
3382	0.0001178
3394	7.44e-05
3406	0.0001178
3418	8.37e-05
3430	9.61e-05
3442	0.000124
3454	8.68e-05
3466	6.2e-05
3478	6.2e-05
3490	5.27e-05
3502	3.1e-06
3514	2.79e-05
3526	2.79e-05
3538	3.1e-05
3550	6.2e-06
3562	1.55e-05
3574	3.41e-05
3586	6.2e-06
3598	9.3e-05
3610	0.0001488
3622	0.0004526
3634	0.0012152
3646	0.0012834
3658	0.0006138
3670	0.0002108
3682	0.000124
3694	6.82e-05
3706	4.96e-05
3718	5.89e-05
3730	3.1e-05
3742	3.1e-05
3754	5.27e-05
3766	3.1e-05
3778	1.86e-05
3790	5.89e-05
3802	0.0001085
3814	0.0001054
3826	0.0001333
3838	0.0001302
