Infrared Spectrum: 3-Carbethoxy-2-piperidone
Formula: C 8 H 13 N O 3
CAS: 3731-16-6
State: gas
Instrument: HP-GC/MS/IRD
Origin: NIST Mass Spectrometry Data Center
1/CM	ABSORBANCE
550	0.0020174
562	0.0009471
574	0.0007777
586	0.0008932
598	0.001925
610	0.0033803
622	0.0046431
634	0.0047047
646	0.0042889
658	0.0037191
670	0.0040579
682	0.001232
694	0.0006314
706	0.0003619
718	0.0002618
730	0.0001001
742	0.0002541
754	0.0003234
766	0.0003003
778	0.0001925
790	0.0001001
802	0.0002156
814	0.000231
826	9.24e-05
838	0.0002772
850	0.00077
862	0.0011473
874	0.0009779
886	0.0012936
898	0.0007777
910	0.0005852
922	0.0012089
934	0.0014938
946	0.0019481
958	0.0021175
970	0.0018403
982	0.0020405
994	0.0021637
1006	0.0027643
1018	0.0056826
1030	0.0108185
1042	0.0115885
1054	0.0087857
1066	0.0081466
1078	0.0071379
1090	0.0088473
1102	0.0108185
1114	0.0085701
1126	0.0074921
1138	0.0110572
1150	0.0235774
1162	0.0365673
1174	0.0287826
1186	0.0223993
1198	0.0236698
1210	0.0168168
1222	0.0124971
1234	0.0143528
1246	0.0175945
1258	0.0173096
1270	0.0136367
1282	0.014168
1294	0.018634
1306	0.0225456
1318	0.018711
1330	0.0122045
1342	0.010857
1354	0.0121891
1366	0.0102718
1378	0.0094171
1390	0.0059367
1402	0.0044506
1414	0.0043043
1426	0.0054901
1438	0.0083622
1450	0.009779
1462	0.0091014
1474	0.0071379
1486	0.0055902
1498	0.0033726
1510	0.0010472
1522	0.0004697
1534	0.000308
1546	0.0001617
1558	0
1570	0.0002618
1582	0.0004081
1594	0.0005082
1606	0.0006468
1618	0.0008316
1630	0.0011781
1642	0.0016555
1654	0.0026103
1666	0.0052206
1678	0.0098868
1690	0.0202125
1702	0.0485562
1714	0.077
1726	0.0554246
1738	0.032879
1750	0.0355432
1762	0.0331177
1774	0.0149457
1786	0.0061138
1798	0.003696
1810	0.0023639
1822	0.0015169
1834	0.0010318
1846	0.0006545
1858	0.0004543
1870	0.0002926
1882	0.000308
1894	0.0002541
1906	0.0002233
1918	0.0001848
1930	0.000154
1942	7.7e-05
1954	6.93e-05
1966	4.62e-05
1978	4.62e-05
1990	0
2002	3.08e-05
2014	6.16e-05
2026	0.0001001
2038	6.93e-05
2050	7.7e-05
2062	0.0001001
2074	0.0001617
2086	0.0002772
2098	0.0003388
2110	0.0007161
2122	0.0020713
2134	0.0043736
2146	0.0043043
2158	0.0013244
2170	0.0002541
2182	0.0001155
2194	0.0001078
2206	9.24e-05
2218	0.0001386
2230	0.0001309
2242	0.0001155
2254	0.0002002
2266	0.0003773
2278	0.0007777
2290	0.0016709
2302	0.0032879
2314	0.0052899
2326	0.0065527
2338	0.0060368
2350	0.0049819
2362	0.0085162
2374	0.0062447
2386	0.0015169
2398	0.0002387
2410	0.0001771
2422	0.0001848
2434	0.0001463
2446	0.0001617
2458	0.0001463
2470	0.0001386
2482	0.000154
2494	0.0001155
2506	0.0001463
2518	0.0001617
2530	0.0001848
2542	0.0001694
2554	0.0001309
2566	0.0001463
2578	0.0001309
2590	0.0001001
2602	0.0001617
2614	0.0001848
2626	0.0001694
2638	0.0002233
2650	0.0002002
2662	0.0002618
2674	0.0002541
2686	0.0003003
2698	0.0003234
2710	0.0003234
2722	0.0003773
2734	0.0004466
2746	0.0005082
2758	0.000616
2770	0.0007931
2782	0.0010318
2794	0.0013552
2806	0.0016016
2818	0.0018095
2830	0.0020944
2842	0.0027951
2854	0.004774
2866	0.0086702
2878	0.0104566
2890	0.0092092
2902	0.0080234
2914	0.008393
2926	0.0112959
2938	0.016863
2950	0.0207669
2962	0.0206283
2974	0.0156695
2986	0.014014
2998	0.0088319
3010	0.0050666
3022	0.0028413
3034	0.0016555
3046	0.0010934
3058	0.0008085
3070	0.0006699
3082	0.0005929
3094	0.0004851
3106	0.0004081
3118	0.0004389
3130	0.0004466
3142	0.0004312
3154	0.0004004
3166	0.0004466
3178	0.0003465
3190	0.0002387
3202	0.0002772
3214	0.0002464
3226	0.0002156
3238	0.0001463
3250	0.0002156
3262	0.0001386
3274	0.0001771
3286	0.0001771
3298	0.0001078
3310	0.0001386
3322	0.0001463
3334	0.0002079
3346	0.0002233
3358	0.0002849
3370	0.0004004
3382	0.0004697
3394	0.0007546
3406	0.0013475
3418	0.0027566
3430	0.0053438
3442	0.0049126
3454	0.0023562
3466	0.0012551
3478	0.00077
3490	0.0007238
3502	0.0005005
3514	0.0005005
3526	0.0003465
3538	0.0002387
3550	0.0002618
3562	0.0003003
3574	0.0003542
3586	0.0002387
3598	0.0003388
3610	0.0002156
3622	0.000308
3634	0.0003696
3646	0.0003696
3658	0.0004081
3670	0.0003773
3682	0.0004928
3694	0.0004928
3706	0.0004081
3718	0.0002695
3730	0.0003542
3742	0.0002618
3754	0.0002079
3766	0.0002387
3778	0.0003388
3790	0.0003003
3802	0.0002233
3814	0.0002387
3826	0.000308
3838	0.0002233
