Infrared Spectrum: 4-Aminomethylpyridine
Formula: C 6 H 8 N 2
CAS: 3731-53-1
State: gas
Instrument: HP-GC/MS/IRD
Origin: NIST Mass Spectrometry Data Center
1/CM	ABSORBANCE
550	0.0011916
562	0.0013518
574	0.0017748
586	0.0019359
598	0.0014661
610	0.001206
622	0.0009846
634	0.0009081
646	0.0009171
658	0.0010665
670	0.00144
682	0.0016074
694	0.0022293
706	0.0030978
718	0.0044055
730	0.0058545
742	0.0068814
754	0.0073386
766	0.0074898
778	0.0073908
790	0.0067941
802	0.0057699
814	0.004626
826	0.0035343
838	0.0027306
850	0.0020898
862	0.0016371
874	0.0011304
886	0.0008082
898	0.0005508
910	0.000396
922	0.000234
934	0.0003132
946	0.0002646
958	0.0003483
970	0.0004167
982	0.0011016
994	0.0012762
1006	0.0007182
1018	0.0004104
1030	0.0007488
1042	0.0009738
1054	0.000909
1066	0.0008109
1078	0.0006093
1090	0.0003276
1102	0.0002457
1114	0.0001008
1126	3.51e-05
1138	1.62e-05
1150	1.44e-05
1162	5.67e-05
1174	0.0001368
1186	0.00027
1198	0.000693
1210	0.0015093
1222	0.0015795
1234	0.0007344
1246	0.0001413
1258	0.0001341
1270	0.0002304
1282	0.0001881
1294	0.0002331
1306	0.0003609
1318	0.0006174
1330	0.0008748
1342	0.0011259
1354	0.0012051
1366	0.0014985
1378	0.0020313
1390	0.0027333
1402	0.0038457
1414	0.0037152
1426	0.0029331
1438	0.0012762
1450	0.000828
1462	0.0008073
1474	0.0006552
1486	0.0004878
1498	0.0004842
1510	0.0003501
1522	0.0004383
1534	0.0007731
1546	0.0015714
1558	0.002601
1570	0.0036495
1582	0.0054459
1594	0.0087498
1606	0.0081009
1618	0.0046989
1630	0.0030195
1642	0.0020277
1654	0.0012951
1666	0.0008613
1678	0.0005364
1690	0.000378
1702	0.0003474
1714	0.000315
1726	0.0003285
1738	0.0003258
1750	0.0002826
1762	0.0002538
1774	0.0002547
1786	0.000261
1798	0.0002619
1810	0.0002718
1822	0.0002988
1834	0.0003735
1846	0.0003276
1858	0.0002394
1870	0.0002061
1882	0.0002169
1894	0.0002565
1906	0.000369
1918	0.0005769
1930	0.0006471
1942	0.0005292
1954	0.0003375
1966	0.0002421
1978	0.0002232
1990	0.0002151
2002	0.0002421
2014	0.0002412
2026	0.0002223
2038	0.0002583
2050	0.0002592
2062	0.0002565
2074	0.0002529
2086	0.0002412
2098	0.0002502
2110	0.0002664
2122	0.0002655
2134	0.0002511
2146	0.0002835
2158	0.0002691
2170	0.0002853
2182	0.0002943
2194	0.0002745
2206	0.0002934
2218	0.0002763
2230	0.0002736
2242	0.0002601
2254	0.0002835
2266	0.0003096
2278	0.0003069
2290	0.0003285
2302	0.0003204
2314	0.0002916
2326	0.0002781
2338	0.0003141
2350	0.0002862
2362	0.0002916
2374	0.0002835
2386	0.0003015
2398	0.0002898
2410	0.0003177
2422	0.0003258
2434	0.0003114
2446	0.0003087
2458	0.000288
2470	0.0002655
2482	0.0002736
2494	0.0002448
2506	0.0002682
2518	0.0002637
2530	0.0002853
2542	0.0002898
2554	0.0002655
2566	0.0003042
2578	0.0002997
2590	0.0003042
2602	0.0003465
2614	0.0003312
2626	0.0003348
2638	0.0003627
2650	0.000396
2662	0.0004077
2674	0.0004032
2686	0.0004131
2698	0.0003942
2710	0.0004635
2722	0.0004941
2734	0.0005445
2746	0.0005661
2758	0.0006003
2770	0.0006354
2782	0.0006732
2794	0.0007524
2806	0.0009297
2818	0.0011556
2830	0.0015282
2842	0.002043
2854	0.0027432
2866	0.0031068
2878	0.0031167
2890	0.0030474
2902	0.0031347
2914	0.003024
2926	0.0028971
2938	0.0027162
2950	0.002628
2962	0.0025047
2974	0.0023859
2986	0.0023292
2998	0.0023355
3010	0.0028242
3022	0.0039492
3034	0.0044694
3046	0.0046287
3058	0.0050553
3070	0.0050832
3082	0.0041067
3094	0.0021672
3106	0.001044
3118	0.0005697
3130	0.0004356
3142	0.0004032
3154	0.0003582
3166	0.0003969
3178	0.0003564
3190	0.0003726
3202	0.0003744
3214	0.0003762
3226	0.0003456
3238	0.0003537
3250	0.0003816
3262	0.000369
3274	0.00036
3286	0.0003069
3298	0.0002916
3310	0.000351
3322	0.0003339
3334	0.0004041
3346	0.0003897
3358	0.0004995
3370	0.0004158
3382	0.0003546
3394	0.0003915
3406	0.0004014
3418	0.0004581
3430	0.0004374
3442	0.000387
3454	0.0003321
3466	0.0003294
3478	0.0003015
3490	0.0003501
3502	0.000306
3514	0.0003195
3526	0.0002673
3538	0.0003375
3550	0.0003186
3562	0.0002646
3574	0.0002484
3586	0.0002565
3598	0.0002835
3610	0.0003375
3622	0.0003564
3634	0.0003186
3646	0.000306
3658	0.0002664
3670	0.0003258
3682	0.0003096
3694	0.0003024
3706	0.0003321
3718	0.000225
3730	0.0003006
3742	0.0002808
3754	0.0002628
3766	0.0002304
3778	0.0002655
3790	0.0002367
3802	0.0003195
3814	0.0002799
3826	0.0002304
3838	0.0002322
