Infrared Spectrum: 3,4,4-Trimethyl-1-penten-3-ol
Formula: C 8 H 16 O
CAS: 3732-61-4
State: gas
Instrument: HP-GC/MS/IRD
Origin: NIST Mass Spectrometry Data Center
1/CM	ABSORBANCE
550	0.0006578
562	0.000403
574	0.0003484
586	0.000156
598	0.0001066
610	0.0001118
622	0.0002184
634	0.0002886
646	0.0004758
658	0.0003952
670	0.0002756
682	0.0004862
694	0.0010478
706	0.0010322
718	0.000494
730	0.0002366
742	0.0001326
754	8.84e-05
766	5.2e-06
778	5.46e-05
790	0.0002054
802	0.0003328
814	0.0002782
826	0.0002496
838	0.0002834
850	0.000351
862	0.000598
874	0.0011778
886	0.0019734
898	0.003133
910	0.0066378
922	0.0098462
934	0.0061646
946	0.0019864
958	0.0011128
970	0.0014508
982	0.0028756
994	0.0046956
1006	0.0043758
1018	0.0027222
1030	0.0020332
1042	0.0020748
1054	0.0028106
1066	0.0038168
1078	0.0045838
1090	0.0048646
1102	0.00546
1114	0.0061984
1126	0.0058578
1138	0.0047138
1150	0.0042276
1162	0.0045604
1174	0.0045032
1186	0.0034788
1198	0.0026728
1210	0.0026026
1222	0.0023452
1234	0.0020358
1246	0.0017628
1258	0.0017446
1270	0.0020046
1282	0.0024804
1294	0.0029328
1306	0.00286
1318	0.0024102
1330	0.0019084
1342	0.0017498
1354	0.0031434
1366	0.0065208
1378	0.0074074
1390	0.005109
1402	0.0043108
1414	0.003393
1426	0.0020592
1438	0.0015652
1450	0.0021138
1462	0.0029796
1474	0.0034242
1486	0.0027066
1498	0.0013988
1510	0.0005642
1522	0.0003172
1534	0.000221
1546	0.0002236
1558	0.000143
1570	0.0001456
1582	0.0001352
1594	0.0001664
1606	0.0002444
1618	0.0004472
1630	0.0006682
1642	0.0007254
1654	0.0003666
1666	0.0001248
1678	8.32e-05
1690	0.0001014
1702	8.06e-05
1714	7.28e-05
1726	6.5e-05
1738	2.34e-05
1750	0
1762	1.3e-05
1774	4.68e-05
1786	2.6e-05
1798	5.46e-05
1810	5.98e-05
1822	0.0001352
1834	0.0003536
1846	0.0005824
1858	0.0004862
1870	0.0002132
1882	7.54e-05
1894	4.16e-05
1906	5.2e-05
1918	5.2e-05
1930	4.16e-05
1942	3.64e-05
1954	2.86e-05
1966	2.34e-05
1978	3.9e-05
1990	5.46e-05
2002	5.72e-05
2014	2.08e-05
2026	6.24e-05
2038	3.38e-05
2050	1.82e-05
2062	3.38e-05
2074	3.9e-05
2086	2.34e-05
2098	2.86e-05
2110	2.86e-05
2122	1.3e-05
2134	1.04e-05
2146	0
2158	0
2170	3.38e-05
2182	4.42e-05
2194	1.04e-05
2206	2.86e-05
2218	7.8e-06
2230	0
2242	2.6e-05
2254	2.86e-05
2266	2.08e-05
2278	4.68e-05
2290	7.02e-05
2302	8.06e-05
2314	6.76e-05
2326	5.72e-05
2338	3.9e-05
2350	4.16e-05
2362	3.64e-05
2374	3.64e-05
2386	7.8e-05
2398	5.98e-05
2410	7.28e-05
2422	6.76e-05
2434	4.68e-05
2446	4.68e-05
2458	5.98e-05
2470	2.86e-05
2482	3.38e-05
2494	3.64e-05
2506	4.16e-05
2518	3.12e-05
2530	5.72e-05
2542	3.9e-05
2554	7.54e-05
2566	5.72e-05
2578	7.54e-05
2590	9.62e-05
2602	8.32e-05
2614	9.88e-05
2626	8.84e-05
2638	8.06e-05
2650	8.32e-05
2662	7.28e-05
2674	9.36e-05
2686	0.0001378
2698	0.0001716
2710	0.000195
2722	0.0002782
2734	0.000312
2746	0.0002834
2758	0.000286
2770	0.0002912
2782	0.0002912
2794	0.0003822
2806	0.0004446
2818	0.0006032
2830	0.0007488
2842	0.001001
2854	0.0015002
2866	0.0031616
2878	0.0059462
2890	0.0072514
2902	0.0072332
2914	0.0079378
2926	0.00884
2938	0.0102024
2950	0.014196
2962	0.0213902
2974	0.026
2986	0.0207246
2998	0.0112138
3010	0.0050804
3022	0.0031382
3034	0.0022854
3046	0.0015132
3058	0.0013182
3070	0.0015444
3082	0.0023192
3094	0.0027742
3106	0.0015418
3118	0.000546
3130	0.0004004
3142	0.000351
3154	0.0003848
3166	0.0003692
3178	0.0004004
3190	0.0003952
3202	0.0003484
3214	0.0003172
3226	0.0003042
3238	0.0002392
3250	0.000182
3262	0.0001274
3274	0.0001144
3286	0.0001092
3298	8.84e-05
3310	0.0001196
3322	7.28e-05
3334	0.0001092
3346	6.5e-05
3358	0.0001248
3370	0.0001274
3382	0.0001456
3394	0.00013
3406	0.0001352
3418	7.02e-05
3430	6.5e-05
3442	7.02e-05
3454	4.42e-05
3466	8.84e-05
3478	5.2e-05
3490	6.5e-05
3502	7.02e-05
3514	1.3e-05
3526	1.04e-05
3538	2.34e-05
3550	3.9e-05
3562	8.06e-05
3574	7.8e-05
3586	0.000104
3598	0.000104
3610	0.0001846
3622	0.0005642
3634	0.001521
3646	0.0018694
3658	0.0010244
3670	0.0003458
3682	9.62e-05
3694	8.84e-05
3706	5.2e-05
3718	3.12e-05
3730	5.72e-05
3742	0
3754	1.82e-05
3766	7.8e-06
3778	1.3e-05
3790	3.12e-05
3802	7.8e-05
3814	2.6e-05
3826	7.02e-05
3838	7.28e-05
