Infrared Spectrum: trans-Nonachlor
Formula: C 10 H 5 Cl 9
CAS: 3734-49-4
State: gas
Instrument: HP-GC/MS/IRD
Origin: NIST Mass Spectrometry Data Center
1/CM	ABSORBANCE
550	0.0029592
562	0.0091296
574	0.005712
586	0.00096
598	0.0028152
610	0.0020856
622	0.0014424
634	0.0059352
646	0.0005352
658	0.0006672
670	0.0008808
682	0.0049056
694	0.0218592
706	0.0040416
718	0.0009696
730	0.0005304
742	0.0004776
754	0.0005088
766	0.0010368
778	0.0034824
790	0.0098472
802	0.011808
814	0.0136152
826	0.0177624
838	0.0065016
850	0.0177624
862	0.00492
874	0.003216
886	0.0061896
898	0.0054072
910	0.013248
922	0.0052584
934	0.0042
946	0.0020352
958	0.001128
970	0.0014784
982	0.0040296
994	0.0096168
1006	0.005964
1018	0.0056184
1030	0.0095688
1042	0.0152568
1054	0.0131472
1066	0.0177504
1078	0.0227688
1090	0.0105192
1102	0.0044976
1114	0.0024
1126	0.0009672
1138	0.0013824
1150	0.0036264
1162	0.004896
1174	0.0058392
1186	0.0045432
1198	0.00348
1210	0.0084744
1222	0.0091992
1234	0.0131616
1246	0.0110856
1258	0.0134616
1270	0.004632
1282	0.0050208
1294	0.0087744
1306	0.0080352
1318	0.0145632
1330	0.0099528
1342	0.0040344
1354	0.0018432
1366	0.0011736
1378	0.0007752
1390	0.000432
1402	0.0002688
1414	0.0001992
1426	0.0002256
1438	0.0001344
1450	7.2e-05
1462	6.48e-05
1474	3.6e-05
1486	6.48e-05
1498	4.56e-05
1510	2.4e-06
1522	3.6e-05
1534	0.0001008
1546	0.0001416
1558	0.0003792
1570	0.00108
1582	0.003132
1594	0.0127464
1606	0.0079968
1618	0.0010248
1630	0.0004392
1642	0.000324
1654	0.0002664
1666	0.0003048
1678	0.0002328
1690	0.0001752
1702	0.0001632
1714	0.0002136
1726	0.000192
1738	0.0002256
1750	0.000228
1762	0.0002928
1774	0.000324
1786	0.0002856
1798	0.0002832
1810	0.0002976
1822	0.0002784
1834	0.0003048
1846	0.0003
1858	0.0003168
1870	0.0003072
1882	0.000324
1894	0.0003144
1906	0.00036
1918	0.0003552
1930	0.0003528
1942	0.0003912
1954	0.0004272
1966	0.0004128
1978	0.0003912
1990	0.00042
2002	0.0004248
2014	0.0004344
2026	0.0004584
2038	0.0004704
2050	0.0004752
2062	0.0004824
2074	0.0004608
2086	0.000444
2098	0.0004512
2110	0.0004536
2122	0.0004368
2134	0.000444
2146	0.0004464
2158	0.0004872
2170	0.000468
2182	0.0004728
2194	0.000468
2206	0.0004608
2218	0.0004392
2230	0.0004056
2242	0.0004512
2254	0.0004272
2266	0.000456
2278	0.0004464
2290	0.0004368
2302	0.0004536
2314	0.000432
2326	0.000444
2338	0.0004656
2350	0.0004776
2362	0.0004704
2374	0.0004464
2386	0.0004752
2398	0.0005376
2410	0.0005496
2422	0.000576
2434	0.0006168
2446	0.0006624
2458	0.0006912
2470	0.0006576
2482	0.0007056
2494	0.0007032
2506	0.0007272
2518	0.0006936
2530	0.000624
2542	0.0005616
2554	0.000564
2566	0.0005304
2578	0.0005208
2590	0.0004824
2602	0.0004896
2614	0.0004968
2626	0.0005064
2638	0.0005064
2650	0.0004776
2662	0.0004992
2674	0.0004416
2686	0.0004224
2698	0.0004368
2710	0.0004632
2722	0.00048
2734	0.0004536
2746	0.0004416
2758	0.0004056
2770	0.0004464
2782	0.0004248
2794	0.00042
2806	0.000432
2818	0.0004392
2830	0.0004464
2842	0.000432
2854	0.00042
2866	0.0004536
2878	0.000528
2890	0.0005352
2902	0.00054
2914	0.0005424
2926	0.0005616
2938	0.0006528
2950	0.0015192
2962	0.0020784
2974	0.001872
2986	0.0012168
2998	0.0005256
3010	0.000444
3022	0.00048
3034	0.0005472
3046	0.0005472
3058	0.0005568
3070	0.0004584
3082	0.0004296
3094	0.0004344
3106	0.0004728
3118	0.00048
3130	0.0004968
3142	0.0004248
3154	0.0004896
3166	0.0004968
3178	0.0005472
3190	0.0004416
3202	0.0004848
3214	0.000468
3226	0.0004704
3238	0.00054
3250	0.0004392
3262	0.000492
3274	0.0004728
3286	0.0005328
3298	0.000504
3310	0.0004848
3322	0.0005256
3334	0.0004608
3346	0.0004896
3358	0.0004728
3370	0.0005064
3382	0.000468
3394	0.0004872
3406	0.00048
3418	0.0005256
3430	0.0004656
3442	0.0004632
3454	0.0004752
3466	0.0005064
3478	0.0004992
3490	0.0004488
3502	0.0004584
3514	0.0005064
3526	0.0004776
3538	0.0004824
3550	0.00048
3562	0.0004368
3574	0.0004824
3586	0.0004128
3598	0.000504
3610	0.0004968
3622	0.0004848
3634	0.0005136
3646	0.0005088
3658	0.0004896
3670	0.0004896
3682	0.0005448
3694	0.000492
3706	0.0004824
3718	0.0005064
3730	0.0005064
3742	0.000468
3754	0.000468
3766	0.000552
3778	0.0004944
3790	0.0005808
3802	0.0005592
3814	0.0005736
3826	0.0006024
3838	0.0005568
