Infrared Spectrum: Chlordene
Formula: C 10 H 6 Cl 6
CAS: 3734-48-3
State: gas
Instrument: HP-GC/MS/IRD
Origin: NIST Mass Spectrometry Data Center
1/CM	ABSORBANCE
550	0.0006307
562	0.0001224
574	4.25e-05
586	0.0001751
598	0.0001666
610	0.0003859
622	0.0006392
634	0.0004828
646	0.0007276
658	0.0027404
670	0.0136119
682	0.0115532
694	0.0032232
706	0.0062798
718	0.0052632
730	0.0095846
742	0.0102969
754	0.0052343
766	0.001496
778	0.000646
790	0.0008687
802	0.0019414
814	0.0026537
826	0.0035972
838	0.0019873
850	0.0006987
862	0.0007497
874	0.0011492
886	0.0030957
898	0.008721
910	0.0072369
922	0.0026418
934	0.0017051
946	0.0034935
958	0.0024701
970	0.0009299
982	0.0013345
994	0.0043945
1006	0.0045407
1018	0.0033779
1030	0.0063478
1042	0.0096611
1054	0.0074341
1066	0.0062475
1078	0.0058276
1090	0.0054417
1102	0.0055845
1114	0.0025942
1126	0.0009605
1138	0.0010795
1150	0.0036737
1162	0.0034578
1174	0.0023817
1186	0.0052598
1198	0.0023579
1210	0.0013685
1222	0.0016269
1234	0.0013481
1246	0.0031042
1258	0.0077333
1270	0.0018768
1282	0.0010897
1294	0.0013906
1306	0.0016881
1318	0.0006069
1330	0.0003604
1342	0.0006596
1354	0.0010727
1366	0.0002754
1378	0.0002516
1390	0.0002295
1402	0.0002618
1414	0.0003179
1426	0.0003264
1438	0.0004998
1450	0.001581
1462	0.0011339
1474	0.0003383
1486	0.0002108
1498	0.0001445
1510	0.0001122
1522	0.000119
1534	0.0001241
1546	0.0001428
1558	0.0002482
1570	0.0004794
1582	0.0010438
1594	0.0043486
1606	0.0081158
1618	0.0017374
1630	0.0004862
1642	0.0002737
1654	0.0001938
1666	0.0002312
1678	0.0003536
1690	0.0003332
1702	0.0002142
1714	0.0001309
1726	0.0001003
1738	0.0001326
1750	0.0001666
1762	0.0001734
1774	0.0001785
1786	0.0001394
1798	0.0001139
1810	0.0001309
1822	0.0001173
1834	7.31e-05
1846	9.69e-05
1858	0.0001122
1870	0.0001156
1882	8.84e-05
1894	0.0001173
1906	7.14e-05
1918	7.48e-05
1930	0.0001207
1942	0.0001547
1954	8.5e-05
1966	8.33e-05
1978	9.69e-05
1990	8.67e-05
2002	6.46e-05
2014	6.29e-05
2026	5.27e-05
2038	5.1e-05
2050	6.46e-05
2062	1.53e-05
2074	2.38e-05
2086	8.5e-05
2098	7.99e-05
2110	8.84e-05
2122	7.14e-05
2134	4.59e-05
2146	5.78e-05
2158	7.14e-05
2170	6.46e-05
2182	7.99e-05
2194	4.76e-05
2206	5.61e-05
2218	6.12e-05
2230	9.01e-05
2242	6.46e-05
2254	9.69e-05
2266	6.46e-05
2278	4.93e-05
2290	4.93e-05
2302	6.29e-05
2314	7.48e-05
2326	7.82e-05
2338	8.5e-05
2350	8.5e-05
2362	8.67e-05
2374	6.97e-05
2386	6.97e-05
2398	6.12e-05
2410	7.82e-05
2422	5.1e-05
2434	4.59e-05
2446	4.76e-05
2458	4.42e-05
2470	1.87e-05
2482	2.55e-05
2494	3.23e-05
2506	7.65e-05
2518	8.5e-05
2530	3.74e-05
2542	4.08e-05
2554	7.99e-05
2566	5.61e-05
2578	5.1e-05
2590	2.38e-05
2602	3.57e-05
2614	6.29e-05
2626	4.42e-05
2638	6.29e-05
2650	6.8e-06
2662	1.36e-05
2674	5.95e-05
2686	9.52e-05
2698	9.18e-05
2710	7.14e-05
2722	7.31e-05
2734	6.97e-05
2746	6.12e-05
2758	7.48e-05
2770	8.16e-05
2782	8.16e-05
2794	9.86e-05
2806	8.84e-05
2818	0.0001241
2830	0.0001428
2842	0.000204
2854	0.0004029
2866	0.0014671
2878	0.0018241
2890	0.00068
2902	0.0004182
2914	0.0006511
2926	0.0027676
2938	0.0049215
2950	0.0027251
2962	0.0007922
2974	0.0006205
2986	0.0021998
2998	0.0003332
3010	0.0001547
3022	0.0001513
3034	0.0001411
3046	0.0003026
3058	0.001547
3070	0.0034578
3082	0.0009435
3094	0.0001819
3106	0.0001496
3118	4.93e-05
3130	1.36e-05
3142	0.0001343
3154	0.0001071
3166	5.1e-05
3178	0.0001037
3190	0.0001496
3202	0.0001003
3214	0.000153
3226	0.0001343
3238	8.16e-05
3250	6.29e-05
3262	5.27e-05
3274	7.48e-05
3286	9.52e-05
3298	7.82e-05
3310	9.18e-05
3322	0.0001377
3334	0.0001649
3346	0.0001139
3358	0.0001156
3370	6.8e-05
3382	9.86e-05
3394	7.99e-05
3406	0.0001275
3418	0.0001207
3430	5.61e-05
3442	5.27e-05
3454	0.0001105
3466	0.0001819
3478	8.5e-05
3490	0.000153
3502	7.65e-05
3514	8.84e-05
3526	8.5e-05
3538	1.36e-05
3550	0.0001768
3562	0.0001241
3574	7.14e-05
3586	0.000102
3598	0.000136
3610	0.0001462
3622	0.0001479
3634	0.00017
3646	0.0001955
3658	5.61e-05
3670	0.0001258
3682	0.0001207
3694	9.18e-05
3706	0.0001224
3718	0.0001054
3730	0.0001904
3742	0.0001462
3754	0.00017
3766	0.0001071
3778	0.000204
3790	0.0001751
3802	0.0002159
3814	0.000187
3826	0.0002482
3838	0.0002159
