Infrared Spectrum: Phenothiazine, 10-[3-(dimethylamino)-2-methylpropyl]-2-ethyl-
Formula: C20 H27 Cl N2 S
CAS: 3737-33-5
State: SOLID (KBr DISC)
Class: COBLENTZ III
Instrument: PERKIN-ELMER 21 (GRATING)
Instrument parameters: NaCl PRISM
Sampling: TRANSMISSION
Resolution: 2
Origin: SMITH, KLINE & FRENCH LABS.
1/CM	TRANSMITTANCE
626	0.7863
635	0.7854
644	0.7795
653	0.7946
662	0.8037
671	0.8067
680	0.784
689	0.7378
698	0.7844
707	0.7124
716	0.7691
725	0.7109
734	0.4309
743	0.631
752	0.2109
761	0.5293
770	0.7646
779	0.7632
788	0.7736
797	0.7345
806	0.447
815	0.5593
824	0.7251
833	0.7647
842	0.749
851	0.7632
860	0.7471
869	0.7645
878	0.7414
887	0.6761
896	0.6721
905	0.631
914	0.7444
923	0.7226
932	0.5879
941	0.7461
950	0.6925
959	0.7196
968	0.6575
977	0.436
986	0.496
995	0.6739
1004	0.626
1013	0.7323
1022	0.7303
1031	0.6493
1040	0.6776
1049	0.6246
1058	0.7122
1067	0.694
1076	0.6423
1085	0.6633
1094	0.6137
1103	0.5487
1112	0.6602
1121	0.5891
1130	0.4803
1139	0.6271
1148	0.6366
1157	0.4982
1166	0.5296
1175	0.6147
1184	0.405
1193	0.5613
1202	0.6754
1211	0.6516
1220	0.5507
1229	0.3296
1238	0.5785
1247	0.5779
1256	0.4774
1265	0.3104
1274	0.515
1283	0.4033
1292	0.5086
1301	0.4191
1310	0.5242
1319	0.5229
1328	0.45
1337	0.4086
1346	0.5003
1355	0.6418
1364	0.6144
1373	0.5469
1382	0.4428
1391	0.3961
1400	0.4469
1409	0.3087
1418	0.2082
1427	0.3107
1436	0.2411
1445	0.2113
1454	0.1065
1463	0.1288
1472	0.2368
1481	0.351
1490	0.4703
1499	0.6451
1508	0.7557
1517	0.7628
1526	0.7728
1535	0.7632
1544	0.7436
1553	0.69
1562	0.5059
1571	0.624
1580	0.5903
1589	0.4743
1598	0.626
1607	0.7459
1616	0.7585
1625	0.7552
1634	0.7592
1643	0.7656
1652	0.77
1661	0.772
1670	0.7711
1679	0.7679
1688	0.7633
1697	0.7607
1706	0.7587
1715	0.759
1724	0.7598
1733	0.7617
1742	0.7636
1751	0.7657
1760	0.7618
1769	0.7568
1778	0.7536
1787	0.7534
1796	0.7543
1805	0.7554
1814	0.7571
1823	0.7577
1832	0.7561
1841	0.7517
1850	0.7469
1859	0.7408
1868	0.7385
1877	0.7377
1886	0.742
1895	0.7369
1904	0.7346
1913	0.7331
1922	0.732
1931	0.7308
1940	0.7303
1949	0.7298
1958	0.7297
1967	0.7295
1976	0.7276
1985	0.7254
1994	0.7234
2003	0.7211
2012	0.7176
2021	0.7141
2030	0.7104
2039	0.7066
2048	0.703
2057	0.6995
2066	0.696
2075	0.6925
2084	0.6891
2093	0.6853
2102	0.6812
2111	0.6773
2120	0.6735
2129	0.6698
2138	0.6657
2147	0.6602
2156	0.6547
2165	0.6493
2174	0.6439
2183	0.6378
2192	0.6315
2201	0.6252
2210	0.6183
2219	0.611
2228	0.5969
2237	0.5816
2246	0.569
2255	0.5625
2264	0.558
2273	0.544
2282	0.5121
2291	0.4936
2300	0.4762
2309	0.4573
2318	0.4375
2327	0.4172
2336	0.3949
2345	0.382
2354	0.3702
2363	0.359
2372	0.3462
2381	0.3296
2390	0.3077
2399	0.2857
2408	0.265
2417	0.2518
2426	0.2413
2435	0.2318
2444	0.2224
2453	0.2161
2462	0.2153
2471	0.2226
2480	0.2533
2489	0.268
2498	0.269
2507	0.268
2516	0.2648
2525	0.2607
2534	0.2548
2543	0.2461
2552	0.2378
2561	0.231
2570	0.2263
2579	0.2251
2588	0.2262
2597	0.2293
2606	0.235
2615	0.242
2624	0.2507
2633	0.2783
2642	0.2956
2651	0.3259
2660	0.3586
2669	0.3894
2678	0.4029
2687	0.4101
2696	0.4149
2705	0.4293
2714	0.4602
2723	0.4836
2732	0.4877
2741	0.489
2750	0.4909
2759	0.4932
2768	0.496
2777	0.4944
2786	0.4872
2795	0.4752
2804	0.4636
2813	0.4523
2822	0.4336
2831	0.3902
2840	0.3721
2849	0.3583
2858	0.3509
2867	0.3477
2876	0.3458
2885	0.3415
2894	0.3304
2903	0.3101
2912	0.2886
2921	0.2812
2930	0.2818
2939	0.2832
2948	0.2862
2957	0.3095
2966	0.396
2975	0.4681
2984	0.4661
2993	0.4564
3002	0.4565
3011	0.4733
3020	0.4904
3029	0.5076
3038	0.5246
3047	0.5396
3056	0.5502
3065	0.5616
3074	0.5816
3083	0.5905
3092	0.5912
3101	0.5904
3110	0.5886
3119	0.5866
3128	0.5847
3137	0.583
3146	0.5813
3155	0.5808
3164	0.5812
3173	0.5818
3182	0.5803
3191	0.5764
3200	0.5727
3209	0.5697
3218	0.5669
3227	0.5641
3236	0.5619
3245	0.5597
3254	0.5572
3263	0.5543
3272	0.5514
3281	0.5492
3290	0.5475
3299	0.5456
3308	0.5414
3317	0.5369
3326	0.5313
3335	0.5255
3344	0.5191
3353	0.514
3362	0.5113
3371	0.5088
3380	0.5063
3389	0.5044
3398	0.5025
3407	0.5007
3416	0.4991
3425	0.4986
3434	0.4982
3443	0.4977
3452	0.4985
3461	0.5008
3470	0.5031
3479	0.5055
3488	0.5086
3497	0.512
3506	0.5154
3515	0.5188
3524	0.5216
3533	0.5239
3542	0.5262
3551	0.5284
3560	0.5307
3569	0.5328
3578	0.5349
3587	0.5369
3596	0.5389
3605	0.5407
3614	0.5413
3623	0.5417
3632	0.5422
3641	0.5425
3650	0.5419
3659	0.5412
3668	0.5406
3677	0.5399
3686	0.5391
3695	0.5385
3704	0.5378
3713	0.5371
3722	0.5364
3731	0.5358
3740	0.5349
3749	0.5334
3758	0.532
3767	0.5304
3776	0.5289
3785	0.5275
3794	0.5259
3803	0.5242
3812	0.5225
3821	0.5207
3830	0.519
3839	0.5173
3848	0.5156
3857	0.5139
3866	0.5119
3875	0.51
3884	0.5081
3893	0.5062
3902	0.5049
3911	0.5046
3920	0.5043
3929	0.504
3938	0.5037
3947	0.5038
3956	0.5042
3965	0.5044
3974	0.5047
3983	0.505
3992	0.5049
