Infrared Spectrum: 4-Chloro-2-methylphenyl isocyanate
Formula: C 8 H 6 Cl N O
CAS: 37408-18-7
State: gas
Origin: EPA-IR VAPOR PHASE LIBRARY
1/CM	ABSORBANCE
549.8	0.005192
559.445	0.004482
569.09	0.007502
578.734	0.011642
588.379	0.013902
598.024	0.010732
607.669	0.005702
617.313	0.003462
626.958	0.003592
636.603	0.003742
646.248	0.003842
655.893	0.003672
665.537	0.003312
675.182	0.002542
684.827	0.001852
694.472	0.001712
704.116	0.001762
713.761	0.001582
723.406	0.001682
733.051	0.002182
742.695	0.001952
752.34	0.0013336
761.985	0.0009034
771.63	0.0011772
781.275	0.0012216
790.919	0.002402
800.564	0.007502
810.209	0.015552
819.854	0.014022
829.498	0.006452
839.143	0.002412
848.788	0.001952
858.433	0.004132
868.078	0.009722
877.722	0.016252
887.367	0.010622
897.012	0.002402
906.657	0.001147
916.301	0.0008588
925.946	0.0006095
935.591	0.0005043
945.236	0.0008718
954.88	0.0006821
964.525	0.0006659
974.17	0.0013716
983.815	0.002162
993.46	0.003182
1003.1	0.002552
1012.75	0.0012972
1022.39	0.0012835
1032.04	0.0009832
1041.68	0.001382
1051.33	0.001522
1060.97	0.002942
1070.62	0.006632
1080.26	0.009082
1089.91	0.015872
1099.55	0.043492
1109.2	0.041612
1118.84	0.010162
1128.49	0.006502
1138.13	0.008022
1147.78	0.010052
1157.42	0.011662
1167.07	0.010272
1176.71	0.006252
1186.36	0.004512
1196	0.004672
1205.64	0.003512
1215.29	0.001842
1224.93	0.0012845
1234.58	0.001392
1244.22	0.001632
1253.87	0.002222
1263.51	0.003912
1273.16	0.003792
1282.8	0.001532
1292.45	0.0009681
1302.09	0.0009603
1311.74	0.0010196
1321.38	0.0009975
1331.03	0.0011248
1340.67	0.0010085
1350.32	0.0011764
1359.96	0.001442
1369.61	0.002192
1379.25	0.003442
1388.9	0.005692
1398.54	0.007082
1408.18	0.004452
1417.83	0.004782
1427.47	0.005162
1437.12	0.005532
1446.76	0.007652
1456.41	0.009272
1466.05	0.009652
1475.7	0.011662
1485.34	0.016752
1494.99	0.026162
1504.63	0.042202
1514.28	0.046852
1523.92	0.032172
1533.57	0.015722
1543.21	0.007262
1552.86	0.004402
1562.5	0.004052
1572.15	0.004732
1581.79	0.005062
1591.44	0.004252
1601.08	0.003772
1610.73	0.002782
1620.37	0.002262
1630.01	0.001942
1639.66	0.001542
1649.3	0.001013
1658.95	0.0008683
1668.59	0.00074
1678.24	0.0007443
1687.88	0.000758
1697.53	0.0006624
1707.17	0.0006611
1716.82	0.0008543
1726.46	0.001146
1736.11	0.001702
1745.75	0.001552
1755.4	0.0009724
1765.04	0.0005877
1774.69	0.0005016
1784.33	0.00045986
1793.98	0.0006383
1803.62	0.0007756
1813.27	0.0007281
1822.91	0.0006679
1832.55	0.0006511
1842.2	0.0006916
1851.84	0.0007999
1861.49	0.0012726
1871.13	0.001542
1880.78	0.001442
1890.42	0.0008721
1900.07	0.0007277
1909.71	0.0006502
1919.36	0.0006247
1929	0.0006974
1938.65	0.000634
1948.29	0.0006322
1957.94	0.000558
1967.58	0.0006137
1977.23	0.0006213
1986.87	0.0007866
1996.52	0.0006881
2006.16	0.0007274
2015.81	0.0007488
2025.45	0.0008338
2035.1	0.0008592
2044.74	0.0009634
2054.38	0.0012116
2064.03	0.001402
2073.67	0.001712
2083.32	0.002072
2092.96	0.002622
2102.61	0.003492
2112.25	0.004032
2121.9	0.004332
2131.54	0.004932
2141.19	0.006402
2150.83	0.009242
2160.48	0.014202
2170.12	0.020182
2179.77	0.022592
2189.41	0.022322
2199.06	0.025292
2208.7	0.033412
2218.35	0.045382
2227.99	0.062372
2237.64	0.087082
2247.28	0.114332
2256.92	0.155442
2266.57	0.244952
2276.21	0.405452
2285.86	0.469272
2295.5	0.284102
2305.15	0.126822
2314.79	0.074172
2324.44	0.049802
2334.08	0.036042
2343.73	0.031402
2353.37	0.033522
2363.02	0.035352
2372.66	0.028212
2382.31	0.018882
2391.95	0.011832
2401.6	0.007632
2411.24	0.005702
2420.89	0.004872
2430.53	0.004612
2440.18	0.004152
2449.82	0.003082
2459.47	0.002192
2469.11	0.001832
2478.75	0.001532
2488.4	0.0012857
2498.04	0.0011688
2507.69	0.0010882
2517.33	0.0009492
2526.98	0.0009201
2536.62	0.0008837
2546.27	0.0008188
2555.91	0.0007702
2565.56	0.0007742
2575.2	0.0009162
2584.85	0.001049
2594.49	0.0009988
2604.14	0.0010605
2613.78	0.0010895
2623.43	0.001331
2633.07	0.001592
2642.72	0.001482
2652.36	0.0010412
2662.01	0.0008067
2671.65	0.0007188
2681.29	0.0007092
2690.94	0.0007066
2700.58	0.0005478
2710.23	0.0006828
2719.87	0.0007156
2729.52	0.0006072
2739.16	0.000776
2748.81	0.0008181
2758.45	0.0006491
2768.1	0.0006702
2777.74	0.0005818
2787.39	0.000738
2797.03	0.0007624
2806.68	0.0008307
2816.32	0.0009758
2825.97	0.0011117
2835.61	0.0011435
2845.26	0.001318
2854.9	0.001652
2864.55	0.002132
2874.19	0.002572
2883.84	0.002762
2893.48	0.002772
2903.12	0.002962
2912.77	0.003522
2922.41	0.004862
2932.06	0.006752
2941.7	0.007042
2951.35	0.005452
2960.99	0.004622
2970.64	0.004432
2980.28	0.004412
2989.93	0.004752
2999.57	0.004272
3009.22	0.003892
3018.86	0.003502
3028.51	0.003142
3038.15	0.002702
3047.8	0.002652
3057.44	0.002982
3067.09	0.003032
3076.73	0.002572
3086.38	0.002092
3096.02	0.001742
3105.67	0.001254
3115.31	0.0011661
3124.95	0.0007382
3134.6	0.0007316
3144.24	0.0006397
3153.89	0.0007039
3163.53	0.0006777
3173.18	0.000742
3182.82	0.00044168
3192.47	0.0003414
3202.11	0.000376065
3211.76	0.000162
3221.4	0.000126
3231.05	0
3240.69	0.00037
3250.34	0.000221
3259.98	0.0003631
3269.63	0.0003052
3279.27	0.0004726
3288.92	0.0003352
3298.56	0.00045686
3308.21	0.0004822
3317.85	0.0005587
3327.49	0.0006973
3337.14	0.001044
3346.78	0.001432
3356.43	0.001872
3366.07	0.002132
3375.72	0.001742
3385.36	0.001712
3395.01	0.0013688
3404.65	0.001402
3414.3	0.001532
3423.94	0.001672
3433.59	0.001742
3443.23	0.001343
3452.88	0.0009744
3462.52	0.0010037
3472.17	0.0007974
3481.81	0.0008458
3491.46	0.0010178
3501.1	0.0007371
3510.75	0.0006564
3520.39	0.0005426
3530.04	0.0006492
3539.68	0.0005714
3549.32	0.00045925
3558.97	0.000713
3568.61	0.0005941
3578.26	0.0006415
3587.9	0.0006175
3597.55	0.000744
3607.19	0.0008839
3616.84	0.0010853
3626.48	0.0009903
3636.13	0.0012199
3645.77	0.0012219
3655.42	0.001602
3665.06	0.001602
3674.71	0.002012
3684.35	0.001942
3694	0.002012
3703.64	0.001972
3713.29	0.002052
3722.93	0.001962
3732.58	0.001722
3742.22	0.001522
3751.86	0.0013199
3761.51	0.0013336
3771.15	0.0011393
3780.8	0.0013662
3790.44	0.0013234
3800.09	0.0013392
3809.73	0.0012388
3819.38	0.0009703
3829.02	0.0008601
3838.67	0.0007764
3848.31	0.00045557
3857.96	0.000642
3867.6	0.00040863
3877.25	0.0006274
3886.89	0.0004414
3896.54	0.0004812
3906.18	0.0003247
3915.83	0.0005742
3925.47	0.0003022
3935.12	0.0003592
3944.76	0.00036703
3954.41	0.0003538
3964.05	0.00046811
3973.69	0.00039068
3983.34	0.000543
3992.98	0.000237
