Infrared Spectrum: 4-Acetylphenyl ether
Formula: C 16 H 14 O 3
CAS: 37407-21-9
State: gas
Origin: EPA-IR VAPOR PHASE LIBRARY
1/CM	ABSORBANCE
551.7	0.00332
563.274	0.00626
574.848	0.02251
586.421	0.01701
597.995	0.00637
609.569	0.00325
621.143	0.00221
632.717	0.00207
644.291	0.00167
655.864	0.00159
667.438	0.00157
679.012	0.0015
690.586	0.00169
702.16	0.00357
713.734	0.00189
725.307	0.00159
736.881	0.00149
748.455	0.00147
760.029	0.00156
771.603	0.00159
783.177	0.00171
794.75	0.0024
806.324	0.00438
817.898	0.00759
829.472	0.01354
841.046	0.01517
852.619	0.01429
864.193	0.0138
875.767	0.02155
887.341	0.00551
898.915	0.00327
910.489	0.00269
922.062	0.00287
933.636	0.00465
945.21	0.01436
956.784	0.01908
968.358	0.00759
979.932	0.00472
991.505	0.00443
1003.08	0.00683
1014.65	0.01072
1026.23	0.00369
1037.8	0.00306
1049.37	0.00303
1060.95	0.00386
1072.52	0.00571
1084.1	0.00393
1095.67	0.00421
1107.24	0.00631
1118.82	0.0055
1130.39	0.00509
1141.97	0.00616
1153.54	0.01375
1165.11	0.06543
1176.69	0.01982
1188.26	0.01065
1199.83	0.01519
1211.41	0.02617
1222.98	0.0542
1234.56	0.15485
1246.13	0.20583
1257.7	0.12034
1269.28	0.04894
1280.85	0.02691
1292.42	0.01902
1304	0.01605
1315.57	0.0099
1327.15	0.00764
1338.72	0.00887
1350.29	0.01857
1361.87	0.03675
1373.44	0.0153
1385.02	0.00863
1396.59	0.01042
1408.16	0.01693
1419.74	0.01303
1431.31	0.00932
1442.88	0.00782
1454.46	0.00652
1466.03	0.00661
1477.61	0.00959
1489.18	0.03046
1500.75	0.06213
1512.33	0.01777
1523.9	0.00829
1535.48	0.00728
1547.05	0.00807
1558.62	0.01061
1570.2	0.02434
1581.77	0.0669
1593.34	0.07156
1604.92	0.03109
1616.49	0.01411
1628.07	0.00729
1639.64	0.00582
1651.21	0.0065
1662.79	0.0087
1674.36	0.01206
1685.93	0.02415
1697.51	0.07482
1709.08	0.06885
1720.66	0.01877
1732.23	0.00926
1743.8	0.00609
1755.38	0.00471
1766.95	0.00352
1778.53	0.00297
1790.1	0.00239
1801.67	0.00199
1813.25	0.00182
1824.82	0.00179
1836.39	0.00181
1847.97	0.00174
1859.54	0.00181
1871.12	0.00208
1882.69	0.00254
1894.26	0.00258
1905.84	0.00265
1917.41	0.00245
1928.99	0.00236
1940.56	0.00219
1952.13	0.00209
1963.71	0.00202
1975.28	0.00159
1986.85	0.00147
1998.43	0.00149
2010	0.00164
2021.58	0.00222
2033.15	0.00275
2044.72	0.0021
2056.3	0.00166
2067.87	0.00172
2079.44	0.00162
2091.02	0.0014
2102.59	0.0013
2114.17	0.00115
2125.74	0.00103
2137.31	0.0009425
2148.89	0.0009077
2160.46	0.001
2172.04	0.00103
2183.61	0.0009543
2195.18	0.0009289
2206.76	0.001
2218.33	0.0009822
2229.9	0.0008848
2241.48	0.0008581
2253.05	0.0009172
2264.63	0.00102
2276.2	0.00108
2287.77	0.00113
2299.35	0.00117
2310.92	0.00125
2322.5	0.00124
2334.07	0.00123
2345.64	0.00108
2357.22	0.00117
2368.79	0.0014
2380.36	0.00149
2391.94	0.00162
2403.51	0.00192
2415.09	0.00174
2426.66	0.0018
2438.23	0.00205
2449.81	0.00187
2461.38	0.00159
2472.96	0.00152
2484.53	0.00148
2496.1	0.0014
2507.68	0.00148
2519.25	0.0015
2530.82	0.00142
2542.4	0.00149
2553.97	0.00158
2565.55	0.00168
2577.12	0.00178
2588.69	0.00165
2600.27	0.00138
2611.84	0.00116
2623.41	0.00105
2634.99	0.00101
2646.56	0.00109
2658.14	0.0011
2669.71	0.0009686
2681.28	0.0009837
2692.86	0.00103
2704.43	0.0011
2716.01	0.0009994
2727.58	0.0009402
2739.15	0.0009617
2750.73	0.00106
2762.3	0.00105
2773.87	0.0011
2785.45	0.00107
2797.02	0.00104
2808.6	0.00103
2820.17	0.00115
2831.74	0.00134
2843.32	0.00157
2854.89	0.00152
2866.47	0.00148
2878.04	0.0014
2889.61	0.00134
2901.19	0.00138
2912.76	0.00158
2924.33	0.00209
2935.91	0.00246
2947.48	0.00215
2959.06	0.00225
2970.63	0.00287
2982.2	0.00288
2993.78	0.00286
3005.35	0.00386
3016.92	0.0052
3028.5	0.00363
3040.07	0.00428
3051.65	0.00517
3063.22	0.00493
3074.79	0.00489
3086.37	0.00418
3097.94	0.004
3109.52	0.00311
3121.09	0.00207
3132.66	0.00156
3144.24	0.00135
3155.81	0.00136
3167.38	0.00128
3178.96	0.00124
3190.53	0.00115
3202.11	0.00114
3213.68	0.00106
3225.25	0.0009612
3236.83	0.0009247
3248.4	0.0009385
3259.98	0.0008392
3271.55	0.0009597
3283.12	0.0009553
3294.7	0.0009016
3306.27	0.0009461
3317.84	0.0009145
3329.42	0.0009358
3340.99	0.0009966
3352.57	0.00111
3364.14	0.00129
3375.71	0.00187
3387.29	0.00253
3398.86	0.00193
3410.43	0.00131
3422.01	0.00111
3433.58	0.00102
3445.16	0.0009215
3456.73	0.00103
3468.3	0.0009736
3479.88	0.00107
3491.45	0.0009717
3503.03	0.0009242
3514.6	0.0009697
3526.17	0.0009942
3537.75	0.00102
3549.32	0.00101
3560.89	0.00102
3572.47	0.0008986
3584.04	0.0009266
3595.62	0.0009188
3607.19	0.0009417
3618.76	0.0009393
3630.34	0.00101
3641.91	0.00102
3653.49	0.0009941
3665.06	0.00101
3676.63	0.00101
3688.21	0.00107
3699.78	0.00108
3711.35	0.0009931
3722.93	0.001
3734.5	0.0009244
3746.08	0.0009848
3757.65	0.0009453
3769.22	0.0009304
3780.8	0.00102
3792.37	0.0009726
3803.94	0.0009395
3815.52	0.0009402
3827.09	0.0009994
3838.67	0.000973
3850.24	0.0009978
3861.81	0.0009517
3873.39	0.00103
3884.96	0.0009789
3896.54	0.00101
3908.11	0.00109
3919.68	0.00108
3931.26	0.0011
3942.83	0.00112
3954.4	0.00102
3965.98	0.00111
3977.55	0.00104
3989.13	0.00106
4000.7	0.00101
