Infrared Spectrum: Vinylcyclopentane
Formula: C 7 H 12
CAS: 3742-34-5
State: gas
Instrument: HP-GC/MS/IRD
Origin: NIST Mass Spectrometry Data Center
1/CM	ABSORBANCE
550	0.000604
562	0
574	0.000124
586	0.000108
598	0.0003
610	0.000264
622	0.000432
634	0.00064
646	0.000972
658	0.001164
670	0.001116
682	0.000752
694	0.000468
706	0.00034
718	0.000244
730	0.000216
742	0.00022
754	0.000156
766	0.000232
778	0.000212
790	0.0003
802	0.000324
814	0.00042
826	0.000476
838	0.000628
850	0.000684
862	0.000952
874	0.001432
886	0.002808
898	0.005608
910	0.007588
922	0.006972
934	0.003804
946	0.002128
958	0.001728
970	0.001988
982	0.002876
994	0.003216
1006	0.002608
1018	0.001604
1030	0.001
1042	0.000676
1054	0.00062
1066	0.000524
1078	0.00046
1090	0.000484
1102	0.000448
1114	0.000452
1126	0.000444
1138	0.000324
1150	0.000244
1162	0.000268
1174	0.00024
1186	0.000292
1198	0.000244
1210	0.000256
1222	0.000252
1234	0.000256
1246	0.000272
1258	0.000352
1270	0.000472
1282	0.000628
1294	0.00072
1306	0.000656
1318	0.000592
1330	0.000488
1342	0.00046
1354	0.000408
1366	0.000316
1378	0.000356
1390	0.00046
1402	0.000736
1414	0.001188
1426	0.001348
1438	0.001476
1450	0.001808
1462	0.00182
1474	0.001444
1486	0.000992
1498	0.000604
1510	0.000336
1522	0.000224
1534	0.000164
1546	0.0002
1558	0.000236
1570	0.000336
1582	0.000328
1594	0.00036
1606	0.00062
1618	0.001452
1630	0.003012
1642	0.003384
1654	0.00202
1666	0.000572
1678	0.000232
1690	0.000156
1702	7.2e-05
1714	6.4e-05
1726	4.4e-05
1738	4.4e-05
1750	4.4e-05
1762	4.8e-05
1774	4.8e-05
1786	8.8e-05
1798	0.000152
1810	0.000472
1822	0.000812
1834	0.000756
1846	0.00028
1858	0.000116
1870	6e-05
1882	6.8e-05
1894	4.4e-05
1906	3.6e-05
1918	2e-05
1930	2.4e-05
1942	1.6e-05
1954	5.6e-05
1966	9.2e-05
1978	0.000112
1990	7.6e-05
2002	7.6e-05
2014	2e-05
2026	6e-05
2038	4.4e-05
2050	4.4e-05
2062	4e-05
2074	5.2e-05
2086	6.8e-05
2098	6.8e-05
2110	5.6e-05
2122	6e-05
2134	4e-05
2146	4.4e-05
2158	7.6e-05
2170	7.2e-05
2182	0.0001
2194	8.8e-05
2206	8e-05
2218	6e-05
2230	8e-05
2242	8e-05
2254	7.2e-05
2266	0.000116
2278	9.2e-05
2290	9.2e-05
2302	7.2e-05
2314	4e-05
2326	8e-06
2338	8e-06
2350	8e-06
2362	8e-06
2374	8e-06
2386	7.2e-05
2398	4e-05
2410	3.6e-05
2422	2.4e-05
2434	4.4e-05
2446	8e-06
2458	1.2e-05
2470	4e-05
2482	1.6e-05
2494	5.2e-05
2506	3.2e-05
2518	2e-05
2530	5.2e-05
2542	8.4e-05
2554	0.000108
2566	0.000108
2578	0.000116
2590	0.00016
2602	0.000168
2614	0.000136
2626	0.000116
2638	0.000104
2650	0.000116
2662	9.6e-05
2674	0.000124
2686	0.000124
2698	0.000156
2710	0.000184
2722	0.00024
2734	0.00026
2746	0.0003
2758	0.000312
2770	0.00038
2782	0.000484
2794	0.00058
2806	0.000816
2818	0.001152
2830	0.001808
2842	0.002972
2854	0.00552
2866	0.010448
2878	0.014028
2890	0.014112
2902	0.012456
2914	0.01384
2926	0.01746
2938	0.024236
2950	0.0332
2962	0.04
2974	0.028704
2986	0.017532
2998	0.009984
3010	0.006216
3022	0.003616
3034	0.002204
3046	0.001884
3058	0.002236
3070	0.003524
3082	0.004968
3094	0.004104
3106	0.001888
3118	0.000776
3130	0.000448
3142	0.000396
3154	0.000308
3166	0.000236
3178	0.000244
3190	0.00016
3202	0.000176
3214	0.000212
3226	0.00018
3238	0.000164
3250	0.000184
3262	0.000164
3274	0.000212
3286	0.000164
3298	0.000156
3310	0.00018
3322	8.8e-05
3334	0.000136
3346	0.000124
3358	9.6e-05
3370	0.0001
3382	8.8e-05
3394	0.000136
3406	0.00014
3418	0.000104
3430	0.00012
3442	0.000124
3454	0.000132
3466	0.000144
3478	8.8e-05
3490	0.000104
3502	0.000116
3514	0.000132
3526	0.000148
3538	0.000108
3550	0.0001
3562	5.6e-05
3574	7.6e-05
3586	6e-05
3598	6.4e-05
3610	7.6e-05
3622	4.4e-05
3634	6e-05
3646	5.6e-05
3658	8.4e-05
3670	6e-05
3682	4.4e-05
3694	0.000124
3706	0.000116
3718	0.000108
3730	0.0001
3742	8e-05
3754	9.6e-05
3766	0.000148
3778	0.000116
3790	0.00012
3802	9.6e-05
3814	0.000124
3826	0.000116
3838	0.000188
