Infrared Spectrum: 1,2,3-BENZOTRIAZINE-4(3H)-ONE, 6-CHLORO-
Formula: C7 H4 Cl N3 O
CAS: 37429-97-3
State: SOLID (1 mg / 500 mg KBr DISC)
Class: COBLENTZ III
Instrument: PERKIN-ELMER 621
Sampling: TRANSMISSION
Resolution: 4
Origin: SOUTHERN RESEARCH INSTITUTE
1/CM	TRANSMITTANCE
256.792	0.552
267.309	0.6149
277.826	0.6959
288.343	0.8949
298.86	0.905
309.378	0.908
319.895	0.907
330.412	0.905
340.929	0.887
351.446	0.781
361.963	0.922
372.48	0.955
382.997	0.954
393.515	0.95
404.032	0.951
414.549	0.942
425.066	0.924
435.583	0.939
446.1	0.938
456.617	0.934
467.134	0.926
477.651	0.924
488.169	0.913
498.686	0.899
509.203	0.8259
519.72	0.896
530.237	0.878
540.754	0.802
551.271	0.5371
561.788	0.726
572.306	0.793
582.823	0.916
593.34	0.925
603.857	0.903
614.374	0.818
624.891	0.853
635.408	0.7112
645.925	0.9079
656.442	0.912
666.96	0.904
677.477	0.9
687.994	0.894
698.511	0.887
709.028	0.891
719.545	0.871
730.062	0.854
740.579	0.879
751.097	0.869
761.614	0.853
772.131	0.828
782.648	0.776
793.165	0.83
803.682	0.803
814.199	0.775
824.716	0.738
835.234	0.657
845.751	0.52
856.268	0.6269
866.785	0.596
877.302	0.758
887.819	0.793
898.336	0.7501
908.853	0.758
919.37	0.711
929.888	0.755
940.405	0.5979
950.922	0.6479
961.439	0.89
971.956	0.867
982.473	0.836
992.99	0.845
1003.51	0.82
1014.02	0.79
1024.54	0.752
1035.06	0.78
1045.58	0.805
1056.09	0.78
1066.61	0.6411
1077.13	0.811
1087.64	0.807
1098.16	0.776
1108.68	0.704
1119.2	0.677
1129.71	0.695
1140.23	0.525
1150.75	0.614
1161.26	0.869
1171.78	0.837
1182.3	0.815
1192.82	0.784
1203.33	0.72
1213.85	0.698
1224.37	0.718
1234.88	0.598
1245.4	0.543
1255.92	0.6151
1266.44	0.86
1276.95	0.828
1287.47	0.796
1297.99	0.801
1308.5	0.78
1319.02	0.7221
1329.54	0.56
1340.06	0.792
1350.57	0.75
1361.09	0.677
1371.61	0.6779
1382.12	0.814
1392.64	0.783
1403.16	0.775
1413.68	0.756
1424.19	0.722
1434.71	0.667
1445.23	0.538
1455.74	0.598
1466.26	0.792
1476.78	0.772
1487.29	0.767
1497.81	0.756
1508.33	0.739
1518.85	0.713
1529.36	0.703
1539.88	0.681
1550.4	0.657
1560.91	0.563
1571.43	0.652
1581.95	0.631
1592.47	0.568
1602.98	0.59
1613.5	0.55
1624.02	0.499
1634.53	0.437
1645.05	0.359
1655.57	0.26
1666.09	0.252
1676.6	0.271
1687.12	0.267
1697.64	0.458
1708.15	0.657
1718.67	0.792
1729.19	0.83
1739.71	0.85
1750.22	0.839
1760.74	0.845
1771.26	0.86
1781.77	0.847
1792.29	0.857
1802.81	0.853
1813.33	0.85
1823.84	0.848
1834.36	0.848
1844.88	0.844
1855.39	0.84
1865.91	0.833
1876.43	0.83
1886.95	0.831
1897.46	0.83
1907.98	0.827
1918.5	0.818
1929.01	0.811
1939.53	0.802
1950.05	0.802
1960.57	0.803
1971.08	0.802
1981.6	0.8
1992.12	0.797
2002.63	0.794
2013.15	0.788
2023.67	0.786
2034.18	0.785
2044.7	0.784
2055.22	0.784
2065.74	0.779
2076.25	0.7761
2086.77	0.775
2097.29	0.773
2107.8	0.771
2118.32	0.769
2128.84	0.766
2139.36	0.766
2149.87	0.7621
2160.39	0.759
2170.91	0.7562
2181.42	0.754
2191.94	0.749
2202.46	0.746
2212.98	0.742
2223.49	0.741
2234.01	0.737
2244.53	0.7353
2255.04	0.7322
2265.56	0.7263
2276.08	0.726
2286.6	0.726
2297.11	0.728
2307.63	0.724
2318.15	0.717
2328.66	0.715
2339.18	0.7122
2349.7	0.711
2360.22	0.708
2370.73	0.705
2381.25	0.705
2391.77	0.7033
2402.28	0.703
2412.8	0.703
2423.32	0.7
2433.84	0.699
2444.35	0.6953
2454.87	0.6913
2465.39	0.6849
2475.9	0.683
2486.42	0.681
2496.94	0.6783
2507.46	0.678
2517.97	0.678
2528.49	0.677
2539.01	0.674
2549.52	0.67
2560.04	0.666
2570.56	0.6654
2581.08	0.66
2591.59	0.654
2602.11	0.65
2612.63	0.647
2623.14	0.645
2633.66	0.6394
2644.18	0.6364
2654.69	0.63
2665.21	0.626
2675.73	0.622
2686.25	0.618
2696.76	0.607
2707.28	0.6039
2717.8	0.5975
2728.31	0.5885
2738.83	0.583
2749.35	0.584
2759.87	0.5755
2770.38	0.565
2780.9	0.5625
2791.42	0.5545
2801.93	0.5465
2812.45	0.537
2822.97	0.542
2833.49	0.5416
2844	0.5312
2854.52	0.5107
2865.04	0.4951
2875.55	0.486
2886.07	0.4944
2896.59	0.5232
2907.11	0.5256
2917.62	0.509
2928.14	0.4956
2938.66	0.4841
2949.17	0.4606
2959.69	0.4574
2970.21	0.4798
2980.73	0.4966
2991.24	0.4763
3001.76	0.4556
3012.28	0.4473
3022.79	0.4586
3033.31	0.4805
3043.83	0.52
3054.35	0.516
3064.86	0.4922
3075.38	0.4557
3085.9	0.4497
3096.41	0.4789
3106.93	0.5123
3117.45	0.517
3127.97	0.515
3138.48	0.5152
3149	0.5274
3159.52	0.5806
3170.03	0.6142
3180.55	0.626
3191.07	0.6196
3201.59	0.5762
3212.1	0.5672
3222.62	0.5891
3233.14	0.6364
3243.65	0.6694
3254.17	0.6963
3264.69	0.704
3275.2	0.7038
3285.72	0.701
3296.24	0.6959
3306.76	0.6897
3317.27	0.6819
3327.79	0.675
3338.31	0.6688
3348.82	0.6569
3359.34	0.65
3369.86	0.6428
3380.38	0.632
3390.89	0.6258
3401.41	0.6189
3411.93	0.615
3422.44	0.6139
3432.96	0.613
3443.48	0.611
3454	0.611
3464.51	0.613
3475.03	0.614
3485.55	0.614
3496.06	0.614
3506.58	0.618
3517.1	0.619
3527.62	0.622
3538.13	0.626
3548.65	0.63
3559.17	0.633
3569.68	0.636
3580.2	0.639
3590.72	0.6409
3601.24	0.6449
3611.75	0.647
3622.27	0.647
3632.79	0.6471
3643.3	0.647
3653.82	0.645
3664.34	0.644
3674.86	0.644
3685.37	0.643
3695.89	0.641
3706.41	0.641
3716.92	0.641
3727.44	0.6391
3737.96	0.637
3748.48	0.636
3758.99	0.635
3769.51	0.633
3780.03	0.633
3790.54	0.632
3801.06	0.631
3811.58	0.63
3822.1	0.628
3832.61	0.628
3843.13	0.627
3853.65	0.626
3864.16	0.6232
3874.68	0.623
3885.2	0.6222
3895.71	0.622
3906.23	0.6227
3916.75	0.619
3927.27	0.618
3937.78	0.618
3948.3	0.618
3958.82	0.618
3969.33	0.618
3979.85	0.618
3990.37	0.6174
4000.89	0.615
