Infrared Spectrum: UREA, 1,1-BIS(2-HYDROXYETHYL)-3-METHYL-
Formula: C6 H14 N2 O3
CAS: 37437-17-5
State: SOLID (1 mg / 650 mg KBr DISC)
Class: COBLENTZ III
Instrument: PERKIN-ELMER 221 (GRATING)
Instrument parameters: FILTER AT 980 CM^-^1. GRATING 4000-1428 CM^-^1, NaCl PRISM 1428-650 CM^-^1
Sampling: TRANSMISSION
Resolution: 2
Origin: SOUTHERN RESEARCH INSTITUTE
1/CM	TRANSMITTANCE
620.787	0.681
629.253	0.684
637.718	0.689
646.184	0.693
654.649	0.695
663.115	0.7069
671.581	0.7187
680.046	0.7399
688.512	0.753
696.978	0.769
705.443	0.7768
713.909	0.786
722.374	0.791
730.84	0.7929
739.306	0.793
747.771	0.7824
756.237	0.7066
764.703	0.6664
773.168	0.7724
781.634	0.7833
790.099	0.7978
798.565	0.849
807.031	0.851
815.496	0.851
823.962	0.8528
832.428	0.8492
840.893	0.8217
849.359	0.7752
857.824	0.774
866.29	0.7904
874.756	0.8752
883.221	0.88
891.687	0.88
900.153	0.8649
908.618	0.8529
917.084	0.85
925.549	0.849
934.015	0.833
942.481	0.8297
950.946	0.8467
959.412	0.8494
967.878	0.8318
976.343	0.8002
984.809	0.7694
993.274	0.711
1001.74	0.6622
1010.21	0.6404
1018.67	0.5939
1027.14	0.55
1035.6	0.4279
1044.07	0.433
1052.53	0.434
1061	0.434
1069.47	0.4656
1077.93	0.5863
1086.4	0.6973
1094.86	0.767
1103.33	0.765
1111.79	0.755
1120.26	0.7286
1128.72	0.7011
1137.19	0.6383
1145.66	0.6267
1154.12	0.6643
1162.59	0.7234
1171.05	0.7284
1179.52	0.735
1187.98	0.739
1196.45	0.7366
1204.91	0.7217
1213.38	0.6911
1221.85	0.5815
1230.31	0.513
1238.78	0.5234
1247.24	0.559
1255.71	0.5497
1264.17	0.5247
1272.64	0.521
1281.11	0.5659
1289.57	0.5872
1298.04	0.619
1306.5	0.6601
1314.97	0.6753
1323.43	0.6667
1331.9	0.633
1340.36	0.583
1348.83	0.5473
1357.3	0.5432
1365.76	0.5532
1374.23	0.5506
1382.69	0.4754
1391.16	0.434
1399.62	0.4434
1408.09	0.4766
1416.56	0.5243
1425.02	0.5592
1433.49	0.562
1441.95	0.564
1450.42	0.564
1458.88	0.5566
1467.35	0.5489
1475.81	0.545
1484.28	0.556
1492.75	0.57
1501.21	0.5539
1509.68	0.5174
1518.14	0.4235
1526.61	0.3265
1535.07	0.2287
1543.54	0.193
1552.01	0.199
1560.47	0.2313
1568.94	0.299
1577.4	0.336
1585.87	0.323
1594.33	0.2692
1602.8	0.2291
1611.26	0.2022
1619.73	0.199
1628.2	0.2059
1636.66	0.2387
1645.13	0.3033
1653.59	0.4075
1662.06	0.5125
1670.52	0.6015
1678.99	0.6439
1687.46	0.6727
1695.92	0.6825
1704.39	0.696
1712.85	0.699
1721.32	0.7297
1729.78	0.7338
1738.25	0.743
1746.71	0.7458
1755.18	0.747
1763.65	0.759
1772.11	0.765
1780.58	0.7688
1789.04	0.772
1797.51	0.7768
1805.97	0.777
1814.44	0.777
1822.91	0.777
1831.37	0.78
1839.84	0.78
1848.3	0.7827
1856.77	0.783
1865.23	0.782
1873.7	0.782
1882.16	0.781
1890.63	0.7787
1899.1	0.778
1907.56	0.775
1916.03	0.775
1924.49	0.775
1932.96	0.774
1941.42	0.774
1949.89	0.774
1958.36	0.774
1966.82	0.772
1975.29	0.7714
1983.75	0.764
1992.22	0.763
2000.68	0.762
2009.15	0.76
2017.61	0.759
2026.08	0.758
2034.55	0.758
2043.01	0.757
2051.48	0.757
2059.94	0.756
2068.41	0.756
2076.87	0.754
2085.34	0.75
2093.81	0.751
2102.27	0.751
2110.74	0.75
2119.2	0.75
2127.67	0.75
2136.13	0.751
2144.6	0.751
2153.06	0.751
2161.53	0.751
2170	0.751
2178.46	0.751
2186.93	0.751
2195.39	0.752
2203.86	0.754
2212.32	0.754
2220.79	0.753
2229.26	0.752
2237.72	0.752
2246.19	0.751
2254.65	0.75
2263.12	0.7474
2271.58	0.747
2280.05	0.746
2288.51	0.743
2296.98	0.741
2305.45	0.739
2313.91	0.735
2322.38	0.7299
2330.84	0.728
2339.31	0.727
2347.77	0.727
2356.24	0.7276
2364.71	0.727
2373.17	0.728
2381.64	0.727
2390.1	0.7234
2398.57	0.7214
2407.03	0.719
2415.5	0.717
2423.96	0.714
2432.43	0.712
2440.9	0.7104
2449.36	0.708
2457.83	0.706
2466.29	0.705
2474.76	0.7
2483.22	0.6803
2491.69	0.7031
2500.16	0.701
2508.62	0.7
2517.09	0.699
2525.55	0.6969
2534.02	0.696
2542.48	0.6969
2550.95	0.6924
2559.41	0.6903
2567.88	0.689
2576.35	0.689
2584.81	0.6884
2593.28	0.687
2601.74	0.6859
2610.21	0.6824
2618.67	0.6774
2627.14	0.673
2635.61	0.67
2644.07	0.67
2652.54	0.667
2661	0.664
2669.47	0.663
2677.93	0.6584
2686.4	0.655
2694.86	0.654
2703.33	0.652
2711.8	0.647
2720.26	0.647
2728.73	0.643
2737.19	0.643
2745.66	0.6404
2754.12	0.636
2762.59	0.6314
2771.06	0.6254
2779.52	0.6174
2787.99	0.6079
2796.45	0.5909
2804.92	0.582
2813.38	0.5714
2821.85	0.5664
2830.31	0.5599
2838.78	0.5479
2847.25	0.5259
2855.71	0.4964
2864.18	0.4788
2872.64	0.4489
2881.11	0.435
2889.57	0.435
2898.04	0.435
2906.51	0.4264
2914.97	0.4164
2923.44	0.41
2931.9	0.409
2940.37	0.41
2948.83	0.413
2957.3	0.4156
2965.76	0.4398
2974.23	0.4726
2982.7	0.5008
2991.16	0.5294
2999.63	0.5457
3008.09	0.559
3016.56	0.562
3025.02	0.565
3033.49	0.565
3041.96	0.5614
3050.42	0.5554
3058.89	0.551
3067.35	0.5459
3075.82	0.5333
3084.28	0.5229
3092.75	0.5144
3101.21	0.5024
3109.68	0.4974
3118.15	0.4878
3126.61	0.4729
3135.08	0.4624
3143.54	0.4493
3152.01	0.4344
3160.47	0.4182
3168.94	0.4018
3177.41	0.3929
3185.87	0.3829
3194.34	0.3719
3202.8	0.3509
3211.27	0.3373
3219.73	0.3227
3228.2	0.3059
3236.66	0.2963
3245.13	0.2769
3253.6	0.2639
3262.06	0.25
3270.53	0.2414
3278.99	0.2259
3287.46	0.2184
3295.92	0.2124
3304.39	0.2044
3312.86	0.1874
3321.32	0.1814
3329.79	0.1704
3338.25	0.165
3346.72	0.1604
3355.18	0.158
3363.65	0.157
3372.11	0.157
3380.58	0.158
3389.05	0.159
3397.51	0.1621
3405.98	0.1696
3414.44	0.1801
3422.91	0.1891
3431.37	0.1996
3439.84	0.2091
3448.31	0.218
3456.77	0.229
3465.24	0.2449
3473.7	0.2696
3482.17	0.285
3490.63	0.2991
3499.1	0.3051
3507.56	0.3251
3516.03	0.341
3524.5	0.3501
3532.96	0.3684
3541.43	0.3777
3549.89	0.3904
3558.36	0.4132
3566.82	0.4276
3575.29	0.4446
3583.76	0.4636
3592.22	0.4698
3600.69	0.4987
3609.15	0.5147
3617.62	0.525
3626.08	0.5401
3634.55	0.548
3643.01	0.5616
3651.48	0.564
3659.95	0.579
3668.41	0.585
3676.88	0.582
3685.34	0.5922
3693.81	0.596
3702.27	0.5981
3710.74	0.599
3719.21	0.599
3727.67	0.5979
3736.14	0.597
3744.6	0.599
3753.07	0.601
3761.53	0.601
3770	0.601
3778.46	0.601
3786.93	0.601
3795.4	0.601
3803.86	0.601
