Infrared Spectrum: n-Dodecylthioglycolate
Formula: C 14 H 28 O 2 S
CAS: 3746-39-2
State: gas
Origin: EPA-IR VAPOR PHASE LIBRARY
1/CM	ABSORBANCE
501.5	0.0002216
513.074	9.397e-05
524.648	0.0002293
536.222	0.0004549
547.796	0.0005948
559.37	0.00122
570.944	0.0019
582.518	0.00236
594.092	0.00193
605.666	0.00133
617.24	0.0008381
628.814	0.0005335
640.388	0.0006435
651.962	0.0008858
663.536	0.00146
675.11	0.00242
686.684	0.00361
698.258	0.00492
709.832	0.0063
721.406	0.00695
732.98	0.00595
744.554	0.00489
756.128	0.00414
767.702	0.00359
779.276	0.00302
790.85	0.00261
802.423	0.00244
813.997	0.00253
825.571	0.0028
837.145	0.00305
848.719	0.00337
860.293	0.00372
871.867	0.00398
883.441	0.00428
895.015	0.00464
906.589	0.00485
918.163	0.00519
929.737	0.00592
941.311	0.00716
952.885	0.00944
964.459	0.01238
976.033	0.01473
987.607	0.01644
999.181	0.01959
1010.76	0.0242
1022.33	0.02437
1033.9	0.02107
1045.48	0.01867
1057.05	0.01611
1068.63	0.01405
1080.2	0.01284
1091.77	0.01352
1103.35	0.0181
1114.92	0.0293
1126.49	0.0523
1138.07	0.08656
1149.64	0.09779
1161.22	0.08266
1172.79	0.06157
1184.36	0.04406
1195.94	0.03581
1207.51	0.03594
1219.09	0.04219
1230.66	0.05062
1242.23	0.05528
1253.81	0.06634
1265.38	0.08887
1276.96	0.09318
1288.53	0.08468
1300.1	0.06073
1311.68	0.03447
1323.25	0.02122
1334.83	0.01564
1346.4	0.01395
1357.97	0.01301
1369.55	0.01126
1381.12	0.01175
1392.7	0.00997
1404.27	0.00921
1415.84	0.01595
1427.42	0.01651
1438.99	0.01543
1450.57	0.02191
1462.14	0.02849
1473.71	0.02057
1485.29	0.00952
1496.86	0.00529
1508.44	0.00361
1520.01	0.00282
1531.58	0.00242
1543.16	0.00214
1554.73	0.00194
1566.31	0.00181
1577.88	0.0017
1589.45	0.00161
1601.03	0.00152
1612.6	0.00145
1624.18	0.00145
1635.75	0.00151
1647.32	0.00168
1658.9	0.00194
1670.47	0.00242
1682.05	0.00332
1693.62	0.00513
1705.19	0.00888
1716.77	0.01601
1728.34	0.03093
1739.92	0.06503
1751.49	0.12445
1763.06	0.11053
1774.64	0.04895
1786.21	0.02134
1797.79	0.01055
1809.36	0.00596
1820.93	0.00382
1832.51	0.00273
1844.08	0.00215
1855.66	0.00182
1867.23	0.00161
1878.8	0.00149
1890.38	0.00137
1901.95	0.00126
1913.53	0.00117
1925.1	0.00109
1936.67	0.00106
1948.25	0.00102
1959.82	0.00105
1971.4	0.00106
1982.97	0.00113
1994.54	0.00116
2006.12	0.0012
2017.69	0.00127
2029.27	0.00134
2040.84	0.00129
2052.41	0.00119
2063.99	0.00106
2075.56	0.0009818
2087.14	0.0009037
2098.71	0.0008413
2110.28	0.0008497
2121.86	0.0008521
2133.43	0.0008637
2145.01	0.0008766
2156.58	0.000896
2168.15	0.0008809
2179.73	0.0008046
2191.3	0.0007808
2202.88	0.0007311
2214.45	0.0006939
2226.02	0.0006637
2237.6	0.0006479
2249.17	0.0006437
2260.74	0.0006293
2272.32	0.0006493
2283.89	0.0006823
2295.47	0.0007009
2307.04	0.0007014
2318.61	0.0007004
2330.19	0.0006712
2341.76	0.0006494
2353.34	0.0006262
2364.91	0.0006052
2376.48	0.0006737
2388.06	0.0007281
2399.63	0.0007473
2411.21	0.000773
2422.78	0.0007509
2434.35	0.0006859
2445.93	0.0006448
2457.5	0.0006195
2469.08	0.0006046
2480.65	0.000617
2492.22	0.0006937
2503.8	0.0007125
2515.37	0.0008133
2526.95	0.0009514
2538.52	0.0009799
2550.09	0.00104
2561.67	0.00106
2573.24	0.00125
2584.82	0.00173
2596.39	0.00252
2607.96	0.00184
2619.54	0.0018
2631.11	0.00193
2642.69	0.00212
2654.26	0.00237
2665.83	0.00265
2677.41	0.00292
2688.98	0.00301
2700.56	0.00283
2712.13	0.00275
2723.7	0.0029
2735.28	0.00327
2746.85	0.0036
2758.43	0.00387
2770	0.00429
2781.57	0.00498
2793.15	0.00627
2804.72	0.00805
2816.3	0.01073
2827.87	0.01517
2839.44	0.02383
2851.02	0.05203
2862.59	0.10316
2874.17	0.08325
2885.74	0.06346
2897.31	0.0663
2908.89	0.10012
2920.46	0.17345
2932.04	0.28006
2943.61	0.21827
2955.18	0.12756
2966.76	0.1079
2978.33	0.06494
2989.91	0.03444
3001.48	0.01933
3013.05	0.01225
3024.63	0.00865
3036.2	0.00644
3047.78	0.00486
3059.35	0.00385
3070.92	0.00311
3082.5	0.00262
3094.07	0.00232
3105.65	0.00202
3117.22	0.0018
3128.79	0.00157
3140.37	0.00143
3151.94	0.00135
3163.52	0.00121
3175.09	0.00109
3186.66	0.0009806
3198.24	0.000827
3209.81	0.0006592
3221.39	0.0005246
3232.96	0.0003912
3244.53	0.0003973
3256.11	0.0003454
3267.68	0.0002717
3279.26	0.0002731
3290.83	0.0001824
3302.4	0.00022
3313.98	0.0002757
3325.55	0.0002107
3337.13	0.0002228
3348.7	0.0002195
3360.27	0.0001998
3371.85	0.0002244
3383.42	0.000216
3395	0.0001902
3406.57	0.000251
3418.14	0.0003163
3429.72	0.000332
3441.29	0.0003454
3452.86	0.0004364
3464.44	0.0006473
3476.01	0.0009931
3487.59	0.00133
3499.16	0.00139
3510.73	0.0009331
3522.31	0.0005241
3533.88	0.0004077
3545.46	0.0002965
3557.03	0.0002837
3568.6	0.000309
3580.18	0.0003191
3591.75	0.0003478
3603.33	0.0003424
3614.9	0.0003521
3626.47	0.0003745
3638.05	0.000395
3649.62	0.0003529
3661.2	0.0003374
3672.77	0.000362
3684.34	0.0003334
3695.92	0.0003578
3707.49	0.0003261
3719.07	0.0003628
3730.64	0.0003686
3742.21	0.0003517
3753.79	0.0003974
3765.36	0.0004667
3776.94	0.0004076
3788.51	0.0004366
3800.08	0.000455
3811.66	0.0004477
3823.23	0.0004165
3834.81	0.0004416
3846.38	0.0004436
3857.95	0.0004022
3869.53	0.0003993
3881.1	0.0004973
3892.68	0.0004646
3904.25	0.0005362
3915.82	0.0004791
3927.4	0.0005655
3938.97	0.0005089
3950.55	0.0005564
3962.12	0.0006094
3973.69	0.0006493
3985.27	0.0008034
3996.84	0.0007396
