Infrared Spectrum: Sulphonyl diacetonitrile
Formula: C 4 H 4 N 2 O 2 S
CAS: 37463-94-8
State: gas
Origin: EPA-IR VAPOR PHASE LIBRARY
1/CM	ABSORBANCE
549.9	0.001971
559.547	0.001531
569.193	0.0006714
578.84	0.000405
588.486	0.000355
598.133	0.000254
607.779	0.0004726
617.426	0.000369
627.072	0.000421
636.719	0.000392
646.365	0.0004
656.012	0.000417
665.658	0.00061235
675.305	0.0006934
684.951	0.0006644
694.598	0.00062442
704.245	0.00059202
713.891	0.00062568
723.538	0.0006997
733.184	0.0008264
742.831	0.0010701
752.477	0.0012797
762.124	0.0013583
771.77	0.0014023
781.417	0.0012457
791.063	0.0008815
800.71	0.0007086
810.356	0.000797
820.003	0.0008923
829.649	0.0008701
839.296	0.0009505
848.943	0.001541
858.589	0.002531
868.236	0.002831
877.882	0.001831
887.529	0.0010292
897.175	0.0008345
906.822	0.0006419
916.468	0.00062507
926.115	0.00062426
935.761	0.00057769
945.408	0.0006652
955.054	0.0006542
964.701	0.0006922
974.347	0.00059437
983.994	0.00061368
993.64	0.00062446
1003.29	0.00059646
1012.93	0.00061264
1022.58	0.0006252
1032.23	0.00061929
1041.87	0.0006632
1051.52	0.0006669
1061.17	0.0006776
1070.81	0.0007756
1080.46	0.0008108
1090.11	0.0008429
1099.75	0.0007537
1109.4	0.0008656
1119.05	0.0010004
1128.69	0.001741
1138.34	0.003791
1147.99	0.004901
1157.63	0.004381
1167.28	0.004231
1176.92	0.004431
1186.57	0.003271
1196.22	0.001721
1205.86	0.001591
1215.51	0.0014851
1225.16	0.001651
1234.8	0.001701
1244.45	0.002181
1254.1	0.002641
1263.74	0.002271
1273.39	0.001601
1283.04	0.0011118
1292.68	0.0008722
1302.33	0.0008023
1311.98	0.0007522
1321.62	0.0008232
1331.27	0.0008943
1340.92	0.0009693
1350.56	0.0010274
1360.21	0.0014022
1369.86	0.002521
1379.5	0.006381
1389.15	0.010961
1398.79	0.009711
1408.44	0.004551
1418.09	0.0014746
1427.73	0.0009542
1437.38	0.0008477
1447.03	0.0007882
1456.67	0.0008029
1466.32	0.0007243
1475.97	0.0007934
1485.61	0.0007509
1495.26	0.000767
1504.91	0.0007625
1514.55	0.0007771
1524.2	0.0007305
1533.85	0.0007166
1543.49	0.0007192
1553.14	0.0006998
1562.79	0.0006877
1572.43	0.0007206
1582.08	0.0006798
1591.73	0.0006715
1601.37	0.000666
1611.02	0.0007769
1620.67	0.0007146
1630.31	0.00061759
1639.96	0.000697
1649.6	0.0006816
1659.25	0.0007042
1668.9	0.0006414
1678.54	0.0006827
1688.19	0.0006549
1697.84	0.0006624
1707.48	0.0006723
1717.13	0.0007182
1726.78	0.0006883
1736.42	0.0006687
1746.07	0.0006892
1755.72	0.0006923
1765.36	0.0007044
1775.01	0.0006849
1784.66	0.0006512
1794.3	0.0006358
1803.95	0.0006848
1813.6	0.000647
1823.24	0.0006361
1832.89	0.0006491
1842.54	0.0006372
1852.18	0.00062791
1861.83	0.00063067
1871.47	0.0006492
1881.12	0.0006525
1890.77	0.0006551
1900.41	0.0006395
1910.06	0.0006468
1919.71	0.000629
1929.35	0.00064
1939	0.00062353
1948.65	0.00061206
1958.29	0.00060005
1967.94	0.00059319
1977.59	0.00057427
1987.23	0.00054362
1996.88	0.00057577
2006.53	0.00056272
2016.17	0.0006387
2025.82	0.00060352
2035.47	0.00056079
2045.11	0.0005858
2054.76	0.00056764
2064.41	0.00059169
2074.05	0.0005722
2083.7	0.0006108
2093.35	0.0005612
2102.99	0.00057917
2112.64	0.00059438
2122.28	0.00056163
2131.93	0.00054964
2141.58	0.00057687
2151.22	0.00056527
2160.87	0.00056003
2170.52	0.000535829
2180.16	0.00055139
2189.81	0.0005626
2199.46	0.00056196
2209.1	0.00056805
2218.75	0.00054558
2228.4	0.00056461
2238.04	0.00058968
2247.69	0.00056064
2257.34	0.00058661
2266.98	0.00060209
2276.63	0.00052975
2286.28	0.0005638
2295.92	0.00056193
2305.57	0.00057294
2315.22	0.00056515
2324.86	0.00056623
2334.51	0.0005759
2344.16	0.00054156
2353.8	0.00054435
2363.45	0.00060513
2373.09	0.00054634
2382.74	0.00052789
2392.39	0.00052806
2402.03	0.00056131
2411.68	0.0005081
2421.33	0.00052
2430.97	0.0004811
2440.62	0.0005036
2450.27	0.0004999
2459.91	0.0004662
2469.56	0.0004839
2479.21	0.0004857
2488.85	0.000495
2498.5	0.0005031
2508.15	0.0005003
2517.79	0.0004974
2527.44	0.00055138
2537.09	0.0005065
2546.73	0.0004647
2556.38	0.0004518
2566.03	0.0004948
2575.67	0.000417
2585.32	0.0004432
2594.96	0.0004527
2604.61	0.0004404
2614.26	0.000402
2623.9	0.000435
2633.55	0.000403
2643.2	0.0004546
2652.84	0.0004612
2662.49	0.000415
2672.14	0.0004485
2681.78	0.000416
2691.43	0.0004
2701.08	0.000352
2710.72	0.000391
2720.37	0.000367
2730.02	0.000351
2739.66	0.000367
2749.31	0.000321
2758.96	0.000314
2768.6	0.000366
2778.25	0.000323
2787.9	0.00034
2797.54	0.000297
2807.19	0.000238
2816.84	0.000277
2826.48	0.000337
2836.13	0.000247
2845.77	0.000248
2855.42	0.000159
2865.07	0.000231
2874.71	0.000245
2884.36	0.000274
2894.01	0.000221
2903.65	0.000177
2913.3	0.000237
2922.95	0.000254
2932.59	0.000389
2942.24	0.00059666
2951.89	0.0006897
2961.53	0.000411
2971.18	0.00038
2980.83	0.000418
2990.47	0.000742
3000.12	0.0006973
3009.77	0.000338
3019.41	0.000173
3029.06	0.00023
3038.71	0.000154
3048.35	0.000205
3058	0.000119
3067.64	0.000105
3077.29	0.000159
3086.94	0.000198
3096.58	0.000123
3106.23	8.1e-05
3115.88	4.4e-05
3125.52	0.000186
3135.17	0.000118
3144.82	0.000143
3154.46	0.000166
3164.11	0.000157
3173.76	0.000265
3183.4	0.000215
3193.05	0.000168
3202.7	0.000226
3212.34	0.000129
3221.99	0.000206
3231.64	0.000202
3241.28	0.00013
3250.93	0.00017
3260.58	0.00028
3270.22	0.000216
3279.87	0.000177
3289.52	0.000355
3299.16	0.000237
3308.81	0.000303
3318.45	0.000278
3328.1	0.000253
3337.75	0.000313
3347.39	0.000328
3357.04	0.00031
3366.69	0.000187
3376.33	0.000128
3385.98	0.000215
3395.63	0.000254
3405.27	0.000277
3414.92	0.000235
3424.57	0.000362
3434.21	0.000351
3443.86	0.000253
3453.51	0.000156
3463.15	0.000238
3472.8	0.000232
3482.45	0.000273
3492.09	0.0004533
3501.74	0.000238
3511.39	0.000239
3521.03	0.000193
3530.68	0.000323
3540.33	0.000329
3549.97	0.000237
3559.62	0.000315
3569.26	0.000298
3578.91	0.000334
3588.56	0.000253
3598.2	0.000226
3607.85	0.000277
3617.5	0.000335
3627.14	0.000327
3636.79	0.000334
3646.44	0.000278
3656.08	0.000258
3665.73	0.000378
3675.38	0.000332
3685.02	0.000354
3694.67	0.000232
3704.32	0.000336
3713.96	0.000218
3723.61	0.000291
3733.26	0.000275
3742.9	0.000325
3752.55	0.000402
3762.2	0.000296
3771.84	0.000343
3781.49	0.000312
3791.13	0.000427
3800.78	0.000343
3810.43	0.000225
3820.07	0.000326
3829.72	0.000323
3839.37	0.000349
3849.01	0.000338
3858.66	0.000249
3868.31	0.000303
3877.95	0.000333
3887.6	0.000285
3897.25	0.000381
3906.89	0.000271
3916.54	0.000356
3926.19	0.000377
3935.83	0.000298
3945.48	0.00027
3955.13	0.000286
3964.77	0.000274
3974.42	0.000255
3984.07	0.000342
3993.71	0.000236
