Infrared Spectrum: m-Diisopropenylbenzene
Formula: C 12 H 14
CAS: 3748-13-8
State: gas
Origin: EPA-IR VAPOR PHASE LIBRARY
1/CM	ABSORBANCE
549.8	0.00184
559.445	0.00151
569.09	0.0007456
578.734	0.0006572
588.379	0.0005637
598.024	0.0003731
607.669	0.0005547
617.313	0.0004185
626.958	0.0002872
636.603	0.0005102
646.248	0.0008329
655.893	0.0005833
665.537	0.0015
675.182	0.00272
684.827	0.00403
694.472	0.00566
704.116	0.0092
713.761	0.01159
723.406	0.00753
733.051	0.00345
742.695	0.00172
752.34	0.0011
761.985	0.00105
771.63	0.00116
781.275	0.00353
790.919	0.00963
800.564	0.01375
810.209	0.00728
819.854	0.00317
829.498	0.00216
839.143	0.00133
848.788	0.00192
858.433	0.00314
868.078	0.0061
877.722	0.01261
887.367	0.02662
897.012	0.03329
906.657	0.01926
916.301	0.00997
925.946	0.00566
935.591	0.00346
945.236	0.00281
954.88	0.00172
964.525	0.0009796
974.17	0.0007338
983.815	0.0005902
993.46	0.00132
1003.1	0.00219
1012.75	0.00202
1022.39	0.000969
1032.04	0.0008738
1041.68	0.00108
1051.33	0.0009668
1060.97	0.00114
1070.62	0.00143
1080.26	0.00131
1089.91	0.0026
1099.55	0.00267
1109.2	0.00172
1118.84	0.00139
1128.49	0.00108
1138.13	0.0007655
1147.78	0.0009441
1157.42	0.0002859
1167.07	0.0007818
1176.71	0.00134
1186.36	0.00109
1196	0.00101
1205.64	0.00135
1215.29	0.00142
1224.93	0.00182
1234.58	0.00176
1244.22	0.00296
1253.87	0.00463
1263.51	0.00609
1273.16	0.00943
1282.8	0.01052
1292.45	0.00618
1302.09	0.00338
1311.74	0.00264
1321.38	0.00216
1331.03	0.00157
1340.67	0.00148
1350.32	0.00207
1359.96	0.00335
1369.61	0.00767
1379.25	0.01078
1388.9	0.00711
1398.54	0.00517
1408.18	0.0055
1417.83	0.00577
1427.47	0.00601
1437.12	0.00734
1446.76	0.00944
1456.41	0.0112
1466.05	0.0097
1475.7	0.0087
1485.34	0.0078
1494.99	0.00374
1504.63	0.00215
1514.28	0.00192
1523.92	0.00173
1533.57	0.00159
1543.21	0.00195
1552.86	0.00289
1562.5	0.00536
1572.15	0.00851
1581.79	0.0106
1591.44	0.01312
1601.08	0.01159
1610.73	0.00771
1620.37	0.00862
1630.01	0.01063
1639.66	0.00878
1649.3	0.00471
1658.95	0.00292
1668.59	0.00181
1678.24	0.00125
1687.88	0.00127
1697.53	0.00172
1707.17	0.00143
1716.82	0.0006466
1726.46	0.00065
1736.11	0.0006076
1745.75	0.0007358
1755.4	0.0009525
1765.04	0.00127
1774.69	0.00187
1784.33	0.00315
1793.98	0.00471
1803.62	0.00383
1813.27	0.00212
1822.91	0.00117
1832.55	0.0007491
1842.2	0.0006195
1851.84	0.0007901
1861.49	0.00136
1871.13	0.00146
1880.78	0.0007568
1890.42	0.0003867
1900.07	0.0003944
1909.71	0.0004564
1919.36	0.0006959
1929	0.0012
1938.65	0.0011
1948.29	0.0006195
1957.94	0.0003462
1967.58	0.000342
1977.23	0.0003073
1986.87	0.0003162
1996.52	0.0002926
2006.16	0.0002446
2015.81	0.0002568
2025.45	0.0002123
2035.1	0.0002363
2044.74	0.0001792
2054.38	0.0001901
2064.03	0.0002085
2073.67	0.0002692
2083.32	0.0002325
2092.96	0.0002282
2102.61	0.0002688
2112.25	0.0002265
2121.9	0.0002896
2131.54	0.0002064
2141.19	0.0002102
2150.83	0.0001949
2160.48	0.0001849
2170.12	0.0001914
2179.77	0.0002027
2189.41	0.000282
2199.06	0.0002077
2208.7	0.0001754
2218.35	0.0001889
2227.99	0.0002346
2237.64	8.235e-05
2247.28	9.931e-05
2256.92	0.0001819
2266.57	0.0003021
2276.21	0.0002272
2285.86	0.0002591
2295.5	0.0002844
2305.15	0.000229
2314.79	0.0002605
2324.44	0.0001839
2334.08	0.0002007
2343.73	0.0002327
2353.37	0.0002356
2363.02	0.0001448
2372.66	0.0001766
2382.31	0.0002283
2391.95	0.000184
2401.6	0.0002967
2411.24	0.0002291
2420.89	0.0002857
2430.53	0.0001825
2440.18	0.000289
2449.82	0.0001617
2459.47	0.000345
2469.11	0.0001862
2478.75	0.0002375
2488.4	0.0002147
2498.04	0.0001974
2507.69	0.0001533
2517.33	0.0001765
2526.98	0.0001917
2536.62	0.0001576
2546.27	0.0001405
2555.91	7.375e-05
2565.56	0.000193
2575.2	0.0002066
2584.85	0.0001683
2594.49	0.0001871
2604.14	0.0001479
2613.78	0.0001476
2623.43	8.951e-05
2633.07	0.0001593
2642.72	0.0001881
2652.36	0.0002211
2662.01	0.0002943
2671.65	0.0001631
2681.29	0.000127
2690.94	0.000366
2700.58	0.0002971
2710.23	0.0002833
2719.87	0.0004416
2729.52	0.0005424
2739.16	0.0007321
2748.81	0.0004601
2758.45	0.0003923
2768.1	0.000426
2777.74	0.0005259
2787.39	0.0006225
2797.03	0.0007455
2806.68	0.0007731
2816.32	0.0009469
2825.97	0.00124
2835.61	0.00184
2845.26	0.00234
2854.9	0.0033
2864.55	0.00466
2874.19	0.00522
2883.84	0.00517
2893.48	0.00574
2903.12	0.0065
2912.77	0.00812
2922.41	0.01167
2932.06	0.01409
2941.7	0.01263
2951.35	0.01301
2960.99	0.01369
2970.64	0.01907
2980.28	0.02596
2989.93	0.01816
2999.57	0.01122
3009.22	0.00902
3018.86	0.00838
3028.51	0.00801
3038.15	0.00827
3047.8	0.00947
3057.44	0.0138
3067.09	0.01725
3076.73	0.01585
3086.38	0.02281
3096.02	0.0198
3105.67	0.00662
3115.31	0.00309
3124.95	0.00208
3134.6	0.00148
3144.24	0.00117
3153.89	0.0009453
3163.53	0.0005156
3173.18	0.0005895
3182.82	0.0005229
3192.47	0.000401
3202.11	0.0003473
3211.76	0.0003763
3221.4	0.0002462
3231.05	0.0001904
3240.69	0.0002363
3250.34	0.0002971
3259.98	0.0003243
3269.63	0.0003004
3279.27	4.09e-05
3288.92	0.0001742
3298.56	0.000285
3308.21	0.0002004
3317.85	0.0002093
3327.49	0.0002167
3337.14	0.0003407
3346.78	3.608e-05
3356.43	0.0004711
3366.07	0.000176
3375.72	0.0003467
3385.36	0.0001359
3395.01	0.0002011
3404.65	0.0003209
3414.3	0.0002885
3423.94	0.0003215
3433.59	0.000313
3443.23	2.673e-05
3452.88	0.0003743
3462.52	0.0002489
3472.17	0.00031
3481.81	0.0003306
3491.46	0.0002358
3501.1	0.0002317
3510.75	0.0004649
3520.39	0.0002135
3530.04	0.0001355
3539.68	4.678e-05
3549.32	0.0003903
3558.97	0.0004753
3568.61	0.0002731
3578.26	0.0003504
3587.9	0.0003038
3597.55	0.0002689
3607.19	0.0002104
3616.84	0.0004437
3626.48	0.0003224
3636.13	0.000312
3645.77	0.0003176
3655.42	0.0002012
3665.06	0.0002291
3674.71	0.0001433
3684.35	0.0003755
3694	0.0002208
3703.64	0.0002759
3713.29	0.0002434
3722.93	0.0002008
3732.58	0.0001459
3742.22	0.0003421
3751.86	0.0001554
3761.51	0.000139
3771.15	0.0003128
3780.8	0.000305
3790.44	0.0003373
3800.09	0.0002356
3809.73	0.0002188
3819.38	0.0002912
3829.02	0.0001764
3838.67	0.000175
3848.31	0.0001685
3857.96	0.0001612
3867.6	0.0003442
3877.25	0.0003347
3886.89	0.0002885
3896.54	0.0003001
3906.18	0.0005522
3915.83	0.0003642
3925.47	0.0003368
3935.12	0.0002927
3944.76	0.0002726
3954.41	0.0003228
3964.05	0.0004045
3973.69	0.0003114
3983.34	0.000441
3992.98	0.0004058
