Infrared Spectrum: PURINE-6(1H)-THIONE, 1-CYCLOPENTYL-
Formula: C10 H12 N4 S
CAS: 37484-40-5
State: SOLID (1 mg / 650 mg KBr DISC)
Class: COBLENTZ III
Instrument: PERKIN-ELMER 221 (GRATING)
Instrument parameters: FILTER AT 980 CM^-^1. GRATING 4000-1428 CM^-^1, NaCl PRISM 1428-650 CM^-^1
Sampling: TRANSMISSION
Resolution: 2
Origin: SOUTHERN RESEARCH INSTITUTE
1/CM	TRANSMITTANCE
599.512	0.848
609.213	0.8451
618.914	0.8371
628.615	0.8205
638.316	0.7524
648.016	0.8328
657.717	0.9207
667.418	0.8358
677.119	0.893
686.82	0.939
696.521	0.9256
706.222	0.9048
715.923	0.896
725.624	0.9
735.324	0.912
745.025	0.9117
754.726	0.9039
764.427	0.8837
774.128	0.809
783.829	0.873
793.53	0.8614
803.231	0.8533
812.931	0.8296
822.632	0.8243
832.333	0.8123
842.034	0.7954
851.735	0.7657
861.436	0.7238
871.137	0.657
880.838	0.7527
890.539	0.82
900.239	0.815
909.94	0.812
919.641	0.8154
929.342	0.8433
939.043	0.855
948.744	0.843
958.445	0.8131
968.146	0.7117
977.847	0.6871
987.547	0.7156
997.248	0.8244
1006.95	0.8196
1016.65	0.7316
1026.35	0.6166
1036.05	0.6242
1045.75	0.6289
1055.45	0.8424
1065.15	0.8219
1074.86	0.7984
1084.56	0.7783
1094.26	0.7636
1103.96	0.7269
1113.66	0.6651
1123.36	0.5768
1133.06	0.5131
1142.76	0.5339
1152.46	0.5525
1162.16	0.6335
1171.86	0.8185
1181.57	0.833
1191.27	0.8234
1200.97	0.7731
1210.67	0.7125
1220.37	0.7005
1230.07	0.7461
1239.77	0.771
1249.47	0.764
1259.17	0.7152
1268.87	0.604
1278.57	0.5423
1288.27	0.7972
1297.98	0.829
1307.68	0.788
1317.38	0.832
1327.08	0.8085
1336.78	0.716
1346.48	0.5863
1356.18	0.7466
1365.88	0.7574
1375.58	0.6904
1385.28	0.5751
1394.98	0.5284
1404.69	0.584
1414.39	0.5894
1424.09	0.594
1433.79	0.5866
1443.49	0.6113
1453.19	0.65
1462.89	0.7659
1472.59	0.712
1482.29	0.635
1491.99	0.4363
1501.69	0.3868
1511.4	0.6447
1521.1	0.7299
1530.8	0.6748
1540.5	0.8457
1550.2	0.8258
1559.9	0.7736
1569.6	0.773
1579.3	0.7043
1589	0.5091
1598.7	0.2624
1608.4	0.2157
1618.1	0.5216
1627.81	0.7697
1637.51	0.8687
1647.21	0.8852
1656.91	0.909
1666.61	0.9259
1676.31	0.9303
1686.01	0.9298
1695.71	0.9274
1705.41	0.924
1715.11	0.9193
1724.81	0.914
1734.52	0.909
1744.22	0.916
1753.92	0.916
1763.62	0.9132
1773.32	0.9083
1783.02	0.907
1792.72	0.9055
1802.42	0.906
1812.12	0.908
1821.82	0.9081
1831.52	0.91
1841.23	0.909
1850.93	0.9191
1860.63	0.9209
1870.33	0.9218
1880.03	0.924
1889.73	0.924
1899.43	0.924
1909.13	0.924
1918.83	0.922
1928.53	0.925
1938.23	0.925
1947.94	0.924
1957.64	0.922
1967.34	0.922
1977.04	0.921
1986.74	0.92
1996.44	0.918
2006.14	0.914
2015.84	0.912
2025.54	0.9099
2035.24	0.908
2044.94	0.904
2054.64	0.904
2064.35	0.9
2074.05	0.897
2083.75	0.896
2093.45	0.895
2103.15	0.8939
2112.85	0.8909
2122.55	0.8899
2132.25	0.885
2141.95	0.884
2151.65	0.883
2161.35	0.8829
2171.06	0.88
2180.76	0.879
2190.46	0.8779
2200.16	0.874
2209.86	0.8719
2219.56	0.87
2229.26	0.865
2238.96	0.861
2248.66	0.8559
2258.36	0.855
2268.06	0.853
2277.77	0.8469
2287.47	0.841
2297.17	0.835
2306.87	0.831
2316.57	0.8249
2326.27	0.8179
2335.97	0.811
2345.67	0.806
2355.37	0.797
2365.07	0.7929
2374.77	0.793
2384.47	0.791
2394.18	0.7839
2403.88	0.7768
2413.58	0.7719
2423.28	0.7659
2432.98	0.761
2442.68	0.7549
2452.38	0.75
2462.08	0.747
2471.78	0.74
2481.48	0.7369
2491.18	0.7249
2500.89	0.716
2510.59	0.7119
2520.29	0.705
2529.99	0.6928
2539.69	0.6849
2549.39	0.6761
2559.09	0.6761
2568.79	0.681
2578.49	0.684
2588.19	0.691
2597.89	0.693
2607.6	0.6876
2617.3	0.663
2627	0.652
2636.7	0.652
2646.4	0.6581
2656.1	0.663
2665.8	0.663
2675.5	0.663
2685.2	0.6579
2694.9	0.651
2704.6	0.6379
2714.3	0.629
2724.01	0.629
2733.71	0.6289
2743.41	0.6199
2753.11	0.5999
2762.81	0.595
2772.51	0.5825
2782.21	0.566
2791.91	0.564
2801.61	0.564
2811.31	0.5741
2821.01	0.5982
2830.72	0.6241
2840.42	0.6259
2850.12	0.6157
2859.82	0.5816
2869.52	0.534
2879.22	0.5543
2888.92	0.577
2898.62	0.5628
2908.32	0.5419
2918.02	0.539
2927.72	0.537
2937.43	0.5179
2947.13	0.4737
2956.83	0.453
2966.53	0.4703
2976.23	0.5152
2985.93	0.5865
2995.63	0.6252
3005.33	0.634
3015.03	0.634
3024.73	0.635
3034.43	0.632
3044.14	0.629
3053.84	0.628
3063.54	0.6322
3073.24	0.6491
3082.94	0.654
3092.64	0.653
3102.34	0.652
3112.04	0.653
3121.74	0.6572
3131.44	0.6772
3141.14	0.6891
3150.84	0.7051
3160.55	0.7182
3170.25	0.7321
3179.95	0.737
3189.65	0.738
3199.35	0.7411
3209.05	0.7431
3218.75	0.7502
3228.45	0.753
3238.15	0.754
3247.85	0.754
3257.55	0.755
3267.26	0.756
3276.96	0.756
3286.66	0.756
3296.36	0.758
3306.06	0.756
3315.76	0.756
3325.46	0.754
3335.16	0.75
3344.86	0.747
3354.56	0.7359
3364.26	0.7249
3373.97	0.719
3383.67	0.714
3393.37	0.711
3403.07	0.7029
3412.77	0.701
3422.47	0.7
3432.17	0.697
3441.87	0.699
3451.57	0.702
3461.27	0.706
3470.97	0.7091
3480.67	0.711
3490.38	0.712
3500.08	0.716
3509.78	0.7201
3519.48	0.7351
3529.18	0.7381
3538.88	0.7461
3548.58	0.752
3558.28	0.7611
3567.98	0.7701
3577.68	0.7721
3587.38	0.779
3597.09	0.785
3606.79	0.8
3616.49	0.802
3626.19	0.805
3635.89	0.8111
3645.59	0.819
3655.29	0.819
3664.99	0.821
3674.69	0.826
3684.39	0.807
3694.09	0.821
3703.8	0.825
3713.5	0.8271
3723.2	0.829
3732.9	0.829
3742.6	0.8269
3752.3	0.823
3762	0.82
3771.7	0.824
3781.4	0.823
3791.1	0.825
3800.8	0.821
3810.5	0.8199
3820.21	0.8171
3829.91	0.8169
3839.61	0.815
3849.31	0.813
3859.01	0.813
3868.71	0.808
3878.41	0.807
3888.11	0.806
3897.81	0.8059
3907.51	0.805
3917.21	0.805
3926.92	0.8069
3936.62	0.803
3946.32	0.803
3956.02	0.803
3965.72	0.802
3975.42	0.802
3985.12	0.801
3994.82	0.8
