Infrared Spectrum: 5-Undecanol
Formula: C 11 H 24 O
CAS: 37493-70-2
State: gas
Instrument: HP-GC/MS/IRD
Origin: NIST Mass Spectrometry Data Center
1/CM	ABSORBANCE
550	0.000455
562	0.00021
574	4.5e-05
586	0.000135
598	0.00014
610	0.0001
622	0.00014
634	4e-05
646	9.5e-05
658	3e-05
670	8e-05
682	0.000165
694	0.00023
706	0.000355
718	0.00065
730	0.000785
742	0.000735
754	0.000615
766	0.00049
778	0.000555
790	0.00052
802	0.00053
814	0.00041
826	0.00041
838	0.000545
850	0.000745
862	0.000845
874	0.000995
886	0.00112
898	0.001285
910	0.00119
922	0.001055
934	0.001
946	0.00122
958	0.001725
970	0.00208
982	0.00245
994	0.003045
1006	0.003445
1018	0.00393
1030	0.004575
1042	0.004365
1054	0.003435
1066	0.002845
1078	0.002555
1090	0.00243
1102	0.002425
1114	0.002615
1126	0.00281
1138	0.00245
1150	0.001675
1162	0.001435
1174	0.0016
1186	0.00185
1198	0.001985
1210	0.002155
1222	0.002235
1234	0.002365
1246	0.00248
1258	0.0025
1270	0.00233
1282	0.00206
1294	0.001975
1306	0.00188
1318	0.001785
1330	0.00195
1342	0.00241
1354	0.00276
1366	0.003265
1378	0.00394
1390	0.003605
1402	0.0024
1414	0.001725
1426	0.00175
1438	0.002535
1450	0.003805
1462	0.004845
1474	0.003485
1486	0.00161
1498	0.00089
1510	0.000595
1522	0.000445
1534	0.000345
1546	0.00027
1558	0.000175
1570	0.00019
1582	0.000145
1594	0.000155
1606	0.000125
1618	8e-05
1630	9e-05
1642	7.5e-05
1654	5e-05
1666	5.5e-05
1678	6.5e-05
1690	6.5e-05
1702	3.5e-05
1714	5e-05
1726	5e-05
1738	2e-05
1750	2.5e-05
1762	5e-05
1774	1e-05
1786	2e-05
1798	2.5e-05
1810	4e-05
1822	1.5e-05
1834	2.5e-05
1846	2.5e-05
1858	3.5e-05
1870	4e-05
1882	3e-05
1894	1.5e-05
1906	1.5e-05
1918	2.5e-05
1930	1e-05
1942	2e-05
1954	0
1966	1.5e-05
1978	4e-05
1990	1.5e-05
2002	3e-05
2014	3.5e-05
2026	5.5e-05
2038	5e-05
2050	4.5e-05
2062	4e-05
2074	3e-05
2086	4.5e-05
2098	2e-05
2110	0
2122	2e-05
2134	1e-05
2146	1e-05
2158	1.5e-05
2170	2e-05
2182	3e-05
2194	1e-05
2206	2.5e-05
2218	1.5e-05
2230	2e-05
2242	2e-05
2254	4e-05
2266	3e-05
2278	3e-05
2290	5e-05
2302	4.5e-05
2314	5e-05
2326	5.5e-05
2338	3.5e-05
2350	5.5e-05
2362	7e-05
2374	9e-05
2386	7e-05
2398	7.5e-05
2410	6.5e-05
2422	7.5e-05
2434	7.5e-05
2446	5.5e-05
2458	4.5e-05
2470	5.5e-05
2482	6e-05
2494	6.5e-05
2506	9e-05
2518	9e-05
2530	0.000135
2542	0.00015
2554	0.00017
2566	0.0002
2578	0.000225
2590	0.000255
2602	0.00028
2614	0.00034
2626	0.00036
2638	0.00046
2650	0.00053
2662	0.00059
2674	0.000645
2686	0.00067
2698	0.00065
2710	0.000645
2722	0.00072
2734	0.00083
2746	0.00091
2758	0.000945
2770	0.001035
2782	0.001225
2794	0.00156
2806	0.00198
2818	0.002605
2830	0.003805
2842	0.00652
2854	0.01268
2866	0.01967
2878	0.01966
2890	0.01683
2902	0.017755
2914	0.02638
2926	0.04181
2938	0.049895
2950	0.034895
2962	0.02928
2974	0.023665
2986	0.009655
2998	0.005075
3010	0.003255
3022	0.00233
3034	0.001755
3046	0.001305
3058	0.00106
3070	0.00089
3082	0.000795
3094	0.00067
3106	0.0006
3118	0.00053
3130	0.00047
3142	0.00039
3154	0.000385
3166	0.00035
3178	0.000315
3190	0.000265
3202	0.000225
3214	0.000195
3226	0.000115
3238	0.00012
3250	9.5e-05
3262	8e-05
3274	6e-05
3286	6e-05
3298	7.5e-05
3310	6.5e-05
3322	2e-05
3334	3e-05
3346	5e-05
3358	7e-05
3370	9.5e-05
3382	8e-05
3394	8.5e-05
3406	0.000105
3418	0.000115
3430	0.00011
3442	9e-05
3454	6.5e-05
3466	5.5e-05
3478	7.5e-05
3490	4.5e-05
3502	5e-05
3514	1e-05
3526	2.5e-05
3538	4e-05
3550	3.5e-05
3562	4e-05
3574	7e-05
3586	5e-05
3598	8.5e-05
3610	0.00021
3622	0.000425
3634	0.00075
3646	0.001445
3658	0.001695
3670	0.000725
3682	0.000305
3694	0.000195
3706	0.000115
3718	9.5e-05
3730	6e-05
3742	4.5e-05
3754	7.5e-05
3766	0.00012
3778	8.5e-05
3790	8.5e-05
3802	0.00012
3814	0.000105
3826	0.000135
3838	0.00014
