Infrared Spectrum: BUTANE, 1,1,2,3,4,4-HEXACHLORO-TETRAFLUORO-
Formula: C4 Cl6 F4
CAS: 375-43-9
State: SOLUTION (10% IN CCl4 FOR 3800-1330 AND 10% IN CS2 FOR 1330-400 CM^-^1)
Class: COBLENTZ III
Instrument: DOW KBr FOREPRISM-GRATING
Instrument parameters: BLAZED AT 3.5, 12.0, 20.0 MICRON, CHANGED AT 5.0, 7.5, 14.9 MICRON
Sampling: TRANSMISSION
Path length: 0.011, 0.011 CM
Resolution: 4
Origin: DOW CHEMICAL COMPANY
1/CM	TRANSMITTANCE
390.371	0.121
399.072	0.151
407.772	0.396
416.473	0.63
425.174	0.759
433.874	0.807
442.575	0.824
451.276	0.862
459.976	0.851
468.677	0.896
477.378	0.915
486.079	0.905
494.779	0.922
503.48	0.905
512.181	0.905
520.881	0.949
529.582	0.957
538.283	0.965
546.983	0.961
555.684	0.9
564.385	0.946
573.085	0.972
581.786	0.957
590.487	0.974
599.187	0.972
607.888	0.967
616.589	0.953
625.29	0.914
633.99	0.761
642.691	0.312
651.392	0.463
660.092	0.824
668.793	0.844
677.494	0.538
686.194	0.376
694.895	0.537
703.596	0.361
712.296	0.761
720.997	0.931
729.698	0.939
738.398	0.914
747.099	0.911
755.8	0.924
764.501	0.904
773.201	0.693
781.902	0.759
790.603	0.547
799.303	0.623
808.004	0.515
816.705	0.261
825.405	0.579
834.106	0.26
842.807	0.263
851.507	0.484
860.208	0.413
868.909	0.515
877.609	0.117
886.31	0.05
895.011	0.366
903.712	0.372
912.412	0.474
921.113	0.508
929.814	0.369
938.514	0.735
947.215	0.645
955.916	0.785
964.616	0.634
973.317	0.48
982.018	0.746
990.718	0.654
999.419	0.541
1008.12	0.504
1016.82	0.712
1025.52	0.552
1034.22	0.145
1042.92	0.668
1051.62	0.821
1060.32	0.698
1069.02	0.597
1077.73	0.577
1086.43	0.392
1095.13	0.166
1103.83	0.38
1112.53	0.296
1121.23	0.27
1129.93	0.347
1138.63	0.148
1147.33	0.189
1156.03	0.466
1164.73	0.594
1173.43	0.654
1182.13	0.893
1190.83	0.934
1199.53	0.946
1208.24	0.954
1216.94	0.956
1225.64	0.952
1234.34	0.956
1243.04	0.96
1251.74	0.965
1260.44	0.956
1269.14	0.956
1277.84	0.95
1286.54	0.959
1295.24	0.957
1303.94	0.956
1312.64	0.959
1321.34	0.957
1330.05	0.96
1338.75	0.968
1347.45	0.961
1356.15	0.939
1364.85	0.937
1373.55	0.942
1382.25	0.942
1390.95	0.956
1399.65	0.96
1408.35	0.964
1417.05	0.968
1425.75	0.971
1434.45	0.971
1443.15	0.975
1451.85	0.972
1460.56	0.969
1469.26	0.961
1477.96	0.948
1486.66	0.919
1495.36	0.886
1504.06	0.833
1512.76	0.77
1521.46	0.714
1530.16	0.656
1538.86	0.563
1547.56	0.491
1556.26	0.512
1564.96	0.609
1573.66	0.667
1582.37	0.683
1591.07	0.742
1599.77	0.834
1608.47	0.905
1617.17	0.939
1625.87	0.946
1634.57	0.96
1643.27	0.971
1651.97	0.971
1660.67	0.976
1669.37	0.979
1678.07	0.979
1686.77	0.98
1695.47	0.98
1704.17	0.979
1712.88	0.979
1721.58	0.983
1730.28	0.984
1738.98	0.983
1747.68	0.986
1756.38	0.984
1765.08	0.982
1773.78	0.984
1782.48	0.982
1791.18	0.982
1799.88	0.98
1808.58	0.978
1817.28	0.978
1825.98	0.976
1834.69	0.975
1843.39	0.974
1852.09	0.974
1860.79	0.974
1869.49	0.976
1878.19	0.979
1886.89	0.979
1895.59	0.976
1904.29	0.979
1912.99	0.979
1921.69	0.979
1930.39	0.979
1939.09	0.979
1947.79	0.976
1956.49	0.975
1965.2	0.971
1973.9	0.968
1982.6	0.964
1991.3	0.957
2000	0.963
2008.7	0.933
2017.4	0.96
2026.1	0.957
2034.8	0.96
2043.5	0.959
2052.2	0.963
2060.9	0.963
2069.6	0.963
2078.3	0.96
2087	0.964
2095.71	0.964
2104.41	0.963
2113.11	0.961
2121.81	0.957
2130.51	0.9571
2139.21	0.961
2147.91	0.957
2156.61	0.9569
2165.31	0.956
2174.01	0.9519
2182.71	0.949
2191.41	0.9521
2200.11	0.957
2208.81	0.9559
2217.52	0.953
2226.22	0.9521
2234.92	0.952
2243.62	0.954
2252.32	0.954
2261.02	0.954
2269.72	0.9518
2278.42	0.9478
2287.12	0.9438
2295.82	0.9379
2304.52	0.9381
2313.22	0.9451
2321.92	0.954
2330.62	0.9533
2339.32	0.963
2348.03	0.9671
2356.73	0.9649
2365.43	0.967
2374.13	0.964
2382.83	0.9596
2391.53	0.9636
2400.23	0.967
2408.93	0.968
2417.63	0.968
2426.33	0.969
2435.03	0.9681
2443.73	0.969
2452.43	0.969
2461.13	0.969
2469.84	0.968
2478.54	0.968
2487.24	0.968
2495.94	0.9678
2504.64	0.969
2513.34	0.967
2522.04	0.968
2530.74	0.968
2539.44	0.968
2548.14	0.968
2556.84	0.969
2565.54	0.968
2574.24	0.968
2582.94	0.967
2591.64	0.9682
2600.35	0.9688
2609.05	0.964
2617.75	0.964
2626.45	0.965
2635.15	0.964
2643.85	0.963
2652.55	0.9632
2661.25	0.9648
2669.95	0.965
2678.65	0.963
2687.35	0.964
2696.05	0.964
2704.75	0.9632
2713.45	0.9648
2722.16	0.963
2730.86	0.961
2739.56	0.9625
2748.26	0.963
2756.96	0.9632
2765.66	0.964
2774.36	0.963
2783.06	0.963
2791.76	0.963
2800.46	0.961
2809.16	0.963
2817.86	0.961
2826.56	0.96
2835.26	0.961
2843.96	0.9603
2852.67	0.963
2861.37	0.9607
2870.07	0.959
2878.77	0.957
2887.47	0.957
2896.17	0.9593
2904.87	0.96
2913.57	0.961
2922.27	0.9607
2930.97	0.961
2939.67	0.961
2948.37	0.9607
2957.07	0.96
2965.77	0.957
2974.48	0.957
2983.18	0.96
2991.88	0.956
3000.58	0.961
3009.28	0.957
3017.98	0.96
3026.68	0.96
3035.38	0.9583
3044.08	0.9563
3052.78	0.957
3061.48	0.957
3070.18	0.956
3078.88	0.956
3087.58	0.956
3096.28	0.956
3104.99	0.954
3113.69	0.953
3122.39	0.953
3131.09	0.952
3139.79	0.952
3148.49	0.952
3157.19	0.953
3165.89	0.954
3174.59	0.9548
3183.29	0.9552
3191.99	0.9548
3200.69	0.956
3209.39	0.9564
3218.09	0.9566
3226.79	0.956
3235.5	0.956
3244.2	0.9566
3252.9	0.9564
3261.6	0.9566
3270.3	0.9564
3279	0.957
3287.7	0.956
3296.4	0.9566
3305.1	0.959
3313.8	0.959
3322.5	0.96
3331.2	0.957
3339.9	0.957
3348.6	0.9579
3357.31	0.961
3366.01	0.963
3374.71	0.963
3383.41	0.963
3392.11	0.964
3400.81	0.964
3409.51	0.963
3418.21	0.963
3426.91	0.964
3435.61	0.963
3444.31	0.9645
3453.01	0.965
3461.71	0.967
3470.41	0.967
3479.11	0.965
3487.82	0.9675
3496.52	0.969
3505.22	0.968
3513.92	0.969
3522.62	0.967
3531.32	0.971
3540.02	0.972
3548.72	0.974
3557.42	0.972
3566.12	0.976
3574.82	0.975
3583.52	0.9759
3592.22	0.975
3600.92	0.9771
3609.63	0.978
3618.33	0.975
3627.03	0.9755
3635.73	0.978
3644.43	0.9771
3653.13	0.978
3661.83	0.976
3670.53	0.9773
3679.23	0.978
3687.93	0.976
3696.63	0.976
3705.33	0.98
3714.03	0.9824
3722.73	0.9809
3731.43	0.9811
3740.14	0.982
3748.84	0.982
3757.54	0.9808
3766.24	0.983
3774.94	0.986
3783.64	0.986
3792.34	0.984
