Infrared Spectrum: Butyric acid, heptafluoro-,
Formula: C4 H F7 O2
CAS: 375-22-4
State: LIQUID (NEAT)
Class: COBLENTZ III
Instrument: BAIRD (GRATING)
Instrument parameters: NaCl PRISM
Path length: 0.0015 CM
Resolution: 2
Origin: WYANDOTTE CHEMICALS CORP.
1/CM	TRANSMITTANCE
626	0.5827
635	0.579
644	0.544
653	0.5632
662	0.6119
671	0.5861
680	0.4669
689	0.3099
698	0.2266
707	0.2329
716	0.2411
725	0.341
734	0.4494
743	0.423
752	0.2833
761	0.3624
770	0.5193
779	0.4152
788	0.4015
797	0.4416
806	0.4365
815	0.4457
824	0.4631
833	0.4757
842	0.4772
851	0.4738
860	0.4572
869	0.4283
878	0.3916
887	0.3578
896	0.3603
905	0.3896
914	0.331
923	0.0854
932	0.0319
941	0.4243
950	0.4916
959	0.2619
968	0.0286
977	0.225
986	0.5728
995	0.6669
1004	0.7286
1013	0.7407
1022	0.7464
1031	0.7466
1040	0.739
1049	0.7593
1058	0.7508
1067	0.7173
1076	0.6108
1085	0.2957
1094	0.0341
1103	0.1895
1112	0.3619
1121	0.1648
1130	0.0168
1139	0.061
1148	0.0624
1157	0.0183
1166	0.0215
1175	0.0253
1184	0.0154
1193	0.0148
1202	0.0142
1211	0.0136
1220	0.013
1229	0.0125
1238	0.0119
1247	0.0113
1256	0.0109
1265	0.0178
1274	0.0298
1283	0.0519
1292	0.0831
1301	0.1242
1310	0.307
1319	0.4197
1328	0.4705
1337	0.3523
1346	0.1094
1355	0.0272
1364	0.1527
1373	0.4559
1382	0.6658
1391	0.6816
1400	0.679
1409	0.6625
1418	0.6138
1427	0.5171
1436	0.3969
1445	0.2781
1454	0.2258
1463	0.4307
1472	0.6334
1481	0.6711
1490	0.7508
1499	0.7581
1508	0.7657
1517	0.7863
1526	0.7845
1535	0.7846
1544	0.786
1553	0.7885
1562	0.7892
1571	0.7905
1580	0.788
1589	0.7828
1598	0.7762
1607	0.7675
1616	0.7566
1625	0.7454
1634	0.7373
1643	0.7353
1652	0.7312
1661	0.7116
1670	0.6901
1679	0.6781
1688	0.6682
1697	0.646
1706	0.6172
1715	0.5882
1724	0.5393
1733	0.4742
1742	0.385
1751	0.1504
1760	0.0238
1769	0.0202
1778	0.019
1787	0.0227
1796	0.1758
1805	0.34
1814	0.5026
1823	0.6527
1832	0.745
1841	0.7735
1850	0.8037
1859	0.8339
1868	0.8441
1877	0.8506
1886	0.8631
1895	0.8724
1904	0.8768
1913	0.8764
1922	0.8756
1931	0.8747
1940	0.8738
1949	0.8738
1958	0.874
1967	0.8745
1976	0.876
1985	0.8826
1994	0.8926
2003	0.8982
2012	0.9024
2021	0.9051
2030	0.9074
2039	0.91
2048	0.9131
2057	0.9162
2066	0.9176
2075	0.9174
2084	0.9165
2093	0.9153
2102	0.9134
2111	0.91
2120	0.9068
2129	0.907
2138	0.9111
2147	0.9142
2156	0.9129
2165	0.911
2174	0.9084
2183	0.9056
2192	0.9027
2201	0.8998
2210	0.8971
2219	0.8929
2228	0.8882
2237	0.8818
2246	0.8756
2255	0.87
2264	0.8661
2273	0.862
2282	0.857
2291	0.8512
2300	0.8452
2309	0.8392
2318	0.8324
2327	0.8246
2336	0.8192
2345	0.8139
2354	0.8049
2363	0.7895
2372	0.778
2381	0.7689
2390	0.7611
2399	0.7521
2408	0.7429
2417	0.7314
2426	0.7182
2435	0.7058
2444	0.6938
2453	0.6809
2462	0.6667
2471	0.655
2480	0.6437
2489	0.6338
2498	0.6245
2507	0.6145
2516	0.6039
2525	0.5993
2534	0.6002
2543	0.6024
2552	0.6049
2561	0.6057
2570	0.6056
2579	0.604
2588	0.6019
2597	0.6032
2606	0.6082
2615	0.6138
2624	0.6179
2633	0.6187
2642	0.6153
2651	0.61
2660	0.6012
2669	0.5892
2678	0.5765
2687	0.5648
2696	0.5594
2705	0.5582
2714	0.558
2723	0.5579
2732	0.558
2741	0.5519
2750	0.5396
2759	0.5266
2768	0.5121
2777	0.4948
2786	0.4797
2795	0.4662
2804	0.4547
2813	0.4424
2822	0.4147
2831	0.3872
2840	0.3598
2849	0.3392
2858	0.3241
2867	0.3098
2876	0.2953
2885	0.282
2894	0.2692
2903	0.2577
2912	0.2455
2921	0.2342
2930	0.2254
2939	0.219
2948	0.2165
2957	0.2157
2966	0.2162
2975	0.2184
2984	0.2205
2993	0.221
3002	0.2203
3011	0.2169
3020	0.2079
3029	0.1934
3038	0.1713
3047	0.1499
3056	0.1344
3065	0.1221
3074	0.1155
3083	0.1122
3092	0.1106
3101	0.1097
3110	0.1096
3119	0.1095
3128	0.1097
3137	0.1101
3146	0.1108
3155	0.1117
3164	0.1128
3173	0.1145
3182	0.1175
3191	0.1223
3200	0.1276
3209	0.1332
3218	0.1391
3227	0.1448
3236	0.1506
3245	0.1572
3254	0.1663
3263	0.1784
3272	0.1922
3281	0.2079
3290	0.2251
3299	0.2462
3308	0.3108
3317	0.3471
3326	0.3832
3335	0.4441
3344	0.5055
3353	0.5855
3362	0.6092
3371	0.6289
3380	0.6458
3389	0.6625
3398	0.6801
3407	0.6948
3416	0.7066
3425	0.7191
3434	0.7344
3443	0.7488
3452	0.7583
3461	0.7674
3470	0.7766
3479	0.7858
3488	0.7944
3497	0.8017
3506	0.8089
3515	0.8164
3524	0.8242
3533	0.8321
3542	0.8407
3551	0.8493
3560	0.861
3569	0.874
3578	0.8992
3587	0.9207
3596	0.9344
3605	0.9441
3614	0.9502
3623	0.9546
3632	0.9569
3641	0.9583
3650	0.9595
3659	0.9598
3668	0.9602
3677	0.9606
3686	0.9611
3695	0.9615
3704	0.9618
3713	0.9626
3722	0.9658
3731	0.9687
3740	0.9719
3749	0.9752
3758	0.9784
3767	0.9812
3776	0.9822
3785	0.9827
3794	0.9828
3803	0.9826
3812	0.9831
3821	0.9839
3830	0.9852
3839	0.9864
3848	0.9876
3857	0.988
3866	0.9878
3875	0.9875
3884	0.9872
3893	0.9866
3902	0.9859
3911	0.9851
3920	0.984
3929	0.9827
3938	0.9813
3947	0.9798
3956	0.9784
3965	0.9771
3974	0.9763
3983	0.9756
3992	0.9748
