Infrared Spectrum: Heptafluorobutanol
Formula: C 4 H 3 F 7 O
CAS: 375-01-9
State: gas
Origin: EPA-IR VAPOR PHASE LIBRARY
1/CM	ABSORBANCE
501.5	0.00468
513.074	0.00484
524.648	0.00736
536.222	0.01023
547.796	0.00756
559.37	0.00601
570.944	0.00626
582.518	0.00534
594.092	0.00429
605.666	0.00626
617.24	0.01077
628.814	0.01053
640.388	0.00752
651.962	0.00608
663.536	0.00609
675.11	0.00579
686.684	0.0049
698.258	0.00318
709.832	0.003
721.406	0.00667
732.98	0.02253
744.554	0.02148
756.128	0.01198
767.702	0.00751
779.276	0.00439
790.85	0.00243
802.423	0.00165
813.997	0.00144
825.571	0.0014
837.145	0.00168
848.719	0.00217
860.293	0.00329
871.867	0.00624
883.441	0.01294
895.015	0.02642
906.589	0.03437
918.163	0.02253
929.737	0.01905
941.311	0.02415
952.885	0.03345
964.459	0.02654
976.033	0.02126
987.607	0.03895
999.181	0.05475
1010.76	0.0366
1022.33	0.0168
1033.9	0.01255
1045.48	0.01365
1057.05	0.02247
1068.63	0.03675
1080.2	0.05052
1091.77	0.04982
1103.35	0.05511
1114.92	0.08234
1126.49	0.09522
1138.07	0.07093
1149.64	0.05249
1161.22	0.06826
1172.79	0.10524
1184.36	0.11445
1195.94	0.11312
1207.51	0.13657
1219.09	0.19315
1230.66	0.29797
1242.23	0.2398
1253.81	0.11101
1265.38	0.06456
1276.96	0.04268
1288.53	0.03548
1300.1	0.02966
1311.68	0.02506
1323.25	0.0285
1334.83	0.04289
1346.4	0.04948
1357.97	0.03211
1369.55	0.01783
1381.12	0.0102
1392.7	0.00663
1404.27	0.00578
1415.84	0.00451
1427.42	0.00317
1438.99	0.00273
1450.57	0.00343
1462.14	0.0045
1473.71	0.0028
1485.29	0.00163
1496.86	0.00137
1508.44	0.00136
1520.01	0.00138
1531.58	0.00123
1543.16	0.00122
1554.73	0.00125
1566.31	0.00115
1577.88	0.00116
1589.45	0.000966
1601.03	0.0007761
1612.6	0.0006921
1624.18	0.0006574
1635.75	0.0006009
1647.32	0.0005792
1658.9	0.0006597
1670.47	0.0006437
1682.05	0.0006006
1693.62	0.0006609
1705.19	0.0006127
1716.77	0.0006546
1728.34	0.0005729
1739.92	0.0005417
1751.49	0.0004656
1763.06	0.000492
1774.64	0.0005332
1786.21	0.0005686
1797.79	0.0005771
1809.36	0.0006027
1820.93	0.0005971
1832.51	0.0005803
1844.08	0.000579
1855.66	0.0005116
1867.23	0.0004794
1878.8	0.00037
1890.38	0.0003467
1901.95	0.0003186
1913.53	0.000269
1925.1	0.0002473
1936.67	0.0003199
1948.25	0.0004092
1959.82	0.0004576
1971.4	0.0005369
1982.97	0.0005613
1994.54	0.0005907
2006.12	0.0004308
2017.69	0.0003232
2029.27	0.0003334
2040.84	0.000345
2052.41	0.0003246
2063.99	0.0003337
2075.56	0.0003729
2087.14	0.0004668
2098.71	0.0004715
2110.28	0.000496
2121.86	0.0006799
2133.43	0.0006054
2145.01	0.0007759
2156.58	0.0009927
2168.15	0.000827
2179.73	0.0006221
2191.3	0.0005564
2202.88	0.0005721
2214.45	0.000539
2226.02	0.0005866
2237.6	0.0006782
2249.17	0.0006701
2260.74	0.0007008
2272.32	0.0007155
2283.89	0.0007947
2295.47	0.0008478
2307.04	0.0008858
2318.61	0.0008632
2330.19	0.0009204
2341.76	0.0009322
2353.34	0.00107
2364.91	0.00104
2376.48	0.0009651
2388.06	0.0009255
2399.63	0.0009157
2411.21	0.00101
2422.78	0.00109
2434.35	0.00112
2445.93	0.00118
2457.5	0.00116
2469.08	0.00111
2480.65	0.00104
2492.22	0.0009289
2503.8	0.0009015
2515.37	0.0008676
2526.95	0.0008396
2538.52	0.0008291
2550.09	0.000853
2561.67	0.0008794
2573.24	0.0008711
2584.82	0.0007966
2596.39	0.0006223
2607.96	0.000522
2619.54	0.0003866
2631.11	0.0003951
2642.69	0.0003981
2654.26	0.0004647
2665.83	0.0003382
2677.41	0.0003068
2688.98	0.0002912
2700.56	0.0003352
2712.13	0.0003735
2723.7	0.0003747
2735.28	0.0003656
2746.85	0.0003943
2758.43	0.00048
2770	0.0005438
2781.57	0.000578
2793.15	0.0004959
2804.72	0.0005543
2816.3	0.0004933
2827.87	0.0005893
2839.44	0.0006442
2851.02	0.0007944
2862.59	0.00104
2874.17	0.00142
2885.74	0.00237
2897.31	0.00351
2908.89	0.00271
2920.46	0.00216
2932.04	0.00324
2943.61	0.00587
2955.18	0.00689
2966.76	0.00565
2978.33	0.00418
2989.91	0.00335
3001.48	0.00273
3013.05	0.00171
3024.63	0.0008277
3036.2	0.0005425
3047.78	0.0004665
3059.35	0.0003396
3070.92	0.0003062
3082.5	0.0004485
3094.07	0.0002805
3105.65	0.0001526
3117.22	0.0001778
3128.79	0.0002589
3140.37	0.0002558
3151.94	0.0002067
3163.52	0.0001328
3175.09	0.0001761
3186.66	0.0001608
3198.24	0.0002777
3209.81	0.0002626
3221.39	0.0002591
3232.96	0.0002681
3244.53	0.0002186
3256.11	0.0002503
3267.68	0.0001465
3279.26	0.0001585
3290.83	0.0002821
3302.4	0.0003289
3313.98	0.0003372
3325.55	0.0004095
3337.13	0.0004584
3348.7	0.0005491
3360.27	0.0005717
3371.85	0.0006991
3383.42	0.0008114
3395	0.0007891
3406.57	0.0007717
3418.14	0.0008765
3429.72	0.000866
3441.29	0.0007784
3452.86	0.0007455
3464.44	0.0008683
3476.01	0.0008131
3487.59	0.0008209
3499.16	0.0007948
3510.73	0.0006884
3522.31	0.0007197
3533.88	0.000753
3545.46	0.0008467
3557.03	0.0009646
3568.6	0.0008508
3580.18	0.00105
3591.75	0.00129
3603.33	0.00134
3614.9	0.00175
3626.47	0.00255
3638.05	0.00574
3649.62	0.01675
3661.2	0.02166
3672.77	0.01264
3684.34	0.00613
3695.92	0.00296
3707.49	0.00196
3719.07	0.00152
3730.64	0.00146
3742.21	0.00131
3753.79	0.0009434
3765.36	0.00106
3776.94	0.00102
3788.51	0.0009798
3800.08	0.000883
3811.66	0.0009708
3823.23	0.0009866
3834.81	0.00108
3846.38	0.00102
3857.95	0.00119
3869.53	0.00111
3881.1	0.00122
3892.68	0.0009377
3904.25	0.00108
3915.82	0.00117
3927.4	0.00113
3938.97	0.0008423
3950.55	0.0007022
3962.12	0.0006701
3973.69	0.0006814
3985.27	0.0007778
3996.84	0.0007633
