Infrared Spectrum: 1,1,1,4,4,4-HEXAFLUORO TETRACHLORO BUTANE
Formula: C4 Cl4 F6
CAS: 375-34-8
State: SOLUTION (10% CCl4 FOR 5000-1330, 10% CS2 FOR 1330-625 CM^-^1)
Melting point: 82-84 C
Class: COBLENTZ
Instrument: Not specified, most likely a prism, grating, or hybrid spectrometer.
Sampling: TRANSMISSION
Path length: 0.0122 CM, 0.0120 CM
Resolution: 4
Origin: DOW CHEMICAL COMPANY
MICROMETERS	TRANSMITTANCE
2.027	0.9
2.0681	0.9
2.1092	0.9
2.1503	0.902
2.19139	0.902
2.23249	0.898
2.27359	0.897
2.31469	0.895
2.35579	0.897
2.39689	0.898
2.43798	0.904
2.47908	0.91
2.52018	0.914
2.56128	0.914
2.60238	0.914
2.64348	0.916
2.68457	0.917
2.72567	0.916
2.76677	0.914
2.80787	0.912
2.84897	0.91
2.89007	0.91
2.93116	0.909
2.97226	0.91
3.01336	0.91
3.05446	0.912
3.09556	0.912
3.13666	0.912
3.17775	0.914
3.21885	0.917
3.25995	0.921
3.30105	0.919
3.34215	0.919
3.38325	0.917
3.42434	0.921
3.46544	0.922
3.50654	0.922
3.54764	0.922
3.58874	0.922
3.62984	0.921
3.67094	0.921
3.71203	0.922
3.75313	0.922
3.79423	0.924
3.83533	0.924
3.87643	0.924
3.91753	0.924
3.95862	0.924
3.99972	0.924
4.04082	0.917
4.08192	0.904
4.12302	0.881
4.16412	0.89
4.20521	0.917
4.24631	0.921
4.28741	0.921
4.32851	0.919
4.36961	0.928
4.41071	0.934
4.4518	0.933
4.4929	0.929
4.534	0.931
4.5751	0.929
4.6162	0.917
4.6573	0.912
4.69839	0.91
4.73949	0.921
4.78059	0.922
4.82169	0.919
4.86279	0.912
4.90389	0.917
4.94498	0.921
4.98608	0.921
5.02718	0.919
5.06828	0.921
5.10938	0.933
5.15048	0.931
5.19158	0.929
5.23267	0.931
5.27377	0.931
5.31487	0.931
5.35597	0.931
5.39707	0.931
5.43817	0.931
5.47926	0.933
5.52036	0.931
5.56146	0.931
5.60256	0.926
5.64366	0.921
5.68476	0.921
5.72585	0.921
5.76695	0.921
5.80805	0.928
5.84915	0.936
5.89025	0.938
5.93135	0.934
5.97244	0.926
6.01354	0.931
6.05464	0.931
6.09574	0.921
6.13684	0.917
6.17794	0.917
6.21903	0.919
6.26013	0.94
6.30123	0.946
6.34233	0.946
6.38343	0.946
6.42453	0.946
6.46562	0.95
6.50672	0.952
6.54782	0.952
6.58892	0.948
6.63002	0.936
6.67112	0.931
6.71221	0.928
6.75331	0.922
6.79441	0.917
6.83551	0.916
6.87661	0.917
6.91771	0.921
6.95881	0.919
6.9999	0.91
7.041	0.902
7.0821	0.883
7.1232	0.881
7.1643	0.886
7.2054	0.89
7.24649	0.905
7.28759	0.916
7.32869	0.916
7.36979	0.909
7.41089	0.898
7.45199	0.898
7.49308	0.897
7.53418	0.88
7.57528	0.864
7.61638	0.866
7.65748	0.866
7.69858	0.869
7.73967	0.873
7.78077	0.835
7.82187	0.746
7.86297	0.679
7.90407	0.648
7.94517	0.58
7.98626	0.496
8.02736	0.284
8.06846	0.085
8.10956	0.041
8.15066	0.034
8.19176	0.032
8.23285	0.029
8.27395	0.029
8.31505	0.029
8.35615	0.029
8.39725	0.066
8.43835	0.337
8.47945	0.486
8.52054	0.537
8.56164	0.587
8.60274	0.696
8.64384	0.789
8.68494	0.82
8.72604	0.845
8.76713	0.857
8.80823	0.868
8.84933	0.873
8.89043	0.868
8.93153	0.869
8.97263	0.868
9.01372	0.849
9.05482	0.84
9.09592	0.849
9.13702	0.868
9.17812	0.875
9.21922	0.883
9.26031	0.888
9.30141	0.892
9.34251	0.897
9.38361	0.9
9.42471	0.9
9.46581	0.9
9.5069	0.898
9.548	0.897
9.5891	0.897
9.6302	0.897
9.6713	0.897
9.7124	0.897
9.75349	0.897
9.79459	0.898
9.83569	0.898
9.87679	0.898
9.91789	0.898
9.95899	0.902
10.0001	0.905
10.0412	0.909
10.0823	0.909
10.1234	0.907
10.1645	0.905
10.2056	0.905
10.2467	0.902
10.2878	0.9
10.3289	0.897
10.37	0.888
10.4111	0.881
10.4522	0.876
10.4933	0.869
10.5344	0.863
10.5755	0.861
10.6166	0.866
10.6577	0.88
10.6988	0.885
10.7399	0.89
10.781	0.892
10.8221	0.893
10.8632	0.893
10.9042	0.89
10.9453	0.886
10.9864	0.883
11.0275	0.88
11.0686	0.878
11.1097	0.883
11.1508	0.888
11.1919	0.893
11.233	0.895
11.2741	0.897
11.3152	0.898
11.3563	0.898
11.3974	0.898
11.4385	0.898
11.4796	0.895
11.5207	0.886
11.5618	0.883
11.6029	0.871
11.644	0.849
11.6851	0.808
11.7262	0.746
11.7673	0.625
11.8084	0.429
11.8495	0.318
11.8906	0.339
11.9317	0.446
11.9728	0.416
12.0139	0.227
12.055	0.056
12.0961	0.029
12.1372	0.059
12.1783	0.208
12.2194	0.443
12.2605	0.578
12.3016	0.659
12.3427	0.71
12.3838	0.739
12.4249	0.748
12.466	0.746
12.5071	0.698
12.5482	0.659
12.5893	0.616
12.6304	0.547
12.6715	0.45
12.7126	0.33
12.7537	0.289
12.7948	0.4
12.8359	0.547
12.877	0.568
12.9181	0.577
12.9592	0.628
13.0003	0.739
13.0414	0.806
13.0825	0.832
13.1236	0.842
13.1647	0.854
13.2058	0.857
13.2469	0.861
13.288	0.868
13.3291	0.871
13.3702	0.875
13.4113	0.883
13.4523	0.886
13.4934	0.897
13.5345	0.9
13.5756	0.9
13.6167	0.9
13.6578	0.9
13.6989	0.897
13.74	0.892
13.7811	0.878
13.8222	0.856
13.8633	0.82
13.9044	0.768
13.9455	0.679
13.9866	0.558
14.0277	0.273
14.0688	0.22
14.1099	0.231
14.151	0.448
14.1921	0.638
14.2332	0.746
14.2743	0.767
14.3154	0.736
14.3565	0.616
14.3976	0.489
14.4387	0.351
14.4798	0.332
14.5209	0.469
14.562	0.621
14.6031	0.756
14.6442	0.821
14.6853	0.839
14.7264	0.84
14.7675	0.806
14.8086	0.734
14.8497	0.659
14.8908	0.618
14.9319	0.613
14.973	0.659
15.0141	0.77
15.0552	0.842
15.0963	0.868
15.1374	0.886
15.1785	0.907
15.2196	0.914
15.2607	0.921
15.3018	0.926
15.3429	0.928
15.384	0.929
15.4251	0.933
15.4662	0.933
15.5073	0.936
15.5484	0.936
15.5895	0.936
15.6306	0.936
15.6717	0.936
15.7128	0.936
15.7539	0.934
15.795	0.928
15.8361	0.921
15.8772	0.916
15.9183	0.914
