Infrared Spectrum: Perfluorononanoic acid
Formula: C 9 H F 17 O 2
CAS: 375-95-1
State: gas
Origin: EPA-IR VAPOR PHASE LIBRARY
1/CM	ABSORBANCE
549.8	0.060421
559.445	0.082611
569.09	0.083911
578.734	0.071321
588.379	0.066531
598.024	0.065141
607.669	0.066781
617.313	0.074041
626.958	0.082761
636.603	0.084981
646.248	0.093491
655.893	0.105641
665.537	0.098651
675.182	0.068611
684.827	0.062041
694.472	0.073391
704.116	0.096701
713.761	0.069761
723.406	0.077671
733.051	0.095531
742.695	0.098251
752.34	0.060901
761.985	0.041191
771.63	0.057471
781.275	0.073551
790.919	0.066851
800.564	0.053791
810.209	0.048081
819.854	0.052101
829.498	0.044461
839.143	0.027801
848.788	0.025971
858.433	0.037631
868.078	0.044161
877.722	0.037441
887.367	0.026241
897.012	0.017951
906.657	0.016991
916.301	0.019311
925.946	0.022741
935.591	0.024601
945.236	0.028441
954.88	0.038601
964.525	0.047971
974.17	0.053221
983.815	0.043791
993.46	0.026271
1003.1	0.018571
1012.75	0.022191
1022.39	0.036781
1032.04	0.052261
1041.68	0.051241
1051.33	0.039771
1060.97	0.031121
1070.62	0.034951
1080.26	0.051671
1089.91	0.069681
1099.55	0.093341
1109.2	0.137141
1118.84	0.182941
1128.49	0.258751
1138.13	0.295311
1147.78	0.333181
1157.42	0.294031
1167.07	0.257291
1176.71	0.288021
1186.36	0.337011
1196	0.420661
1205.64	0.568321
1215.29	0.699571
1224.93	0.704081
1234.58	0.819801
1244.22	1.03021
1253.87	0.569591
1263.51	0.220731
1273.16	0.129111
1282.8	0.093681
1292.45	0.078531
1302.09	0.070491
1311.74	0.073291
1321.38	0.071951
1331.03	0.074971
1340.67	0.084631
1350.32	0.072401
1359.96	0.054151
1369.61	0.036801
1379.25	0.038181
1388.9	0.035681
1398.54	0.021131
1408.18	0.013901
1417.83	0.010651
1427.47	0.008701
1437.12	0.007391
1446.76	0.006541
1456.41	0.006071
1466.05	0.005781
1475.7	0.005061
1485.34	0.004831
1494.99	0.004671
1504.63	0.004521
1514.28	0.004811
1523.92	0.005021
1533.57	0.005101
1543.21	0.004851
1552.86	0.004741
1562.5	0.004541
1572.15	0.004031
1581.79	0.003481
1591.44	0.003261
1601.08	0.003001
1610.73	0.002901
1620.37	0.002751
1630.01	0.002841
1639.66	0.002741
1649.3	0.002741
1658.95	0.002771
1668.59	0.003111
1678.24	0.003211
1687.88	0.002961
1697.53	0.003191
1707.17	0.003571
1716.82	0.003801
1726.46	0.004361
1736.11	0.005331
1745.75	0.007201
1755.4	0.010891
1765.04	0.018271
1774.69	0.028881
1784.33	0.041781
1793.98	0.068031
1803.62	0.137851
1813.27	0.261991
1822.91	0.161501
1832.55	0.083081
1842.2	0.053891
1851.84	0.028531
1861.49	0.016711
1871.13	0.010651
1880.78	0.007341
1890.42	0.005331
1900.07	0.004201
1909.71	0.003401
1919.36	0.002891
1929	0.002661
1938.65	0.002461
1948.29	0.002091
1957.94	0.002041
1967.58	0.002141
1977.23	0.002061
1986.87	0.002031
1996.52	0.001831
2006.16	0.001597
2015.81	0.0015282
2025.45	0.0012695
2035.1	0.0011524
2044.74	0.001273
2054.38	0.0012834
2064.03	0.0013954
2073.67	0.0013343
2083.32	0.0012231
2092.96	0.0011737
2102.61	0.0011793
2112.25	0.0011644
2121.9	0.001186
2131.54	0.0010974
2141.19	0.0011865
2150.83	0.0012671
2160.48	0.0011915
2170.12	0.0013598
2179.77	0.0015157
2189.41	0.0015539
2199.06	0.0015647
2208.7	0.001691
2218.35	0.001811
2227.99	0.001801
2237.64	0.001871
2247.28	0.001901
2256.92	0.002121
2266.57	0.002181
2276.21	0.002691
2285.86	0.003161
2295.5	0.004311
2305.15	0.005151
2314.79	0.006131
2324.44	0.006961
2334.08	0.007001
2343.73	0.007161
2353.37	0.007451
2363.02	0.008611
2372.66	0.007791
2382.31	0.006041
2391.95	0.005211
2401.6	0.004901
2411.24	0.004891
2420.89	0.004901
2430.53	0.004591
2440.18	0.004501
2449.82	0.004251
2459.47	0.004351
2469.11	0.004251
2478.75	0.004171
2488.4	0.004151
2498.04	0.003641
2507.69	0.003471
2517.33	0.003021
2526.98	0.002771
2536.62	0.002361
2546.27	0.002181
2555.91	0.002091
2565.56	0.002051
2575.2	0.001981
2584.85	0.001781
2594.49	0.0014251
2604.14	0.0012709
2613.78	0.000966
2623.43	0.0008359
2633.07	0.0005466
2642.72	0.000463
2652.36	0.000382
2662.01	0.000388
2671.65	0.000468
2681.29	0.000197
2690.94	0.000198
2700.58	0.000274
2710.23	0.00044
2719.87	0.000193
2729.52	0.000346
2739.16	0.000376
2748.81	0.000223
2758.45	0.000359
2768.1	0.000418
2777.74	0.000356
2787.39	0.000358
2797.03	0.000375
2806.68	0.000294
2816.32	0.000332
2825.97	0.000264
2835.61	0.000455
2845.26	0.000423
2854.9	0.000206
2864.55	0.000286
2874.19	0.000432
2883.84	0.0005042
2893.48	0.00044
2903.12	0.00063124
2912.77	0.0008405
2922.41	0.0012043
2932.06	0.0010563
2941.7	0.0009843
2951.35	0.0008698
2960.99	0.0008021
2970.64	0.0009061
2980.28	0.000843
2989.93	0.0007672
2999.57	0.0008489
3009.22	0.0010539
3018.86	0.0008227
3028.51	0.0007877
3038.15	0.0009968
3047.8	0.00069574
3057.44	0.0007969
3067.09	0.0008104
3076.73	0.0007435
3086.38	0.000351
3096.02	0.00037
3105.67	0.0005064
3115.31	0.000402
3124.95	0.000473
3134.6	0.000479
3144.24	0.000451
3153.89	0.000195
3163.53	0.000429
3173.18	0.000463
3182.82	0.000404
3192.47	0.0005702
3202.11	0.000379
3211.76	0.00035
3221.4	0.000193
3231.05	0.000472
3240.69	0.000218
3250.34	0.000318
3259.98	0.000155
3269.63	0.000399
3279.27	0.000234
3288.92	4.9e-05
3298.56	0.00015
3308.21	0.000227
3317.85	0.000434
3327.49	0.000346
3337.14	0.000127
3346.78	0.00017
3356.43	0.000164
3366.07	0.0005542
3375.72	0.000317
3385.36	0.000252
3395.01	0.000472
3404.65	0.000382
3414.3	0.000208
3423.94	0.000484
3433.59	0.000441
3443.23	0.000282
3452.88	0.000364
3462.52	0.000498
3472.17	0.0007201
3481.81	0.0007122
3491.46	0.0007814
3501.1	0.0010101
3510.75	0.0012699
3520.39	0.001611
3530.04	0.002341
3539.68	0.004131
3549.32	0.009071
3558.97	0.025471
3568.61	0.145431
3578.26	0.097041
3587.9	0.021491
3597.55	0.017991
3607.19	0.017391
3616.84	0.008491
3626.48	0.004741
3636.13	0.003081
3645.77	0.002171
3655.42	0.001721
3665.06	0.0014463
3674.71	0.0009981
3684.35	0.000449
3694	0.0010756
3703.64	0.0005538
3713.29	0.000437
3722.93	0.0006421
3732.58	0.0008745
3742.22	0.0008773
3751.86	0.0005284
3761.51	0.000355
3771.15	0.000457
3780.8	0.0005026
3790.44	0.000125
3800.09	0.000211
3809.73	0.000452
3819.38	0.0005835
3829.02	0.00062047
3838.67	0.000384
3848.31	0.00061879
3857.96	0.000409
3867.6	0.00023
3877.25	0.000402
3886.89	0.000286
3896.54	0.000237
3906.18	0.000366
3915.83	0.0005837
3925.47	0.000495
3935.12	0.0005216
3944.76	0.000328
3954.41	0.0005575
3964.05	0.000294
3973.69	0.000252
3983.34	0.000136
3992.98	0.000285
