Infrared Spectrum: 3,4-DICHLORO-2,2,3,4,4-PENTAFLUROBUTYRIC ACID
Formula: C4 H Cl2 F5 O2
CAS: 375-07-5
State: LIQUID
Class: COBLENTZ
Instrument: Not specified, most likely a prism, grating, or hybrid spectrometer.
Sampling: TRANSMISSION
Path length: CAPILLARY
Resolution: 4
Origin: WYANDOTTE CHEMICALS CORP., WYANDOTTE, MICHIGAN, USA
MICROMETERS	TRANSMITTANCE
2.018	0.961
2.05487	0.967
2.09175	0.969
2.12862	0.966
2.1655	0.97
2.20237	0.978
2.23925	0.978
2.27612	0.98
2.313	0.983
2.34987	0.978
2.38675	0.975
2.42362	0.978
2.4605	0.976
2.49737	0.978
2.53425	0.975
2.57112	0.973
2.608	0.963
2.64487	0.901
2.68175	0.82
2.71862	0.803
2.7555	0.76
2.79237	0.681
2.82925	0.644
2.86612	0.635
2.903	0.624
2.93987	0.593
2.97675	0.543
3.01362	0.433
3.0505	0.344
3.08737	0.287
3.12425	0.264
3.16112	0.263
3.198	0.258
3.23487	0.269
3.27175	0.292
3.30862	0.329
3.3455	0.338
3.38237	0.341
3.41925	0.361
3.45612	0.396
3.493	0.42
3.52987	0.466
3.56675	0.512
3.60362	0.561
3.6405	0.576
3.67737	0.567
3.71425	0.549
3.75112	0.57
3.788	0.6
3.82487	0.612
3.86175	0.612
3.89862	0.592
3.9355	0.583
3.97237	0.596
4.00925	0.61
4.04612	0.63
4.083	0.656
4.11987	0.68
4.15675	0.693
4.19362	0.709
4.2305	0.735
4.26737	0.753
4.30425	0.756
4.34112	0.76
4.378	0.772
4.41487	0.79
4.45175	0.8
4.48862	0.81
4.5255	0.815
4.56237	0.818
4.59925	0.824
4.63612	0.827
4.673	0.84
4.70987	0.849
4.74675	0.847
4.78362	0.85
4.82049	0.85
4.85737	0.849
4.89424	0.841
4.93112	0.833
4.96799	0.826
5.00487	0.824
5.04174	0.813
5.07862	0.81
5.11549	0.806
5.15237	0.798
5.18924	0.795
5.22612	0.792
5.26299	0.793
5.29987	0.796
5.33674	0.786
5.37362	0.786
5.41049	0.773
5.44737	0.767
5.48424	0.733
5.52112	0.646
5.55799	0.413
5.59487	0.158
5.63174	0.05
5.66862	0.038
5.70549	0.103
5.74237	0.224
5.77924	0.338
5.81612	0.438
5.85299	0.506
5.88987	0.56
5.92674	0.596
5.96362	0.626
6.00049	0.653
6.03737	0.658
6.07424	0.669
6.11112	0.661
6.14799	0.658
6.18487	0.686
6.22174	0.726
6.25862	0.758
6.29549	0.769
6.33237	0.778
6.36924	0.778
6.40612	0.783
6.44299	0.778
6.47987	0.775
6.51674	0.781
6.55362	0.79
6.59049	0.789
6.62737	0.783
6.66424	0.769
6.70112	0.755
6.73799	0.738
6.77487	0.696
6.81174	0.652
6.84862	0.586
6.88549	0.507
6.92237	0.441
6.95924	0.39
6.99612	0.421
7.03299	0.47
7.06987	0.516
7.10674	0.57
7.14362	0.61
7.18049	0.65
7.21737	0.673
7.25424	0.686
7.29112	0.695
7.32799	0.693
7.36487	0.698
7.40174	0.681
7.43862	0.673
7.47549	0.66
7.51237	0.646
7.54924	0.627
7.58612	0.601
7.62299	0.584
7.65986	0.566
7.69674	0.53
7.73361	0.493
7.77049	0.447
7.80736	0.409
7.84424	0.395
7.88111	0.387
7.91799	0.384
7.95486	0.36
7.99174	0.329
8.02861	0.256
8.06549	0.178
8.10236	0.093
8.13924	0.066
8.17611	0.061
8.21299	0.049
8.24986	0.046
8.28674	0.04
8.32361	0.035
8.36049	0.038
8.39736	0.038
8.43424	0.035
8.47111	0.035
8.50799	0.038
8.54486	0.043
8.58174	0.05
8.61861	0.066
8.65549	0.081
8.69236	0.1
8.72924	0.103
8.76611	0.104
8.80299	0.138
8.83986	0.176
8.87674	0.192
8.91361	0.152
8.95049	0.126
8.98736	0.126
9.02424	0.164
9.06111	0.221
9.09799	0.287
9.13486	0.369
9.17174	0.418
9.20861	0.433
9.24549	0.444
9.28236	0.47
9.31924	0.516
9.35611	0.507
9.39299	0.443
9.42986	0.293
9.46674	0.218
9.50361	0.226
9.54049	0.23
9.57736	0.175
9.61424	0.144
9.65111	0.184
9.68799	0.287
9.72486	0.36
9.76174	0.378
9.79861	0.336
9.83549	0.335
9.87236	0.409
9.90924	0.503
9.94611	0.558
9.98299	0.587
10.0199	0.61
10.0567	0.616
10.0936	0.618
10.1305	0.621
10.1674	0.62
10.2042	0.609
10.2411	0.596
10.278	0.583
10.3149	0.55
10.3517	0.507
10.3886	0.447
10.4255	0.3
10.4624	0.18
10.4992	0.126
10.5361	0.127
10.573	0.19
10.6099	0.284
10.6467	0.347
10.6836	0.396
10.7205	0.389
10.7574	0.353
10.7942	0.309
10.8311	0.227
10.868	0.187
10.9049	0.183
10.9417	0.175
10.9786	0.204
11.0155	0.29
11.0524	0.34
11.0892	0.35
11.1261	0.346
11.163	0.323
11.1999	0.316
11.2367	0.332
11.2736	0.358
11.3105	0.376
11.3474	0.384
11.3842	0.389
11.4211	0.393
11.458	0.395
11.4949	0.406
11.5317	0.416
11.5686	0.432
11.6055	0.443
11.6424	0.44
11.6792	0.426
11.7161	0.4
11.753	0.363
11.7899	0.309
11.8267	0.24
11.8636	0.184
11.9005	0.164
11.9374	0.141
11.9742	0.121
12.0111	0.112
12.048	0.109
12.0849	0.141
12.1217	0.198
12.1586	0.26
12.1955	0.304
12.2324	0.338
12.2692	0.336
12.3061	0.318
12.343	0.309
12.3799	0.306
12.4167	0.327
12.4536	0.35
12.4905	0.38
12.5274	0.407
12.5642	0.43
12.6011	0.443
12.638	0.452
12.6749	0.458
12.7117	0.461
12.7486	0.455
12.7855	0.447
12.8224	0.44
12.8592	0.435
12.8961	0.433
12.933	0.433
12.9699	0.432
13.0067	0.43
13.0436	0.441
13.0805	0.458
13.1174	0.461
13.1542	0.47
13.1911	0.487
13.228	0.498
13.2649	0.501
13.3017	0.507
13.3386	0.518
13.3755	0.523
13.4124	0.527
13.4492	0.533
13.4861	0.543
13.523	0.54
13.5599	0.538
13.5967	0.541
13.6336	0.54
13.6705	0.536
13.7074	0.53
13.7442	0.53
13.7811	0.527
13.818	0.523
13.8549	0.513
13.8917	0.515
13.9286	0.5
13.9655	0.49
14.0024	0.484
14.0392	0.481
14.0761	0.47
14.113	0.464
14.1499	0.464
14.1867	0.461
14.2236	0.46
14.2605	0.449
14.2974	0.441
14.3342	0.433
14.3711	0.427
14.408	0.416
14.4449	0.41
14.4817	0.412
14.5186	0.401
14.5555	0.403
14.5924	0.401
14.6292	0.4
14.6661	0.403
14.703	0.403
14.7399	0.407
14.7767	0.415
14.8136	0.423
14.8505	0.43
14.8874	0.44
14.9242	0.446
14.9611	0.452
14.998	0.467
15.0349	0.49
15.0717	0.507
15.1086	0.518
15.1455	0.518
15.1824	0.523
15.2192	0.535
15.2561	0.538
15.293	0.53
15.3299	0.526
15.3667	0.512
15.4036	0.498
15.4405	0.496
15.4774	0.489
15.5142	0.486
15.5511	0.489
15.588	0.498
15.6249	0.501
15.6617	0.516
15.6986	0.526
15.7355	0.533
15.7724	0.541
15.8092	0.552
15.8461	0.558
15.883	0.564
15.9199	0.57
15.9567	0.573
15.9936	0.567
