Infrared Spectrum: Heptafluorobutyryl chloride
Formula: C 4 Cl F 7 O
CAS: 375-16-6
State: gas
Origin: EPA-IR VAPOR PHASE LIBRARY
1/CM	ABSORBANCE
549.9	0.01517
559.547	0.01328
569.193	0.01318
578.84	0.01336
588.486	0.01394
598.133	0.01814
607.779	0.02456
617.426	0.02316
627.072	0.01909
636.719	0.01684
646.365	0.01658
656.012	0.01647
665.658	0.01585
675.305	0.0156
684.951	0.01921
694.598	0.02296
704.245	0.03116
713.891	0.04735
723.538	0.05608
733.184	0.06458
742.831	0.12292
752.477	0.10786
762.124	0.02671
771.77	0.01701
781.417	0.03394
791.063	0.04838
800.71	0.06442
810.356	0.09204
820.003	0.10945
829.649	0.12685
839.296	0.13309
848.943	0.11015
858.589	0.09493
868.236	0.07122
877.882	0.03475
887.529	0.02032
897.175	0.0149
906.822	0.01182
916.468	0.01076
926.115	0.011
935.761	0.01298
945.408	0.01712
955.054	0.02423
964.701	0.03526
974.347	0.05133
983.994	0.07732
993.64	0.10532
1003.29	0.0956
1012.93	0.05229
1022.58	0.02464
1032.23	0.01453
1041.87	0.01062
1051.52	0.00901
1061.17	0.00882
1070.81	0.01005
1080.46	0.01401
1090.11	0.02662
1099.75	0.05322
1109.4	0.07565
1119.05	0.1186
1128.69	0.20361
1138.34	0.17044
1147.99	0.0822
1157.63	0.07547
1167.28	0.09778
1176.92	0.13471
1186.57	0.18995
1196.22	0.23856
1205.86	0.28378
1215.51	0.33591
1225.16	0.5249
1234.8	0.86038
1244.45	0.65461
1254.1	0.29605
1263.74	0.1619
1273.39	0.1237
1283.04	0.08925
1292.68	0.05269
1302.33	0.03445
1311.98	0.03389
1321.62	0.04638
1331.27	0.07274
1340.92	0.09321
1350.56	0.07032
1360.21	0.03075
1369.86	0.0132
1379.5	0.00896
1389.15	0.00784
1398.79	0.00722
1408.44	0.00652
1418.09	0.00607
1427.73	0.00569
1437.38	0.00528
1447.03	0.00507
1456.67	0.005
1466.32	0.0048
1475.97	0.0046396
1485.61	0.0044432
1495.26	0.0043097
1504.91	0.0043192
1514.55	0.004364
1524.2	0.0042407
1533.85	0.0042685
1543.49	0.0041538
1553.14	0.0041814
1562.79	0.0042365
1572.43	0.0043776
1582.08	0.0042008
1591.73	0.003967
1601.37	0.00376202
1611.02	0.00380341
1620.67	0.0039985
1630.31	0.0039821
1639.96	0.003937
1649.6	0.0040085
1659.25	0.0041915
1668.9	0.0044622
1678.54	0.00485
1688.19	0.00522
1697.84	0.00548
1707.48	0.00603
1717.13	0.00667
1726.78	0.00757
1736.42	0.00864
1746.07	0.0109
1755.72	0.01552
1765.36	0.02479
1775.01	0.04286
1784.66	0.07973
1794.3	0.1393
1803.95	0.18024
1813.6	0.16123
1823.24	0.12383
1832.89	0.07991
1842.54	0.04307
1852.18	0.02346
1861.83	0.01403
1871.47	0.00905
1881.12	0.00666
1890.77	0.00562
1900.41	0.00498
1910.06	0.0046858
1919.71	0.0046662
1929.35	0.00477
1939	0.00474
1948.65	0.0046994
1958.29	0.0045368
1967.94	0.0045106
1977.59	0.0044247
1987.23	0.0040808
1996.88	0.0036756
2006.53	0.003418
2016.17	0.003348
2025.82	0.00316
2035.47	0.003004
2045.11	0.002896
2054.76	0.002783
2064.41	0.002743
2074.05	0.00267
2083.7	0.00264
2093.35	0.00269
2102.99	0.0026
2112.64	0.00257
2122.28	0.00259
2131.93	0.00256
2141.58	0.00264
2151.22	0.0027
2160.87	0.00267
2170.52	0.00271
2180.16	0.002751
2189.81	0.00271
2199.46	0.00272
2209.1	0.00269
2218.75	0.00278
2228.4	0.002774
2238.04	0.00271
2247.69	0.00258
2257.34	0.00245
2266.98	0.00245
2276.63	0.00251
2286.28	0.00259
2295.92	0.002787
2305.57	0.003018
2315.22	0.003257
2324.86	0.00344
2334.51	0.0036791
2344.16	0.0038654
2353.8	0.0039913
2363.45	0.0040568
2373.09	0.0041212
2382.74	0.0040258
2392.39	0.0039531
2402.03	0.0039503
2411.68	0.0039422
2421.33	0.0038794
2430.97	0.0038499
2440.62	0.0039227
2450.27	0.0040175
2459.91	0.0040808
2469.56	0.0039525
2479.21	0.0036761
2488.85	0.003248
2498.5	0.00299
2508.15	0.002831
2517.79	0.002731
2527.44	0.0027
2537.09	0.002747
2546.73	0.002801
2556.38	0.002827
2566.03	0.002892
2575.67	0.002778
2585.32	0.00263
2594.96	0.00214
2604.61	0.00184
2614.26	0.00178
2623.9	0.00165
2633.55	0.00152
2643.2	0.00153
2652.84	0.00143
2662.49	0.00132
2672.14	0.00125
2681.78	0.00118
2691.43	0.00108
2701.08	0.00107
2710.72	0.00106
2720.37	0.00098
2730.02	0.00099
2739.66	0.001
2749.31	0.00106
2758.96	0.00095
2768.6	0.00093
2778.25	0.001
2787.9	0.00097
2797.54	0.00095
2807.19	0.00088
2816.84	0.00084
2826.48	0.00079
2836.13	0.00075
2845.77	0.00067
2855.42	0.00054
2865.07	0.0005
2874.71	0.0005
2884.36	0.00034
2894.01	0.00049
2903.65	0.0005
2913.3	0.00051
2922.95	0.00041
2932.59	0.00042
2942.24	0.00053
2951.89	0.0005
2961.53	0.00053
2971.18	0.00039
2980.83	0.0004
2990.47	0.00046
3000.12	0.00035
3009.77	0.00038
3019.41	0.00049
3029.06	0.00037
3038.71	0.00039
3048.35	0.00044
3058	0.00033
3067.64	3e-05
3077.29	0.00015
3086.94	0.00021
3096.58	0.00018
3106.23	0.00014
3115.88	0.00013
3125.52	0.00021
3135.17	0.00015
3144.82	0.0001
3154.46	6e-05
3164.11	6e-05
3173.76	0.00014
3183.4	0.00027
3193.05	9e-05
3202.7	0.0001
3212.34	0.00015
3221.99	0.00021
3231.64	0.00023
3241.28	0.00027
3250.93	0.00039
3260.58	0.00049
3270.22	0.0004
3279.87	0.00045
3289.52	0.00045
3299.16	0.00075
3308.81	0.00077
3318.45	0.00041
3328.1	0.00079
3337.75	0.00081
3347.39	0.00058
3357.04	0.00085
3366.69	0.0008
3376.33	0.00109
3385.98	0.00108
3395.63	0.00101
3405.27	0.00126
3414.92	0.001
3424.57	0.00114
3434.21	0.00147
3443.86	0.00131
3453.51	0.00159
3463.15	0.00133
3472.8	0.00168
3482.45	0.00161
3492.09	0.00169
3501.74	0.00168
3511.39	0.0018
3521.03	0.00213
3530.68	0.00218
3540.33	0.0025
3549.97	0.00265
3559.62	0.003238
3569.26	0.0040509
3578.91	0.00505
3588.56	0.00573
3598.2	0.00547
3607.85	0.0044513
3617.5	0.003593
3627.14	0.003137
3636.79	0.002826
3646.44	0.00263
3656.08	0.00246
3665.73	0.00249
3675.38	0.00226
3685.02	0.00229
3694.67	0.00201
3704.32	0.00225
3713.96	0.00215
3723.61	0.00208
3733.26	0.00215
3742.9	0.00201
3752.55	0.00218
3762.2	0.00212
3771.84	0.00217
3781.49	0.00208
3791.13	0.00223
3800.78	0.00209
3810.43	0.00223
3820.07	0.00199
3829.72	0.00223
3839.37	0.00207
3849.01	0.00212
3858.66	0.00213
3868.31	0.00225
3877.95	0.00219
3887.6	0.00211
3897.25	0.00219
3906.89	0.00212
3916.54	0.00213
3926.19	0.00212
3935.83	0.00212
3945.48	0.00218
3955.13	0.00216
3964.77	0.00221
3974.42	0.00218
3984.07	0.00207
3993.71	0.00223
