Infrared Spectrum: 3-(3-Methylphenyl)propionic acid
Formula: C 10 H 12 O 2
CAS: 3751-48-2
State: gas
Origin: EPA-IR VAPOR PHASE LIBRARY
1/CM	ABSORBANCE
549.8	0.014946
559.445	0.018546
569.09	0.019126
578.734	0.015926
588.379	0.013806
598.024	0.011876
607.669	0.011526
617.313	0.012426
626.958	0.012896
636.603	0.011786
646.248	0.009926
655.893	0.007606
665.537	0.006786
675.182	0.007166
684.827	0.009896
694.472	0.014326
704.116	0.010886
713.761	0.005896
723.406	0.004786
733.051	0.003956
742.695	0.004136
752.34	0.005196
761.985	0.007506
771.63	0.011406
781.275	0.011476
790.919	0.007726
800.564	0.005326
810.209	0.003486
819.854	0.001836
829.498	0.001536
839.143	0.0013506
848.788	0.001696
858.433	0.002036
868.078	0.003446
877.722	0.004506
887.367	0.003876
897.012	0.002626
906.657	0.002516
916.301	0.002556
925.946	0.002796
935.591	0.003046
945.236	0.003136
954.88	0.003306
964.525	0.003266
974.17	0.003566
983.815	0.004096
993.46	0.004506
1003.1	0.004936
1012.75	0.005816
1022.39	0.006626
1032.04	0.007356
1041.68	0.006606
1051.33	0.006496
1060.97	0.006976
1070.62	0.009486
1080.26	0.014926
1089.91	0.022116
1099.55	0.030156
1109.2	0.048206
1118.84	0.066356
1128.49	0.054046
1138.13	0.032606
1147.78	0.023036
1157.42	0.018016
1167.07	0.015086
1176.71	0.015066
1186.36	0.015596
1196	0.015746
1205.64	0.013586
1215.29	0.011806
1224.93	0.010146
1234.58	0.008616
1244.22	0.008166
1253.87	0.008316
1263.51	0.008316
1273.16	0.007806
1282.8	0.007546
1292.45	0.007236
1302.09	0.006986
1311.74	0.006666
1321.38	0.006626
1331.03	0.006916
1340.67	0.007426
1350.32	0.008586
1359.96	0.010896
1369.61	0.013846
1379.25	0.015586
1388.9	0.013006
1398.54	0.008246
1408.18	0.006256
1417.83	0.006596
1427.47	0.007776
1437.12	0.008576
1446.76	0.008706
1456.41	0.007846
1466.05	0.005966
1475.7	0.005606
1485.34	0.007326
1494.99	0.007256
1504.63	0.004866
1514.28	0.003686
1523.92	0.003286
1533.57	0.003026
1543.21	0.002766
1552.86	0.002456
1562.5	0.002676
1572.15	0.003336
1581.79	0.004756
1591.44	0.006456
1601.08	0.009536
1610.73	0.011166
1620.37	0.005856
1630.01	0.002356
1639.66	0.001556
1649.3	0.001546
1658.95	0.001656
1668.59	0.001876
1678.24	0.001996
1687.88	0.002336
1697.53	0.002836
1707.17	0.003926
1716.82	0.005596
1726.46	0.009026
1736.11	0.014906
1745.75	0.023276
1755.4	0.035066
1765.04	0.056076
1774.69	0.082116
1784.33	0.075656
1793.98	0.045186
1803.62	0.026396
1813.27	0.015326
1822.91	0.008566
1832.55	0.005256
1842.2	0.003876
1851.84	0.003166
1861.49	0.002546
1871.13	0.001966
1880.78	0.001556
1890.42	0.001456
1900.07	0.001436
1909.71	0.001506
1919.36	0.001676
1929	0.001836
1938.65	0.001556
1948.29	0.0011102
1957.94	0.0010302
1967.58	0.0009889
1977.23	0.0008946
1986.87	0.0009173
1996.52	0.0009441
2006.16	0.0007954
2015.81	0.0008259
2025.45	0.0007646
2035.1	0.0007614
2044.74	0.0007331
2054.38	0.0007047
2064.03	0.0007666
2073.67	0.0006954
2083.32	0.0007101
2092.96	0.0006413
2102.61	0.0007099
2112.25	0.0006898
2121.9	0.0008357
2131.54	0.0007494
2141.19	0.0007056
2150.83	0.0006832
2160.48	0.0006708
2170.12	0.0006993
2179.77	0.000738
2189.41	0.0007378
2199.06	0.0008267
2208.7	0.0008733
2218.35	0.0008974
2227.99	0.0008242
2237.64	0.0008484
2247.28	0.0008864
2256.92	0.0008554
2266.57	0.0008093
2276.21	0.0007219
2285.86	0.0006609
2295.5	0.0007427
2305.15	0.0007392
2314.79	0.0007026
2324.44	0.0007519
2334.08	0.0008237
2343.73	0.0006981
2353.37	0.0007308
2363.02	0.0006132
2372.66	0.00066
2382.31	0.0007046
2391.95	0.0007118
2401.6	0.0007453
2411.24	0.0006969
2420.89	0.0007489
2430.53	0.0006745
2440.18	0.0006563
2449.82	0.0006902
2459.47	0.0006264
2469.11	0.000786
2478.75	0.0006673
2488.4	0.0005911
2498.04	0.000712
2507.69	0.0005465
2517.33	0.0005718
2526.98	0.0005624
2536.62	0.0005626
2546.27	0.0006928
2555.91	0.00051615
2565.56	0.00051573
2575.2	0.00048831
2584.85	0.00047606
2594.49	0.00052348
2604.14	0.0005825
2613.78	0.0005394
2623.43	0.0005431
2633.07	0.00049223
2642.72	0.000687
2652.36	0.0005362
2662.01	0.0005586
2671.65	0.00049237
2681.29	0.0006688
2690.94	0.0005549
2700.58	0.0005933
2710.23	0.0006981
2719.87	0.0005593
2729.52	0.0008325
2739.16	0.0010473
2748.81	0.0008987
2758.45	0.0006978
2768.1	0.0007075
2777.74	0.0008509
2787.39	0.0007561
2797.03	0.0007525
2806.68	0.0009394
2816.32	0.0010318
2825.97	0.001456
2835.61	0.001906
2845.26	0.002536
2854.9	0.003736
2864.55	0.005586
2874.19	0.007236
2883.84	0.007066
2893.48	0.006396
2903.12	0.007116
2912.77	0.009096
2922.41	0.013656
2932.06	0.017966
2941.7	0.016676
2951.35	0.012606
2960.99	0.010006
2970.64	0.008386
2980.28	0.007166
2989.93	0.007236
2999.57	0.007856
3009.22	0.009666
3018.86	0.012506
3028.51	0.014936
3038.15	0.014176
3047.8	0.011646
3057.44	0.011066
3067.09	0.009446
3076.73	0.005946
3086.38	0.003666
3096.02	0.002966
3105.67	0.002556
3115.31	0.001976
3124.95	0.0011197
3134.6	0.0008758
3144.24	0.000649
3153.89	0.0006591
3163.53	0.000706
3173.18	0.0004117
3182.82	0.00048968
3192.47	0.00042937
3202.11	0.000224
3211.76	0.0003454
3221.4	0.00046698
3231.05	0.00047651
3240.69	0.0003945
3250.34	0.0003516
3259.98	0.00045636
3269.63	0.000264
3279.27	0.0003854
3288.92	0.000238
3298.56	0.000311
3308.21	0.000155
3317.85	0.000323
3327.49	3e-05
3337.14	0.0004008
3346.78	0.0004204
3356.43	0.000256
3366.07	0.0003595
3375.72	0.000256
3385.36	0.0003557
3395.01	0.0004275
3404.65	0.00038
3414.3	0.0003471
3423.94	0.0003764
3433.59	0.00049079
3443.23	0.000189
3452.88	0.000365
3462.52	0.0006513
3472.17	0.0005466
3481.81	0.000316
3491.46	0.0006723
3501.1	0.0006505
3510.75	0.0009978
3520.39	0.00133
3530.04	0.001756
3539.68	0.002306
3549.32	0.003056
3558.97	0.006776
3568.61	0.026926
3578.26	0.033966
3587.9	0.009036
3597.55	0.003056
3607.19	0.001946
3616.84	0.001243
3626.48	0.0010334
3636.13	0.0008331
3645.77	0.0006215
3655.42	0.00046088
3665.06	0.000362
3674.71	0.000216
3684.35	0.000251
3694	0.00049333
3703.64	0.000261
3713.29	0.00019
3722.93	0.00042722
3732.58	0
3742.22	0.000234
3751.86	0.0003613
3761.51	0.000205
3771.15	0.0003583
3780.8	0.000146
3790.44	0.000235
3800.09	0.000283
3809.73	0.000333
3819.38	0.000174
3829.02	0.0003646
3838.67	0.000241
3848.31	0.000208
3857.96	0.000215
3867.6	0.0004636
3877.25	0.000266
3886.89	0.000311
3896.54	0.000295
3906.18	0.00042857
3915.83	0.00012
3925.47	0.000208
3935.12	0.000219
3944.76	0.000294
3954.41	0.00049158
3964.05	0.0003516
3973.69	0.00029
3983.34	0.000297
3992.98	0.000104
