Infrared Spectrum: p-Nonylaniline
Formula: C 15 H 25 N
CAS: 37529-29-6
State: gas
Origin: EPA-IR VAPOR PHASE LIBRARY
1/CM	ABSORBANCE
549.8	0.01686
559.445	0.01365
569.09	0.01008
578.734	0.0094
588.379	0.00889
598.024	0.0087
607.669	0.0093
617.313	0.01113
626.958	0.015
636.603	0.0235
646.248	0.03746
655.893	0.04037
665.537	0.03064
675.182	0.0251
684.827	0.02215
694.472	0.01896
704.116	0.01681
713.761	0.01563
723.406	0.0146
733.051	0.01338
742.695	0.01261
752.34	0.01239
761.985	0.0129
771.63	0.01424
781.275	0.01637
790.919	0.0206
800.564	0.02691
810.209	0.03308
819.854	0.0328
829.498	0.0244
839.143	0.01774
848.788	0.01311
858.433	0.00971
868.078	0.00774
877.722	0.00659
887.367	0.00602
897.012	0.00516
906.657	0.00491
916.301	0.00456
925.946	0.00445
935.591	0.00433
945.236	0.00424
954.88	0.00467
964.525	0.00486
974.17	0.0055
983.815	0.00497
993.46	0.00461
1003.1	0.00448
1012.75	0.00531
1022.39	0.00547
1032.04	0.0052
1041.68	0.00628
1051.33	0.00701
1060.97	0.00843
1070.62	0.00914
1080.26	0.01024
1089.91	0.00869
1099.55	0.00754
1109.2	0.00767
1118.84	0.00942
1128.49	0.01008
1138.13	0.00643
1147.78	0.00387
1157.42	0.00409
1167.07	0.00582
1176.71	0.01725
1186.36	0.01126
1196	0.00414
1205.64	0.00377
1215.29	0.004
1224.93	0.00528
1234.58	0.00824
1244.22	0.0149
1253.87	0.03127
1263.51	0.06706
1273.16	0.06428
1282.8	0.0269
1292.45	0.01356
1302.09	0.011
1311.74	0.00973
1321.38	0.00908
1331.03	0.00963
1340.67	0.01163
1350.32	0.01242
1359.96	0.01068
1369.61	0.00883
1379.25	0.00791
1388.9	0.00672
1398.54	0.00541
1408.18	0.00567
1417.83	0.00649
1427.47	0.00839
1437.12	0.01212
1446.76	0.01954
1456.41	0.02503
1466.05	0.02452
1475.7	0.017
1485.34	0.01317
1494.99	0.01848
1504.63	0.0497
1514.28	0.12407
1523.92	0.06021
1533.57	0.01804
1543.21	0.0092
1552.86	0.00652
1562.5	0.00623
1572.15	0.00728
1581.79	0.00968
1591.44	0.01318
1601.08	0.01977
1610.73	0.03554
1620.37	0.06511
1630.01	0.07237
1639.66	0.03332
1649.3	0.01336
1658.95	0.00796
1668.59	0.00566
1678.24	0.00439
1687.88	0.00395
1697.53	0.0037
1707.17	0.00382
1716.82	0.00332
1726.46	0.00279
1736.11	0.00269
1745.75	0.00306
1755.4	0.0026
1765.04	0.00187
1774.69	0.00153
1784.33	0.00144
1793.98	0.00141
1803.62	0.0014
1813.27	0.00152
1822.91	0.00156
1832.55	0.00186
1842.2	0.00223
1851.84	0.00309
1861.49	0.00405
1871.13	0.00411
1880.78	0.00284
1890.42	0.00198
1900.07	0.0018
1909.71	0.00188
1919.36	0.00189
1929	0.00181
1938.65	0.0015
1948.29	0.00146
1957.94	0.00133
1967.58	0.00122
1977.23	0.00116
1986.87	0.00119
1996.52	0.0012
2006.16	0.00138
2015.81	0.00154
2025.45	0.00171
2035.1	0.00169
2044.74	0.00162
2054.38	0.00158
2064.03	0.00167
2073.67	0.00165
2083.32	0.00142
2092.96	0.00139
2102.61	0.00129
2112.25	0.00126
2121.9	0.0009944
2131.54	0.0009956
2141.19	0.0009293
2150.83	0.00103
2160.48	0.00104
2170.12	0.0009906
2179.77	0.0009658
2189.41	0.0009729
2199.06	0.0009868
2208.7	0.0008781
2218.35	0.0007793
2227.99	0.000894
2237.64	0.0008884
2247.28	0.00103
2256.92	0.00102
2266.57	0.00114
2276.21	0.00119
2285.86	0.00113
2295.5	0.00121
2305.15	0.00135
2314.79	0.00125
2324.44	0.0012
2334.08	0.00123
2343.73	0.00124
2353.37	0.00128
2363.02	0.00112
2372.66	0.00097
2382.31	0.00103
2391.95	0.0009279
2401.6	0.0009636
2411.24	0.0009137
2420.89	0.0009866
2430.53	0.000987
2440.18	0.00104
2449.82	0.0009607
2459.47	0.0011
2469.11	0.0009595
2478.75	0.0009981
2488.4	0.0009659
2498.04	0.0009546
2507.69	0.00119
2517.33	0.00134
2526.98	0.00169
2536.62	0.00175
2546.27	0.00147
2555.91	0.0015
2565.56	0.00151
2575.2	0.00171
2584.85	0.00178
2594.49	0.00201
2604.14	0.00215
2613.78	0.00229
2623.43	0.00248
2633.07	0.00257
2642.72	0.00266
2652.36	0.00284
2662.01	0.00312
2671.65	0.0032
2681.29	0.00325
2690.94	0.00318
2700.58	0.00311
2710.23	0.00303
2719.87	0.00301
2729.52	0.00339
2739.16	0.00356
2748.81	0.00375
2758.45	0.00391
2768.1	0.00431
2777.74	0.00498
2787.39	0.00564
2797.03	0.0069
2806.68	0.00825
2816.32	0.01058
2825.97	0.01407
2835.61	0.02038
2845.26	0.03715
2854.9	0.08174
2864.55	0.1123
2874.19	0.08391
2883.84	0.06653
2893.48	0.0626
2903.12	0.08181
2912.77	0.12489
2922.41	0.20927
2932.06	0.29946
2941.7	0.2292
2951.35	0.12358
2960.99	0.09502
2970.64	0.08359
2980.28	0.04541
2989.93	0.03071
2999.57	0.03233
3009.22	0.03416
3018.86	0.03556
3028.51	0.04218
3038.15	0.03151
3047.8	0.02067
3057.44	0.01734
3067.09	0.01305
3076.73	0.00953
3086.38	0.0078
3096.02	0.00704
3105.67	0.00587
3115.31	0.00462
3124.95	0.00391
3134.6	0.0035
3144.24	0.00254
3153.89	0.00214
3163.53	0.00183
3173.18	0.00164
3182.82	0.00156
3192.47	0.00151
3202.11	0.00175
3211.76	0.00176
3221.4	0.00172
3231.05	0.00194
3240.69	0.00173
3250.34	0.00134
3259.98	0.00112
3269.63	0.0007723
3279.27	0.0006766
3288.92	0.0007048
3298.56	0.0004686
3308.21	0.0005066
3317.85	0.0003965
3327.49	0.0004428
3337.14	0.000529
3346.78	0.000771
3356.43	0.0007238
3366.07	0.00105
3375.72	0.00142
3385.36	0.00262
3395.01	0.00566
3404.65	0.00832
3414.3	0.00661
3423.94	0.00283
3433.59	0.00216
3443.23	0.00177
3452.88	0.00194
3462.52	0.00257
3472.17	0.00379
3481.81	0.00537
3491.46	0.00544
3501.1	0.004
3510.75	0.00246
3520.39	0.00124
3530.04	0.0009936
3539.68	0.0006914
3549.32	0.000665
3558.97	0.0005699
3568.61	0.0004111
3578.26	0.0004128
3587.9	0.0005568
3597.55	0.000434
3607.19	0.0003163
3616.84	0.0005748
3626.48	0.0005518
3636.13	0.0006277
3645.77	0.0007557
3655.42	0.0008783
3665.06	0.0009175
3674.71	0.0008693
3684.35	0.0007766
3694	0.0007971
3703.64	0.0007949
3713.29	0.0006988
3722.93	0.0009139
3732.58	0.0006946
3742.22	0.0005363
3751.86	0.0007957
3761.51	0.0008468
3771.15	0.0006453
3780.8	0.0006691
3790.44	0.0006817
3800.09	0.0007912
3809.73	0.0008075
3819.38	0.0008738
3829.02	0.0009566
3838.67	0.0008737
3848.31	0.00119
3857.96	0.00122
3867.6	0.00148
3877.25	0.00122
3886.89	0.00111
3896.54	0.0009794
3906.18	0.00106
3915.83	0.00102
3925.47	0.00111
3935.12	0.0013
3944.76	0.00102
3954.41	0.00115
3964.05	0.00119
3973.69	0.00115
3983.34	0.0009317
3992.98	0.00107
