Infrared Spectrum: 4-n-Decylaniline
Formula: C 16 H 27 N
CAS: 37529-30-9
State: gas
Origin: EPA-IR VAPOR PHASE LIBRARY
1/CM	ABSORBANCE
549.8	0.02414
559.445	0.01952
569.09	0.01485
578.734	0.01335
588.379	0.013
598.024	0.01299
607.669	0.01343
617.313	0.01597
626.958	0.02167
636.603	0.03395
646.248	0.05371
655.893	0.05823
665.537	0.04439
675.182	0.03595
684.827	0.032
694.472	0.02815
704.116	0.0251
713.761	0.02337
723.406	0.02201
733.051	0.0202
742.695	0.01899
752.34	0.01853
761.985	0.01925
771.63	0.02072
781.275	0.02405
790.919	0.02919
800.564	0.03937
810.209	0.04906
819.854	0.04705
829.498	0.03569
839.143	0.02725
848.788	0.01905
858.433	0.01388
868.078	0.01166
877.722	0.00972
887.367	0.00846
897.012	0.00789
906.657	0.00763
916.301	0.00696
925.946	0.00749
935.591	0.00677
945.236	0.00638
954.88	0.00664
964.525	0.00744
974.17	0.00757
983.815	0.00773
993.46	0.00776
1003.1	0.00623
1012.75	0.00795
1022.39	0.00711
1032.04	0.00745
1041.68	0.00951
1051.33	0.01061
1060.97	0.01162
1070.62	0.01341
1080.26	0.0144
1089.91	0.01234
1099.55	0.01099
1109.2	0.01061
1118.84	0.01403
1128.49	0.01515
1138.13	0.00989
1147.78	0.00708
1157.42	0.00717
1167.07	0.00921
1176.71	0.02516
1186.36	0.01739
1196	0.00801
1205.64	0.00714
1215.29	0.00945
1224.93	0.01021
1234.58	0.01341
1244.22	0.02395
1253.87	0.04695
1263.51	0.09864
1273.16	0.09461
1282.8	0.03988
1292.45	0.02086
1302.09	0.01721
1311.74	0.01532
1321.38	0.01418
1331.03	0.01505
1340.67	0.01829
1350.32	0.02003
1359.96	0.01703
1369.61	0.01427
1379.25	0.01224
1388.9	0.01034
1398.54	0.00823
1408.18	0.0087
1417.83	0.01022
1427.47	0.01294
1437.12	0.01884
1446.76	0.03063
1456.41	0.03958
1466.05	0.03852
1475.7	0.02614
1485.34	0.01959
1494.99	0.02714
1504.63	0.07199
1514.28	0.17964
1523.92	0.0869
1533.57	0.02606
1543.21	0.01336
1552.86	0.00961
1562.5	0.00929
1572.15	0.01088
1581.79	0.01428
1591.44	0.01924
1601.08	0.0285
1610.73	0.05145
1620.37	0.09407
1630.01	0.10484
1639.66	0.04815
1649.3	0.01982
1658.95	0.01192
1668.59	0.00839
1678.24	0.00682
1687.88	0.00598
1697.53	0.00579
1707.17	0.00571
1716.82	0.00523
1726.46	0.00464
1736.11	0.00437
1745.75	0.00487
1755.4	0.00408
1765.04	0.00301
1774.69	0.00252
1784.33	0.0024
1793.98	0.00233
1803.62	0.00246
1813.27	0.00256
1822.91	0.00267
1832.55	0.00315
1842.2	0.0036
1851.84	0.00485
1861.49	0.00609
1871.13	0.00625
1880.78	0.00429
1890.42	0.00315
1900.07	0.00277
1909.71	0.00292
1919.36	0.00309
1929	0.00288
1938.65	0.00268
1948.29	0.00246
1957.94	0.00223
1967.58	0.00203
1977.23	0.00179
1986.87	0.00199
1996.52	0.00209
2006.16	0.00209
2015.81	0.00251
2025.45	0.00275
2035.1	0.0027
2044.74	0.00274
2054.38	0.00253
2064.03	0.00279
2073.67	0.00277
2083.32	0.00239
2092.96	0.00217
2102.61	0.00233
2112.25	0.00206
2121.9	0.00177
2131.54	0.00166
2141.19	0.00169
2150.83	0.00168
2160.48	0.00183
2170.12	0.00178
2179.77	0.00159
2189.41	0.00174
2199.06	0.00167
2208.7	0.00159
2218.35	0.00145
2227.99	0.00168
2237.64	0.00151
2247.28	0.00167
2256.92	0.00183
2266.57	0.00186
2276.21	0.00202
2285.86	0.00183
2295.5	0.00206
2305.15	0.00219
2314.79	0.00219
2324.44	0.00219
2334.08	0.00217
2343.73	0.00211
2353.37	0.00203
2363.02	0.00189
2372.66	0.0017
2382.31	0.00166
2391.95	0.00184
2401.6	0.0017
2411.24	0.00167
2420.89	0.00157
2430.53	0.00155
2440.18	0.00171
2449.82	0.00168
2459.47	0.00186
2469.11	0.00172
2478.75	0.00164
2488.4	0.00174
2498.04	0.00192
2507.69	0.00198
2517.33	0.00233
2526.98	0.0029
2536.62	0.00287
2546.27	0.00258
2555.91	0.00241
2565.56	0.00254
2575.2	0.0029
2584.85	0.00297
2594.49	0.00343
2604.14	0.00363
2613.78	0.00394
2623.43	0.00389
2633.07	0.00429
2642.72	0.00457
2652.36	0.00474
2662.01	0.00525
2671.65	0.00541
2681.29	0.00566
2690.94	0.00543
2700.58	0.00521
2710.23	0.00489
2719.87	0.00511
2729.52	0.00524
2739.16	0.00567
2748.81	0.00608
2758.45	0.00643
2768.1	0.0068
2777.74	0.00799
2787.39	0.00928
2797.03	0.01135
2806.68	0.0134
2816.32	0.01716
2825.97	0.02293
2835.61	0.03284
2845.26	0.05973
2854.9	0.13379
2864.55	0.18412
2874.19	0.13248
2883.84	0.10366
2893.48	0.09897
2903.12	0.13144
2912.77	0.20219
2922.41	0.34054
2932.06	0.49145
2941.7	0.36741
2951.35	0.19305
2960.99	0.14425
2970.64	0.12446
2980.28	0.06776
2989.93	0.04641
2999.57	0.04821
3009.22	0.05064
3018.86	0.05241
3028.51	0.06222
3038.15	0.04621
3047.8	0.03037
3057.44	0.02604
3067.09	0.01951
3076.73	0.01443
3086.38	0.0121
3096.02	0.01105
3105.67	0.00917
3115.31	0.00686
3124.95	0.00611
3134.6	0.00536
3144.24	0.00427
3153.89	0.00342
3163.53	0.00337
3173.18	0.00322
3182.82	0.00282
3192.47	0.00272
3202.11	0.00283
3211.76	0.00313
3221.4	0.00268
3231.05	0.00303
3240.69	0.00289
3250.34	0.00221
3259.98	0.00161
3269.63	0.00174
3279.27	0.00161
3288.92	0.00115
3298.56	0.00101
3308.21	0.00115
3317.85	0.00118
3327.49	0.00128
3337.14	0.00132
3346.78	0.0007637
3356.43	0.00121
3366.07	0.00195
3375.72	0.00258
3385.36	0.00402
3395.01	0.0084
3404.65	0.01294
3414.3	0.01016
3423.94	0.00473
3433.59	0.00326
3443.23	0.0031
3452.88	0.00319
3462.52	0.00427
3472.17	0.00599
3481.81	0.00811
3491.46	0.00796
3501.1	0.00626
3510.75	0.00384
3520.39	0.00234
3530.04	0.00177
3539.68	0.00166
3549.32	0.00147
3558.97	0.00102
3568.61	0.001
3578.26	0.0009412
3587.9	0.00126
3597.55	0.00105
3607.19	0.00125
3616.84	0.00173
3626.48	0.00178
3636.13	0.00146
3645.77	0.00164
3655.42	0.00166
3665.06	0.00159
3674.71	0.0015
3684.35	0.00175
3694	0.00118
3703.64	0.00121
3713.29	0.0013
3722.93	0.00107
3732.58	0.00106
3742.22	0.00156
3751.86	0.00143
3761.51	0.00138
3771.15	0.00118
3780.8	0.00137
3790.44	0.0017
3800.09	0.0014
3809.73	0.00146
3819.38	0.00141
3829.02	0.00175
3838.67	0.00179
3848.31	0.00171
3857.96	0.0025
3867.6	0.00234
3877.25	0.00153
3886.89	0.00199
3896.54	0.00243
3906.18	0.00222
3915.83	0.00228
3925.47	0.00229
3935.12	0.00176
3944.76	0.00227
3954.41	0.00216
3964.05	0.00186
3973.69	0.00233
3983.34	0.00176
3992.98	0.0023
