Infrared Spectrum: o-Chlorocinnamic acid
Formula: C 9 H 7 Cl O 2
CAS: 3752-25-8
State: gas
Instrument: HP-GC/MS/IRD
Origin: NIST Mass Spectrometry Data Center
1/CM	ABSORBANCE
550	0.00249
562	0.0045125
574	0.0069275
586	0.0049225
598	0.001355
610	0.0005925
622	0.000485
634	0.0008675
646	0.00132
658	0.0006325
670	0.00024
682	0.00056
694	0.0017175
706	0.00233
718	0.001265
730	0.0012375
742	0.003095
754	0.006555
766	0.00261
778	0.000485
790	0.0002225
802	8.75e-05
814	2.5e-05
826	7e-05
838	0.0002125
850	0.0003025
862	0.000515
874	0.0007925
886	0.00071
898	0.0008625
910	0.00062
922	0.0003625
934	0.0006175
946	0.0009125
958	0.0010275
970	0.0020475
982	0.002775
994	0.001275
1006	0.0005975
1018	0.00064
1030	0.0015825
1042	0.00264
1054	0.0029375
1066	0.0019325
1078	0.001485
1090	0.0027275
1102	0.00661
1114	0.0194
1126	0.016585
1138	0.008925
1150	0.0094825
1162	0.008885
1174	0.00322
1186	0.0021725
1198	0.0020175
1210	0.0014525
1222	0.0013175
1234	0.00168
1246	0.0023125
1258	0.00305
1270	0.002635
1282	0.0024825
1294	0.00233
1306	0.002825
1318	0.0027575
1330	0.0023025
1342	0.0030375
1354	0.00606
1366	0.0054525
1378	0.00183
1390	0.00082
1402	0.0006025
1414	0.000725
1426	0.0012225
1438	0.0024075
1450	0.00198
1462	0.0018825
1474	0.0027025
1486	0.0011825
1498	0.0004125
1510	0.0001925
1522	0.000145
1534	0.00023
1546	0.0004125
1558	0.0006
1570	0.0007725
1582	0.000785
1594	0.0008975
1606	0.000725
1618	0.00106
1630	0.003015
1642	0.0053375
1654	0.0018675
1666	0.00064
1678	0.0006925
1690	0.0007925
1702	0.0011125
1714	0.00203
1726	0.0039775
1738	0.0090525
1750	0.021275
1762	0.0217475
1774	0.009475
1786	0.0056825
1798	0.0030975
1810	0.00158
1822	0.00093
1834	0.00068
1846	0.0004675
1858	0.000305
1870	0.0002275
1882	0.00028
1894	0.0002175
1906	0.0002025
1918	0.0002425
1930	0.0001575
1942	0.0002275
1954	0.00021
1966	0.000115
1978	7.5e-05
1990	5.25e-05
2002	5e-05
2014	5.5e-05
2026	6.25e-05
2038	0.0001175
2050	0.0001375
2062	0.000125
2074	5.75e-05
2086	4e-05
2098	2.5e-06
2110	1.25e-05
2122	2.5e-06
2134	2.75e-05
2146	3.75e-05
2158	4.5e-05
2170	2.5e-06
2182	3.75e-05
2194	3.25e-05
2206	6e-05
2218	9.5e-05
2230	8e-05
2242	5.75e-05
2254	3.75e-05
2266	5e-05
2278	6.25e-05
2290	7.5e-05
2302	7.5e-05
2314	8.25e-05
2326	8.5e-05
2338	5.5e-05
2350	6.25e-05
2362	5.5e-05
2374	5.5e-05
2386	3e-05
2398	3.5e-05
2410	3e-05
2422	4e-05
2434	4.25e-05
2446	5e-05
2458	5.25e-05
2470	6e-05
2482	4.5e-05
2494	6.5e-05
2506	4.5e-05
2518	4.75e-05
2530	3.5e-05
2542	4e-05
2554	5e-05
2566	2.5e-05
2578	6.5e-05
2590	7.5e-05
2602	4.75e-05
2614	2.5e-05
2626	4e-05
2638	2.5e-05
2650	4.25e-05
2662	5e-06
2674	4.5e-05
2686	1.75e-05
2698	3.5e-05
2710	4e-05
2722	4.25e-05
2734	6.75e-05
2746	3.25e-05
2758	3.75e-05
2770	2.75e-05
2782	4e-05
2794	5.25e-05
2806	3.5e-05
2818	5e-05
2830	3.5e-05
2842	3.5e-05
2854	6.5e-05
2866	7.75e-05
2878	4.5e-05
2890	5.75e-05
2902	5.75e-05
2914	5e-05
2926	7.25e-05
2938	4.5e-05
2950	6e-05
2962	1.25e-05
2974	6e-05
2986	0.00016
2998	0.0001975
3010	0.00023
3022	0.0003325
3034	0.00037
3046	0.0003575
3058	0.0007975
3070	0.00158
3082	0.0014425
3094	0.000745
3106	0.000285
3118	0.000195
3130	0.00023
3142	0.000135
3154	5.75e-05
3166	0
3178	8e-05
3190	6.25e-05
3202	7.75e-05
3214	5.5e-05
3226	3.5e-05
3238	3.25e-05
3250	4.5e-05
3262	4.75e-05
3274	9.25e-05
3286	3.75e-05
3298	4e-05
3310	9.75e-05
3322	6e-05
3334	5.5e-05
3346	2.5e-05
3358	4.25e-05
3370	9.25e-05
3382	0.00012
3394	0.00011
3406	8.5e-05
3418	6.25e-05
3430	9e-05
3442	0.0001275
3454	0.000175
3466	0.0001425
3478	0.000215
3490	0.0003225
3502	0.0003925
3514	0.0003075
3526	0.0002225
3538	0.00022
3550	0.00031
3562	0.000855
3574	0.00533
3586	0.0099975
3598	0.00181
3610	0.000435
3622	0.000235
3634	0.000155
3646	0.000165
3658	0.00016
3670	0.0001975
3682	0.0001525
3694	0.0001625
3706	0.0001475
3718	0.00018
3730	0.0001125
3742	0.0001275
3754	6.5e-05
3766	9.25e-05
3778	6.75e-05
3790	0.0001
3802	0.000135
3814	8.25e-05
3826	0.0001025
3838	0.0001175
