Infrared Spectrum: Benzyl tiglate
Formula: C 12 H 14 O 2
CAS: 37526-88-8
State: gas
Origin: EPA-IR VAPOR PHASE LIBRARY
1/CM	ABSORBANCE
549.9	0.00392
559.547	0.0033519
569.193	0.0041
578.84	0.00599
588.486	0.00786
598.133	0.00764
607.779	0.0057
617.426	0.00381
627.072	0.0031736
636.719	0.0032465
646.365	0.0039
656.012	0.00593
665.658	0.00766
675.305	0.01265
684.951	0.02128
694.598	0.03166
704.245	0.02707
713.891	0.02477
723.538	0.03231
733.184	0.04524
742.831	0.04628
752.477	0.03119
762.124	0.01438
771.77	0.00823
781.417	0.00799
791.063	0.00888
800.71	0.00742
810.356	0.00622
820.003	0.00656
829.649	0.00646
839.296	0.00614
848.943	0.00622
858.589	0.00704
868.236	0.00732
877.882	0.00689
887.529	0.00729
897.175	0.0089
906.822	0.01053
916.468	0.00924
926.115	0.00859
935.761	0.00862
945.408	0.00901
955.054	0.0108
964.701	0.01588
974.347	0.02145
983.994	0.02063
993.64	0.01804
1003.29	0.02144
1012.93	0.02716
1022.58	0.0357
1032.23	0.03727
1041.87	0.03728
1051.52	0.04447
1061.17	0.05651
1070.81	0.07597
1080.46	0.07593
1090.11	0.05486
1099.75	0.037
1109.4	0.03966
1119.05	0.08144
1128.69	0.17938
1138.34	0.17649
1147.99	0.12815
1157.63	0.06885
1167.28	0.0282
1176.92	0.01747
1186.57	0.01452
1196.22	0.01571
1205.86	0.02244
1215.51	0.02465
1225.16	0.03752
1234.8	0.0851
1244.45	0.19484
1254.1	0.24837
1263.74	0.21764
1273.39	0.10819
1283.04	0.03983
1292.68	0.02223
1302.33	0.0168
1311.98	0.01495
1321.62	0.01382
1331.27	0.01426
1340.92	0.01999
1350.56	0.01757
1360.21	0.01466
1369.86	0.01909
1379.5	0.02508
1389.15	0.02773
1398.79	0.01939
1408.44	0.01197
1418.09	0.01041
1427.73	0.0117
1437.38	0.01517
1447.03	0.02034
1456.67	0.02299
1466.32	0.01947
1475.97	0.01356
1485.61	0.01158
1495.26	0.01628
1504.91	0.01286
1514.55	0.00773
1524.2	0.00699
1533.85	0.00664
1543.49	0.00628
1553.14	0.0059
1562.79	0.00565
1572.43	0.00585
1582.08	0.00653
1591.73	0.00724
1601.37	0.00759
1611.02	0.00749
1620.67	0.00695
1630.31	0.00825
1639.96	0.01339
1649.6	0.02553
1659.25	0.02613
1668.9	0.01407
1678.54	0.01175
1688.19	0.01371
1697.84	0.0188
1707.48	0.03378
1717.13	0.0814
1726.78	0.16378
1736.42	0.17071
1746.07	0.08804
1755.72	0.03324
1765.36	0.01624
1775.01	0.01246
1784.66	0.01116
1794.3	0.00995
1803.95	0.0075
1813.6	0.00501
1823.24	0.00407
1832.89	0.0035807
1842.54	0.0036002
1852.18	0.00382
1861.83	0.00414
1871.47	0.00444
1881.12	0.00456
1890.77	0.00414
1900.41	0.00396
1910.06	0.00404
1919.71	0.0042
1929.35	0.00441
1939	0.00456
1948.65	0.00486
1958.29	0.00452
1967.94	0.0032359
1977.59	0.00278156
1987.23	0.0026936
1996.88	0.00273596
2006.53	0.0026529
2016.17	0.0026951
2025.82	0.00279842
2035.47	0.0030276
2045.11	0.0032548
2054.76	0.0032502
2064.41	0.0030374
2074.05	0.00280722
2083.7	0.002622
2093.35	0.002453
2102.99	0.002405
2112.64	0.002369
2122.28	0.002309
2131.93	0.002332
2141.58	0.002317
2151.22	0.002415
2160.87	0.002511
2170.52	0.002531
2180.16	0.002603
2189.81	0.002548
2199.46	0.00246
2209.1	0.002393
2218.75	0.002305
2228.4	0.002301
2238.04	0.002303
2247.69	0.002419
2257.34	0.002483
2266.98	0.002469
2276.63	0.00238
2286.28	0.002378
2295.92	0.002414
2305.57	0.002496
2315.22	0.002621
2324.86	0.002383
2334.51	0.00231
2344.16	0.002313
2353.8	0.002297
2363.45	0.002316
2373.09	0.002397
2382.74	0.002497
2392.39	0.002583
2402.03	0.002546
2411.68	0.002487
2421.33	0.002355
2430.97	0.002319
2440.62	0.002276
2450.27	0.002269
2459.91	0.002244
2469.56	0.002266
2479.21	0.002317
2488.85	0.002322
2498.5	0.002241
2508.15	0.002262
2517.79	0.002347
2527.44	0.002326
2537.09	0.002142
2546.73	0.00202
2556.38	0.00194
2566.03	0.001973
2575.67	0.00201
2585.32	0.002043
2594.96	0.002135
2604.61	0.00209
2614.26	0.001984
2623.9	0.00195
2633.55	0.002032
2643.2	0.001996
2652.84	0.00195
2662.49	0.001919
2672.14	0.001994
2681.78	0.001817
2691.43	0.001958
2701.08	0.002034
2710.72	0.002128
2720.37	0.00227
2730.02	0.002347
2739.66	0.002525
2749.31	0.002603
2758.96	0.0026505
2768.6	0.0026317
2778.25	0.002502
2787.9	0.002629
2797.54	0.00272845
2807.19	0.0031565
2816.84	0.00376
2826.48	0.00434
2836.13	0.00505
2845.77	0.0061
2855.42	0.0083
2865.07	0.01282
2874.71	0.01611
2884.36	0.01637
2894.01	0.01765
2903.65	0.0182
2913.3	0.01993
2922.95	0.02641
2932.59	0.03372
2942.24	0.03327
2951.89	0.0319
2961.53	0.02889
2971.18	0.02251
2980.83	0.01863
2990.47	0.01775
3000.12	0.01733
3009.77	0.01645
3019.41	0.01849
3029.06	0.02534
3038.71	0.03166
3048.35	0.0273
3058	0.02343
3067.64	0.02954
3077.29	0.02744
3086.94	0.01654
3096.58	0.01251
3106.23	0.00935
3115.88	0.00615
3125.52	0.0035285
3135.17	0.001979
3144.82	0.00124
3154.46	0.00105
3164.11	0.00114
3173.76	0.00096
3183.4	0.00064
3193.05	0.00045
3202.7	0.00042
3212.34	0.0002
3221.99	0.00027
3231.64	0.00023
3241.28	0.00023
3250.93	0.00023
3260.58	0.00011
3270.22	0.00012
3279.87	0.00017
3289.52	7e-05
3299.16	6e-05
3308.81	0.00015
3318.45	0.0001
3328.1	0.00021
3337.75	6e-05
3347.39	0.0002
3357.04	9e-05
3366.69	0.00032
3376.33	0.00041
3385.98	0.00041
3395.63	0.00034
3405.27	0.00056
3414.92	0.00059
3424.57	0.00079
3434.21	0.00137
3443.86	0.00156
3453.51	0.0014
3463.15	0.00097
3472.8	0.00052
3482.45	0.00027
3492.09	0.00038
3501.74	0.00042
3511.39	0.00032
3521.03	0.00037
3530.68	0.00048
3540.33	0.00046
3549.97	0.00043
3559.62	0.0003
3569.26	0.00051
3578.91	0.00059
3588.56	0.00059
3598.2	0.00051
3607.85	0.00061
3617.5	0.00067
3627.14	0.00075
3636.79	0.00076
3646.44	0.00096
3656.08	0.00096
3665.73	0.00105
3675.38	0.00085
3685.02	0.00098
3694.67	0.00099
3704.32	0.00097
3713.96	0.00118
3723.61	0.00102
3733.26	0.00101
3742.9	0.00102
3752.55	0.00091
3762.2	0.0009
3771.84	0.00098
3781.49	0.00099
3791.13	0.00112
3800.78	0.00119
3810.43	0.00116
3820.07	0.00121
3829.72	0.00125
3839.37	0.00115
3849.01	0.00122
3858.66	0.00136
3868.31	0.00142
3877.95	0.00146
3887.6	0.00147
3897.25	0.00151
3906.89	0.0015
3916.54	0.00155
3926.19	0.00154
3935.83	0.00171
3945.48	0.00152
3955.13	0.00161
3964.77	0.00158
3974.42	0.00158
3984.07	0.00157
3993.71	0.00157
