Infrared Spectrum: p-Heptylaniline
Formula: C 13 H 21 N
CAS: 37529-27-4
State: gas
Origin: EPA-IR VAPOR PHASE LIBRARY
1/CM	ABSORBANCE
549.8	0.009265
559.445	0.007655
569.09	0.005965
578.734	0.004995
588.379	0.005015
598.024	0.004855
607.669	0.005145
617.313	0.005845
626.958	0.008285
636.603	0.013105
646.248	0.020955
655.893	0.022455
665.537	0.016935
675.182	0.014195
684.827	0.012315
694.472	0.010505
704.116	0.008975
713.761	0.007995
723.406	0.007605
733.051	0.007035
742.695	0.006895
752.34	0.006605
761.985	0.007005
771.63	0.007645
781.275	0.008725
790.919	0.011415
800.564	0.014695
810.209	0.018215
819.854	0.018735
829.498	0.013825
839.143	0.009955
848.788	0.006905
858.433	0.004985
868.078	0.004055
877.722	0.003705
887.367	0.003355
897.012	0.002555
906.657	0.002855
916.301	0.002725
925.946	0.002595
935.591	0.002565
945.236	0.002435
954.88	0.002735
964.525	0.002355
974.17	0.002905
983.815	0.002735
993.46	0.002535
1003.1	0.002375
1012.75	0.003395
1022.39	0.002985
1032.04	0.002785
1041.68	0.002625
1051.33	0.003375
1060.97	0.004185
1070.62	0.005145
1080.26	0.005205
1089.91	0.004745
1099.55	0.004095
1109.2	0.004265
1118.84	0.005495
1128.49	0.005095
1138.13	0.003375
1147.78	0.002295
1157.42	0.002075
1167.07	0.002825
1176.71	0.009845
1186.36	0.006235
1196	0.002395
1205.64	0.002675
1215.29	0.002765
1224.93	0.002925
1234.58	0.004195
1244.22	0.008005
1253.87	0.017745
1263.51	0.037685
1273.16	0.035935
1282.8	0.014805
1292.45	0.007235
1302.09	0.005495
1311.74	0.004805
1321.38	0.004495
1331.03	0.004755
1340.67	0.005635
1350.32	0.005635
1359.96	0.004755
1369.61	0.004085
1379.25	0.004005
1388.9	0.003525
1398.54	0.002765
1408.18	0.002835
1417.83	0.003355
1427.47	0.004215
1437.12	0.005885
1446.76	0.009165
1456.41	0.011395
1466.05	0.011245
1475.7	0.008455
1485.34	0.006815
1494.99	0.009935
1504.63	0.027555
1514.28	0.069355
1523.92	0.034265
1533.57	0.009975
1543.21	0.005065
1552.86	0.003615
1562.5	0.003295
1572.15	0.003985
1581.79	0.005305
1591.44	0.007275
1601.08	0.010955
1610.73	0.019795
1620.37	0.036355
1630.01	0.040515
1639.66	0.018725
1649.3	0.007515
1658.95	0.004395
1668.59	0.003065
1678.24	0.002445
1687.88	0.002115
1697.53	0.002095
1707.17	0.002155
1716.82	0.001925
1726.46	0.001565
1736.11	0.001585
1745.75	0.001745
1755.4	0.001445
1765.04	0.0009255
1774.69	0.0008269
1784.33	0.0007421
1793.98	0.0008333
1803.62	0.0008121
1813.27	0.000723
1822.91	0.0008095
1832.55	0.001095
1842.2	0.001295
1851.84	0.001735
1861.49	0.002175
1871.13	0.002175
1880.78	0.001565
1890.42	0.0010456
1900.07	0.0008729
1909.71	0.00093
1919.36	0.001085
1929	0.0010107
1938.65	0.0008982
1948.29	0.0007935
1957.94	0.0007354
1967.58	0.000612
1977.23	0.0005493
1986.87	0.0006358
1996.52	0.0006082
2006.16	0.0006772
2015.81	0.0008383
2025.45	0.0008964
2035.1	0.0008872
2044.74	0.0007754
2054.38	0.0008035
2064.03	0.0008113
2073.67	0.0007819
2083.32	0.0007722
2092.96	0.000719
2102.61	0.0006961
2112.25	0.0005508
2121.9	0.0005331
2131.54	0.0004352
2141.19	0.0004037
2150.83	0.0005064
2160.48	0.0005318
2170.12	0.0005263
2179.77	0.0004762
2189.41	0.0004026
2199.06	0.0004773
2208.7	0.0005146
2218.35	0.000488
2227.99	0.0004231
2237.64	0.0004785
2247.28	0.0004222
2256.92	0.0004224
2266.57	0.0005342
2276.21	0.0006496
2285.86	0.000565
2295.5	0.0006041
2305.15	0.0006862
2314.79	0.0005672
2324.44	0.0006158
2334.08	0.0005935
2343.73	0.0006404
2353.37	0.0005642
2363.02	0.0004899
2372.66	0.0004576
2382.31	0.0004722
2391.95	0.0004815
2401.6	0.0004766
2411.24	0.0004743
2420.89	0.0004638
2430.53	0.0004677
2440.18	0.0005349
2449.82	0.0005903
2459.47	0.0005675
2469.11	0.0005706
2478.75	0.0004512
2488.4	0.0003137
2498.04	0.0003908
2507.69	0.0005215
2517.33	0.0006153
2526.98	0.0008501
2536.62	0.0008567
2546.27	0.0007582
2555.91	0.0007271
2565.56	0.0006351
2575.2	0.0006956
2584.85	0.0007852
2594.49	0.0009476
2604.14	0.0009505
2613.78	0.001095
2623.43	0.0009741
2633.07	0.001105
2642.72	0.001195
2652.36	0.001305
2662.01	0.001365
2671.65	0.001415
2681.29	0.001375
2690.94	0.001275
2700.58	0.001425
2710.23	0.001465
2719.87	0.001345
2729.52	0.001405
2739.16	0.001665
2748.81	0.001815
2758.45	0.001785
2768.1	0.001895
2777.74	0.002095
2787.39	0.002625
2797.03	0.002915
2806.68	0.003665
2816.32	0.004565
2825.97	0.006225
2835.61	0.008925
2845.26	0.016225
2854.9	0.033485
2864.55	0.046215
2874.19	0.038035
2883.84	0.031585
2893.48	0.028515
2903.12	0.035715
2912.77	0.053525
2922.41	0.087465
2932.06	0.121105
2941.7	0.098495
2951.35	0.057285
2960.99	0.047545
2970.64	0.043955
2980.28	0.023755
2989.93	0.015765
2999.57	0.017045
3009.22	0.018395
3018.86	0.019145
3028.51	0.023105
3038.15	0.017505
3047.8	0.011235
3057.44	0.009375
3067.09	0.007045
3076.73	0.005235
3086.38	0.004255
3096.02	0.003775
3105.67	0.003135
3115.31	0.002435
3124.95	0.002105
3134.6	0.001725
3144.24	0.001375
3153.89	0.001175
3163.53	0.0008964
3173.18	0.0009187
3182.82	0.0007901
3192.47	0.000918
3202.11	0.0009523
3211.76	0.0009685
3221.4	0.001085
3231.05	0.001115
3240.69	0.001125
3250.34	0.0007464
3259.98	0.0004415
3269.63	0.0003929
3279.27	0.0002702
3288.92	0.0004319
3298.56	0.0002013
3308.21	0.0002756
3317.85	0.0002641
3327.49	0.00014719
3337.14	0.00017114
3346.78	0.0003666
3356.43	0.0004912
3366.07	0.0004994
3375.72	0.0008661
3385.36	0.001345
3395.01	0.003195
3404.65	0.004735
3414.3	0.003495
3423.94	0.001725
3433.59	0.001037
3443.23	0.0009912
3452.88	0.0010231
3462.52	0.001465
3472.17	0.002315
3481.81	0.003015
3491.46	0.003215
3501.1	0.002375
3510.75	0.001555
3520.39	0.0009384
3530.04	0.0006506
3539.68	0.0005022
3549.32	0.0002937
3558.97	0.0002921
3568.61	0.0002531
3578.26	9.186e-05
3587.9	0.000558
3597.55	0.0004189
3607.19	0.0003516
3616.84	0.0003301
3626.48	0.0003275
3636.13	0.0005693
3645.77	0.0004391
3655.42	0.0004828
3665.06	0.0004506
3674.71	0.0004617
3684.35	0.0004683
3694	0.00010343
3703.64	0.0003962
3713.29	0.000427
3722.93	0.0002104
3732.58	0.0003492
3742.22	0.0004862
3751.86	0.0004664
3761.51	0.0003894
3771.15	0.0004159
3780.8	0.0003865
3790.44	0.0002041
3800.09	0.0003118
3809.73	0.0004553
3819.38	0.0004587
3829.02	0.0003666
3838.67	0.0004753
3848.31	0.0005601
3857.96	0.0007471
3867.6	0.0005451
3877.25	0.0006994
3886.89	0.0007458
3896.54	0.0003942
3906.18	0.0007096
3915.83	0.0005861
3925.47	0.0004709
3935.12	0.000672
3944.76	0.0004562
3954.41	0.0006858
3964.05	0.0008061
3973.69	0.000651
3983.34	0.0007983
3992.98	0.0007002
