Infrared Spectrum: 2,4-DECADIENOIC ACID, ETHYL ESTER
Formula: C12 H20 O2
CAS: 37549-74-9
State: SOLUTION (10% CS2 FOR 5000-2380 AND 1390-625, 10% C2Cl4 FOR 2380-1390 CM^-^1)
Class: COBLENTZ
Instrument: PERKIN-ELMER
Sampling: TRANSMISSION
Path length: 0.01 CM, 0.01 CM
Resolution: 4
Origin: HORMEL INSTITUTE
MICROMETERS	TRANSMITTANCE
2.041	0.912
2.07492	0.91
2.10885	0.91
2.14277	0.91
2.1767	0.912
2.21062	0.908
2.24455	0.905
2.27847	0.895
2.3124	0.879
2.34632	0.881
2.38024	0.884
2.41417	0.891
2.44809	0.891
2.48202	0.895
2.51594	0.896
2.54987	0.898
2.58379	0.9
2.61772	0.905
2.65164	0.905
2.68556	0.905
2.71949	0.905
2.75341	0.898
2.78734	0.879
2.82126	0.852
2.85519	0.82
2.88911	0.81
2.92304	0.82
2.95696	0.835
2.99088	0.854
3.02481	0.864
3.05873	0.876
3.09266	0.881
3.12658	0.881
3.16051	0.883
3.19443	0.883
3.22836	0.879
3.26228	0.862
3.2962	0.807
3.33013	0.62
3.36405	0.416
3.39798	0.214
3.4319	0.157
3.46583	0.363
3.49975	0.358
3.53368	0.617
3.5676	0.783
3.60152	0.832
3.63545	0.851
3.66937	0.859
3.7033	0.868
3.73722	0.874
3.77115	0.876
3.80507	0.883
3.839	0.883
3.87292	0.884
3.90685	0.886
3.94077	0.893
3.97469	0.895
4.00862	0.895
4.04254	0.898
4.07647	0.898
4.11039	0.898
4.14432	0.898
4.17824	0.896
4.21217	0.903
4.24609	0.895
4.28001	0.895
4.31394	0.903
4.34786	0.912
4.38179	0.912
4.41571	0.908
4.44964	0.908
4.48356	0.908
4.51749	0.908
4.55141	0.912
4.58533	0.912
4.61926	0.912
4.65318	0.908
4.68711	0.906
4.72103	0.903
4.75496	0.903
4.78888	0.905
4.82281	0.905
4.85673	0.901
4.89065	0.9
4.92458	0.898
4.9585	0.901
4.99243	0.9
5.02635	0.895
5.06028	0.876
5.0942	0.849
5.12813	0.881
5.16205	0.895
5.19597	0.896
5.2299	0.893
5.26382	0.888
5.29775	0.893
5.33167	0.895
5.3656	0.888
5.39952	0.89
5.43345	0.896
5.46737	0.896
5.50129	0.891
5.53522	0.878
5.56914	0.862
5.60307	0.844
5.63699	0.822
5.67092	0.778
5.70484	0.566
5.73877	0.269
5.77269	0.203
5.80661	0.065
5.84054	0.03
5.87446	0.272
5.90839	0.529
5.94231	0.676
5.97624	0.714
6.01016	0.73
6.04409	0.664
6.07801	0.336
6.11193	0.348
6.14586	0.668
6.17978	0.693
6.21371	0.541
6.24763	0.67
6.28156	0.764
6.31548	0.818
6.34941	0.847
6.38333	0.859
6.41725	0.866
6.45118	0.866
6.4851	0.868
6.51903	0.871
6.55295	0.873
6.58688	0.886
6.6208	0.871
6.65473	0.852
6.68865	0.835
6.72257	0.783
6.7565	0.649
6.79042	0.578
6.82435	0.423
6.85827	0.451
6.8922	0.504
6.92612	0.517
6.96005	0.634
6.99397	0.671
7.02789	0.649
7.06182	0.512
7.09574	0.494
7.12967	0.632
7.16359	0.605
7.19752	0.622
7.23144	0.568
7.26537	0.538
7.29929	0.426
7.33321	0.431
7.36714	0.627
7.40106	0.641
7.43499	0.654
7.46891	0.648
7.50284	0.636
7.53676	0.609
7.57069	0.551
7.60461	0.421
7.63854	0.27
7.67246	0.182
7.70638	0.235
7.74031	0.299
7.77423	0.297
7.80816	0.203
7.84208	0.12
7.87601	0.04
7.90993	0.021
7.94386	0.028
7.97778	0.047
8.0117	0.148
8.04563	0.257
8.07955	0.351
8.11348	0.406
8.1474	0.414
8.18133	0.434
8.21525	0.448
8.24918	0.451
8.2831	0.434
8.31702	0.338
8.35095	0.265
8.38487	0.265
8.4188	0.291
8.45272	0.255
8.48665	0.128
8.52057	0.049
8.5545	0.037
8.58842	0.072
8.62234	0.17
8.65627	0.272
8.69019	0.324
8.72412	0.321
8.75804	0.192
8.79197	0.096
8.82589	0.093
8.85982	0.284
8.89374	0.439
8.92766	0.541
8.96159	0.576
8.99551	0.578
9.02944	0.59
9.06336	0.563
9.09729	0.517
9.13121	0.441
9.16514	0.5
9.19906	0.554
9.23298	0.554
9.26691	0.539
9.30083	0.532
9.33476	0.563
9.36868	0.565
9.40261	0.563
9.43653	0.553
9.47046	0.522
9.50438	0.448
9.5383	0.323
9.57223	0.253
9.60615	0.243
9.64008	0.231
9.674	0.233
9.70793	0.311
9.74185	0.392
9.77578	0.45
9.8097	0.514
9.84362	0.558
9.87755	0.583
9.91147	0.602
9.9454	0.605
9.97932	0.571
10.0132	0.467
10.0472	0.294
10.0811	0.233
10.115	0.401
10.1489	0.519
10.1829	0.59
10.2168	0.605
10.2507	0.61
10.2846	0.593
10.3186	0.563
10.3525	0.544
10.3864	0.527
10.4203	0.527
10.4543	0.541
10.4882	0.619
10.5221	0.678
10.556	0.705
10.59	0.719
10.6239	0.736
10.6578	0.747
10.6917	0.756
10.7257	0.766
10.7596	0.771
10.7935	0.783
10.8274	0.793
10.8614	0.796
10.8953	0.796
10.9292	0.796
10.9631	0.798
10.9971	0.803
11.031	0.808
11.0649	0.81
11.0988	0.812
11.1328	0.81
11.1667	0.807
11.2006	0.805
11.2345	0.793
11.2685	0.781
11.3024	0.759
11.3363	0.729
11.3702	0.683
11.4041	0.615
11.4381	0.5
11.472	0.357
11.5059	0.277
11.5398	0.219
11.5738	0.304
11.6077	0.468
11.6416	0.578
11.6755	0.646
11.7095	0.688
11.7434	0.72
11.7773	0.747
11.8112	0.768
11.8452	0.781
11.8791	0.8
11.913	0.812
11.9469	0.813
11.9809	0.813
12.0148	0.815
12.0487	0.818
12.0826	0.824
12.1166	0.825
12.1505	0.825
12.1844	0.832
12.2183	0.832
12.2523	0.827
12.2862	0.825
12.3201	0.817
12.354	0.807
12.388	0.795
12.4219	0.795
12.4558	0.802
12.4897	0.808
12.5237	0.812
12.5576	0.812
12.5915	0.807
12.6254	0.796
12.6594	0.79
12.6933	0.783
12.7272	0.776
12.7611	0.771
12.7951	0.766
12.829	0.764
12.8629	0.761
12.8968	0.756
12.9307	0.754
12.9647	0.754
12.9986	0.766
13.0325	0.774
13.0664	0.786
13.1004	0.793
13.1343	0.8
13.1682	0.81
13.2021	0.813
13.2361	0.812
13.27	0.813
13.3039	0.813
13.3378	0.812
13.3718	0.807
13.4057	0.798
13.4396	0.788
13.4735	0.769
13.5075	0.761
13.5414	0.758
13.5753	0.752
13.6092	0.751
13.6432	0.746
13.6771	0.736
13.711	0.727
13.7449	0.724
13.7789	0.722
13.8128	0.72
13.8467	0.715
13.8806	0.717
13.9146	0.712
13.9485	0.705
13.9824	0.692
14.0163	0.673
14.0503	0.656
14.0842	0.627
14.1181	0.593
14.152	0.575
14.186	0.566
14.2199	0.566
14.2538	0.573
14.2877	0.587
14.3217	0.607
14.3556	0.624
14.3895	0.634
14.4234	0.651
14.4574	0.664
14.4913	0.673
14.5252	0.681
14.5591	0.697
14.593	0.705
14.627	0.712
14.6609	0.724
14.6948	0.732
14.7287	0.739
14.7627	0.749
14.7966	0.759
14.8305	0.766
14.8644	0.781
14.8984	0.791
14.9323	0.79
14.9662	0.781
15.0001	0.783
15.0341	0.805
15.068	0.813
15.1019	0.813
