Infrared Spectrum: (1S,2R)-(+)-Norephedrine
Formula: C 9 H 13 N O
CAS: 37577-28-9
State: gas
Origin: EPA-IR VAPOR PHASE LIBRARY
1/CM	ABSORBANCE
549.8	0.0058
559.445	0.00561
569.09	0.00506
578.734	0.00395
588.379	0.00366
598.024	0.00397
607.669	0.00486
617.313	0.00722
626.958	0.0088
636.603	0.00682
646.248	0.00614
655.893	0.00729
665.537	0.00891
675.182	0.00972
684.827	0.01496
694.472	0.02796
704.116	0.03154
713.761	0.02035
723.406	0.01641
733.051	0.02174
742.695	0.02621
752.34	0.02538
761.985	0.0217
771.63	0.019
781.275	0.01883
790.919	0.01871
800.564	0.0174
810.209	0.01513
819.854	0.01316
829.498	0.01154
839.143	0.00977
848.788	0.00846
858.433	0.00767
868.078	0.00644
877.722	0.0056
887.367	0.00474
897.012	0.00447
906.657	0.00466
916.301	0.00495
925.946	0.00499
935.591	0.00561
945.236	0.00608
954.88	0.00573
964.525	0.00556
974.17	0.00703
983.815	0.01013
993.46	0.01331
1003.1	0.01545
1012.75	0.01899
1022.39	0.02332
1032.04	0.02439
1041.68	0.02194
1051.33	0.01841
1060.97	0.01441
1070.62	0.01147
1080.26	0.0093
1089.91	0.00873
1099.55	0.00947
1109.2	0.01029
1118.84	0.01109
1128.49	0.00929
1138.13	0.00721
1147.78	0.0061
1157.42	0.00623
1167.07	0.00685
1176.71	0.00853
1186.36	0.00991
1196	0.01157
1205.64	0.01159
1215.29	0.01089
1224.93	0.01033
1234.58	0.01017
1244.22	0.0091
1253.87	0.00815
1263.51	0.00797
1273.16	0.00808
1282.8	0.00829
1292.45	0.00871
1302.09	0.00981
1311.74	0.01077
1321.38	0.01098
1331.03	0.00983
1340.67	0.00814
1350.32	0.00722
1359.96	0.00807
1369.61	0.01098
1379.25	0.01373
1388.9	0.01278
1398.54	0.00975
1408.18	0.00701
1417.83	0.00513
1427.47	0.00458
1437.12	0.00602
1446.76	0.00952
1456.41	0.0105
1466.05	0.00717
1475.7	0.00506
1485.34	0.00635
1494.99	0.00734
1504.63	0.00488
1514.28	0.00273
1523.92	0.00248
1533.57	0.00262
1543.21	0.00268
1552.86	0.0026
1562.5	0.00269
1572.15	0.00314
1581.79	0.00385
1591.44	0.00545
1601.08	0.00743
1610.73	0.0086
1620.37	0.00848
1630.01	0.00721
1639.66	0.00494
1649.3	0.00331
1658.95	0.00242
1668.59	0.0019
1678.24	0.00149
1687.88	0.00123
1697.53	0.00111
1707.17	0.00107
1716.82	0.00107
1726.46	0.0011
1736.11	0.00109
1745.75	0.0012
1755.4	0.00111
1765.04	0.0009722
1774.69	0.000962
1784.33	0.00102
1793.98	0.00154
1803.62	0.00178
1813.27	0.00134
1822.91	0.0008739
1832.55	0.0006637
1842.2	0.0006535
1851.84	0.0006877
1861.49	0.0009742
1871.13	0.00135
1880.78	0.0015
1890.42	0.00135
1900.07	0.0009209
1909.71	0.000616
1919.36	0.0007174
1929	0.0009731
1938.65	0.00154
1948.29	0.00169
1957.94	0.00137
1967.58	0.0008251
1977.23	0.0004107
1986.87	0.000394
1996.52	0.0003738
2006.16	0.0003339
2015.81	0.0002861
2025.45	0.0003262
2035.1	0.0003492
2044.74	0.0003726
2054.38	0.0003574
2064.03	0.0002958
2073.67	0.0002793
2083.32	0.0002455
2092.96	0.000288
2102.61	0.0002483
2112.25	0.0002718
2121.9	0.0001568
2131.54	0.000177
2141.19	0.000123
2150.83	0.0001561
2160.48	0.0001526
2170.12	0.000219
2179.77	0.0002055
2189.41	0.000248
2199.06	0.0002595
2208.7	0.0001672
2218.35	0.0002246
2227.99	0.0003508
2237.64	0.0002314
2247.28	0.0003139
2256.92	0.0002499
2266.57	0.0001972
2276.21	0.0002574
2285.86	0.00022
2295.5	0.0002915
2305.15	0.0003076
2314.79	0.0004426
2324.44	0.0004731
2334.08	0.0004097
2343.73	0.0004147
2353.37	0.0004261
2363.02	0.0003492
2372.66	0.0003524
2382.31	0.0002952
2391.95	0.0003457
2401.6	0.0003383
2411.24	0.0003022
2420.89	0.0003123
2430.53	0.000359
2440.18	0.0004506
2449.82	0.000466
2459.47	0.0003961
2469.11	0.0003638
2478.75	0.0003936
2488.4	0.0003878
2498.04	0.0003716
2507.69	0.0004973
2517.33	0.0004133
2526.98	0.0004712
2536.62	0.0004006
2546.27	0.0005535
2555.91	0.0004775
2565.56	0.0005793
2575.2	0.0007499
2584.85	0.0006943
2594.49	0.0008102
2604.14	0.0009028
2613.78	0.000905
2623.43	0.0008403
2633.07	0.0008615
2642.72	0.000805
2652.36	0.0007449
2662.01	0.0008693
2671.65	0.0008463
2681.29	0.0008422
2690.94	0.0008634
2700.58	0.0009011
2710.23	0.0009608
2719.87	0.00108
2729.52	0.0011
2739.16	0.00127
2748.81	0.00126
2758.45	0.0013
2768.1	0.00146
2777.74	0.00168
2787.39	0.00185
2797.03	0.00199
2806.68	0.00245
2816.32	0.00297
2825.97	0.0039
2835.61	0.00533
2845.26	0.00697
2854.9	0.00909
2864.55	0.0116
2874.19	0.01527
2883.84	0.01796
2893.48	0.01749
2903.12	0.01625
2912.77	0.01471
2922.41	0.01312
2932.06	0.01309
2941.7	0.01162
2951.35	0.00976
2960.99	0.01405
2970.64	0.01943
2980.28	0.01736
2989.93	0.01175
2999.57	0.00726
3009.22	0.00524
3018.86	0.00726
3028.51	0.0125
3038.15	0.01401
3047.8	0.01041
3057.44	0.01057
3067.09	0.01598
3076.73	0.01626
3086.38	0.011
3096.02	0.00778
3105.67	0.00473
3115.31	0.00273
3124.95	0.00167
3134.6	0.00118
3144.24	0.000862
3153.89	0.0009196
3163.53	0.0009483
3173.18	0.0008928
3182.82	0.0007524
3192.47	0.0006291
3202.11	0.0006941
3211.76	0.0006473
3221.4	0.0005042
3231.05	0.0004812
3240.69	0.0004015
3250.34	0.0006491
3259.98	0.0005748
3269.63	0.000367
3279.27	0.0002831
3288.92	0.0004984
3298.56	0.0003952
3308.21	0.0005866
3317.85	0.0004424
3327.49	0.0005514
3337.14	0.0007969
3346.78	0.0008307
3356.43	0.000638
3366.07	0.0006245
3375.72	0.0005966
3385.36	0.0007928
3395.01	0.0008739
3404.65	0.00119
3414.3	0.00155
3423.94	0.00157
3433.59	0.00126
3443.23	0.00116
3452.88	0.0012
3462.52	0.00132
3472.17	0.00112
3481.81	0.00112
3491.46	0.00107
3501.1	0.00145
3510.75	0.00216
3520.39	0.00352
3530.04	0.00502
3539.68	0.00461
3549.32	0.0034
3558.97	0.00254
3568.61	0.00213
3578.26	0.00202
3587.9	0.00169
3597.55	0.00147
3607.19	0.00152
3616.84	0.00167
3626.48	0.00188
3636.13	0.00338
3645.77	0.00603
3655.42	0.00653
3665.06	0.00384
3674.71	0.00204
3684.35	0.00128
3694	0.0008006
3703.64	0.0007711
3713.29	0.0007142
3722.93	0.0005717
3732.58	0.0005806
3742.22	0.0005722
3751.86	0.0005808
3761.51	0.0005419
3771.15	0.0004956
3780.8	0.0003427
3790.44	0.0004038
3800.09	0.0002995
3809.73	0.0004853
3819.38	0.0003381
3829.02	0.0005214
3838.67	0.0004699
3848.31	0.0003391
3857.96	0.0005444
3867.6	0.0005438
3877.25	0.0005462
3886.89	0.0005747
3896.54	0.0007496
3906.18	0.0007999
3915.83	0.000453
3925.47	0.0003753
3935.12	0.0004377
3944.76	0.0005066
3954.41	0.0004805
3964.05	0.0003113
3973.69	0.0001115
3983.34	0.0004922
3992.98	0.0004399
