Infrared Spectrum: 4,4'-Dipentyl azoxybenzene
Formula: C 22 H 30 N 2 O
CAS: 37592-87-3
State: gas
Origin: EPA-IR VAPOR PHASE LIBRARY
1/CM	ABSORBANCE
549.8	0.00236
559.445	0.00216
569.09	0.00247
578.734	0.00187
588.379	0.0009823
598.024	0.0007994
607.669	0.0011548
617.313	0.0010114
626.958	0.0010543
636.603	0.0008485
646.248	0.0011028
655.893	0.0008092
665.537	0.0010352
675.182	0.00129
684.827	0.00149
694.472	0.0011857
704.116	0.00128
713.761	0.00139
723.406	0.00145
733.051	0.00178
742.695	0.0017
752.34	0.00184
761.985	0.00191
771.63	0.00195
781.275	0.00223
790.919	0.00279
800.564	0.00356
810.209	0.00414
819.854	0.0053
829.498	0.00717
839.143	0.00776
848.788	0.00697
858.433	0.0041
868.078	0.00248
877.722	0.00208
887.367	0.00198
897.012	0.0024
906.657	0.00365
916.301	0.00659
925.946	0.00329
935.591	0.00202
945.236	0.00152
954.88	0.00138
964.525	0.0010919
974.17	0.00129
983.815	0.00129
993.46	0.0009254
1003.1	0.00126
1012.75	0.00673
1022.39	0.0029
1032.04	0.0011844
1041.68	0.0008082
1051.33	0.000878
1060.97	0.0008534
1070.62	0.0011506
1080.26	0.00149
1089.91	0.00171
1099.55	0.00239
1109.2	0.00237
1118.84	0.00238
1128.49	0.00135
1138.13	0.0011214
1147.78	0.0010585
1157.42	0.00235
1167.07	0.00822
1176.71	0.00225
1186.36	0.00183
1196	0.0015
1205.64	0.00148
1215.29	0.00154
1224.93	0.00215
1234.58	0.00232
1244.22	0.00185
1253.87	0.00193
1263.51	0.00229
1273.16	0.00316
1282.8	0.00411
1292.45	0.00523
1302.09	0.00608
1311.74	0.00538
1321.38	0.00624
1331.03	0.00678
1340.67	0.00535
1350.32	0.00457
1359.96	0.00407
1369.61	0.00351
1379.25	0.00359
1388.9	0.00368
1398.54	0.00398
1408.18	0.00627
1417.83	0.00568
1427.47	0.0049
1437.12	0.00672
1446.76	0.01193
1456.41	0.02321
1466.05	0.03571
1475.7	0.02074
1485.34	0.01312
1494.99	0.01986
1504.63	0.01987
1514.28	0.00621
1523.92	0.00332
1533.57	0.00228
1543.21	0.0019
1552.86	0.0017
1562.5	0.00167
1572.15	0.00154
1581.79	0.00195
1591.44	0.00306
1601.08	0.00518
1610.73	0.00311
1620.37	0.00165
1630.01	0.00125
1639.66	0.0012128
1649.3	0.001208
1658.95	0.0010712
1668.59	0.0010572
1678.24	0.0008125
1687.88	0.0007071
1697.53	0.000643
1707.17	0.0007595
1716.82	0.0005797
1726.46	0.0005929
1736.11	0.0006621
1745.75	0.0007047
1755.4	0.0006949
1765.04	0.0008273
1774.69	0.0011114
1784.33	0.00136
1793.98	0.0007916
1803.62	0.0006058
1813.27	0.0005044
1822.91	0.0004616
1832.55	0.0004674
1842.2	0.0004481
1851.84	0.0005269
1861.49	0.0005574
1871.13	0.0006174
1880.78	0.0006543
1890.42	0.0008065
1900.07	0.0011067
1909.71	0.0013
1919.36	0.0009363
1929	0.0005994
1938.65	0.0005323
1948.29	0.0004178
1957.94	0.0004762
1967.58	0.0004478
1977.23	0.0004968
1986.87	0.0005099
1996.52	0.0003988
2006.16	0.0004512
2015.81	0.0004658
2025.45	0.0004876
2035.1	0.0005135
2044.74	0.000499
2054.38	0.0005149
2064.03	0.0004631
2073.67	0.0004878
2083.32	0.0005444
2092.96	0.0003695
2102.61	0.0005287
2112.25	0.0005292
2121.9	0.000454
2131.54	0.000489
2141.19	0.0005083
2150.83	0.0004914
2160.48	0.0004107
2170.12	0.0004852
2179.77	0.0005073
2189.41	0.0004265
2199.06	0.000521
2208.7	0.0003993
2218.35	0.0004353
2227.99	0.0004952
2237.64	0.0004641
2247.28	0.0004974
2256.92	0.0004885
2266.57	0.0005411
2276.21	0.0005469
2285.86	0.0005589
2295.5	0.0005659
2305.15	0.0006042
2314.79	0.000577
2324.44	0.0006012
2334.08	0.0006249
2343.73	0.0005752
2353.37	0.000597
2363.02	0.0006665
2372.66	0.0007552
2382.31	0.0007021
2391.95	0.0006646
2401.6	0.0006074
2411.24	0.0005768
2420.89	0.0006334
2430.53	0.0005894
2440.18	0.0006195
2449.82	0.0005772
2459.47	0.0005726
2469.11	0.0004965
2478.75	0.0006317
2488.4	0.0005311
2498.04	0.0006344
2507.69	0.0006847
2517.33	0.0006205
2526.98	0.0006437
2536.62	0.0007165
2546.27	0.0008039
2555.91	0.0008371
2565.56	0.0008354
2575.2	0.0009129
2584.85	0.0008521
2594.49	0.0009268
2604.14	0.0009379
2613.78	0.000819
2623.43	0.000886
2633.07	0.000891
2642.72	0.0010099
2652.36	0.0010054
2662.01	0.0009995
2671.65	0.0010679
2681.29	0.0011604
2690.94	0.0011878
2700.58	0.001043
2710.23	0.0011421
2719.87	0.00123
2729.52	0.00139
2739.16	0.00156
2748.81	0.00148
2758.45	0.00158
2768.1	0.00155
2777.74	0.00159
2787.39	0.0018
2797.03	0.00194
2806.68	0.00219
2816.32	0.00262
2825.97	0.00319
2835.61	0.004
2845.26	0.00613
2854.9	0.01134
2864.55	0.01923
2874.19	0.01834
2883.84	0.01635
2893.48	0.01341
2903.12	0.01447
2912.77	0.01976
2922.41	0.03106
2932.06	0.04898
2941.7	0.04903
2951.35	0.02987
2960.99	0.02717
2970.64	0.02908
2980.28	0.01501
2989.93	0.00834
2999.57	0.00609
3009.22	0.00496
3018.86	0.00495
3028.51	0.00781
3038.15	0.00763
3047.8	0.00605
3057.44	0.00456
3067.09	0.00405
3076.73	0.0038
3086.38	0.0031
3096.02	0.00238
3105.67	0.00218
3115.31	0.00165
3124.95	0.0011932
3134.6	0.0010425
3144.24	0.0010563
3153.89	0.0008398
3163.53	0.000694
3173.18	0.0006454
3182.82	0.0006112
3192.47	0.000525
3202.11	0.0006286
3211.76	0.0005051
3221.4	0.0004718
3231.05	0.000606
3240.69	0.0004156
3250.34	0.0003371
3259.98	0.00030223
3269.63	0.0003951
3279.27	0.0003711
3288.92	0.0003847
3298.56	0.0004149
3308.21	0.0002067
3317.85	0.00028624
3327.49	0.00024644
3337.14	0.000348
3346.78	0.0002533
3356.43	0.00023986
3366.07	0.0001339
3375.72	0.00024524
3385.36	0.00021856
3395.01	0.0003218
3404.65	0.0003494
3414.3	4.1e-05
3423.94	0.00030024
3433.59	0.00026191
3443.23	0.0002103
3452.88	0.00023401
3462.52	0.000221078
3472.17	0.0003458
3481.81	0.00024327
3491.46	0.00028196
3501.1	0.00023288
3510.75	0.00029752
3520.39	0.00028575
3530.04	0.00021066
3539.68	0.0001832
3549.32	0.0001726
3558.97	0.0001939
3568.61	0.00030576
3578.26	0.0002054
3587.9	0
3597.55	0.0001208
3607.19	0.000379
3616.84	0.00025505
3626.48	0.00026445
3636.13	0.0001971
3645.77	0.0001519
3655.42	0.00026648
3665.06	0.0002621
3674.71	0.0003737
3684.35	0.000219561
3694	0.00025785
3703.64	0.00031572
3713.29	0.0003329
3722.93	0.0004204
3732.58	0.000398
3742.22	0.00024183
3751.86	0.00028326
3761.51	0.00027984
3771.15	0.00030383
3780.8	0.00025236
3790.44	0.00021183
3800.09	0.0003551
3809.73	0.00024131
3819.38	0.000223937
3829.02	0.0001291
3838.67	0.0004541
3848.31	0.00030247
3857.96	0.0003615
3867.6	0.00028311
3877.25	0.00030981
3886.89	0.00026541
3896.54	0.00029122
3906.18	0.0003758
3915.83	0.00029162
3925.47	0.0002079
3935.12	0.0003847
3944.76	0.00023393
3954.41	0.0005224
3964.05	0.000443
3973.69	0.00030157
3983.34	0.00027166
3992.98	0.0003525
