Infrared Spectrum: N-Phenylbis(trifluoromethanesulphonimide)
Formula: C 8 H 5 F 6 N O 4 S 2
CAS: 37595-74-7
State: gas
Origin: EPA-IR VAPOR PHASE LIBRARY
1/CM	ABSORBANCE
549.8	0.016245
559.445	0.023085
569.09	0.037335
578.734	0.041215
588.379	0.043915
598.024	0.071055
607.669	0.157765
617.313	0.080295
626.958	0.064325
636.603	0.016815
646.248	0.008305
655.893	0.006975
665.537	0.010145
675.182	0.011625
684.827	0.039445
694.472	0.063825
704.116	0.011805
713.761	0.004265
723.406	0.003645
733.051	0.003795
742.695	0.003715
752.34	0.002795
761.985	0.003315
771.63	0.004075
781.275	0.003385
790.919	0.003165
800.564	0.004165
810.209	0.003965
819.854	0.004415
829.498	0.005845
839.143	0.009055
848.788	0.018005
858.433	0.037985
868.078	0.067375
877.722	0.084445
887.367	0.045705
897.012	0.020515
906.657	0.020795
916.301	0.030655
925.946	0.035085
935.591	0.072685
945.236	0.047315
954.88	0.015355
964.525	0.008295
974.17	0.006535
983.815	0.006665
993.46	0.006825
1003.1	0.005435
1012.75	0.004265
1022.39	0.007305
1032.04	0.011075
1041.68	0.004295
1051.33	0.004775
1060.97	0.005585
1070.62	0.010795
1080.26	0.010595
1089.91	0.013545
1099.55	0.016145
1109.2	0.031155
1118.84	0.076375
1128.49	0.170695
1138.13	0.141085
1147.78	0.047585
1157.42	0.025575
1167.07	0.023335
1176.71	0.027475
1186.36	0.041435
1196	0.055845
1205.64	0.118955
1215.29	0.253215
1224.93	0.384325
1234.58	0.329295
1244.22	0.154875
1253.87	0.071265
1263.51	0.032815
1273.16	0.018745
1282.8	0.014315
1292.45	0.012815
1302.09	0.010415
1311.74	0.007905
1321.38	0.007865
1331.03	0.008685
1340.67	0.008075
1350.32	0.006535
1359.96	0.005285
1369.61	0.005385
1379.25	0.006045
1388.9	0.006555
1398.54	0.007715
1408.18	0.013775
1417.83	0.031225
1427.47	0.067785
1437.12	0.078415
1446.76	0.221955
1456.41	0.117965
1466.05	0.017565
1475.7	0.014275
1485.34	0.020455
1494.99	0.023965
1504.63	0.008185
1514.28	0.004325
1523.92	0.002745
1533.57	0.002075
1543.21	0.002155
1552.86	0.002665
1562.5	0.002765
1572.15	0.003135
1581.79	0.003815
1591.44	0.006395
1601.08	0.003665
1610.73	0.002175
1620.37	0.002015
1630.01	0.001965
1639.66	0.001585
1649.3	0.001835
1658.95	0.001825
1668.59	0.001525
1678.24	0.001645
1687.88	0.001535
1697.53	0.001795
1707.17	0.001595
1716.82	0.001655
1726.46	0.001605
1736.11	0.001805
1745.75	0.001905
1755.4	0.002015
1765.04	0.002285
1774.69	0.002295
1784.33	0.002645
1793.98	0.002985
1803.62	0.002395
1813.27	0.002265
1822.91	0.001965
1832.55	0.001605
1842.2	0.001675
1851.84	0.001575
1861.49	0.001645
1871.13	0.001725
1880.78	0.001785
1890.42	0.002135
1900.07	0.002545
1909.71	0.002675
1919.36	0.002935
1929	0.003345
1938.65	0.003075
1948.29	0.003505
1957.94	0.003315
1967.58	0.003045
1977.23	0.001875
1986.87	0.001615
1996.52	0.001405
2006.16	0.0011748
2015.81	0.0010826
2025.45	0.0009579
2035.1	0.0009149
2044.74	0.0009946
2054.38	0.0008539
2064.03	0.0011631
2073.67	0.0010457
2083.32	0.0008044
2092.96	0.0010292
2102.61	0.0008292
2112.25	0.0006687
2121.9	0.0009466
2131.54	0.0006778
2141.19	0.000608
2150.83	0.0004657
2160.48	0.0006737
2170.12	0.0007625
2179.77	0.0008861
2189.41	0.0007983
2199.06	0.0004858
2208.7	0.0008472
2218.35	0.0008699
2227.99	0.0009366
2237.64	0.0009773
2247.28	0.0011064
2256.92	0.001245
2266.57	0.0008255
2276.21	0.0011293
2285.86	0.0011985
2295.5	0.001255
2305.15	0.001625
2314.79	0.002115
2324.44	0.002885
2334.08	0.002905
2343.73	0.003065
2353.37	0.003335
2363.02	0.003055
2372.66	0.002375
2382.31	0.001455
2391.95	0.001425
2401.6	0.0011694
2411.24	0.001735
2420.89	0.001375
2430.53	0.001745
2440.18	0.001685
2449.82	0.001575
2459.47	0.001625
2469.11	0.001485
2478.75	0.001265
2488.4	0.001255
2498.04	0.001063
2507.69	0.0006889
2517.33	0.0006728
2526.98	0.0007424
2536.62	0.0006022
2546.27	0.0005648
2555.91	0.001158
2565.56	0.0007038
2575.2	0.0010529
2584.85	0.0008676
2594.49	0.0004585
2604.14	0.0008363
2613.78	0.0010586
2623.43	0.0008641
2633.07	0.0009802
2642.72	0.001315
2652.36	0.0010749
2662.01	0.0008903
2671.65	0.0011983
2681.29	0.0007385
2690.94	0.000908
2700.58	0.0007228
2710.23	0.0004984
2719.87	0.0007927
2729.52	0.0004975
2739.16	0.0006559
2748.81	0.0007044
2758.45	0.0011072
2768.1	0.0008446
2777.74	0.0004665
2787.39	0.0001517
2797.03	0.0003077
2806.68	0.0004245
2816.32	0.00091
2825.97	0.0007314
2835.61	0.0006447
2845.26	0.0005942
2854.9	0.0004216
2864.55	0.000756
2874.19	0.0008672
2883.84	0.0005248
2893.48	0.0003954
2903.12	0.000853
2912.77	0.00030255
2922.41	0.0007856
2932.06	0.000455
2941.7	0.0007554
2951.35	0.0008354
2960.99	0.0007196
2970.64	0.0008183
2980.28	0.0006853
2989.93	0.0004851
2999.57	0.00023043
3009.22	0.0006304
3018.86	0.0011181
3028.51	0.001345
3038.15	0.002395
3047.8	0.003745
3057.44	0.002835
3067.09	0.004995
3076.73	0.007545
3086.38	0.006155
3096.02	0.003325
3105.67	0.003495
3115.31	0.001855
3124.95	0.0011679
3134.6	0.0011636
3144.24	0.0005704
3153.89	0.0006648
3163.53	0.000489
3173.18	0.0009416
3182.82	0.0003618
3192.47	0.0009454
3202.11	0.00029487
3211.76	0.0003181
3221.4	0.0006929
3231.05	0.0008296
3240.69	0.0005873
3250.34	0.0004747
3259.98	0.0007834
3269.63	0.00020292
3279.27	0.0006033
3288.92	0.0004546
3298.56	0.0008861
3308.21	0.0011806
3317.85	0.0006503
3327.49	0.0005602
3337.14	0.0008335
3346.78	0.0007389
3356.43	0.0006374
3366.07	9.2e-05
3375.72	0.0010407
3385.36	0.001215
3395.01	0.0007183
3404.65	0.0007403
3414.3	0.0007673
3423.94	0.0011829
3433.59	0.001255
3443.23	0.001174
3452.88	0.0007253
3462.52	0.0009185
3472.17	0.0005003
3481.81	0.0009412
3491.46	0.0006303
3501.1	0.00065
3510.75	0.0005689
3520.39	0.0004361
3530.04	0.0006397
3539.68	0.0009008
3549.32	0.0006942
3558.97	0.0007343
3568.61	0.0007454
3578.26	0.0008829
3587.9	0.0011791
3597.55	0.0009071
3607.19	0.0006599
3616.84	0.0003932
3626.48	0.0007569
3636.13	0.0007881
3645.77	0.0006853
3655.42	0.0010309
3665.06	0.0005972
3674.71	0.0006213
3684.35	0.0008735
3694	0.0005422
3703.64	0.0006432
3713.29	0.0008277
3722.93	0.0008094
3732.58	0.000728
3742.22	0.0008899
3751.86	0.0009149
3761.51	0.0006346
3771.15	0.0008895
3780.8	0.0007304
3790.44	0.0010127
3800.09	0.0005449
3809.73	0.000474
3819.38	0.0009264
3829.02	0.0007948
3838.67	0.00024221
3848.31	0.0003398
3857.96	0.0004429
3867.6	0.0007271
3877.25	0.0009911
3886.89	0.001435
3896.54	0.0006981
3906.18	0.0004319
3915.83	0.001145
3925.47	0.0004715
3935.12	0.0008138
3944.76	0.0009189
3954.41	0.0004795
3964.05	0.0005609
3973.69	0.0007264
3983.34	0.0004784
3992.98	0.0011143
