Infrared Spectrum: p-Pentylacetophenone
Formula: C 13 H 18 O
CAS: 37593-02-5
State: gas
Origin: EPA-IR VAPOR PHASE LIBRARY
1/CM	ABSORBANCE
549.8	0.001155
559.445	0.002197
569.09	0.006107
578.734	0.008737
588.379	0.009187
598.024	0.008027
607.669	0.003847
617.313	0.001647
626.958	0.001111
636.603	0.0012659
646.248	0.001527
655.893	0.002457
665.537	0.001837
675.182	0.002037
684.827	0.002467
694.472	0.001507
704.116	0.000906
713.761	0.0012768
723.406	0.0012661
733.051	0.001567
742.695	0.001687
752.34	0.001447
761.985	0.001457
771.63	0.001887
781.275	0.002407
790.919	0.003507
800.564	0.005087
810.209	0.006307
819.854	0.006237
829.498	0.005867
839.143	0.006467
848.788	0.005377
858.433	0.003187
868.078	0.001817
877.722	0.001427
887.367	0.001677
897.012	0.001717
906.657	0.001317
916.301	0.0012629
925.946	0.001957
935.591	0.003587
945.236	0.008757
954.88	0.010637
964.525	0.005047
974.17	0.003147
983.815	0.002567
993.46	0.002067
1003.1	0.002837
1012.75	0.005737
1022.39	0.003977
1032.04	0.001667
1041.68	0.001537
1051.33	0.001777
1060.97	0.001977
1070.62	0.003267
1080.26	0.002747
1089.91	0.001697
1099.55	0.001897
1109.2	0.003037
1118.84	0.002297
1128.49	0.001827
1138.13	0.001707
1147.78	0.001737
1157.42	0.001427
1167.07	0.002257
1176.71	0.008317
1186.36	0.012217
1196	0.004897
1205.64	0.003667
1215.29	0.004907
1224.93	0.008267
1234.58	0.013517
1244.22	0.018517
1253.87	0.043897
1263.51	0.065047
1273.16	0.022437
1282.8	0.009047
1292.45	0.007007
1302.09	0.006147
1311.74	0.004527
1321.38	0.003587
1331.03	0.004207
1340.67	0.006377
1350.32	0.012547
1359.96	0.022707
1369.61	0.013147
1379.25	0.006887
1388.9	0.005797
1398.54	0.006667
1408.18	0.010027
1417.83	0.008667
1427.47	0.006117
1437.12	0.005977
1446.76	0.006517
1456.41	0.006777
1466.05	0.006417
1475.7	0.004477
1485.34	0.002927
1494.99	0.002277
1504.63	0.002077
1514.28	0.001987
1523.92	0.001927
1533.57	0.001957
1543.21	0.002027
1552.86	0.002537
1562.5	0.003977
1572.15	0.004727
1581.79	0.003917
1591.44	0.007097
1601.08	0.017397
1610.73	0.019697
1620.37	0.007487
1630.01	0.003957
1639.66	0.003347
1649.3	0.003517
1658.95	0.004387
1668.59	0.005747
1678.24	0.009307
1687.88	0.021427
1697.53	0.060607
1707.17	0.057357
1716.82	0.018507
1726.46	0.007717
1736.11	0.004367
1745.75	0.003357
1755.4	0.002757
1765.04	0.001847
1774.69	0.001317
1784.33	0.0009914
1793.98	0.0012132
1803.62	0.0012315
1813.27	0.0009446
1822.91	0.0007534
1832.55	0.0007543
1842.2	0.0007248
1851.84	0.0006502
1861.49	0.0006971
1871.13	0.0007729
1880.78	0.0008687
1890.42	0.0010261
1900.07	0.0011929
1909.71	0.0011633
1919.36	0.0012264
1929	0.0010984
1938.65	0.0010267
1948.29	0.0008857
1957.94	0.0007253
1967.58	0.000593
1977.23	0.0005376
1986.87	0.0005329
1996.52	0.0005101
2006.16	0.0005417
2015.81	0.0006501
2025.45	0.0007184
2035.1	0.000672
2044.74	0.0006492
2054.38	0.0004971
2064.03	0.0004986
2073.67	0.0004498
2083.32	0.0004362
2092.96	0.0004819
2102.61	0.0004802
2112.25	0.00036489
2121.9	0.0004233
2131.54	0.00037182
2141.19	0.0004918
2150.83	0.0004122
2160.48	0.0005419
2170.12	0.0004663
2179.77	0.0004623
2189.41	0.0005234
2199.06	0.0004398
2208.7	0.000428
2218.35	0.0004192
2227.99	0.0004247
2237.64	0.0004436
2247.28	0.0004416
2256.92	0.0004312
2266.57	0.0005375
2276.21	0.0004882
2285.86	0.000552
2295.5	0.0006634
2305.15	0.0007113
2314.79	0.0006537
2324.44	0.0005631
2334.08	0.0005301
2343.73	0.0004642
2353.37	0.0005135
2363.02	0.0005494
2372.66	0.0005581
2382.31	0.0005558
2391.95	0.0006576
2401.6	0.0005893
2411.24	0.0005146
2420.89	0.0005899
2430.53	0.0005918
2440.18	0.000488
2449.82	0.0005779
2459.47	0.0004967
2469.11	0.0004192
2478.75	0.000416
2488.4	0.0005822
2498.04	0.000448
2507.69	0.0005928
2517.33	0.0008077
2526.98	0.0007004
2536.62	0.0006896
2546.27	0.0006828
2555.91	0.0007237
2565.56	0.0006911
2575.2	0.0007642
2584.85	0.000699
2594.49	0.0007832
2604.14	0.0007379
2613.78	0.0008549
2623.43	0.0009197
2633.07	0.0008285
2642.72	0.000809
2652.36	0.0008832
2662.01	0.0009352
2671.65	0.0009602
2681.29	0.0008575
2690.94	0.000925
2700.58	0.0009107
2710.23	0.0008598
2719.87	0.0008842
2729.52	0.0008238
2739.16	0.0008706
2748.81	0.0010154
2758.45	0.0011311
2768.1	0.0011334
2777.74	0.001377
2787.39	0.001457
2797.03	0.001707
2806.68	0.001997
2816.32	0.002337
2825.97	0.002967
2835.61	0.004087
2845.26	0.006257
2854.9	0.011467
2864.55	0.018207
2874.19	0.018617
2883.84	0.016577
2893.48	0.013717
2903.12	0.014487
2912.77	0.019897
2922.41	0.031267
2932.06	0.047437
2941.7	0.048817
2951.35	0.032727
2960.99	0.028477
2970.64	0.029937
2980.28	0.017187
2989.93	0.009737
2999.57	0.007787
3009.22	0.008047
3018.86	0.008007
3028.51	0.008967
3038.15	0.008727
3047.8	0.006207
3057.44	0.005167
3067.09	0.004767
3076.73	0.004867
3086.38	0.005097
3096.02	0.004017
3105.67	0.002737
3115.31	0.002247
3124.95	0.001707
3134.6	0.001367
3144.24	0.0012025
3153.89	0.0009565
3163.53	0.0007097
3173.18	0.0005369
3182.82	0.0006889
3192.47	0.000611
3202.11	0.0005228
3211.76	0.0005441
3221.4	0.0005813
3231.05	0.0005814
3240.69	0.00036198
3250.34	0.0004478
3259.98	0.0004375
3269.63	0.00036585
3279.27	0.0004275
3288.92	0.0004079
3298.56	0.000308511
3308.21	0.0005568
3317.85	0.0004428
3327.49	0.0004301
3337.14	0.0005593
3346.78	0.0004154
3356.43	0.0006056
3366.07	0.0006187
3375.72	0.0011508
3385.36	0.001697
3395.01	0.0010049
3404.65	0.000779
3414.3	0.00033033
3423.94	0.00040699
3433.59	0.00034674
3443.23	0.0004364
3452.88	0.00036634
3462.52	0.00038459
3472.17	0.0002355
3481.81	0.000184
3491.46	0.0002128
3501.1	0.00030048
3510.75	0.0004581
3520.39	0.000152
3530.04	0.0004383
3539.68	0.00032527
3549.32	0.00035018
3558.97	0.0004352
3568.61	0.00036285
3578.26	0.0002762
3587.9	0.0002526
3597.55	0.000192
3607.19	0.000309548
3616.84	0.0002859
3626.48	0.0004452
3636.13	0.000314175
3645.77	0.000269
3655.42	0.0002806
3665.06	0.000314534
3674.71	0.000337
3684.35	0.0004257
3694	0.00036424
3703.64	0.0005225
3713.29	0.0004622
3722.93	0.000315707
3732.58	0.000146
3742.22	0.0002311
3751.86	5.9e-05
3761.51	0.0004725
3771.15	0.000158
3780.8	0.00033769
3790.44	0.0004085
3800.09	0.0002941
3809.73	0.000165
3819.38	0.0002182
3829.02	0.0002743
3838.67	0.00033758
3848.31	0.00040418
3857.96	0.00036002
3867.6	0.0004896
3877.25	0.0005038
3886.89	0.0004392
3896.54	0.0004439
3906.18	0.00032389
3915.83	0.0004262
3925.47	0.00034607
3935.12	0.0002794
3944.76	0.0004814
3954.41	0.000356
3964.05	0.00035816
3973.69	0.000511
3983.34	0.00032247
3992.98	0.0005223
