Infrared Spectrum: p-Butoxybenzylidene p-propylaniline
Formula: C 20 H 25 N O
CAS: 37599-83-0
State: gas
Origin: EPA-IR VAPOR PHASE LIBRARY
1/CM	ABSORBANCE
549.8	0.0151746
559.445	0.0139746
569.09	0.0084546
578.734	0.0051846
588.379	0.0047646
598.024	0.0055046
607.669	0.0079046
617.313	0.0074546
626.958	0.0047746
636.603	0.0041446
646.248	0.0022946
655.893	0.0017746
665.537	0.0013946
675.182	0.0016446
684.827	0.0015146
694.472	0.0017746
704.116	0.0025146
713.761	0.0043946
723.406	0.0047746
733.051	0.0038446
742.695	0.0038146
752.34	0.0042146
761.985	0.0047146
771.63	0.0057546
781.275	0.0069146
790.919	0.0097446
800.564	0.0153246
810.209	0.0187646
819.854	0.0251646
829.498	0.0373346
839.143	0.0381346
848.788	0.0253646
858.433	0.0169646
868.078	0.0158946
877.722	0.0225946
887.367	0.0338646
897.012	0.0167946
906.657	0.0086546
916.301	0.0056146
925.946	0.0052746
935.591	0.0061646
945.236	0.0076746
954.88	0.0108946
964.525	0.0155146
974.17	0.0196146
983.815	0.0146446
993.46	0.0137146
1003.1	0.0196846
1012.75	0.0353246
1022.39	0.0334946
1032.04	0.0301846
1041.68	0.0204546
1051.33	0.0150646
1060.97	0.0203846
1070.62	0.0222746
1080.26	0.0158946
1089.91	0.0133246
1099.55	0.0170446
1109.2	0.0191646
1118.84	0.0158846
1128.49	0.0132746
1138.13	0.0142946
1147.78	0.0237346
1157.42	0.0915746
1167.07	0.170285
1176.71	0.0337746
1186.36	0.0350246
1196	0.0477046
1205.64	0.0487646
1215.29	0.0746246
1224.93	0.0994646
1234.58	0.134865
1244.22	0.182825
1253.87	0.144855
1263.51	0.0729646
1273.16	0.0449246
1282.8	0.0422946
1292.45	0.0492246
1302.09	0.0621146
1311.74	0.0403046
1321.38	0.0222646
1331.03	0.0177446
1340.67	0.0182746
1350.32	0.0133746
1359.96	0.0124746
1369.61	0.0138146
1379.25	0.0179146
1388.9	0.0227946
1398.54	0.0149246
1408.18	0.0139546
1417.83	0.0261646
1427.47	0.0152446
1437.12	0.0126146
1446.76	0.0146246
1456.41	0.0200346
1466.05	0.0299246
1475.7	0.0414146
1485.34	0.0299046
1494.99	0.0450046
1504.63	0.136015
1514.28	0.154705
1523.92	0.0402046
1533.57	0.0193346
1543.21	0.0142946
1552.86	0.0148846
1562.5	0.0233146
1572.15	0.0563046
1581.79	0.0537146
1591.44	0.0937546
1601.08	0.169115
1610.73	0.0911246
1620.37	0.0513746
1630.01	0.0956446
1639.66	0.0603346
1649.3	0.0243146
1658.95	0.0147746
1668.59	0.0105946
1678.24	0.0079346
1687.88	0.0061046
1697.53	0.0050146
1707.17	0.0043846
1716.82	0.0040346
1726.46	0.0038346
1736.11	0.0036546
1745.75	0.0037246
1755.4	0.0043246
1765.04	0.0050146
1774.69	0.0039846
1784.33	0.0028546
1793.98	0.0025346
1803.62	0.0022446
1813.27	0.0019546
1822.91	0.0018346
1832.55	0.0018246
1842.2	0.0020646
1851.84	0.0021746
1861.49	0.0023646
1871.13	0.0029746
1880.78	0.0039246
1890.42	0.0043746
1900.07	0.0035046
1909.71	0.0026646
1919.36	0.0025646
1929	0.0031546
1938.65	0.0030746
1948.29	0.0024246
1957.94	0.0022146
1967.58	0.0021846
1977.23	0.0023546
1986.87	0.0024246
1996.52	0.0026246
2006.16	0.0028746
2015.81	0.0034546
2025.45	0.0031946
2035.1	0.0031346
2044.74	0.0032346
2054.38	0.0031946
2064.03	0.0026646
2073.67	0.0024646
2083.32	0.0023146
2092.96	0.0020346
2102.61	0.0016946
2112.25	0.0014546
2121.9	0.0012546
2131.54	0.0011146
2141.19	0.0010546
2150.83	0.0009638
2160.48	0.0009544
2170.12	0.0008561
2179.77	0.0008481
2189.41	0.0007692
2199.06	0.0007684
2208.7	0.0007849
2218.35	0.0007456
2227.99	0.000801
2237.64	0.0008541
2247.28	0.0008304
2256.92	0.0009132
2266.57	0.0010846
2276.21	0.0011646
2285.86	0.0011446
2295.5	0.0011046
2305.15	0.0012346
2314.79	0.0011646
2324.44	0.0013346
2334.08	0.0013146
2343.73	0.0013546
2353.37	0.0011846
2363.02	0.0014746
2372.66	0.0014446
2382.31	0.0016646
2391.95	0.0017446
2401.6	0.0018246
2411.24	0.0019446
2420.89	0.0017946
2430.53	0.0017146
2440.18	0.0018546
2449.82	0.0021546
2459.47	0.0023446
2469.11	0.0024446
2478.75	0.0026046
2488.4	0.0025646
2498.04	0.0023146
2507.69	0.0022546
2517.33	0.0025546
2526.98	0.0026546
2536.62	0.0029746
2546.27	0.0032146
2555.91	0.0029046
2565.56	0.0026946
2575.2	0.0025946
2584.85	0.0023546
2594.49	0.0020446
2604.14	0.0017546
2613.78	0.0017546
2623.43	0.0015546
2633.07	0.0015946
2642.72	0.0015346
2652.36	0.0015346
2662.01	0.0017246
2671.65	0.0019746
2681.29	0.0019546
2690.94	0.0019446
2700.58	0.0021346
2710.23	0.0023446
2719.87	0.0028846
2729.52	0.0033446
2739.16	0.0037746
2748.81	0.0041546
2758.45	0.0041946
2768.1	0.0040346
2777.74	0.0041046
2787.39	0.0044346
2797.03	0.0050746
2806.68	0.0057246
2816.32	0.0071246
2825.97	0.0090746
2835.61	0.0127546
2845.26	0.0206046
2854.9	0.0340146
2864.55	0.0435246
2874.19	0.0572046
2883.84	0.0656946
2893.48	0.0486446
2903.12	0.0443646
2912.77	0.0540146
2922.41	0.0704046
2932.06	0.0919946
2941.7	0.101315
2951.35	0.0855846
2960.99	0.0914446
2970.64	0.107055
2980.28	0.0680846
2989.93	0.0357546
2999.57	0.0250146
3009.22	0.0211146
3018.86	0.0238146
3028.51	0.0369546
3038.15	0.0250346
3047.8	0.0163246
3057.44	0.0146646
3067.09	0.0162646
3076.73	0.0200546
3086.38	0.0141546
3096.02	0.0107646
3105.67	0.0078746
3115.31	0.0060546
3124.95	0.0039446
3134.6	0.0028446
3144.24	0.0024846
3153.89	0.0022046
3163.53	0.0018546
3173.18	0.0016746
3182.82	0.0017546
3192.47	0.0018346
3202.11	0.0015746
3211.76	0.0016846
3221.4	0.0014246
3231.05	0.0017146
3240.69	0.0016546
3250.34	0.0016346
3259.98	0.0014646
3269.63	0.0010339
3279.27	0.0006239
3288.92	0.000554
3298.56	0.0003961
3308.21	0.0004197
3317.85	0.0003567
3327.49	0.0004161
3337.14	0.0003474
3346.78	0.0002207
3356.43	0.0001589
3366.07	0.0002943
3375.72	0.0003416
3385.36	0.0002841
3395.01	0.0002211
3404.65	0.000275
3414.3	0.0001734
3423.94	0.0002159
3433.59	0.000217
3443.23	0.0003376
3452.88	0.0002366
3462.52	0.0002351
3472.17	9.473e-05
3481.81	0.00010289
3491.46	6.181e-05
3501.1	0.0001616
3510.75	0.00011634
3520.39	0.0001663
3530.04	7.145e-05
3539.68	0.0002424
3549.32	0.00010138
3558.97	0.0001455
3568.61	0.00010879
3578.26	0.0002953
3587.9	0.0001992
3597.55	0.0002974
3607.19	0.0001821
3616.84	0.0002377
3626.48	0.0003253
3636.13	0.0002814
3645.77	0.0003135
3655.42	0.0004783
3665.06	0.0003996
3674.71	0.0005195
3684.35	0.0005544
3694	0.0004156
3703.64	0.0004782
3713.29	0.0004209
3722.93	0.000439
3732.58	0.0003702
3742.22	0.0004264
3751.86	0.0004792
3761.51	0.0003881
3771.15	0.0003517
3780.8	0.0003019
3790.44	0.0003184
3800.09	0.0003015
3809.73	0.0004482
3819.38	0.0004983
3829.02	0.0005195
3838.67	0.0004569
3848.31	0.0004697
3857.96	0.0004996
3867.6	0.0004173
3877.25	0.0004454
3886.89	0.0005267
3896.54	0.0006225
3906.18	0.0004789
3915.83	0.0003825
3925.47	0.0004581
3935.12	0.000404
3944.76	0.0004985
3954.41	0.0006207
3964.05	0.0006581
3973.69	0.000725
3983.34	0.0005337
3992.98	0.0007298
