Infrared Spectrum: 4,4'-Dihexylazoxybenzene
Formula: C 24 H 34 N 2 O
CAS: 37592-88-4
State: gas
Origin: EPA-IR VAPOR PHASE LIBRARY
1/CM	ABSORBANCE
549.8	0.001285
559.445	0.0012615
569.09	0.0008302
578.734	0.0008713
588.379	0.0005292
598.024	0.00032641
607.669	0.0007485
617.313	0.0005941
626.958	0.000679
636.603	0.0006263
646.248	0.0009039
655.893	0.0004874
665.537	0.0004653
675.182	0.0006931
684.827	0.0007497
694.472	0.0006341
704.116	0.000659
713.761	0.0008884
723.406	0.000975
733.051	0.0009754
742.695	0.0006888
752.34	0.0005923
761.985	0.000563
771.63	0.0007991
781.275	0.0008131
790.919	0.001275
800.564	0.001425
810.209	0.002015
819.854	0.002805
829.498	0.003155
839.143	0.002825
848.788	0.002315
858.433	0.001735
868.078	0.0012521
877.722	0.000966
887.367	0.001082
897.012	0.000982
906.657	0.001455
916.301	0.002625
925.946	0.001355
935.591	0.0008802
945.236	0.0007962
954.88	0.00032614
964.525	0.0004107
974.17	0.0005167
983.815	0.0005412
993.46	0.0004716
1003.1	0.0005313
1012.75	0.002485
1022.39	0.001305
1032.04	0.0008715
1041.68	0.0007524
1051.33	0.0004996
1060.97	0.0001779
1070.62	0.0009978
1080.26	0.0004026
1089.91	0.0009653
1099.55	0.0009998
1109.2	0.0010887
1118.84	0.0009912
1128.49	0.0009127
1138.13	0.0005238
1147.78	0.0005945
1157.42	0.0009555
1167.07	0.003445
1176.71	0.000978
1186.36	0.0004243
1196	0.0006452
1205.64	0.0005112
1215.29	0.0005776
1224.93	0.0008504
1234.58	0.0011444
1244.22	0.0006558
1253.87	0.0008238
1263.51	0.0008788
1273.16	0.001475
1282.8	0.001775
1292.45	0.002155
1302.09	0.002485
1311.74	0.002295
1321.38	0.002565
1331.03	0.002755
1340.67	0.002315
1350.32	0.002115
1359.96	0.001835
1369.61	0.001605
1379.25	0.001555
1388.9	0.001585
1398.54	0.001665
1408.18	0.002635
1417.83	0.002365
1427.47	0.002045
1437.12	0.002765
1446.76	0.004935
1456.41	0.009175
1466.05	0.013705
1475.7	0.008015
1485.34	0.005165
1494.99	0.007685
1504.63	0.007545
1514.28	0.002525
1523.92	0.001435
1533.57	0.001049
1543.21	0.000881
1552.86	0.0006803
1562.5	0.0008351
1572.15	0.000797
1581.79	0.000974
1591.44	0.001405
1601.08	0.002135
1610.73	0.001375
1620.37	0.0007731
1630.01	0.0006577
1639.66	0.0006598
1649.3	0.0005965
1658.95	0.0005314
1668.59	0.0005844
1678.24	0.0005372
1687.88	0.0004699
1697.53	0.0004871
1707.17	0.0004268
1716.82	0.00034641
1726.46	0.0004813
1736.11	0.000434
1745.75	0.0003975
1755.4	0.0005816
1765.04	0.0005218
1774.69	0.0006531
1784.33	0.0007082
1793.98	0.000482
1803.62	0.0004683
1813.27	0.0003794
1822.91	0.0004131
1832.55	0.0003871
1842.2	0.000471
1851.84	0.0005376
1861.49	0.0004431
1871.13	0.0004555
1880.78	0.0004883
1890.42	0.0005802
1900.07	0.0007134
1909.71	0.0006765
1919.36	0.0006013
1929	0.0004444
1938.65	0.0004463
1948.29	0.0004161
1957.94	0.0004319
1967.58	0.00036059
1977.23	0.0004314
1986.87	0.00036996
1996.52	0.000399
2006.16	0.0004088
2015.81	0.00037262
2025.45	0.0004416
2035.1	0.0004571
2044.74	0.00047
2054.38	0.0004627
2064.03	0.0004231
2073.67	0.0004335
2083.32	0.0003841
2092.96	0.000438
2102.61	0.0004279
2112.25	0.000417
2121.9	0.0004264
2131.54	0.0004259
2141.19	0.0004145
2150.83	0.0003811
2160.48	0.00035469
2170.12	0.00033831
2179.77	0.0004925
2189.41	0.0003954
2199.06	0.00037373
2208.7	0.0004025
2218.35	0.0004293
2227.99	0.0003619
2237.64	0.0004013
2247.28	0.0004421
2256.92	0.0003983
2266.57	0.0004357
2276.21	0.0004959
2285.86	0.0004589
2295.5	0.0005297
2305.15	0.0004044
2314.79	0.0004578
2324.44	0.0003948
2334.08	0.0004548
2343.73	0.000508
2353.37	0.0005195
2363.02	0.0005104
2372.66	0.0005108
2382.31	0.0006285
2391.95	0.0005126
2401.6	0.0006221
2411.24	0.0004629
2420.89	0.0004198
2430.53	0.0005907
2440.18	0.0005381
2449.82	0.0005148
2459.47	0.0005144
2469.11	0.0004554
2478.75	0.0004318
2488.4	0.0004306
2498.04	0.0005159
2507.69	0.0004626
2517.33	0.0004265
2526.98	0.0004839
2536.62	0.0005154
2546.27	0.0006113
2555.91	0.0006146
2565.56	0.0006096
2575.2	0.0005897
2584.85	0.0004115
2594.49	0.0005931
2604.14	0.0005744
2613.78	0.0006201
2623.43	0.0006248
2633.07	0.0006471
2642.72	0.0007975
2652.36	0.0006358
2662.01	0.0005932
2671.65	0.0006691
2681.29	0.0006948
2690.94	0.0006402
2700.58	0.0007064
2710.23	0.0007454
2719.87	0.0007186
2729.52	0.0007109
2739.16	0.0009577
2748.81	0.000744
2758.45	0.0008311
2768.1	0.0009208
2777.74	0.0008921
2787.39	0.0009387
2797.03	0.001017
2806.68	0.0011534
2816.32	0.0012372
2825.97	0.001535
2835.61	0.001905
2845.26	0.002975
2854.9	0.005795
2864.55	0.009455
2874.19	0.008035
2883.84	0.006945
2893.48	0.006015
2903.12	0.006935
2912.77	0.009715
2922.41	0.015075
2932.06	0.023735
2941.7	0.022385
2951.35	0.013295
2960.99	0.011265
2970.64	0.011375
2980.28	0.005755
2989.93	0.003505
2999.57	0.002455
3009.22	0.002205
3018.86	0.002155
3028.51	0.003195
3038.15	0.003085
3047.8	0.002505
3057.44	0.001835
3067.09	0.001745
3076.73	0.001815
3086.38	0.001395
3096.02	0.0011189
3105.67	0.0010816
3115.31	0.0009741
3124.95	0.000638
3134.6	0.0006655
3144.24	0.0006073
3153.89	0.0005308
3163.53	0.0004525
3173.18	0.0005291
3182.82	0.0004871
3192.47	0.0005522
3202.11	0.0004327
3211.76	0.0005241
3221.4	0.000171
3231.05	0.0003811
3240.69	0.0002928
3250.34	0.0004427
3259.98	0.000284054
3269.63	0.00035711
3279.27	0.00030424
3288.92	0.00033482
3298.56	0.00033797
3308.21	0.00034512
3317.85	0.0002033
3327.49	0.00032682
3337.14	0.0004403
3346.78	0.0004031
3356.43	0.0002008
3366.07	0.0004051
3375.72	0.0001931
3385.36	0.00034366
3395.01	0.00026801
3404.65	0.00034647
3414.3	0.0002146
3423.94	0.0002616
3433.59	9.1e-05
3443.23	0.0003441
3452.88	0.0003891
3462.52	0.000483
3472.17	0.00033257
3481.81	0.0002189
3491.46	0.0002401
3501.1	0.0002273
3510.75	0.0002
3520.39	0.0001863
3530.04	0.0002045
3539.68	0.00029933
3549.32	0.000276164
3558.97	0.00031358
3568.61	0.0001816
3578.26	0.000173
3587.9	0.0002163
3597.55	0.0002352
3607.19	0.000169
3616.84	0.0002337
3626.48	0.00030584
3636.13	0.00027264
3645.77	0.000134
3655.42	0.000172
3665.06	0.0003816
3674.71	0.0002326
3684.35	0.0003925
3694	0.000254
3703.64	7e-05
3713.29	0.000103
3722.93	0.00035332
3732.58	0.0004133
3742.22	0.00029919
3751.86	0.000127
3761.51	0.00026887
3771.15	0.0002503
3780.8	0.00028626
3790.44	0.00035068
3800.09	0.0002237
3809.73	0.0005129
3819.38	0.0002142
3829.02	0.00017
3838.67	0.00015
3848.31	0.00027133
3857.96	0.000142
3867.6	0.000277829
3877.25	0.00031
3886.89	0.000192
3896.54	0.000117
3906.18	0.00034338
3915.83	0.00035226
3925.47	0.0002444
3935.12	0.00032752
3944.76	0.0003773
3954.41	0.0004662
3964.05	0.00029676
3973.69	0.0003774
3983.34	0.000186
3992.98	0.0003811
