Infrared Spectrum: (4,4'-Diheptyl)azoxybenzene
Formula: C 26 H 38 N 2 O
CAS: 37592-89-5
State: gas
Origin: EPA-IR VAPOR PHASE LIBRARY
1/CM	ABSORBANCE
549.8	0.0005041
559.445	0.0004863
569.09	0.0005121
578.734	0.00040409
588.379	0.0002949
598.024	8.1e-05
607.669	0.00036046
617.313	0.0002319
626.958	0.00038986
636.603	0.000155
646.248	0.000193
655.893	0.0002621
665.537	0.0002839
675.182	0.00041261
684.827	0.000321976
694.472	0.000326856
704.116	0.0004267
713.761	0.0005788
723.406	0.0005675
733.051	0.000519
742.695	0.0005241
752.34	0.000321352
761.985	0.0005106
771.63	0.0004839
781.275	0.0005892
790.919	0.0007545
800.564	0.0009849
810.209	0.0011911
819.854	0.001532
829.498	0.001902
839.143	0.001742
848.788	0.001442
858.433	0.000955
868.078	0.0007294
877.722	0.0006233
887.367	0.000498
897.012	0.0006096
906.657	0.0009707
916.301	0.001462
925.946	0.0009251
935.591	0.0005536
945.236	0.0003111
954.88	0.00039336
964.525	0.00040489
974.17	0.00039736
983.815	0.00035803
993.46	0.0004345
1003.1	0.0004909
1012.75	0.001592
1022.39	0.0009275
1032.04	0.0003047
1041.68	0.0002961
1051.33	0.0005294
1060.97	0.0004561
1070.62	0.0003047
1080.26	0.00034292
1089.91	0.000776
1099.55	0.0010133
1109.2	0.0009278
1118.84	0.0007256
1128.49	0.0002871
1138.13	0.0004776
1147.78	0.0004582
1157.42	0.0007139
1167.07	0.001842
1176.71	0.0004261
1186.36	0.00039608
1196	0.000213
1205.64	0.0002825
1215.29	0.000331362
1224.93	0.0006557
1234.58	0.0006691
1244.22	0.0005609
1253.87	0.0004735
1263.51	0.0005423
1273.16	0.0007219
1282.8	0.0010486
1292.45	0.0012431
1302.09	0.001422
1311.74	0.001342
1321.38	0.001502
1331.03	0.001632
1340.67	0.001342
1350.32	0.0012854
1359.96	0.0011422
1369.61	0.0009585
1379.25	0.0009122
1388.9	0.0009063
1398.54	0.0009878
1408.18	0.001522
1417.83	0.001382
1427.47	0.0012048
1437.12	0.001672
1446.76	0.003072
1456.41	0.005622
1466.05	0.008342
1475.7	0.004772
1485.34	0.003022
1494.99	0.004632
1504.63	0.004542
1514.28	0.001512
1523.92	0.0008318
1533.57	0.0006083
1543.21	0.0005138
1552.86	0.0004389
1562.5	0.0004864
1572.15	0.0004418
1581.79	0.000515
1591.44	0.0007984
1601.08	0.0012636
1610.73	0.0007705
1620.37	0.000431
1630.01	0.00039194
1639.66	0.0003137
1649.3	0.000321013
1658.95	0.0002964
1668.59	0.0002586
1678.24	0.000291
1687.88	0.000204
1697.53	0.00019
1707.17	0.00022
1716.82	0.000189
1726.46	0.000217
1736.11	0.0002433
1745.75	0.00022
1755.4	0.0002546
1765.04	0.0002372
1774.69	0.00034801
1784.33	0.00035605
1793.98	0.0002426
1803.62	0.000196
1813.27	0.000182
1822.91	0.000171
1832.55	0.000174
1842.2	0.000204
1851.84	0.000191
1861.49	0.000161
1871.13	0.000187
1880.78	0.000205
1890.42	0.000252
1900.07	0.0002956
1909.71	0.000377
1919.36	0.0002874
1929	0.000213
1938.65	0.000148
1948.29	0.000175
1957.94	0.000163
1967.58	0.000177
1977.23	0.000184
1986.87	0.000162
1996.52	0.000167
2006.16	0.000155
2015.81	0.000167
2025.45	0.000193
2035.1	0.000208
2044.74	0.0002431
2054.38	0.000191
2064.03	0.000182
2073.67	0.000183
2083.32	0.000181
2092.96	0.000214
2102.61	0.000207
2112.25	0.000158
2121.9	0.000216
2131.54	0.000174
2141.19	0.000168
2150.83	0.000173
2160.48	0.00017
2170.12	0.000175
2179.77	0.000205
2189.41	0.000198
2199.06	0.000199
2208.7	0.000149
2218.35	0.000173
2227.99	0.000204
2237.64	0.0002246
2247.28	0.000187
2256.92	0.000205
2266.57	0.000196
2276.21	0.000182
2285.86	0.00021
2295.5	0.000157
2305.15	0.000188
2314.79	0.0002636
2324.44	0.0002227
2334.08	0.000213
2343.73	0.0002284
2353.37	0.000196
2363.02	0.000208
2372.66	0.000213
2382.31	0.0002501
2391.95	0.0002445
2401.6	0.00022
2411.24	0.000207
2420.89	0.000191
2430.53	0.000203
2440.18	0.000168
2449.82	0.000222
2459.47	0.000167
2469.11	0.0002
2478.75	0.0002339
2488.4	0.000148
2498.04	0.000203
2507.69	0.000203
2517.33	0.0002356
2526.98	0.0002624
2536.62	0.000207
2546.27	0.0002406
2555.91	0.0002716
2565.56	0.0002554
2575.2	0.0003037
2584.85	0.0002665
2594.49	0.000323216
2604.14	0.0002617
2613.78	0.0002933
2623.43	0.0002743
2633.07	0.0002966
2642.72	0.000321428
2652.36	0.0002977
2662.01	0.000330093
2671.65	0.00031608
2681.29	0.00033716
2690.94	0.00037734
2700.58	0.00034434
2710.23	0.00036033
2719.87	0.00042055
2729.52	0.0004587
2739.16	0.00046
2748.81	0.0004679
2758.45	0.0004936
2768.1	0.000539
2777.74	0.0005004
2787.39	0.0005403
2797.03	0.0006551
2806.68	0.0006372
2816.32	0.0008664
2825.97	0.0010247
2835.61	0.001332
2845.26	0.002072
2854.9	0.004232
2864.55	0.006812
2874.19	0.005532
2883.84	0.004562
2893.48	0.004012
2903.12	0.004832
2912.77	0.007032
2922.41	0.011242
2932.06	0.017712
2941.7	0.015832
2951.35	0.008912
2960.99	0.007202
2970.64	0.006852
2980.28	0.003652
2989.93	0.002092
2999.57	0.001542
3009.22	0.001332
3018.86	0.0012402
3028.51	0.001862
3038.15	0.001822
3047.8	0.001462
3057.44	0.0011215
3067.09	0.0010303
3076.73	0.0009758
3086.38	0.0008817
3096.02	0.0006077
3105.67	0.0005801
3115.31	0.00037131
3124.95	0.00033358
3134.6	0.0003041
3144.24	0.000233
3153.89	0.000189
3163.53	0.00034193
3173.18	0.0002319
3182.82	0.000105
3192.47	0.00014
3202.11	0.0002221
3211.76	0.000166
3221.4	0.000187
3231.05	0.000171
3240.69	0.00015
3250.34	0.000131
3259.98	0.000169
3269.63	8.5e-05
3279.27	0.000156
3288.92	0.000118
3298.56	6.9e-05
3308.21	0.000143
3317.85	0.000154
3327.49	0.000132
3337.14	0.000188
3346.78	0.000227
3356.43	0.000152
3366.07	0.000108
3375.72	1e-05
3385.36	0.000156
3395.01	0.00014
3404.65	0.000136
3414.3	0.000107
3423.94	0.00017
3433.59	2.2e-05
3443.23	0.000114
3452.88	0.000146
3462.52	0.000192
3472.17	0.000204
3481.81	0.000134
3491.46	0.000185
3501.1	0.000196
3510.75	0.000112
3520.39	8e-05
3530.04	8.8e-05
3539.68	0.000129
3549.32	0.000183
3558.97	0.000184
3568.61	0.000141
3578.26	0.000115
3587.9	0.000145
3597.55	0.000164
3607.19	0.000212
3616.84	0.000105
3626.48	0.0002314
3636.13	0.000101
3645.77	0.000153
3655.42	0.000143
3665.06	0.000216
3674.71	0.000127
3684.35	0.00021
3694	0.000139
3703.64	0.000232
3713.29	0.000178
3722.93	0.000227
3732.58	0.000213
3742.22	0.000141
3751.86	0.000157
3761.51	0.000148
3771.15	0.000165
3780.8	0.000151
3790.44	0.000215
3800.09	0.000145
3809.73	5.8e-05
3819.38	3.8e-05
3829.02	0.0002681
3838.67	0.000152
3848.31	0.000136
3857.96	0.000121
3867.6	0.000173
3877.25	0.000131
3886.89	9e-06
3896.54	0.00015
3906.18	0.000118
3915.83	0.000131
3925.47	0.000132
3935.12	8.1e-05
3944.76	0.000195
3954.41	0.000169
3964.05	0.00031926
3973.69	0.000116
3983.34	0.0002983
3992.98	3.5e-05
