Infrared Spectrum: Octanoic acid, pentadecafluoro-, methyl ester
Formula: C9 H3 F15 O2
CAS: 376-27-2
State: LIQUID (NEAT)
Class: COBLENTZ III
Instrument: PERKIN-ELMER 221 (GRATING)
Instrument parameters: FILTER AT 980 CM^-^1. GRATING 4000-1428 CM^-^1, NaCl PRISM 1428-650 CM^-^1
Path length: CAPILLARY
Resolution: 2
Origin: SOUTHERN RESEARCH INSTITUTE
1/CM	TRANSMITTANCE
608	0.5488
617	0.5422
626	0.5412
635	0.5754
644	0.6288
653	0.5145
662	0.5225
671	0.6954
680	0.7338
689	0.6419
698	0.6406
707	0.6929
716	0.5342
725	0.5529
734	0.6336
743	0.5419
752	0.8461
761	0.859
770	0.7175
779	0.7625
788	0.7727
797	0.6582
806	0.73
815	0.7198
824	0.8919
833	0.8206
842	0.9414
851	0.9531
860	0.9383
869	0.8754
878	0.8092
887	0.8532
896	0.8976
905	0.922
914	0.9238
923	0.9165
932	0.8968
941	0.824
950	0.8073
959	0.8472
968	0.8411
977	0.6005
986	0.746
995	0.7753
1004	0.626
1013	0.5415
1022	0.6385
1031	0.7952
1040	0.8059
1049	0.7762
1058	0.7512
1067	0.6886
1076	0.5548
1085	0.6773
1094	0.7774
1103	0.6678
1112	0.528
1121	0.2518
1130	0.1237
1139	0.1035
1148	0.1558
1157	0.2179
1166	0.1637
1175	0.1305
1184	0.0677
1193	0.0497
1202	0.0501
1211	0.0519
1220	0.0523
1229	0.0518
1238	0.0642
1247	0.0952
1256	0.1314
1265	0.1982
1274	0.2669
1283	0.3188
1292	0.3514
1301	0.3584
1310	0.3353
1319	0.2921
1328	0.3214
1337	0.4627
1346	0.6053
1355	0.6331
1364	0.7597
1373	0.8225
1382	0.8428
1391	0.8545
1400	0.8621
1409	0.863
1418	0.8453
1427	0.804
1436	0.5113
1445	0.7062
1454	0.732
1463	0.8151
1472	0.8578
1481	0.8693
1490	0.8714
1499	0.8722
1508	0.8729
1517	0.8731
1526	0.8726
1535	0.8705
1544	0.8676
1553	0.8659
1562	0.8679
1571	0.8703
1580	0.8719
1589	0.8705
1598	0.8688
1607	0.867
1616	0.8665
1625	0.8664
1634	0.8665
1643	0.867
1652	0.8673
1661	0.8664
1670	0.8643
1679	0.8612
1688	0.8577
1697	0.8532
1706	0.8466
1715	0.8326
1724	0.812
1733	0.7839
1742	0.7396
1751	0.6768
1760	0.59
1769	0.3843
1778	0.211
1787	0.1207
1796	0.2349
1805	0.5192
1814	0.745
1823	0.7869
1832	0.8136
1841	0.8314
1850	0.8427
1859	0.8487
1868	0.8496
1877	0.8477
1886	0.8488
1895	0.8519
1904	0.8514
1913	0.8508
1922	0.8507
1931	0.8509
1940	0.8507
1949	0.8501
1958	0.8494
1967	0.8486
1976	0.8448
1985	0.837
1994	0.8301
2003	0.8489
2012	0.8503
2021	0.8498
2030	0.8493
2039	0.8495
2048	0.8497
2057	0.8497
2066	0.8497
2075	0.8494
2084	0.849
2093	0.8481
2102	0.8475
2111	0.8469
2120	0.8464
2129	0.8458
2138	0.8446
2147	0.8433
2156	0.8419
2165	0.8408
2174	0.8397
2183	0.8387
2192	0.8378
2201	0.8369
2210	0.8361
2219	0.8353
2228	0.8346
2237	0.8327
2246	0.8309
2255	0.8291
2264	0.8274
2273	0.8258
2282	0.8243
2291	0.8226
2300	0.8203
2309	0.8178
2318	0.8118
2327	0.8071
2336	0.8054
2345	0.8039
2354	0.8031
2363	0.8024
2372	0.802
2381	0.8024
2390	0.8027
2399	0.803
2408	0.8033
2417	0.8036
2426	0.8039
2435	0.8042
2444	0.8045
2453	0.8048
2462	0.8052
2471	0.8055
2480	0.8059
2489	0.8062
2498	0.8064
2507	0.8066
2516	0.8067
2525	0.8066
2534	0.8065
2543	0.8067
2552	0.8071
2561	0.808
2570	0.8082
2579	0.8081
2588	0.8086
2597	0.809
2606	0.8093
2615	0.8094
2624	0.8094
2633	0.8094
2642	0.8089
2651	0.8084
2660	0.8083
2669	0.8085
2678	0.8087
2687	0.8089
2696	0.8096
2705	0.8103
2714	0.8108
2723	0.8108
2732	0.8108
2741	0.8108
2750	0.8098
2759	0.8084
2768	0.807
2777	0.8053
2786	0.8036
2795	0.8018
2804	0.7999
2813	0.798
2822	0.7961
2831	0.7923
2840	0.788
2849	0.7811
2858	0.779
2867	0.7845
2876	0.7918
2885	0.7895
2894	0.7851
2903	0.7816
2912	0.7803
2921	0.7792
2930	0.7772
2939	0.7733
2948	0.7628
2957	0.7414
2966	0.6874
2975	0.6975
2984	0.7615
2993	0.7661
3002	0.7661
3011	0.7641
3020	0.7638
3029	0.766
3038	0.7669
3047	0.7677
3056	0.7684
3065	0.7691
3074	0.7699
3083	0.7707
3092	0.7712
3101	0.7713
3110	0.7714
3119	0.7709
3128	0.7703
3137	0.7698
3146	0.7692
3155	0.7683
3164	0.7672
3173	0.7625
3182	0.76
3191	0.7592
3200	0.7581
3209	0.7562
3218	0.7532
3227	0.7498
3236	0.7476
3245	0.7463
3254	0.7453
3263	0.7448
3272	0.7443
3281	0.744
3290	0.7438
3299	0.7435
3308	0.7436
3317	0.7437
3326	0.7437
3335	0.7436
3344	0.7433
3353	0.7435
3362	0.7445
3371	0.7449
3380	0.7452
3389	0.7456
3398	0.746
3407	0.7463
3416	0.7467
3425	0.747
3434	0.7472
3443	0.7461
3452	0.7454
3461	0.7448
3470	0.7442
3479	0.7425
3488	0.7408
3497	0.7389
3506	0.737
3515	0.7358
3524	0.7351
3533	0.7353
3542	0.7358
3551	0.7365
3560	0.738
3569	0.7396
3578	0.7432
3587	0.7457
3596	0.7476
3605	0.7483
3614	0.7483
3623	0.748
3632	0.7478
3641	0.7479
3650	0.748
3659	0.7481
3668	0.7481
3677	0.7481
3686	0.7481
3695	0.7481
3704	0.7481
3713	0.7481
3722	0.7481
3731	0.7482
3740	0.748
3749	0.7477
3758	0.7474
3767	0.7471
3776	0.7468
3785	0.747
3794	0.7472
3803	0.7474
3812	0.7476
3821	0.748
3830	0.7485
3839	0.749
3848	0.7495
3857	0.7499
3866	0.7504
3875	0.7509
3884	0.7512
3893	0.7511
3902	0.751
3911	0.7509
3920	0.7509
3929	0.7509
3938	0.7509
3947	0.7511
3956	0.7513
3965	0.7507
3974	0.7499
3983	0.7494
3992	0.7491
