Infrared Spectrum: PERFLUOROGLUTARIC ACID
Formula: C5 H2 F6 O4
CAS: 376-73-8
State: SOLID (MINERAL OIL MULL)
Melting point: 90-94 C
Class: COBLENTZ
Instrument: Not specified, most likely a prism, grating, or hybrid spectrometer.
Sampling: TRANSMISSION
Resolution: 4
Origin: WYANDOTTE CHEMICALS CORP., WYANDOTTE, MICHIGAN, USA
MICROMETERS	TRANSMITTANCE
2.053	0.948
2.09279	0.948
2.13258	0.948
2.17237	0.951
2.21217	0.94
2.25196	0.94
2.29175	0.943
2.33154	0.94
2.37133	0.943
2.41112	0.945
2.45091	0.941
2.49071	0.943
2.5305	0.938
2.57029	0.941
2.61008	0.933
2.64987	0.945
2.68966	0.935
2.72945	0.923
2.76925	0.918
2.80904	0.895
2.84883	0.865
2.88862	0.84
2.92841	0.82
2.9682	0.795
3.00799	0.739
3.04779	0.594
3.08758	0.465
3.12737	0.357
3.16716	0.28
3.20695	0.26
3.24674	0.29
3.28654	0.33
3.32633	0.36
3.36612	0.264
3.40591	0.229
3.4457	0.338
3.48549	0.4
3.52528	0.465
3.56508	0.739
3.60487	0.807
3.64466	0.833
3.68445	0.84
3.72424	0.843
3.76403	0.823
3.80382	0.83
3.84362	0.87
3.88341	0.89
3.9232	0.893
3.96299	0.89
4.00278	0.883
4.04257	0.893
4.08236	0.88
4.12216	0.87
4.16195	0.893
4.20174	0.906
4.24153	0.931
4.28132	0.93
4.32111	0.951
4.3609	0.968
4.4007	0.993
4.44049	0.996
4.48028	0.981
4.52007	0.983
4.55986	0.985
4.59965	0.985
4.63944	0.985
4.67924	0.985
4.71903	0.985
4.75882	0.983
4.79861	0.981
4.8384	0.981
4.87819	0.976
4.91798	0.973
4.95778	0.968
4.99757	0.965
5.03736	0.96
5.07715	0.95
5.11694	0.943
5.15673	0.938
5.19652	0.935
5.23632	0.93
5.27611	0.923
5.3159	0.918
5.35569	0.901
5.39548	0.883
5.43527	0.86
5.47506	0.827
5.51486	0.799
5.55465	0.752
5.59444	0.672
5.63423	0.543
5.67402	0.401
5.71381	0.098
5.75361	0.192
5.7934	0.181
5.83319	0.197
5.87298	0.27
5.91277	0.355
5.95256	0.43
5.99235	0.521
6.03215	0.581
6.07194	0.622
6.11173	0.656
6.15152	0.692
6.19131	0.729
6.2311	0.754
6.27089	0.807
6.31069	0.842
6.35048	0.858
6.39027	0.855
6.43006	0.82
6.46985	0.8
6.50964	0.845
6.54943	0.86
6.58923	0.875
6.62902	0.88
6.66881	0.88
6.7086	0.862
6.74839	0.805
6.78818	0.622
6.82797	0.569
6.86777	0.538
6.90756	0.495
6.94735	0.476
6.98714	0.543
7.02693	0.47
7.06672	0.35
7.10651	0.453
7.14631	0.626
7.1861	0.745
7.22589	0.75
7.26568	0.709
7.30547	0.795
7.34526	0.835
7.38505	0.86
7.42485	0.86
7.46464	0.852
7.50443	0.848
7.54422	0.837
7.58401	0.828
7.6238	0.812
7.66359	0.77
7.70339	0.686
7.74318	0.651
7.78297	0.702
7.82276	0.712
7.86255	0.7
7.90234	0.669
7.94214	0.606
7.98193	0.503
8.02172	0.398
8.06151	0.382
8.1013	0.363
8.14109	0.338
8.18088	0.372
8.22068	0.294
8.26047	0.2
8.30026	0.139
8.34005	0.109
8.37984	0.122
8.41963	0.205
8.45942	0.272
8.49922	0.191
8.53901	0.129
8.5788	0.156
8.61859	0.159
8.65838	0.151
8.69817	0.184
8.73796	0.277
8.77776	0.392
8.81755	0.475
8.85734	0.568
8.89713	0.611
8.93692	0.651
8.97671	0.681
9.0165	0.715
9.0563	0.742
9.09609	0.759
9.13588	0.765
9.17567	0.77
9.21546	0.762
9.25525	0.722
9.29504	0.636
9.33484	0.715
9.37463	0.775
9.41442	0.789
9.45421	0.792
9.494	0.797
9.53379	0.8
9.57358	0.807
9.61338	0.817
9.65317	0.82
9.69296	0.823
9.73275	0.823
9.77254	0.822
9.81233	0.817
9.85212	0.823
9.89192	0.835
9.93171	0.85
9.9715	0.86
10.0113	0.863
10.0511	0.863
10.0909	0.865
10.1307	0.862
10.1705	0.863
10.2102	0.863
10.25	0.86
10.2898	0.857
10.3296	0.853
10.3694	0.85
10.4092	0.85
10.449	0.842
10.4888	0.84
10.5286	0.838
10.5684	0.837
10.6082	0.827
10.648	0.828
10.6877	0.83
10.7275	0.833
10.7673	0.83
10.8071	0.83
10.8469	0.827
10.8867	0.817
10.9265	0.807
10.9663	0.792
11.0061	0.779
11.0459	0.774
11.0857	0.764
11.1255	0.745
11.1652	0.709
11.205	0.612
11.2448	0.486
11.2846	0.524
11.3244	0.593
11.3642	0.611
11.404	0.604
11.4438	0.594
11.4836	0.584
11.5234	0.564
11.5632	0.554
11.6029	0.533
11.6427	0.523
11.6825	0.509
11.7223	0.498
11.7621	0.498
11.8019	0.495
11.8417	0.488
11.8815	0.488
11.9213	0.498
11.9611	0.516
12.0009	0.541
12.0407	0.578
12.0804	0.609
12.1202	0.642
12.16	0.674
12.1998	0.7
12.2396	0.725
12.2794	0.744
12.3192	0.77
12.359	0.779
12.3988	0.797
12.4386	0.807
12.4784	0.813
12.5182	0.823
12.5579	0.827
12.5977	0.825
12.6375	0.822
12.6773	0.818
12.7171	0.802
12.7569	0.769
12.7967	0.734
12.8365	0.634
12.8763	0.546
12.9161	0.481
12.9559	0.481
12.9956	0.534
13.0354	0.556
13.0752	0.616
13.115	0.691
13.1548	0.742
13.1946	0.77
13.2344	0.797
13.2742	0.81
13.314	0.818
13.3538	0.832
13.3936	0.835
13.4334	0.842
13.4731	0.848
13.5129	0.853
13.5527	0.858
13.5925	0.862
13.6323	0.862
13.6721	0.872
13.7119	0.868
13.7517	0.868
13.7915	0.873
13.8313	0.877
13.8711	0.88
13.9109	0.882
13.9506	0.888
13.9904	0.895
14.0302	0.897
14.07	0.895
14.1098	0.868
14.1496	0.818
14.1894	0.794
14.2292	0.817
14.269	0.853
14.3088	0.877
14.3486	0.892
14.3884	0.908
14.4281	0.91
14.4679	0.913
14.5077	0.918
14.5475	0.92
14.5873	0.921
14.6271	0.923
14.6669	0.928
14.7067	0.928
14.7465	0.928
14.7863	0.926
14.8261	0.928
14.8658	0.923
14.9056	0.925
14.9454	0.926
14.9852	0.925
15.025	0.91
15.0648	0.89
15.1046	0.885
15.1444	0.901
15.1842	0.915
15.224	0.918
15.2638	0.908
15.3036	0.905
15.3433	0.9
15.3831	0.897
15.4229	0.888
15.4627	0.885
15.5025	0.878
15.5423	0.873
15.5821	0.868
15.6219	0.862
15.6617	0.853
15.7015	0.842
15.7413	0.833
15.7811	0.818
15.8208	0.79
15.8606	0.762
15.9004	0.739
15.9402	0.717
15.98	0.715
16.0198	0.715
