Infrared Spectrum: 1,5-Dimethyl-1,5-cyclooctadiene
Formula: C 10 H 16
CAS: 3760-14-3
State: gas
Instrument: HP-GC/MS/IRD
Origin: NIST Mass Spectrometry Data Center
1/CM	ABSORBANCE
550	0.00056
562	0.0001525
574	3.5e-05
586	3.75e-05
598	0.0001725
610	0.000255
622	0.0002275
634	0.00018
646	0.000165
658	0.0001575
670	0.0001275
682	0.0001975
694	0.0002275
706	0.0001475
718	0.0002725
730	0.00029
742	0.000275
754	0.0002625
766	0.000445
778	0.0010225
790	0.0017025
802	0.001875
814	0.0022975
826	0.0031275
838	0.002705
850	0.001725
862	0.001185
874	0.000855
886	0.0008875
898	0.0008975
910	0.00066
922	0.000595
934	0.000625
946	0.0006275
958	0.0006675
970	0.0006925
982	0.0008475
994	0.000785
1006	0.0006375
1018	0.00063
1030	0.0006425
1042	0.0006125
1054	0.0008375
1066	0.001445
1078	0.0013775
1090	0.00073
1102	0.00046
1114	0.000305
1126	0.00033
1138	0.0004925
1150	0.000655
1162	0.000555
1174	0.000395
1186	0.0004275
1198	0.00057
1210	0.0007275
1222	0.000805
1234	0.00065
1246	0.0007
1258	0.0008025
1270	0.0007225
1282	0.000455
1294	0.00043
1306	0.000535
1318	0.00072
1330	0.00084
1342	0.0008275
1354	0.0007825
1366	0.00125
1378	0.002245
1390	0.001755
1402	0.0010725
1414	0.001335
1426	0.0025675
1438	0.004155
1450	0.0047375
1462	0.003565
1474	0.00234
1486	0.0022725
1498	0.0017525
1510	0.00079
1522	0.0003775
1534	0.0003
1546	0.00031
1558	0.0002425
1570	0.0003325
1582	0.0003875
1594	0.0003975
1606	0.00042
1618	0.000515
1630	0.000535
1642	0.0004625
1654	0.0005275
1666	0.000565
1678	0.0003725
1690	0.0001775
1702	0.0001
1714	0.000165
1726	0.0001875
1738	0.0001575
1750	4.75e-05
1762	2.5e-06
1774	6e-05
1786	9.5e-05
1798	0.0001
1810	0.0001175
1822	0.0001225
1834	9.75e-05
1846	7.75e-05
1858	7e-05
1870	6.75e-05
1882	7.75e-05
1894	4.5e-05
1906	6.25e-05
1918	4.25e-05
1930	5.5e-05
1942	4.25e-05
1954	4.5e-05
1966	5.5e-05
1978	4.75e-05
1990	4.5e-05
2002	6e-05
2014	5.25e-05
2026	5e-05
2038	5e-05
2050	4.5e-05
2062	5.5e-05
2074	4.75e-05
2086	3e-05
2098	2.5e-05
2110	2.75e-05
2122	3.5e-05
2134	4.75e-05
2146	3e-05
2158	4.5e-05
2170	4.75e-05
2182	1.5e-05
2194	4e-05
2206	3.5e-05
2218	6e-05
2230	4.25e-05
2242	3.25e-05
2254	5.5e-05
2266	6.5e-05
2278	3.5e-05
2290	4.5e-05
2302	7.5e-05
2314	5e-05
2326	2e-05
2338	4.25e-05
2350	6.5e-05
2362	4e-05
2374	3.25e-05
2386	0.0001
2398	0.000115
2410	0.0001225
2422	0.000135
2434	0.0001525
2446	0.0001
2458	0.0001175
2470	0.000145
2482	0.00011
2494	9.75e-05
2506	0.000125
2518	0.0001375
2530	0.000145
2542	0.000135
2554	0.0001225
2566	0.0001625
2578	0.0001675
2590	0.0001525
2602	0.000185
2614	0.0002325
2626	0.000265
2638	0.00033
2650	0.00039
2662	0.00045
2674	0.000525
2686	0.0005475
2698	0.0005475
2710	0.0006425
2722	0.000845
2734	0.001085
2746	0.00098
2758	0.0007825
2770	0.00085
2782	0.0010375
2794	0.0013675
2806	0.001815
2818	0.002515
2830	0.0048625
2842	0.0078475
2854	0.0093025
2866	0.0120125
2878	0.018065
2890	0.024695
2902	0.0229225
2914	0.020285
2926	0.0218775
2938	0.0227375
2950	0.0187025
2962	0.0163825
2974	0.0173225
2986	0.0129325
2998	0.00837
3010	0.0057075
3022	0.004205
3034	0.0036825
3046	0.003165
3058	0.0022075
3070	0.0015025
3082	0.00118
3094	0.0009825
3106	0.0008425
3118	0.0007
3130	0.00061
3142	0.0004825
3154	0.0003925
3166	0.000335
3178	0.000255
3190	0.0002525
3202	0.0002025
3214	0.000225
3226	0.0002075
3238	0.000215
3250	0.00022
3262	0.00026
3274	0.000235
3286	0.0001975
3298	0.0002375
3310	0.00024
3322	0.00019
3334	0.00016
3346	0.0001425
3358	0.0001775
3370	0.00017
3382	0.0001325
3394	0.0002375
3406	0.00015
3418	0.0001175
3430	0.0001275
3442	0.0001125
3454	0.0001025
3466	0.0001325
3478	0.0001125
3490	5.25e-05
3502	3.75e-05
3514	8.75e-05
3526	7.25e-05
3538	5.75e-05
3550	0.0001225
3562	6.75e-05
3574	3.75e-05
3586	8.25e-05
3598	0.000115
3610	7e-05
3622	0.000115
3634	9e-05
3646	4.5e-05
3658	9.75e-05
3670	0.0001
3682	0.0001075
3694	0.0001025
3706	0.0001
3718	7.5e-05
3730	0.000115
3742	9.5e-05
3754	0.0001425
3766	0.000115
3778	0.0001225
3790	0.000125
3802	0.00016
3814	0.000135
3826	0.00016
3838	0.0001475
