Infrared Spectrum: 2-Nonenoic acid
Formula: C 9 H 16 O 2
CAS: 3760-11-0
State: gas
Origin: EPA-IR VAPOR PHASE LIBRARY
1/CM	ABSORBANCE
549.8	0.03238
559.445	0.03693
569.09	0.03448
578.734	0.02954
588.379	0.01948
598.024	0.01388
607.669	0.01372
617.313	0.01901
626.958	0.02274
636.603	0.0223
646.248	0.02706
655.893	0.02206
665.537	0.01452
675.182	0.01196
684.827	0.01176
694.472	0.01315
704.116	0.01499
713.761	0.01422
723.406	0.01236
733.051	0.01041
742.695	0.00822
752.34	0.00688
761.985	0.00624
771.63	0.00561
781.275	0.00527
790.919	0.00535
800.564	0.00556
810.209	0.00621
819.854	0.00684
829.498	0.00803
839.143	0.00998
848.788	0.01158
858.433	0.01175
868.078	0.01168
877.722	0.01173
887.367	0.01109
897.012	0.01009
906.657	0.00907
916.301	0.00844
925.946	0.00824
935.591	0.00885
945.236	0.01086
954.88	0.01465
964.525	0.02094
974.17	0.02769
983.815	0.02762
993.46	0.02156
1003.1	0.01701
1012.75	0.01384
1022.39	0.01246
1032.04	0.01293
1041.68	0.0163
1051.33	0.021
1060.97	0.02188
1070.62	0.02337
1080.26	0.02996
1089.91	0.04689
1099.55	0.08535
1109.2	0.11131
1118.84	0.09173
1128.49	0.08487
1138.13	0.08843
1147.78	0.08393
1157.42	0.07615
1167.07	0.05867
1176.71	0.04263
1186.36	0.03226
1196	0.02361
1205.64	0.01933
1215.29	0.01855
1224.93	0.01928
1234.58	0.02022
1244.22	0.02207
1253.87	0.02381
1263.51	0.02332
1273.16	0.02243
1282.8	0.02223
1292.45	0.02176
1302.09	0.02167
1311.74	0.02088
1321.38	0.02143
1331.03	0.02636
1340.67	0.03644
1350.32	0.04686
1359.96	0.05096
1369.61	0.04353
1379.25	0.02751
1388.9	0.01798
1398.54	0.01256
1408.18	0.01002
1417.83	0.00928
1427.47	0.01033
1437.12	0.01344
1446.76	0.017
1456.41	0.01901
1466.05	0.01854
1475.7	0.0131
1485.34	0.00786
1494.99	0.00546
1504.63	0.00445
1514.28	0.0039
1523.92	0.00351
1533.57	0.00324
1543.21	0.00313
1552.86	0.00311
1562.5	0.00313
1572.15	0.00319
1581.79	0.00322
1591.44	0.00355
1601.08	0.00391
1610.73	0.00494
1620.37	0.00729
1630.01	0.01227
1639.66	0.02323
1649.3	0.04535
1658.95	0.05209
1668.59	0.02157
1678.24	0.01186
1687.88	0.01238
1697.53	0.02282
1707.17	0.04228
1716.82	0.03192
1726.46	0.04253
1736.11	0.07158
1745.75	0.13063
1755.4	0.21656
1765.04	0.20667
1774.69	0.1128
1784.33	0.0607
1793.98	0.03427
1803.62	0.01923
1813.27	0.01179
1822.91	0.00822
1832.55	0.00628
1842.2	0.00522
1851.84	0.00456
1861.49	0.00409
1871.13	0.0037
1880.78	0.00332
1890.42	0.00301
1900.07	0.00278
1909.71	0.0026
1919.36	0.00241
1929	0.00239
1938.65	0.00234
1948.29	0.00233
1957.94	0.00234
1967.58	0.00245
1977.23	0.00236
1986.87	0.00245
1996.52	0.00241
2006.16	0.00245
2015.81	0.0026
2025.45	0.00265
2035.1	0.00268
2044.74	0.00257
2054.38	0.0025
2064.03	0.00233
2073.67	0.00204
2083.32	0.00185
2092.96	0.00178
2102.61	0.00165
2112.25	0.00166
2121.9	0.00157
2131.54	0.00161
2141.19	0.00161
2150.83	0.00162
2160.48	0.00163
2170.12	0.00168
2179.77	0.00173
2189.41	0.00175
2199.06	0.00179
2208.7	0.00186
2218.35	0.00186
2227.99	0.0018
2237.64	0.00182
2247.28	0.00175
2256.92	0.0017
2266.57	0.00166
2276.21	0.00174
2285.86	0.00168
2295.5	0.0017
2305.15	0.00175
2314.79	0.00168
2324.44	0.00161
2334.08	0.00167
2343.73	0.00168
2353.37	0.00166
2363.02	0.00168
2372.66	0.00159
2382.31	0.00159
2391.95	0.0016
2401.6	0.00159
2411.24	0.00161
2420.89	0.0016
2430.53	0.00164
2440.18	0.00165
2449.82	0.00167
2459.47	0.00168
2469.11	0.00161
2478.75	0.00172
2488.4	0.00158
2498.04	0.00167
2507.69	0.00166
2517.33	0.00166
2526.98	0.00172
2536.62	0.00172
2546.27	0.00176
2555.91	0.00185
2565.56	0.00188
2575.2	0.00181
2584.85	0.00194
2594.49	0.00197
2604.14	0.00202
2613.78	0.00205
2623.43	0.00219
2633.07	0.00223
2642.72	0.00238
2652.36	0.00256
2662.01	0.00278
2671.65	0.00303
2681.29	0.00347
2690.94	0.00419
2700.58	0.00567
2710.23	0.00587
2719.87	0.00448
2729.52	0.00415
2739.16	0.0042
2748.81	0.00422
2758.45	0.00416
2768.1	0.00447
2777.74	0.00516
2787.39	0.00587
2797.03	0.0069
2806.68	0.009
2816.32	0.01038
2825.97	0.01107
2835.61	0.01422
2845.26	0.02234
2854.9	0.03973
2864.55	0.05996
2874.19	0.06127
2883.84	0.05404
2893.48	0.04686
2903.12	0.0514
2912.77	0.07054
2922.41	0.11008
2932.06	0.16449
2941.7	0.16426
2951.35	0.11123
2960.99	0.09052
2970.64	0.08829
2980.28	0.05042
2989.93	0.02605
2999.57	0.01754
3009.22	0.01357
3018.86	0.01115
3028.51	0.00936
3038.15	0.0082
3047.8	0.00763
3057.44	0.00737
3067.09	0.00695
3076.73	0.00561
3086.38	0.00458
3096.02	0.00395
3105.67	0.00362
3115.31	0.00319
3124.95	0.00288
3134.6	0.00266
3144.24	0.00237
3153.89	0.00238
3163.53	0.00215
3173.18	0.00208
3182.82	0.00213
3192.47	0.00185
3202.11	0.00186
3211.76	0.00155
3221.4	0.00146
3231.05	0.00144
3240.69	0.00128
3250.34	0.00127
3259.98	0.00127
3269.63	0.00124
3279.27	0.00122
3288.92	0.00111
3298.56	0.0012
3308.21	0.00126
3317.85	0.00124
3327.49	0.00112
3337.14	0.00121
3346.78	0.00125
3356.43	0.00128
3366.07	0.00136
3375.72	0.00148
3385.36	0.00176
3395.01	0.00192
3404.65	0.00175
3414.3	0.0017
3423.94	0.00161
3433.59	0.00138
3443.23	0.00146
3452.88	0.0016
3462.52	0.00188
3472.17	0.00218
3481.81	0.00236
3491.46	0.00285
3501.1	0.003
3510.75	0.00288
3520.39	0.00256
3530.04	0.00212
3539.68	0.0023
3549.32	0.00303
3558.97	0.00536
3568.61	0.01608
3578.26	0.07513
3587.9	0.08028
3597.55	0.0181
3607.19	0.00556
3616.84	0.00333
3626.48	0.00267
3636.13	0.00223
3645.77	0.00198
3655.42	0.00178
3665.06	0.00147
3674.71	0.00164
3684.35	0.00154
3694	0.00168
3703.64	0.00162
3713.29	0.00151
3722.93	0.00146
3732.58	0.00149
3742.22	0.00141
3751.86	0.0013
3761.51	0.00121
3771.15	0.0013
3780.8	0.0012
3790.44	0.00121
3800.09	0.0012
3809.73	0.00134
3819.38	0.00123
3829.02	0.00121
3838.67	0.00132
3848.31	0.00144
3857.96	0.00131
3867.6	0.00115
3877.25	0.00112
3886.89	0.00129
3896.54	0.00135
3906.18	0.00131
3915.83	0.00144
3925.47	0.00129
3935.12	0.00132
3944.76	0.00138
3954.41	0.00149
3964.05	0.00143
3973.69	0.00141
3983.34	0.00143
3992.98	0.00144
