Infrared Spectrum: Methyl 1-methylpyrrole-2-carboxylate
Formula: C 7 H 9 N O 2
CAS: 37619-24-2
State: gas
Origin: EPA-IR VAPOR PHASE LIBRARY
1/CM	ABSORBANCE
549.8	0.0009302
559.446	0.0008308
569.092	0.00080483
578.738	0.000424
588.384	0.0010675
598.03	0.00203
607.676	0.00351
617.322	0.00202
626.968	0.0010794
636.614	0.00087636
646.26	0.0010075
655.906	0.0012482
665.552	0.0013917
675.198	0.001629
684.844	0.00344
694.49	0.0039
704.136	0.00461
713.782	0.01318
723.428	0.02436
733.073	0.02808
742.719	0.01816
752.365	0.01049
762.011	0.01287
771.657	0.00773
781.303	0.00464
790.949	0.00406
800.595	0.00371
810.241	0.00275
819.887	0.0016579
829.533	0.0013086
839.179	0.0012606
848.825	0.0012255
858.471	0.0015222
868.117	0.00195
877.763	0.0021
887.409	0.00258
897.055	0.00246
906.701	0.0014796
916.347	0.0016731
925.993	0.0018
935.639	0.00233
945.285	0.00401
954.931	0.00549
964.577	0.00508
974.223	0.00301
983.869	0.00194
993.515	0.00182
1003.16	0.00282
1012.81	0.0055
1022.45	0.00624
1032.1	0.00562
1041.74	0.00701
1051.39	0.0105
1061.04	0.01199
1070.68	0.01253
1080.33	0.01849
1089.97	0.03312
1099.62	0.05924
1109.27	0.08736
1118.91	0.09188
1128.56	0.06133
1138.2	0.02552
1147.85	0.01172
1157.5	0.00811
1167.14	0.00754
1176.79	0.00922
1186.43	0.0126
1196.08	0.01405
1205.73	0.01473
1215.37	0.02015
1225.02	0.02858
1234.66	0.05764
1244.31	0.10875
1253.96	0.10207
1263.6	0.03438
1273.25	0.00891
1282.89	0.00644
1292.54	0.00931
1302.19	0.02049
1311.83	0.04312
1321.48	0.04914
1331.12	0.02872
1340.77	0.01142
1350.42	0.00751
1360.06	0.00759
1369.71	0.01001
1379.35	0.01296
1389	0.01631
1398.65	0.02502
1408.29	0.03883
1417.94	0.03851
1427.58	0.03025
1437.23	0.0406
1446.88	0.03938
1456.52	0.01899
1466.17	0.02034
1475.81	0.02474
1485.46	0.02168
1495.11	0.01186
1504.75	0.00735
1514.4	0.00862
1524.04	0.01631
1533.69	0.02101
1543.34	0.01584
1552.98	0.00729
1562.63	0.00374
1572.27	0.00307
1581.92	0.00304
1591.57	0.00341
1601.21	0.00354
1610.86	0.00332
1620.5	0.00349
1630.15	0.00384
1639.79	0.00361
1649.44	0.00347
1659.09	0.00441
1668.73	0.00635
1678.38	0.00812
1688.02	0.00996
1697.67	0.01528
1707.32	0.03924
1716.96	0.099
1726.61	0.12232
1736.25	0.08541
1745.9	0.03388
1755.55	0.01342
1765.19	0.0074
1774.84	0.00573
1784.48	0.00482
1794.13	0.00345
1803.78	0.00237
1813.42	0.00192
1823.07	0.00185
1832.71	0.00187
1842.36	0.001713
1852.01	0.0014371
1861.65	0.001322
1871.3	0.0012568
1880.94	0.0012675
1890.59	0.0014031
1900.24	0.0014093
1909.88	0.0014998
1919.53	0.0013423
1929.17	0.0010374
1938.82	0.0008864
1948.47	0.0009292
1958.11	0.0009427
1967.76	0.0010215
1977.4	0.000963
1987.05	0.0009727
1996.7	0.00082531
2006.34	0.00081357
2015.99	0.00084033
2025.63	0.0008928
2035.28	0.0010802
2044.93	0.0013205
2054.57	0.0012936
2064.22	0.0013131
2073.86	0.0013381
2083.51	0.0011619
2093.16	0.0009706
2102.8	0.0009985
2112.45	0.0009819
2122.09	0.0009187
2131.74	0.0008922
2141.39	0.00084587
2151.03	0.0007652
2160.68	0.000675
2170.32	0.000654
2179.97	0.000624
2189.62	0.000622
2199.26	0.00059
2208.91	0.0007102
2218.55	0.000587
2228.2	0.000586
2237.85	0.000514
2247.49	0.000588
2257.14	0.000496
2266.78	0.000529
2276.43	0.000486
2286.08	0.000651
2295.72	0.00067
2305.37	0.000577
2315.01	0.000579
2324.66	0.000575
2334.31	0.000574
2343.95	0.000495
2353.6	0.000439
2363.24	0.000488
2372.89	0.000548
2382.53	0.000549
2392.18	0.000505
2401.83	0.000539
2411.47	0.000572
2421.12	0.000603
2430.76	0.000659
2440.41	0.000678
2450.06	0.0007943
2459.7	0.0008807
2469.35	0.0009441
2478.99	0.00081403
2488.64	0.000625
2498.29	0.000669
2507.93	0.000656
2517.58	0.000599
2527.22	0.000561
2536.87	0.000522
2546.52	0.000509
2556.16	0.000513
2565.81	0.000459
2575.45	0.00042
2585.1	0.000479
2594.75	0.000431
2604.39	0.000403
2614.04	0.00046
2623.68	0.000457
2633.33	0.000479
2642.98	0.00043
2652.62	0.000515
2662.27	0.000555
2671.91	0.000536
2681.56	0.000462
2691.21	0.000544
2700.85	0.000557
2710.5	0.000594
2720.14	0.000562
2729.79	0.000545
2739.44	0.0007078
2749.08	0.0007096
2758.73	0.0009458
2768.37	0.0009876
2778.02	0.0011799
2787.67	0.001373
2797.31	0.001517
2806.96	0.00206
2816.6	0.00268
2826.25	0.00327
2835.9	0.00392
2845.54	0.00468
2855.19	0.00431
2864.83	0.00408
2874.48	0.00427
2884.13	0.00451
2893.77	0.00478
2903.42	0.00543
2913.06	0.00637
2922.71	0.00748
2932.36	0.0089
2942	0.0127
2951.65	0.022
2961.29	0.02591
2970.94	0.01903
2980.59	0.0111
2990.23	0.00852
2999.88	0.0081
3009.52	0.00719
3019.17	0.0064
3028.82	0.00524
3038.46	0.0039
3048.11	0.00288
3057.75	0.00227
3067.4	0.00197
3077.04	0.00182
3086.69	0.0016121
3096.34	0.00182
3105.98	0.00214
3115.63	0.00264
3125.27	0.00317
3134.92	0.00306
3144.57	0.00218
3154.21	0.0012128
3163.86	0.000629
3173.5	0.000554
3183.15	0.000427
3192.8	0.000274
3202.44	0.000286
3212.09	0.000268
3221.73	0.000358
3231.38	0.000182
3241.03	0.000263
3250.67	0.000358
3260.32	0.000228
3269.96	0.000228
3279.61	0.000139
3289.26	0.000213
3298.9	8e-05
3308.55	0.000201
3318.19	0.000166
3327.84	9e-05
3337.49	0.000231
3347.13	0.000174
3356.78	0.000236
3366.42	0.000197
3376.07	0.00029
3385.72	0.000265
3395.36	0.000358
3405.01	0.00036
3414.65	0.000525
3424.3	0.00077278
3433.95	0.001033
3443.59	0.0007157
3453.24	0.00053
3462.88	0.000423
3472.53	0.000294
3482.18	0.000281
3491.82	0.000137
3501.47	0.000179
3511.11	0.000249
3520.76	0.00022
3530.41	8e-05
3540.05	0.000417
3549.7	0.000295
3559.34	0.000237
3568.99	0.000318
3578.64	0.000358
3588.28	0.000396
3597.93	0.000362
3607.57	0.000301
3617.22	0.000404
3626.87	0.000449
3636.51	0.000329
3646.16	0.00051
3655.8	0.000393
3665.45	0.000413
3675.1	0.000463
3684.74	0.000423
3694.39	0.000315
3704.03	0.000504
3713.68	0.000318
3723.33	0.00024
3732.97	0.000376
3742.62	0.000498
3752.26	0.0007041
3761.91	0.0004
3771.56	0.00043
3781.2	0.000325
3790.85	0.000379
3800.49	0.000476
3810.14	0.00027
3819.78	0.000347
3829.43	0.00022
3839.08	0.000551
3848.72	0.000323
3858.37	0.00034
3868.01	0.000366
3877.66	0.00043
3887.31	0.000409
3896.95	0.000279
3906.6	0.000269
3916.24	0.000552
3925.89	0.000384
3935.54	0.000411
3945.18	0.000498
3954.83	0.000441
3964.47	0.000499
3974.12	0.000379
3983.77	0.000498
3993.41	0.000539
