Infrared Spectrum: 1-Methylcycloheptanol
Formula: C 8 H 16 O
CAS: 3761-94-2
State: gas
Instrument: HP-GC/MS/IRD
Origin: NIST Mass Spectrometry Data Center
1/CM	ABSORBANCE
550	0.0004331
562	0.0002745
574	0.000366
586	0.0001525
598	0.0001159
610	7.93e-05
622	6.1e-06
634	0.0001037
646	7.32e-05
658	0.000122
670	0.0001769
682	0.0001891
694	0.0001708
706	0.0001525
718	0.000122
730	0.0001281
742	0.0001891
754	0.0002196
766	0.0003355
778	0.0006893
790	0.0008174
802	0.0006039
814	0.0006039
826	0.0009394
838	0.0011956
850	0.001159
862	0.0012444
874	0.0022204
886	0.0034587
898	0.0035685
910	0.0034282
922	0.0032513
934	0.0032879
946	0.0031598
958	0.0021838
970	0.0013786
982	0.0009272
994	0.0008418
1006	0.0009943
1018	0.0011468
1030	0.0016104
1042	0.0027877
1054	0.0043127
1066	0.0056486
1078	0.0063562
1090	0.005734
1102	0.004087
1114	0.0034953
1126	0.0035868
1138	0.0031293
1150	0.0028304
1162	0.0033489
1174	0.004209
1186	0.0050081
1198	0.0054595
1210	0.0048617
1222	0.0036051
1234	0.0028243
1246	0.002684
1258	0.0027145
1270	0.0028182
1282	0.0027816
1294	0.0026108
1306	0.0024278
1318	0.0024827
1330	0.0026352
1342	0.0028548
1354	0.0032757
1366	0.0044286
1378	0.0048678
1390	0.0030195
1402	0.0015006
1414	0.0012993
1426	0.0019886
1438	0.0041114
1450	0.0064111
1462	0.0067283
1474	0.0043432
1486	0.0019459
1498	0.0008479
1510	0.0005734
1522	0.0003965
1534	0.0002379
1546	0.0002074
1558	0.000244
1570	0.0001159
1582	8.54e-05
1594	7.32e-05
1606	6.71e-05
1618	8.54e-05
1630	8.54e-05
1642	0.0001037
1654	0.0001403
1666	8.54e-05
1678	9.15e-05
1690	4.27e-05
1702	0.0001159
1714	7.93e-05
1726	4.88e-05
1738	6.71e-05
1750	7.93e-05
1762	6.71e-05
1774	6.71e-05
1786	5.49e-05
1798	6.71e-05
1810	4.27e-05
1822	3.05e-05
1834	2.44e-05
1846	3.66e-05
1858	6.1e-06
1870	3.05e-05
1882	1.22e-05
1894	1.22e-05
1906	6.1e-06
1918	1.83e-05
1930	1.83e-05
1942	3.05e-05
1954	1.83e-05
1966	3.66e-05
1978	3.05e-05
1990	2.44e-05
2002	2.44e-05
2014	2.44e-05
2026	6.1e-06
2038	2.44e-05
2050	6.1e-06
2062	1.83e-05
2074	6.1e-06
2086	1.22e-05
2098	0
2110	6.1e-06
2122	6.1e-06
2134	3.66e-05
2146	2.44e-05
2158	3.05e-05
2170	2.44e-05
2182	3.05e-05
2194	1.22e-05
2206	1.22e-05
2218	6.1e-06
2230	3.66e-05
2242	3.66e-05
2254	3.66e-05
2266	3.05e-05
2278	4.88e-05
2290	2.44e-05
2302	1.83e-05
2314	3.66e-05
2326	1.83e-05
2338	3.05e-05
2350	1.22e-05
2362	3.05e-05
2374	2.44e-05
2386	3.05e-05
2398	3.66e-05
2410	2.44e-05
2422	6.1e-05
2434	4.27e-05
2446	3.05e-05
2458	1.22e-05
2470	6.1e-06
2482	1.22e-05
2494	2.44e-05
2506	3.66e-05
2518	6.71e-05
2530	9.15e-05
2542	0.000122
2554	9.76e-05
2566	0.0001098
2578	0.000122
2590	0.0001159
2602	0.0001525
2614	0.0001647
2626	0.0002562
2638	0.0003294
2650	0.0004087
2662	0.0005734
2674	0.0007015
2686	0.0008174
2698	0.0008296
2710	0.0007198
2722	0.0006222
2734	0.0005246
2746	0.000488
2758	0.0005429
2770	0.0006222
2782	0.0008235
2794	0.0011224
2806	0.0014518
2818	0.001891
2830	0.0028182
2842	0.0055693
2854	0.0116327
2866	0.0165554
2878	0.0155184
2890	0.0137738
2902	0.0186843
2914	0.033733
2926	0.0561261
2938	0.0578341
2950	0.0337696
2962	0.0191479
2974	0.0148901
2986	0.0081923
2998	0.0030561
3010	0.0014091
3022	0.0008662
3034	0.0006771
3046	0.0005429
3058	0.0004819
3070	0.0004148
3082	0.000366
3094	0.0003111
3106	0.000244
3118	0.0002135
3130	0.0001952
3142	0.000183
3154	0.0001891
3166	0.0002074
3178	0.0002257
3190	0.0002074
3202	0.0002196
3214	0.0002074
3226	0.0001647
3238	0.0001403
3250	8.54e-05
3262	6.1e-05
3274	5.49e-05
3286	4.27e-05
3298	6.1e-05
3310	8.54e-05
3322	6.71e-05
3334	9.15e-05
3346	0.0001037
3358	0.000122
3370	0.0001159
3382	0.0001098
3394	0.0001281
3406	0.0001464
3418	0.0001769
3430	0.0001708
3442	0.0001525
3454	0.000122
3466	0.0001098
3478	7.93e-05
3490	8.54e-05
3502	7.32e-05
3514	3.05e-05
3526	7.93e-05
3538	2.44e-05
3550	3.05e-05
3562	5.49e-05
3574	4.88e-05
3586	0.0001403
3598	0.0001281
3610	0.0003233
3622	0.0009455
3634	0.0019642
3646	0.0017019
3658	0.0006649
3670	0.0002623
3682	0.000122
3694	0.000122
3706	0.0001159
3718	9.76e-05
3730	0.0001342
3742	0.0001464
3754	0.000122
3766	9.15e-05
3778	9.15e-05
3790	0.0001159
3802	0.0001586
3814	0.0001525
3826	0.0001708
3838	0.0002257
