Infrared Spectrum: Diethyl 4-methylbenzylphosphonate
Formula: C 12 H 19 O 3 P
CAS: 3762-25-2
State: gas
Origin: EPA-IR VAPOR PHASE LIBRARY
1/CM	ABSORBANCE
549.8	0.026413
559.445	0.057533
569.09	0.031703
578.734	0.010273
588.379	0.004423
598.024	0.003693
607.669	0.003313
617.313	0.002643
626.958	0.002583
636.603	0.003163
646.248	0.002743
655.893	0.003053
665.537	0.003563
675.182	0.004753
684.827	0.006803
694.472	0.007553
704.116	0.007473
713.761	0.009643
723.406	0.013143
733.051	0.013503
742.695	0.011423
752.34	0.011603
761.985	0.014633
771.63	0.026103
781.275	0.038803
790.919	0.031593
800.564	0.026113
810.209	0.027873
819.854	0.029993
829.498	0.036903
839.143	0.049433
848.788	0.041963
858.433	0.024863
868.078	0.013833
877.722	0.010943
887.367	0.010413
897.012	0.012263
906.657	0.015523
916.301	0.023833
925.946	0.040493
935.591	0.076593
945.236	0.118483
954.88	0.120903
964.525	0.087873
974.17	0.052163
983.815	0.033273
993.46	0.029623
1003.1	0.037523
1012.75	0.064323
1022.39	0.125853
1032.04	0.199743
1041.68	0.209673
1051.33	0.177203
1060.97	0.165923
1070.62	0.120543
1080.26	0.073433
1089.91	0.060893
1099.55	0.063513
1109.2	0.041203
1118.84	0.030193
1128.49	0.024563
1138.13	0.022273
1147.78	0.020693
1157.42	0.018193
1167.07	0.016583
1176.71	0.016893
1186.36	0.015853
1196	0.010823
1205.64	0.009323
1215.29	0.008723
1224.93	0.012923
1234.58	0.019043
1244.22	0.028153
1253.87	0.036843
1263.51	0.067623
1273.16	0.084213
1282.8	0.066723
1292.45	0.044473
1302.09	0.022833
1311.74	0.013483
1321.38	0.009003
1331.03	0.006883
1340.67	0.006093
1350.32	0.005973
1359.96	0.007293
1369.61	0.010733
1379.25	0.012983
1388.9	0.020153
1398.54	0.022513
1408.18	0.017473
1417.83	0.013503
1427.47	0.010673
1437.12	0.009493
1446.76	0.008863
1456.41	0.008123
1466.05	0.008013
1475.7	0.007543
1485.34	0.008223
1494.99	0.010023
1504.63	0.016903
1514.28	0.034153
1523.92	0.017863
1533.57	0.005793
1543.21	0.004193
1552.86	0.003393
1562.5	0.002773
1572.15	0.002483
1581.79	0.002483
1591.44	0.002503
1601.08	0.002533
1610.73	0.002473
1620.37	0.002613
1630.01	0.002983
1639.66	0.002763
1649.3	0.002793
1658.95	0.002623
1668.59	0.002583
1678.24	0.002503
1687.88	0.002273
1697.53	0.002053
1707.17	0.001993
1716.82	0.002363
1726.46	0.002393
1736.11	0.002543
1745.75	0.002943
1755.4	0.002923
1765.04	0.003233
1774.69	0.003523
1784.33	0.003763
1793.98	0.003323
1803.62	0.003083
1813.27	0.002713
1822.91	0.002853
1832.55	0.002993
1842.2	0.002753
1851.84	0.002673
1861.49	0.002783
1871.13	0.002933
1880.78	0.003423
1890.42	0.003863
1900.07	0.003383
1909.71	0.002513
1919.36	0.002283
1929	0.001973
1938.65	0.001703
1948.29	0.0015762
1957.94	0.0015157
1967.58	0.0016806
1977.23	0.0016276
1986.87	0.0015163
1996.52	0.0015445
2006.16	0.0013071
2015.81	0.0013355
2025.45	0.001285
2035.1	0.0013088
2044.74	0.0012278
2054.38	0.0012896
2064.03	0.0011397
2073.67	0.0015543
2083.32	0.001487
2092.96	0.0012211
2102.61	0.001452
2112.25	0.0014273
2121.9	0.0011236
2131.54	0.0013537
2141.19	0.0014389
2150.83	0.0014178
2160.48	0.0012232
2170.12	0.001254
2179.77	0.0013161
2189.41	0.0011285
2199.06	0.0012104
2208.7	0.001409
2218.35	0.0013176
2227.99	0.0015309
2237.64	0.0011973
2247.28	0.0014028
2256.92	0.0013598
2266.57	0.0014935
2276.21	0.0014629
2285.86	0.0014398
2295.5	0.0014861
2305.15	0.0014804
2314.79	0.001613
2324.44	0.0016743
2334.08	0.0013417
2343.73	0.0015324
2353.37	0.0015071
2363.02	0.001389
2372.66	0.0014096
2382.31	0.0013147
2391.95	0.0013111
2401.6	0.0015409
2411.24	0.0014461
2420.89	0.0015035
2430.53	0.0015182
2440.18	0.0015363
2449.82	0.0013812
2459.47	0.0016224
2469.11	0.0015189
2478.75	0.001693
2488.4	0.0014317
2498.04	0.0015426
2507.69	0.0012919
2517.33	0.0012958
2526.98	0.001445
2536.62	0.0015416
2546.27	0.0011223
2555.91	0.0011342
2565.56	0.0011171
2575.2	0.0016836
2584.85	0.0011858
2594.49	0.001392
2604.14	0.001933
2613.78	0.0015437
2623.43	0.0013583
2633.07	0.0015704
2642.72	0.0016852
2652.36	0.0014413
2662.01	0.0014555
2671.65	0.0012317
2681.29	0.0014211
2690.94	0.0014868
2700.58	0.0016707
2710.23	0.0016251
2719.87	0.001853
2729.52	0.002333
2739.16	0.002963
2748.81	0.002763
2758.45	0.002313
2768.1	0.002853
2777.74	0.003153
2787.39	0.003333
2797.03	0.003273
2806.68	0.003253
2816.32	0.003523
2825.97	0.004413
2835.61	0.004493
2845.26	0.005613
2854.9	0.008033
2864.55	0.012023
2874.19	0.018053
2883.84	0.020713
2893.48	0.020283
2903.12	0.025073
2912.77	0.033093
2922.41	0.039523
2932.06	0.047843
2941.7	0.047943
2951.35	0.034983
2960.99	0.032813
2970.64	0.036913
2980.28	0.052963
2989.93	0.053953
2999.57	0.040883
3009.22	0.033163
3018.86	0.029893
3028.51	0.030603
3038.15	0.020193
3047.8	0.016223
3057.44	0.015023
3067.09	0.010873
3076.73	0.007593
3086.38	0.006613
3096.02	0.005453
3105.67	0.004723
3115.31	0.003463
3124.95	0.003393
3134.6	0.002893
3144.24	0.002373
3153.89	0.002393
3163.53	0.001923
3173.18	0.001903
3182.82	0.001803
3192.47	0.002103
3202.11	0.001973
3211.76	0.001793
3221.4	0.0015486
3231.05	0.001873
3240.69	0.0010897
3250.34	0.0011657
3259.98	0.001157
3269.63	0.0008285
3279.27	0.001723
3288.92	0.0014155
3298.56	0.00071349
3308.21	0.0012593
3317.85	0.0008156
3327.49	0.00075911
3337.14	0.00072303
3346.78	0.000546
3356.43	0.00076932
3366.07	0.0015174
3375.72	0.0009192
3385.36	0.0010328
3395.01	0.00044
3404.65	0.00072462
3414.3	0.0008376
3423.94	0.0010471
3433.59	0.0006122
3443.23	0.0011555
3452.88	0.0006424
3462.52	0.0006399
3472.17	0.001261
3481.81	0.00071414
3491.46	0.0011025
3501.1	0.0009135
3510.75	0.000208
3520.39	0.0010938
3530.04	0.0010799
3539.68	0.00076089
3549.32	0.000504
3558.97	0.000226
3568.61	0.0010391
3578.26	0.0006367
3587.9	0.00073893
3597.55	0.0010554
3607.19	0.000473
3616.84	0.0007558
3626.48	0.0010241
3636.13	0.0011766
3645.77	0.0010039
3655.42	0.000325
3665.06	0.000553
3674.71	0.000413
3684.35	0.000915
3694	0.0008144
3703.64	0.0008385
3713.29	0.0006822
3722.93	0.0010918
3732.58	0.0013981
3742.22	0.0014607
3751.86	0.001259
3761.51	0.0011911
3771.15	0.000477
3780.8	0.00053
3790.44	0.0009058
3800.09	0.0013388
3809.73	0.0016391
3819.38	0.00074943
3829.02	0.0013085
3838.67	0.0008421
3848.31	0.000513
3857.96	0.0008563
3867.6	0.0011725
3877.25	0.001362
3886.89	0.0011197
3896.54	0.0009515
3906.18	0.001148
3915.83	0.00136
3925.47	0.0011778
3935.12	0.0012554
3944.76	0.0015697
3954.41	0.0006436
3964.05	0.0015684
3973.69	0.0016267
3983.34	0.0012942
3992.98	0.001773
