Infrared Spectrum: Cyclotetrasiloxane, heptamethyl-,vinyl-,
Formula: C9 H24 O4 Si4
CAS: 3763-39-1
State: SOLUTION (11% CCl4 FOR 3800-1300, 3% CS2 FOR 1300-650, AND 11% CCl4 FOR 650-250)
Class: COBLENTZ III
Instrument: PERKIN-ELMER 521 (GRATING)
Instrument parameters: FILTERS AT 3150, 2500, 2000, 1150, 700, 410. GRATING CHANGES: 2000, 630
Path length: 0.012 CM, 0.011 CM, AND 0.010 CM
Resolution: 2
Origin: DOW CORNING CORP.
1/CM	TRANSMITTANCE
247	0.7203
256	0.7264
265	0.729
274	0.7271
283	0.7238
292	0.7038
301	0.6891
310	0.6852
319	0.6599
328	0.5613
337	0.4012
346	0.3051
355	0.1577
364	0.1524
373	0.1836
382	0.2509
391	0.327
400	0.4473
409	0.5775
418	0.6867
427	0.7274
436	0.7442
445	0.7456
454	0.7364
463	0.7273
472	0.7198
481	0.7136
490	0.7248
499	0.732
508	0.7197
517	0.6671
526	0.5954
535	0.5241
544	0.5318
553	0.4832
562	0.4328
571	0.4466
580	0.608
589	0.7055
598	0.7356
607	0.7391
616	0.7356
625	0.707
634	0.6828
643	0.6517
652	0.6851
661	0.8022
670	0.813
679	0.7584
688	0.6942
697	0.6881
706	0.749
715	0.8128
724	0.82
733	0.8032
742	0.7345
751	0.5113
760	0.6492
769	0.729
778	0.6243
787	0.4526
796	0.2319
805	0.037
814	0.0456
823	0.2893
832	0.5329
841	0.6066
850	0.5325
859	0.6089
868	0.6913
877	0.7446
886	0.805
895	0.8372
904	0.8556
913	0.8686
922	0.8859
931	0.8807
940	0.8672
949	0.8377
958	0.6902
967	0.8311
976	0.8405
985	0.803
994	0.7445
1003	0.6373
1012	0.6108
1021	0.5833
1030	0.4701
1039	0.3539
1048	0.1846
1057	0.0261
1066	0
1075	0
1084	0
1093	0.0346
1102	0.1429
1111	0.3076
1120	0.4551
1129	0.5396
1138	0.6016
1147	0.682
1156	0.7496
1165	0.8062
1174	0.8448
1183	0.8704
1192	0.8833
1201	0.8861
1210	0.8861
1219	0.8756
1228	0.8543
1237	0.8108
1246	0.7323
1255	0.1765
1264	0.3341
1273	0.7318
1282	0.8485
1291	0.8774
1300	0.8758
1309	0.8167
1318	0.8261
1327	0.8336
1336	0.8279
1345	0.8214
1354	0.8235
1363	0.8228
1372	0.8075
1381	0.7619
1390	0.6721
1399	0.4666
1408	0.2839
1417	0.5455
1426	0.7388
1435	0.7507
1444	0.74
1453	0.776
1462	0.8156
1471	0.8213
1480	0.8269
1489	0.8304
1498	0.8343
1507	0.8322
1516	0.8203
1525	0.7993
1534	0.7725
1543	0.7449
1552	0.7181
1561	0.7222
1570	0.7437
1579	0.767
1588	0.7687
1597	0.594
1606	0.8178
1615	0.8304
1624	0.8334
1633	0.8397
1642	0.8485
1651	0.8582
1660	0.8702
1669	0.8812
1678	0.8773
1687	0.869
1696	0.8626
1705	0.8566
1714	0.8556
1723	0.8641
1732	0.8723
1741	0.8805
1750	0.8869
1759	0.8921
1768	0.8975
1777	0.896
1786	0.896
1795	0.9045
1804	0.9067
1813	0.9097
1822	0.9116
1831	0.9133
1840	0.9148
1849	0.9152
1858	0.9156
1867	0.9156
1876	0.9142
1885	0.9125
1894	0.9096
1903	0.8987
1912	0.8752
1921	0.8621
1930	0.8731
1939	0.8791
1948	0.8747
1957	0.8836
1966	0.8942
1975	0.9039
1984	0.9118
1993	0.9106
2002	0.9025
2011	0.909
2020	0.912
2029	0.9122
2038	0.9107
2047	0.9008
2056	0.9009
2065	0.9018
2074	0.9036
2083	0.9072
2092	0.9099
2101	0.9104
2110	0.9105
2119	0.9106
2128	0.9105
2137	0.9105
2146	0.9106
2155	0.9108
2164	0.9113
2173	0.9121
2182	0.9129
2191	0.9136
2200	0.9144
2209	0.9149
2218	0.915
2227	0.9152
2236	0.9141
2245	0.9126
2254	0.9105
2263	0.9083
2272	0.9079
2281	0.9111
2290	0.9133
2299	0.9139
2308	0.914
2317	0.9119
2326	0.9084
2335	0.9097
2344	0.9149
2353	0.9143
2362	0.9092
2371	0.9083
2380	0.91
2389	0.9104
2398	0.9087
2407	0.9074
2416	0.9066
2425	0.906
2434	0.9058
2443	0.9053
2452	0.9043
2461	0.9032
2470	0.9017
2479	0.8999
2488	0.8968
2497	0.8935
2506	0.8933
2515	0.8976
2524	0.9017
2533	0.902
2542	0.9022
2551	0.9015
2560	0.9009
2569	0.9001
2578	0.8992
2587	0.8982
2596	0.897
2605	0.8958
2614	0.8943
2623	0.8926
2632	0.8909
2641	0.889
2650	0.8871
2659	0.8858
2668	0.8861
2677	0.8871
2686	0.8875
2695	0.8866
2704	0.8853
2713	0.8831
2722	0.8804
2731	0.8773
2740	0.8739
2749	0.87
2758	0.866
2767	0.8611
2776	0.8534
2785	0.8435
2794	0.8356
2803	0.8383
2812	0.8407
2821	0.8419
2830	0.8424
2839	0.8394
2848	0.8334
2857	0.8254
2866	0.8155
2875	0.8008
2884	0.7802
2893	0.741
2902	0.6617
2911	0.6366
2920	0.718
2929	0.7117
2938	0.654
2947	0.537
2956	0.3253
2965	0.0798
2974	0.1419
2983	0.3884
2992	0.5925
3001	0.6943
3010	0.7352
3019	0.694
3028	0.7387
3037	0.7825
3046	0.7731
3055	0.6669
3064	0.6128
3073	0.7703
3082	0.8274
3091	0.8414
3100	0.8429
3109	0.8433
3118	0.8437
3127	0.8616
3136	0.8633
3145	0.8662
3154	0.8733
3163	0.8775
3172	0.8823
3181	0.8797
3190	0.8778
3199	0.8864
3208	0.8943
3217	0.8967
3226	0.8983
3235	0.9001
3244	0.9018
3253	0.9035
3262	0.9052
3271	0.906
3280	0.9055
3289	0.9035
3298	0.9028
3307	0.9021
3316	0.9014
3325	0.9006
3334	0.9009
3343	0.9012
3352	0.9022
3361	0.9031
3370	0.9043
3379	0.9054
3388	0.907
3397	0.9076
3406	0.9078
3415	0.9081
3424	0.9086
3433	0.9089
3442	0.9093
3451	0.9095
3460	0.9096
3469	0.9097
3478	0.9099
3487	0.9109
3496	0.9119
3505	0.9129
3514	0.9129
3523	0.9128
3532	0.9126
3541	0.9127
3550	0.9132
3559	0.9133
3568	0.9123
3577	0.9107
3586	0.9181
3595	0.9088
3604	0.9043
3613	0.9039
3622	0.9042
3631	0.9039
3640	0.8998
3649	0.8972
3658	0.8982
3667	0.8986
3676	0.898
3685	0.8935
3694	0.8888
3703	0.8858
3712	0.8854
3721	0.8884
3730	0.8942
3739	0.8989
3748	0.8991
3757	0.8963
3766	0.8934
3775	0.8965
3784	0.9003
3793	0.9046
3802	0.9106
