Infrared Spectrum: Imidazole-4-carboxamide, 5-amino-1-cyclopentyl-
Formula: C9 H14 N4 O
CAS: 37642-55-0
State: SOLID (1 mg / 650 mg KBr DISC)
Class: COBLENTZ III
Instrument: PERKIN-ELMER 521 (GRATING)
Instrument parameters: FILTERS AT 3150, 2500, 2000, 1150, 700, 410. GRATING CHANGES: 2000, 630
Sampling: TRANSMISSION
Resolution: 2
Origin: SOUTHERN RESEARCH INSTITUTE
1/CM	TRANSMITTANCE
248	0.3411
258.045	0.3813
268.091	0.4273
278.136	0.4778
288.181	0.5326
298.227	0.5964
308.272	0.6446
318.317	0.6734
328.362	0.6947
338.408	0.7019
348.453	0.708
358.498	0.7512
368.544	0.7773
378.589	0.7922
388.634	0.7844
398.68	0.757
408.725	0.7343
418.77	0.7783
428.816	0.79
438.861	0.8005
448.906	0.8103
458.951	0.8016
468.997	0.7655
479.042	0.8284
489.087	0.8302
499.133	0.8279
509.178	0.8197
519.223	0.806
529.269	0.7863
539.314	0.7627
549.359	0.7335
559.405	0.6975
569.45	0.66
579.495	0.6709
589.541	0.653
599.586	0.6316
609.631	0.6364
619.676	0.6525
629.722	0.6728
639.767	0.5747
649.812	0.5988
659.858	0.6353
669.903	0.619
679.948	0.5653
689.994	0.5111
700.039	0.5631
710.084	0.633
720.13	0.6953
730.175	0.734
740.22	0.7602
750.265	0.7998
760.311	0.8681
770.356	0.8473
780.401	0.7572
790.447	0.7397
800.492	0.8051
810.537	0.813
820.583	0.7572
830.628	0.8752
840.673	0.9041
850.719	0.9093
860.764	0.9087
870.809	0.9004
880.854	0.8873
890.9	0.8865
900.945	0.89
910.99	0.9207
921.036	0.917
931.081	0.899
941.126	0.871
951.172	0.872
961.217	0.8249
971.262	0.7894
981.308	0.7243
991.353	0.8449
1001.4	0.8775
1011.44	0.8774
1021.49	0.8724
1031.53	0.8652
1041.58	0.8561
1051.62	0.8405
1061.67	0.8119
1071.72	0.7373
1081.76	0.7204
1091.81	0.7569
1101.85	0.8299
1111.9	0.8357
1121.94	0.8289
1131.99	0.8218
1142.03	0.8014
1152.08	0.7604
1162.12	0.7111
1172.17	0.6736
1182.21	0.6674
1192.26	0.7324
1202.3	0.6973
1212.35	0.6113
1222.39	0.7552
1232.44	0.7863
1242.49	0.7639
1252.53	0.6789
1262.58	0.5486
1272.62	0.5461
1282.67	0.696
1292.71	0.7671
1302.76	0.7634
1312.8	0.7096
1322.85	0.5726
1332.89	0.7516
1342.94	0.7986
1352.98	0.7786
1363.03	0.7311
1373.07	0.6851
1383.12	0.6946
1393.17	0.591
1403.21	0.4632
1413.26	0.4938
1423.3	0.7087
1433.35	0.6747
1443.39	0.5437
1453.44	0.4779
1463.48	0.7059
1473.53	0.746
1483.57	0.7042
1493.62	0.5965
1503.66	0.7243
1513.71	0.719
1523.75	0.6454
1533.8	0.4939
1543.84	0.2968
1553.89	0.2962
1563.94	0.5132
1573.98	0.5514
1584.03	0.4829
1594.07	0.3937
1604.12	0.1684
1614.16	0.1567
1624.21	0.3001
1634.25	0.2547
1644.3	0.3393
1654.34	0.3229
1664.39	0.5873
1674.43	0.752
1684.48	0.8493
1694.52	0.8937
1704.57	0.9329
1714.62	0.9544
1724.66	0.9681
1734.71	0.9807
1744.75	0.9912
1754.8	0.9971
1764.84	1.0023
1774.89	1.007
1784.93	1.0103
1794.98	1.0122
1805.02	1.0135
1815.07	1.0141
1825.11	1.0133
1835.16	1.0138
1845.2	1.0128
1855.25	1.0117
1865.29	1.0099
1875.34	1.0083
1885.39	1.0067
1895.43	1.0054
1905.48	1.0044
1915.52	1.0034
1925.57	1.0022
1935.61	1.001
1945.66	0.9998
1955.7	0.9986
1965.75	0.9973
1975.79	0.9964
1985.84	0.9956
1995.88	0.9945
2005.93	0.9925
2015.97	0.9905
2026.02	0.9886
2036.07	0.9866
2046.11	0.9853
2056.16	0.9844
2066.2	0.9837
2076.25	0.9826
2086.29	0.9815
2096.34	0.9808
2106.38	0.9801
2116.43	0.9793
2126.47	0.9783
2136.52	0.9773
2146.56	0.9759
2156.61	0.9739
2166.65	0.972
2176.7	0.9701
2186.74	0.968
2196.79	0.9657
2206.84	0.9636
2216.88	0.9618
2226.93	0.9603
2236.97	0.9587
2247.02	0.9572
2257.06	0.9563
2267.11	0.9555
2277.15	0.9546
2287.2	0.9537
2297.24	0.9535
2307.29	0.9534
2317.33	0.9532
2327.38	0.953
2337.42	0.9526
2347.47	0.952
2357.51	0.9514
2367.56	0.9508
2377.61	0.9502
2387.65	0.9502
2397.7	0.9504
2407.74	0.9506
2417.79	0.9501
2427.83	0.9494
2437.88	0.9488
2447.92	0.9468
2457.97	0.9446
2468.01	0.9425
2478.06	0.9409
2488.1	0.94
2498.15	0.9392
2508.19	0.9372
2518.24	0.9351
2528.29	0.9329
2538.33	0.9307
2548.38	0.9288
2558.42	0.927
2568.47	0.9252
2578.51	0.9233
2588.56	0.9213
2598.6	0.9194
2608.65	0.9173
2618.69	0.9152
2628.74	0.9132
2638.78	0.9113
2648.83	0.9095
2658.87	0.9061
2668.92	0.9018
2678.96	0.8976
2689.01	0.8925
2699.06	0.8864
2709.1	0.8847
2719.15	0.8842
2729.19	0.8852
2739.24	0.8867
2749.28	0.887
2759.33	0.8859
2769.37	0.8836
2779.42	0.8798
2789.46	0.8737
2799.51	0.8678
2809.55	0.861
2819.6	0.8524
2829.64	0.8424
2839.69	0.8273
2849.74	0.7983
2859.78	0.7263
2869.83	0.7512
2879.87	0.7976
2889.92	0.7887
2899.96	0.746
2910.01	0.7373
2920.05	0.7301
2930.1	0.7117
2940.14	0.6643
2950.19	0.6613
2960.23	0.6282
2970.28	0.6445
2980.32	0.8267
2990.37	0.8416
3000.41	0.8395
3010.46	0.8328
3020.51	0.8237
3030.55	0.814
3040.6	0.8023
3050.64	0.7886
3060.69	0.7688
3070.73	0.7468
3080.78	0.7197
3090.82	0.6866
3100.87	0.6401
3110.91	0.6816
3120.96	0.6623
3131	0.6274
3141.05	0.5838
3151.09	0.5343
3161.14	0.4921
3171.18	0.4643
3181.23	0.4644
3191.28	0.4759
3201.32	0.4893
3211.37	0.51
3221.41	0.5337
3231.46	0.5399
3241.5	0.5336
3251.55	0.5217
3261.59	0.5216
3271.64	0.5198
3281.68	0.4991
3291.73	0.4689
3301.77	0.4358
3311.82	0.3944
3321.86	0.3876
3331.91	0.4334
3341.96	0.4667
3352	0.5005
3362.05	0.5012
3372.09	0.484
3382.14	0.5025
3392.18	0.5404
3402.23	0.4951
3412.27	0.5417
3422.32	0.7005
3432.36	0.7768
3442.41	0.8074
3452.45	0.828
3462.5	0.8414
3472.54	0.8519
3482.59	0.8614
3492.63	0.8703
3502.68	0.8777
3512.73	0.8845
3522.77	0.8909
3532.82	0.8967
3542.86	0.9013
3552.91	0.9059
3562.95	0.9097
3573	0.9134
3583.04	0.9174
3593.09	0.9211
3603.13	0.9251
3613.18	0.9288
3623.22	0.9311
3633.27	0.9323
3643.31	0.9333
3653.36	0.9341
3663.41	0.9347
3673.45	0.9348
3683.5	0.9347
3693.54	0.9351
3703.59	0.9356
3713.63	0.9353
3723.68	0.9346
3733.72	0.9336
3743.77	0.9318
3753.81	0.9301
3763.86	0.9287
3773.9	0.9276
3783.95	0.927
3793.99	0.9266
3804.04	0.9264
3814.08	0.9261
3824.13	0.9257
3834.18	0.9241
3844.22	0.9225
3854.27	0.9208
3864.31	0.9192
3874.36	0.9173
3884.4	0.9155
3894.45	0.9143
3904.49	0.9141
3914.54	0.9142
3924.58	0.9126
3934.63	0.9099
3944.67	0.9065
3954.72	0.9029
3964.76	0.9
3974.81	0.9
3984.86	0.9005
3994.9	0.9011
4004.95	0.9015
4014.99	0.9016
