Infrared Spectrum: 3-BROMOMETHYL-6-BROMO-7-SULFAMOYL-3,4-DIHYDRO-1,2,4-BENZOTHIADIAZINE-1,1-DIOXIDE
Formula: C8 H9 Br2 N3 O4 S2
CAS: 3764-20-3
State: SOLID (NUJOL MULL)
Class: COBLENTZ
Instrument: PERKIN-ELMER
Sampling: TRANSMISSION
Resolution: 4
Origin: ABBOTT LABORATORIES - WASHBURN
MICROMETERS	TRANSMITTANCE
2.046	0.317
2.08547	0.335
2.12495	0.3469
2.16442	0.3519
2.2039	0.3656
2.24337	0.3711
2.28284	0.385
2.32232	0.386
2.36179	0.38
2.40126	0.39
2.44074	0.3979
2.48021	0.4089
2.51969	0.4189
2.55916	0.4378
2.59863	0.446
2.63811	0.451
2.67758	0.467
2.71706	0.4769
2.75653	0.48
2.796	0.485
2.83548	0.4938
2.87495	0.5168
2.91443	0.5369
2.9539	0.4081
2.99337	0.276
3.03285	0.3779
3.07232	0.2957
3.11179	0.2642
3.15127	0.2924
3.19074	0.3636
3.23022	0.4112
3.26969	0.426
3.30916	0.411
3.34864	0.3224
3.38811	0.0593
3.42759	0.0011
3.46706	0.0039
3.50653	0.0213
3.54601	0.1337
3.58548	0.4993
3.62496	0.578
3.66443	0.59
3.7039	0.5879
3.74338	0.588
3.78285	0.5909
3.82232	0.604
3.8618	0.6011
3.90127	0.6141
3.94075	0.629
3.98022	0.647
4.01969	0.654
4.05917	0.659
4.09864	0.6619
4.13812	0.667
4.17759	0.669
4.21706	0.672
4.25654	0.672
4.29601	0.6759
4.33549	0.682
4.37496	0.689
4.41443	0.689
4.45391	0.69
4.49338	0.6951
4.53285	0.7
4.57233	0.702
4.6118	0.705
4.65128	0.7148
4.69075	0.717
4.73022	0.7218
4.7697	0.7251
4.80917	0.727
4.84865	0.727
4.88812	0.728
4.92759	0.73
4.96707	0.732
5.00654	0.743
5.04602	0.743
5.08549	0.747
5.12496	0.752
5.16444	0.755
5.20391	0.7576
5.24338	0.76
5.28286	0.76
5.32233	0.7601
5.36181	0.768
5.40128	0.77
5.44075	0.771
5.48023	0.773
5.5197	0.775
5.55918	0.78
5.59865	0.783
5.63812	0.785
5.6776	0.786
5.71707	0.7931
5.75655	0.796
5.79602	0.796
5.83549	0.8
5.87497	0.8
5.91444	0.7965
5.95391	0.7988
5.99339	0.8
6.03286	0.795
6.07234	0.795
6.11181	0.7778
6.15128	0.773
6.19076	0.7395
6.23023	0.4652
6.26971	0.2134
6.30918	0.3199
6.34865	0.4956
6.38813	0.5873
6.4276	0.4986
6.46708	0.4473
6.50655	0.507
6.54602	0.5216
6.5855	0.5858
6.62497	0.5785
6.66444	0.4346
6.70392	0.3415
6.74339	0.4551
6.78287	0.507
6.82234	0.405
6.86181	0.1577
6.90129	0.1499
6.94076	0.2286
6.98024	0.3801
7.01971	0.5498
7.05918	0.5625
7.09866	0.6072
7.13813	0.6145
7.17761	0.6297
7.21708	0.657
7.25655	0.5438
7.29603	0.342
7.3355	0.3003
7.37497	0.4361
7.41445	0.4246
7.45392	0.2833
7.4934	0.1577
7.53287	0.1434
7.57234	0.1808
7.61182	0.2434
7.65129	0.335
7.69077	0.3153
7.73024	0.2712
7.76971	0.3934
7.80919	0.4647
7.84866	0.436
7.88814	0.4973
7.92761	0.537
7.96708	0.6046
8.00656	0.641
8.04603	0.5839
8.0855	0.457
8.12498	0.5344
8.16445	0.5969
8.20393	0.658
8.2434	0.685
8.28287	0.685
8.32235	0.627
8.36182	0.5701
8.4013	0.573
8.44077	0.5429
8.48024	0.4544
8.51972	0.2471
8.55919	0.1195
8.59867	0.0958
8.63814	0.1111
8.67761	0.1572
8.71709	0.145
8.75656	0.2005
8.79603	0.298
8.83551	0.3937
8.87498	0.4553
8.91446	0.5047
8.95393	0.5159
8.9934	0.481
9.03288	0.3991
9.07235	0.5233
9.11183	0.561
9.1513	0.5733
9.19077	0.5431
9.23025	0.526
9.26972	0.5129
9.3092	0.567
9.34867	0.6046
9.38814	0.6222
9.42762	0.634
9.46709	0.641
9.50656	0.642
9.54604	0.6394
9.58551	0.6346
9.62499	0.5794
9.66446	0.3785
9.70393	0.3807
9.74341	0.4762
9.78288	0.5555
9.82236	0.6016
9.86183	0.6345
9.9013	0.651
9.94078	0.659
9.98025	0.6685
10.0197	0.671
10.0592	0.6807
10.0987	0.6844
10.1381	0.685
10.1776	0.687
10.2171	0.685
10.2566	0.684
10.296	0.674
10.3355	0.6566
10.375	0.642
10.4145	0.6281
10.4539	0.5947
10.4934	0.5595
10.5329	0.5267
10.5724	0.4896
10.6118	0.4615
10.6513	0.3876
10.6908	0.3776
10.7303	0.4117
10.7697	0.4552
10.8092	0.486
10.8487	0.5128
10.8882	0.5
10.9276	0.489
10.9671	0.4971
11.0066	0.5267
11.046	0.5545
11.0855	0.565
11.125	0.5604
11.1645	0.56
11.2039	0.5618
11.2434	0.5619
11.2829	0.4456
11.3224	0.475
11.3618	0.5327
11.4013	0.5874
11.4408	0.6168
11.4803	0.635
11.5197	0.6451
11.5592	0.6529
11.5987	0.659
11.6382	0.6516
11.6776	0.6379
11.7171	0.5516
11.7566	0.5148
11.7961	0.5908
11.8355	0.6127
11.875	0.614
11.9145	0.6198
11.9539	0.636
11.9934	0.6578
12.0329	0.6754
12.0724	0.6854
12.1118	0.692
12.1513	0.6939
12.1908	0.694
12.2303	0.694
12.2697	0.694
12.3092	0.695
12.3487	0.6978
12.3882	0.697
12.4276	0.6954
12.4671	0.6941
12.5066	0.694
12.5461	0.694
12.5855	0.692
12.625	0.685
12.6645	0.6844
12.7039	0.6798
12.7434	0.669
12.7829	0.656
12.8224	0.651
12.8618	0.6339
12.9013	0.6242
12.9408	0.629
12.9803	0.6434
13.0197	0.6566
13.0592	0.664
13.0987	0.669
13.1382	0.669
13.1776	0.671
13.2171	0.669
13.2566	0.669
13.2961	0.664
13.3355	0.6526
13.375	0.652
13.4145	0.649
13.454	0.6372
13.4934	0.6232
13.5329	0.6044
13.5724	0.5874
13.6118	0.5627
13.6513	0.533
13.6908	0.5005
13.7303	0.4571
13.7697	0.3923
13.8092	0.3604
13.8487	0.3605
13.8882	0.3721
13.9276	0.4042
13.9671	0.4479
14.0066	0.4851
14.0461	0.5186
14.0855	0.549
14.125	0.561
14.1645	0.514
14.204	0.4272
14.2434	0.4047
14.2829	0.4753
14.3224	0.509
14.3619	0.5234
14.4013	0.5419
14.4408	0.5497
14.4803	0.5544
14.5197	0.557
14.5592	0.5575
14.5987	0.555
14.6382	0.5459
14.6776	0.5261
14.7171	0.4808
14.7566	0.4313
14.7961	0.4157
14.8355	0.4584
14.875	0.4946
14.9145	0.507
14.954	0.505
14.9934	0.5079
15.0329	0.5048
15.0724	0.4868
15.1119	0.4771
15.1513	0.474
15.1908	0.467
15.2303	0.459
15.2698	0.4549
15.3092	0.451
15.3487	0.447
