Infrared Spectrum: 6-AMINO-2-(ETHYLTHIO)-4-PYRIMIDINOL
Formula: C6 H9 N3 O S
CAS: 37660-22-3
State: SOLID (SPLIT MULL)
Melting point: 221 C
Class: COBLENTZ III
Instrument: DOW KBr FOREPRISM-GRATING
Instrument parameters: BLAZED AT 3.5, 12.0, 20.0 MICRON AND CHANGED AT 5.0, 7.5, 14.9 MICRON
Sampling: TRANSMISSION
Resolution: 2
Origin: DOW CHEMICAL COMPANY
1/CM	TRANSMITTANCE
457.043	0.266
465.81	0.32
474.577	0.466
483.343	0.663
492.11	0.787
500.877	0.819
509.644	0.813
518.411	0.794
527.177	0.697
535.944	0.226
544.711	0.645
553.478	0.911
562.245	0.939
571.011	0.944
579.778	0.935
588.545	0.766
597.312	0.651
606.079	0.6201
614.845	0.862
623.612	0.784
632.379	0.587
641.146	0.772
649.913	0.671
658.679	0.668
667.446	0.637
676.213	0.731
684.98	0.782
693.747	0.877
702.513	0.939
711.28	0.8
720.047	0.695
728.814	0.827
737.581	0.859
746.347	0.689
755.114	0.735
763.881	0.947
772.648	0.946
781.415	0.94
790.181	0.921
798.948	0.87
807.715	0.779
816.482	0.598
825.249	0.154
834.015	0.736
842.782	0.711
851.549	0.773
860.316	0.748
869.083	0.696
877.849	0.663
886.616	0.638
895.383	0.598
904.15	0.486
912.917	0.342
921.683	0.408
930.45	0.615
939.217	0.635
947.984	0.693
956.751	0.686
965.517	0.488
974.284	0.267
983.051	0.092
991.818	0.608
1000.58	0.82
1009.35	0.82
1018.12	0.882
1026.88	0.874
1035.65	0.851
1044.42	0.775
1053.19	0.737
1061.95	0.786
1070.72	0.782
1079.49	0.787
1088.25	0.795
1097.02	0.806
1105.79	0.88
1114.55	0.897
1123.32	0.87
1132.09	0.864
1140.85	0.84
1149.62	0.824
1158.39	0.826
1167.15	0.811
1175.92	0.776
1184.69	0.773
1193.45	0.736
1202.22	0.684
1210.99	0.608
1219.75	0.415
1228.52	0.151
1237.29	0.028
1246.05	0.07
1254.82	0.226
1263.59	0.47
1272.36	0.427
1281.12	0.353
1289.89	0.173
1298.66	0.081
1307.42	0.482
1316.19	0.78
1324.96	0.802
1333.72	0.79
1342.49	0.771
1351.26	0.795
1360.02	0.797
1368.79	0.742
1377.56	0.795
1386.32	0.794
1395.09	0.775
1403.86	0.691
1412.62	0.714
1421.39	0.664
1430.16	0.595
1438.92	0.444
1447.69	0.311
1456.46	0.235
1465.22	0.437
1473.99	0.686
1482.76	0.787
1491.53	0.751
1500.29	0.733
1509.06	0.666
1517.83	0.616
1526.59	0.547
1535.36	0.444
1544.13	0.393
1552.89	0.442
1561.66	0.371
1570.43	0.22
1579.19	0.296
1587.96	0.397
1596.73	0.26
1605.49	0.118
1614.26	0.1
1623.03	0.111
1631.79	0.195
1640.56	0.274
1649.33	0.177
1658.09	0.151
1666.86	0.172
1675.63	0.246
1684.39	0.433
1693.16	0.7
1701.93	0.855
1710.7	0.932
1719.46	0.958
1728.23	0.983
1737	0.986
1745.76	0.979
1754.53	0.962
1763.3	0.958
1772.06	0.948
1780.83	0.939
1789.6	0.946
1798.36	0.944
1807.13	0.94
1815.9	0.94
1824.66	0.932
1833.43	0.922
1842.2	0.91
1850.96	0.944
1859.73	0.947
1868.5	0.944
1877.26	0.943
1886.03	0.937
1894.8	0.932
1903.56	0.925
1912.33	0.924
1921.1	0.915
1929.87	0.913
1938.63	0.921
1947.4	0.922
1956.17	0.924
1964.93	0.921
1973.7	0.915
1982.47	0.913
1991.23	0.914
2000	0.92
2008.77	0.922
2017.53	0.929
2026.3	0.931
2035.07	0.921
2043.83	0.914
2052.6	0.91
2061.37	0.903
2070.13	0.904
2078.9	0.904
2087.67	0.902
2096.43	0.899
2105.2	0.893
2113.97	0.8879
2122.73	0.881
2131.5	0.877
2140.27	0.8729
2149.04	0.868
2157.8	0.863
2166.57	0.857
2175.34	0.853
2184.1	0.849
2192.87	0.844
2201.64	0.8379
2210.4	0.8309
2219.17	0.8259
2227.94	0.8189
2236.7	0.8109
2245.47	0.8039
2254.24	0.7979
2263	0.7909
2271.77	0.7819
2280.54	0.7719
2289.3	0.7648
2298.07	0.762
2306.84	0.762
2315.6	0.7607
2324.37	0.7509
2333.14	0.7458
2341.9	0.7418
2350.67	0.7369
2359.44	0.7319
2368.21	0.7278
2376.97	0.724
2385.74	0.72
2394.51	0.7168
2403.27	0.7106
2412.04	0.7039
2420.81	0.6969
2429.57	0.6919
2438.34	0.6855
2447.11	0.6767
2455.87	0.666
2464.64	0.662
2473.41	0.6559
2482.17	0.6477
2490.94	0.6419
2499.71	0.6339
2508.47	0.6256
2517.24	0.6159
2526.01	0.6088
2534.77	0.605
2543.54	0.5997
2552.31	0.5927
2561.07	0.5857
2569.84	0.5768
2578.61	0.5688
2587.38	0.5597
2596.14	0.5508
2604.91	0.5425
2613.68	0.5345
2622.44	0.5233
2631.21	0.5138
2639.98	0.5068
2648.74	0.5016
2657.51	0.4983
2666.28	0.4848
2675.04	0.4808
2683.81	0.4842
2692.58	0.499
2701.34	0.4954
2710.11	0.4844
2718.88	0.48
2727.64	0.4824
2736.41	0.489
2745.18	0.4966
2753.94	0.504
2762.71	0.504
2771.48	0.504
2780.24	0.504
2789.01	0.5072
2797.78	0.5252
2806.55	0.5235
2815.31	0.521
2824.08	0.528
2832.85	0.5397
2841.61	0.5502
2850.38	0.5555
2859.15	0.5613
2867.91	0.5727
2876.68	0.577
2885.45	0.5757
2894.21	0.568
2902.98	0.566
2911.75	0.565
2920.51	0.5548
2929.28	0.4892
2938.05	0.619
2946.81	0.63
2955.58	0.5895
2964.35	0.622
2973.11	0.6
2981.88	0.6253
2990.65	0.6604
2999.41	0.668
3008.18	0.668
3016.95	0.667
3025.72	0.6614
3034.48	0.66
3043.25	0.6712
3052.02	0.677
3060.78	0.6747
3069.55	0.67
3078.32	0.6544
3087.08	0.654
3095.85	0.663
3104.62	0.66
3113.38	0.6524
3122.15	0.6404
3130.92	0.6324
3139.68	0.6217
3148.45	0.607
3157.22	0.59
3165.98	0.5747
3174.75	0.568
3183.52	0.564
3192.28	0.5607
3201.05	0.5613
3209.82	0.5753
3218.58	0.604
3227.35	0.5993
3236.12	0.5809
3244.89	0.5646
3253.65	0.5426
3262.42	0.5071
3271.19	0.486
3279.95	0.4884
3288.72	0.5049
3297.49	0.5386
3306.25	0.5824
3315.02	0.6411
3323.79	0.6791
3332.55	0.6982
3341.32	0.7074
3350.09	0.71
3358.85	0.71
3367.62	0.71
3376.39	0.71
3385.15	0.7092
3393.92	0.7066
3402.69	0.6996
3411.45	0.6926
3420.22	0.6872
3428.99	0.678
3437.75	0.6632
3446.52	0.6363
3455.29	0.5785
3464.06	0.3835
3472.82	0.5351
3481.59	0.7104
3490.36	0.7091
3499.12	0.7066
3507.89	0.7026
3516.66	0.699
3525.42	0.695
3534.19	0.693
3542.96	0.6926
3551.72	0.691
3560.49	0.6885
3569.26	0.6831
3578.02	0.6789
3586.79	0.682
3595.56	0.682
3604.32	0.682
3613.09	0.6791
3621.86	0.6761
3630.62	0.673
3639.39	0.6721
3648.16	0.6705
3656.92	0.668
3665.69	0.666
3674.46	0.663
3683.22	0.6595
3691.99	0.659
3700.76	0.658
3709.53	0.656
3718.29	0.656
3727.06	0.655
3735.83	0.6515
3744.59	0.6485
3753.36	0.646
3762.13	0.645
3770.89	0.645
3779.66	0.645
3788.43	0.645
