Infrared Spectrum: 6-Chlorochroman-4-one
Formula: C 9 H 7 Cl O 2
CAS: 37674-72-9
State: gas
Origin: EPA-IR VAPOR PHASE LIBRARY
1/CM	ABSORBANCE
549.8	0.023082
559.445	0.008122
569.09	0.005142
578.734	0.002912
588.379	0.001562
598.024	0.0010702
607.669	0.0011787
617.313	0.002642
626.958	0.008932
636.603	0.029962
646.248	0.022372
655.893	0.004812
665.537	0.005462
675.182	0.007242
684.827	0.003432
694.472	0.002032
704.116	0.001772
713.761	0.004562
723.406	0.008272
733.051	0.008072
742.695	0.009522
752.34	0.006882
761.985	0.003892
771.63	0.001902
781.275	0.001812
790.919	0.001912
800.564	0.004782
810.209	0.014742
819.854	0.034912
829.498	0.026702
839.143	0.015792
848.788	0.013692
858.433	0.006582
868.078	0.009692
877.722	0.012132
887.367	0.008292
897.012	0.010752
906.657	0.012192
916.301	0.009402
925.946	0.010762
935.591	0.007452
945.236	0.003752
954.88	0.002162
964.525	0.001662
974.17	0.001692
983.815	0.001882
993.46	0.002372
1003.1	0.002162
1012.75	0.003472
1022.39	0.012532
1032.04	0.036402
1041.68	0.032962
1051.33	0.015172
1060.97	0.016112
1070.62	0.009662
1080.26	0.012292
1089.91	0.019382
1099.55	0.017172
1109.2	0.009592
1118.84	0.012382
1128.49	0.033512
1138.13	0.023632
1147.78	0.007352
1157.42	0.011872
1167.07	0.024612
1176.71	0.031882
1186.36	0.021802
1196	0.018102
1205.64	0.033912
1215.29	0.034532
1224.93	0.025282
1234.58	0.028962
1244.22	0.041452
1253.87	0.058382
1263.51	0.146552
1273.16	0.263462
1282.8	0.125642
1292.45	0.027912
1302.09	0.013522
1311.74	0.010502
1321.38	0.006732
1331.03	0.003752
1340.67	0.003452
1350.32	0.003822
1359.96	0.004662
1369.61	0.008342
1379.25	0.017542
1388.9	0.020282
1398.54	0.027292
1408.18	0.061792
1417.83	0.088382
1427.47	0.064812
1437.12	0.040242
1446.76	0.040762
1456.41	0.080092
1466.05	0.095502
1475.7	0.120752
1485.34	0.118782
1494.99	0.040092
1504.63	0.014352
1514.28	0.007492
1523.92	0.004502
1533.57	0.003432
1543.21	0.003882
1552.86	0.005362
1562.5	0.009442
1572.15	0.012842
1581.79	0.014712
1591.44	0.026162
1601.08	0.040412
1610.73	0.038022
1620.37	0.017922
1630.01	0.007422
1639.66	0.007842
1649.3	0.008042
1658.95	0.005772
1668.59	0.006732
1678.24	0.010052
1687.88	0.017492
1697.53	0.037462
1707.17	0.100462
1716.82	0.164102
1726.46	0.121352
1736.11	0.039162
1745.75	0.017322
1755.4	0.010762
1765.04	0.008582
1774.69	0.008132
1784.33	0.006792
1793.98	0.005792
1803.62	0.004742
1813.27	0.003712
1822.91	0.002552
1832.55	0.002372
1842.2	0.003032
1851.84	0.003622
1861.49	0.002712
1871.13	0.002442
1880.78	0.002752
1890.42	0.003652
1900.07	0.004032
1909.71	0.002962
1919.36	0.002002
1929	0.001942
1938.65	0.002032
1948.29	0.001812
1957.94	0.002082
1967.58	0.001862
1977.23	0.001542
1986.87	0.001592
1996.52	0.001862
2006.16	0.001602
2015.81	0.001532
2025.45	0.001412
2035.1	0.001522
2044.74	0.001792
2054.38	0.001952
2064.03	0.001992
2073.67	0.001412
2083.32	0.001572
2092.96	0.001412
2102.61	0.001582
2112.25	0.001512
2121.9	0.001512
2131.54	0.0013129
2141.19	0.0011982
2150.83	0.001191
2160.48	0.0013546
2170.12	0.001354
2179.77	0.0010879
2189.41	0.0009878
2199.06	0.0009583
2208.7	0.0010723
2218.35	0.0010689
2227.99	0.0011357
2237.64	0.001402
2247.28	0.0012278
2256.92	0.0012405
2266.57	0.0012862
2276.21	0.001522
2285.86	0.0012471
2295.5	0.001672
2305.15	0.001412
2314.79	0.001482
2324.44	0.001442
2334.08	0.001592
2343.73	0.0012688
2353.37	0.0013268
2363.02	0.0011145
2372.66	0.0011306
2382.31	0.001442
2391.95	0.0012124
2401.6	0.001712
2411.24	0.001732
2420.89	0.001592
2430.53	0.001552
2440.18	0.001402
2449.82	0.001422
2459.47	0.001392
2469.11	0.0013274
2478.75	0.001382
2488.4	0.0012495
2498.04	0.001197
2507.69	0.0012363
2517.33	0.001039
2526.98	0.0010241
2536.62	0.001552
2546.27	0.001362
2555.91	0.0012704
2565.56	0.001402
2575.2	0.0010968
2584.85	0.001512
2594.49	0.0012209
2604.14	0.0012386
2613.78	0.000805
2623.43	0.0008589
2633.07	0.0009512
2642.72	0.0013321
2652.36	0.0012675
2662.01	0.0012585
2671.65	0.0011813
2681.29	0.001126
2690.94	0.001322
2700.58	0.001392
2710.23	0.001133
2719.87	0.001382
2729.52	0.001832
2739.16	0.003002
2748.81	0.003092
2758.45	0.001792
2768.1	0.001692
2777.74	0.001562
2787.39	0.001772
2797.03	0.001832
2806.68	0.001952
2816.32	0.002182
2825.97	0.002542
2835.61	0.002902
2845.26	0.003302
2854.9	0.003682
2864.55	0.005982
2874.19	0.015022
2883.84	0.029312
2893.48	0.017122
2903.12	0.007582
2912.77	0.007722
2922.41	0.009622
2932.06	0.008892
2941.7	0.007142
2951.35	0.005802
2960.99	0.006122
2970.64	0.011462
2980.28	0.015092
2989.93	0.028242
2999.57	0.031642
3009.22	0.006022
3018.86	0.001822
3028.51	0.001802
3038.15	0.001802
3047.8	0.001902
3057.44	0.002592
3067.09	0.004222
3076.73	0.005582
3086.38	0.004282
3096.02	0.001922
3105.67	0.001472
3115.31	0.001462
3124.95	0.0009661
3134.6	0.0012499
3144.24	0.0009759
3153.89	0.0007202
3163.53	0.0010537
3173.18	0.0011457
3182.82	0.0006864
3192.47	0.0009873
3202.11	0.0006138
3211.76	0.0006773
3221.4	0.0006075
3231.05	0.0010098
3240.69	0.0005009
3250.34	0.0007888
3259.98	0.0009512
3269.63	0.0005371
3279.27	0.0006727
3288.92	0.0005252
3298.56	0.000491
3308.21	0.0008482
3317.85	0.000604
3327.49	0.0005479
3337.14	0.0004756
3346.78	0.0009524
3356.43	0.0006068
3366.07	0.0012359
3375.72	0.0008024
3385.36	0.0011677
3395.01	0.001502
3404.65	0.002792
3414.3	0.003232
3423.94	0.003152
3433.59	0.001572
3443.23	0.0009293
3452.88	0.0005833
3462.52	0.0005521
3472.17	0.0010776
3481.81	0.0003428
3491.46	0.0008455
3501.1	0.00044766
3510.75	0.0007038
3520.39	0.0007192
3530.04	0.00016
3539.68	0.0010002
3549.32	0.0010939
3558.97	0.0009233
3568.61	0.0006198
3578.26	0.0007339
3587.9	0.0006257
3597.55	0.0002882
3607.19	0.0011637
3616.84	0.0002755
3626.48	0.0002661
3636.13	0.00042559
3645.77	0.0004852
3655.42	0.0007497
3665.06	0.00046157
3674.71	0.0005265
3684.35	0.0007431
3694	0.0008083
3703.64	0.0003351
3713.29	0.001422
3722.93	0.0010468
3732.58	0.0005463
3742.22	0.0005703
3751.86	0.0008547
3761.51	0.0006272
3771.15	0.0010526
3780.8	0.0007127
3790.44	0.0008951
3800.09	0.0007365
3809.73	0.00041201
3819.38	0.0011954
3829.02	0.0010786
3838.67	0.0010209
3848.31	0.0010188
3857.96	0.0005613
3867.6	0.0006487
3877.25	0.0009964
3886.89	0.000929
3896.54	0.0004716
3906.18	0.0009407
3915.83	0.0013415
3925.47	0.0009422
3935.12	0.001392
3944.76	0.000829
3954.41	0.0012573
3964.05	0.0009846
3973.69	0.001204
3983.34	0.0007854
3992.98	0.0008837
