Infrared Spectrum: 1-CYCLOBUTENECARBOXYLIC ACID, 3,3-DIMETHYL ETHYL ESTER
Formula: C9 H14 O2
CAS: 37676-92-9
Boiling point: 49-50 C AT 6 mmHg
Class: COBLENTZ
Instrument: Not specified, most likely a prism, grating, or hybrid spectrometer.
Sampling: TRANSMISSION
Path length: SMEAR
Resolution: 4
Origin: TENNESSEE EASTMAN COMPANY, RESEARCH LABORATORIES
MICROMETERS	TRANSMITTANCE
2.02	0.989
2.06094	0.989
2.10188	0.991
2.14282	0.993
2.18375	0.991
2.22469	0.989
2.26563	0.986
2.30657	0.984
2.34751	0.991
2.38845	0.994
2.42938	0.996
2.47032	0.998
2.51126	0.998
2.5522	0.998
2.59314	0.996
2.63408	0.996
2.67501	1
2.71595	0.996
2.75689	0.991
2.79783	0.979
2.83877	0.96
2.87971	0.953
2.92064	0.93
2.96158	0.933
3.00252	0.928
3.04346	0.923
3.0844	0.928
3.12534	0.928
3.16627	0.933
3.20721	0.935
3.24815	0.914
3.28909	0.836
3.33003	0.534
3.37097	0.215
3.4119	0.459
3.45284	0.54
3.49378	0.808
3.53472	0.88
3.57566	0.919
3.6166	0.926
3.65753	0.931
3.69847	0.94
3.73941	0.95
3.78035	0.95
3.82129	0.953
3.86223	0.953
3.90316	0.955
3.9441	0.953
3.98504	0.955
4.02598	0.959
4.06692	0.957
4.10786	0.957
4.14879	0.959
4.18973	0.959
4.23067	0.955
4.27161	0.955
4.31255	0.955
4.35349	0.953
4.39442	0.953
4.43536	0.953
4.4763	0.95
4.51724	0.952
4.55818	0.957
4.59912	0.957
4.64005	0.955
4.68099	0.955
4.72193	0.955
4.76287	0.957
4.80381	0.955
4.84475	0.95
4.88568	0.95
4.92662	0.95
4.96756	0.952
5.0085	0.959
5.04944	0.955
5.09038	0.943
5.13131	0.938
5.17225	0.952
5.21319	0.952
5.25413	0.95
5.29507	0.948
5.33601	0.948
5.37694	0.945
5.41788	0.941
5.45882	0.931
5.49976	0.923
5.5407	0.907
5.58164	0.877
5.62257	0.848
5.66351	0.786
5.70445	0.634
5.74539	0.295
5.78633	0.039
5.82727	0.063
5.8682	0.344
5.90914	0.61
5.95008	0.655
5.99102	0.716
6.03196	0.744
6.0729	0.75
6.11383	0.761
6.15477	0.636
6.19571	0.375
6.23665	0.54
6.27759	0.778
6.31853	0.837
6.35946	0.846
6.4004	0.839
6.44134	0.843
6.48228	0.841
6.52322	0.853
6.56416	0.853
6.6051	0.854
6.64603	0.843
6.68697	0.783
6.72791	0.67
6.76885	0.595
6.80979	0.46
6.85073	0.525
6.89166	0.511
6.9326	0.58
6.97354	0.744
7.01448	0.778
7.05542	0.783
7.09636	0.767
7.13729	0.699
7.17823	0.662
7.21917	0.66
7.26011	0.605
7.30105	0.38
7.34199	0.423
7.38292	0.715
7.42386	0.762
7.4648	0.747
7.50574	0.674
7.54668	0.472
7.58762	0.172
7.62855	0.107
7.66949	0.302
7.71043	0.315
7.75137	0.116
7.79231	0.262
7.83325	0.402
7.87418	0.269
7.91512	0.522
7.95606	0.667
7.997	0.718
8.03794	0.72
8.07888	0.697
8.11981	0.66
8.16075	0.569
8.20169	0.481
8.24263	0.303
8.28357	0.138
8.32451	0.088
8.36544	0.071
8.40638	0.068
8.44732	0.296
8.48826	0.411
8.5292	0.394
8.57014	0.412
8.61107	0.457
8.65201	0.448
8.69295	0.592
8.73389	0.68
8.77483	0.704
8.81577	0.709
8.8567	0.701
8.89764	0.672
8.93858	0.626
8.97952	0.59
9.02046	0.51
9.0614	0.339
9.10233	0.174
9.14327	0.09
9.18421	0.085
9.22515	0.254
9.26609	0.467
9.30703	0.583
9.34796	0.636
9.3889	0.662
9.42984	0.684
9.47078	0.706
9.51172	0.718
9.55266	0.721
9.59359	0.718
9.63453	0.691
9.67547	0.633
9.71641	0.568
9.75735	0.53
9.79829	0.546
9.83922	0.576
9.88016	0.597
9.9211	0.699
9.96204	0.769
10.003	0.802
10.0439	0.819
10.0849	0.827
10.1258	0.837
10.1667	0.844
10.2077	0.849
10.2486	0.853
10.2895	0.854
10.3305	0.854
10.3714	0.851
10.4124	0.827
10.4533	0.778
10.4942	0.689
10.5352	0.67
10.5761	0.691
10.6171	0.713
10.658	0.726
10.6989	0.752
10.7399	0.774
10.7808	0.786
10.8217	0.793
10.8627	0.798
10.9036	0.754
10.9446	0.694
10.9855	0.75
11.0264	0.836
11.0674	0.87
11.1083	0.883
11.1493	0.894
11.1902	0.901
11.2311	0.904
11.2721	0.906
11.313	0.906
11.3539	0.901
11.3949	0.892
11.4358	0.856
11.4768	0.803
11.5177	0.759
11.5586	0.721
11.5996	0.715
11.6405	0.742
11.6815	0.781
11.7224	0.807
11.7633	0.843
11.8043	0.87
11.8452	0.885
11.8861	0.895
11.9271	0.902
11.968	0.902
12.009	0.901
12.0499	0.887
12.0908	0.872
12.1318	0.87
12.1727	0.868
12.2136	0.863
12.2546	0.851
12.2955	0.844
12.3365	0.843
12.3774	0.846
12.4183	0.854
12.4593	0.863
12.5002	0.868
12.5412	0.873
12.5821	0.873
12.623	0.873
12.664	0.875
12.7049	0.875
12.7458	0.873
12.7868	0.868
12.8277	0.861
12.8687	0.843
12.9096	0.824
12.9505	0.807
12.9915	0.802
13.0324	0.808
13.0734	0.815
13.1143	0.82
13.1552	0.817
13.1962	0.803
13.2371	0.767
13.278	0.704
13.319	0.607
13.3599	0.479
13.4009	0.361
13.4418	0.29
13.4827	0.291
13.5237	0.387
13.5646	0.523
13.6056	0.629
13.6465	0.703
13.6874	0.744
13.7284	0.769
13.7693	0.781
13.8102	0.791
13.8512	0.798
13.8921	0.807
13.9331	0.812
13.974	0.815
14.0149	0.819
14.0559	0.822
14.0968	0.82
14.1378	0.82
14.1787	0.82
14.2196	0.817
14.2606	0.815
14.3015	0.812
14.3424	0.81
14.3834	0.807
14.4243	0.803
14.4653	0.798
14.5062	0.793
14.5471	0.791
14.5881	0.788
14.629	0.783
14.6699	0.778
14.7109	0.773
14.7518	0.764
14.7928	0.75
14.8337	0.728
14.8746	0.701
14.9156	0.686
14.9565	0.668
14.9975	0.672
15.0384	0.687
15.0793	0.699
15.1203	0.701
15.1612	0.703
15.2021	0.701
15.2431	0.697
15.284	0.691
15.325	0.689
15.3659	0.682
15.4068	0.675
15.4478	0.67
15.4887	0.668
15.5297	0.663
15.5706	0.662
15.6115	0.656
15.6525	0.65
15.6934	0.648
15.7343	0.638
15.7753	0.636
15.8162	0.633
15.8572	0.624
15.8981	0.622
15.939	0.621
15.98	0.617
