Infrared Spectrum: N,N,N'N'-Tetramethylsulfamide
Formula: C 4 H 12 N 2 O 2 S
CAS: 3768-63-6
State: gas
Origin: EPA-IR VAPOR PHASE LIBRARY
1/CM	ABSORBANCE
549.8	0.01106
559.445	0.00481
569.09	0.00312
578.734	0.00232
588.379	0.00206
598.024	0.00153
607.669	0.00172
617.313	0.00202
626.958	0.00215
636.603	0.00331
646.248	0.00611
655.893	0.01551
665.537	0.02939
675.182	0.03001
684.827	0.01859
694.472	0.00882
704.116	0.0094
713.761	0.01546
723.406	0.0294
733.051	0.062
742.695	0.10997
752.34	0.11941
761.985	0.07249
771.63	0.02108
781.275	0.0077
790.919	0.00452
800.564	0.00307
810.209	0.00228
819.854	0.00189
829.498	0.00205
839.143	0.00217
848.788	0.00216
858.433	0.00259
868.078	0.00327
877.722	0.00459
887.367	0.00694
897.012	0.01121
906.657	0.01825
916.301	0.03054
925.946	0.05426
935.591	0.09759
945.236	0.13914
954.88	0.13913
964.525	0.09636
974.17	0.0553
983.815	0.03285
993.46	0.02207
1003.1	0.01555
1012.75	0.01252
1022.39	0.01073
1032.04	0.01172
1041.68	0.01455
1051.33	0.01841
1060.97	0.01812
1070.62	0.01364
1080.26	0.01058
1089.91	0.00801
1099.55	0.00777
1109.2	0.0081
1118.84	0.00953
1128.49	0.01273
1138.13	0.03044
1147.78	0.08323
1157.42	0.13806
1167.07	0.11518
1176.71	0.06712
1186.36	0.03665
1196	0.0358
1205.64	0.03384
1215.29	0.03025
1224.93	0.02559
1234.58	0.02398
1244.22	0.02663
1253.87	0.0333
1263.51	0.03697
1273.16	0.03277
1282.8	0.02431
1292.45	0.01834
1302.09	0.01516
1311.74	0.01447
1321.38	0.01797
1331.03	0.0322
1340.67	0.07266
1350.32	0.13374
1359.96	0.16155
1369.61	0.11276
1379.25	0.05357
1388.9	0.02453
1398.54	0.01697
1408.18	0.01741
1417.83	0.01924
1427.47	0.01802
1437.12	0.01868
1446.76	0.02117
1456.41	0.02325
1466.05	0.02438
1475.7	0.02248
1485.34	0.0186
1494.99	0.01424
1504.63	0.01064
1514.28	0.00798
1523.92	0.00628
1533.57	0.00532
1543.21	0.00479
1552.86	0.00445
1562.5	0.00412
1572.15	0.0042
1581.79	0.00411
1591.44	0.00412
1601.08	0.00425
1610.73	0.00438
1620.37	0.00412
1630.01	0.00364
1639.66	0.003
1649.3	0.00236
1658.95	0.00196
1668.59	0.00182
1678.24	0.00178
1687.88	0.0019
1697.53	0.00189
1707.17	0.00206
1716.82	0.00184
1726.46	0.00154
1736.11	0.0011355
1745.75	0.0010504
1755.4	0.0008999
1765.04	0.0008999
1774.69	0.0009049
1784.33	0.0010897
1793.98	0.0011511
1803.62	0.0010928
1813.27	0.0009843
1822.91	0.0008738
1832.55	0.0008288
1842.2	0.0006563
1851.84	0.0005732
1861.49	0.000621
1871.13	0.0005196
1880.78	0.0005912
1890.42	0.0005981
1900.07	0.0007264
1909.71	0.0008056
1919.36	0.0009066
1929	0.0009808
1938.65	0.0010443
1948.29	0.0008411
1957.94	0.0007079
1967.58	0.0006561
1977.23	0.0006746
1986.87	0.0007239
1996.52	0.0007402
2006.16	0.0007638
2015.81	0.0008673
2025.45	0.0008976
2035.1	0.0008063
2044.74	0.0005682
2054.38	0.0005005
2064.03	0.0004075
2073.67	0.0004567
2083.32	0.0005841
2092.96	0.0006156
2102.61	0.0006617
2112.25	0.0007238
2121.9	0.0007149
2131.54	0.0006745
2141.19	0.0007085
2150.83	0.0006894
2160.48	0.0007575
2170.12	0.0006827
2179.77	0.0007075
2189.41	0.0006663
2199.06	0.0005853
2208.7	0.000573
2218.35	0.0004246
2227.99	0.0005621
2237.64	0.0005728
2247.28	0.0005886
2256.92	0.0005115
2266.57	0.00053
2276.21	0.000453
2285.86	0.0005534
2295.5	0.0006712
2305.15	0.0007986
2314.79	0.0008025
2324.44	0.0007241
2334.08	0.0005345
2343.73	0.0004882
2353.37	0.0005959
2363.02	0.0006523
2372.66	0.0006486
2382.31	0.0007002
2391.95	0.0007673
2401.6	0.0007086
2411.24	0.0006819
2420.89	0.0006683
2430.53	0.0006282
2440.18	0.000689
2449.82	0.0007625
2459.47	0.0006831
2469.11	0.0007149
2478.75	0.0008423
2488.4	0.0010778
2498.04	0.00133
2507.69	0.0014
2517.33	0.00128
2526.98	0.0010034
2536.62	0.0008055
2546.27	0.0007429
2555.91	0.000827
2565.56	0.0008407
2575.2	0.0008006
2584.85	0.0007883
2594.49	0.0007656
2604.14	0.0008554
2613.78	0.0009041
2623.43	0.0008348
2633.07	0.0008801
2642.72	0.0009374
2652.36	0.0008695
2662.01	0.0009525
2671.65	0.0008934
2681.29	0.0009771
2690.94	0.0011158
2700.58	0.0011084
2710.23	0.00125
2719.87	0.00152
2729.52	0.00161
2739.16	0.00173
2748.81	0.00209
2758.45	0.00251
2768.1	0.00324
2777.74	0.00419
2787.39	0.00608
2797.03	0.01007
2806.68	0.01612
2816.32	0.02077
2825.97	0.02048
2835.61	0.0192
2845.26	0.02225
2854.9	0.0281
2864.55	0.03118
2874.19	0.03271
2883.84	0.03781
2893.48	0.04469
2903.12	0.04826
2912.77	0.04935
2922.41	0.05308
2932.06	0.06051
2941.7	0.06619
2951.35	0.06491
2960.99	0.0562
2970.64	0.04144
2980.28	0.02655
2989.93	0.01857
2999.57	0.01619
3009.22	0.01523
3018.86	0.01326
3028.51	0.01064
3038.15	0.00805
3047.8	0.00607
3057.44	0.00505
3067.09	0.00452
3076.73	0.0039
3086.38	0.00355
3096.02	0.00336
3105.67	0.00292
3115.31	0.00283
3124.95	0.00245
3134.6	0.0019
3144.24	0.00187
3153.89	0.00158
3163.53	0.00145
3173.18	0.0010549
3182.82	0.0010645
3192.47	0.0009385
3202.11	0.000858
3211.76	0.0007325
3221.4	0.0006462
3231.05	0.000574
3240.69	0.0003293
3250.34	0.00033464
3259.98	0.0004745
3269.63	0.00030358
3279.27	0.0004701
3288.92	0.000368
3298.56	0.0004557
3308.21	0.0006788
3317.85	0.0003624
3327.49	0.0003997
3337.14	0.0005137
3346.78	0.00024634
3356.43	0.0004037
3366.07	0.0004294
3375.72	0.0004794
3385.36	0.000659
3395.01	0.0003594
3404.65	0.0004051
3414.3	0.00030598
3423.94	0.0003969
3433.59	0.0005841
3443.23	0.00027623
3452.88	0.0002691
3462.52	0.0003323
3472.17	0.0002193
3481.81	0.0001732
3491.46	0.0003613
3501.1	0.0002142
3510.75	0.0003987
3520.39	0.0003571
3530.04	0.00034964
3539.68	0.0003834
3549.32	0.00032373
3558.97	0.0004527
3568.61	0.00031035
3578.26	0.00031205
3587.9	0.00026544
3597.55	0.0005143
3607.19	0.0002313
3616.84	0.0004217
3626.48	0.0002937
3636.13	0.0003794
3645.77	0.000107
3655.42	0.00034055
3665.06	0.0001759
3674.71	0.0001847
3684.35	0.00032682
3694	0.000118
3703.64	0.0003592
3713.29	0.0004079
3722.93	0.0003767
3732.58	0.00028672
3742.22	0.000251903
3751.86	0.0003628
3761.51	0.0004021
3771.15	0.00028755
3780.8	0.00029769
3790.44	0.000149
3800.09	0.0004292
3809.73	0.000250537
3819.38	0.00030683
3829.02	0.0005366
3838.67	0.00029603
3848.31	0.0003519
3857.96	0.0004247
3867.6	0.0003111
3877.25	0.0004138
3886.89	0.0004407
3896.54	0.0004585
3906.18	0.0006153
3915.83	0.0004653
3925.47	0.0006572
3935.12	0.0005883
3944.76	0.000256037
3954.41	0.00032653
3964.05	0.0006804
3973.69	0.0006571
3983.34	0.0006767
3992.98	0.0005387
