Infrared Spectrum: 4-Methyl-1-hexene
Formula: C 7 H 14
CAS: 3769-23-1
State: gas
Instrument: HP-GC/MS/IRD
Origin: NIST Mass Spectrometry Data Center
1/CM	ABSORBANCE
550	0.0001677
562	0.0001365
574	4.68e-05
586	0.0001794
598	0.0005109
610	0.0008892
622	0.0011271
634	0.0010491
646	0.0006669
658	0.0003744
670	0.0004095
682	0.0003783
694	0.0002574
706	0.0002457
718	0.0001716
730	0.0002535
742	0.0002067
754	0.0004602
766	0.0008814
778	0.0009087
790	0.0007605
802	0.0005538
814	0.0005421
826	0.0005772
838	0.000663
850	0.0008541
862	0.0011895
874	0.0016692
886	0.0027768
898	0.0057057
910	0.0094458
922	0.0087009
934	0.0044655
946	0.0025584
958	0.0024375
970	0.0031668
982	0.0047619
994	0.0054522
1006	0.0042237
1018	0.0025623
1030	0.0017706
1042	0.0014781
1054	0.0011778
1066	0.0009243
1078	0.0007449
1090	0.0006708
1102	0.0007254
1114	0.0006864
1126	0.0006981
1138	0.0009477
1150	0.0010374
1162	0.0008424
1174	0.0004758
1186	0.0002301
1198	0.0001521
1210	0.0002379
1222	0.0003939
1234	0.0005031
1246	0.0004017
1258	0.0004758
1270	0.0006591
1282	0.000741
1294	0.0008112
1306	0.000819
1318	0.0008112
1330	0.000936
1342	0.0013104
1354	0.0016536
1366	0.0023712
1378	0.0038181
1390	0.0039624
1402	0.0023478
1414	0.0018915
1426	0.0023478
1438	0.003744
1450	0.0055107
1462	0.0061191
1474	0.0045786
1486	0.0024375
1498	0.0011583
1510	0.0007176
1522	0.0006045
1534	0.0005733
1546	0.0005109
1558	0.000429
1570	0.0004407
1582	0.0004251
1594	0.0005148
1606	0.0007566
1618	0.001443
1630	0.0032448
1642	0.0038688
1654	0.002145
1666	0.0005694
1678	0.0003159
1690	0.0002028
1702	0.0001482
1714	0.0001053
1726	5.46e-05
1738	7.02e-05
1750	8.58e-05
1762	6.63e-05
1774	7.02e-05
1786	0.0001092
1798	0.0001989
1810	0.0004212
1822	0.0009438
1834	0.0010647
1846	0.0006006
1858	0.0001989
1870	0.0001092
1882	9.75e-05
1894	9.36e-05
1906	8.58e-05
1918	5.07e-05
1930	3.51e-05
1942	4.29e-05
1954	7.02e-05
1966	0.0001131
1978	0.0001482
1990	0.000117
2002	6.63e-05
2014	2.73e-05
2026	2.34e-05
2038	4.29e-05
2050	4.29e-05
2062	5.07e-05
2074	3.12e-05
2086	5.46e-05
2098	2.34e-05
2110	1.17e-05
2122	2.73e-05
2134	5.07e-05
2146	5.46e-05
2158	4.29e-05
2170	6.63e-05
2182	3.51e-05
2194	7.8e-05
2206	5.46e-05
2218	5.46e-05
2230	5.07e-05
2242	5.46e-05
2254	7.41e-05
2266	7.8e-05
2278	6.24e-05
2290	8.19e-05
2302	9.75e-05
2314	9.36e-05
2326	0.0001248
2338	0.0001053
2350	0.0001092
2362	0.0001287
2374	0.0001521
2386	0.0001326
2398	0.0001326
2410	0.0001521
2422	0.0001287
2434	0.0001755
2446	0.0001404
2458	0.0001326
2470	0.0001092
2482	0.0001287
2494	0.0001443
2506	0.0001365
2518	0.0001638
2530	0.0002028
2542	0.0002067
2554	0.0002379
2566	0.0002769
2578	0.0003354
2590	0.0003666
2602	0.0004017
2614	0.0003783
2626	0.0003861
2638	0.0004056
2650	0.0004173
2662	0.0004173
2674	0.0004602
2686	0.0005499
2698	0.0005499
2710	0.0006162
2722	0.0007449
2734	0.000897
2746	0.0010101
2758	0.0010023
2770	0.0010491
2782	0.0012012
2794	0.0014625
2806	0.0017901
2818	0.0023829
2830	0.0035685
2842	0.0055107
2854	0.0083577
2866	0.0126711
2878	0.0182052
2890	0.0210639
2902	0.0228813
2914	0.0276042
2926	0.0303537
2938	0.0282984
2950	0.027612
2962	0.0366717
2974	0.0366912
2986	0.0221325
2998	0.0103701
3010	0.0065247
3022	0.0043641
3034	0.0032058
3046	0.0030849
3058	0.0038766
3070	0.0057096
3082	0.0074022
3094	0.0056277
3106	0.0024102
3118	0.0014001
3130	0.0011154
3142	0.0010101
3154	0.000975
3166	0.000858
3178	0.0007332
3190	0.0006045
3202	0.0005031
3214	0.0003861
3226	0.0003237
3238	0.0002691
3250	0.0002964
3262	0.0002964
3274	0.0003042
3286	0.000312
3298	0.0002691
3310	0.0002418
3322	0.0002496
3334	0.0002379
3346	0.0001833
3358	0.0002028
3370	0.0001872
3382	0.0001755
3394	0.0001755
3406	0.0002223
3418	0.0002067
3430	0.000156
3442	0.0001599
3454	7.02e-05
3466	0.0001131
3478	7.41e-05
3490	4.29e-05
3502	0.0001053
3514	4.68e-05
3526	9.75e-05
3538	0.0001092
3550	0.0001209
3562	6.24e-05
3574	0.0001092
3586	0.0001482
3598	7.02e-05
3610	0.0001365
3622	0.0001287
3634	0.000117
3646	8.97e-05
3658	0.0001599
3670	0.0001248
3682	0.0001248
3694	0.0001443
3706	0.0001911
3718	0.0001833
3730	0.0002106
3742	0.0002145
3754	0.000195
3766	0.0002457
3778	0.0001911
3790	0.0001638
3802	0.0001755
3814	0.0002184
3826	0.0002223
3838	0.0002223
