Infrared Spectrum: m-Dibenzoylbenzene
Formula: C 20 H 14 O 2
CAS: 3770-82-9
State: gas
Origin: EPA-IR VAPOR PHASE LIBRARY
1/CM	ABSORBANCE
549.8	0.0005283
559.445	0.0004871
569.09	0.0005822
578.734	0.000991
588.379	0.001186
598.024	0.001376
607.669	0.001186
617.313	0.001646
626.958	0.003296
636.603	0.015956
646.248	0.019126
655.893	0.007276
665.537	0.003956
675.182	0.004696
684.827	0.008446
694.472	0.020646
704.116	0.024296
713.761	0.023766
723.406	0.012356
733.051	0.005976
742.695	0.003996
752.34	0.004916
761.985	0.004516
771.63	0.003736
781.275	0.003886
790.919	0.003556
800.564	0.003686
810.209	0.002586
819.854	0.003066
829.498	0.001576
839.143	0.001296
848.788	0.0010614
858.433	0.001136
868.078	0.0009981
877.722	0.001266
887.367	0.002016
897.012	0.003966
906.657	0.007176
916.301	0.008226
925.946	0.006546
935.591	0.006206
945.236	0.003426
954.88	0.002746
964.525	0.005186
974.17	0.009886
983.815	0.013036
993.46	0.007516
1003.1	0.006286
1012.75	0.001506
1022.39	0.001836
1032.04	0.001636
1041.68	0.0007234
1051.33	0.0009079
1060.97	0.001576
1070.62	0.002556
1080.26	0.002706
1089.91	0.002106
1099.55	0.003016
1109.2	0.003856
1118.84	0.006666
1128.49	0.006886
1138.13	0.003396
1147.78	0.003566
1157.42	0.004686
1167.07	0.009336
1176.71	0.009856
1186.36	0.006236
1196	0.003886
1205.64	0.004946
1215.29	0.007796
1224.93	0.016116
1234.58	0.028926
1244.22	0.037946
1253.87	0.045216
1263.51	0.026406
1273.16	0.018426
1282.8	0.018806
1292.45	0.023836
1302.09	0.023376
1311.74	0.019216
1321.38	0.012406
1331.03	0.005016
1340.67	0.002896
1350.32	0.001996
1359.96	0.001626
1369.61	0.001536
1379.25	0.001546
1388.9	0.001616
1398.54	0.001856
1408.18	0.002566
1417.83	0.004006
1427.47	0.003806
1437.12	0.003676
1446.76	0.006876
1456.41	0.003566
1466.05	0.001776
1475.7	0.001756
1485.34	0.001576
1494.99	0.001446
1504.63	0.001216
1514.28	0.001326
1523.92	0.001466
1533.57	0.001766
1543.21	0.001846
1552.86	0.001906
1562.5	0.002346
1572.15	0.003606
1581.79	0.004926
1591.44	0.006876
1601.08	0.008956
1610.73	0.003996
1620.37	0.002996
1630.01	0.002766
1639.66	0.003666
1649.3	0.004956
1658.95	0.007696
1668.59	0.017176
1678.24	0.052996
1687.88	0.048226
1697.53	0.018776
1707.17	0.008986
1716.82	0.005566
1726.46	0.003686
1736.11	0.002496
1745.75	0.002066
1755.4	0.001696
1765.04	0.001476
1774.69	0.001236
1784.33	0.0010037
1793.98	0.0011212
1803.62	0.001596
1813.27	0.001636
1822.91	0.001176
1832.55	0.000914
1842.2	0.000787
1851.84	0.000828
1861.49	0.0008133
1871.13	0.0008894
1880.78	0.0010373
1890.42	0.001216
1900.07	0.001406
1909.71	0.001446
1919.36	0.001176
1929	0.0007911
1938.65	0.0007678
1948.29	0.001226
1957.94	0.001516
1967.58	0.001336
1977.23	0.0007682
1986.87	0.0005998
1996.52	0.0004465
2006.16	0.0004342
2015.81	0.0004635
2025.45	0.0004967
2035.1	0.0004906
2044.74	0.0004648
2054.38	0.0005422
2064.03	0.0004833
2073.67	0.0004224
2083.32	0.0004209
2092.96	0.0004476
2102.61	0.0004492
2112.25	0.0004064
2121.9	0.0004043
2131.54	0.0004636
2141.19	0.0004277
2150.83	0.0004128
2160.48	0.0004328
2170.12	0.0003274
2179.77	0.0004153
2189.41	0.0003246
2199.06	0.0003585
2208.7	0.0003725
2218.35	0.0003854
2227.99	0.0003555
2237.64	0.0003691
2247.28	0.0004863
2256.92	0.0004331
2266.57	0.0004433
2276.21	0.0003797
2285.86	0.0004805
2295.5	0.0004297
2305.15	0.0004159
2314.79	0.0005691
2324.44	0.0006057
2334.08	0.0005841
2343.73	0.0006852
2353.37	0.0004986
2363.02	0.000517
2372.66	0.0004425
2382.31	0.0004009
2391.95	0.0005458
2401.6	0.000462
2411.24	0.0005453
2420.89	0.0006157
2430.53	0.0004501
2440.18	0.000448
2449.82	0.000495
2459.47	0.0003903
2469.11	0.0004286
2478.75	0.0003458
2488.4	0.0003939
2498.04	0.000327
2507.69	0.0003997
2517.33	0.0003471
2526.98	0.0003569
2536.62	0.0003197
2546.27	0.0004129
2555.91	0.0004657
2565.56	0.0005164
2575.2	0.0003971
2584.85	0.0005109
2594.49	0.0005648
2604.14	0.0005508
2613.78	0.0003797
2623.43	0.0003582
2633.07	0.0004616
2642.72	0.0002953
2652.36	0.000362
2662.01	0.0004254
2671.65	0.0004674
2681.29	0.0004184
2690.94	0.0003938
2700.58	0.0004714
2710.23	0.0003712
2719.87	0.0004307
2729.52	0.0004323
2739.16	0.0005186
2748.81	0.0003581
2758.45	0.0005644
2768.1	0.0005173
2777.74	0.0004514
2787.39	0.0003436
2797.03	0.000362
2806.68	0.0003224
2816.32	0.0002961
2825.97	0.0004726
2835.61	0.0004553
2845.26	0.0005067
2854.9	0.000628
2864.55	0.0006283
2874.19	0.0007102
2883.84	0.0006083
2893.48	0.0006297
2903.12	0.0005428
2912.77	0.0005664
2922.41	0.0005399
2932.06	0.0005861
2941.7	0.0004257
2951.35	0.0004934
2960.99	0.0004785
2970.64	0.0005208
2980.28	0.0005142
2989.93	0.0006735
2999.57	0.0007762
3009.22	0.0009985
3018.86	0.002006
3028.51	0.003796
3038.15	0.004856
3047.8	0.003926
3057.44	0.005336
3067.09	0.011446
3076.73	0.010856
3086.38	0.008266
3096.02	0.005446
3105.67	0.002926
3115.31	0.001276
3124.95	0.0007576
3134.6	0.0006262
3144.24	0.0006984
3153.89	0.0006816
3163.53	0.0007242
3173.18	0.0005805
3182.82	0.0005079
3192.47	0.0004384
3202.11	0.0003206
3211.76	0.0004496
3221.4	0.0002929
3231.05	0.0003683
3240.69	0.0003049
3250.34	0.000392
3259.98	0.0004471
3269.63	0.0003352
3279.27	0.0004653
3288.92	0.0003579
3298.56	0.0003332
3308.21	0.0004484
3317.85	0.0004189
3327.49	0.0006509
3337.14	0.0009168
3346.78	0.0011273
3356.43	0.0009317
3366.07	0.000739
3375.72	0.0005481
3385.36	0.000547
3395.01	0.0002855
3404.65	0.0003595
3414.3	0.00014704
3423.94	0.0003001
3433.59	0.0003385
3443.23	0.00018174
3452.88	0.0002972
3462.52	0.0003558
3472.17	0.0003009
3481.81	0.0003411
3491.46	0.0002789
3501.1	0.00026
3510.75	0.0003021
3520.39	0.0003232
3530.04	0.0003647
3539.68	0.0001972
3549.32	0.0002817
3558.97	0.0004081
3568.61	0.00023348
3578.26	0.00015748
3587.9	0.0003067
3597.55	0.00017856
3607.19	0.0002471
3616.84	0.0002036
3626.48	7.99e-05
3636.13	0.000144968
3645.77	0.0005616
3655.42	0.0003153
3665.06	0.0002667
3674.71	0.0002791
3684.35	0.0003428
3694	0.0004054
3703.64	0.0003216
3713.29	0.0002851
3722.93	0.0002789
3732.58	0.00017804
3742.22	0.0002951
3751.86	0.0004095
3761.51	0.0001101
3771.15	0.0003805
3780.8	0.0002643
3790.44	0.0003444
3800.09	9.79e-05
3809.73	0.0002637
3819.38	0.0003389
3829.02	0.0003419
3838.67	0.0003469
3848.31	0.0003122
3857.96	0.0002711
3867.6	0.0002563
3877.25	0.00020742
3886.89	0.0003089
3896.54	0.00018132
3906.18	0.0002902
3915.83	0.0002833
3925.47	0.00022989
3935.12	0.0002653
3944.76	0.0004061
3954.41	0.0003444
3964.05	0.00017911
3973.69	0.0003346
3983.34	0.0004163
3992.98	0.0003963
