Infrared Spectrum: 2,3,5,6-Tetrabromo-4-methylphenol
Formula: C7 H4 Br4 O
CAS: 37721-75-8
State: gas
Origin: EPA-IR VAPOR PHASE LIBRARY
1/CM	ABSORBANCE
549.8	0.0038838
559.445	0.0108738
569.09	0.0053338
578.734	0.0020338
588.379	0.0015638
598.024	0.0013338
607.669	0.0021538
617.313	0.0072038
626.958	0.0130138
636.603	0.0053438
646.248	0.0041938
655.893	0.0049638
665.537	0.0029838
675.182	0.0026038
684.827	0.0019738
694.472	0.0019538
704.116	0.0020938
713.761	0.0027838
723.406	0.0026038
733.051	0.0026738
742.695	0.0023538
752.34	0.0027738
761.985	0.0023638
771.63	0.0024738
781.275	0.0034738
790.919	0.0060038
800.564	0.0099038
810.209	0.0309238
819.854	0.0173538
829.498	0.0030738
839.143	0.0024738
848.788	0.0020538
858.433	0.0014238
868.078	0.0017438
877.722	0.0021438
887.367	0.0013138
897.012	0.0016538
906.657	0.0024238
916.301	0.0020938
925.946	0.0025138
935.591	0.0031738
945.236	0.0100638
954.88	0.0176638
964.525	0.0099938
974.17	0.0061838
983.815	0.0071938
993.46	0.0100038
1003.1	0.0131238
1012.75	0.0127938
1022.39	0.0101538
1032.04	0.0082438
1041.68	0.0068338
1051.33	0.0055838
1060.97	0.0050838
1070.62	0.0040938
1080.26	0.0040438
1089.91	0.0045638
1099.55	0.0070438
1109.2	0.0230738
1118.84	0.0349338
1128.49	0.0097938
1138.13	0.0032838
1147.78	0.0024338
1157.42	0.0029338
1167.07	0.0043338
1176.71	0.0089338
1186.36	0.0323738
1196	0.0723338
1205.64	0.0340738
1215.29	0.0151738
1224.93	0.0103538
1234.58	0.0085038
1244.22	0.0114738
1253.87	0.0254138
1263.51	0.0356338
1273.16	0.0280738
1282.8	0.0304738
1292.45	0.0078638
1302.09	0.0032738
1311.74	0.0034838
1321.38	0.0055938
1331.03	0.0070138
1340.67	0.0116738
1350.32	0.0301638
1359.96	0.0467438
1369.61	0.0223338
1379.25	0.0112938
1388.9	0.0115138
1398.54	0.0158438
1408.18	0.0262338
1417.83	0.0460638
1427.47	0.0483338
1437.12	0.0166438
1446.76	0.0068538
1456.41	0.0045638
1466.05	0.0039838
1475.7	0.0040038
1485.34	0.0040538
1494.99	0.0043538
1504.63	0.0049238
1514.28	0.0072338
1523.92	0.0126438
1533.57	0.0160238
1543.21	0.0163738
1552.86	0.0127538
1562.5	0.0057138
1572.15	0.0042438
1581.79	0.0034238
1591.44	0.0026838
1601.08	0.0019738
1610.73	0.0014138
1620.37	0.0012538
1630.01	0.0011838
1639.66	0.0009303
1649.3	0.0007969
1658.95	0.0007758
1668.59	0.0008015
1678.24	0.0006438
1687.88	0.0006142
1697.53	0.0005982
1707.17	0.0005729
1716.82	0.0005184
1726.46	0.0005391
1736.11	0.0005734
1745.75	0.0004591
1755.4	0.0005055
1765.04	0.0006167
1774.69	0.0005719
1784.33	0.0004802
1793.98	0.0003609
1803.62	0.0004256
1813.27	0.0004488
1822.91	0.0004531
1832.55	0.0004814
1842.2	0.0005095
1851.84	0.0004949
1861.49	0.0004836
1871.13	0.0004071
1880.78	0.0004428
1890.42	0.0003906
1900.07	0.0004425
1909.71	0.0004576
1919.36	0.0004574
1929	0.0003523
1938.65	0.0004035
1948.29	0.0003651
1957.94	0.0002979
1967.58	0.0003957
1977.23	0.00043
1986.87	0.0005244
1996.52	0.0005368
2006.16	0.0004709
2015.81	0.0004648
2025.45	0.0004887
2035.1	0.0004543
2044.74	0.0004188
2054.38	0.0004693
2064.03	0.0005431
2073.67	0.0005773
2083.32	0.0005276
2092.96	0.0004231
2102.61	0.0003533
2112.25	0.0003416
2121.9	0.0003896
2131.54	0.0003826
2141.19	0.0005412
2150.83	0.000467
2160.48	0.0004381
2170.12	0.0004529
2179.77	0.0003545
2189.41	0.0003388
2199.06	0.0004733
2208.7	0.0005289
2218.35	0.0005466
2227.99	0.00051
2237.64	0.0004717
2247.28	0.0004804
2256.92	0.0003967
2266.57	0.0004377
2276.21	0.0003851
2285.86	0.0003213
2295.5	0.0004277
2305.15	0.0004082
2314.79	0.0004702
2324.44	0.0004135
2334.08	0.0006409
2343.73	0.0006323
2353.37	0.0007419
2363.02	0.0008828
2372.66	0.0007949
2382.31	0.0008951
2391.95	0.0007385
2401.6	0.0005916
2411.24	0.0004231
2420.89	0.0004461
2430.53	0.0003932
2440.18	0.0004742
2449.82	0.0006132
2459.47	0.000686
2469.11	0.0005987
2478.75	0.0006267
2488.4	0.0006038
2498.04	0.0004882
2507.69	0.0004759
2517.33	0.0005195
2526.98	0.0004395
2536.62	0.0004249
2546.27	0.0004874
2555.91	0.000475
2565.56	0.0003094
2575.2	0.0002956
2584.85	0.0003962
2594.49	0.0005466
2604.14	0.0005242
2613.78	0.0005345
2623.43	0.0005988
2633.07	0.0007224
2642.72	0.000782
2652.36	0.0007197
2662.01	0.0006137
2671.65	0.0007029
2681.29	0.000484
2690.94	0.0005115
2700.58	0.000525
2710.23	0.0005125
2719.87	0.0004005
2729.52	0.0004877
2739.16	0.0003781
2748.81	0.0004819
2758.45	0.0005036
2768.1	0.0004339
2777.74	0.0004565
2787.39	0.0004416
2797.03	0.0003239
2806.68	0.0005459
2816.32	0.0004815
2825.97	0.0005087
2835.61	0.0004009
2845.26	0.0005306
2854.9	0.0009074
2864.55	0.0011138
2874.19	0.0014738
2883.84	0.0014938
2893.48	0.0012738
2903.12	0.0012838
2912.77	0.0013938
2922.41	0.0018038
2932.06	0.0032538
2941.7	0.0043738
2951.35	0.0038938
2960.99	0.0027138
2970.64	0.0020838
2980.28	0.0015538
2989.93	0.0009991
2999.57	0.0010057
3009.22	0.0008988
3018.86	0.0009146
3028.51	0.0010808
3038.15	0.0011538
3047.8	0.0012438
3057.44	0.0011438
3067.09	0.0008924
3076.73	0.0007639
3086.38	0.0006937
3096.02	0.0006049
3105.67	0.000565
3115.31	0.000489
3124.95	0.0004983
3134.6	0.0003134
3144.24	0.0004813
3153.89	0.0003736
3163.53	0.00043
3173.18	0.0002454
3182.82	0.000199
3192.47	0.0002718
3202.11	0.0005694
3211.76	0.0005037
3221.4	0.0006028
3231.05	0.000491
3240.69	0.0003378
3250.34	0.0003344
3259.98	0.0002369
3269.63	0.0002374
3279.27	0.00015467
3288.92	0.00018233
3298.56	0.0002676
3308.21	0.0003941
3317.85	0.0003004
3327.49	0.00015812
3337.14	0.0004174
3346.78	0.0002691
3356.43	0.000277
3366.07	0.0003264
3375.72	0.0005464
3385.36	0.0004582
3395.01	0.0002423
3404.65	0.0002716
3414.3	0.0003894
3423.94	0.0002408
3433.59	0.0002478
3443.23	0.0004713
3452.88	0.0004441
3462.52	0.0005243
3472.17	0.0006953
3481.81	0.0007786
3491.46	0.0009499
3501.1	0.0018238
3510.75	0.0053838
3520.39	0.0448138
3530.04	0.0633738
3539.68	0.0263938
3549.32	0.0090938
3558.97	0.0034538
3568.61	0.0016038
3578.26	0.0013238
3587.9	0.0008732
3597.55	0.0006301
3607.19	0.0004991
3616.84	0.0002694
3626.48	0.0004475
3636.13	0.0005636
3645.77	0.0004743
3655.42	0.0004494
3665.06	0.0004945
3674.71	0.0004477
3684.35	0.0002551
3694	0.0003062
3703.64	0.00012343
3713.29	0.0002309
3722.93	0.00015765
3732.58	0.000257
3742.22	0.0002461
3751.86	0.0002691
3761.51	0.0003013
3771.15	0.000269
3780.8	0.0003194
3790.44	0.0002196
3800.09	0.000388
3809.73	0.0003949
3819.38	0.0004677
3829.02	0.0006763
3838.67	0.0004503
3848.31	0.0006675
3857.96	0.0005032
3867.6	0.0004761
3877.25	0.0005879
3886.89	0.0002381
3896.54	0.0005782
3906.18	0.0003779
3915.83	0.0002168
3925.47	0.0006507
3935.12	0.0005837
3944.76	0.0006295
3954.41	0.0006829
3964.05	0.0003219
3973.69	0.0003735
3983.34	0.0002124
3992.98	0.0004514
