Infrared Spectrum: LAURIC ACID, PENTACHLOROPHENYL ESTER
Formula: C18 H23 Cl5 O2
CAS: 3772-94-9
State: SOLUTION (CCl4 FOR 2-10.5 MICRONS, CS2 FOR 10.5-16 MICRONS) VS. 0.005 CM SOLVENT
Class: COBLENTZ III
Instrument: BAIRD (PRISM)
Instrument parameters: NaCl PRISM
Sampling: TRANSMISSION
Path length: 0.010 CM, 0.010 CM
Resolution: 4
Origin: WYANDOTTE CHEMICALS CORP.
MICROMETERS	TRANSMITTANCE
2.019	0.953
2.05823	0.954
2.09746	0.955
2.13669	0.957
2.17592	0.954
2.21515	0.951
2.25439	0.949
2.29362	0.952
2.33285	0.955
2.37208	0.96
2.41131	0.964
2.45054	0.965
2.48977	0.968
2.529	0.969
2.56823	0.971
2.60746	0.974
2.64669	0.975
2.68593	0.977
2.72516	0.976
2.76439	0.959
2.80362	0.936
2.84285	0.943
2.88208	0.951
2.92131	0.947
2.96054	0.947
2.99977	0.952
3.039	0.954
3.07823	0.951
3.11747	0.944
3.1567	0.936
3.19593	0.924
3.23516	0.899
3.27439	0.876
3.31362	0.713
3.35285	0.22
3.39208	0.052
3.43131	0.319
3.47054	0.204
3.50977	0.504
3.54901	0.805
3.58824	0.858
3.62747	0.882
3.6667	0.891
3.70593	0.896
3.74516	0.899
3.78439	0.913
3.82362	0.925
3.86285	0.93
3.90208	0.935
3.94131	0.938
3.98054	0.936
4.01978	0.932
4.05901	0.937
4.09824	0.935
4.13747	0.942
4.1767	0.947
4.21593	0.951
4.25516	0.949
4.29439	0.959
4.33362	0.973
4.37285	0.976
4.41208	0.968
4.45132	0.966
4.49055	0.968
4.52978	0.969
4.56901	0.973
4.60824	0.974
4.64747	0.976
4.6867	0.98
4.72593	0.981
4.76516	0.982
4.80439	0.984
4.84362	0.984
4.88286	0.984
4.92209	0.982
4.96132	0.98
5.00055	0.976
5.03978	0.979
5.07901	0.962
5.11824	0.963
5.15747	0.964
5.1967	0.962
5.23593	0.966
5.27516	0.97
5.3144	0.968
5.35363	0.962
5.39286	0.954
5.43209	0.938
5.47132	0.931
5.51055	0.889
5.54978	0.652
5.58901	0.064
5.62824	0.182
5.66747	0.683
5.7067	0.827
5.74594	0.865
5.78517	0.877
5.8244	0.896
5.86363	0.904
5.90286	0.889
5.94209	0.888
5.98132	0.882
6.02055	0.887
6.05978	0.905
6.09901	0.909
6.13824	0.902
6.17748	0.892
6.21671	0.86
6.25594	0.836
6.29517	0.814
6.3344	0.798
6.37363	0.751
6.41286	0.734
6.45209	0.762
6.49132	0.801
6.53055	0.858
6.56978	0.883
6.60902	0.891
6.64825	0.88
6.68748	0.844
6.72671	0.746
6.76594	0.381
6.80517	0.409
6.8444	0.502
6.88363	0.515
6.92286	0.525
6.96209	0.37
7.00132	0.333
7.04056	0.398
7.07979	0.451
7.11902	0.392
7.15825	0.083
7.19748	0.046
7.23671	0.134
7.27594	0.161
7.31517	0.026
7.3544	0.158
7.39363	0.389
7.43286	0.547
7.47209	0.623
7.51133	0.647
7.55056	0.651
7.58979	0.628
7.62902	0.59
7.66825	0.58
7.70748	0.611
7.74671	0.63
7.78594	0.573
7.82517	0.647
7.8644	0.668
7.90363	0.665
7.94287	0.608
7.9821	0.597
8.02133	0.596
8.06056	0.608
8.09979	0.59
8.13902	0.556
8.17825	0.524
8.21748	0.509
8.25671	0.491
8.29594	0.471
8.33517	0.447
8.37441	0.452
8.41364	0.452
8.45287	0.44
8.4921	0.427
8.53133	0.435
8.57056	0.471
8.60979	0.49
8.64902	0.502
8.68825	0.487
8.72748	0.427
8.76671	0.391
8.80595	0.315
8.84518	0.271
8.88441	0.325
8.92364	0.387
8.96287	0.404
9.0021	0.267
9.04133	0.125
9.08056	0.046
9.11979	0.02
9.15902	0.023
9.19825	0.033
9.23749	0.051
9.27672	0.1
9.31595	0.168
9.35518	0.24
9.39441	0.327
9.43364	0.411
9.47287	0.485
9.5121	0.54
9.55133	0.58
9.59056	0.608
9.62979	0.636
9.66903	0.672
9.70826	0.684
9.74749	0.693
9.78672	0.689
9.82595	0.679
9.86518	0.678
9.90441	0.684
9.94364	0.693
9.98287	0.694
10.0221	0.688
10.0613	0.66
10.1006	0.608
10.1398	0.579
10.179	0.618
10.2183	0.674
10.2575	0.732
10.2967	0.775
10.336	0.792
10.3752	0.803
10.4144	0.806
10.4536	0.809
10.4929	0.808
10.5321	0.804
10.5713	0.798
10.6106	0.787
10.6498	0.778
10.689	0.77
10.7283	0.76
10.7675	0.749
10.8067	0.729
10.846	0.722
10.8852	0.72
10.9244	0.717
10.9636	0.712
11.0029	0.702
11.0421	0.679
11.0813	0.647
11.1206	0.601
11.1598	0.556
11.199	0.507
11.2383	0.466
11.2775	0.442
11.3167	0.436
11.356	0.436
11.3952	0.446
11.4344	0.455
11.4736	0.453
11.5129	0.446
11.5521	0.435
11.5913	0.404
11.6306	0.389
11.6698	0.424
11.709	0.497
11.7483	0.566
11.7875	0.624
11.8267	0.672
11.866	0.707
11.9052	0.726
11.9444	0.732
11.9836	0.726
12.0229	0.71
12.0621	0.66
12.1013	0.577
12.1406	0.568
12.1798	0.623
12.219	0.661
12.2583	0.678
12.2975	0.689
12.3367	0.698
12.376	0.685
12.4152	0.654
12.4544	0.614
12.4937	0.568
12.5329	0.542
12.5721	0.529
12.6113	0.524
12.6506	0.518
12.6898	0.502
12.729	0.488
12.7683	0.477
12.8075	0.469
12.8467	0.474
12.886	0.511
12.9252	0.552
12.9644	0.579
13.0037	0.575
13.0429	0.569
13.0821	0.619
13.1213	0.677
13.1606	0.706
13.1998	0.718
13.239	0.72
13.2783	0.723
13.3175	0.723
13.3567	0.718
13.396	0.712
13.4352	0.705
13.4744	0.699
13.5137	0.685
13.5529	0.667
13.5921	0.654
13.6313	0.629
13.6706	0.595
13.7098	0.548
13.749	0.486
13.7883	0.408
13.8275	0.31
13.8667	0.22
13.906	0.174
13.9452	0.162
13.9844	0.179
14.0237	0.227
14.0629	0.303
14.1021	0.385
14.1413	0.468
14.1806	0.545
14.2198	0.611
14.259	0.661
14.2983	0.698
14.3375	0.72
14.3767	0.753
14.416	0.771
14.4552	0.784
14.4944	0.794
14.5337	0.805
14.5729	0.82
14.6121	0.823
14.6513	0.826
14.6906	0.83
14.7298	0.831
14.769	0.831
14.8083	0.831
14.8475	0.831
14.8867	0.831
14.926	0.83
14.9652	0.827
15.0044	0.814
15.0437	0.799
15.0829	0.799
15.1221	0.812
15.1614	0.812
15.2006	0.811
15.2398	0.808
15.279	0.795
15.3183	0.783
15.3575	0.771
15.3967	0.764
15.436	0.753
15.4752	0.743
15.5144	0.743
15.5537	0.75
15.5929	0.762
15.6321	0.765
15.6714	0.767
15.7106	0.768
15.7498	0.771
15.789	0.77
15.8283	0.765
15.8675	0.761
15.9067	0.759
15.946	0.757
15.9852	0.753
