Infrared Spectrum: 2,4-THIAZOLIDINEDIONE, 5-BENZYLIDENE-
Formula: C10 H7 N O2 S
CAS: 3774-99-0
State: SOLID (KBr PELLET)
Melting point: 242 C
Class: COBLENTZ
Instrument: Not specified, most likely a prism, grating, or hybrid spectrometer.
Sampling: TRANSMISSION
Resolution: 4
Origin: TENNESSEE EASTMAN COMPANY, RESEARCH LABORATORIES
MICROMETERS	TRANSMITTANCE
2.034	0.378
2.07512	0.399
2.11624	0.402
2.15736	0.414
2.19848	0.438
2.2396	0.455
2.28071	0.472
2.32183	0.484
2.36295	0.5
2.40407	0.513
2.44519	0.527
2.48631	0.537
2.52743	0.554
2.56855	0.571
2.60967	0.593
2.65079	0.602
2.69191	0.612
2.73303	0.604
2.77414	0.542
2.81526	0.489
2.85638	0.443
2.8975	0.397
2.93862	0.395
2.97974	0.424
3.02086	0.472
3.06198	0.435
3.1031	0.308
3.14422	0.112
3.18534	0.042
3.22645	0.047
3.26757	0.046
3.30869	0.039
3.34981	0.08
3.39093	0.153
3.43205	0.199
3.47317	0.206
3.51429	0.209
3.55541	0.153
3.59653	0.175
3.63765	0.407
3.67877	0.54
3.71988	0.605
3.761	0.662
3.80212	0.704
3.84324	0.732
3.88436	0.766
3.92548	0.788
3.9666	0.808
4.00772	0.815
4.04884	0.795
4.08996	0.822
4.13108	0.825
4.1722	0.832
4.21331	0.863
4.25443	0.863
4.29555	0.863
4.33667	0.863
4.37779	0.878
4.41891	0.901
4.46003	0.923
4.50115	0.931
4.54227	0.933
4.58339	0.938
4.62451	0.936
4.66562	0.935
4.70674	0.953
4.74786	0.96
4.78898	0.967
4.8301	0.974
4.87122	0.947
4.91234	0.943
4.95346	0.965
4.99458	0.986
5.0357	0.945
5.07682	0.93
5.11794	0.928
5.15905	0.935
5.20017	0.94
5.24129	0.931
5.28241	0.882
5.32353	0.873
5.36465	0.866
5.40577	0.829
5.44689	0.82
5.48801	0.82
5.52913	0.817
5.57025	0.674
5.61136	0.407
5.65248	0.254
5.6936	0.09
5.73472	0.04
5.77584	0.148
5.81696	0.112
5.85808	0.03
5.8992	0.029
5.94032	0.034
5.98144	0.119
6.02256	0.278
6.06368	0.389
6.10479	0.373
6.14591	0.24
6.18703	0.071
6.22815	0.035
6.26927	0.141
6.31039	0.346
6.35151	0.395
6.39263	0.547
6.43375	0.633
6.47487	0.663
6.51599	0.684
6.55711	0.686
6.59822	0.653
6.63934	0.296
6.68046	0.412
6.72158	0.764
6.7627	0.788
6.80382	0.791
6.84494	0.525
6.88606	0.467
6.92718	0.788
6.9683	0.773
7.00942	0.677
7.05053	0.585
7.09165	0.496
7.13277	0.592
7.17389	0.67
7.21501	0.626
7.25613	0.61
7.29725	0.508
7.33837	0.288
7.37949	0.052
7.42061	0.032
7.46173	0.032
7.50285	0.032
7.54396	0.237
7.58508	0.416
7.6262	0.51
7.66732	0.156
7.70844	0.124
7.74956	0.16
7.79068	0.404
7.8318	0.686
7.87292	0.716
7.91404	0.68
7.95516	0.686
7.99627	0.747
8.03739	0.8
8.07851	0.737
8.11963	0.646
8.16075	0.412
8.20187	0.186
8.24299	0.36
8.28411	0.619
8.32523	0.677
8.36635	0.656
8.40747	0.549
8.44859	0.431
8.4897	0.163
8.53082	0.066
8.57194	0.061
8.61306	0.191
8.65418	0.428
8.6953	0.658
8.73642	0.73
8.77754	0.771
8.81866	0.796
8.85978	0.8
8.9009	0.805
8.94201	0.819
8.98313	0.829
9.02425	0.798
9.06537	0.815
9.10649	0.843
9.14761	0.848
9.18873	0.813
9.22985	0.79
9.27097	0.831
9.31209	0.856
9.35321	0.861
9.39433	0.86
9.43544	0.843
9.47656	0.837
9.51768	0.841
9.5588	0.866
9.59992	0.883
9.64104	0.875
9.68216	0.708
9.72328	0.293
9.7644	0.383
9.80552	0.672
9.84664	0.788
9.88776	0.839
9.92887	0.802
9.96999	0.66
10.0111	0.819
10.0522	0.887
10.0934	0.921
10.1345	0.936
10.1756	0.952
10.2167	0.953
10.2578	0.952
10.2989	0.924
10.3401	0.935
10.3812	0.947
10.4223	0.948
10.4634	0.948
10.5045	0.948
10.5457	0.948
10.5868	0.948
10.6279	0.948
10.669	0.945
10.7101	0.916
10.7513	0.863
10.7924	0.713
10.8335	0.339
10.8746	0.378
10.9157	0.726
10.9569	0.839
10.998	0.844
11.0391	0.773
11.0802	0.674
11.1213	0.791
11.1624	0.831
11.2036	0.841
11.2447	0.846
11.2858	0.849
11.3269	0.853
11.368	0.851
11.4092	0.851
11.4503	0.848
11.4914	0.836
11.5325	0.82
11.5736	0.759
11.6148	0.602
11.6559	0.61
11.697	0.689
11.7381	0.706
11.7792	0.694
11.8204	0.648
11.8615	0.588
11.9026	0.5
11.9437	0.395
11.9848	0.269
12.026	0.177
12.0671	0.194
12.1082	0.208
12.1493	0.189
12.1904	0.168
12.2315	0.156
12.2727	0.151
12.3138	0.151
12.3549	0.155
12.396	0.174
12.4371	0.197
12.4783	0.232
12.5194	0.266
12.5605	0.305
12.6016	0.356
12.6427	0.407
12.6839	0.457
12.725	0.498
12.7661	0.537
12.8072	0.552
12.8483	0.558
12.8895	0.527
12.9306	0.46
12.9717	0.317
13.0128	0.151
13.0539	0.068
13.095	0.102
13.1362	0.315
13.1773	0.511
13.2184	0.641
13.2595	0.691
13.3006	0.72
13.3418	0.74
13.3829	0.755
13.424	0.759
13.4651	0.742
13.5062	0.733
13.5474	0.781
13.5885	0.829
13.6296	0.839
13.6707	0.815
13.7118	0.778
13.753	0.754
13.7941	0.75
13.8352	0.755
13.8763	0.773
13.9174	0.786
13.9585	0.795
13.9997	0.8
14.0408	0.8
14.0819	0.796
14.123	0.786
14.1641	0.767
14.2053	0.744
14.2464	0.709
14.2875	0.68
14.3286	0.622
14.3697	0.534
14.4109	0.421
14.452	0.293
14.4931	0.201
14.5342	0.133
14.5753	0.098
14.6165	0.093
14.6576	0.092
14.6987	0.092
14.7398	0.107
14.7809	0.165
14.8221	0.278
14.8632	0.406
14.9043	0.5
14.9454	0.612
14.9865	0.708
15.0276	0.793
15.0688	0.831
15.1099	0.848
15.151	0.854
15.1921	0.86
15.2332	0.856
15.2744	0.834
15.3155	0.793
15.3566	0.776
15.3977	0.773
15.4388	0.774
15.48	0.778
15.5211	0.776
15.5622	0.75
15.6033	0.697
15.6444	0.622
15.6856	0.534
15.7267	0.457
15.7678	0.397
15.8089	0.377
15.85	0.372
15.8911	0.373
15.9323	0.394
15.9734	0.401
