Infrared Spectrum: 5-Benzylidenehydantoin
Formula: C 10 H 8 N 2 O 2
CAS: 3775-01-7
State: gas
Origin: EPA-IR VAPOR PHASE LIBRARY
1/CM	ABSORBANCE
549.8	0.01064
559.445	0.00809
569.09	0.0053
578.734	0.00306
588.379	0.00205
598.024	0.00184
607.669	0.00196
617.313	0.00207
626.958	0.00343
636.603	0.00555
646.248	0.00335
655.893	0.00133
665.537	0.00167
675.182	0.00347
684.827	0.00475
694.472	0.00518
704.116	0.00393
713.761	0.00241
723.406	0.00176
733.051	0.00157
742.695	0.00257
752.34	0.00539
761.985	0.00625
771.63	0.00303
781.275	0.00156
790.919	0.0011254
800.564	0.0010528
810.209	0.001005
819.854	0.00124
829.498	0.00143
839.143	0.00181
848.788	0.00338
858.433	0.00361
868.078	0.0018
877.722	0.0010331
887.367	0.0008664
897.012	0.0008446
906.657	0.00118
916.301	0.00127
925.946	0.001115
935.591	0.001019
945.236	0.00119
954.88	0.00188
964.525	0.00441
974.17	0.00672
983.815	0.00455
993.46	0.00222
1003.1	0.00166
1012.75	0.00147
1022.39	0.00135
1032.04	0.00145
1041.68	0.00149
1051.33	0.00177
1060.97	0.00255
1070.62	0.00475
1080.26	0.00527
1089.91	0.00422
1099.55	0.00331
1109.2	0.00325
1118.84	0.00225
1128.49	0.00199
1138.13	0.0014
1147.78	0.00154
1157.42	0.0012
1167.07	0.00148
1176.71	0.00256
1186.36	0.00367
1196	0.00337
1205.64	0.00206
1215.29	0.00229
1224.93	0.00318
1234.58	0.00362
1244.22	0.0047
1253.87	0.00425
1263.51	0.00424
1273.16	0.00526
1282.8	0.00626
1292.45	0.0068
1302.09	0.00843
1311.74	0.01058
1321.38	0.01435
1331.03	0.02167
1340.67	0.02482
1350.32	0.04574
1359.96	0.03525
1369.61	0.0101
1379.25	0.00582
1388.9	0.00589
1398.54	0.00488
1408.18	0.00282
1417.83	0.00156
1427.47	0.00137
1437.12	0.00126
1446.76	0.00183
1456.41	0.00134
1466.05	0.0011486
1475.7	0.00127
1485.34	0.00209
1494.99	0.00315
1504.63	0.00205
1514.28	0.0011263
1523.92	0.0009096
1533.57	0.0007896
1543.21	0.0006808
1552.86	0.0006732
1562.5	0.0007392
1572.15	0.0008965
1581.79	0.0009884
1591.44	0.00127
1601.08	0.00141
1610.73	0.00124
1620.37	0.001127
1630.01	0.001146
1639.66	0.00149
1649.3	0.00237
1658.95	0.00414
1668.59	0.00635
1678.24	0.00705
1687.88	0.00529
1697.53	0.00358
1707.17	0.00348
1716.82	0.00313
1726.46	0.00339
1736.11	0.00459
1745.75	0.00775
1755.4	0.0143
1765.04	0.03746
1774.69	0.07855
1784.33	0.06771
1793.98	0.03103
1803.62	0.05184
1813.27	0.06592
1822.91	0.0267
1832.55	0.01072
1842.2	0.00486
1851.84	0.00283
1861.49	0.0023
1871.13	0.00203
1880.78	0.00172
1890.42	0.00145
1900.07	0.00135
1909.71	0.00133
1919.36	0.00143
1929	0.00159
1938.65	0.00178
1948.29	0.00179
1957.94	0.00159
1967.58	0.00121
1977.23	0.0008498
1986.87	0.0008552
1996.52	0.0008039
2006.16	0.0006432
2015.81	0.0006563
2025.45	0.000562
2035.1	0.0005644
2044.74	0.0005612
2054.38	0.0004473
2064.03	0.0004054
2073.67	0.0003977
2083.32	0.0004108
2092.96	0.0004289
2102.61	0.0003086
2112.25	0.0003476
2121.9	0.0003863
2131.54	0.0002916
2141.19	0.0003725
2150.83	0.0003564
2160.48	0.0003622
2170.12	0.0003949
2179.77	0.0004165
2189.41	0.0004299
2199.06	0.0004825
2208.7	0.0004572
2218.35	0.0004207
2227.99	0.0003617
2237.64	0.0004396
2247.28	0.0004968
2256.92	0.0004365
2266.57	0.0005039
2276.21	0.0003772
2285.86	0.0005316
2295.5	0.0003706
2305.15	0.0003902
2314.79	0.0004783
2324.44	0.0003771
2334.08	0.00023234
2343.73	0.0003784
2353.37	0.0003326
2363.02	0.0002938
2372.66	0.0003653
2382.31	0.0003363
2391.95	0.0004969
2401.6	0.0004222
2411.24	0.000544
2420.89	0.0005373
2430.53	0.0005054
2440.18	0.0004845
2449.82	0.000442
2459.47	0.0004567
2469.11	0.0004531
2478.75	0.00024129
2488.4	0.000446
2498.04	0.0003203
2507.69	0.0003104
2517.33	0.0002963
2526.98	0.0002979
2536.62	0.0004227
2546.27	0.00029
2555.91	0.0003652
2565.56	0.0003745
2575.2	0.0003153
2584.85	0.0004231
2594.49	0.0003623
2604.14	0.0004663
2613.78	0.0005031
2623.43	0.0004151
2633.07	0.000471
2642.72	0.0003996
2652.36	0.0003987
2662.01	0.0003645
2671.65	0.0003314
2681.29	0.0003321
2690.94	0.0003421
2700.58	0.0003446
2710.23	0.0002373
2719.87	0.0003013
2729.52	0.0003077
2739.16	0.0003569
2748.81	0.00026266
2758.45	0.0002845
2768.1	0.00024449
2777.74	0.0003655
2787.39	0.0003597
2797.03	0.00018878
2806.68	0.000288
2816.32	0.0003908
2825.97	0.00021541
2835.61	0.0004323
2845.26	0.0004241
2854.9	0.0003179
2864.55	0.0003476
2874.19	0.0004023
2883.84	0.0003117
2893.48	0.00027455
2903.12	0.0004602
2912.77	0.0004112
2922.41	0.0003034
2932.06	0.0004954
2941.7	0.0003851
2951.35	0.0004296
2960.99	0.0004639
2970.64	0.00023182
2980.28	0.0004043
2989.93	0.0005894
2999.57	0.0005717
3009.22	0.0007
3018.86	0.0008452
3028.51	0.00163
3038.15	0.00219
3047.8	0.00157
3057.44	0.00163
3067.09	0.00287
3076.73	0.00292
3086.38	0.00218
3096.02	0.00172
3105.67	0.00134
3115.31	0.0009984
3124.95	0.0004704
3134.6	0.0006903
3144.24	0.0006541
3153.89	0.0005443
3163.53	0.0004643
3173.18	0.0003615
3182.82	0.0003027
3192.47	0.0003841
3202.11	0.00024107
3211.76	0.0004167
3221.4	0.0003052
3231.05	0.0003347
3240.69	0.0003973
3250.34	0.0004379
3259.98	0.000402
3269.63	0.0003241
3279.27	0.0003206
3288.92	0.0003563
3298.56	0.0004188
3308.21	0.0002889
3317.85	0.0003182
3327.49	0.0005491
3337.14	0.0004071
3346.78	0.0004503
3356.43	0.00019501
3366.07	0.0004821
3375.72	0.0003564
3385.36	0.0003619
3395.01	0.0004778
3404.65	0.0005538
3414.3	0.0006918
3423.94	0.0006692
3433.59	0.000713
3443.23	0.0008801
3452.88	0.0012
3462.52	0.00244
3472.17	0.00593
3481.81	0.0126
3491.46	0.01635
3501.1	0.00738
3510.75	0.00167
3520.39	0.0010738
3530.04	0.0009959
3539.68	0.001172
3549.32	0.0009774
3558.97	0.0009615
3568.61	0.0011548
3578.26	0.001167
3587.9	0.0008055
3597.55	0.0005759
3607.19	0.0006116
3616.84	0.0006245
3626.48	0.0006427
3636.13	0.0005088
3645.77	0.0005223
3655.42	0.0005117
3665.06	0.000281
3674.71	0.0002845
3684.35	0.0002898
3694	0.0004255
3703.64	0.000418
3713.29	0.00026446
3722.93	0.0001365
3732.58	0.0002777
3742.22	9.46e-05
3751.86	0.00026374
3761.51	0.00026269
3771.15	0.0004655
3780.8	0.0004852
3790.44	0.00022603
3800.09	0.0004222
3809.73	0.0003436
3819.38	0.00020282
3829.02	0.00025805
3838.67	0.0002876
3848.31	0.0003647
3857.96	0.0005482
3867.6	0.00021532
3877.25	0.0003063
3886.89	0.0002824
3896.54	0.0003454
3906.18	0.0004269
3915.83	0.0002989
3925.47	0.0004654
3935.12	0.0002872
3944.76	0.0005733
3954.41	0.00022784
3964.05	0.00023966
3973.69	0.0003777
3983.34	0.00023115
3992.98	0.0005533
