Infrared Spectrum: Isooctyl vinyl ether
Formula: C 10 H 20 O
CAS: 37769-62-3
State: gas
Instrument: HP-GC/MS/IRD
Origin: NIST Mass Spectrometry Data Center
1/CM	ABSORBANCE
550	0.0002002
562	7.02e-05
574	6.89e-05
586	1.17e-05
598	7.8e-05
610	0.0001079
622	0.0001313
634	0.0001586
646	0.0001443
658	6.11e-05
670	6.5e-05
682	0.0002002
694	0.0002158
706	0.0002717
718	0.0001703
730	0.0001677
742	0.0002678
754	0.0003068
766	0.0004017
778	0.0004823
790	0.000728
802	0.0012493
814	0.0017953
826	0.0016172
838	0.0015678
850	0.001196
862	0.0008892
874	0.000767
886	0.00078
898	0.0008463
910	0.000819
922	0.0008216
934	0.0010868
946	0.0012883
958	0.0014833
970	0.0015353
982	0.0015639
994	0.00182
1006	0.0017342
1018	0.0015418
1030	0.001469
1042	0.0015223
1054	0.0019175
1066	0.002743
1078	0.00338
1090	0.0021138
1102	0.0012831
1114	0.0013897
1126	0.0019136
1138	0.0024193
1150	0.002977
1162	0.0039039
1174	0.0053443
1186	0.0068861
1198	0.0091013
1210	0.0073151
1222	0.0031616
1234	0.0017303
1246	0.0013442
1258	0.001118
1270	0.0009633
1282	0.0009854
1294	0.0009984
1306	0.0014274
1318	0.0027937
1330	0.002119
1342	0.0010413
1354	0.001196
1366	0.0021658
1378	0.0029263
1390	0.0019968
1402	0.0009503
1414	0.0006227
1426	0.0006097
1438	0.0007514
1450	0.0012324
1462	0.0018408
1474	0.0018993
1486	0.0010231
1498	0.0005642
1510	0.0004381
1522	0.0004004
1534	0.0004043
1546	0.0004875
1558	0.0004732
1570	0.0006565
1582	0.0011817
1594	0.0022854
1606	0.0046605
1618	0.0052871
1630	0.0050375
1642	0.0054626
1654	0.0029887
1666	0.00169
1678	0.0008983
1690	0.0004719
1702	0.0002262
1714	0.0001716
1726	0.0001443
1738	7.41e-05
1750	8.97e-05
1762	0.000104
1774	8.84e-05
1786	0.0001092
1798	9.23e-05
1810	7.15e-05
1822	9.75e-05
1834	7.8e-05
1846	9.75e-05
1858	9.49e-05
1870	0.0001378
1882	0.0001209
1894	0.0001079
1906	0.0001313
1918	0.0001157
1930	0.0001222
1942	7.28e-05
1954	5.98e-05
1966	6.63e-05
1978	4.94e-05
1990	6.5e-05
2002	8.32e-05
2014	8.45e-05
2026	6.24e-05
2038	0.0001014
2050	7.02e-05
2062	8.19e-05
2074	5.33e-05
2086	6.11e-05
2098	6.5e-05
2110	8.19e-05
2122	7.8e-05
2134	5.72e-05
2146	5.85e-05
2158	7.02e-05
2170	8.84e-05
2182	4.55e-05
2194	5.2e-06
2206	3.51e-05
2218	1.82e-05
2230	5.07e-05
2242	5.98e-05
2254	1.43e-05
2266	3.64e-05
2278	3.51e-05
2290	4.29e-05
2302	5.59e-05
2314	5.07e-05
2326	1.3e-06
2338	1.3e-06
2350	3.77e-05
2362	1.3e-06
2374	1.04e-05
2386	6.24e-05
2398	7.28e-05
2410	6.5e-05
2422	4.29e-05
2434	2.34e-05
2446	5.33e-05
2458	4.16e-05
2470	5.46e-05
2482	2.6e-05
2494	6.89e-05
2506	8.06e-05
2518	8.06e-05
2530	7.93e-05
2542	0.0001079
2554	8.45e-05
2566	0.0001391
2578	0.0001365
2590	0.00013
2602	0.0001417
2614	0.0001508
2626	0.0001612
2638	0.0001313
2650	0.0001456
2662	0.0001027
2674	0.0001742
2686	0.0001872
2698	0.0002028
2710	0.0002327
2722	0.0003211
2734	0.0003276
2746	0.0003419
2758	0.000364
2770	0.0003523
2782	0.0004147
2794	0.0005057
2806	0.0006097
2818	0.0007514
2830	0.000962
2842	0.0014456
2854	0.0025636
2866	0.0044369
2878	0.0065351
2890	0.006435
2902	0.0058071
2914	0.0069615
2926	0.0087932
2938	0.0100646
2950	0.0099983
2962	0.0125203
2974	0.0105911
2986	0.0045318
2998	0.0019929
3010	0.0011791
3022	0.0009607
3034	0.00078
3046	0.0007826
3058	0.0007345
3070	0.0006188
3082	0.0006175
3094	0.0005681
3106	0.0005772
3118	0.0008073
3130	0.0008099
3142	0.0003588
3154	0.0003003
3166	0.0002834
3178	0.0002886
3190	0.0002184
3202	0.0003172
3214	0.0001872
3226	0.0001443
3238	0.0001677
3250	0.0002028
3262	0.000156
3274	0.0001716
3286	0.0001248
3298	0.0001287
3310	0.0001183
3322	0.0001209
3334	0.0001248
3346	0.0001703
3358	0.0001846
3370	8.06e-05
3382	0.0001534
3394	0.000156
3406	0.0001144
3418	0.0001144
3430	0.0001274
3442	0.0001183
3454	0.0001651
3466	0.0001144
3478	0.0001573
3490	0.0001001
3502	0.0002015
3514	7.54e-05
3526	0.0001053
3538	4.94e-05
3550	0.0001248
3562	0.0001222
3574	3.12e-05
3586	5.59e-05
3598	7.8e-05
3610	0.0001417
3622	7.67e-05
3634	0.000195
3646	7.67e-05
3658	0.0001027
3670	8.97e-05
3682	0.0001469
3694	9.1e-05
3706	4.16e-05
3718	0.000182
3730	7.93e-05
3742	5.85e-05
3754	8.58e-05
3766	0.0001352
3778	0.0001261
3790	0.0001066
3802	9.1e-05
3814	0.000104
3826	0.0001703
3838	0.0001339
