Infrared Spectrum: 2-Chloro-6-fluorophenylacetic acid
Formula: C 8 H 6 Cl F O 2
CAS: 37777-76-7
State: gas
Origin: EPA-IR VAPOR PHASE LIBRARY
1/CM	ABSORBANCE
549.9	0.08429
559.547	0.04681
569.193	0.03888
578.84	0.04471
588.486	0.06548
598.133	0.10061
607.779	0.13037
617.426	0.1538
627.072	0.13803
636.719	0.09727
646.365	0.06981
656.012	0.05459
665.658	0.04891
675.305	0.04637
684.951	0.04007
694.598	0.03194
704.245	0.02516
713.891	0.02401
723.538	0.03006
733.184	0.02436
742.831	0.01729
752.477	0.01695
762.124	0.04721
771.77	0.15372
781.417	0.1513
791.063	0.04927
800.71	0.01746
810.356	0.01636
820.003	0.02104
829.649	0.03788
839.296	0.06479
848.943	0.07799
858.589	0.07968
868.236	0.06916
877.882	0.04977
887.529	0.03232
897.175	0.02189
906.822	0.01971
916.468	0.02116
926.115	0.02536
935.761	0.04392
945.408	0.12661
955.054	0.20021
964.701	0.10797
974.347	0.02855
983.994	0.01988
993.64	0.01903
1003.29	0.01722
1012.93	0.0148
1022.58	0.01472
1032.23	0.01618
1041.87	0.01907
1051.52	0.02529
1061.17	0.03845
1070.81	0.0537
1080.46	0.07578
1090.11	0.11861
1099.75	0.20746
1109.4	0.40269
1119.05	0.58791
1128.69	0.46104
1138.34	0.27573
1147.99	0.2184
1157.63	0.15746
1167.28	0.12133
1176.92	0.09557
1186.57	0.08564
1196.22	0.08984
1205.86	0.08545
1215.51	0.07526
1225.16	0.07066
1234.8	0.08105
1244.45	0.17674
1254.1	0.21738
1263.74	0.09806
1273.39	0.05133
1283.04	0.044
1292.68	0.03942
1302.33	0.03619
1311.98	0.03343
1321.62	0.03486
1331.27	0.04436
1340.92	0.05813
1350.56	0.07514
1360.21	0.10495
1369.86	0.10085
1379.5	0.06017
1389.15	0.04077
1398.79	0.03412
1408.44	0.03839
1418.09	0.053
1427.73	0.05689
1437.38	0.07958
1447.03	0.17389
1456.67	0.26775
1466.32	0.22554
1475.97	0.11246
1485.61	0.04567
1495.26	0.02714
1504.91	0.02154
1514.55	0.02192
1524.2	0.02233
1533.85	0.02051
1543.49	0.02425
1553.14	0.03519
1562.79	0.05946
1572.43	0.11343
1582.08	0.15541
1591.73	0.1156
1601.37	0.08542
1611.02	0.06738
1620.67	0.02861
1630.31	0.01558
1639.96	0.01275
1649.6	0.01362
1659.25	0.01401
1668.9	0.01232
1678.54	0.01297
1688.19	0.01527
1697.84	0.01877
1707.48	0.02414
1717.13	0.03148
1726.78	0.04562
1736.42	0.0727
1746.07	0.10191
1755.72	0.12901
1765.36	0.18842
1775.01	0.45266
1784.66	0.69857
1794.3	0.40691
1803.95	0.16634
1813.6	0.09659
1823.24	0.06444
1832.89	0.04783
1842.54	0.03388
1852.18	0.0217
1861.83	0.01527
1871.47	0.01155
1881.12	0.00948
1890.77	0.0088
1900.41	0.00975
1910.06	0.01401
1919.71	0.01624
1929.35	0.0105
1939	0.006994
1948.65	0.006653
1958.29	0.006735
1967.94	0.007027
1977.59	0.0073637
1987.23	0.0075592
1996.88	0.0073278
2006.53	0.006661
2016.17	0.00614
2025.82	0.00584
2035.47	0.00554
2045.11	0.00537
2054.76	0.00535
2064.41	0.00554
2074.05	0.00584
2083.7	0.006227
2093.35	0.006452
2102.99	0.006274
2112.64	0.00602
2122.28	0.00595
2131.93	0.00573
2141.58	0.00528
2151.22	0.00499
2160.87	0.00503
2170.52	0.0051
2180.16	0.00518
2189.81	0.00538
2199.46	0.00598
2209.1	0.006595
2218.75	0.006933
2228.4	0.0073481
2238.04	0.007013
2247.69	0.00608
2257.34	0.00566
2266.98	0.00566
2276.63	0.0059
2286.28	0.00609
2295.92	0.006281
2305.57	0.006543
2315.22	0.00652
2324.86	0.006204
2334.51	0.00581
2344.16	0.0056
2353.8	0.00562
2363.45	0.0056
2373.09	0.00548
2382.74	0.00545
2392.39	0.00557
2402.03	0.00584
2411.68	0.00599
2421.33	0.00573
2430.97	0.00545
2440.62	0.0056
2450.27	0.00587
2459.91	0.00608
2469.56	0.00603
2479.21	0.00579
2488.85	0.00585
2498.5	0.0061
2508.15	0.00574
2517.79	0.00499
2527.44	0.00461
2537.09	0.00443
2546.73	0.0042
2556.38	0.00396
2566.03	0.00371
2575.67	0.00368
2585.32	0.00378
2594.96	0.00398
2604.61	0.00399
2614.26	0.00388
2623.9	0.00373
2633.55	0.00362
2643.2	0.00367
2652.84	0.00371
2662.49	0.00379
2672.14	0.00371
2681.78	0.00333
2691.43	0.00308
2701.08	0.00307
2710.72	0.00313
2720.37	0.00306
2730.02	0.00296
2739.66	0.00281
2749.31	0.00258
2758.96	0.00231
2768.6	0.00213
2778.25	0.0019
2787.9	0.0018
2797.54	0.00176
2807.19	0.00173
2816.84	0.00187
2826.48	0.00198
2836.13	0.00179
2845.77	0.00168
2855.42	0.00162
2865.07	0.00174
2874.71	0.00185
2884.36	0.00206
2894.01	0.00254
2903.65	0.00292
2913.3	0.00312
2922.95	0.00351
2932.59	0.00539
2942.24	0.00957
2951.89	0.0156
2961.53	0.01485
2971.18	0.00818
2980.83	0.00459
2990.47	0.00348
3000.12	0.00361
3009.77	0.00478
3019.41	0.00527
3029.06	0.00453
3038.71	0.0036
3048.35	0.00372
3058	0.00497
3067.64	0.00941
3077.29	0.01874
3086.94	0.01963
3096.58	0.01077
3106.23	0.00346
3115.88	0.00111
3125.52	0.00063
3135.17	0.00061
3144.82	0.00062
3154.46	0.00066
3164.11	0.00049
3173.76	0.00015
3183.4	1e-05
3193.05	0.00019
3202.7	0.00022
3212.34	0.00024
3221.99	0.00032
3231.64	0.00034
3241.28	0.0004
3250.93	0.00053
3260.58	0.00051
3270.22	0.0005
3279.87	0.00061
3289.52	0.00067
3299.16	0.0008
3308.81	0.00087
3318.45	0.00093
3328.1	0.00094
3337.75	0.00109
3347.39	0.00103
3357.04	0.0012
3366.69	0.00123
3376.33	0.00133
3385.98	0.0014
3395.63	0.00147
3405.27	0.00171
3414.92	0.00177
3424.57	0.00199
3434.21	0.00213
3443.86	0.00235
3453.51	0.00246
3463.15	0.00264
3472.8	0.00289
3482.45	0.00333
3492.09	0.00393
3501.74	0.00483
3511.39	0.00567
3521.03	0.006998
3530.68	0.00958
3540.33	0.01424
3549.97	0.01892
3559.62	0.03852
3569.26	0.1716
3578.91	0.2661
3588.56	0.09876
3598.2	0.02073
3607.85	0.01443
3617.5	0.01076
3627.14	0.0078578
3636.79	0.006682
3646.44	0.00589
3656.08	0.00494
3665.73	0.00432
3675.38	0.00418
3685.02	0.0041
3694.67	0.00404
3704.32	0.00413
3713.96	0.00412
3723.61	0.00395
3733.26	0.00402
3742.9	0.00406
3752.55	0.00396
3762.2	0.0039
3771.84	0.00383
3781.49	0.00387
3791.13	0.00391
3800.78	0.00403
3810.43	0.00413
3820.07	0.00416
3829.72	0.004
3839.37	0.00413
3849.01	0.00414
3858.66	0.0041
3868.31	0.00422
3877.95	0.00419
3887.6	0.00434
3897.25	0.00444
3906.89	0.00451
3916.54	0.00466
3926.19	0.00479
3935.83	0.00493
3945.48	0.00489
3955.13	0.0046
3964.77	0.00432
3974.42	0.00423
3984.07	0.00414
3993.71	0.00406
