Infrared Spectrum: 2-Furamidoxime, o-(p-chlorobenzoyl)-5-nitro
Formula: C12 H8 Cl N3 O5
CAS: 37784-51-3
State: SOLID (NUJOL MULL)
Melting point: 194 C
Class: COBLENTZ III
Instrument: PERKIN-ELMER 21 (GRATING)
Instrument parameters: NaCl PRISM; FILTER AT 10 MICRON
Sampling: TRANSMISSION
Resolution: 2
Origin: ABBOTT LABORATORIES - WASHBURN
1/CM	TRANSMITTANCE
649	0.574
658	0.6178
667	0.6507
676	0.6598
685	0.576
694	0.7133
703	0.7021
712	0.6696
721	0.5702
730	0.6402
739	0.3909
748	0.3449
757	0.5822
766	0.746
775	0.7517
784	0.7483
793	0.7361
802	0.6933
811	0.4309
820	0.5299
829	0.618
838	0.6995
847	0.5131
856	0.6821
865	0.6074
874	0.7151
883	0.7099
892	0.6963
901	0.688
910	0.6729
919	0.6138
928	0.5592
937	0.6642
946	0.6308
955	0.6445
964	0.5642
973	0.6717
982	0.6755
991	0.664
1000	0.6254
1009	0.5074
1018	0.3932
1027	0.555
1036	0.6775
1045	0.6567
1054	0.6304
1063	0.5974
1072	0.5035
1081	0.4042
1090	0.2617
1099	0.3301
1108	0.6221
1117	0.6613
1126	0.721
1135	0.6926
1144	0.6718
1153	0.6735
1162	0.6683
1171	0.6455
1180	0.5921
1189	0.6472
1198	0.6102
1207	0.6264
1216	0.6057
1225	0.5623
1234	0.4878
1243	0.3862
1252	0.4201
1261	0.3048
1270	0.2581
1279	0.3987
1288	0.4283
1297	0.4704
1306	0.4985
1315	0.4389
1324	0.5023
1333	0.4272
1342	0.2108
1351	0.1155
1360	0.2375
1369	0.3557
1378	0.2796
1387	0.482
1396	0.4559
1405	0.4682
1414	0.6495
1423	0.6456
1432	0.5513
1441	0.3822
1450	0.2157
1459	0.1474
1468	0.1615
1477	0.4351
1486	0.4627
1495	0.4919
1504	0.3927
1513	0.3258
1522	0.452
1531	0.4753
1540	0.4544
1549	0.4586
1558	0.5617
1567	0.544
1576	0.4428
1585	0.3272
1594	0.2555
1603	0.2877
1612	0.4725
1621	0.3547
1630	0.2366
1639	0.3929
1648	0.516
1657	0.6786
1666	0.7226
1675	0.7392
1684	0.7317
1693	0.7079
1702	0.6697
1711	0.6347
1720	0.4889
1729	0.2597
1738	0.2849
1747	0.5652
1756	0.7459
1765	0.7704
1774	0.771
1783	0.7695
1792	0.7673
1801	0.7653
1810	0.7733
1819	0.7766
1828	0.777
1837	0.7772
1846	0.7771
1855	0.7772
1864	0.7762
1873	0.7744
1882	0.7723
1891	0.7702
1900	0.7672
1909	0.7631
1918	0.7592
1927	0.7556
1936	0.7538
1945	0.7537
1954	0.7525
1963	0.7493
1972	0.7453
1981	0.7406
1990	0.738
1999	0.7362
2008	0.7349
2017	0.7336
2026	0.7324
2035	0.7296
2044	0.7261
2053	0.724
2062	0.7221
2071	0.7204
2080	0.7188
2089	0.7174
2098	0.7159
2107	0.7144
2116	0.7126
2125	0.7109
2134	0.7092
2143	0.7076
2152	0.7061
2161	0.7045
2170	0.7031
2179	0.7033
2188	0.7036
2197	0.703
2206	0.6998
2215	0.6963
2224	0.6924
2233	0.6906
2242	0.689
2251	0.6886
2260	0.6882
2269	0.6859
2278	0.6797
2287	0.6743
2296	0.673
2305	0.6718
2314	0.6708
2323	0.6698
2332	0.6692
2341	0.6687
2350	0.6683
2359	0.6678
2368	0.667
2377	0.6646
2386	0.6617
2395	0.661
2404	0.6609
2413	0.6614
2422	0.6619
2431	0.6624
2440	0.6618
2449	0.6594
2458	0.655
2467	0.6518
2476	0.6487
2485	0.6458
2494	0.6425
2503	0.6392
2512	0.6359
2521	0.6332
2530	0.6306
2539	0.628
2548	0.6251
2557	0.622
2566	0.6189
2575	0.6158
2584	0.6127
2593	0.6084
2602	0.604
2611	0.5997
2620	0.5963
2629	0.5931
2638	0.5905
2647	0.5883
2656	0.5816
2665	0.5762
2674	0.5738
2683	0.5739
2692	0.574
2701	0.5741
2710	0.5742
2719	0.5744
2728	0.5746
2737	0.5741
2746	0.5736
2755	0.5731
2764	0.5709
2773	0.565
2782	0.5527
2791	0.5377
2800	0.5147
2809	0.4861
2818	0.4403
2827	0.4104
2836	0.3744
2845	0.2494
2854	0.1118
2863	0.003
2872	0
2881	0
2890	0
2899	0
2908	0
2917	0
2926	0
2935	0
2944	0
2953	0
2962	0
2971	0.011
2980	0.0488
2989	0.1264
2998	0.2034
3007	0.28
3016	0.3561
3025	0.4295
3034	0.4506
3043	0.4537
3052	0.455
3061	0.4567
3070	0.4575
3079	0.458
3088	0.4578
3097	0.4571
3106	0.4563
3115	0.4545
3124	0.4524
3133	0.4521
3142	0.453
3151	0.4549
3160	0.4571
3169	0.4598
3178	0.4623
3187	0.4644
3196	0.4655
3205	0.4646
3214	0.4633
3223	0.461
3232	0.4581
3241	0.4553
3250	0.4526
3259	0.45
3268	0.4457
3277	0.4355
3286	0.4247
3295	0.4178
3304	0.4146
3313	0.4046
3322	0.3729
3331	0.3522
3340	0.3419
3349	0.3389
3358	0.3386
3367	0.3466
3376	0.3834
3385	0.4228
3394	0.4623
3403	0.4949
3412	0.4988
3421	0.4996
3430	0.4983
3439	0.496
3448	0.4926
3457	0.4844
3466	0.481
3475	0.4837
3484	0.4884
3493	0.4941
3502	0.4995
3511	0.5053
3520	0.51
3529	0.5129
3538	0.5132
3547	0.5122
3556	0.5112
3565	0.5099
3574	0.5081
3583	0.5056
3592	0.5034
3601	0.5019
3610	0.5009
3619	0.4999
3628	0.4995
3637	0.499
3646	0.4986
3655	0.4984
3664	0.4974
3673	0.4944
3682	0.4898
3691	0.4843
3700	0.4813
3709	0.4796
3718	0.478
3727	0.4767
3736	0.4758
3745	0.475
3754	0.4744
3763	0.474
3772	0.4735
3781	0.473
3790	0.4726
3799	0.4722
3808	0.4717
3817	0.471
3826	0.4678
3835	0.4644
3844	0.4595
3853	0.4568
3862	0.4553
3871	0.4541
3880	0.4531
3889	0.4525
3898	0.4523
3907	0.4523
3916	0.4523
3925	0.4525
3934	0.4526
3943	0.4527
3952	0.4528
3961	0.4529
3970	0.453
3979	0.4531
3988	0.4533
3997	0.4534
