Infrared Spectrum: Ethyl thiophene-3-acetate
Formula: C 8 H 10 O 2 S
CAS: 37784-63-7
State: gas
Origin: EPA-IR VAPOR PHASE LIBRARY
1/CM	ABSORBANCE
549.8	0.00497
559.445	0.00432
569.09	0.0046
578.734	0.00625
588.379	0.01072
598.024	0.01753
607.669	0.02467
617.313	0.02718
626.958	0.02374
636.603	0.01471
646.248	0.01025
655.893	0.01152
665.537	0.02148
675.182	0.03769
684.827	0.03252
694.472	0.01886
704.116	0.01587
713.761	0.0203
723.406	0.03039
733.051	0.04536
742.695	0.06256
752.34	0.07818
761.985	0.07916
771.63	0.06739
781.275	0.05182
790.919	0.03603
800.564	0.02431
810.209	0.01873
819.854	0.02096
829.498	0.0357
839.143	0.0449
848.788	0.03846
858.433	0.04233
868.078	0.03598
877.722	0.01823
887.367	0.0121
897.012	0.01065
906.657	0.01513
916.301	0.02341
925.946	0.02887
935.591	0.02675
945.236	0.02511
954.88	0.02188
964.525	0.01254
974.17	0.00865
983.815	0.00866
993.46	0.01063
1003.1	0.01639
1012.75	0.0327
1022.39	0.07014
1032.04	0.11949
1041.68	0.10923
1051.33	0.05622
1060.97	0.03299
1070.62	0.03075
1080.26	0.04015
1089.91	0.05181
1099.55	0.06304
1109.2	0.07939
1118.84	0.12474
1128.49	0.20792
1138.13	0.28182
1147.78	0.27824
1157.42	0.21869
1167.07	0.17733
1176.71	0.1487
1186.36	0.12777
1196	0.11629
1205.64	0.12244
1215.29	0.14699
1224.93	0.17741
1234.58	0.1926
1244.22	0.20188
1253.87	0.21401
1263.51	0.18647
1273.16	0.12673
1282.8	0.08696
1292.45	0.08235
1302.09	0.09657
1311.74	0.10321
1321.38	0.10766
1331.03	0.08822
1340.67	0.04346
1350.32	0.0266
1359.96	0.03291
1369.61	0.04836
1379.25	0.043
1388.9	0.04209
1398.54	0.0449
1408.18	0.04621
1417.83	0.04178
1427.47	0.04036
1437.12	0.0401
1446.76	0.03611
1456.41	0.03204
1466.05	0.03191
1475.7	0.02741
1485.34	0.01831
1494.99	0.01261
1504.63	0.00976
1514.28	0.00937
1523.92	0.01198
1533.57	0.01728
1543.21	0.0163
1552.86	0.01404
1562.5	0.01058
1572.15	0.00671
1581.79	0.0054
1591.44	0.00504
1601.08	0.00495
1610.73	0.00522
1620.37	0.00528
1630.01	0.00566
1639.66	0.00584
1649.3	0.00632
1658.95	0.00696
1668.59	0.00803
1678.24	0.00982
1687.88	0.01259
1697.53	0.01755
1707.17	0.02588
1716.82	0.04037
1726.46	0.07292
1736.11	0.15634
1745.75	0.29893
1755.4	0.37971
1765.04	0.29888
1774.69	0.15081
1784.33	0.06281
1793.98	0.02998
1803.62	0.01764
1813.27	0.01193
1822.91	0.00894
1832.55	0.00742
1842.2	0.00645
1851.84	0.00587
1861.49	0.0055
1871.13	0.00532
1880.78	0.0053
1890.42	0.00501
1900.07	0.00472
1909.71	0.00406
1919.36	0.00407
1929	0.0038
1938.65	0.00368
1948.29	0.00375
1957.94	0.00399
1967.58	0.00406
1977.23	0.00391
1986.87	0.00414
1996.52	0.00401
2006.16	0.00386
2015.81	0.00389
2025.45	0.00358
2035.1	0.00351
2044.74	0.00337
2054.38	0.0034
2064.03	0.00348
2073.67	0.00354
2083.32	0.00347
2092.96	0.00331
2102.61	0.0028
2112.25	0.00245
2121.9	0.00224
2131.54	0.00221
2141.19	0.0021
2150.83	0.00216
2160.48	0.00238
2170.12	0.00237
2179.77	0.00215
2189.41	0.00188
2199.06	0.00181
2208.7	0.00184
2218.35	0.00186
2227.99	0.00195
2237.64	0.00225
2247.28	0.0023
2256.92	0.00206
2266.57	0.00211
2276.21	0.00197
2285.86	0.00213
2295.5	0.00212
2305.15	0.00205
2314.79	0.00215
2324.44	0.00203
2334.08	0.00214
2343.73	0.00212
2353.37	0.00192
2363.02	0.00174
2372.66	0.00176
2382.31	0.00169
2391.95	0.0017
2401.6	0.00162
2411.24	0.0017
2420.89	0.0017
2430.53	0.00174
2440.18	0.00144
2449.82	0.00138
2459.47	0.00146
2469.11	0.0015
2478.75	0.00163
2488.4	0.00129
2498.04	0.00123
2507.69	0.00113
2517.33	0.00123
2526.98	0.0009904
2536.62	0.00115
2546.27	0.0009851
2555.91	0.0009135
2565.56	0.0008994
2575.2	0.0008211
2584.85	0.0009213
2594.49	0.0008002
2604.14	0.00107
2613.78	0.0008849
2623.43	0.0009503
2633.07	0.0008446
2642.72	0.0007366
2652.36	0.0009615
2662.01	0.0009894
2671.65	0.00108
2681.29	0.00129
2690.94	0.00121
2700.58	0.00131
2710.23	0.00156
2719.87	0.00172
2729.52	0.00219
2739.16	0.00214
2748.81	0.00202
2758.45	0.0022
2768.1	0.00254
2777.74	0.00289
2787.39	0.00283
2797.03	0.00302
2806.68	0.00381
2816.32	0.00414
2825.97	0.00484
2835.61	0.00556
2845.26	0.00652
2854.9	0.00731
2864.55	0.0089
2874.19	0.01237
2883.84	0.01707
2893.48	0.01965
2903.12	0.02393
2912.77	0.03095
2922.41	0.03651
2932.06	0.04556
2941.7	0.05778
2951.35	0.05433
2960.99	0.05049
2970.64	0.06231
2980.28	0.09073
2989.93	0.09416
2999.57	0.0619
3009.22	0.04008
3018.86	0.02428
3028.51	0.01506
3038.15	0.01044
3047.8	0.00834
3057.44	0.00752
3067.09	0.00729
3076.73	0.00687
3086.38	0.00656
3096.02	0.00587
3105.67	0.00563
3115.31	0.00545
3124.95	0.00481
3134.6	0.00394
3144.24	0.00267
3153.89	0.00219
3163.53	0.00219
3173.18	0.00221
3182.82	0.00175
3192.47	0.00159
3202.11	0.00138
3211.76	0.00114
3221.4	0.00123
3231.05	0.0008884
3240.69	0.0008728
3250.34	0.0007628
3259.98	0.0005924
3269.63	0.0007164
3279.27	0.0006101
3288.92	0.0004304
3298.56	0.0005172
3308.21	0.0004746
3317.85	0.0004487
3327.49	0.0005031
3337.14	0.0004008
3346.78	0.0005601
3356.43	0.0006222
3366.07	0.0003256
3375.72	0.0004068
3385.36	0.0002316
3395.01	0.0002626
3404.65	0.0006306
3414.3	0.0006007
3423.94	0.0005695
3433.59	0.0008016
3443.23	0.000756
3452.88	0.00104
3462.52	0.00185
3472.17	0.00261
3481.81	0.00346
3491.46	0.00432
3501.1	0.00373
3510.75	0.00253
3520.39	0.00165
3530.04	0.00103
3539.68	0.0005211
3549.32	0.0007727
3558.97	0.0006856
3568.61	0.0006838
3578.26	0.0004419
3587.9	0.0005708
3597.55	0.0001763
3607.19	0.0002484
3616.84	0.0002528
3626.48	0.0001367
3636.13	0.0002834
3645.77	0.0002717
3655.42	0.0006491
3665.06	0.0004427
3674.71	0.0002528
3684.35	0.0004461
3694	0.0002688
3703.64	0.0007338
3713.29	0.000949
3722.93	0.0008281
3732.58	0.00107
3742.22	0.0004875
3751.86	0.00102
3761.51	0.00101
3771.15	0.0008213
3780.8	0.0008738
3790.44	0.0009456
3800.09	0.0004608
3809.73	0.0006387
3819.38	0.0006678
3829.02	0.0005537
3838.67	0.0007862
3848.31	0.0006613
3857.96	0.0006377
3867.6	0.0003035
3877.25	0.0005044
3886.89	0.0006484
3896.54	0.0006957
3906.18	0.0005008
3915.83	0.0006254
3925.47	0.0007145
3935.12	0.00116
3944.76	0.00105
3954.41	0.00132
3964.05	0.00115
3973.69	0.00131
3983.34	0.00121
3992.98	0.00148
