Infrared Spectrum: TRANS OCIMENE
Formula: C10 H16
CAS: 3779-61-1
Class: COBLENTZ
Instrument: Not specified, most likely a prism, grating, or hybrid spectrometer.
Sampling: TRANSMISSION
Resolution: 4
Origin: INTERNATIONAL FLAVORS & FRAGRANCES, INC.
MICROMETERS	TRANSMITTANCE
2.023	0.958
2.0597	0.96
2.09639	0.962
2.13309	0.958
2.16978	0.957
2.20648	0.9548
2.24318	0.9438
2.27987	0.9089
2.31657	0.903
2.35326	0.917
2.38996	0.936
2.42666	0.941
2.46335	0.935
2.50005	0.943
2.53674	0.947
2.57344	0.9512
2.61014	0.958
2.64683	0.9541
2.68353	0.964
2.72022	0.964
2.75692	0.96
2.79362	0.955
2.83031	0.954
2.86701	0.953
2.9037	0.9479
2.9404	0.948
2.9771	0.9511
3.01379	0.954
3.05049	0.955
3.08718	0.953
3.12388	0.9361
3.16058	0.887
3.19727	0.6828
3.23397	0.6042
3.27066	0.3988
3.30736	0.2156
3.34405	0.244
3.38075	0.16
3.41745	0.2661
3.45414	0.3218
3.49084	0.6233
3.52753	0.7901
3.56423	0.8786
3.60093	0.8988
3.63762	0.8664
3.67432	0.9271
3.71101	0.9541
3.74771	0.957
3.78441	0.962
3.8211	0.965
3.8578	0.969
3.89449	0.97
3.93119	0.968
3.96789	0.971
4.00458	0.9699
4.04128	0.969
4.07797	0.968
4.11467	0.968
4.15137	0.967
4.18806	0.962
4.22476	0.96
4.26145	0.9679
4.29815	0.9829
4.33485	0.9868
4.37154	0.987
4.40824	0.9881
4.44493	0.994
4.48163	0.996
4.51833	0.99
4.55502	0.984
4.59172	0.983
4.62841	0.984
4.66511	0.9868
4.70181	0.989
4.7385	0.989
4.7752	0.989
4.81189	0.987
4.84859	0.989
4.88529	0.99
4.92198	0.989
4.95868	0.988
4.99537	0.983
5.03207	0.9674
5.06877	0.965
5.10546	0.9777
5.14216	0.9825
5.17885	0.983
5.21555	0.981
5.25225	0.98
5.28894	0.976
5.32564	0.973
5.36233	0.971
5.39903	0.9694
5.43573	0.9606
5.47242	0.9419
5.50912	0.8918
5.54581	0.8276
5.58251	0.858
5.61921	0.9155
5.6559	0.9248
5.6926	0.931
5.72929	0.9137
5.76599	0.913
5.80269	0.9217
5.83938	0.92
5.87608	0.9118
5.91277	0.8817
5.94947	0.8203
5.98616	0.85
6.02286	0.6212
6.05956	0.4672
6.09625	0.7314
6.13295	0.7998
6.16964	0.4298
6.20634	0.5969
6.24304	0.8219
6.27973	0.856
6.31643	0.8761
6.35312	0.8674
6.38982	0.859
6.42652	0.87
6.46321	0.8799
6.49991	0.882
6.5366	0.8769
6.5733	0.8702
6.61	0.8651
6.64669	0.853
6.68339	0.829
6.72008	0.7902
6.75678	0.7342
6.79348	0.6291
6.83017	0.4479
6.86687	0.3191
6.90356	0.3158
6.94026	0.3952
6.97696	0.4918
7.01365	0.5481
7.05035	0.5937
7.08704	0.6798
7.12374	0.7051
7.16044	0.5418
7.19713	0.423
7.23383	0.3919
7.27052	0.5921
7.30722	0.6832
7.34392	0.6699
7.38061	0.7264
7.41731	0.7491
7.454	0.8154
7.4907	0.8517
7.5274	0.8614
7.56409	0.869
7.60079	0.872
7.63748	0.8679
7.67418	0.8352
7.71088	0.8066
7.74757	0.8185
7.78427	0.7627
7.82096	0.7058
7.85766	0.7948
7.89436	0.8542
7.93105	0.8689
7.96775	0.8767
8.00444	0.88
8.04114	0.868
8.07784	0.865
8.11453	0.86
8.15123	0.852
8.18792	0.839
8.22462	0.839
8.26132	0.8526
8.29801	0.8579
8.33471	0.8674
8.3714	0.877
8.4081	0.88
8.4448	0.882
8.48149	0.8777
8.51819	0.869
8.55488	0.8605
8.59158	0.8424
8.62827	0.8199
8.66497	0.8211
8.70167	0.8495
8.73836	0.8719
8.77506	0.8826
8.81175	0.889
8.84845	0.888
8.88515	0.8668
8.92184	0.8282
8.95854	0.755
8.99523	0.5564
9.03193	0.3884
9.06863	0.4476
9.10532	0.5859
9.14202	0.695
9.17871	0.7485
9.21541	0.771
9.25211	0.7337
9.2888	0.6633
9.3255	0.6878
9.36219	0.7542
9.39889	0.797
9.43559	0.8093
9.47228	0.789
9.50898	0.7532
9.54567	0.7859
9.58237	0.8172
9.61907	0.83
9.65576	0.833
9.69246	0.826
9.72915	0.821
9.76585	0.8218
9.80255	0.82
9.83924	0.81
9.87594	0.8015
9.91263	0.7882
9.94933	0.7586
9.98603	0.7184
10.0227	0.5858
10.0594	0.3203
10.0961	0.1995
10.1328	0.3311
10.1695	0.5044
10.2062	0.6316
10.2429	0.7128
10.2796	0.74
10.3163	0.7472
10.353	0.7254
10.3897	0.7271
10.4264	0.7603
10.4631	0.7897
10.4998	0.8023
10.5365	0.818
10.5732	0.823
10.6099	0.822
10.6466	0.8035
10.6832	0.7547
10.7199	0.6838
10.7566	0.6601
10.7933	0.6954
10.83	0.7271
10.8667	0.7476
10.9034	0.755
10.9401	0.7456
10.9768	0.7159
11.0135	0.6268
11.0502	0.5523
11.0869	0.3876
11.1236	0.2186
11.1603	0.1271
11.197	0.099
11.2337	0.1144
11.2704	0.2275
11.3071	0.3696
11.3438	0.4917
11.3805	0.5634
11.4172	0.586
11.4539	0.5721
11.4906	0.5347
11.5273	0.5118
11.564	0.517
11.6006	0.5542
11.6373	0.6001
11.674	0.6349
11.7107	0.6654
11.7474	0.6872
11.7841	0.7002
11.8208	0.703
11.8575	0.7001
11.8942	0.6749
11.9309	0.6338
11.9676	0.5866
12.0043	0.549
12.041	0.5393
12.0777	0.5656
12.1144	0.5988
12.1511	0.6405
12.1878	0.6829
12.2245	0.7178
12.2612	0.7486
12.2979	0.7734
12.3346	0.788
12.3713	0.8
12.408	0.8058
12.4447	0.807
12.4814	0.8056
12.518	0.8
12.5547	0.791
12.5914	0.787
12.6281	0.7811
12.6648	0.778
12.7015	0.776
12.7382	0.7815
12.7749	0.7917
12.8116	0.8077
12.8483	0.8216
12.885	0.833
12.9217	0.842
12.9584	0.845
12.9951	0.8414
13.0318	0.8308
13.0685	0.8148
13.1052	0.7879
13.1419	0.7526
13.1786	0.7045
13.2153	0.6824
13.252	0.672
13.2887	0.699
13.3254	0.7449
13.3621	0.7893
13.3988	0.8248
13.4354	0.8489
13.4721	0.8665
13.5088	0.8801
13.5455	0.8871
13.5822	0.8894
13.6189	0.896
13.6556	0.895
13.6923	0.895
13.729	0.895
13.7657	0.896
13.8024	0.896
13.8391	0.895
13.8758	0.8938
13.9125	0.89
13.9492	0.892
13.9859	0.889
14.0226	0.887
14.0593	0.883
14.096	0.882
14.1327	0.8809
14.1694	0.876
14.2061	0.873
14.2428	0.869
14.2795	0.8674
14.3162	0.8638
14.3528	0.86
14.3895	0.854
14.4262	0.8529
14.4629	0.8459
14.4996	0.843
14.5363	0.842
14.573	0.84
14.6097	0.831
14.6464	0.829
14.6831	0.8228
14.7198	0.816
14.7565	0.812
14.7932	0.8095
14.8299	0.8039
14.8666	0.7997
14.9033	0.796
14.94	0.798
14.9767	0.8
