Infrared Spectrum: O-5-NITRO-2-FUROYLDIMETHYLAMINOACETAMIDOXIME HYDROCHLORIDE
Formula: C9 H13 Cl N4 O5
CAS: 37791-04-1
State: SOLID (OIL MULL)
Melting point: 157 C DECOMPOSES
Class: COBLENTZ III
Instrument: PERKIN-ELMER 21 (GRATING)
Instrument parameters: NaCl PRISM
Sampling: TRANSMISSION
Resolution: 2
Origin: ABBOTT LABORATORIES
1/CM	TRANSMITTANCE
671	0.6737
680	0.683
689	0.6755
698	0.6422
707	0.7068
716	0.6687
725	0.6507
734	0.6451
743	0.6862
752	0.6623
761	0.5357
770	0.7269
779	0.7273
788	0.7188
797	0.6589
806	0.382
815	0.6727
824	0.7319
833	0.5906
842	0.6205
851	0.6919
860	0.6997
869	0.6531
878	0.5194
887	0.5771
896	0.6893
905	0.7166
914	0.6983
923	0.6706
932	0.6836
941	0.6708
950	0.6038
959	0.52
968	0.5309
977	0.5756
986	0.5565
995	0.646
1004	0.635
1013	0.5792
1022	0.5617
1031	0.4465
1040	0.6022
1049	0.6199
1058	0.6004
1067	0.5755
1076	0.5526
1085	0.5247
1094	0.4803
1103	0.3937
1112	0.2501
1121	0.1588
1130	0.3421
1139	0.5991
1148	0.6254
1157	0.6176
1166	0.5523
1175	0.5165
1184	0.4559
1193	0.5723
1202	0.6134
1211	0.5895
1220	0.554
1229	0.5134
1238	0.4502
1247	0.3055
1256	0.1903
1265	0.0871
1274	0.1789
1283	0.3338
1292	0.4496
1301	0.5316
1310	0.5883
1319	0.5648
1328	0.5447
1337	0.4098
1346	0.2038
1355	0.1398
1364	0.3573
1373	0.3419
1382	0.3455
1391	0.5308
1400	0.5375
1409	0.5509
1418	0.5171
1427	0.4607
1436	0.3859
1445	0.2848
1454	0.1401
1463	0.0947
1472	0.1585
1481	0.356
1490	0.3602
1499	0.6066
1508	0.5963
1517	0.518
1526	0.3876
1535	0.3333
1544	0.4464
1553	0.6617
1562	0.6724
1571	0.6516
1580	0.5767
1589	0.4017
1598	0.6174
1607	0.5961
1616	0.5383
1625	0.4685
1634	0.4623
1643	0.4117
1652	0.1943
1661	0.1281
1670	0.2302
1679	0.4632
1688	0.6357
1697	0.6549
1706	0.706
1715	0.7087
1724	0.6964
1733	0.6774
1742	0.555
1751	0.376
1760	0.2205
1769	0.2813
1778	0.5561
1787	0.7142
1796	0.7636
1805	0.7746
1814	0.7756
1823	0.7733
1832	0.7731
1841	0.7754
1850	0.78
1859	0.7825
1868	0.7821
1877	0.7809
1886	0.7783
1895	0.7755
1904	0.7726
1913	0.7696
1922	0.7662
1931	0.7629
1940	0.76
1949	0.7572
1958	0.7546
1967	0.752
1976	0.7495
1985	0.7469
1994	0.7443
2003	0.7412
2012	0.738
2021	0.7349
2030	0.7319
2039	0.729
2048	0.7261
2057	0.7227
2066	0.7202
2075	0.7182
2084	0.7155
2093	0.7104
2102	0.7068
2111	0.7044
2120	0.7024
2129	0.6996
2138	0.6966
2147	0.6933
2156	0.6916
2165	0.6899
2174	0.6871
2183	0.6827
2192	0.6776
2201	0.672
2210	0.6653
2219	0.6572
2228	0.6508
2237	0.6463
2246	0.6448
2255	0.6431
2264	0.6415
2273	0.6352
2282	0.6215
2291	0.6115
2300	0.6015
2309	0.5863
2318	0.569
2327	0.5554
2336	0.5463
2345	0.5412
2354	0.537
2363	0.5326
2372	0.5281
2381	0.5229
2390	0.5177
2399	0.5099
2408	0.5013
2417	0.4907
2426	0.4798
2435	0.4682
2444	0.4554
2453	0.4421
2462	0.4333
2471	0.4296
2480	0.4333
2489	0.4391
2498	0.4416
2507	0.4306
2516	0.4167
2525	0.4116
2534	0.4107
2543	0.3885
2552	0.3732
2561	0.3575
2570	0.3411
2579	0.3343
2588	0.3335
2597	0.335
2606	0.3397
2615	0.3475
2624	0.3562
2633	0.3685
2642	0.3787
2651	0.3864
2660	0.3961
2669	0.4066
2678	0.4197
2687	0.4303
2696	0.4491
2705	0.4982
2714	0.5104
2723	0.5174
2732	0.523
2741	0.5273
2750	0.53
2759	0.5318
2768	0.5319
2777	0.5304
2786	0.5256
2795	0.5172
2804	0.5063
2813	0.4807
2822	0.4535
2831	0.4199
2840	0.3859
2849	0.3043
2858	0.1489
2867	0.0359
2876	0.0331
2885	0.0314
2894	0.0307
2903	0.0278
2912	0.0227
2921	0.0178
2930	0.0169
2939	0.0175
2948	0.0209
2957	0.0283
2966	0.0392
2975	0.0513
2984	0.0677
2993	0.1145
3002	0.1782
3011	0.2415
3020	0.3044
3029	0.3662
3038	0.3911
3047	0.4037
3056	0.4091
3065	0.4093
3074	0.408
3083	0.4034
3092	0.3994
3101	0.3971
3110	0.3965
3119	0.3963
3128	0.3909
3137	0.3804
3146	0.3688
3155	0.3556
3164	0.3441
3173	0.329
3182	0.318
3191	0.3122
3200	0.3114
3209	0.3135
3218	0.3313
3227	0.3678
3236	0.4054
3245	0.418
3254	0.4164
3263	0.411
3272	0.4011
3281	0.3913
3290	0.3799
3299	0.3695
3308	0.3622
3317	0.3561
3326	0.3529
3335	0.3525
3344	0.3526
3353	0.3542
3362	0.3604
3371	0.3763
3380	0.4119
3389	0.4517
3398	0.4901
3407	0.5221
3416	0.5327
3425	0.5425
3434	0.5524
3443	0.5586
3452	0.5631
3461	0.5676
3470	0.5708
3479	0.5734
3488	0.5761
3497	0.578
3506	0.5792
3515	0.5804
3524	0.5807
3533	0.5802
3542	0.5797
3551	0.5792
3560	0.5786
3569	0.5781
3578	0.5775
3587	0.5769
3596	0.5762
3605	0.5753
3614	0.5744
3623	0.5735
3632	0.5725
3641	0.5716
3650	0.5707
3659	0.5685
3668	0.5663
3677	0.5641
3686	0.562
3695	0.5598
3704	0.5575
3713	0.5551
3722	0.5528
3731	0.5509
3740	0.5504
3749	0.5499
3758	0.5495
3767	0.549
3776	0.5486
3785	0.548
3794	0.5462
3803	0.5439
3812	0.5416
3821	0.5394
3830	0.5375
3839	0.5358
3848	0.534
3857	0.5323
3866	0.5306
3875	0.5293
3884	0.5283
3893	0.5274
3902	0.5263
3911	0.5254
3920	0.5244
3929	0.5235
3938	0.5225
3947	0.5215
3956	0.5209
3965	0.5207
3974	0.5206
3983	0.5203
3992	0.5201
