Infrared Spectrum: Propionic acid, 2,2-dichloro-3,3,3-trifluoro-, methyl ester
Formula: C4 H3 Cl2 F3 O2
CAS: 378-68-7
State: LIQUID (NEAT)
Class: COBLENTZ III
Instrument: BAIRD (GRATING)
Instrument parameters: NaCl PRISM
Path length: 0.003 CM
Resolution: 2
Origin: WYANDOTTE CHEMICALS CORP.
1/CM	TRANSMITTANCE
626	0.7938
635	0.8078
644	0.7995
653	0.6988
662	0.5228
671	0.5052
680	0.5274
689	0.4943
698	0.3769
707	0.1849
716	0.1943
725	0.4054
734	0.5242
743	0.5594
752	0.7686
761	0.8395
770	0.7955
779	0.5091
788	0.1814
797	0.7407
806	0.8659
815	0.9061
824	0.9092
833	0.8925
842	0.8606
851	0.7953
860	0.626
869	0.3183
878	0.0172
887	0.0598
896	0.2278
905	0.3289
914	0.4456
923	0.4512
932	0.4097
941	0.2831
950	0.1268
959	0.4208
968	0.7005
977	0.7606
986	0.7358
995	0.6645
1004	0.4668
1013	0.1019
1022	0.0112
1031	0.0214
1040	0.2206
1049	0.5298
1058	0.7266
1067	0.7818
1076	0.8066
1085	0.8165
1094	0.8253
1103	0.817
1112	0.8134
1121	0.7907
1130	0.7615
1139	0.7548
1148	0.7329
1157	0.6512
1166	0.5121
1175	0.2738
1184	0.0936
1193	0.0097
1202	0.0067
1211	0.008
1220	0.0093
1229	0.0095
1238	0.0088
1247	0.0073
1256	0.0074
1265	0.0116
1274	0.0128
1283	0.0118
1292	0.013
1301	0.0281
1310	0.1456
1319	0.2831
1328	0.46
1337	0.5675
1346	0.5895
1355	0.6404
1364	0.6858
1373	0.741
1382	0.8067
1391	0.8128
1400	0.8115
1409	0.8018
1418	0.7799
1427	0.7258
1436	0.6546
1445	0.5417
1454	0.0903
1463	0.2709
1472	0.4083
1481	0.5723
1490	0.7146
1499	0.7653
1508	0.8099
1517	0.8353
1526	0.8458
1535	0.8553
1544	0.8616
1553	0.8642
1562	0.8641
1571	0.8627
1580	0.8599
1589	0.8595
1598	0.8594
1607	0.8607
1616	0.8623
1625	0.8646
1634	0.8658
1643	0.8686
1652	0.8882
1661	0.8946
1670	0.8975
1679	0.8993
1688	0.8988
1697	0.8966
1706	0.8884
1715	0.8618
1724	0.825
1733	0.7197
1742	0.6109
1751	0.5219
1760	0.06
1769	0.0172
1778	0.0273
1787	0.0562
1796	0.2235
1805	0.409
1814	0.5927
1823	0.7399
1832	0.8374
1841	0.9026
1850	0.9295
1859	0.9462
1868	0.959
1877	0.9601
1886	0.9584
1895	0.9518
1904	0.9501
1913	0.9531
1922	0.9591
1931	0.9671
1940	0.9752
1949	0.9826
1958	0.9846
1967	0.9825
1976	0.9795
1985	0.9762
1994	0.9727
2003	0.9677
2012	0.9656
2021	0.968
2030	0.9701
2039	0.9716
2048	0.9726
2057	0.973
2066	0.9729
2075	0.9728
2084	0.9729
2093	0.973
2102	0.97
2111	0.9593
2120	0.9433
2129	0.9308
2138	0.9311
2147	0.9405
2156	0.9519
2165	0.9624
2174	0.9678
2183	0.9697
2192	0.9719
2201	0.9751
2210	0.9784
2219	0.9825
2228	0.9866
2237	0.988
2246	0.9888
2255	0.9893
2264	0.9896
2273	0.9895
2282	0.9867
2291	0.9807
2300	0.9717
2309	0.9624
2318	0.953
2327	0.9447
2336	0.9408
2345	0.9406
2354	0.9413
2363	0.9413
2372	0.9387
2381	0.9348
2390	0.9309
2399	0.9295
2408	0.9301
2417	0.931
2426	0.932
2435	0.933
2444	0.9339
2453	0.9348
2462	0.9361
2471	0.9377
2480	0.9392
2489	0.942
2498	0.9449
2507	0.9476
2516	0.9485
2525	0.9482
2534	0.947
2543	0.9467
2552	0.9503
2561	0.9556
2570	0.9641
2579	0.9695
2588	0.9694
2597	0.9692
2606	0.9689
2615	0.9683
2624	0.9674
2633	0.9663
2642	0.9651
2651	0.9639
2660	0.9624
2669	0.9609
2678	0.9594
2687	0.9574
2696	0.9562
2705	0.9564
2714	0.9566
2723	0.9573
2732	0.958
2741	0.9584
2750	0.9588
2759	0.9587
2768	0.9581
2777	0.9567
2786	0.9546
2795	0.9522
2804	0.9498
2813	0.9475
2822	0.9454
2831	0.9424
2840	0.9388
2849	0.9284
2858	0.899
2867	0.8686
2876	0.8629
2885	0.8728
2894	0.8886
2903	0.8953
2912	0.8934
2921	0.8852
2930	0.8794
2939	0.8752
2948	0.8724
2957	0.8708
2966	0.8701
2975	0.8693
2984	0.7864
2993	0.6591
3002	0.552
3011	0.5807
3020	0.681
3029	0.7806
3038	0.8076
3047	0.796
3056	0.7962
3065	0.7999
3074	0.8165
3083	0.8563
3092	0.9078
3101	0.9409
3110	0.9489
3119	0.9516
3128	0.9539
3137	0.9557
3146	0.9576
3155	0.9587
3164	0.9596
3173	0.9604
3182	0.9609
3191	0.9615
3200	0.9616
3209	0.9616
3218	0.9615
3227	0.9614
3236	0.9613
3245	0.9619
3254	0.9651
3263	0.9667
3272	0.9694
3281	0.9697
3290	0.9699
3299	0.9697
3308	0.9695
3317	0.9693
3326	0.9692
3335	0.969
3344	0.9689
3353	0.9688
3362	0.9687
3371	0.9686
3380	0.9685
3389	0.9684
3398	0.9682
3407	0.9679
3416	0.9677
3425	0.9674
3434	0.9673
3443	0.967
3452	0.9668
3461	0.9666
3470	0.9663
3479	0.9661
3488	0.9656
3497	0.9644
3506	0.9633
3515	0.9612
3524	0.9575
3533	0.9539
3542	0.9505
3551	0.9472
3560	0.9441
3569	0.9434
3578	0.9437
3587	0.944
3596	0.9464
3605	0.9504
3614	0.9554
3623	0.9615
3632	0.9709
3641	0.9818
3650	0.9882
3659	0.9933
3668	0.996
3677	0.9968
3686	0.9976
3695	0.9979
3704	0.9983
3713	0.9987
3722	0.999
3731	0.9994
3740	0.9997
3749	0.9997
3758	0.9997
3767	0.9998
3776	0.9998
3785	0.9999
3794	1
3803	1
3812	1.0002
3821	1.0002
3830	1.0004
3839	1.0004
3848	1.0007
3857	1.001
3866	1.0013
3875	1.0015
3884	1.0017
3893	1.0015
3902	1.0013
3911	1.0012
3920	1.0009
3929	1.0009
3938	1.001
3947	1.0011
3956	1.0013
3965	1.0013
3974	1.0014
3983	1.0015
3992	1.0016
