Infrared Spectrum: PREGNA-1,4-DIENE-3,20-DIONE, 9Alpha-FLUORO-11Beta,17Alpha,21-TRIHYDROXY-16Beta-METHYL-
Formula: C22 H29 F O5
CAS: 378-44-9
State: SOLID (KBr DISC)
Class: COBLENTZ III
Instrument: PERKIN-ELMER 21 (GRATING)
Instrument parameters: FILTER AT ABOUT 10 MICRONS
Sampling: TRANSMISSION
Resolution: 2
1/CM	TRANSMITTANCE
4000	0.98
3991	0.9798
3982	0.9798
3973	0.9799
3964	0.98
3955	0.9802
3946	0.9803
3937	0.9805
3928	0.9806
3919	0.9807
3910	0.981
3901	0.9813
3892	0.9816
3883	0.9818
3874	0.9821
3865	0.9825
3856	0.9828
3847	0.9832
3838	0.9835
3829	0.9836
3820	0.9838
3811	0.9839
3802	0.9841
3793	0.9842
3784	0.9841
3775	0.9838
3766	0.9835
3757	0.983
3748	0.9818
3739	0.9809
3730	0.9797
3721	0.9778
3712	0.9758
3703	0.9731
3694	0.9691
3685	0.9613
3676	0.9488
3667	0.9366
3658	0.9216
3649	0.8937
3640	0.8604
3631	0.8477
3622	0.8355
3613	0.8136
3604	0.7885
3595	0.7633
3586	0.7378
3577	0.7124
3568	0.6867
3559	0.661
3550	0.6351
3541	0.609
3532	0.5829
3523	0.5566
3514	0.5302
3505	0.5037
3496	0.477
3487	0.4585
3478	0.4521
3469	0.451
3460	0.4521
3451	0.4588
3442	0.468
3433	0.4781
3424	0.4941
3415	0.5162
3406	0.5431
3397	0.5758
3388	0.6087
3379	0.6418
3370	0.6751
3361	0.7085
3352	0.7419
3343	0.7717
3334	0.8025
3325	0.8156
3316	0.8249
3307	0.8335
3298	0.8421
3289	0.8502
3280	0.858
3271	0.866
3262	0.8739
3253	0.8818
3244	0.89
3235	0.898
3226	0.905
3217	0.9118
3208	0.9168
3199	0.9205
3190	0.9234
3181	0.9262
3172	0.9289
3163	0.9311
3154	0.9328
3145	0.9345
3136	0.9357
3127	0.9355
3118	0.9354
3109	0.9341
3100	0.9308
3091	0.9253
3082	0.9175
3073	0.9032
3064	0.878
3055	0.8508
3046	0.8206
3037	0.7901
3028	0.7596
3019	0.7288
3010	0.6978
3001	0.6668
2992	0.6447
2983	0.6319
2974	0.6295
2965	0.6316
2956	0.6373
2947	0.6496
2938	0.6918
2929	0.7201
2920	0.7345
2911	0.755
2902	0.7768
2893	0.8032
2884	0.8338
2875	0.8646
2866	0.8944
2857	0.9086
2848	0.9207
2839	0.9263
2830	0.9311
2821	0.9337
2812	0.9363
2803	0.9375
2794	0.9382
2785	0.9389
2776	0.9396
2767	0.9402
2758	0.9408
2749	0.9412
2740	0.9417
2731	0.9421
2722	0.9425
2713	0.9431
2704	0.9441
2695	0.9451
2686	0.9463
2677	0.9473
2668	0.948
2659	0.9486
2650	0.9492
2641	0.9509
2632	0.9532
2623	0.955
2614	0.9555
2605	0.9562
2596	0.9571
2587	0.958
2578	0.959
2569	0.96
2560	0.9609
2551	0.9617
2542	0.9621
2533	0.9625
2524	0.9631
2515	0.9637
2506	0.9642
2497	0.9647
2488	0.9652
2479	0.9656
2470	0.9659
2461	0.9662
2452	0.9666
2443	0.9668
2434	0.9673
2425	0.9675
2416	0.968
2407	0.9681
2398	0.9681
2389	0.9681
2380	0.9681
2371	0.9681
2362	0.9681
2353	0.9681
2344	0.9686
2335	0.969
2326	0.9694
2317	0.9698
2308	0.9703
2299	0.9708
2290	0.9712
2281	0.9717
2272	0.9723
2263	0.9728
2254	0.9734
2245	0.974
2236	0.9747
2227	0.9754
2218	0.9762
2209	0.9768
2200	0.9777
2191	0.9786
2182	0.9791
2173	0.9794
2164	0.9797
2155	0.98
2146	0.98
2137	0.9798
2128	0.9796
2119	0.9794
2110	0.9792
2101	0.979
2092	0.9786
2083	0.9784
2074	0.9799
2065	0.9813
2056	0.9821
2047	0.9823
2038	0.9823
2029	0.9821
2020	0.9821
2011	0.982
2002	0.982
1993	0.9818
1984	0.982
1975	0.9821
1966	0.9821
1957	0.9823
1948	0.9828
1939	0.9837
1930	0.9845
1921	0.9854
1912	0.9858
1903	0.9858
1894	0.9857
1885	0.9856
1876	0.986
1867	0.9847
1858	0.9831
1849	0.9782
1840	0.974
1831	0.97
1822	0.9686
1813	0.9668
1804	0.9639
1795	0.9578
1786	0.9446
1777	0.924
1768	0.8987
1759	0.8628
1750	0.8051
1741	0.7164
1732	0.6344
1723	0.5838
1714	0.7753
1705	0.8383
1696	0.6181
1687	0.3953
1678	0.2006
1669	0.4191
1660	0.7285
1651	0.7235
1642	0.5603
1633	0.3936
1624	0.4181
1615	0.5095
1606	0.7451
1597	0.8496
1588	0.8945
1579	0.9254
1570	0.94
1561	0.9475
1552	0.9536
1543	0.9578
1534	0.96
1525	0.9609
1516	0.9596
1507	0.9506
1498	0.9278
1489	0.893
1480	0.8244
1471	0.7295
1462	0.6543
1453	0.6918
1444	0.7021
1435	0.7211
1426	0.7067
1417	0.6851
1408	0.6691
1399	0.6948
1390	0.7381
1381	0.7411
1372	0.799
1363	0.8011
1354	0.8505
1345	0.8418
1336	0.8213
1327	0.8095
1318	0.7319
1309	0.618
1300	0.6076
1291	0.6487
1282	0.67
1273	0.674
1264	0.7044
1255	0.6915
1246	0.7274
1237	0.8006
1228	0.8357
1219	0.8316
1210	0.8471
1201	0.8561
1192	0.7971
1183	0.7932
1174	0.8188
1165	0.8491
1156	0.8228
1147	0.6876
1138	0.7917
1129	0.7541
1120	0.7542
1111	0.7655
1102	0.8033
1093	0.7239
1084	0.6105
1075	0.6307
1066	0.5787
1057	0.5271
1048	0.5398
1039	0.6508
1030	0.8025
1021	0.8312
1012	0.8185
1003	0.9078
994	0.8916
985	0.7772
976	0.804
967	0.8607
958	0.6805
949	0.8156
940	0.8397
931	0.7811
922	0.867
913	0.7006
904	0.6169
895	0.6262
886	0.62
877	0.7958
868	0.877
859	0.8957
850	0.7782
841	0.8959
832	0.8541
823	0.8986
814	0.893
805	0.9278
796	0.9286
787	0.9405
778	0.9339
769	0.9171
760	0.8933
751	0.9175
742	0.9325
733	0.9456
724	0.938
715	0.8934
706	0.8588
697	0.8843
688	0.9271
679	0.8854
