Infrared Spectrum: 3,4-Dihydro-1,2-naphthalenedicarboxylic anhydride
Formula: C 12 H 8 O 3
CAS: 37845-14-0
State: gas
Origin: EPA-IR VAPOR PHASE LIBRARY
1/CM	ABSORBANCE
551.7	0.0024842
563.274	0.0041342
574.848	0.0028242
586.421	0.0024242
597.995	0.0032042
609.569	0.0021942
621.143	0.000899
632.717	0.000973
644.291	0.0009615
655.864	0.0009023
667.438	0.0017942
679.012	0.0010283
690.586	0.0014642
702.16	0.0046942
713.734	0.0116242
725.307	0.0114242
736.881	0.0104042
748.455	0.0246342
760.029	0.0261842
771.603	0.0098742
783.177	0.0046942
794.75	0.0082942
806.324	0.0050042
817.898	0.0026842
829.472	0.0036342
841.046	0.0064342
852.619	0.0080542
864.193	0.0146642
875.767	0.0409742
887.341	0.0743842
898.915	0.0450842
910.489	0.0176042
922.062	0.0229042
933.636	0.0188542
945.21	0.0082542
956.784	0.0064442
968.358	0.0070342
979.932	0.0042342
991.505	0.0024442
1003.08	0.0034442
1014.65	0.0058442
1026.23	0.0094442
1037.8	0.0094942
1049.37	0.0043642
1060.95	0.0025942
1072.52	0.0026942
1084.1	0.0035542
1095.67	0.0104342
1107.24	0.0139042
1118.82	0.0049642
1130.39	0.0054842
1141.97	0.0053542
1153.54	0.0070242
1165.11	0.0091142
1176.69	0.0116242
1188.26	0.0172942
1199.83	0.0255242
1211.41	0.0363942
1222.98	0.0267442
1234.56	0.0195742
1246.13	0.0239142
1257.7	0.0482442
1269.28	0.0589642
1280.85	0.0343142
1292.42	0.0203842
1304	0.0100142
1315.57	0.0119942
1327.15	0.0149242
1338.72	0.0071842
1350.29	0.0039842
1361.87	0.0034842
1373.44	0.0057842
1385.02	0.0117942
1396.59	0.0067942
1408.16	0.0034442
1419.74	0.0040942
1431.31	0.0073442
1442.88	0.0109442
1454.46	0.0106642
1466.03	0.0051542
1477.61	0.0028742
1489.18	0.0025242
1500.75	0.0019042
1512.33	0.0022242
1523.9	0.0020142
1535.48	0.0017242
1547.05	0.0017642
1558.62	0.0033342
1570.2	0.0057342
1581.77	0.0033542
1593.34	0.0036842
1604.92	0.0036242
1616.49	0.0028642
1628.07	0.0034942
1639.64	0.0049342
1651.21	0.0152142
1662.79	0.0140242
1674.36	0.0038342
1685.93	0.0031642
1697.51	0.0037342
1709.08	0.0045042
1720.66	0.0054842
1732.23	0.0071642
1743.8	0.0125042
1755.38	0.0269142
1766.95	0.0664542
1778.53	0.243534
1790.1	0.302114
1801.67	0.0925942
1813.25	0.0363142
1824.82	0.0245742
1836.39	0.0391642
1847.97	0.0691442
1859.54	0.0498242
1871.12	0.0196942
1882.69	0.0090642
1894.26	0.0059342
1905.84	0.0049742
1917.41	0.0049542
1928.99	0.0052342
1940.56	0.0033942
1952.13	0.0028842
1963.71	0.0029442
1975.28	0.0023342
1986.85	0.0024242
1998.43	0.0023842
2010	0.0019842
2021.58	0.0016842
2033.15	0.0015042
2044.72	0.0012942
2056.3	0.0013442
2067.87	0.0012242
2079.44	0.0012442
2091.02	0.0013942
2102.59	0.0015442
2114.17	0.0013442
2125.74	0.0011942
2137.31	0.0012442
2148.89	0.0012942
2160.46	0.0012442
2172.04	0.0010942
2183.61	0.0009665
2195.18	0.0008681
2206.76	0.0008596
2218.33	0.0008267
2229.9	0.000644
2241.48	0.0005518
2253.05	0.0005011
2264.63	0.000481
2276.2	0.0004905
2287.77	0.000513
2299.35	0.0005959
2310.92	0.0006452
2322.5	0.0007546
2334.07	0.0005691
2345.64	0.0005174
2357.22	0.0005784
2368.79	0.0005093
2380.36	0.0004193
2391.94	0.0004413
2403.51	0.0005018
2415.09	0.0006949
2426.66	0.0008238
2438.23	0.0006227
2449.81	0.0004305
2461.38	0.0003468
2472.96	0.0003507
2484.53	0.0003976
2496.1	0.0004269
2507.68	0.0003549
2519.25	0.0003529
2530.82	0.0005278
2542.4	0.0005047
2553.97	0.0003924
2565.55	0.0003313
2577.12	0.0003279
2588.69	0.0003173
2600.27	0.000358
2611.84	0.0003454
2623.41	0.0003853
2634.99	0.0003971
2646.56	0.0004199
2658.14	0.0004223
2669.71	0.0003283
2681.28	0.0003143
2692.86	0.0002984
2704.43	0.0003606
2716.01	0.0002775
2727.58	0.0002877
2739.15	0.0003908
2750.73	0.0004241
2762.3	0.0005469
2773.87	0.0005792
2785.45	0.0004107
2797.02	0.0004019
2808.6	0.0007947
2820.17	0.0010342
2831.74	0.0018342
2843.32	0.0043042
2854.89	0.0049142
2866.47	0.0029742
2878.04	0.0027642
2889.61	0.0036942
2901.19	0.0071942
2912.76	0.0072942
2924.33	0.0035942
2935.91	0.0031142
2947.48	0.0074742
2959.06	0.0144742
2970.63	0.0072242
2982.2	0.0021942
2993.78	0.0014642
3005.35	0.0013342
3016.92	0.0019242
3028.5	0.0043242
3040.07	0.0050942
3051.65	0.0048942
3063.22	0.0092342
3074.79	0.0116942
3086.37	0.0062042
3097.94	0.0019942
3109.52	0.0011742
3121.09	0.0008684
3132.66	0.0009283
3144.24	0.0007816
3155.81	0.000504
3167.38	0.0003286
3178.96	0.0003089
3190.53	0.0002219
3202.11	0.0002061
3213.68	0.0001545
3225.25	0.0001134
3236.83	0.0002276
3248.4	0.0002029
3259.98	0.0002528
3271.55	0.0002456
3283.12	0.00010101
3294.7	0.0001456
3306.27	0.000236
3317.84	0.00012961
3329.42	0.00012049
3340.99	5.942e-05
3352.57	0.00012572
3364.14	0.00010361
3375.71	8.95e-05
3387.29	0.0001779
3398.86	7.725e-05
3410.43	0.0001549
3422.01	6.32e-05
3433.58	9.467e-05
3445.16	0.0002128
3456.73	8.93e-05
3468.3	0.00012013
3479.88	0.0001612
3491.45	0.0002676
3503.03	0.0003913
3514.6	0.000429
3526.17	0.00045
3537.75	0.0005979
3549.32	0.0009561
3560.89	0.0014142
3572.47	0.0013342
3584.04	0.0013942
3595.62	0.0019142
3607.19	0.0032342
3618.76	0.0037042
3630.34	0.0021742
3641.91	0.0011342
3653.49	0.0007082
3665.06	0.0006364
3676.63	0.0006229
3688.21	0.0007456
3699.78	0.0006898
3711.35	0.0004841
3722.93	0.0003346
3734.5	0.0003887
3746.08	0.0003171
3757.65	0.0001847
3769.22	0.0001506
3780.8	0.000222
3792.37	0.000202
3803.94	0.0001665
3815.52	0.0002487
3827.09	0.0002812
3838.67	0.0002041
3850.24	0.000212
3861.81	0.0002521
3873.39	0.0002125
3884.96	0.0001823
3896.54	0.0001553
3908.11	0.0003674
3919.68	0.0003039
3931.26	0.0002229
3942.83	0.0001857
3954.4	0.000185
3965.98	0.0002072
3977.55	0.0001787
3989.13	0.0001925
4000.7	0.0002905
