Infrared Spectrum: 2-Indanylacetic acid
Formula: C 11 H 12 O 2
CAS: 37868-26-1
State: gas
Origin: EPA-IR VAPOR PHASE LIBRARY
1/CM	ABSORBANCE
549.8	0.00334
559.445	0.00245
569.09	0.00315
578.734	0.00274
588.379	0.00298
598.024	0.00381
607.669	0.00438
617.313	0.0035
626.958	0.00499
636.603	0.00447
646.248	0.00327
655.893	0.00312
665.537	0.00268
675.182	0.00104478
684.827	0.001906
694.472	0.0019619
704.116	0.00225
713.761	0.00251
723.406	0.00408
733.051	0.00673
742.695	0.00785
752.34	0.00434
761.985	0.0018875
771.63	0.0018944
781.275	0.0014723
790.919	0.0015985
800.564	0.0018274
810.209	0.0009984
819.854	0.0012955
829.498	0.00102133
839.143	0.001422
848.788	0.0017222
858.433	0.0020271
868.078	0.00169
877.722	0.00236
887.367	0.00216
897.012	0.00215
906.657	0.0018581
916.301	0.0016198
925.946	0.0018457
935.591	0.00266
945.236	0.0016743
954.88	0.0014889
964.525	0.0010212
974.17	0.0013319
983.815	0.0018631
993.46	0.0014064
1003.1	0.00243
1012.75	0.00256
1022.39	0.0019963
1032.04	0.00336
1041.68	0.00286
1051.33	0.00243
1060.97	0.00238
1070.62	0.00301
1080.26	0.00261
1089.91	0.00528
1099.55	0.00861
1109.2	0.01375
1118.84	0.01335
1128.49	0.01078
1138.13	0.00647
1147.78	0.00492
1157.42	0.00412
1167.07	0.00301
1176.71	0.00379
1186.36	0.00367
1196	0.00359
1205.64	0.0010063
1215.29	0
1224.93	0.00275
1234.58	0.0009795
1244.22	0.00241
1253.87	0.0012835
1263.51	0.00259
1273.16	0.0018381
1282.8	0.00252
1292.45	0.00242
1302.09	0.00259
1311.74	0.00253
1321.38	0.0026
1331.03	0.0024
1340.67	0.00281
1350.32	0.00332
1359.96	0.0033
1369.61	0.00362
1379.25	0.00376
1388.9	0.00341
1398.54	0.00255
1408.18	0.00205
1417.83	0.0020058
1427.47	0.00219
1437.12	0.00252
1446.76	0.00227
1456.41	0.00269
1466.05	0.00267
1475.7	0.00315
1485.34	0.0031
1494.99	0.001905
1504.63	0.0017137
1514.28	0.0013328
1523.92	0.0014924
1533.57	0.0013182
1543.21	0.0011517
1552.86	0.00107188
1562.5	0.0012686
1572.15	0.0017481
1581.79	0.0014746
1591.44	0.001412
1601.08	0.0017204
1610.73	0.0016407
1620.37	0.0011883
1630.01	0.0012505
1639.66	0.0012196
1649.3	0.0014108
1658.95	0.00132
1668.59	0.0019053
1678.24	0.0015247
1687.88	0.0013668
1697.53	0.0018258
1707.17	0.0019083
1716.82	0.0024
1726.46	0.00299
1736.11	0.00428
1745.75	0.00608
1755.4	0.00886
1765.04	0.01339
1774.69	0.0186
1784.33	0.01587
1793.98	0.00973
1803.62	0.00598
1813.27	0.00381
1822.91	0.0024
1832.55	0.0018282
1842.2	0.0014643
1851.84	0.0015295
1861.49	0.0015527
1871.13	0.0015114
1880.78	0.0015039
1890.42	0.0015271
1900.07	0.001806
1909.71	0.0014095
1919.36	0.0014583
1929	0.0013547
1938.65	0.0014419
1948.29	0.0012803
1957.94	0.0014566
1967.58	0.0011423
1977.23	0.0013273
1986.87	0.0013368
1996.52	0.0013315
2006.16	0.0014734
2015.81	0.0013304
2025.45	0.0015193
2035.1	0.0015039
2044.74	0.0015143
2054.38	0.0012631
2064.03	0.0011876
2073.67	0.0015412
2083.32	0.001175
2092.96	0.001507
2102.61	0.0012285
2112.25	0.0015555
2121.9	0.0015209
2131.54	0.0013142
2141.19	0.0013024
2150.83	0.0013741
2160.48	0.0013371
2170.12	0.0014507
2179.77	0.0013791
2189.41	0.0012812
2199.06	0.0013017
2208.7	0.0015614
2218.35	0.0017041
2227.99	0.0011745
2237.64	0.001611
2247.28	0.0016327
2256.92	0.0013522
2266.57	0.0014908
2276.21	0.001396
2285.86	0.0015931
2295.5	0.0014608
2305.15	0.0015432
2314.79	0.0018722
2324.44	0.0016334
2334.08	0.001647
2343.73	0.0014539
2353.37	0.0015576
2363.02	0.0015399
2372.66	0.0012762
2382.31	0.001404
2391.95	0.0013841
2401.6	0.0015291
2411.24	0.0014144
2420.89	0.0014771
2430.53	0.0014754
2440.18	0.0013646
2449.82	0.0015245
2459.47	0.0015052
2469.11	0.0015822
2478.75	0.0015941
2488.4	0.0015365
2498.04	0.0016408
2507.69	0.0014997
2517.33	0.0016281
2526.98	0.0015961
2536.62	0.0014857
2546.27	0.0011621
2555.91	0.0016954
2565.56	0.0013405
2575.2	0.0012534
2584.85	0.0013096
2594.49	0.0013034
2604.14	0.0016083
2613.78	0.0013869
2623.43	0.0015403
2633.07	0.001696
2642.72	0.0018043
2652.36	0.0016498
2662.01	0.0015813
2671.65	0.0017376
2681.29	0.0015446
2690.94	0.0015525
2700.58	0.0016084
2710.23	0.0010885
2719.87	0.0016678
2729.52	0.001218
2739.16	0.001656
2748.81	0.0017853
2758.45	0.0012499
2768.1	0.0014675
2777.74	0.001557
2787.39	0.0017941
2797.03	0.001642
2806.68	0.0019146
2816.32	0.0017888
2825.97	0.0019917
2835.61	0.00216
2845.26	0.0033
2854.9	0.0035
2864.55	0.00352
2874.19	0.00284
2883.84	0.00266
2893.48	0.00328
2903.12	0.00328
2912.77	0.00387
2922.41	0.00433
2932.06	0.00511
2941.7	0.00555
2951.35	0.00582
2960.99	0.00485
2970.64	0.00325
2980.28	0.00263
2989.93	0.0019311
2999.57	0.00211
3009.22	0.00235
3018.86	0.00324
3028.51	0.00357
3038.15	0.00365
3047.8	0.00368
3057.44	0.00366
3067.09	0.00389
3076.73	0.0041
3086.38	0.00307
3096.02	0.00226
3105.67	0.0017247
3115.31	0.0018566
3124.95	0.0016797
3134.6	0.00213
3144.24	0.001367
3153.89	0.0013441
3163.53	0.0016535
3173.18	0.001726
3182.82	0.0018886
3192.47	0.00102824
3202.11	0.0014529
3211.76	0.0012507
3221.4	0.0017065
3231.05	0.002016
3240.69	0.0015324
3250.34	0.0013034
3259.98	0.0015653
3269.63	0.0014841
3279.27	0.0016048
3288.92	0.0012668
3298.56	0.001413
3308.21	0.0012459
3317.85	0.00102905
3327.49	0.0010118
3337.14	0.0016049
3346.78	0.0013483
3356.43	0.0018579
3366.07	0.00227
3375.72	0.0016757
3385.36	0.00102579
3395.01	0.0013583
3404.65	0.000914
3414.3	0.0016332
3423.94	0.00191
3433.59	0.0014549
3443.23	0.0014403
3452.88	0.0018779
3462.52	0.0014079
3472.17	0.0019648
3481.81	0.0017196
3491.46	0.001545
3501.1	0.0011516
3510.75	0.0014877
3520.39	0.0015891
3530.04	0.0013468
3539.68	0.0015024
3549.32	0.00204
3558.97	0.00338
3568.61	0.00901
3578.26	0.00841
3587.9	0.00274
3597.55	0.00204
3607.19	0.0013261
3616.84	0.00209
3626.48	0.0012568
3636.13	0.001254
3645.77	0.0019391
3655.42	0.0015784
3665.06	0.0011539
3674.71	0.0014316
3684.35	0.0014746
3694	0.00104572
3703.64	0.0016669
3713.29	0.0016323
3722.93	0.0011492
3732.58	0.0017548
3742.22	0.0020218
3751.86	0.0012906
3761.51	0.0015291
3771.15	0.0012981
3780.8	0.0017222
3790.44	0.0015786
3800.09	0.0012047
3809.73	0.000923
3819.38	0.0016398
3829.02	0.0015025
3838.67	0.0014157
3848.31	0.0018022
3857.96	0.001809
3867.6	0.00236
3877.25	0.0016803
3886.89	0.0015137
3896.54	0.001773
3906.18	0.0009343
3915.83	0.0020092
3925.47	0.0019007
3935.12	0.0015688
3944.76	0.001544
3954.41	0.0016195
3964.05	0.0017111
3973.69	0.0016685
3983.34	0.0018512
3992.98	0.00264
