Infrared Spectrum: 2,4-Dichloropropiophenone
Formula: C 9 H 8 Cl 2 O
CAS: 37885-41-9
State: gas
Origin: EPA-IR VAPOR PHASE LIBRARY
1/CM	ABSORBANCE
549.9	0.004
559.547	0.00552
569.193	0.01037
578.84	0.01047
588.486	0.0055
598.133	0.00346
607.779	0.00284
617.426	0.00245
627.072	0.0021056
636.719	0.00231
646.365	0.00238
656.012	0.00262
665.658	0.00357
675.305	0.00416
684.951	0.00313
694.598	0.00275
704.245	0.00305
713.891	0.00305
723.538	0.00285
733.184	0.00292
742.831	0.00307
752.477	0.00332
762.124	0.00399
771.77	0.00538
781.417	0.00814
791.063	0.01754
800.71	0.04318
810.356	0.06901
820.003	0.06221
829.649	0.03222
839.296	0.01184
848.943	0.00706
858.589	0.01144
868.236	0.02186
877.882	0.01334
887.529	0.0052
897.175	0.00427
906.822	0.00557
916.468	0.00934
926.115	0.0233
935.761	0.05139
945.408	0.05309
955.054	0.03328
964.701	0.0117
974.347	0.00601
983.994	0.00568
993.64	0.00771
1003.29	0.01446
1012.93	0.02239
1022.58	0.0152
1032.23	0.00872
1041.87	0.01176
1051.52	0.02187
1061.17	0.02428
1070.81	0.02179
1080.46	0.02833
1090.11	0.0367
1099.75	0.04669
1109.4	0.04943
1119.05	0.02197
1128.69	0.01263
1138.34	0.01605
1147.99	0.01203
1157.63	0.00552
1167.28	0.00588
1176.92	0.00961
1186.57	0.0174
1196.22	0.03315
1205.86	0.04919
1215.51	0.03752
1225.16	0.02081
1234.8	0.01265
1244.45	0.01245
1254.1	0.01868
1263.74	0.02026
1273.39	0.02024
1283.04	0.01566
1292.68	0.00997
1302.33	0.00861
1311.98	0.00979
1321.62	0.01234
1331.27	0.01828
1340.92	0.02687
1350.56	0.02591
1360.21	0.02637
1369.86	0.03978
1379.5	0.03745
1389.15	0.02055
1398.79	0.0115
1408.44	0.0102
1418.09	0.01188
1427.73	0.01498
1437.38	0.01959
1447.03	0.02158
1456.67	0.0296
1466.32	0.03996
1475.97	0.02403
1485.61	0.01138
1495.26	0.00715
1504.91	0.00616
1514.55	0.00676
1524.2	0.00799
1533.85	0.01045
1543.49	0.01813
1553.14	0.02565
1562.79	0.02741
1572.43	0.05143
1582.08	0.10438
1591.73	0.07154
1601.37	0.01632
1611.02	0.00845
1620.67	0.00662
1630.31	0.00617
1639.96	0.00614
1649.6	0.00664
1659.25	0.0078
1668.9	0.01097
1678.54	0.01671
1688.19	0.02593
1697.84	0.04896
1707.48	0.09847
1717.13	0.10989
1726.78	0.06147
1736.42	0.03154
1746.07	0.01707
1755.72	0.00977
1765.36	0.00621
1775.01	0.00442
1784.66	0.00318
1794.3	0.00216
1803.95	0.0017903
1813.6	0.0017211
1823.24	0.001585
1832.89	0.0012848
1842.54	0.0010624
1852.18	0.0010826
1861.83	0.0013116
1871.47	0.0015475
1881.12	0.0019107
1890.77	0.0021067
1900.41	0.0020162
1910.06	0.0016837
1919.71	0.0012607
1929.35	0.0011024
1939	0.000917
1948.65	0.000818
1958.29	0.000688
1967.94	0.000698
1977.59	0.000646
1987.23	0.000678
1996.88	0.000603
2006.53	0.00062
2016.17	0.000587
2025.82	0.000493
2035.47	0.000445
2045.11	0.000488
2054.76	0.000486
2064.41	0.000416
2074.05	0.000446
2083.7	0.000418
2093.35	0.000407
2102.99	0.000402
2112.64	0.000444
2122.28	0.000427
2131.93	0.000513
2141.58	0.000554
2151.22	0.000565
2160.87	0.0005
2170.52	0.00044
2180.16	0.000448
2189.81	0.000481
2199.46	0.000476
2209.1	0.000516
2218.75	0.000553
2228.4	0.000586
2238.04	0.000597
2247.69	0.000603
2257.34	0.000701
2266.98	0.000692
2276.63	0.000738
2286.28	0.0008
2295.92	0.000756
2305.57	0.000791
2315.22	0.000815
2324.86	0.000804
2334.51	0.000802
2344.16	0.000746
2353.8	0.000761
2363.45	0.000697
2373.09	0.000669
2382.74	0.000714
2392.39	0.000765
2402.03	0.000712
2411.68	0.000678
2421.33	0.000663
2430.97	0.000576
2440.62	0.000681
2450.27	0.000707
2459.91	0.000713
2469.56	0.000631
2479.21	0.000644
2488.85	0.00076
2498.5	0.000804
2508.15	0.001007
2517.79	0.0011145
2527.44	0.001023
2537.09	0.00086
2546.73	0.00065
2556.38	0.000541
2566.03	0.000512
2575.67	0.000458
2585.32	0.00048
2594.96	0.000533
2604.61	0.000602
2614.26	0.000758
2623.9	0.000748
2633.55	0.000906
2643.2	0.000897
2652.84	0.000783
2662.49	0.000785
2672.14	0.000831
2681.78	0.000803
2691.43	0.000838
2701.08	0.000863
2710.72	0.00092
2720.37	0.000846
2730.02	0.00082
2739.66	0.000976
2749.31	0.0010719
2758.96	0.0010936
2768.6	0.001028
2778.25	0.00115708
2787.9	0.0013264
2797.54	0.0015944
2807.19	0.001746
2816.84	0.0020554
2826.48	0.00233
2836.13	0.00234
2845.77	0.00269
2855.42	0.00314
2865.07	0.00388
2874.71	0.00561
2884.36	0.0097
2894.01	0.01299
2903.65	0.01206
2913.3	0.01226
2922.95	0.01245
2932.59	0.01287
2942.24	0.01932
2951.89	0.02564
2961.53	0.01779
2971.18	0.0178
2980.83	0.02599
2990.47	0.02786
3000.12	0.01706
3009.77	0.00997
3019.41	0.00665
3029.06	0.00469
3038.71	0.00368
3048.35	0.00319
3058	0.00318
3067.64	0.00366
3077.29	0.00382
3086.94	0.00302
3096.58	0.00243
3106.23	0.0019275
3115.88	0.00123285
3125.52	0.00113137
3135.17	0.00119453
3144.82	0.000935
3154.46	0.000813
3164.11	0.000849
3173.76	0.000844
3183.4	0.000677
3193.05	0.000591
3202.7	0.000378
3212.34	0.000314
3221.99	0.000371
3231.64	0.000504
3241.28	8e-05
3250.93	0.000384
3260.58	0.000322
3270.22	0.00032
3279.87	5e-05
3289.52	0.000379
3299.16	0.000473
3308.81	0.000262
3318.45	0.000342
3328.1	0.000212
3337.75	0.000409
3347.39	0.000424
3357.04	0.000691
3366.69	0.000844
3376.33	0.0010664
3385.98	0.0011168
3395.63	0.0016144
3405.27	0.0019735
3414.92	0.00185
3424.57	0.0016798
3434.21	0.001007
3443.86	0.000787
3453.51	0.000762
3463.15	0.000803
3472.8	0.00051
3482.45	0.000428
3492.09	0.000645
3501.74	0.000652
3511.39	0.000147
3521.03	0.00057
3530.68	0.000332
3540.33	0.00042
3549.97	0.000416
3559.62	0.000551
3569.26	0.000445
3578.91	0.000516
3588.56	0.000526
3598.2	0.000526
3607.85	0.000532
3617.5	0.000562
3627.14	0.000386
3636.79	0.00064
3646.44	0.000614
3656.08	0.000684
3665.73	0.000476
3675.38	0.000704
3685.02	0.000751
3694.67	0.000901
3704.32	0.000663
3713.96	0.000662
3723.61	0.000815
3733.26	0.000699
3742.9	0.000683
3752.55	0.000752
3762.2	0.000978
3771.84	0.000893
3781.49	0.000743
3791.13	0.000767
3800.78	0.000674
3810.43	0.000822
3820.07	0.00068
3829.72	0.00072
3839.37	0.000737
3849.01	0.000778
3858.66	0.000813
3868.31	0.000839
3877.95	0.000851
3887.6	0.001027
3897.25	0.000961
3906.89	0.000919
3916.54	0.0010881
3926.19	0.00079
3935.83	0.000826
3945.48	0.000803
3955.13	0.0010581
3964.77	0.000898
3974.42	0.0010866
3984.07	0.001031
3993.71	0.0010496
