Infrared Spectrum: 9-n-DODECYL-PHENANTHRENE
Formula: C26 H34
CAS: 3788-61-2
State: SOLUTION (50 g/L IN HEPTANE)
Class: COBLENTZ
Instrument: Not specified, most likely a prism, grating, or hybrid spectrometer.
Sampling: TRANSMISSION
Path length: 0.01 CM
Resolution: 4
Origin: CENTRE D'ETUDES NUCLEAIRES DE GRENOBLE
MICROMETERS	TRANSMITTANCE
1.99	0.642
2.03012	0.648
2.07025	0.652
2.11037	0.653
2.1505	0.657
2.19062	0.658
2.23075	0.663
2.27087	0.67
2.311	0.673
2.35112	0.667
2.39125	0.667
2.43137	0.67
2.4715	0.672
2.51162	0.677
2.55174	0.683
2.59187	0.692
2.63199	0.693
2.67212	0.693
2.71224	0.693
2.75237	0.697
2.79249	0.698
2.83262	0.702
2.87274	0.705
2.91287	0.709
2.95299	0.709
2.99312	0.712
3.03324	0.715
3.07336	0.719
3.11349	0.72
3.15361	0.719
3.19374	0.715
3.23386	0.705
3.27399	0.668
3.31411	0.605
3.35424	0.61
3.39436	0.608
3.43449	0.598
3.47461	0.583
3.51473	0.565
3.55486	0.536
3.59498	0.551
3.63511	0.658
3.67523	0.757
3.71536	0.774
3.75548	0.775
3.79561	0.777
3.83573	0.782
3.87586	0.787
3.91598	0.792
3.95611	0.795
3.99623	0.797
4.03635	0.799
4.07648	0.802
4.1166	0.804
4.15673	0.809
4.19685	0.811
4.23698	0.817
4.2771	0.812
4.31723	0.804
4.35735	0.799
4.39748	0.802
4.4376	0.816
4.47773	0.819
4.51785	0.819
4.55797	0.821
4.5981	0.821
4.63822	0.822
4.67835	0.824
4.71847	0.824
4.7586	0.824
4.79872	0.826
4.83885	0.827
4.87897	0.831
4.9191	0.832
4.95922	0.832
4.99935	0.832
5.03947	0.834
5.07959	0.837
5.11972	0.839
5.15984	0.837
5.19997	0.824
5.24009	0.821
5.28022	0.822
5.32034	0.826
5.36047	0.831
5.40059	0.836
5.44072	0.842
5.48084	0.846
5.52097	0.844
5.56109	0.841
5.60121	0.837
5.64134	0.834
5.68146	0.834
5.72159	0.837
5.76171	0.839
5.80184	0.839
5.84196	0.837
5.88209	0.834
5.92221	0.832
5.96234	0.832
6.00246	0.837
6.04258	0.844
6.08271	0.849
6.12283	0.844
6.16296	0.834
6.20308	0.809
6.24321	0.817
6.28333	0.811
6.32346	0.822
6.36358	0.839
6.40371	0.847
6.44383	0.846
6.48396	0.844
6.52408	0.839
6.5642	0.832
6.60433	0.816
6.64445	0.819
6.68458	0.824
6.7247	0.785
6.76483	0.752
6.80495	0.762
6.84508	0.767
6.8852	0.767
6.92533	0.762
6.96545	0.754
7.00558	0.73
7.0457	0.719
7.08582	0.754
7.12595	0.801
7.16607	0.826
7.2062	0.826
7.24632	0.822
7.28645	0.821
7.32657	0.807
7.3667	0.794
7.40682	0.806
7.44695	0.821
7.48707	0.832
7.5272	0.826
7.56732	0.837
7.60744	0.844
7.64757	0.852
7.68769	0.846
7.72782	0.839
7.76794	0.842
7.80807	0.851
7.84819	0.856
7.88832	0.857
7.92844	0.861
7.96857	0.864
8.00869	0.862
8.04882	0.849
8.08894	0.832
8.12906	0.864
8.16919	0.871
8.20931	0.866
8.24944	0.856
8.28956	0.852
8.32969	0.849
8.36981	0.867
8.40994	0.876
8.45006	0.881
8.49019	0.881
8.53031	0.877
8.57043	0.869
8.61056	0.859
8.65068	0.874
8.69081	0.874
8.73093	0.864
8.77106	0.859
8.81118	0.874
8.85131	0.877
8.89143	0.872
8.93156	0.869
8.97168	0.872
9.01181	0.871
9.05193	0.874
9.09205	0.874
9.13218	0.876
9.1723	0.869
9.21243	0.871
9.25255	0.872
9.29268	0.874
9.3328	0.874
9.37293	0.874
9.41305	0.876
9.45318	0.877
9.4933	0.877
9.53343	0.869
9.57355	0.852
9.61367	0.829
9.6538	0.824
9.69392	0.851
9.73405	0.872
9.77417	0.877
9.8143	0.891
9.85442	0.897
9.89455	0.892
9.93467	0.887
9.9748	0.862
10.0149	0.872
10.055	0.879
10.0952	0.882
10.1353	0.886
10.1754	0.892
10.2155	0.896
10.2557	0.889
10.2958	0.881
10.3359	0.861
10.376	0.849
10.4162	0.856
10.4563	0.876
10.4964	0.889
10.5365	0.881
10.5767	0.857
10.6168	0.832
10.6569	0.886
10.697	0.896
10.7372	0.903
10.7773	0.906
10.8174	0.909
10.8575	0.908
10.8977	0.906
10.9378	0.906
10.9779	0.906
11.018	0.908
11.0582	0.908
11.0983	0.906
11.1384	0.891
11.1785	0.866
11.2187	0.822
11.2588	0.795
11.2989	0.78
11.339	0.787
11.3792	0.814
11.4193	0.857
11.4594	0.882
11.4995	0.896
11.5397	0.897
11.5798	0.891
11.6199	0.877
11.66	0.894
11.7002	0.904
11.7403	0.909
11.7804	0.899
11.8205	0.874
11.8607	0.877
11.9008	0.889
11.9409	0.897
11.981	0.901
12.0212	0.904
12.0613	0.906
12.1014	0.908
12.1415	0.908
12.1816	0.904
12.2218	0.896
12.2619	0.894
12.302	0.903
12.3421	0.906
12.3823	0.899
12.4224	0.896
12.4625	0.897
12.5026	0.899
12.5428	0.896
12.5829	0.894
12.623	0.887
12.6631	0.876
12.7033	0.852
12.7434	0.861
12.7835	0.877
12.8236	0.887
12.8638	0.889
12.9039	0.889
12.944	0.879
12.9841	0.872
13.0243	0.856
13.0644	0.827
13.1045	0.735
13.1446	0.625
13.1848	0.633
13.2249	0.724
13.265	0.779
13.3051	0.795
13.3453	0.792
13.3854	0.725
13.4255	0.573
13.4656	0.332
13.5058	0.346
13.5459	0.483
13.586	0.588
13.6261	0.65
13.6663	0.685
13.7064	0.709
13.7465	0.717
13.7866	0.702
13.8268	0.675
13.8669	0.662
13.907	0.658
13.9471	0.688
13.9873	0.75
14.0274	0.787
14.0675	0.822
14.1076	0.847
14.1478	0.864
14.1879	0.874
14.228	0.894
14.2681	0.904
14.3083	0.906
14.3484	0.909
14.3885	0.913
14.4286	0.918
14.4688	0.921
14.5089	0.924
14.549	0.926
14.5891	0.928
14.6292	0.928
14.6694	0.928
14.7095	0.928
14.7496	0.928
14.7897	0.928
14.8299	0.929
14.87	0.929
14.9101	0.933
14.9502	0.933
14.9904	0.933
15.0305	0.929
15.0706	0.931
15.1107	0.939
15.1509	0.943
15.191	0.939
15.2311	0.938
15.2712	0.933
15.3114	0.929
15.3515	0.931
15.3916	0.936
15.4317	0.943
15.4719	0.941
15.512	0.939
15.5521	0.939
15.5922	0.943
15.6324	0.943
15.6725	0.939
15.7126	0.939
15.7527	0.941
15.7929	0.943
15.833	0.944
15.8731	0.938
