Infrared Spectrum: Isobutylcyclopentane
Formula: C 9 H 18
CAS: 3788-32-7
State: gas
Instrument: HP-GC/MS/IRD
Origin: NIST Mass Spectrometry Data Center
1/CM	ABSORBANCE
550	0.0002212
562	6.16e-05
574	8.12e-05
586	3.08e-05
598	0.0001652
610	0.000168
622	0.0002072
634	0.0001288
646	0.0001428
658	0.0001792
670	0.0001484
682	0.000196
694	0.0002044
706	0.0002156
718	0.0002044
730	0.0002016
742	0.0001904
754	0.0001876
766	0.000252
778	0.0002016
790	0.000238
802	0.0002744
814	0.000336
826	0.000322
838	0.0002464
850	0.0002828
862	0.0003248
874	0.0003108
886	0.000434
898	0.0004088
910	0.0004284
922	0.0004536
934	0.0005096
946	0.0004592
958	0.000364
970	0.0002884
982	0.0002128
994	0.0001456
1006	0.0001876
1018	0.00021
1030	0.0002212
1042	0.0002688
1054	0.0003388
1066	0.0004004
1078	0.0004536
1090	0.0004228
1102	0.0004816
1114	0.0004788
1126	0.0005264
1138	0.0005404
1150	0.00063
1162	0.000812
1174	0.0007896
1186	0.0005096
1198	0.0004228
1210	0.0003668
1222	0.0004256
1234	0.0005656
1246	0.0005404
1258	0.0005236
1270	0.000476
1282	0.0005348
1294	0.000532
1306	0.0005684
1318	0.0005852
1330	0.0007364
1342	0.0006524
1354	0.001022
1366	0.0013888
1378	0.0016576
1390	0.001372
1402	0.0008204
1414	0.0005964
1426	0.0007084
1438	0.0009912
1450	0.001722
1462	0.0021364
1474	0.0018592
1486	0.0012236
1498	0.000644
1510	0.0001288
1522	0.000154
1534	0.0002772
1546	0.0001876
1558	7.84e-05
1570	0.0003276
1582	0.0003976
1594	0.0003696
1606	0.0003416
1618	0.000266
1630	0.0002996
1642	0.0002492
1654	8.12e-05
1666	0.0002184
1678	0.0001624
1690	0.0001904
1702	2.8e-05
1714	0.0001064
1726	0.0002212
1738	8.68e-05
1750	4.2e-05
1762	0.0001596
1774	0.000154
1786	0.0001456
1798	0.0001456
1810	0.0001736
1822	0.0001624
1834	0.0001736
1846	0.0001176
1858	0.00021
1870	0.00014
1882	0.0002156
1894	0.0001932
1906	0.000196
1918	0.0001484
1930	0.000196
1942	0.0001484
1954	0.0001876
1966	0.0001624
1978	0.0001652
1990	0.0001316
2002	0.0001708
2014	0.00014
2026	0.0001512
2038	0.0001484
2050	0.00014
2062	0.000126
2074	0.000126
2086	0.0001372
2098	0.0001232
2110	0.0001344
2122	0.0001344
2134	9.52e-05
2146	0.0001344
2158	0.0001176
2170	0.0001064
2182	0.0001232
2194	0.0001176
2206	0.0001092
2218	0.0001008
2230	7.56e-05
2242	7.56e-05
2254	5.6e-05
2266	6.16e-05
2278	5.32e-05
2290	5.32e-05
2302	5.88e-05
2314	1.68e-05
2326	4.2e-05
2338	6.44e-05
2350	3.64e-05
2362	8.68e-05
2374	4.2e-05
2386	3.92e-05
2398	7.28e-05
2410	6.16e-05
2422	5.88e-05
2434	3.08e-05
2446	4.48e-05
2458	5.88e-05
2470	7.56e-05
2482	7e-05
2494	6.44e-05
2506	6.16e-05
2518	7.84e-05
2530	7.56e-05
2542	7.84e-05
2554	0.0001316
2566	0.0001176
2578	0.000154
2590	0.0001708
2602	0.0002156
2614	0.0002072
2626	0.00021
2638	0.00021
2650	0.0001764
2662	0.0002128
2674	0.0002352
2686	0.0002464
2698	0.0002296
2710	0.0002548
2722	0.000364
2734	0.0004116
2746	0.0004256
2758	0.0004228
2770	0.0004732
2782	0.0005656
2794	0.0006888
2806	0.0008764
2818	0.001204
2830	0.0018564
2842	0.0030996
2854	0.004676
2866	0.0073976
2878	0.0103936
2890	0.0106204
2902	0.011984
2914	0.0135268
2926	0.0140448
2938	0.0168112
2950	0.0231784
2962	0.028
2974	0.017556
2986	0.0064456
2998	0.0030268
3010	0.0017808
3022	0.001176
3034	0.0007896
3046	0.0006272
3058	0.0005432
3070	0.0004564
3082	0.000392
3094	0.000364
3106	0.00035
3118	0.0003164
3130	0.0003164
3142	0.00028
3154	0.0002548
3166	0.0002856
3178	0.0003024
3190	0.000266
3202	0.000238
3214	0.0002296
3226	0.0001596
3238	9.8e-05
3250	0.0001512
3262	0.0001484
3274	0.0001288
3286	0.0001372
3298	0.0001344
3310	0.0001484
3322	0.0001232
3334	0.000168
3346	0.0001848
3358	0.0001708
3370	0.0001932
3382	0.0002128
3394	0.0001932
3406	0.0002016
3418	0.0002016
3430	0.0001484
3442	0.0001596
3454	0.0001512
3466	0.0001708
3478	0.0001512
3490	0.0001568
3502	0.0001232
3514	0.0002128
3526	0.0001232
3538	0.0001792
3550	0.0001372
3562	0.0001568
3574	0.0002212
3586	3.08e-05
3598	0.0001512
3610	3.36e-05
3622	0.0001764
3634	0.0001596
3646	6.16e-05
3658	0.00021
3670	0.0001148
3682	0.0002688
3694	0.0002268
3706	0.0002128
3718	0.0001736
3730	0.0001148
3742	8.4e-05
3754	0.00014
3766	0.00028
3778	0.0003136
3790	0.000364
3802	0.0002912
3814	0.0003444
3826	0.000336
3838	0.0002464
