Infrared Spectrum: 2,4-BIS(PHENYLAZO) RESORCINOL
Formula: C18 H14 N4 O2
CAS: 3789-74-0
State: SOLID (MINERAL OIL MULL)
Melting point: 224 C DECOMPOSES
Class: COBLENTZ
Instrument: Not specified, most likely a prism, grating, or hybrid spectrometer.
Sampling: TRANSMISSION
Resolution: 4
Origin: WYANDOTTE CHEMICALS CORP., WYANDOTTE, MICHIGAN, USA
MICROMETERS	TRANSMITTANCE
2.034	0.337
2.0749	0.349
2.11579	0.361
2.15669	0.369
2.19759	0.373
2.23848	0.385
2.27938	0.395
2.32028	0.404
2.36118	0.419
2.40207	0.429
2.44297	0.438
2.48387	0.448
2.52476	0.457
2.56566	0.472
2.60656	0.486
2.64745	0.498
2.68835	0.503
2.72925	0.505
2.77015	0.505
2.81104	0.503
2.85194	0.503
2.89284	0.501
2.93373	0.503
2.97463	0.506
3.01553	0.513
3.05642	0.515
3.09732	0.518
3.13822	0.508
3.17912	0.494
3.22001	0.489
3.26091	0.448
3.30181	0.386
3.3427	0.118
3.3836	0.03
3.4245	0.034
3.46539	0.054
3.50629	0.106
3.54719	0.46
3.58808	0.561
3.62898	0.599
3.66988	0.604
3.71078	0.611
3.75167	0.628
3.79257	0.648
3.83347	0.657
3.87436	0.671
3.91526	0.7
3.95616	0.708
3.99705	0.72
4.03795	0.722
4.07885	0.727
4.11975	0.738
4.16064	0.739
4.20154	0.748
4.24244	0.738
4.28333	0.751
4.32423	0.775
4.36513	0.801
4.40602	0.813
4.44692	0.811
4.48782	0.811
4.52872	0.816
4.56961	0.823
4.61051	0.83
4.65141	0.839
4.6923	0.847
4.7332	0.852
4.7741	0.857
4.81499	0.868
4.85589	0.876
4.89679	0.881
4.93769	0.885
4.97858	0.886
5.01948	0.892
5.06038	0.904
5.10127	0.907
5.14217	0.904
5.18307	0.909
5.22396	0.909
5.26486	0.929
5.30576	0.929
5.34665	0.931
5.38755	0.933
5.42845	0.929
5.46935	0.945
5.51024	0.95
5.55114	0.941
5.59204	0.928
5.63293	0.926
5.67383	0.94
5.71473	0.933
5.75562	0.931
5.79652	0.921
5.83742	0.933
5.87832	0.953
5.91921	0.933
5.96011	0.931
6.00101	0.912
6.0419	0.881
6.0828	0.863
6.1237	0.589
6.16459	0.321
6.20549	0.498
6.24639	0.289
6.28729	0.563
6.32818	0.722
6.36908	0.64
6.40998	0.7
6.45087	0.63
6.49177	0.412
6.53267	0.297
6.57356	0.325
6.61446	0.289
6.65536	0.094
6.69625	0.049
6.73715	0.054
6.77805	0.099
6.81895	0.071
6.85984	0.056
6.90074	0.171
6.94164	0.309
6.98253	0.375
7.02343	0.354
7.06433	0.227
7.10522	0.349
7.14612	0.529
7.18702	0.546
7.22792	0.381
7.26881	0.383
7.30971	0.484
7.35061	0.493
7.3915	0.517
7.4324	0.577
7.4733	0.52
7.51419	0.375
7.55509	0.308
7.59599	0.243
7.63689	0.393
7.67778	0.446
7.71868	0.506
7.75958	0.602
7.80047	0.647
7.84137	0.613
7.88227	0.558
7.92316	0.52
7.96406	0.429
8.00496	0.383
8.04585	0.539
8.08675	0.597
8.12765	0.553
8.16855	0.385
8.20944	0.212
8.25034	0.126
8.29124	0.261
8.33213	0.443
8.37303	0.508
8.41393	0.565
8.45482	0.525
8.49572	0.448
8.53662	0.573
8.57752	0.558
8.61841	0.5
8.65931	0.532
8.70021	0.587
8.7411	0.618
8.782	0.648
8.8229	0.664
8.86379	0.662
8.90469	0.659
8.94559	0.652
8.98649	0.611
9.02738	0.611
9.06828	0.595
9.10918	0.647
9.15007	0.676
9.19097	0.696
9.23187	0.693
9.27276	0.638
9.31366	0.625
9.35456	0.695
9.39546	0.732
9.43635	0.75
9.47725	0.773
9.51815	0.787
9.55904	0.787
9.59994	0.782
9.64084	0.784
9.68173	0.796
9.72263	0.782
9.76353	0.785
9.80442	0.809
9.84532	0.816
9.88622	0.808
9.92712	0.751
9.96801	0.602
10.0089	0.428
10.0498	0.417
10.0907	0.638
10.1316	0.739
10.1725	0.779
10.2134	0.801
10.2543	0.808
10.2952	0.811
10.3361	0.801
10.377	0.799
10.4179	0.827
10.4588	0.857
10.4997	0.866
10.5406	0.863
10.5815	0.868
10.6224	0.864
10.6633	0.868
10.7042	0.868
10.7451	0.869
10.786	0.869
10.8268	0.871
10.8677	0.869
10.9086	0.868
10.9495	0.871
10.9904	0.88
11.0313	0.868
11.0722	0.806
11.1131	0.705
11.154	0.758
11.1949	0.678
11.2358	0.693
11.2767	0.758
11.3176	0.763
11.3585	0.743
11.3994	0.702
11.4403	0.642
11.4812	0.565
11.5221	0.496
11.563	0.465
11.6039	0.472
11.6448	0.501
11.6857	0.542
11.7266	0.583
11.7675	0.595
11.8084	0.604
11.8493	0.647
11.8902	0.703
11.9311	0.743
11.972	0.768
12.0129	0.765
12.0538	0.72
12.0947	0.583
12.1356	0.39
12.1764	0.59
12.2173	0.729
12.2582	0.765
12.2991	0.76
12.34	0.746
12.3809	0.743
12.4218	0.813
12.4627	0.864
12.5036	0.902
12.5445	0.921
12.5854	0.928
12.6263	0.919
12.6672	0.914
12.7081	0.892
12.749	0.851
12.7899	0.792
12.8308	0.717
12.8717	0.643
12.9126	0.592
12.9535	0.594
12.9944	0.631
13.0353	0.686
13.0762	0.712
13.1171	0.691
13.158	0.551
13.1989	0.301
13.2398	0.123
13.2807	0.123
13.3216	0.277
13.3625	0.45
13.4034	0.571
13.4443	0.657
13.4852	0.705
13.526	0.732
13.5669	0.75
13.6078	0.767
13.6487	0.768
13.6896	0.782
13.7305	0.785
13.7714	0.782
13.8123	0.775
13.8532	0.768
13.8941	0.76
13.935	0.763
13.9759	0.744
14.0168	0.734
14.0577	0.782
14.0986	0.845
14.1395	0.876
14.1804	0.895
14.2213	0.909
14.2622	0.914
14.3031	0.916
14.344	0.917
14.3849	0.916
14.4258	0.909
14.4667	0.881
14.5076	0.868
14.5485	0.82
14.5894	0.77
14.6303	0.683
14.6712	0.59
14.7121	0.5
14.753	0.438
14.7939	0.45
14.8348	0.568
14.8756	0.674
14.9165	0.736
14.9574	0.753
14.9983	0.731
15.0392	0.683
15.0801	0.631
15.121	0.638
15.1619	0.666
15.2028	0.676
15.2437	0.654
15.2846	0.618
15.3255	0.614
15.3664	0.636
15.4073	0.669
15.4482	0.688
15.4891	0.698
15.53	0.702
15.5709	0.7
15.6118	0.698
15.6527	0.683
15.6936	0.662
15.7345	0.652
15.7754	0.642
15.8163	0.626
15.8572	0.613
15.8981	0.599
15.939	0.583
15.9799	0.57
