Infrared Spectrum: 4,5-Dibromoveratrole
Formula: C 8 H 8 Br 2 O 2
CAS: 37895-73-1
State: gas
Origin: EPA-IR VAPOR PHASE LIBRARY
1/CM	ABSORBANCE
549.9	0.00475
559.547	0.00426
569.193	0.003867
578.84	0.0036773
588.486	0.0037335
598.133	0.00482
607.779	0.00618
617.426	0.00735
627.072	0.00945
636.719	0.01558
646.365	0.03433
656.012	0.02649
665.658	0.0088
675.305	0.00446
684.951	0.0031839
694.598	0.0030462
704.245	0.002925
713.891	0.00317224
723.538	0.0034577
733.184	0.0044
742.831	0.00651
752.477	0.01098
762.124	0.02196
771.77	0.03298
781.417	0.0227
791.063	0.01286
800.71	0.0081
810.356	0.00645
820.003	0.00603
829.649	0.00817
839.296	0.01348
848.943	0.0173
858.589	0.0168
868.236	0.02415
877.882	0.03673
887.529	0.03798
897.175	0.02219
906.822	0.00827
916.468	0.00511
926.115	0.00447
935.761	0.0046
945.408	0.00531
955.054	0.00634
964.701	0.00762
974.347	0.00965
983.994	0.01383
993.64	0.02205
1003.29	0.0393
1012.93	0.07508
1022.58	0.10531
1032.23	0.08022
1041.87	0.04812
1051.52	0.0215
1061.17	0.01273
1070.81	0.01016
1080.46	0.00944
1090.11	0.01201
1099.75	0.02454
1109.4	0.03549
1119.05	0.02278
1128.69	0.016
1138.34	0.01844
1147.99	0.03153
1157.63	0.06016
1167.28	0.08641
1176.92	0.08429
1186.57	0.0681
1196.22	0.08391
1205.86	0.12679
1215.51	0.10779
1225.16	0.06494
1234.8	0.08062
1244.45	0.13434
1254.1	0.14302
1263.74	0.10829
1273.39	0.09877
1283.04	0.09002
1292.68	0.07568
1302.33	0.0509
1311.98	0.0318
1321.62	0.02492
1331.27	0.03022
1340.92	0.07368
1350.56	0.09062
1360.21	0.03098
1369.86	0.0146
1379.5	0.01238
1389.15	0.01291
1398.79	0.01534
1408.44	0.02063
1418.09	0.03526
1427.73	0.07826
1437.38	0.127
1447.03	0.08768
1456.67	0.07299
1466.32	0.11533
1475.97	0.19234
1485.61	0.25004
1495.26	0.19859
1504.91	0.11473
1514.55	0.05167
1524.2	0.02875
1533.85	0.02182
1543.49	0.02232
1553.14	0.02935
1562.79	0.02819
1572.43	0.01978
1582.08	0.02402
1591.73	0.02083
1601.37	0.01155
1611.02	0.00811
1620.67	0.00695
1630.31	0.00618
1639.96	0.00558
1649.6	0.00527
1659.25	0.00533
1668.9	0.00543
1678.54	0.00499
1688.19	0.0040795
1697.84	0.0037376
1707.48	0.0037141
1717.13	0.0038864
1726.78	0.0039964
1736.42	0.00442
1746.07	0.00491
1755.72	0.00482
1765.36	0.00428
1775.01	0.0040435
1784.66	0.003883
1794.3	0.0037902
1803.95	0.0036256
1813.6	0.0035172
1823.24	0.0032193
1832.89	0.0029852
1842.54	0.00286
1852.18	0.002789
1861.83	0.002765
1871.47	0.002731
1881.12	0.002909
1890.77	0.003257
1900.41	0.0035397
1910.06	0.0036569
1919.71	0.0035234
1929.35	0.00313707
1939	0.002845
1948.65	0.002742
1958.29	0.00278
1967.94	0.002944
1977.59	0.00312378
1987.23	0.0033178
1996.88	0.0036867
2006.53	0.00431
2016.17	0.00533
2025.82	0.00648
2035.47	0.00687
2045.11	0.00616
2054.76	0.00574
2064.41	0.00547
2074.05	0.00479
2083.7	0.0039213
2093.35	0.0034569
2102.99	0.00308483
2112.64	0.002667
2122.28	0.002521
2131.93	0.002334
2141.58	0.002321
2151.22	0.002282
2160.87	0.002331
2170.52	0.002456
2180.16	0.002508
2189.81	0.002545
2199.46	0.002635
2209.1	0.002672
2218.75	0.002799
2228.4	0.0030065
2238.04	0.0031902
2247.69	0.0030625
2257.34	0.002962
2266.98	0.002925
2276.63	0.002814
2286.28	0.002643
2295.92	0.002449
2305.57	0.002287
2315.22	0.002286
2324.86	0.002313
2334.51	0.002313
2344.16	0.002282
2353.8	0.002305
2363.45	0.002388
2373.09	0.002299
2382.74	0.0023
2392.39	0.002139
2402.03	0.002229
2411.68	0.002218
2421.33	0.00232
2430.97	0.00243
2440.62	0.002439
2450.27	0.00274
2459.91	0.002966
2469.56	0.00310147
2479.21	0.0030047
2488.85	0.002759
2498.5	0.002769
2508.15	0.0030029
2517.79	0.0032612
2527.44	0.0036957
2537.09	0.00426
2546.73	0.0045
2556.38	0.00425
2566.03	0.0034773
2575.67	0.002816
2585.32	0.002469
2594.96	0.002335
2604.61	0.002344
2614.26	0.002314
2623.9	0.002335
2633.55	0.002352
2643.2	0.00242
2652.84	0.002344
2662.49	0.00216
2672.14	0.002233
2681.78	0.002428
2691.43	0.002663
2701.08	0.002518
2710.72	0.002344
2720.37	0.002375
2730.02	0.002509
2739.66	0.002764
2749.31	0.002751
2758.96	0.002872
2768.6	0.0031364
2778.25	0.0037353
2787.9	0.00442
2797.54	0.00533
2807.19	0.00646
2816.84	0.00849
2826.48	0.01227
2836.13	0.02347
2845.77	0.04181
2855.42	0.02862
2865.07	0.01638
2874.71	0.01464
2884.36	0.01599
2894.01	0.01908
2903.65	0.02361
2913.3	0.02842
2922.95	0.03076
2932.59	0.03693
2942.24	0.06084
2951.89	0.06265
2961.53	0.04726
2971.18	0.0376
2980.83	0.02842
2990.47	0.02592
3000.12	0.03268
3009.77	0.04535
3019.41	0.03147
3029.06	0.01464
3038.71	0.00956
3048.35	0.00739
3058	0.00632
3067.64	0.00581
3077.29	0.00654
3086.94	0.00569
3096.58	0.00433
3106.23	0.0033866
3115.88	0.002622
3125.52	0.00232
3135.17	0.00196
3144.82	0.0017
3154.46	0.00143
3164.11	0.0012
3173.76	0.00088
3183.4	0.00068
3193.05	0.00069
3202.7	0.00069
3212.34	0.00039
3221.99	0.00026
3231.64	0.00011
3241.28	0.00028
3250.93	0.0002
3260.58	0.00016
3270.22	0.00017
3279.87	4e-05
3289.52	0
3299.16	0.00019
3308.81	0.00017
3318.45	0.00023
3328.1	0.00028
3337.75	0.00018
3347.39	0.00018
3357.04	0.00016
3366.69	0.00032
3376.33	0.00017
3385.98	0.0003
3395.63	0.00037
3405.27	0.00028
3414.92	0.00034
3424.57	0.00038
3434.21	0.00043
3443.86	0.00057
3453.51	0.00053
3463.15	0.0007
3472.8	0.00065
3482.45	0.00063
3492.09	0.00061
3501.74	0.00089
3511.39	0.00075
3521.03	0.00073
3530.68	0.00079
3540.33	0.00091
3549.97	0.00091
3559.62	0.00096
3569.26	0.00079
3578.91	0.00073
3588.56	0.00089
3598.2	0.00098
3607.85	0.00095
3617.5	0.00116
3627.14	0.00102
3636.79	0.00109
3646.44	0.00119
3656.08	0.00101
3665.73	0.00101
3675.38	0.00114
3685.02	0.00121
3694.67	0.00127
3704.32	0.00127
3713.96	0.00127
3723.61	0.00138
3733.26	0.00145
3742.9	0.00152
3752.55	0.00143
3762.2	0.00137
3771.84	0.00139
3781.49	0.00135
3791.13	0.0013
3800.78	0.00128
3810.43	0.00137
3820.07	0.00144
3829.72	0.00146
3839.37	0.00149
3849.01	0.0014
3858.66	0.00151
3868.31	0.00166
3877.95	0.00173
3887.6	0.00144
3897.25	0.00151
3906.89	0.0014
3916.54	0.00145
3926.19	0.00156
3935.83	0.00145
3945.48	0.00174
3955.13	0.00197
3964.77	0.002
3974.42	0.00206
3984.07	0.00187
3993.71	0.00186
