Infrared Spectrum: Triphenylfluorosilane
Formula: C 18 H 15 F Si
CAS: 379-50-0
State: gas
Origin: EPA-IR VAPOR PHASE LIBRARY
1/CM	ABSORBANCE
549.8	0.01058
559.445	0.0083
569.09	0.00527
578.734	0.00448
588.379	0.00427
598.024	0.00391
607.669	0.00439
617.313	0.00475
626.958	0.00451
636.603	0.00484
646.248	0.00682
655.893	0.01168
665.537	0.023
675.182	0.04676
684.827	0.08426
694.472	0.17866
704.116	0.21654
713.761	0.43319
723.406	0.20731
733.051	0.09534
742.695	0.05886
752.34	0.03074
761.985	0.01826
771.63	0.01448
781.275	0.01016
790.919	0.00631
800.564	0.00507
810.209	0.00509
819.854	0.00661
829.498	0.01371
839.143	0.04766
848.788	0.1248
858.433	0.21183
868.078	0.08847
877.722	0.01939
887.367	0.0074
897.012	0.00547
906.657	0.00577
916.301	0.00516
925.946	0.00318
935.591	0.00309
945.236	0.00396
954.88	0.00515
964.525	0.00526
974.17	0.00477
983.815	0.00539
993.46	0.0156
1003.1	0.01382
1012.75	0.00411
1022.39	0.00579
1032.04	0.00889
1041.68	0.00396
1051.33	0.00489
1060.97	0.00689
1070.62	0.00814
1080.26	0.00976
1089.91	0.02075
1099.55	0.04713
1109.2	0.14633
1118.84	0.37231
1128.49	0.20552
1138.13	0.04588
1147.78	0.02253
1157.42	0.01554
1167.07	0.01152
1176.71	0.01191
1186.36	0.03492
1196	0.03185
1205.64	0.01227
1215.29	0.00955
1224.93	0.00883
1234.58	0.00981
1244.22	0.01009
1253.87	0.01109
1263.51	0.01058
1273.16	0.00776
1282.8	0.00817
1292.45	0.0099
1302.09	0.01037
1311.74	0.00822
1321.38	0.00808
1331.03	0.00898
1340.67	0.00822
1350.32	0.00771
1359.96	0.00835
1369.61	0.00859
1379.25	0.0066
1388.9	0.00595
1398.54	0.00726
1408.18	0.0138
1417.83	0.03149
1427.47	0.07044
1437.12	0.0488
1446.76	0.01732
1456.41	0.00803
1466.05	0.0057
1475.7	0.00506
1485.34	0.00826
1494.99	0.00544
1504.63	0.00249
1514.28	0.0023
1523.92	0.0026
1533.57	0.00407
1543.21	0.00541
1552.86	0.00677
1562.5	0.00865
1572.15	0.01048
1581.79	0.01487
1591.44	0.02135
1601.08	0.00863
1610.73	0.00617
1620.37	0.00566
1630.01	0.00388
1639.66	0.0044
1649.3	0.00835
1658.95	0.00856
1668.59	0.00415
1678.24	0.00334
1687.88	0.00275
1697.53	0.00271
1707.17	0.00294
1716.82	0.00297
1726.46	0.00233
1736.11	0.00235
1745.75	0.00264
1755.4	0.00406
1765.04	0.00562
1774.69	0.00601
1784.33	0.00428
1793.98	0.0042
1803.62	0.00775
1813.27	0.01645
1822.91	0.0129
1832.55	0.00782
1842.2	0.00467
1851.84	0.0035
1861.49	0.00409
1871.13	0.00625
1880.78	0.00991
1890.42	0.01177
1900.07	0.01201
1909.71	0.00487
1919.36	0.00311
1929	0.00337
1938.65	0.00514
1948.29	0.00913
1957.94	0.01101
1967.58	0.01021
1977.23	0.00412
1986.87	0.00177
1996.52	0.00167
2006.16	0.0015415
2015.81	0.001372
2025.45	0.0013059
2035.1	0.0010967
2044.74	0.001132
2054.38	0.0014079
2064.03	0.0011366
2073.67	0.0007375
2083.32	0.0008636
2092.96	0.0012231
2102.61	0.0009722
2112.25	0.0012196
2121.9	0.0009551
2131.54	0.0011221
2141.19	0.0013277
2150.83	0.0013907
2160.48	0.0011066
2170.12	0.0008155
2179.77	0.0009396
2189.41	0.0009757
2199.06	0.0011566
2208.7	0.0013231
2218.35	0.00201
2227.99	0.00207
2237.64	0.00194
2247.28	0.00176
2256.92	0.0014936
2266.57	0.0015516
2276.21	0.0012746
2285.86	0.0014908
2295.5	0.00166
2305.15	0.00214
2314.79	0.00389
2324.44	0.00234
2334.08	0.0013246
2343.73	0.00208
2353.37	0.00198
2363.02	0.0014566
2372.66	0.0011651
2382.31	0.0012265
2391.95	0.0013154
2401.6	0.0009486
2411.24	0.0011047
2420.89	0.0007264
2430.53	0.0007612
2440.18	0.0007848
2449.82	0.000809
2459.47	0.0009985
2469.11	0.0008495
2478.75	0.0009271
2488.4	0.0011564
2498.04	0.0008697
2507.69	0.00104
2517.33	0.0012096
2526.98	0.0011104
2536.62	0.0010856
2546.27	0.0012341
2555.91	0.0011915
2565.56	0.0012755
2575.2	0.0015186
2584.85	0.00225
2594.49	0.00181
2604.14	0.0014301
2613.78	0.00168
2623.43	0.00177
2633.07	0.0010708
2642.72	0.0007809
2652.36	0.0005848
2662.01	0.0007324
2671.65	0.0008398
2681.29	0.0014468
2690.94	0.00206
2700.58	0.00265
2710.23	0.002
2719.87	0.0012258
2729.52	0.0009615
2739.16	0.000618744
2748.81	0.000198
2758.45	0.0009064
2768.1	0.00060269
2777.74	0.0008921
2787.39	0.0011652
2797.03	0.0015838
2806.68	0.00181
2816.32	0.00211
2825.97	0.0019
2835.61	0.0013606
2845.26	0.0014641
2854.9	0.00203
2864.55	0.0015354
2874.19	0.0010558
2883.84	0.0014954
2893.48	0.00277
2903.12	0.00329
2912.77	0.00383
2922.41	0.00353
2932.06	0.00271
2941.7	0.00186
2951.35	0.00223
2960.99	0.00298
2970.64	0.00443
2980.28	0.00662
2989.93	0.01201
2999.57	0.02355
3009.22	0.0387
3018.86	0.05175
3028.51	0.04249
3038.15	0.0361
3047.8	0.06027
3057.44	0.15605
3067.09	0.13972
3076.73	0.11296
3086.38	0.07227
3096.02	0.044
3105.67	0.01704
3115.31	0.00869
3124.95	0.00811
3134.6	0.01114
3144.24	0.00772
3153.89	0.00254
3163.53	0.0014314
3173.18	0.0015175
3182.82	0.0016014
3192.47	0.0012129
3202.11	0.0011198
3211.76	0.0007186
3221.4	0.0010297
3231.05	0.0009974
3240.69	0.000611404
3250.34	0.0008474
3259.98	0.0008736
3269.63	0.0008433
3279.27	0.0008656
3288.92	0.0008114
3298.56	0.000469
3308.21	0.000265
3317.85	0.0010035
3327.49	0.00069383
3337.14	0.0009114
3346.78	0.0008211
3356.43	0.0008993
3366.07	0.000615961
3375.72	0.0011953
3385.36	0.0007555
3395.01	0.0008511
3404.65	0.0010024
3414.3	0.000233
3423.94	0.0011936
3433.59	0.00067638
3443.23	0.0005872
3452.88	0.000547
3462.52	0.0008106
3472.17	0.00062277
3481.81	0.001214
3491.46	0.000386
3501.1	0.0011468
3510.75	0.0009471
3520.39	0.0010386
3530.04	0.0011934
3539.68	0.0012329
3549.32	0.00069492
3558.97	0.00098
3568.61	0.0009719
3578.26	0.0008831
3587.9	0.0010397
3597.55	0.0005977
3607.19	0.000953
3616.84	0.0006591
3626.48	0.0012916
3636.13	0.0007644
3645.77	0.0012532
3655.42	0.0012086
3665.06	0.0011903
3674.71	0.0008617
3684.35	0.00172
3694	0.00208
3703.64	0.00175
3713.29	0.001295
3722.93	0.0009081
3732.58	0.0010727
3742.22	0.0014269
3751.86	0.0012559
3761.51	0.0014897
3771.15	0.0015489
3780.8	0.0008165
3790.44	0.0012044
3800.09	0.0007798
3809.73	0.0009409
3819.38	0.0010145
3829.02	0.000417
3838.67	0.0010696
3848.31	0.0008206
3857.96	0.0005889
3867.6	0.0009529
3877.25	0.0007154
3886.89	3.6e-05
3896.54	0.0009733
3906.18	0.0008735
3915.83	0.0007228
3925.47	0.000478
3935.12	0.0009657
3944.76	0.000821
3954.41	0.0007289
3964.05	0.000507
3973.69	0.000382
3983.34	0.00068118
3992.98	0.0011299
