Infrared Spectrum: 4'-Butylacetophenone
Formula: C 12 H 16 O
CAS: 37920-25-5
State: gas
Origin: EPA-IR VAPOR PHASE LIBRARY
1/CM	ABSORBANCE
549.8	0.0033892
559.445	0.0055592
569.09	0.0142092
578.734	0.0217892
588.379	0.0222492
598.024	0.0186392
607.669	0.0089192
617.313	0.0039892
626.958	0.0025692
636.603	0.0024792
646.248	0.0034392
655.893	0.0051092
665.537	0.0048092
675.182	0.0044792
684.827	0.0054892
694.472	0.0034592
704.116	0.0019392
713.761	0.0016592
723.406	0.0019092
733.051	0.0023592
742.695	0.0037192
752.34	0.0040692
761.985	0.0035092
771.63	0.0041592
781.275	0.0058992
790.919	0.0079192
800.564	0.0107492
810.209	0.0152192
819.854	0.0178492
829.498	0.0175392
839.143	0.0155792
848.788	0.0094392
858.433	0.0044692
868.078	0.0030392
877.722	0.0029092
887.367	0.0029892
897.012	0.0030792
906.657	0.0026992
916.301	0.0030292
925.946	0.0042192
935.591	0.0079492
945.236	0.0190792
954.88	0.0260392
964.525	0.0132192
974.17	0.0068592
983.815	0.0047892
993.46	0.0043892
1003.1	0.0057592
1012.75	0.0133092
1022.39	0.0100092
1032.04	0.0038892
1041.68	0.0034292
1051.33	0.0042792
1060.97	0.0046792
1070.62	0.0083092
1080.26	0.0076392
1089.91	0.0051892
1099.55	0.0058192
1109.2	0.0062492
1118.84	0.0060092
1128.49	0.0048592
1138.13	0.0036892
1147.78	0.0036792
1157.42	0.0041692
1167.07	0.0068692
1176.71	0.0206292
1186.36	0.0318492
1196	0.0139192
1205.64	0.0105892
1215.29	0.0128392
1224.93	0.0220492
1234.58	0.0332192
1244.22	0.0473392
1253.87	0.108619
1263.51	0.157539
1273.16	0.0581892
1282.8	0.0215292
1292.45	0.0158492
1302.09	0.0144592
1311.74	0.0106092
1321.38	0.0083392
1331.03	0.0096492
1340.67	0.0151892
1350.32	0.0299892
1359.96	0.0537192
1369.61	0.0323692
1379.25	0.0167792
1388.9	0.0143592
1398.54	0.0160992
1408.18	0.0233092
1417.83	0.0210992
1427.47	0.0145792
1437.12	0.0135592
1446.76	0.0139392
1456.41	0.0142592
1466.05	0.0134792
1475.7	0.0098892
1485.34	0.0063092
1494.99	0.0048792
1504.63	0.0044992
1514.28	0.0042892
1523.92	0.0042792
1533.57	0.0044692
1543.21	0.0046492
1552.86	0.0057892
1562.5	0.0091292
1572.15	0.0110292
1581.79	0.0091792
1591.44	0.0170092
1601.08	0.0413192
1610.73	0.0471392
1620.37	0.0185792
1630.01	0.0093292
1639.66	0.0079192
1649.3	0.0084592
1658.95	0.0104792
1668.59	0.0133692
1678.24	0.0217792
1687.88	0.0532692
1697.53	0.147389
1707.17	0.143179
1716.82	0.0466092
1726.46	0.0181392
1736.11	0.0107592
1745.75	0.0081892
1755.4	0.0065692
1765.04	0.0044892
1774.69	0.0029392
1784.33	0.0022292
1793.98	0.0025392
1803.62	0.0027692
1813.27	0.0020492
1822.91	0.0014392
1832.55	0.0013892
1842.2	0.0012492
1851.84	0.0012192
1861.49	0.0011692
1871.13	0.0013192
1880.78	0.0017592
1890.42	0.0020892
1900.07	0.0023892
1909.71	0.0024492
1919.36	0.0025092
1929	0.0023392
1938.65	0.0020592
1948.29	0.0016492
1957.94	0.0012292
1967.58	0.0008581
1977.23	0.000776
1986.87	0.0007698
1996.52	0.0007665
2006.16	0.0008057
2015.81	0.0009354
2025.45	0.0010094
2035.1	0.0010163
2044.74	0.0008139
2054.38	0.0007229
2064.03	0.0005937
2073.67	0.0006059
2083.32	0.0004644
2092.96	0.0006141
2102.61	0.0004603
2112.25	0.0004222
2121.9	0.0004735
2131.54	0.0005138
2141.19	0.0005595
2150.83	0.0004987
2160.48	0.0005785
2170.12	0.0005343
2179.77	0.0005066
2189.41	0.000615
2199.06	0.0005128
2208.7	0.0006353
2218.35	0.0005167
2227.99	0.0003991
2237.64	0.0004915
2247.28	0.0005402
2256.92	0.0004261
2266.57	0.0005084
2276.21	0.0005738
2285.86	0.0007438
2295.5	0.0007927
2305.15	0.0009881
2314.79	0.0009747
2324.44	0.0007894
2334.08	0.0006685
2343.73	0.0006099
2353.37	0.0005293
2363.02	0.0005974
2372.66	0.0007612
2382.31	0.0008059
2391.95	0.0006316
2401.6	0.000558
2411.24	0.0006062
2420.89	0.0007187
2430.53	0.0006861
2440.18	0.0006105
2449.82	0.0005211
2459.47	0.0005449
2469.11	0.0004604
2478.75	0.0005589
2488.4	0.0006382
2498.04	0.00079
2507.69	0.0009034
2517.33	0.0011192
2526.98	0.0011392
2536.62	0.0009643
2546.27	0.0008501
2555.91	0.0008785
2565.56	0.001074
2575.2	0.0011292
2584.85	0.0012492
2594.49	0.0011992
2604.14	0.0009643
2613.78	0.0010892
2623.43	0.0010992
2633.07	0.0011592
2642.72	0.0011592
2652.36	0.0013392
2662.01	0.0012792
2671.65	0.0012492
2681.29	0.0011092
2690.94	0.0012192
2700.58	0.0011692
2710.23	0.0009851
2719.87	0.0010412
2729.52	0.0013192
2739.16	0.0014292
2748.81	0.0016192
2758.45	0.0016692
2768.1	0.0019192
2777.74	0.0022292
2787.39	0.0025492
2797.03	0.0028192
2806.68	0.0031492
2816.32	0.0040892
2825.97	0.0049992
2835.61	0.0069092
2845.26	0.0106892
2854.9	0.0187692
2864.55	0.0312992
2874.19	0.0365492
2883.84	0.0344992
2893.48	0.0277292
2903.12	0.0267592
2912.77	0.0360292
2922.41	0.0553192
2932.06	0.0816092
2941.7	0.0891592
2951.35	0.0671192
2960.99	0.0636092
2970.64	0.0711592
2980.28	0.0407792
2989.93	0.0216892
2999.57	0.0171792
3009.22	0.0183492
3018.86	0.0183992
3028.51	0.0211992
3038.15	0.0208892
3047.8	0.0146092
3057.44	0.0118792
3067.09	0.0113692
3076.73	0.0112892
3086.38	0.0119192
3096.02	0.0093192
3105.67	0.0059392
3115.31	0.0045892
3124.95	0.0035992
3134.6	0.0024092
3144.24	0.0020592
3153.89	0.0016392
3163.53	0.0014692
3173.18	0.0012792
3182.82	0.0010513
3192.47	0.0010106
3202.11	0.0011292
3211.76	0.0007062
3221.4	0.0006274
3231.05	0.0006541
3240.69	0.0004093
3250.34	0.0005162
3259.98	0.0004138
3269.63	0.0003708
3279.27	0.0002186
3288.92	0.0004309
3298.56	0.0003394
3308.21	0.0004438
3317.85	0.0005314
3327.49	0.0004952
3337.14	0.0004287
3346.78	0.0005687
3356.43	0.0005839
3366.07	0.0011492
3375.72	0.0024392
3385.36	0.0031092
3395.01	0.0023792
3404.65	0.0011992
3414.3	0.0007624
3423.94	0.0004871
3433.59	0.000408
3443.23	0.000387
3452.88	0.0003236
3462.52	0.0002239
3472.17	0.0005515
3481.81	0.0003845
3491.46	0.0003834
3501.1	0.00015462
3510.75	0.0002901
3520.39	0.0002019
3530.04	0.000302
3539.68	0.0001917
3549.32	0.00014588
3558.97	0.0003088
3568.61	0.0002473
3578.26	0.0002022
3587.9	0.0002886
3597.55	0.0002926
3607.19	0.0004624
3616.84	0.0002446
3626.48	0.0002523
3636.13	0.0002719
3645.77	0.0002451
3655.42	0.0005693
3665.06	0.0004083
3674.71	0.0003459
3684.35	0.0004478
3694	0.0004596
3703.64	0.0004231
3713.29	0.0004806
3722.93	0.0004817
3732.58	0.0004866
3742.22	0.0003516
3751.86	0.0001055
3761.51	0.0003787
3771.15	0.0003392
3780.8	0.0002968
3790.44	0.0002309
3800.09	7.246e-05
3809.73	9.825e-05
3819.38	0.0002454
3829.02	0.0002825
3838.67	0.0003093
3848.31	0.0002536
3857.96	0.0004776
3867.6	0.0002674
3877.25	0.0005867
3886.89	0.0004344
3896.54	0.0003726
3906.18	0.0004167
3915.83	0.0002842
3925.47	0.0005239
3935.12	0.0005629
3944.76	0.0006122
3954.41	0.0003615
3964.05	0.00061
3973.69	0.0005444
3983.34	0.0004458
3992.98	0.000541
