Infrared Spectrum: 2-Fluorodiphenylmethane
Formula: C 13 H 11 F
CAS: 3794-15-8
State: gas
Origin: EPA-IR VAPOR PHASE LIBRARY
1/CM	ABSORBANCE
549.8	0.002095
559.445	0.001785
569.09	0.003195
578.734	0.003585
588.379	0.002415
598.024	0.003475
607.669	0.005835
617.313	0.005565
626.958	0.002415
636.603	0.001795
646.248	0.001455
655.893	0.002475
665.537	0.004485
675.182	0.008025
684.827	0.016225
694.472	0.028655
704.116	0.028005
713.761	0.026075
723.406	0.031655
733.051	0.033325
742.695	0.046855
752.34	0.072185
761.985	0.037715
771.63	0.016995
781.275	0.014725
790.919	0.009715
800.564	0.005565
810.209	0.003905
819.854	0.003155
829.498	0.003195
839.143	0.005575
848.788	0.007955
858.433	0.006275
868.078	0.004065
877.722	0.002925
887.367	0.002445
897.012	0.002705
906.657	0.002995
916.301	0.003355
925.946	0.004065
935.591	0.004555
945.236	0.002935
954.88	0.001775
964.525	0.001485
974.17	0.001425
983.815	0.0010545
993.46	0.0010998
1003.1	0.001885
1012.75	0.002435
1022.39	0.007125
1032.04	0.012715
1041.68	0.005255
1051.33	0.002315
1060.97	0.002915
1070.62	0.004475
1080.26	0.005775
1089.91	0.012085
1099.55	0.015365
1109.2	0.008115
1118.84	0.002795
1128.49	0.001805
1138.13	0.001665
1147.78	0.002275
1157.42	0.002765
1167.07	0.004525
1176.71	0.007655
1186.36	0.009565
1196	0.009495
1205.64	0.009415
1215.29	0.014825
1224.93	0.038395
1234.58	0.060075
1244.22	0.037675
1253.87	0.012715
1263.51	0.007435
1273.16	0.006605
1282.8	0.005555
1292.45	0.003935
1302.09	0.003285
1311.74	0.003285
1321.38	0.003555
1331.03	0.003405
1340.67	0.002775
1350.32	0.002115
1359.96	0.002055
1369.61	0.002325
1379.25	0.002605
1388.9	0.002345
1398.54	0.002225
1408.18	0.002645
1417.83	0.003765
1427.47	0.006355
1437.12	0.012595
1446.76	0.023415
1456.41	0.028515
1466.05	0.021485
1475.7	0.023845
1485.34	0.045955
1494.99	0.064035
1504.63	0.039755
1514.28	0.011745
1523.92	0.004445
1533.57	0.003315
1543.21	0.003305
1552.86	0.004005
1562.5	0.005995
1572.15	0.010235
1581.79	0.016485
1591.44	0.018395
1601.08	0.016265
1610.73	0.011065
1620.37	0.005285
1630.01	0.002565
1639.66	0.001955
1649.3	0.001645
1658.95	0.001465
1668.59	0.001585
1678.24	0.002165
1687.88	0.002365
1697.53	0.001815
1707.17	0.001495
1716.82	0.001365
1726.46	0.001505
1736.11	0.001405
1745.75	0.001725
1755.4	0.001815
1765.04	0.002065
1774.69	0.002615
1784.33	0.003705
1793.98	0.004225
1803.62	0.002915
1813.27	0.002235
1822.91	0.001945
1832.55	0.001395
1842.2	0.001425
1851.84	0.001535
1861.49	0.001975
1871.13	0.002275
1880.78	0.002185
1890.42	0.002565
1900.07	0.003185
1909.71	0.002695
1919.36	0.002335
1929	0.003165
1938.65	0.003595
1948.29	0.003045
1957.94	0.001985
1967.58	0.0010006
1977.23	0.0007658
1986.87	0.0007183
1996.52	0.0007492
2006.16	0.0008945
2015.81	0.000928
2025.45	0.0007431
2035.1	0.0007251
2044.74	0.0005981
2054.38	0.0005263
2064.03	0.0007251
2073.67	0.0006925
2083.32	0.0007172
2092.96	0.0006001
2102.61	0.0004439
2112.25	0.0004615
2121.9	0.0005177
2131.54	0.0005149
2141.19	0.00039417
2150.83	0.00038025
2160.48	0.0003286
2170.12	0.0005303
2179.77	0.0005423
2189.41	0.0005681
2199.06	0.000463
2208.7	0.0004569
2218.35	0.0005912
2227.99	0.0005156
2237.64	0.0005452
2247.28	0.0005339
2256.92	0.0004845
2266.57	0.0005679
2276.21	0.0005514
2285.86	0.000631
2295.5	0.0007242
2305.15	0.0009158
2314.79	0.0009431
2324.44	0.000837
2334.08	0.0008911
2343.73	0.0008998
2353.37	0.0007289
2363.02	0.0007497
2372.66	0.0006144
2382.31	0.0006136
2391.95	0.000445
2401.6	0.0006124
2411.24	0.0006451
2420.89	0.0007487
2430.53	0.0007974
2440.18	0.0006811
2449.82	0.0008364
2459.47	0.0010739
2469.11	0.000991
2478.75	0.00069
2488.4	0.0005843
2498.04	0.0005962
2507.69	0.0004609
2517.33	0.0004519
2526.98	0.0005703
2536.62	0.0004998
2546.27	0.0006
2555.91	0.0006967
2565.56	0.0005862
2575.2	0.0005611
2584.85	0.00064
2594.49	0.0007708
2604.14	0.0008101
2613.78	0.0007463
2623.43	0.0005781
2633.07	0.0005386
2642.72	0.0005137
2652.36	0.00037055
2662.01	0.000444
2671.65	0.00030593
2681.29	0.00030094
2690.94	0.00037428
2700.58	0.0004471
2710.23	0.0004516
2719.87	0.00037491
2729.52	0.0004738
2739.16	0.0005514
2748.81	0.0005507
2758.45	0.0005921
2768.1	0.0007524
2777.74	0.0008563
2787.39	0.0007022
2797.03	0.0005609
2806.68	0.0005735
2816.32	0.0005872
2825.97	0.0009929
2835.61	0.0012273
2845.26	0.002305
2854.9	0.003325
2864.55	0.003835
2874.19	0.002895
2883.84	0.002705
2893.48	0.003065
2903.12	0.004275
2912.77	0.006505
2922.41	0.009615
2932.06	0.010705
2941.7	0.008695
2951.35	0.006325
2960.99	0.004395
2970.64	0.002965
2980.28	0.002345
2989.93	0.002235
2999.57	0.003315
3009.22	0.006145
3018.86	0.012625
3028.51	0.025085
3038.15	0.030895
3047.8	0.023225
3057.44	0.022795
3067.09	0.034645
3076.73	0.037045
3086.38	0.025005
3096.02	0.016675
3105.67	0.009505
3115.31	0.005255
3124.95	0.002455
3134.6	0.001335
3144.24	0.0008652
3153.89	0.0009598
3163.53	0.0009302
3173.18	0.0008819
3182.82	0.0004803
3192.47	0.00035738
3202.11	0.0005198
3211.76	0.00031693
3221.4	0.00016
3231.05	0.000263
3240.69	0.0004307
3250.34	0.00045
3259.98	0.000309638
3269.63	0.000266
3279.27	0.00033143
3288.92	0.000189
3298.56	0.00036048
3308.21	0.00034159
3317.85	0.0004857
3327.49	0.00036518
3337.14	0.0004144
3346.78	0.000143
3356.43	0.00032084
3366.07	0.00032952
3375.72	0.00037628
3385.36	0.00029639
3395.01	0.000311296
3404.65	0.00034486
3414.3	0.000188
3423.94	0
3433.59	0.000188
3443.23	0.000165
3452.88	0.000307403
3462.52	0.000241
3472.17	0.000153
3481.81	0.00036843
3491.46	0.00030746
3501.1	0.0004652
3510.75	0.0002096
3520.39	0.000187
3530.04	0.0002508
3539.68	0.000283
3549.32	0.000259
3558.97	0.0002119
3568.61	0.0004995
3578.26	0.0002216
3587.9	0.0002186
3597.55	0.0002399
3607.19	0.0005866
3616.84	0.0006551
3626.48	0.0005542
3636.13	0.0006005
3645.77	0.000763
3655.42	0.0007098
3665.06	0.0005414
3674.71	0.0005485
3684.35	0.00035259
3694	0.0004568
3703.64	0.0002623
3713.29	0.00029849
3722.93	0.000443
3732.58	0.0004915
3742.22	0.0004055
3751.86	8.9e-05
3761.51	0.00032577
3771.15	0.0005654
3780.8	0.0002365
3790.44	0.0002476
3800.09	0.0005704
3809.73	0.00035313
3819.38	0.0004249
3829.02	0.00033782
3838.67	0.00033264
3848.31	0.0005895
3857.96	0.0005482
3867.6	0.000558
3877.25	0.0004523
3886.89	0.0006142
3896.54	0.0005794
3906.18	0.000514
3915.83	0.000647
3925.47	0.0005792
3935.12	0.000654
3944.76	0.00035368
3954.41	0.0002683
3964.05	0.0005014
3973.69	0.00034644
3983.34	0.0004077
3992.98	0.0004796
