Infrared Spectrum: Purine, 6-(o-fluorobenzylthio)-
Formula: C12 H9 F N4 S
CAS: 3798-86-5
State: SOLID (0.45 mg / 650 mg KBr DISC)
Class: COBLENTZ III
Instrument: PERKIN-ELMER 21 (GRATING)
Instrument parameters: FILTER CHANGE ABOUT 1080 CM^-^1
Sampling: TRANSMISSION
Resolution: 2
Origin: SOUTHERN RESEARCH INSTITUTE
1/CM	TRANSMITTANCE
605	0.908
614.03	0.9274
623.06	0.9098
632.09	0.8929
641.12	0.855
650.149	0.7701
659.179	1.0144
668.209	1.0144
677.239	0.9317
686.269	0.8883
695.299	1.0156
704.329	1.0149
713.359	1.0108
722.388	0.9825
731.418	0.9421
740.448	0.8887
749.478	0.659
758.508	0.6167
767.538	0.4907
776.568	0.6214
785.598	0.8588
794.627	0.7822
803.657	0.8039
812.687	0.8483
821.717	0.8062
830.747	0.7637
839.777	0.6814
848.807	0.513
857.837	0.571
866.866	0.6311
875.896	0.5673
884.926	0.6576
893.956	0.7914
902.986	0.7991
912.016	0.7704
921.046	0.7412
930.076	0.6297
939.105	0.543
948.135	0.3788
957.165	0.3869
966.195	0.753
975.225	0.8509
984.255	0.8221
993.285	0.809
1002.31	0.7533
1011.34	0.8498
1020.37	0.8581
1029.4	0.8471
1038.43	0.846
1047.46	0.8881
1056.49	0.8849
1065.52	0.8824
1074.55	0.8807
1083.58	0.7926
1092.61	0.7583
1101.64	0.7369
1110.67	0.8357
1119.7	0.8248
1128.73	0.7717
1137.76	0.7494
1146.79	0.733
1155.82	0.7175
1164.85	0.7308
1173.88	0.7093
1182.91	0.6504
1191.94	0.5634
1200.97	0.7102
1210	0.7117
1219.03	0.5699
1228.06	0.4455
1237.09	0.1414
1246.12	0.3573
1255.15	0.6092
1264.18	0.6663
1273.21	0.781
1282.24	0.767
1291.27	0.7913
1300.3	0.8557
1309.33	0.8531
1318.36	0.8196
1327.39	0.5312
1336.42	0.7755
1345.45	0.8321
1354.48	0.8393
1363.51	0.8164
1372.54	0.7688
1381.57	0.6792
1390.6	0.2608
1399.63	0.6734
1408.66	0.7556
1417.69	0.6793
1426.72	0.6251
1435.75	0.653
1444.78	0.698
1453.81	0.7054
1462.84	0.6199
1471.87	0.6654
1480.9	0.6975
1489.93	0.6162
1498.96	0.5269
1507.99	0.751
1517.02	0.7577
1526.05	0.7421
1535.08	0.7206
1544.11	0.6289
1553.14	0.5647
1562.17	0.2622
1571.2	0.1737
1580.23	0.2761
1589.26	0.4186
1598.29	0.4442
1607.32	0.6931
1616.35	0.7254
1625.38	0.7826
1634.41	0.7988
1643.44	0.8082
1652.47	0.8119
1661.5	0.8126
1670.53	0.8119
1679.56	0.8096
1688.59	0.8055
1697.62	0.7889
1706.64	0.7791
1715.67	0.7735
1724.7	0.7686
1733.73	0.7643
1742.76	0.7619
1751.79	0.76
1760.82	0.7592
1769.85	0.7585
1778.88	0.7584
1787.91	0.7607
1796.94	0.766
1805.97	0.7657
1815	0.779
1824.03	0.7868
1833.06	0.7884
1842.09	0.7884
1851.12	0.7873
1860.15	0.786
1869.18	0.7845
1878.21	0.7919
1887.24	0.7993
1896.27	0.7982
1905.3	0.7968
1914.33	0.7962
1923.36	0.8025
1932.39	0.8114
1941.42	0.812
1950.45	0.8109
1959.48	0.8099
1968.51	0.8089
1977.54	0.8084
1986.57	0.8079
1995.6	0.8076
2004.63	0.8075
2013.66	0.8075
2022.69	0.8062
2031.72	0.8052
2040.75	0.8021
2049.78	0.7993
2058.81	0.7987
2067.84	0.7983
2076.87	0.7982
2085.9	0.7962
2094.93	0.79
2103.96	0.7845
2112.99	0.7818
2122.02	0.7793
2131.05	0.7765
2140.08	0.7731
2149.11	0.7692
2158.14	0.7652
2167.17	0.7611
2176.2	0.7557
2185.23	0.7496
2194.26	0.7413
2203.29	0.7327
2212.32	0.7192
2221.35	0.7112
2230.38	0.702
2239.41	0.6943
2248.44	0.6861
2257.47	0.6777
2266.5	0.6682
2275.53	0.6599
2284.56	0.6523
2293.59	0.6449
2302.62	0.6375
2311.65	0.6288
2320.68	0.6191
2329.71	0.6072
2338.74	0.5923
2347.77	0.5848
2356.8	0.5796
2365.83	0.5721
2374.86	0.5659
2383.89	0.5612
2392.92	0.557
2401.95	0.5536
2410.98	0.5499
2420.01	0.5451
2429.04	0.5406
2438.06	0.5336
2447.09	0.5238
2456.12	0.514
2465.15	0.5056
2474.18	0.4976
2483.21	0.4894
2492.24	0.481
2501.27	0.4738
2510.3	0.4684
2519.33	0.4654
2528.36	0.4632
2537.39	0.4621
2546.42	0.4614
2555.45	0.4614
2564.48	0.4613
2573.51	0.4615
2582.54	0.4617
2591.57	0.4617
2600.6	0.4623
2609.63	0.464
2618.66	0.4667
2627.69	0.4701
2636.72	0.4728
2645.75	0.4757
2654.78	0.479
2663.81	0.4842
2672.84	0.4891
2681.87	0.4894
2690.9	0.4914
2699.93	0.4984
2708.96	0.5039
2717.99	0.5085
2727.02	0.5056
2736.05	0.5005
2745.08	0.4989
2754.11	0.4995
2763.14	0.5014
2772.17	0.5072
2781.2	0.5155
2790.23	0.5252
2799.26	0.537
2808.29	0.5499
2817.32	0.5751
2826.35	0.5911
2835.38	0.5993
2844.41	0.606
2853.44	0.6087
2862.47	0.6067
2871.5	0.6018
2880.53	0.5974
2889.56	0.5926
2898.59	0.5866
2907.62	0.579
2916.65	0.5716
2925.68	0.5712
2934.71	0.5726
2943.74	0.5742
2952.77	0.5816
2961.8	0.5919
2970.83	0.6013
2979.86	0.6116
2988.89	0.6237
2997.92	0.6306
3006.95	0.6319
3015.98	0.6311
3025.01	0.6261
3034.04	0.6166
3043.07	0.605
3052.1	0.6016
3061.13	0.605
3070.16	0.6123
3079.19	0.627
3088.22	0.6503
3097.25	0.6679
3106.28	0.6825
3115.31	0.6986
3124.34	0.7115
3133.37	0.7204
3142.4	0.7257
3151.43	0.7296
3160.45	0.7326
3169.48	0.7355
3178.51	0.7384
3187.54	0.7415
3196.57	0.7459
3205.6	0.7497
3214.63	0.7508
3223.66	0.7513
3232.69	0.7517
3241.72	0.7519
3250.75	0.7512
3259.78	0.7508
3268.81	0.7508
3277.84	0.7505
3286.87	0.7497
3295.9	0.7472
3304.93	0.744
3313.96	0.7399
3322.99	0.7349
3332.02	0.7298
3341.05	0.7243
3350.08	0.719
3359.11	0.7136
3368.14	0.708
3377.17	0.7012
3386.2	0.6955
3395.23	0.693
3404.26	0.6933
3413.29	0.694
3422.32	0.6952
3431.35	0.6968
3440.38	0.6993
3449.41	0.7023
3458.44	0.7055
3467.47	0.7085
3476.5	0.7111
3485.53	0.7124
3494.56	0.7134
3503.59	0.7183
3512.62	0.725
3521.65	0.7326
3530.68	0.741
3539.71	0.7412
3548.74	0.7477
3557.77	0.759
3566.8	0.7682
3575.83	0.7763
3584.86	0.7841
3593.89	0.7922
3602.92	0.8002
3611.95	0.8051
3620.98	0.8077
3630.01	0.8125
3639.04	0.8117
3648.07	0.8107
3657.1	0.8096
3666.13	0.8093
3675.16	0.8089
3684.19	0.8086
3693.22	0.8085
3702.25	0.8083
3711.28	0.8086
3720.31	0.8091
3729.34	0.8095
3738.37	0.81
3747.4	0.8107
3756.43	0.8113
3765.46	0.8117
3774.49	0.812
3783.52	0.8122
3792.55	0.8124
3801.58	0.8125
3810.61	0.8119
3819.64	0.8112
3828.67	0.8114
3837.7	0.8117
3846.73	0.8111
3855.76	0.8103
3864.79	0.8094
3873.82	0.8077
3882.85	0.8047
3891.87	0.8042
3900.9	0.8046
3909.93	0.8056
3918.96	0.8061
3927.99	0.8055
3937.02	0.8051
3946.05	0.8085
3955.08	0.8069
3964.11	0.8062
3973.14	0.8071
3982.17	0.809
3991.2	0.8163
4000.23	0.8166
4009.26	0.8184
