Infrared Spectrum: 1,4-DIMETHYL-3-ACETYL-4-HYDROXY-PIPERIDINE
Formula: C9 H17 N O2
CAS: 37994-62-0
State: SOLUTION (7% CHCl3)
Class: COBLENTZ
Instrument: Not specified, most likely a prism, grating, or hybrid spectrometer.
Sampling: TRANSMISSION
Path length: 0.010 CM CELL
Resolution: 4
MICROMETERS	TRANSMITTANCE
2.036	0.944
2.07225	0.94
2.10851	0.937
2.14476	0.933
2.18102	0.933
2.21727	0.933
2.25352	0.929
2.28978	0.922
2.32603	0.913
2.36229	0.908
2.39854	0.904
2.43479	0.904
2.47105	0.908
2.5073	0.912
2.54356	0.913
2.57981	0.915
2.61606	0.915
2.65232	0.917
2.68857	0.921
2.72483	0.915
2.76108	0.937
2.79733	0.804
2.83359	0.612
2.86984	0.594
2.9061	0.687
2.94235	0.78
2.9786	0.816
3.01486	0.834
3.05111	0.84
3.08737	0.838
3.12362	0.825
3.15988	0.82
3.19613	0.822
3.23238	0.822
3.26864	0.816
3.30489	0.743
3.34115	0.454
3.3774	0.298
3.41365	0.267
3.44991	0.387
3.48616	0.482
3.52242	0.438
3.55867	0.407
3.59492	0.572
3.63118	0.685
3.66743	0.771
3.70369	0.807
3.73994	0.825
3.77619	0.859
3.81245	0.865
3.8487	0.868
3.88496	0.865
3.92121	0.856
3.95746	0.834
3.99372	0.807
4.02997	0.804
4.06623	0.816
4.10248	0.845
4.13873	0.865
4.17499	0.892
4.21124	0.901
4.2475	0.915
4.28375	0.922
4.32	0.915
4.35626	0.894
4.39251	0.888
4.42877	0.888
4.46502	0.888
4.50127	0.888
4.53753	0.888
4.57378	0.888
4.61004	0.89
4.64629	0.888
4.68254	0.888
4.7188	0.886
4.75505	0.885
4.79131	0.883
4.82756	0.886
4.86381	0.883
4.90007	0.885
4.93632	0.883
4.97258	0.886
5.00883	0.886
5.04509	0.886
5.08134	0.885
5.11759	0.883
5.15385	0.881
5.1901	0.881
5.22636	0.881
5.26261	0.879
5.29886	0.879
5.33512	0.881
5.37137	0.885
5.40763	0.881
5.44388	0.883
5.48013	0.881
5.51639	0.881
5.55264	0.879
5.5889	0.881
5.62515	0.872
5.6614	0.87
5.69766	0.861
5.73391	0.854
5.77017	0.822
5.80642	0.752
5.84267	0.529
5.87893	0.165
5.91518	0.242
5.95144	0.574
5.98769	0.705
6.02394	0.78
6.0602	0.807
6.09645	0.824
6.13271	0.84
6.16896	0.854
6.20521	0.854
6.24147	0.861
6.27772	0.861
6.31398	0.859
6.35023	0.861
6.38648	0.861
6.42274	0.874
6.45899	0.865
6.49525	0.868
6.5315	0.868
6.56775	0.863
6.60401	0.852
6.64026	0.85
6.67652	0.831
6.71277	0.813
6.74902	0.786
6.78528	0.707
6.82153	0.384
6.85779	0.393
6.89404	0.447
6.93029	0.551
6.96655	0.635
7.0028	0.563
7.03906	0.545
7.07531	0.56
7.11157	0.579
7.14782	0.543
7.18407	0.456
7.22033	0.312
7.25658	0.247
7.29284	0.26
7.32909	0.373
7.36534	0.359
7.4016	0.391
7.43785	0.54
7.47411	0.594
7.51036	0.578
7.54661	0.472
7.58287	0.398
7.61912	0.479
7.65538	0.477
7.69163	0.464
7.72788	0.533
7.76414	0.43
7.80039	0.556
7.83665	0.622
7.8729	0.624
7.90915	0.594
7.94541	0.529
7.98166	0.508
8.01792	0.533
8.05417	0.545
8.09042	0.506
8.12668	0.445
8.16293	0.445
8.19919	0.486
8.23544	0.549
8.27169	0.581
8.30795	0.624
8.3442	0.671
8.38046	0.574
8.41671	0.321
8.45296	0.305
8.48922	0.549
8.52547	0.64
8.56173	0.671
8.59798	0.653
8.63423	0.52
8.67049	0.328
8.70674	0.245
8.743	0.326
8.77925	0.394
8.8155	0.421
8.85176	0.475
8.88801	0.518
8.92427	0.5
8.96052	0.542
8.99678	0.585
9.03303	0.56
9.06928	0.36
9.10554	0.228
9.14179	0.472
9.17805	0.617
9.2143	0.667
9.25055	0.637
9.28681	0.567
9.32306	0.57
9.35932	0.678
9.39557	0.732
9.43182	0.763
9.46808	0.761
9.50433	0.71
9.54059	0.707
9.57684	0.755
9.61309	0.816
9.64935	0.856
9.6856	0.881
9.72186	0.885
9.75811	0.888
9.79436	0.868
9.83062	0.809
9.86687	0.712
9.90313	0.543
9.93938	0.504
9.97563	0.608
10.0119	0.701
10.0481	0.725
10.0844	0.709
10.1207	0.692
10.1569	0.682
10.1932	0.651
10.2294	0.648
10.2657	0.666
10.3019	0.685
10.3382	0.696
10.3744	0.696
10.4107	0.698
10.4469	0.709
10.4832	0.746
10.5194	0.77
10.5557	0.779
10.592	0.789
10.6282	0.797
10.6645	0.798
10.7007	0.793
10.737	0.797
10.7732	0.804
10.8095	0.802
10.8457	0.73
10.882	0.608
10.9182	0.599
10.9545	0.678
10.9907	0.745
11.027	0.788
11.0633	0.804
11.0995	0.824
11.1358	0.836
11.172	0.85
11.2083	0.854
11.2445	0.856
11.2808	0.863
11.317	0.87
11.3533	0.872
11.3895	0.876
11.4258	0.89
11.462	0.894
11.4983	0.899
11.5346	0.895
11.5708	0.89
11.6071	0.89
11.6433	0.888
11.6796	0.888
11.7158	0.89
11.7521	0.892
11.7883	0.89
11.8246	0.892
11.8608	0.89
11.8971	0.885
11.9334	0.874
11.9696	0.868
12.0059	0.859
12.0421	0.849
12.0784	0.82
12.1146	0.736
12.1509	0.68
12.1871	0.68
12.2234	0.727
12.2596	0.784
12.2959	0.822
12.3321	0.842
12.3684	0.85
12.4047	0.861
12.4409	0.872
12.4772	0.872
12.5134	0.87
12.5497	0.872
12.5859	0.876
12.6222	0.892
12.6584	0.922
12.6947	0.967
12.7309	1.012
12.7672	1.012
12.8034	1.012
12.8397	1.012
12.876	1.012
12.9122	1.012
12.9485	1.012
12.9847	1.012
13.021	1.01
13.0572	1.01
13.0935	1.01
13.1297	1.01
13.166	1.01
13.2022	1.01
13.2385	1.01
13.2748	1.01
13.311	1.01
13.3473	1.01
13.3835	1.01
13.4198	1.012
13.456	1.012
13.4923	1.012
13.5285	1.012
13.5648	1.012
13.601	1.012
13.6373	1.012
13.6735	1.012
13.7098	1.012
13.7461	1.012
13.7823	1.012
13.8186	1.012
13.8548	1.012
13.8911	1.012
13.9273	1.012
13.9636	1.012
13.9998	1.01
14.0361	1.008
14.0723	1.007
14.1086	1.005
14.1448	1
14.1811	0.996
14.2174	0.989
14.2536	0.967
14.2899	0.965
14.3261	0.947
14.3624	0.928
14.3986	0.926
14.4349	0.922
14.4711	0.917
14.5074	0.912
14.5436	0.91
14.5799	0.91
14.6162	0.912
14.6524	0.915
14.6887	0.924
14.7249	0.928
14.7612	0.931
14.7974	0.938
14.8337	0.951
14.8699	0.976
14.9062	1.005
14.9424	1.01
14.9787	1.01
15.0149	1.012
15.0512	1.01
15.0875	1.001
15.1237	0.929
15.16	0.757
15.1962	0.648
15.2325	0.649
15.2687	0.698
15.305	0.746
15.3412	0.791
15.3775	0.822
15.4137	0.84
15.45	0.85
15.4862	0.859
