Infrared Spectrum: 2,2,3',4'-TETRACHLOROPROPIONANILIDE
Formula: C9 H7 Cl4 N O
CAS: 37995-08-7
State: SOLUTION (SATURATED IN CCl4 FOR 5000-1310 CM^-^1, SATURATED IN CS2 FOR 1310-625 CM^-^1)
Class: COBLENTZ
Instrument: Not specified, most likely a prism, grating, or hybrid spectrometer.
Sampling: TRANSMISSION
Path length: 0.01 CM, 0.01 CM
Resolution: 4
Origin: DOW CHEMICAL COMPANY
MICROMETERS	TRANSMITTANCE
2.028	0.827
2.06714	0.83
2.10627	0.83
2.14541	0.832
2.18454	0.837
2.22368	0.837
2.26282	0.837
2.30195	0.842
2.34109	0.845
2.38022	0.842
2.41936	0.847
2.4585	0.853
2.49763	0.858
2.53677	0.858
2.5759	0.855
2.61504	0.855
2.65418	0.859
2.69331	0.856
2.73245	0.856
2.77158	0.845
2.81072	0.842
2.84986	0.832
2.88899	0.689
2.92813	0.64
2.96726	0.798
3.0064	0.829
3.04554	0.835
3.08467	0.838
3.12381	0.838
3.16294	0.83
3.20208	0.818
3.24121	0.834
3.28035	0.835
3.31949	0.826
3.35862	0.834
3.39776	0.842
3.43689	0.859
3.47603	0.859
3.51517	0.861
3.5543	0.861
3.59344	0.866
3.63257	0.863
3.67171	0.867
3.71085	0.867
3.74998	0.867
3.78912	0.869
3.82825	0.871
3.86739	0.876
3.90653	0.876
3.94566	0.871
3.9848	0.874
4.02393	0.874
4.06307	0.869
4.10221	0.871
4.14134	0.88
4.18048	0.879
4.21961	0.864
4.25875	0.861
4.29789	0.866
4.33702	0.867
4.37616	0.877
4.41529	0.885
4.45443	0.884
4.49357	0.888
4.5327	0.888
4.57184	0.888
4.61097	0.89
4.65011	0.89
4.68925	0.892
4.72838	0.896
4.76752	0.898
4.80665	0.898
4.84579	0.895
4.88493	0.89
4.92406	0.893
4.9632	0.89
5.00233	0.89
5.04147	0.896
5.08061	0.896
5.11974	0.898
5.15888	0.9
5.19801	0.896
5.23715	0.884
5.27629	0.885
5.31542	0.884
5.35456	0.877
5.39369	0.888
5.43283	0.88
5.47197	0.88
5.5111	0.877
5.55024	0.871
5.58937	0.867
5.62851	0.848
5.66764	0.819
5.70678	0.78
5.74592	0.652
5.78505	0.339
5.82419	0.177
5.86332	0.304
5.90246	0.618
5.9416	0.747
5.98073	0.803
6.01987	0.814
6.059	0.809
6.09814	0.789
6.13728	0.758
6.17641	0.677
6.21555	0.433
6.25468	0.217
6.29382	0.228
6.33296	0.421
6.37209	0.457
6.41123	0.4
6.45036	0.368
6.4895	0.294
6.52864	0.188
6.56777	0.12
6.60691	0.119
6.64604	0.31
6.68518	0.463
6.72432	0.362
6.76345	0.328
6.80259	0.611
6.84172	0.65
6.88086	0.679
6.92	0.711
6.95913	0.797
6.99827	0.813
7.0374	0.816
7.07654	0.776
7.11568	0.653
7.15481	0.428
7.19395	0.383
7.23308	0.421
7.27222	0.771
7.31136	0.818
7.35049	0.842
7.38963	0.855
7.42876	0.848
7.4679	0.847
7.50704	0.842
7.54617	0.827
7.58531	0.801
7.62444	0.676
7.66358	0.528
7.70272	0.449
7.74185	0.639
7.78099	0.798
7.82012	0.819
7.85926	0.826
7.89839	0.837
7.93753	0.848
7.97667	0.845
8.0158	0.764
8.05494	0.65
8.09407	0.549
8.13321	0.658
8.17235	0.689
8.21148	0.784
8.25062	0.824
8.28975	0.848
8.32889	0.858
8.36803	0.859
8.40716	0.856
8.4463	0.848
8.48543	0.838
8.52457	0.829
8.56371	0.813
8.60284	0.777
8.64198	0.732
8.68111	0.698
8.72025	0.66
8.75939	0.542
8.79852	0.373
8.83766	0.31
8.87679	0.367
8.91593	0.434
8.95507	0.536
8.9942	0.661
9.03334	0.752
9.07247	0.766
9.11161	0.756
9.15075	0.724
9.18988	0.653
9.22902	0.492
9.26815	0.304
9.30729	0.272
9.34643	0.52
9.38556	0.685
9.4247	0.761
9.46383	0.787
9.50297	0.797
9.54211	0.777
9.58124	0.752
9.62038	0.702
9.65951	0.599
9.69865	0.539
9.73779	0.768
9.77692	0.829
9.81606	0.871
9.85519	0.882
9.89433	0.898
9.93347	0.9
9.9726	0.913
10.0117	0.916
10.0509	0.919
10.09	0.919
10.1291	0.924
10.1683	0.927
10.2074	0.927
10.2466	0.93
10.2857	0.932
10.3248	0.93
10.364	0.929
10.4031	0.927
10.4422	0.921
10.4814	0.914
10.5205	0.898
10.5596	0.877
10.5988	0.85
10.6379	0.779
10.677	0.714
10.7162	0.719
10.7553	0.782
10.7945	0.824
10.8336	0.834
10.8727	0.834
10.9119	0.809
10.951	0.752
10.9901	0.705
11.0293	0.714
11.0684	0.753
11.1075	0.75
11.1467	0.734
11.1858	0.726
11.225	0.71
11.2641	0.671
11.3032	0.6
11.3424	0.531
11.3815	0.521
11.4206	0.578
11.4598	0.611
11.4989	0.623
11.538	0.618
11.5772	0.595
11.6163	0.529
11.6554	0.463
11.6946	0.46
11.7337	0.568
11.7729	0.645
11.812	0.716
11.8511	0.743
11.8903	0.756
11.9294	0.761
11.9685	0.763
12.0077	0.753
12.0468	0.735
12.0859	0.689
12.1251	0.613
12.1642	0.52
12.2034	0.494
12.2425	0.542
12.2816	0.565
12.3208	0.508
12.3599	0.396
12.399	0.394
12.4382	0.537
12.4773	0.64
12.5164	0.689
12.5556	0.7
12.5947	0.69
12.6338	0.666
12.673	0.623
12.7121	0.571
12.7513	0.512
12.7904	0.473
12.8295	0.471
12.8687	0.528
12.9078	0.581
12.9469	0.619
12.9861	0.642
13.0252	0.64
13.0643	0.608
13.1035	0.571
13.1426	0.56
13.1818	0.592
13.2209	0.631
13.26	0.648
13.2992	0.628
13.3383	0.579
13.3774	0.552
13.4166	0.59
13.4557	0.652
13.4948	0.7
13.534	0.714
13.5731	0.718
13.6122	0.721
13.6514	0.719
13.6905	0.711
13.7297	0.705
13.7688	0.698
13.8079	0.692
13.8471	0.684
13.8862	0.671
13.9253	0.665
13.9645	0.655
14.0036	0.647
14.0427	0.632
14.0819	0.621
14.121	0.605
14.1601	0.586
14.1993	0.563
14.2384	0.547
14.2776	0.533
14.3167	0.529
14.3558	0.529
14.395	0.526
14.4341	0.516
14.4732	0.508
14.5124	0.507
14.5515	0.505
14.5906	0.5
14.6298	0.484
14.6689	0.468
14.7081	0.454
14.7472	0.439
14.7863	0.434
14.8255	0.434
14.8646	0.436
14.9037	0.428
14.9429	0.429
14.982	0.439
15.0211	0.438
15.0603	0.428
15.0994	0.42
15.1385	0.412
15.1777	0.402
15.2168	0.388
15.256	0.368
15.2951	0.349
15.3342	0.328
15.3734	0.293
15.4125	0.257
15.4516	0.219
15.4908	0.19
15.5299	0.178
15.569	0.175
15.6082	0.18
15.6473	0.193
15.6865	0.202
15.7256	0.215
15.7647	0.23
15.8039	0.236
15.843	0.236
15.8821	0.22
