Infrared Spectrum: 2-Ethoxypyrazine
Formula: C 6 H 8 N 2 O
CAS: 38028-67-0
State: gas
Origin: EPA-IR VAPOR PHASE LIBRARY
1/CM	ABSORBANCE
549.8	0.002744
559.445	0.002184
569.09	0.001834
578.734	0.002644
588.379	0.006484
598.024	0.012574
607.669	0.012114
617.313	0.005504
626.958	0.003134
636.603	0.003844
646.248	0.003734
655.893	0.004014
665.537	0.003454
675.182	0.002454
684.827	0.0010525
694.472	0.0006246
704.116	0.0007839
713.761	0.000541
723.406	0.000866
733.051	0.002384
742.695	0.003774
752.34	0.005314
761.985	0.003684
771.63	0.002294
781.275	0.002174
790.919	0.002434
800.564	0.004174
810.209	0.008324
819.854	0.018264
829.498	0.030384
839.143	0.041434
848.788	0.026794
858.433	0.013434
868.078	0.005484
877.722	0.003934
887.367	0.005484
897.012	0.011814
906.657	0.019194
916.301	0.024074
925.946	0.018294
935.591	0.010094
945.236	0.005684
954.88	0.005324
964.525	0.005374
974.17	0.007544
983.815	0.014834
993.46	0.031444
1003.1	0.039674
1012.75	0.054674
1022.39	0.067064
1032.04	0.079074
1041.68	0.069054
1051.33	0.061534
1060.97	0.062144
1070.62	0.052534
1080.26	0.031154
1089.91	0.032314
1099.55	0.029984
1109.2	0.022314
1118.84	0.019234
1128.49	0.023984
1138.13	0.039244
1147.78	0.046284
1157.42	0.039694
1167.07	0.040474
1176.71	0.045484
1186.36	0.042234
1196	0.025094
1205.64	0.014034
1215.29	0.008944
1224.93	0.009474
1234.58	0.011624
1244.22	0.020134
1253.87	0.035554
1263.51	0.068664
1273.16	0.156844
1282.8	0.245044
1292.45	0.229034
1302.09	0.150024
1311.74	0.151654
1321.38	0.120954
1331.03	0.079274
1340.67	0.051104
1350.32	0.046814
1359.96	0.049074
1369.61	0.058254
1379.25	0.097764
1388.9	0.138574
1398.54	0.140984
1408.18	0.152404
1417.83	0.152524
1427.47	0.096884
1437.12	0.035334
1446.76	0.033624
1456.41	0.051144
1466.05	0.064824
1475.7	0.056764
1485.34	0.028574
1494.99	0.016314
1504.63	0.018004
1514.28	0.045354
1523.92	0.125924
1533.57	0.171534
1543.21	0.120794
1552.86	0.032704
1562.5	0.028194
1572.15	0.046144
1581.79	0.045774
1591.44	0.025164
1601.08	0.009964
1610.73	0.007704
1620.37	0.007034
1630.01	0.006604
1639.66	0.005604
1649.3	0.004714
1658.95	0.004304
1668.59	0.003954
1678.24	0.003204
1687.88	0.002484
1697.53	0.002084
1707.17	0.002084
1716.82	0.002004
1726.46	0.002584
1736.11	0.003374
1745.75	0.003944
1755.4	0.004004
1765.04	0.003804
1774.69	0.004064
1784.33	0.003944
1793.98	0.003074
1803.62	0.002314
1813.27	0.002494
1822.91	0.002904
1832.55	0.003054
1842.2	0.003094
1851.84	0.002974
1861.49	0.002994
1871.13	0.002944
1880.78	0.003214
1890.42	0.003734
1900.07	0.004284
1909.71	0.004334
1919.36	0.003964
1929	0.003634
1938.65	0.003224
1948.29	0.002944
1957.94	0.002624
1967.58	0.002134
1977.23	0.001654
1986.87	0.001424
1996.52	0.001297
2006.16	0.0012495
2015.81	0.0013076
2025.45	0.001354
2035.1	0.001354
2044.74	0.001454
2054.38	0.001644
2064.03	0.001794
2073.67	0.001684
2083.32	0.001874
2092.96	0.002124
2102.61	0.002694
2112.25	0.003134
2121.9	0.003144
2131.54	0.002744
2141.19	0.002344
2150.83	0.001974
2160.48	0.001594
2170.12	0.0013094
2179.77	0.001404
2189.41	0.001504
2199.06	0.001634
2208.7	0.001794
2218.35	0.001744
2227.99	0.001764
2237.64	0.001654
2247.28	0.001654
2256.92	0.001534
2266.57	0.001464
2276.21	0.001404
2285.86	0.001644
2295.5	0.001744
2305.15	0.002044
2314.79	0.002234
2324.44	0.002504
2334.08	0.002674
2343.73	0.002824
2353.37	0.002784
2363.02	0.002614
2372.66	0.002414
2382.31	0.001944
2391.95	0.001494
2401.6	0.001614
2411.24	0.001774
2420.89	0.001724
2430.53	0.001934
2440.18	0.002034
2449.82	0.002094
2459.47	0.002214
2469.11	0.001984
2478.75	0.001924
2488.4	0.002024
2498.04	0.001864
2507.69	0.001454
2517.33	0.0012572
2526.98	0.001334
2536.62	0.001394
2546.27	0.001444
2555.91	0.001874
2565.56	0.002004
2575.2	0.002004
2584.85	0.002024
2594.49	0.001914
2604.14	0.001874
2613.78	0.001534
2623.43	0.0012294
2633.07	0.0010985
2642.72	0.0009417
2652.36	0.0009288
2662.01	0.0010898
2671.65	0.0011824
2681.29	0.0012579
2690.94	0.001714
2700.58	0.001974
2710.23	0.002114
2719.87	0.002084
2729.52	0.002234
2739.16	0.002144
2748.81	0.002324
2758.45	0.002524
2768.1	0.002674
2777.74	0.002804
2787.39	0.002644
2797.03	0.002684
2806.68	0.003064
2816.32	0.003424
2825.97	0.003634
2835.61	0.003744
2845.26	0.004064
2854.9	0.004814
2864.55	0.006454
2874.19	0.009814
2883.84	0.012704
2893.48	0.014604
2903.12	0.016864
2912.77	0.018734
2922.41	0.020614
2932.06	0.027384
2941.7	0.035384
2951.35	0.036024
2960.99	0.033344
2970.64	0.040864
2980.28	0.053314
2989.93	0.056624
2999.57	0.046754
3009.22	0.032914
3018.86	0.020174
3028.51	0.013814
3038.15	0.013594
3047.8	0.022464
3057.44	0.045714
3067.09	0.054864
3076.73	0.041494
3086.38	0.014754
3096.02	0.006964
3105.67	0.004164
3115.31	0.002964
3124.95	0.002434
3134.6	0.002174
3144.24	0.002284
3153.89	0.002164
3163.53	0.001754
3173.18	0.001584
3182.82	0.0011694
3192.47	0.0010273
3202.11	0.0008143
3211.76	0.0008249
3221.4	0.0007707
3231.05	0.0007549
3240.69	0.0005718
3250.34	0.0006153
3259.98	0.0005457
3269.63	0.00036567
3279.27	0.00039525
3288.92	0.0006182
3298.56	0.0005746
3308.21	0.00036202
3317.85	0.0006244
3327.49	0.0006263
3337.14	0.0007092
3346.78	0.0005429
3356.43	0.0004709
3366.07	0.0002263
3375.72	0.0002267
3385.36	0.00014
3395.01	0.00030711
3404.65	0.0002619
3414.3	0.0004651
3423.94	0.00037329
3433.59	0.0005296
3443.23	0.0004322
3452.88	0.00033347
3462.52	0.0004593
3472.17	0.00035779
3481.81	0.0006161
3491.46	0.000225
3501.1	0.0004304
3510.75	0.00031094
3520.39	0.00047
3530.04	0.0004746
3539.68	0.0005092
3549.32	0.00038576
3558.97	0.0004445
3568.61	0.0005684
3578.26	0.0002358
3587.9	0.0002294
3597.55	0.00033628
3607.19	0.00036663
3616.84	0.00011
3626.48	0.00030952
3636.13	0.00040524
3645.77	0.0002512
3655.42	0.000318481
3665.06	0.0003822
3674.71	0.000203
3684.35	0.00037935
3694	0.00036786
3703.64	0.000468
3713.29	0.0004223
3722.93	0.0004155
3732.58	0.00037498
3742.22	0.00032765
3751.86	0.000203
3761.51	0.0006363
3771.15	0.0002677
3780.8	0.0004176
3790.44	0.00037479
3800.09	0.0007459
3809.73	0.00032821
3819.38	0.000203
3829.02	0.0005037
3838.67	0.0006577
3848.31	0.0006119
3857.96	0.000678
3867.6	0.000638
3877.25	0.0004755
3886.89	0.0007803
3896.54	0.0005887
3906.18	0.0006873
3915.83	0.000613
3925.47	0.0006429
3935.12	0.0004981
3944.76	0.0002519
3954.41	0.000566
3964.05	0.0004629
3973.69	0.0006028
3983.34	0.0007966
3992.98	0.0007429
