Infrared Spectrum: PHOSGARD 2XC20
Formula: C13 H24 Cl6 O8 P2
CAS: 38051-10-4
State: (NEAT)
Class: COBLENTZ
Instrument: PERKIN-ELMER 283
Sampling: TRANSMISSION
Path length: FILM, CsI WINDOW
Resolution: 4
Origin: PERKIN-ELMER
1/CM	TRANSMITTANCE
202.922	0.789
212.662	0.834
222.403	0.865
232.143	0.868
241.883	0.894
251.623	0.869
261.364	0.867
271.104	0.887
280.844	0.903
290.585	0.92
300.325	0.931
310.065	0.932
319.805	0.944
329.546	0.938
339.286	0.922
349.026	0.891
358.767	0.856
368.507	0.855
378.247	0.858
387.987	0.849
397.728	0.797
407.468	0.747
417.208	0.767
426.948	0.82
436.689	0.855
446.429	0.863
456.169	0.847
465.91	0.781
475.65	0.74
485.39	0.729
495.13	0.729
504.871	0.73
514.611	0.736
524.351	0.73
534.092	0.73
543.832	0.75
553.572	0.783
563.312	0.845
573.053	0.89
582.793	0.907
592.533	0.896
602.274	0.929
612.014	0.932
621.754	0.93
631.494	0.92
641.235	0.891
650.975	0.825
660.715	0.57
670.456	0.552
680.196	0.802
689.936	0.892
699.676	0.854
709.417	0.843
719.157	0.849
728.897	0.772
738.638	0.701
748.378	0.664
758.118	0.689
767.858	0.758
777.599	0.803
787.339	0.649
797.079	0.632
806.82	0.709
816.56	0.781
826.3	0.779
836.04	0.722
845.781	0.652
855.521	0.603
865.261	0.562
875.001	0.552
884.742	0.593
894.482	0.642
904.222	0.64
913.963	0.578
923.703	0.529
933.443	0.522
943.183	0.489
952.924	0.442
962.664	0.414
972.404	0.334
982.145	0.4611
991.885	0.548
1001.63	0.401
1011.37	0.212
1021.11	0.132
1030.85	0.127
1040.59	0.15
1050.33	0.22
1060.07	0.256
1069.81	0.224
1079.55	0.218
1089.29	0.286
1099.03	0.396
1108.77	0.478
1118.51	0.621
1128.25	0.721
1137.99	0.787
1147.73	0.824
1157.47	0.856
1167.21	0.86
1176.95	0.865
1186.69	0.852
1196.43	0.736
1206.17	0.729
1215.91	0.814
1225.65	0.84
1235.39	0.821
1245.13	0.722
1254.87	0.501
1264.61	0.397
1274.35	0.299
1284.09	0.241
1293.83	0.309
1303.57	0.44
1313.31	0.512
1323.05	0.656
1332.79	0.772
1342.54	0.873
1352.28	0.913
1362.02	0.921
1371.76	0.921
1381.5	0.898
1391.24	0.84
1400.98	0.889
1410.72	0.918
1420.46	0.903
1430.2	0.69
1439.94	0.708
1449.68	0.758
1459.42	0.73
1469.16	0.734
1478.9	0.823
1488.64	0.929
1498.38	0.952
1508.12	0.963
1517.86	0.963
1527.6	0.963
1537.34	0.966
1547.08	0.966
1556.82	0.969
1566.56	0.963
1576.3	0.963
1586.04	0.963
1595.78	0.962
1605.52	0.962
1615.26	0.963
1625	0.966
1634.74	0.966
1644.48	0.963
1654.22	0.975
1663.96	0.966
1673.7	0.969
1683.44	0.967
1693.19	0.963
1702.93	0.966
1712.67	0.949
1722.41	0.923
1732.15	0.907
1741.89	0.93
1751.63	0.95
1761.37	0.953
1771.11	0.953
1780.85	0.952
1790.59	0.953
1800.33	0.953
1810.07	0.95
1819.81	0.95
1829.55	0.949
1839.29	0.949
1849.03	0.952
1858.77	0.952
1868.51	0.949
1878.25	0.949
1887.99	0.949
1897.73	0.945
1907.47	0.949
1917.21	0.949
1926.95	0.95
1936.69	0.952
1946.43	0.953
1956.17	0.953
1965.91	0.954
1975.65	0.958
1985.39	0.958
1995.13	0.958
2004.87	0.9555
2014.61	0.953
2024.35	0.953
2034.1	0.953
2043.84	0.9565
2053.58	0.957
2063.32	0.958
2073.06	0.958
2082.8	0.958
2092.54	0.958
2102.28	0.9585
2112.02	0.9575
2121.76	0.958
2131.5	0.9575
2141.24	0.954
2150.98	0.958
2160.72	0.9585
2170.46	0.958
2180.2	0.958
2189.94	0.958
2199.68	0.958
2209.42	0.957
2219.16	0.9525
2228.9	0.953
2238.64	0.953
2248.38	0.953
2258.12	0.953
2267.86	0.953
2277.6	0.954
2287.34	0.953
2297.08	0.9525
2306.82	0.9525
2316.56	0.9565
2326.3	0.956
2336.04	0.957
2345.78	0.9565
2355.52	0.9575
2365.26	0.96
2375	0.951
2384.75	0.9485
2394.49	0.948
2404.23	0.9475
2413.97	0.949
2423.71	0.949
2433.45	0.949
2443.19	0.949
2452.93	0.949
2462.67	0.948
2472.41	0.949
2482.15	0.949
2491.89	0.948
2501.63	0.947
2511.37	0.943
2521.11	0.943
2530.85	0.943
2540.59	0.9435
2550.33	0.944
2560.07	0.943
2569.81	0.943
2579.55	0.943
2589.29	0.944
2599.03	0.946
2608.77	0.946
2618.51	0.943
2628.25	0.943
2637.99	0.943
2647.73	0.943
2657.47	0.943
2667.21	0.943
2676.95	0.941
2686.69	0.9405
2696.43	0.94
2706.17	0.939
2715.91	0.939
2725.66	0.938
2735.4	0.937
2745.14	0.933
2754.88	0.932
2764.62	0.932
2774.36	0.934
2784.1	0.935
2793.84	0.935
2803.58	0.935
2813.32	0.934
2823.06	0.931
2832.8	0.924
2842.54	0.919
2852.28	0.913
2862.02	0.911
2871.76	0.9005
2881.5	0.881
2891.24	0.862
2900.98	0.858
2910.72	0.864
2920.46	0.8755
2930.2	0.8745
2939.94	0.8425
2949.68	0.7831
2959.42	0.724
2969.16	0.718
2978.9	0.7655
2988.64	0.8315
2998.38	0.8595
3008.12	0.874
3017.86	0.875
3027.6	0.8815
3037.34	0.9005
3047.08	0.911
3056.82	0.9205
3066.56	0.925
3076.31	0.926
3086.05	0.929
3095.79	0.93
3105.53	0.931
3115.27	0.9315
3125.01	0.931
3134.75	0.932
3144.49	0.936
3154.23	0.938
3163.97	0.935
3173.71	0.935
3183.45	0.9355
3193.19	0.938
3202.93	0.939
3212.67	0.939
3222.41	0.939
3232.15	0.939
3241.89	0.9365
3251.63	0.935
3261.37	0.938
3271.11	0.935
3280.85	0.936
3290.59	0.938
3300.33	0.9355
3310.07	0.936
3319.81	0.9385
3329.55	0.938
3339.29	0.934
3349.03	0.934
3358.77	0.932
3368.51	0.931
3378.25	0.9315
3387.99	0.931
3397.73	0.931
3407.47	0.931
3417.22	0.931
3426.96	0.931
3436.7	0.931
3446.44	0.931
3456.18	0.931
3465.92	0.932
3475.66	0.932
3485.4	0.932
3495.14	0.934
3504.88	0.936
3514.62	0.935
3524.36	0.939
3534.1	0.936
3543.84	0.939
3553.58	0.9385
3563.32	0.939
3573.06	0.94
3582.8	0.94
3592.54	0.94
3602.28	0.94
3612.02	0.9405
3621.76	0.9405
3631.5	0.94
3641.24	0.94
3650.98	0.9395
3660.72	0.9395
3670.46	0.939
3680.2	0.9405
3689.94	0.94
3699.68	0.94
3709.42	0.94
3719.16	0.94
3728.9	0.94
3738.64	0.94
3748.38	0.94
3758.13	0.94
3767.87	0.94
3777.61	0.941
3787.35	0.941
3797.09	0.94
3806.83	0.94
3816.57	0.939
3826.31	0.94
3836.05	0.939
3845.79	0.939
3855.53	0.938
3865.27	0.939
3875.01	0.939
3884.75	0.939
3894.49	0.938
3904.23	0.938
3913.97	0.937
3923.71	0.9385
3933.45	0.938
3943.19	0.936
3952.93	0.936
3962.67	0.937
3972.41	0.935
3982.15	0.932
3991.89	0.932
