Infrared Spectrum: RHODANINE, 5-BENZYLIDENE
Formula: C10 H7 N O S2
CAS: 3806-42-6
State: SOLID (KBr PELLET)
Melting point: 202-204 C
Class: COBLENTZ
Instrument: Not specified, most likely a prism, grating, or hybrid spectrometer.
Sampling: TRANSMISSION
Resolution: 4
Origin: TENNESSEE EASTMAN COMPANY, RESEARCH LABORATORIES
MICROMETERS	TRANSMITTANCE
2.02	0.49
2.05953	0.5
2.09906	0.512
2.13859	0.524
2.17812	0.539
2.21765	0.55
2.25718	0.564
2.2967	0.579
2.33623	0.592
2.37576	0.6
2.41529	0.608
2.45482	0.615
2.49435	0.627
2.53388	0.638
2.57341	0.648
2.61294	0.657
2.65247	0.672
2.692	0.682
2.73153	0.68
2.77106	0.638
2.81059	0.595
2.85011	0.559
2.88964	0.525
2.92917	0.524
2.9687	0.537
3.00823	0.574
3.04776	0.585
3.08729	0.542
3.12682	0.414
3.16635	0.219
3.20588	0.242
3.24541	0.256
3.28494	0.242
3.32447	0.367
3.364	0.467
3.40352	0.499
3.44305	0.502
3.48258	0.434
3.52211	0.534
3.56164	0.665
3.60117	0.685
3.6407	0.698
3.68023	0.727
3.71976	0.758
3.75929	0.768
3.79882	0.78
3.83835	0.798
3.87788	0.813
3.91741	0.833
3.95693	0.843
3.99646	0.846
4.03599	0.846
4.07552	0.858
4.11505	0.861
4.15458	0.873
4.19411	0.881
4.23364	0.881
4.27317	0.883
4.3127	0.883
4.35223	0.883
4.39176	0.893
4.43129	0.906
4.47082	0.913
4.51034	0.921
4.54987	0.925
4.5894	0.928
4.62893	0.93
4.66846	0.931
4.70799	0.931
4.74752	0.938
4.78705	0.94
4.82658	0.945
4.86611	0.948
4.90564	0.95
4.94517	0.948
4.9847	0.95
5.02423	0.948
5.06375	0.946
5.10328	0.946
5.14281	0.948
5.18234	0.951
5.22187	0.951
5.2614	0.951
5.30093	0.951
5.34046	0.95
5.37999	0.928
5.41952	0.936
5.45905	0.941
5.49858	0.941
5.53811	0.938
5.57764	0.915
5.61716	0.915
5.65669	0.915
5.69622	0.865
5.73575	0.745
5.77528	0.474
5.81481	0.219
5.85434	0.068
5.89387	0.118
5.9334	0.209
5.97293	0.089
6.01246	0.419
6.05199	0.574
6.09152	0.652
6.13104	0.673
6.17057	0.683
6.2101	0.387
6.24963	0.079
6.28916	0.131
6.32869	0.425
6.36822	0.475
6.40775	0.673
6.44728	0.792
6.48681	0.803
6.52634	0.815
6.56587	0.818
6.6054	0.826
6.64493	0.753
6.68445	0.552
6.72398	0.818
6.76351	0.811
6.80304	0.728
6.84257	0.627
6.8821	0.189
6.92163	0.049
6.96116	0.209
7.00069	0.502
7.04022	0.678
7.07975	0.738
7.11928	0.775
7.15881	0.79
7.19834	0.793
7.23786	0.795
7.27739	0.795
7.31692	0.8
7.35645	0.81
7.39598	0.758
7.43551	0.515
7.47504	0.574
7.51457	0.712
7.5541	0.608
7.59363	0.312
7.63316	0.326
7.67269	0.445
7.71222	0.269
7.75175	0.256
7.79127	0.442
7.8308	0.594
7.87033	0.627
7.90986	0.65
7.94939	0.635
7.98892	0.475
8.02845	0.121
8.06798	0.063
8.10751	0.131
8.14704	0.267
8.18657	0.502
8.2261	0.61
8.26563	0.449
8.30516	0.133
8.34468	0.053
8.38421	0.109
8.42374	0.281
8.46327	0.46
8.5028	0.617
8.54233	0.708
8.58186	0.725
8.62139	0.727
8.66092	0.783
8.70045	0.825
8.73998	0.84
8.77951	0.85
8.81904	0.853
8.85857	0.858
8.89809	0.863
8.93762	0.865
8.97715	0.866
9.01668	0.858
9.05621	0.836
9.09574	0.833
9.13527	0.841
9.1748	0.86
9.21433	0.821
9.25386	0.66
9.29339	0.627
9.33292	0.68
9.37245	0.708
9.41198	0.742
9.4515	0.823
9.49103	0.863
9.53056	0.878
9.57009	0.885
9.60962	0.895
9.64915	0.896
9.68868	0.871
9.72821	0.866
9.76774	0.866
9.80727	0.712
9.8468	0.63
9.88633	0.632
9.92586	0.772
9.96539	0.83
10.0049	0.836
10.0444	0.858
10.084	0.906
10.1235	0.918
10.163	0.921
10.2026	0.921
10.2421	0.903
10.2816	0.9
10.3211	0.911
10.3607	0.92
10.4002	0.93
10.4397	0.935
10.4793	0.936
10.5188	0.938
10.5583	0.94
10.5979	0.94
10.6374	0.94
10.6769	0.94
10.7164	0.94
10.756	0.935
10.7955	0.903
10.835	0.72
10.8746	0.687
10.9141	0.86
10.9536	0.913
10.9931	0.921
11.0327	0.923
11.0722	0.895
11.1117	0.848
11.1513	0.856
11.1908	0.903
11.2303	0.921
11.2699	0.926
11.3094	0.93
11.3489	0.933
11.3884	0.936
11.428	0.936
11.4675	0.936
11.507	0.936
11.5466	0.935
11.5861	0.933
11.6256	0.918
11.6651	0.895
11.7047	0.778
11.7442	0.74
11.7837	0.81
11.8233	0.831
11.8628	0.831
11.9023	0.823
11.9418	0.797
11.9814	0.765
12.0209	0.74
12.0604	0.725
12.1	0.698
12.1395	0.66
12.179	0.61
12.2186	0.575
12.2581	0.545
12.2976	0.532
12.3371	0.532
12.3767	0.535
12.4162	0.565
12.4557	0.597
12.4953	0.622
12.5348	0.64
12.5743	0.662
12.6138	0.68
12.6534	0.695
12.6929	0.708
12.7324	0.715
12.772	0.718
12.8115	0.72
12.851	0.707
12.8906	0.597
12.9301	0.48
12.9696	0.424
13.0091	0.384
13.0487	0.387
13.0882	0.462
13.1277	0.652
13.1673	0.782
13.2068	0.848
13.2463	0.885
13.2858	0.913
13.3254	0.92
13.3649	0.926
13.4044	0.935
13.444	0.941
13.4835	0.945
13.523	0.948
13.5625	0.948
13.6021	0.95
13.6416	0.955
13.6811	0.956
13.7207	0.96
13.7602	0.96
13.7997	0.96
13.8393	0.96
13.8788	0.96
13.9183	0.956
13.9578	0.911
13.9974	0.831
14.0369	0.792
14.0764	0.808
14.116	0.851
14.1555	0.896
14.195	0.92
14.2345	0.926
14.2741	0.926
14.3136	0.923
14.3531	0.895
14.3927	0.82
14.4322	0.758
14.4717	0.71
14.5113	0.67
14.5508	0.577
14.5903	0.417
14.6298	0.321
14.6694	0.272
14.7089	0.247
14.7484	0.241
14.788	0.239
14.8275	0.241
14.867	0.289
14.9065	0.372
14.9461	0.495
14.9856	0.652
15.0251	0.778
15.0647	0.845
15.1042	0.876
15.1437	0.898
15.1832	0.915
15.2228	0.918
15.2623	0.921
15.3018	0.923
15.3414	0.923
15.3809	0.923
15.4204	0.923
15.46	0.923
15.4995	0.921
15.539	0.908
15.5785	0.871
15.6181	0.813
15.6576	0.763
15.6971	0.72
15.7367	0.712
15.7762	0.713
15.8157	0.722
15.8552	0.73
15.8948	0.743
15.9343	0.752
15.9738	0.758
