Infrared Spectrum: Diethyl phenylthiomethylphosphonate
Formula: C 11 H 17 O 3 P S
CAS: 38066-16-9
State: gas
Origin: EPA-IR VAPOR PHASE LIBRARY
1/CM	ABSORBANCE
501.5	0.014019
513.074	0.018549
524.648	0.023549
536.222	0.016839
547.796	0.007929
559.37	0.003889
570.944	0.002509
582.518	0.001959
594.092	0.001669
605.666	0.001739
617.24	0.001869
628.814	0.002089
640.388	0.002929
651.962	0.004769
663.536	0.008209
675.11	0.012739
686.684	0.019409
698.258	0.021969
709.832	0.016969
721.406	0.018439
732.98	0.023389
744.554	0.024159
756.128	0.017279
767.702	0.016139
779.276	0.019809
790.85	0.026479
802.423	0.034359
813.997	0.041509
825.571	0.039389
837.145	0.018999
848.719	0.009669
860.293	0.006979
871.867	0.006219
883.441	0.006439
895.015	0.007899
906.589	0.011229
918.163	0.018249
929.737	0.035189
941.311	0.067829
952.885	0.084589
964.459	0.067639
976.033	0.039679
987.607	0.025959
999.181	0.028339
1010.76	0.049089
1022.33	0.108249
1033.9	0.162419
1045.48	0.148929
1057.05	0.132489
1068.63	0.100469
1080.2	0.058159
1091.77	0.046249
1103.35	0.038639
1114.92	0.025309
1126.49	0.019499
1138.07	0.017059
1149.64	0.016249
1161.22	0.015799
1172.79	0.017879
1184.36	0.019119
1195.94	0.011719
1207.51	0.007509
1219.09	0.006649
1230.66	0.007219
1242.23	0.009229
1253.81	0.016889
1265.38	0.047309
1276.96	0.075849
1288.53	0.040859
1300.1	0.020599
1311.68	0.011219
1323.25	0.006519
1334.83	0.004689
1346.4	0.004319
1357.97	0.005579
1369.55	0.009949
1381.12	0.014109
1392.7	0.019789
1404.27	0.013529
1415.84	0.007419
1427.42	0.007579
1438.99	0.009409
1450.57	0.008539
1462.14	0.008039
1473.71	0.013849
1485.29	0.014849
1496.86	0.005479
1508.44	0.003379
1520.01	0.002619
1531.58	0.002239
1543.16	0.002169
1554.73	0.002649
1566.31	0.004329
1577.88	0.008789
1589.45	0.007939
1601.03	0.003519
1612.6	0.002259
1624.18	0.001839
1635.75	0.001779
1647.32	0.001749
1658.9	0.001669
1670.47	0.001629
1682.05	0.001629
1693.62	0.001699
1705.19	0.001839
1716.77	0.001949
1728.34	0.002019
1739.92	0.002139
1751.49	0.002249
1763.06	0.002359
1774.64	0.002659
1786.21	0.002899
1797.79	0.002679
1809.36	0.002349
1820.93	0.002159
1832.51	0.002139
1844.08	0.002269
1855.66	0.002459
1867.23	0.002609
1878.8	0.002469
1890.38	0.001969
1901.95	0.001539
1913.53	0.0013829
1925.1	0.001495
1936.67	0.001639
1948.25	0.001749
1959.82	0.0012994
1971.4	0.0008588
1982.97	0.0007759
1994.54	0.0006498
2006.12	0.00060848
2017.69	0.00054586
2029.27	0.000509926
2040.84	0.00050079
2052.41	0.00052847
2063.99	0.00056628
2075.56	0.00055265
2087.14	0.00054527
2098.71	0.00057088
2110.28	0.00056572
2121.86	0.00053858
2133.43	0.00051959
2145.01	0.000518671
2156.58	0.00053907
2168.15	0.00054745
2179.73	0.00057649
2191.3	0.0005292
2202.88	0.00052104
2214.45	0.00051981
2226.02	0.000510168
2237.6	0.0004649
2249.17	0.000513252
2260.74	0.0004917
2272.32	0.00050038
2283.89	0.00050498
2295.47	0.00051172
2307.04	0.00059787
2318.61	0.0006709
2330.19	0.0006891
2341.76	0.0006579
2353.34	0.00057905
2364.91	0.0004766
2376.48	0.0004389
2388.06	0.0004298
2399.63	0.0004415
2411.21	0.000477
2422.78	0.000509921
2434.35	0.00053603
2445.93	0.00052485
2457.5	0.00054152
2469.08	0.0005052
2480.65	0.0004264
2492.22	0.000401
2503.8	0.000389
2515.37	0.000393
2526.95	0.0004412
2538.52	0.0005278
2550.09	0.0004983
2561.67	0.00056776
2573.24	0.00056474
2584.82	0.0004631
2596.39	0.0004301
2607.96	0.0004281
2619.54	0.000387
2631.11	0.000371
2642.69	0.000363
2654.26	0.0004198
2665.83	0.00039
2677.41	0.000405
2688.98	0.000368
2700.56	0.000384
2712.13	0.0004658
2723.7	0.0006685
2735.28	0.0008934
2746.85	0.0009588
2758.43	0.0010352
2770	0.0011939
2781.57	0.0013332
2793.15	0.0011865
2804.72	0.0011964
2816.3	0.0014112
2827.87	0.001709
2839.44	0.002029
2851.02	0.002619
2862.59	0.003709
2874.17	0.006039
2885.74	0.007969
2897.31	0.009419
2908.89	0.013389
2920.46	0.016839
2932.04	0.022209
2943.61	0.023869
2955.18	0.017809
2966.76	0.019779
2978.33	0.029329
2989.91	0.033879
3001.48	0.022849
3013.05	0.015059
3024.63	0.010979
3036.2	0.007529
3047.78	0.006949
3059.35	0.011859
3070.92	0.018029
3082.5	0.011639
3094.07	0.006489
3105.65	0.002879
3117.22	0.001699
3128.79	0.0013677
3140.37	0.0013898
3151.94	0.0012599
3163.52	0.0010132
3175.09	0.0008203
3186.66	0.0007073
3198.24	0.0006485
3209.81	0.0005982
3221.39	0.00053897
3232.96	0.0004935
3244.53	0.0004124
3256.11	0.000388
3267.68	0.000279
3279.26	0.000223
3290.83	0.000193
3302.4	0.000211
3313.98	0.00016
3325.55	0.000202
3337.13	0.000168
3348.7	0.000135
3360.27	0.000145
3371.85	0.000228
3383.42	0.00014
3395	0.000112
3406.57	0.000174
3418.14	7.5e-05
3429.72	5.2e-05
3441.29	0.000101
3452.86	9.8e-05
3464.44	0.000116
3476.01	0.000107
3487.59	0.000143
3499.16	9.6e-05
3510.73	0.000142
3522.31	8.3e-05
3533.88	0.000134
3545.46	0.000123
3557.03	4e-06
3568.6	5.6e-05
3580.18	6.5e-05
3591.75	7.4e-05
3603.33	0.000118
3614.9	9e-05
3626.47	4.8e-05
3638.05	0.000173
3649.62	0.000148
3661.2	0.000108
3672.77	0.000178
3684.34	0.000195
3695.92	0.000354
3707.49	0.000201
3719.07	0.000181
3730.64	0.000234
3742.21	0.000256
3753.79	0.000259
3765.36	0.00021
3776.94	0.00028
3788.51	0.000259
3800.08	0.000158
3811.66	0.000163
3823.23	9.4e-05
3834.81	0.000139
3846.38	9.4e-05
3857.95	0.000149
3869.53	7.3e-05
3881.1	0.000205
3892.68	0.00019
3904.25	0.000101
3915.82	0.000223
3927.4	7.8e-05
3938.97	0.000272
3950.55	0.000304
3962.12	0.000231
3973.69	0.0003
3985.27	0.000268
3996.84	0.000392
