Infrared Spectrum: 3-NITROACENAPHTHENE
Formula: C12 H9 O2 N
CAS: 3807-77-0
Melting point: 150-151 C
Class: COBLENTZ
Instrument: Not specified, most likely a prism, grating, or hybrid spectrometer.
Sampling: TRANSMISSION
Resolution: 4
Origin: PROF. T. URBANSKI, INSTITUTE OF TECHNOLOGY, WARSZAWA, POLAND
1/CM	TRANSMITTANCE
1000	0.923
1005.73	0.931
1011.45	0.942
1017.18	0.943
1022.9	0.936
1028.63	0.896
1034.36	0.857
1040.08	0.88
1045.81	0.923
1051.53	0.931
1057.26	0.93
1062.99	0.929
1068.71	0.926
1074.44	0.92
1080.16	0.917
1085.89	0.915
1091.62	0.912
1097.34	0.909
1103.07	0.906
1108.79	0.904
1114.52	0.901
1120.25	0.898
1125.97	0.895
1131.7	0.887
1137.42	0.869
1143.15	0.82
1148.88	0.551
1154.6	0.513
1160.33	0.824
1166.05	0.862
1171.78	0.878
1177.51	0.751
1183.23	0.728
1188.96	0.861
1194.68	0.887
1200.41	0.882
1206.13	0.869
1211.86	0.811
1217.59	0.478
1223.31	0.478
1229.04	0.668
1234.76	0.777
1240.49	0.845
1246.22	0.87
1251.94	0.833
1257.67	0.77
1263.39	0.781
1269.12	0.829
1274.85	0.79
1280.57	0.604
1286.3	0.483
1292.02	0.674
1297.75	0.752
1303.48	0.747
1309.2	0.647
1314.93	0.427
1320.65	0.278
1326.38	0.062
1332.11	0.068
1337.83	0.12
1343.56	0.161
1349.28	0.067
1355.01	0.163
1360.74	0.287
1366.46	0.405
1372.19	0.59
1377.91	0.724
1383.64	0.798
1389.37	0.801
1395.09	0.835
1400.82	0.873
1406.54	0.856
1412.27	0.778
1418	0.657
1423.72	0.536
1429.45	0.503
1435.17	0.666
1440.9	0.607
1446.63	0.403
1452.35	0.519
1458.08	0.628
1463.8	0.58
1469.53	0.54
1475.26	0.584
1480.98	0.447
1486.71	0.299
1492.43	0.184
1498.16	0.269
1503.89	0.476
1509.61	0.668
1515.34	0.187
1521.06	0.186
1526.79	0.297
1532.52	0.387
1538.24	0.491
1543.97	0.73
1549.69	0.787
1555.42	0.79
1561.14	0.782
1566.87	0.78
1572.6	0.765
1578.32	0.708
1584.05	0.55
1589.77	0.521
1595.5	0.483
1601.23	0.507
1606.95	0.57
1612.68	0.322
1618.4	0.197
1624.13	0.45
1629.86	0.674
1635.58	0.839
1641.31	0.898
1647.03	0.928
1652.76	0.917
1658.49	0.904
1664.21	0.896
1669.94	0.885
1675.66	0.891
1681.39	0.912
1687.12	0.919
1692.84	0.925
1698.57	0.92
1704.29	0.922
1710.02	0.922
1715.75	0.913
1721.47	0.912
1727.2	0.909
1732.92	0.903
1738.65	0.903
1744.38	0.913
1750.1	0.92
1755.83	0.926
1761.55	0.93
1767.28	0.929
1773.01	0.922
1778.73	0.918
1784.46	0.906
1790.18	0.875
1795.91	0.871
1801.64	0.881
1807.36	0.894
1813.09	0.903
1818.81	0.91
1824.54	0.915
1830.27	0.918
1835.99	0.917
1841.72	0.912
1847.44	0.913
1853.17	0.912
1858.9	0.905
1864.62	0.885
1870.35	0.887
1876.07	0.893
1881.8	0.898
1887.53	0.897
1893.25	0.895
1898.98	0.893
1904.7	0.89
1910.43	0.887
1916.16	0.884
1921.88	0.879
1927.61	0.864
1933.33	0.839
1939.06	0.801
1944.78	0.819
1950.51	0.839
1956.24	0.863
1961.96	0.879
1967.69	0.884
1973.41	0.885
1979.14	0.884
1984.87	0.883
1990.59	0.882
1996.32	0.88
2002.04	0.879
2007.77	0.878
2013.5	0.877
2019.22	0.876
2024.95	0.875
2030.67	0.874
2036.4	0.874
2042.13	0.872
2047.85	0.871
2053.58	0.869
2059.3	0.869
2065.03	0.868
2070.76	0.866
2076.48	0.86
2082.21	0.855
2087.93	0.857
2093.66	0.858
2099.39	0.858
2105.11	0.858
2110.84	0.858
2116.56	0.859
2122.29	0.858
2128.02	0.856
2133.74	0.852
2139.47	0.849
2145.19	0.847
2150.92	0.847
2156.65	0.846
2162.37	0.844
2168.1	0.842
2173.82	0.839
2179.55	0.838
2185.28	0.837
2191	0.837
2196.73	0.837
2202.45	0.834
2208.18	0.832
2213.91	0.828
2219.63	0.825
2225.36	0.823
2231.08	0.82
2236.81	0.817
2242.54	0.815
2248.26	0.808
2253.99	0.802
2259.71	0.796
2265.44	0.794
2271.17	0.795
2276.89	0.795
2282.62	0.793
2288.34	0.792
2294.07	0.79
2299.8	0.786
2305.52	0.782
2311.25	0.776
2316.97	0.772
2322.7	0.773
2328.42	0.777
2334.15	0.783
2339.88	0.788
2345.6	0.791
2351.33	0.794
2357.05	0.799
2362.78	0.804
2368.51	0.809
2374.23	0.808
2379.96	0.805
2385.68	0.796
2391.41	0.789
2397.14	0.78
2402.86	0.776
2408.59	0.774
2414.31	0.771
2420.04	0.769
2425.77	0.768
2431.49	0.767
2437.22	0.766
2442.94	0.764
2448.67	0.764
2454.4	0.763
2460.12	0.761
2465.85	0.756
2471.57	0.747
2477.3	0.745
2483.03	0.744
2488.75	0.742
2494.48	0.743
2500.2	0.745
2505.93	0.747
2511.66	0.748
2517.38	0.749
2523.11	0.75
2528.83	0.75
2534.56	0.749
2540.29	0.748
2546.01	0.748
2551.74	0.747
2557.46	0.745
2563.19	0.743
2568.92	0.742
2574.64	0.741
2580.37	0.74
2586.09	0.741
2591.82	0.741
2597.55	0.74
2603.27	0.739
2609	0.737
2614.72	0.736
2620.45	0.734
2626.18	0.732
2631.9	0.731
2637.63	0.729
2643.35	0.728
2649.08	0.728
2654.81	0.727
2660.53	0.726
2666.26	0.725
2671.98	0.724
2677.71	0.724
2683.43	0.723
2689.16	0.723
2694.89	0.722
2700.61	0.721
2706.34	0.72
2712.06	0.717
2717.79	0.713
2723.52	0.71
2729.24	0.705
2734.97	0.702
2740.69	0.699
2746.42	0.699
2752.15	0.698
2757.87	0.698
2763.6	0.699
2769.32	0.701
2775.05	0.699
2780.78	0.697
2786.5	0.694
2792.23	0.688
2797.95	0.682
2803.68	0.677
2809.41	0.674
2815.13	0.671
2820.86	0.667
2826.58	0.659
2832.31	0.647
2838.04	0.618
2843.76	0.576
2849.49	0.516
2855.21	0.453
2860.94	0.44
2866.67	0.451
2872.39	0.469
2878.12	0.488
2883.84	0.485
2889.57	0.476
2895.3	0.436
2901.02	0.375
2906.75	0.316
2912.47	0.27
2918.2	0.23
2923.93	0.222
2929.65	0.224
2935.38	0.233
2941.1	0.255
2946.83	0.268
2952.56	0.286
2958.28	0.335
2964.01	0.386
2969.73	0.439
2975.46	0.49
2981.19	0.518
2986.91	0.535
2992.64	0.546
2998.36	0.55
3004.09	0.546
3009.82	0.543
3015.54	0.538
3021.27	0.534
3026.99	0.529
3032.72	0.525
3038.45	0.522
3044.17	0.518
3049.9	0.517
3055.62	0.516
3061.35	0.513
3067.07	0.509
3072.8	0.503
3078.53	0.496
3084.25	0.49
3089.98	0.489
3095.7	0.498
3101.43	0.509
3107.16	0.523
3112.88	0.538
3118.61	0.548
3124.33	0.557
3130.06	0.562
3135.79	0.567
3141.51	0.57
3147.24	0.571
3152.96	0.572
3158.69	0.573
3164.42	0.573
3170.14	0.572
3175.87	0.571
3181.59	0.57
3187.32	0.569
3193.05	0.567
3198.77	0.565
3204.5	0.564
3210.22	0.564
3215.95	0.562
3221.68	0.561
3227.4	0.562
3233.13	0.564
3238.85	0.564
3244.58	0.562
