Infrared Spectrum: 4-ETHOXYCARBONYL-Alpha,Alpha,4-TRIPHENYL-1-PIPERIDINEBUTYRONITRILE, HYDROCHLORIDE
Formula: C30 H33 Cl N2 O2
CAS: 3810-80-8
State: SOLID (NUJOL MULL)
Class: COBLENTZ III
Instrument: Not specified, most likely a prism spectrometer.
Instrument parameters: NaCl PRISM
Sampling: TRANSMISSION
Resolution: 2
Origin: SMITH KLINE & FRENCH LABS.
MICROMETERS	TRANSMITTANCE
2.013	0.77
2.04722	0.773
2.08143	0.776
2.11565	0.779
2.14986	0.783
2.18408	0.787
2.21829	0.792
2.25251	0.796
2.28673	0.784
2.32094	0.769
2.35516	0.773
2.38937	0.778
2.42359	0.784
2.45781	0.789
2.49202	0.801
2.52624	0.817
2.56045	0.823
2.59467	0.827
2.62888	0.834
2.6631	0.833
2.69732	0.835
2.73153	0.824
2.76575	0.824
2.79996	0.823
2.83418	0.818
2.86839	0.806
2.90261	0.767
2.93683	0.767
2.97104	0.779
3.00526	0.785
3.03947	0.79
3.07369	0.79
3.10791	0.79
3.14212	0.787
3.17634	0.781
3.21055	0.773
3.24477	0.759
3.27898	0.696
3.3132	0.643
3.34742	0.557
3.38163	0.256
3.41585	0.062
3.45006	0.056
3.48428	0.084
3.51849	0.079
3.55271	0.307
3.58693	0.625
3.62114	0.689
3.65536	0.702
3.68957	0.702
3.72379	0.695
3.75801	0.673
3.79222	0.636
3.82644	0.649
3.86065	0.669
3.89487	0.66
3.92908	0.62
3.9633	0.627
3.99752	0.582
4.03173	0.517
4.06595	0.452
4.10016	0.483
4.13438	0.405
4.16859	0.339
4.20281	0.315
4.23703	0.342
4.27124	0.403
4.30546	0.496
4.33967	0.649
4.37389	0.735
4.40811	0.769
4.44232	0.776
4.47654	0.782
4.51075	0.798
4.54497	0.811
4.57918	0.819
4.6134	0.839
4.64762	0.859
4.68183	0.875
4.71605	0.891
4.75026	0.899
4.78448	0.906
4.81869	0.909
4.85291	0.915
4.88713	0.917
4.92134	0.917
4.95556	0.918
4.98977	0.915
5.02399	0.9
5.05821	0.914
5.09242	0.917
5.12664	0.918
5.16085	0.921
5.19507	0.922
5.22928	0.923
5.2635	0.921
5.29772	0.917
5.33193	0.911
5.36615	0.932
5.40036	0.934
5.43458	0.927
5.46879	0.923
5.50301	0.918
5.53723	0.916
5.57144	0.916
5.60566	0.912
5.63987	0.908
5.67409	0.892
5.70831	0.825
5.74252	0.586
5.77674	0.239
5.81095	0.607
5.84517	0.798
5.87938	0.818
5.9136	0.829
5.94782	0.833
5.98203	0.835
6.01625	0.789
6.05046	0.782
6.08468	0.81
6.11889	0.828
6.15311	0.834
6.18733	0.821
6.22154	0.77
6.25576	0.747
6.28997	0.708
6.32419	0.692
6.35841	0.692
6.39262	0.689
6.42684	0.698
6.46105	0.718
6.49527	0.712
6.52948	0.738
6.5637	0.769
6.59792	0.765
6.63213	0.707
6.66635	0.532
6.70056	0.472
6.73478	0.565
6.76899	0.481
6.80321	0.287
6.83743	0.229
6.87164	0.187
6.90586	0.201
6.94007	0.353
6.97429	0.57
7.00851	0.598
7.04272	0.69
7.07694	0.605
7.11115	0.587
7.14537	0.644
7.17958	0.642
7.2138	0.476
7.24802	0.382
7.28223	0.382
7.31645	0.525
7.35066	0.659
7.38488	0.718
7.41909	0.73
7.45331	0.748
7.48753	0.742
7.52174	0.715
7.55596	0.703
7.59017	0.657
7.62439	0.631
7.65861	0.633
7.69282	0.684
7.72704	0.684
7.76125	0.686
7.79547	0.754
7.82968	0.769
7.8639	0.769
7.89812	0.696
7.93233	0.558
7.96655	0.614
8.00076	0.668
8.03498	0.533
8.06919	0.638
8.10341	0.692
8.13763	0.558
8.17184	0.454
8.20606	0.311
8.24027	0.272
8.27449	0.551
8.30871	0.674
8.34292	0.703
8.37714	0.721
8.41135	0.756
8.44557	0.754
8.47978	0.567
8.514	0.57
8.54822	0.649
8.58243	0.615
8.61665	0.594
8.65086	0.665
8.68508	0.692
8.71929	0.581
8.75351	0.333
8.78773	0.297
8.82194	0.614
8.85616	0.714
8.89037	0.713
8.92459	0.721
8.95881	0.723
8.99302	0.684
9.02724	0.725
9.06145	0.775
9.09567	0.784
9.12988	0.788
9.1641	0.799
9.19832	0.77
9.23253	0.695
9.26675	0.74
9.30096	0.821
9.33518	0.827
9.36939	0.828
9.40361	0.816
9.43783	0.789
9.47204	0.785
9.50626	0.788
9.54047	0.79
9.57469	0.796
9.60891	0.792
9.64312	0.72
9.67734	0.644
9.71155	0.594
9.74577	0.544
9.77998	0.538
9.8142	0.592
9.84842	0.683
9.88263	0.759
9.91685	0.77
9.95106	0.724
9.98528	0.68
10.0195	0.77
10.0537	0.796
10.0879	0.8
10.1221	0.775
10.1564	0.759
10.1906	0.785
10.2248	0.818
10.259	0.824
10.2932	0.828
10.3274	0.83
10.3617	0.841
10.3959	0.846
10.4301	0.845
10.4643	0.834
10.4985	0.817
10.5327	0.818
10.5669	0.827
10.6012	0.819
10.6354	0.784
10.6696	0.773
10.7038	0.811
10.738	0.847
10.7722	0.851
10.8065	0.828
10.8407	0.777
10.8749	0.773
10.9091	0.805
10.9433	0.828
10.9775	0.834
11.0118	0.825
11.046	0.844
11.0802	0.879
11.1144	0.888
11.1486	0.893
11.1828	0.892
11.217	0.881
11.2513	0.885
11.2855	0.891
11.3197	0.897
11.3539	0.902
11.3881	0.904
11.4223	0.9
11.4566	0.889
11.4908	0.871
11.525	0.831
11.5592	0.799
11.5934	0.793
11.6276	0.8
11.6619	0.814
11.6961	0.842
11.7303	0.864
11.7645	0.892
11.7987	0.892
11.8329	0.874
11.8671	0.881
11.9014	0.881
11.9356	0.876
11.9698	0.87
12.004	0.888
12.0382	0.903
12.0724	0.909
12.1067	0.906
12.1409	0.911
12.1751	0.914
12.2093	0.908
12.2435	0.903
12.2777	0.903
12.312	0.906
12.3462	0.899
12.3804	0.904
12.4146	0.908
12.4488	0.891
12.483	0.883
12.5172	0.875
12.5515	0.87
12.5857	0.86
12.6199	0.85
12.6541	0.825
12.6883	0.827
12.7225	0.831
12.7568	0.823
12.791	0.799
12.8252	0.782
12.8594	0.718
12.8936	0.585
12.9278	0.444
12.9621	0.453
12.9963	0.548
13.0305	0.57
13.0647	0.568
13.0989	0.542
13.1331	0.434
13.1673	0.327
13.2016	0.449
13.2358	0.634
13.27	0.743
13.3042	0.785
13.3384	0.811
13.3726	0.819
13.4069	0.827
13.4411	0.828
13.4753	0.827
13.5095	0.822
13.5437	0.812
13.5779	0.795
13.6122	0.761
13.6464	0.706
13.6806	0.61
13.7148	0.53
13.749	0.577
13.7832	0.703
13.8174	0.762
13.8517	0.77
13.8859	0.782
13.9201	0.781
13.9543	0.775
13.9885	0.75
14.0227	0.673
14.057	0.522
14.0912	0.38
14.1254	0.443
14.1596	0.584
14.1938	0.591
14.228	0.557
14.2623	0.525
14.2965	0.475
14.3307	0.366
14.3649	0.256
14.3991	0.274
14.4333	0.478
14.4675	0.66
14.5018	0.731
14.536	0.771
14.5702	0.781
14.6044	0.779
14.6386	0.778
14.6728	0.777
14.7071	0.777
14.7413	0.776
14.7755	0.776
14.8097	0.778
14.8439	0.779
14.8781	0.781
14.9124	0.779
14.9466	0.776
14.9808	0.773
15.015	0.771
