Infrared Spectrum: BENZOIC ACID, p-[(6-HYDROXY-3,4-XYLYL)AZO]-
Formula: C15 H14 N2 O3
CAS: 3810-51-3
State: SOLID (SPLIT MULL), FLUOROLUBE FOR 3800-1330 CM^-^1, NUJOL FOR 1330-400 CM^-^1
Class: COBLENTZ III
Instrument: DOW KBr FOREPRISM-GRATING
Instrument parameters: BLAZED AT 3.5, 12.0, 20.0 MICRON AND CHANGED AT 5.0, 7.5, 14.9 MICRON
Sampling: TRANSMISSION
Resolution: 2
Origin: DOW CHEMICAL COMPANY
1/CM	TRANSMITTANCE
382	0.6643
391	0.6647
400	0.6706
409	0.6818
418	0.685
427	0.6851
436	0.6762
445	0.6464
454	0.7044
463	0.6983
472	0.6982
481	0.7176
490	0.6975
499	0.7358
508	0.7261
517	0.7061
526	0.5564
535	0.6359
544	0.6201
553	0.6511
562	0.6518
571	0.7201
580	0.7339
589	0.7141
598	0.7612
607	0.7697
616	0.7732
625	0.7696
634	0.766
643	0.781
652	0.7775
661	0.7844
670	0.7849
679	0.7558
688	0.5483
697	0.7614
706	0.7503
715	0.6793
724	0.6294
733	0.5748
742	0.6721
751	0.614
760	0.718
769	0.6615
778	0.465
787	0.5751
796	0.5377
805	0.4643
814	0.5737
823	0.6917
832	0.6696
841	0.6944
850	0.7047
859	0.624
868	0.4231
877	0.6428
886	0.583
895	0.7281
904	0.7297
913	0.7047
922	0.6643
931	0.6233
940	0.5773
949	0.5508
958	0.5828
967	0.65
976	0.6808
985	0.6861
994	0.6522
1003	0.6009
1012	0.6805
1021	0.6617
1030	0.7061
1039	0.7076
1048	0.7178
1057	0.7101
1066	0.6815
1075	0.6671
1084	0.6542
1093	0.5571
1102	0.5675
1111	0.4879
1120	0.6303
1129	0.5636
1138	0.6329
1147	0.5782
1156	0.3362
1165	0.4103
1174	0.6127
1183	0.6139
1192	0.5525
1201	0.5212
1210	0.5029
1219	0.4419
1228	0.4482
1237	0.3418
1246	0.486
1255	0.4726
1264	0.4
1273	0.2871
1282	0.2484
1291	0.1785
1300	0.1728
1309	0.1944
1318	0.2377
1327	0.3818
1336	0.5595
1345	0.5408
1354	0.5366
1363	0.6077
1372	0.5887
1381	0.5518
1390	0.5607
1399	0.6012
1408	0.5521
1417	0.3956
1426	0.4024
1435	0.5276
1444	0.7006
1453	0.7124
1462	0.6997
1471	0.6928
1480	0.6134
1489	0.5721
1498	0.5978
1507	0.7237
1516	0.7264
1525	0.7187
1534	0.6989
1543	0.6674
1552	0.6266
1561	0.5939
1570	0.5681
1579	0.5698
1588	0.5634
1597	0.5264
1606	0.6333
1615	0.6328
1624	0.5764
1633	0.601
1642	0.6076
1651	0.5869
1660	0.5494
1669	0.4272
1678	0.2272
1687	0.2608
1696	0.4605
1705	0.7069
1714	0.7953
1723	0.8328
1732	0.8399
1741	0.8382
1750	0.8281
1759	0.8067
1768	0.7928
1777	0.785
1786	0.7749
1795	0.7693
1804	0.7651
1813	0.7621
1822	0.7608
1831	0.7584
1840	0.7537
1849	0.7484
1858	0.7462
1867	0.744
1876	0.7412
1885	0.7387
1894	0.7365
1903	0.7339
1912	0.7311
1921	0.7291
1930	0.7272
1939	0.7255
1948	0.7236
1957	0.7224
1966	0.7205
1975	0.7178
1984	0.716
1993	0.7001
2002	0.6828
2011	0.6789
2020	0.6746
2029	0.6712
2038	0.6682
2047	0.6646
2056	0.6608
2065	0.6567
2074	0.6526
2083	0.6486
2092	0.6446
2101	0.6405
2110	0.6362
2119	0.6321
2128	0.6279
2137	0.6237
2146	0.6196
2155	0.6155
2164	0.6112
2173	0.6068
2182	0.6023
2191	0.5973
2200	0.5924
2209	0.5873
2218	0.5824
2227	0.5773
2236	0.5723
2245	0.5671
2254	0.562
2263	0.5568
2272	0.5516
2281	0.547
2290	0.5424
2299	0.5379
2308	0.5334
2317	0.5294
2326	0.5255
2335	0.5215
2344	0.5185
2353	0.5156
2362	0.5132
2371	0.5119
2380	0.511
2389	0.5084
2398	0.5032
2407	0.4989
2416	0.4948
2425	0.491
2434	0.4873
2443	0.4833
2452	0.4791
2461	0.4748
2470	0.4698
2479	0.4643
2488	0.4588
2497	0.4541
2506	0.4503
2515	0.4468
2524	0.444
2533	0.4443
2542	0.4474
2551	0.452
2560	0.4564
2569	0.4557
2578	0.4541
2587	0.4517
2596	0.4491
2605	0.4464
2614	0.4437
2623	0.4412
2632	0.4397
2641	0.4399
2650	0.4406
2659	0.4438
2668	0.4471
2677	0.4514
2686	0.4531
2695	0.4528
2704	0.4505
2713	0.4482
2722	0.446
2731	0.4436
2740	0.4412
2749	0.4385
2758	0.4343
2767	0.43
2776	0.4257
2785	0.4212
2794	0.4172
2803	0.4139
2812	0.412
2821	0.4105
2830	0.4093
2839	0.408
2848	0.4075
2857	0.4076
2866	0.4076
2875	0.4073
2884	0.4066
2893	0.404
2902	0.4014
2911	0.3994
2920	0.4
2929	0.4021
2938	0.403
2947	0.4045
2956	0.4054
2965	0.4068
2974	0.421
2983	0.4244
2992	0.426
3001	0.4276
3010	0.4291
3019	0.4306
3028	0.432
3037	0.4333
3046	0.4337
3055	0.434
3064	0.4351
3073	0.437
3082	0.4389
3091	0.4409
3100	0.4426
3109	0.4433
3118	0.4441
3127	0.4443
3136	0.444
3145	0.4433
3154	0.441
3163	0.4386
3172	0.4364
3181	0.4347
3190	0.4336
3199	0.4325
3208	0.4315
3217	0.4306
3226	0.4297
3235	0.4284
3244	0.427
3253	0.4256
3262	0.4242
3271	0.4227
3280	0.421
3289	0.4193
3298	0.4177
3307	0.4169
3316	0.4162
3325	0.4156
3334	0.4148
3343	0.4139
3352	0.413
3361	0.4121
3370	0.4115
3379	0.4109
3388	0.4104
3397	0.4098
3406	0.4096
3415	0.4099
3424	0.4103
3433	0.4106
3442	0.4109
3451	0.4118
3460	0.4127
3469	0.4136
3478	0.4144
3487	0.4153
3496	0.4166
3505	0.4178
3514	0.4192
3523	0.4205
3532	0.4216
3541	0.4226
3550	0.4235
3559	0.4244
3568	0.4252
3577	0.4259
3586	0.4267
3595	0.4272
3604	0.427
3613	0.4267
3622	0.4265
3631	0.4262
3640	0.4253
3649	0.4241
3658	0.4229
3667	0.4217
3676	0.4191
3685	0.4167
3694	0.4165
3703	0.4162
3712	0.4162
3721	0.416
3730	0.4152
3739	0.4137
3748	0.4123
3757	0.4103
3766	0.4082
3775	0.4077
3784	0.4109
