Infrared Spectrum: STREPTOMYCIN SULFATE
Formula: C42 H84 N14 O36 S3
CAS: 3810-74-0
State: SOLID (1 mg / 200 mg KBr DISC)
Class: COBLENTZ III
Instrument: PERKIN-ELMER 21 (GRATING)
Instrument parameters: FILTER AT ABOUT 10 MICRONS
Sampling: TRANSMISSION
Resolution: 2
1/CM	TRANSMITTANCE
4000	0.7606
3991	0.759
3982	0.7574
3973	0.7558
3964	0.7544
3955	0.7528
3946	0.7511
3937	0.7496
3928	0.748
3919	0.7465
3910	0.7448
3901	0.7428
3892	0.7405
3883	0.7383
3874	0.736
3865	0.7337
3856	0.7314
3847	0.7292
3838	0.7268
3829	0.7245
3820	0.7221
3811	0.7198
3802	0.7174
3793	0.715
3784	0.7124
3775	0.7095
3766	0.7065
3757	0.7034
3748	0.7003
3739	0.6972
3730	0.6935
3721	0.6894
3712	0.6851
3703	0.681
3694	0.6767
3685	0.6725
3676	0.6665
3667	0.6595
3658	0.6525
3649	0.6447
3640	0.6365
3631	0.6279
3622	0.6169
3613	0.605
3604	0.5906
3595	0.5753
3586	0.5565
3577	0.5304
3568	0.4928
3559	0.475
3550	0.4602
3541	0.4501
3532	0.4414
3523	0.4326
3514	0.4237
3505	0.4122
3496	0.3977
3487	0.3852
3478	0.3745
3469	0.3637
3460	0.3477
3451	0.3314
3442	0.3187
3433	0.2997
3424	0.2762
3415	0.2624
3406	0.2507
3397	0.2427
3388	0.2361
3379	0.2335
3370	0.2322
3361	0.2318
3352	0.2317
3343	0.2316
3334	0.232
3325	0.2325
3316	0.2331
3307	0.2353
3298	0.2385
3289	0.2421
3280	0.2468
3271	0.2519
3262	0.2615
3253	0.2698
3244	0.2762
3235	0.2826
3226	0.2867
3217	0.2903
3208	0.2939
3199	0.2967
3190	0.299
3181	0.3015
3172	0.3034
3163	0.3053
3154	0.3082
3145	0.3114
3136	0.3184
3127	0.3258
3118	0.3348
3109	0.3444
3100	0.3541
3091	0.3656
3082	0.3778
3073	0.389
3064	0.3975
3055	0.406
3046	0.4146
3037	0.4229
3028	0.4312
3019	0.4395
3010	0.4479
3001	0.4562
2992	0.4641
2983	0.4721
2974	0.481
2965	0.4904
2956	0.4998
2947	0.509
2938	0.517
2929	0.5201
2920	0.5232
2911	0.5258
2902	0.5282
2893	0.5307
2884	0.5339
2875	0.5382
2866	0.5424
2857	0.5467
2848	0.5519
2839	0.5581
2830	0.5642
2821	0.5709
2812	0.5786
2803	0.5842
2794	0.5882
2785	0.5912
2776	0.5948
2767	0.5984
2758	0.6099
2749	0.6168
2740	0.6226
2731	0.6283
2722	0.6338
2713	0.6394
2704	0.6451
2695	0.6511
2686	0.6572
2677	0.6634
2668	0.6699
2659	0.6765
2650	0.6834
2641	0.6901
2632	0.6965
2623	0.7028
2614	0.7092
2605	0.7158
2596	0.723
2587	0.7301
2578	0.7376
2569	0.7457
2560	0.7535
2551	0.7598
2542	0.7657
2533	0.7708
2524	0.7754
2515	0.7795
2506	0.7819
2497	0.784
2488	0.7858
2479	0.7878
2470	0.7897
2461	0.7918
2452	0.7938
2443	0.7958
2434	0.798
2425	0.8003
2416	0.8028
2407	0.806
2398	0.8096
2389	0.8157
2380	0.8218
2371	0.8271
2362	0.8305
2353	0.8296
2344	0.8271
2335	0.8252
2326	0.824
2317	0.8251
2308	0.827
2299	0.829
2290	0.8307
2281	0.8318
2272	0.8318
2263	0.8318
2254	0.8314
2245	0.831
2236	0.8303
2227	0.8293
2218	0.8283
2209	0.8274
2200	0.8271
2191	0.8271
2182	0.8287
2173	0.8295
2164	0.8295
2155	0.8262
2146	0.8243
2137	0.8232
2128	0.8227
2119	0.8225
2110	0.8221
2101	0.8207
2092	0.8158
2083	0.8137
2074	0.8128
2065	0.8121
2056	0.8118
2047	0.8125
2038	0.8149
2029	0.8172
2020	0.8178
2011	0.8178
2002	0.8175
1993	0.8175
1984	0.8172
1975	0.8171
1966	0.8168
1957	0.8167
1948	0.8165
1939	0.8162
1930	0.816
1921	0.8155
1912	0.8144
1903	0.8134
1894	0.8121
1885	0.8098
1876	0.8072
1867	0.8021
1858	0.7908
1849	0.7869
1840	0.784
1831	0.7803
1822	0.7753
1813	0.7698
1804	0.7641
1795	0.7556
1786	0.7433
1777	0.7288
1768	0.7133
1759	0.6976
1750	0.6828
1741	0.6685
1732	0.6531
1723	0.6253
1714	0.5833
1705	0.5384
1696	0.4899
1687	0.4039
1678	0.3557
1669	0.3226
1660	0.3202
1651	0.3268
1642	0.3344
1633	0.34
1624	0.3516
1615	0.3714
1606	0.4153
1597	0.4954
1588	0.5379
1579	0.5837
1570	0.624
1561	0.6639
1552	0.6994
1543	0.7197
1534	0.7245
1525	0.7332
1516	0.7319
1507	0.7218
1498	0.705
1489	0.6834
1480	0.6533
1471	0.6331
1462	0.5931
1453	0.5854
1444	0.5969
1435	0.6033
1426	0.6015
1417	0.5972
1408	0.5891
1399	0.5843
1390	0.5757
1381	0.57
1372	0.5833
1363	0.5924
1354	0.5868
1345	0.5819
1336	0.5879
1327	0.5939
1318	0.5955
1309	0.591
1300	0.5897
1291	0.5965
1282	0.5971
1273	0.594
1264	0.5901
1255	0.5855
1246	0.5842
1237	0.5806
1228	0.5721
1219	0.5541
1210	0.5303
1201	0.5007
1192	0.4669
1183	0.4264
1174	0.3859
1165	0.3453
1156	0.3075
1147	0.2683
1138	0.2355
1129	0.2111
1120	0.1913
1111	0.1818
1102	0.1918
1093	0.2493
1084	0.2938
1075	0.3195
1066	0.319
1057	0.3139
1048	0.3099
1039	0.3109
1030	0.3141
1021	0.3268
1012	0.339
1003	0.3434
994	0.3866
985	0.4182
976	0.4466
967	0.4685
958	0.4983
949	0.5305
940	0.5518
931	0.5701
922	0.5977
913	0.6285
904	0.6593
895	0.6782
886	0.6769
877	0.6628
868	0.6422
859	0.6374
850	0.6545
841	0.6637
832	0.6676
823	0.6503
814	0.645
805	0.6461
796	0.6381
787	0.6285
778	0.6171
769	0.6019
760	0.5956
751	0.5852
742	0.5716
733	0.5588
724	0.5509
715	0.536
706	0.5302
697	0.5236
688	0.5162
679	0.5107
670	0.5066
661	0.5032
