Infrared Spectrum: Potassium chlorate
Formula: K Cl O 3
CAS: 3811-04-9
State: solid
Instrument: Bruker Tensor 37 FTIR
Resolution: 0.96450126
Origin: Pacific Northwest National Laboratory Under IARPA Contract
1/cm	Reflectance
7499	0.773254
7481.64	0.769064
7464.28	0.765386
7446.92	0.770781
7429.56	0.764142
7412.2	0.760478
7394.84	0.768529
7377.48	0.760167
7360.12	0.751796
7342.76	0.746075
7325.4	0.729258
7308.04	0.717271
7290.68	0.706521
7273.32	0.696161
7255.96	0.695875
7238.6	0.693328
7221.24	0.688198
7203.88	0.691049
7186.52	0.690322
7169.16	0.693644
7151.8	0.696387
7134.44	0.703709
7117.08	0.706349
7099.72	0.711711
7082.36	0.71962
7065	0.730725
7047.64	0.731799
7030.28	0.736047
7012.92	0.740804
6995.56	0.744196
6978.2	0.747825
6960.84	0.751052
6943.48	0.75749
6926.12	0.75688
6908.76	0.760644
6891.4	0.762255
6874.04	0.75946
6856.68	0.76551
6839.32	0.769209
6821.96	0.768148
6804.6	0.768232
6787.25	0.771724
6769.89	0.770974
6752.53	0.771769
6735.17	0.772539
6717.81	0.772933
6700.45	0.773148
6683.09	0.773226
6665.73	0.771136
6648.37	0.772874
6631.01	0.770672
6613.65	0.769848
6596.29	0.764638
6578.93	0.763488
6561.57	0.762916
6544.21	0.762374
6526.85	0.761851
6509.49	0.761913
6492.13	0.76249
6474.77	0.761201
6457.41	0.759062
6440.05	0.749299
6422.69	0.728421
6405.33	0.683483
6387.97	0.614915
6370.61	0.572876
6353.25	0.558352
6335.89	0.558461
6318.53	0.567014
6301.17	0.581672
6283.81	0.597144
6266.45	0.61354
6249.09	0.630673
6231.73	0.645073
6214.37	0.658851
6197.01	0.67118
6179.65	0.682001
6162.29	0.690745
6144.93	0.699778
6127.57	0.708738
6110.21	0.715397
6092.85	0.719149
6075.49	0.7238
6058.13	0.726476
6040.77	0.72924
6023.41	0.729351
6006.05	0.730104
5988.69	0.729979
5971.33	0.727053
5953.97	0.722755
5936.61	0.718514
5919.25	0.711577
5901.89	0.705243
5884.54	0.69624
5867.18	0.686012
5849.82	0.675343
5832.46	0.663663
5815.1	0.650604
5797.74	0.636148
5780.38	0.619998
5763.02	0.605324
5745.66	0.594072
5728.3	0.58779
5710.94	0.585885
5693.58	0.583304
5676.22	0.574094
5658.86	0.556981
5641.5	0.535594
5624.14	0.508385
5606.78	0.464266
5589.42	0.407299
5572.06	0.370491
5554.7	0.352504
5537.34	0.34069
5519.98	0.33111
5502.62	0.3229
5485.26	0.315537
5467.9	0.308368
5450.54	0.30412
5433.18	0.301106
5415.82	0.299517
5398.46	0.298221
5381.1	0.297326
5363.74	0.297667
5346.38	0.298732
5329.02	0.301614
5311.66	0.305175
5294.3	0.311152
5276.94	0.316358
5259.58	0.320453
5242.22	0.317195
5224.86	0.296393
5207.5	0.275845
5190.14	0.262567
5172.78	0.261837
5155.42	0.224831
5138.06	0.370446
5120.7	0.465767
5103.34	0.509819
5085.98	0.5365
5068.62	0.548194
5051.26	0.542288
5033.9	0.504229
5016.54	0.453887
4999.18	0.413929
4981.82	0.47512
4964.47	0.47645
4947.11	0.474467
4929.75	0.438881
4912.39	0.462911
4895.03	0.455352
4877.67	0.438414
4860.31	0.416417
4842.95	0.387023
4825.59	0.339156
4808.23	0.264953
4790.87	0.183069
4773.51	0.120931
4756.15	0.0590506
4738.79	0.0356834
4721.43	0.0323298
4704.07	0.0313662
4686.71	0.0335071
4669.35	0.0769783
4651.99	0.143808
4634.63	0.208107
4617.27	0.254642
4599.91	0.270649
4582.55	0.26056
4565.19	0.137555
4547.83	0.087145
4530.47	0.167079
4513.11	0.270556
4495.75	0.149884
4478.39	0.0597755
4461.03	0.0922018
4443.67	0.257875
4426.31	0.271769
4408.95	0.261411
4391.59	0.226259
4374.23	0.174954
4356.87	0.111726
4339.51	0.0509063
4322.15	0.0208279
4304.79	0.015676
4287.43	0.0156127
4270.07	0.0902708
4252.71	0.315277
4235.35	0.218709
4217.99	0.140438
4200.63	0.0626691
4183.27	0.051052
4165.91	0.0472218
4148.55	0.0516336
4131.19	0.0480831
4113.83	0.0426492
4096.47	0.0553488
4079.11	0.058741
4061.76	0.0528976
4044.4	0.766658
4027.04	0.752409
4009.68	0.754585
3992.32	0.762657
3974.96	0.752428
3957.6	0.754048
3940.24	0.749565
3922.88	0.741125
3905.52	0.736792
3888.16	0.727084
3870.8	0.711945
3853.44	0.695963
3836.08	0.68423
3818.72	0.674611
3801.36	0.678437
3784	0.678012
3766.64	0.672514
3749.28	0.667054
3731.92	0.676588
3714.56	0.681823
3697.2	0.681553
3679.84	0.680966
3662.48	0.690376
3645.12	0.702164
3627.76	0.703919
3610.4	0.709399
3593.04	0.716874
3575.68	0.719526
3558.32	0.722933
3540.96	0.725793
3523.6	0.734809
3506.24	0.734514
3488.88	0.745016
3471.52	0.742559
3454.16	0.73929
3436.8	0.744816
3419.44	0.743589
3402.08	0.748212
3384.72	0.752973
3367.36	0.751708
3350	0.754324
3332.64	0.751249
3315.28	0.757134
3297.92	0.754175
3280.56	0.751735
3263.2	0.756046
3245.84	0.758167
3228.48	0.7531
3211.12	0.751854
3193.76	0.753771
3176.4	0.752224
3159.04	0.750776
3141.69	0.747876
3124.33	0.743861
3106.97	0.744442
3089.61	0.742596
3072.25	0.743767
3054.89	0.742976
3037.53	0.743191
3020.17	0.74174
3002.81	0.73791
2985.45	0.726672
2968.09	0.699619
2950.73	0.645475
2933.37	0.580295
2916.01	0.547132
2898.65	0.536716
2881.29	0.54026
2863.93	0.551171
2846.57	0.565147
2829.21	0.581981
2811.85	0.598786
2794.49	0.61486
2777.13	0.628855
2759.77	0.641768
2742.41	0.654677
2725.05	0.664569
2707.69	0.673953
2690.33	0.682487
2672.97	0.690813
2655.61	0.696976
2638.25	0.701393
2620.89	0.704834
2603.53	0.708017
2586.17	0.709548
2568.81	0.712103
2551.45	0.710395
2534.09	0.709648
2516.73	0.707898
2499.37	0.703111
2482.01	0.697422
2464.65	0.691229
2447.29	0.683933
2429.93	0.674074
2412.57	0.66425
2395.21	0.652675
2377.85	0.641183
2360.49	0.62688
2343.13	0.611987
2325.77	0.595643
2308.41	0.582092
2291.05	0.572233
2273.69	0.567901
2256.33	0.566377
2238.98	0.562807
2221.62	0.552933
2204.26	0.533971
2186.9	0.511652
2169.54	0.480236
2152.18	0.43237
2134.82	0.381795
2117.46	0.351526
2100.1	0.336094
2082.74	0.325989
2065.38	0.315982
2048.02	0.308228
2030.66	0.301843
2013.3	0.295345
1995.94	0.291812
1978.58	0.289461
1961.22	0.288377
1943.86	0.286643
1926.5	0.285726
1909.14	0.28685
1891.78	0.287753
1874.42	0.291098
1857.06	0.295261
1839.7	0.30075
1822.34	0.305992
1804.98	0.3088
1787.62	0.300379
1770.26	0.278194
1752.9	0.258723
1735.54	0.2455
1718.18	0.228387
1700.82	0.223259
1683.46	0.394826
1666.1	0.464004
1648.74	0.503909
1631.38	0.526829
1614.02	0.534177
1596.66	0.522984
1579.3	0.474127
1561.94	0.401551
1544.58	0.410803
1527.22	0.468262
1509.86	0.456514
1492.5	0.455703
1475.14	0.413074
1457.78	0.448675
1440.42	0.438294
1423.06	0.42028
1405.7	0.395663
1388.34	0.364694
1370.98	0.310335
1353.62	0.232142
1336.27	0.157948
1318.91	0.0981012
1301.55	0.0475272
1284.19	0.0336607
1266.83	0.0313328
1249.47	0.0308013
1232.11	0.0354013
1214.75	0.0888748
1197.39	0.158663
1180.03	0.217727
1162.67	0.255826
1145.31	0.26468
1127.95	0.237419
1110.59	0.120992
1093.23	0.0736377
1075.87	0.183683
1058.51	0.250089
1041.15	0.138409
1023.79	0.0641906
1006.43	0.174397
989.069	0.172741
971.709	0.267882
954.349	0.251162
936.989	0.210092
919.63	0.154463
902.27	0.0939128
884.91	0.0351163
867.55	0.0188191
850.19	0.0153639
832.831	0.0178265
815.471	0.22392
798.111	0.285145
780.751	0.184012
763.391	0.0921857
746.032	0.0574455
728.672	0.0497522
711.312	0.0463263
693.952	0.0533761
676.592	0.0453008
659.232	0.0438286
641.873	0.058145
624.513	0.0483059
607.153	0.0480696
