Infrared Spectrum: 3-(Bromomethyl)pentane
Formula: C 6 H 13 Br
CAS: 3814-34-4
State: gas
Instrument: HP-GC/MS/IRD
Origin: NIST Mass Spectrometry Data Center
1/CM	ABSORBANCE
550	0.0003703
562	0.0001495
574	0.0001495
586	0.0001541
598	0.0004439
610	0.0009775
622	0.0011707
634	0.0009499
646	0.0025783
658	0.0032338
670	0.0015479
682	0.0005842
694	0.0003151
706	0.000184
718	0.0001978
730	0.0003496
742	0.0007222
754	0.0010396
766	0.0013179
778	0.0013501
790	0.0008257
802	0.0005175
814	0.000322
826	0.0001955
838	0.0002369
850	0.0002185
862	0.0001909
874	0.0001334
886	0.000161
898	0.0001794
910	0.0003381
922	0.0005681
934	0.000759
946	0.0006348
958	0.0004485
970	0.0004784
982	0.0003289
994	0.0002185
1006	0.0002783
1018	0.0004071
1030	0.000414
1042	0.0004485
1054	0.000276
1066	0.000207
1078	0.0002967
1090	0.0002323
1102	0.0001334
1114	0.0001702
1126	0.0002001
1138	0.0003013
1150	0.0003197
1162	0.0004485
1174	0.0006348
1186	0.000713
1198	0.0007291
1210	0.0014467
1222	0.0034109
1234	0.0032407
1246	0.0019941
1258	0.0023046
1270	0.0032062
1282	0.0025714
1294	0.001311
1306	0.0010557
1318	0.0008211
1330	0.0007498
1342	0.0008073
1354	0.0008648
1366	0.00092
1378	0.0016583
1390	0.0020056
1402	0.0010787
1414	0.0006785
1426	0.0011546
1438	0.0025116
1450	0.0034178
1462	0.0040204
1474	0.0030176
1486	0.0014099
1498	0.0006256
1510	0.0004232
1522	0.000322
1534	0.0002714
1546	0.0002369
1558	0.0002024
1570	0.0001472
1582	0.0001748
1594	0.0001702
1606	0.000207
1618	0.0001817
1630	0.0001909
1642	0.0001288
1654	0.0001472
1666	0.000138
1678	0.0001173
1690	0.0001127
1702	0.0001081
1714	8.97e-05
1726	8.05e-05
1738	8.74e-05
1750	0.0001012
1762	8.97e-05
1774	9.2e-05
1786	7.13e-05
1798	5.75e-05
1810	5.52e-05
1822	5.29e-05
1834	6.9e-05
1846	5.06e-05
1858	4.14e-05
1870	3.91e-05
1882	5.52e-05
1894	9.2e-06
1906	4.37e-05
1918	5.75e-05
1930	1.15e-05
1942	3.45e-05
1954	5.29e-05
1966	2.07e-05
1978	6.9e-06
1990	2.76e-05
2002	3.45e-05
2014	2.99e-05
2026	4.83e-05
2038	3.91e-05
2050	6.67e-05
2062	5.98e-05
2074	5.06e-05
2086	5.29e-05
2098	4.83e-05
2110	5.98e-05
2122	2.53e-05
2134	3.68e-05
2146	3.68e-05
2158	2.99e-05
2170	5.75e-05
2182	3.91e-05
2194	3.68e-05
2206	1.84e-05
2218	4.14e-05
2230	4.6e-06
2242	2.76e-05
2254	4.14e-05
2266	5.98e-05
2278	4.37e-05
2290	7.13e-05
2302	8.28e-05
2314	8.05e-05
2326	9.2e-05
2338	7.36e-05
2350	9.66e-05
2362	9.43e-05
2374	0.0001127
2386	0.0001104
2398	9.66e-05
2410	0.0001012
2422	8.97e-05
2434	8.97e-05
2446	6.21e-05
2458	4.6e-05
2470	5.29e-05
2482	9.89e-05
2494	9.2e-05
2506	5.29e-05
2518	5.29e-05
2530	5.52e-05
2542	4.6e-05
2554	6.9e-05
2566	0.0001081
2578	0.0001081
2590	0.0001426
2602	0.0001357
2614	0.0001656
2626	0.0001449
2638	0.0001748
2650	0.0001886
2662	0.0002484
2674	0.0002139
2686	0.0002231
2698	0.0002944
2710	0.0002806
2722	0.0002622
2734	0.0003795
2746	0.0004416
2758	0.0004393
2770	0.0004324
2782	0.0004991
2794	0.0005865
2806	0.0007567
2818	0.0009499
2830	0.0013202
2842	0.0023828
2854	0.0036179
2866	0.0052785
2878	0.0076107
2890	0.0086043
2902	0.0075233
2914	0.0082133
2926	0.0112976
2938	0.0144302
2950	0.0142761
2962	0.0182919
2974	0.0227217
2986	0.0119784
2998	0.0046851
3010	0.0032591
3022	0.0023759
3034	0.0014237
3046	0.0010396
3058	0.0008441
3070	0.0006877
3082	0.0006808
3094	0.0005819
3106	0.0005244
3118	0.0005428
3130	0.0004048
3142	0.0003473
3154	0.0003266
3166	0.0002714
3178	0.0002139
3190	0.0001932
3202	0.0001748
3214	0.0001564
3226	9.89e-05
3238	0.0001081
3250	0.000115
3262	7.36e-05
3274	6.21e-05
3286	9.2e-05
3298	4.6e-05
3310	6.9e-05
3322	1.15e-05
3334	3.45e-05
3346	1.15e-05
3358	0.0001035
3370	8.05e-05
3382	6.9e-05
3394	3.91e-05
3406	4.6e-05
3418	0.000115
3430	6.21e-05
3442	2.76e-05
3454	6.21e-05
3466	2.3e-05
3478	2.53e-05
3490	9.2e-06
3502	4.37e-05
3514	5.06e-05
3526	3.68e-05
3538	7.36e-05
3550	3.22e-05
3562	9.2e-05
3574	3.45e-05
3586	3.91e-05
3598	5.06e-05
3610	4.83e-05
3622	4.83e-05
3634	9.89e-05
3646	8.05e-05
3658	2.76e-05
3670	9.66e-05
3682	6.44e-05
3694	7.13e-05
3706	0.0001058
3718	0.0001265
3730	8.51e-05
3742	9.2e-05
3754	7.36e-05
3766	4.14e-05
3778	8.51e-05
3790	5.29e-05
3802	5.52e-05
3814	0.0001127
3826	3.91e-05
3838	0
