Infrared Spectrum: 1,3-Bis[(trimethylsilyl)ethynyl]benzene
Formula: C 16 H 22 Si 2
CAS: 38170-80-8
State: gas
Origin: EPA-IR VAPOR PHASE LIBRARY
1/CM	ABSORBANCE
549.8	0.00351
559.445	0.00279
569.09	0.00327
578.735	0.00253
588.38	0.00318
598.025	0.00239
607.67	0.00309
617.315	0.00369
626.96	0.00715
636.605	0.01673
646.251	0.04056
655.896	0.03901
665.541	0.0239
675.186	0.02764
684.831	0.03922
694.476	0.03347
704.121	0.03392
713.766	0.03061
723.411	0.0243
733.056	0.02014
742.701	0.02275
752.346	0.03668
761.991	0.05713
771.636	0.05938
781.281	0.04774
790.926	0.06099
800.571	0.03929
810.216	0.04234
819.861	0.07202
829.507	0.14702
839.152	0.25757
848.797	0.31533
858.442	0.3046
868.087	0.20586
877.732	0.12166
887.377	0.08809
897.022	0.07185
906.667	0.04712
916.312	0.03726
925.957	0.04431
935.602	0.10153
945.247	0.16101
954.892	0.04404
964.537	0.01995
974.182	0.01123
983.827	0.00777
993.472	0.00685
1003.12	0.00654
1012.76	0.00438
1022.41	0.00284
1032.05	0.0020101
1041.7	0.0019247
1051.34	0.00284
1060.99	0.00504
1070.63	0.00577
1080.28	0.00444
1089.92	0.00554
1099.57	0.00589
1109.21	0.00217
1118.86	0.0018857
1128.5	0.0023
1138.15	0.00386
1147.79	0.00722
1157.44	0.03248
1167.08	0.04118
1176.73	0.00688
1186.37	0.0041
1196.02	0.00345
1205.66	0.00419
1215.31	0.00591
1224.95	0.00972
1234.6	0.02246
1244.24	0.05388
1253.89	0.08888
1263.53	0.08636
1273.18	0.04418
1282.82	0.02234
1292.47	0.01619
1302.11	0.01066
1311.76	0.00886
1321.4	0.00544
1331.05	0.00412
1340.69	0.00385
1350.34	0.00378
1359.98	0.00381
1369.63	0.00381
1379.27	0.00376
1388.92	0.00549
1398.56	0.01105
1408.21	0.01402
1417.85	0.00822
1427.5	0.00561
1437.14	0.00411
1446.79	0.00413
1456.43	0.00638
1466.08	0.0179
1475.73	0.04927
1485.37	0.00966
1495.02	0.00355
1504.66	0.00262
1514.31	0.00266
1523.95	0.00272
1533.6	0.00261
1543.24	0.00324
1552.89	0.00585
1562.53	0.01277
1572.18	0.01911
1581.82	0.02506
1591.47	0.03642
1601.11	0.01867
1610.76	0.0047
1620.4	0.00243
1630.05	0.0018114
1639.69	0.0014392
1649.34	0.0012981
1658.98	0.001203
1668.63	0.0010589
1678.27	0.0010882
1687.92	0.0019361
1697.56	0.00313
1707.21	0.0014655
1716.85	0.000828
1726.5	0.000818
1736.14	0.000985
1745.79	0.001267
1755.43	0.0014848
1765.08	0.0012283
1774.72	0.00117632
1784.37	0.0018141
1794.01	0.0019847
1803.66	0.0021053
1813.3	0.00243
1822.95	0.0015486
1832.59	0.0011897
1842.24	0.0013233
1851.88	0.0015243
1861.53	0.0020299
1871.17	0.00318
1880.82	0.00258
1890.46	0.0017181
1900.11	0.0017089
1909.75	0.0016457
1919.4	0.0018172
1929.04	0.00273
1938.69	0.00384
1948.33	0.00312
1957.98	0.00261
1967.62	0.00241
1977.27	0.002077
1986.91	0.0016679
1996.56	0.0013434
2006.2	0.0012619
2015.85	0.001521
2025.49	0.0015614
2035.14	0.0014757
2044.78	0.0014047
2054.43	0.0013317
2064.07	0.0012872
2073.72	0.0015179
2083.36	0.001982
2093.01	0.00308
2102.65	0.00466
2112.3	0.00684
2121.94	0.01051
2131.59	0.02661
2141.23	0.07489
2150.88	0.09849
2160.52	0.04027
2170.17	0.01428
2179.81	0.00729
2189.46	0.00632
2199.1	0.0061
2208.75	0.00368
2218.39	0.00232
2228.04	0.0018029
2237.68	0.0015542
2247.33	0.0012558
2256.97	0.0010549
2266.62	0.0010307
2276.26	0.00084
2285.91	0.000735
2295.55	0.00087
2305.2	0.00098
2314.84	0.0012122
2324.49	0.0013575
2334.13	0.0013091
2343.78	0.0010635
2353.42	0.001015
2363.07	0.000686
2372.72	0.00061
2382.36	0.000551
2392.01	0.000562
2401.65	0.000646
2411.3	0.000749
2420.94	0.000806
2430.59	0.000782
2440.23	0.000864
2449.88	0.0011668
2459.52	0.0015803
2469.17	0.0016797
2478.81	0.0018056
2488.46	0.0019334
2498.1	0.0020427
2507.75	0.0017382
2517.39	0.0014979
2527.04	0.0012555
2536.68	0.000887
2546.33	0.000657
2555.97	0.000701
2565.62	0.000639
2575.26	0.000725
2584.91	0.000594
2594.55	0.000484
2604.2	0.000517
2613.84	0.000537
2623.49	0.000523
2633.13	0.00068
2642.78	0.000717
2652.42	0.000735
2662.07	0.000747
2671.71	0.00073
2681.36	0.000784
2691	0.000558
2700.65	0.000599
2710.29	0.00061
2719.94	0.000736
2729.58	0.000832
2739.23	0.000914
2748.87	0.00117081
2758.52	0.0014243
2768.16	0.0018027
2777.81	0.00239
2787.45	0.00326
2797.1	0.00438
2806.74	0.00477
2816.39	0.00483
2826.03	0.00482
2835.68	0.00509
2845.32	0.00579
2854.97	0.00675
2864.61	0.00717
2874.26	0.00777
2883.9	0.00979
2893.55	0.01504
2903.19	0.02529
2912.84	0.02258
2922.48	0.01351
2932.13	0.01072
2941.77	0.01402
2951.42	0.02904
2961.06	0.07596
2970.71	0.06717
2980.35	0.03181
2990	0.01443
2999.64	0.00806
3009.29	0.00701
3018.93	0.00676
3028.58	0.0074
3038.22	0.00684
3047.87	0.00746
3057.51	0.01111
3067.16	0.01839
3076.8	0.01411
3086.45	0.01177
3096.09	0.00957
3105.74	0.0061
3115.38	0.00481
3125.03	0.00407
3134.67	0.0034
3144.32	0.00227
3153.96	0.0016085
3163.61	0.0016157
3173.25	0.0014965
3182.9	0.0013742
3192.54	0.00114059
3202.19	0.000796
3211.83	0.000604
3221.48	0.000491
3231.12	0.000545
3240.77	0.00044
3250.41	0.00048
3260.06	0.000553
3269.7	0.000538
3279.35	0.000477
3289	0.000618
3298.64	0.000568
3308.29	0.000283
3317.93	0.000378
3327.58	0.000321
3337.22	0.000283
3346.87	3e-05
3356.51	0.000229
3366.16	0.000389
3375.8	0.000323
3385.45	0.000354
3395.09	0.000334
3404.74	0.000264
3414.38	0.00011
3424.03	0.000164
3433.67	0.000181
3443.32	0.000272
3452.96	0.000333
3462.61	0.000156
3472.25	0.0001
3481.9	0.000239
3491.54	0.000389
3501.19	0.000586
3510.83	0.00046
3520.48	0.000316
3530.12	0.000354
3539.77	0.00044
3549.41	0.00064
3559.06	0.00062
3568.7	0.000727
3578.35	0.000757
3587.99	0.000772
3597.64	0.000959
3607.28	0.000738
3616.93	0.000945
3626.57	0.0012427
3636.22	0.0010562
3645.86	0.0014481
3655.51	0.0018523
3665.15	0.0019356
3674.8	0.0015652
3684.44	0.0014198
3694.09	0.0012352
3703.73	0.000985
3713.38	0.0015534
3723.02	0.0017519
3732.67	0.0017335
3742.31	0.0016467
3751.96	0.0015694
3761.6	0.0016918
3771.25	0.0014813
3780.89	0.000961
3790.54	0.000989
3800.18	0.0012969
3809.83	0.00121046
3819.47	0.00113106
3829.12	0.0010427
3838.76	0.000371
3848.41	0.000488
3858.05	0.000313
3867.7	0.000556
3877.34	0.00047
3886.99	0.000517
3896.63	0.000277
3906.28	0.000519
3915.92	0.000319
3925.57	0.000349
3935.21	0.000281
3944.86	0.000456
3954.5	0.000326
3964.15	0.000465
3973.79	0.000477
3983.44	0.000465
3993.08	0.000559
