Infrared Spectrum: Fluorescamine
Formula: C 17 H 10 O 4
CAS: 38183-12-9
State: gas
Origin: EPA-IR VAPOR PHASE LIBRARY
1/CM	ABSORBANCE
549.8	0.0007613
559.445	0.001753
569.09	0.001219
578.734	0.001773
588.379	0.001763
598.024	0.002063
607.669	0.003923
617.313	0.005783
626.958	0.005263
636.603	0.002933
646.248	0.002443
655.893	0.002643
665.537	0.004133
675.182	0.009523
684.827	0.013403
694.472	0.010143
704.116	0.006153
713.761	0.004413
723.406	0.003763
733.051	0.005233
742.695	0.009523
752.34	0.013113
761.985	0.013363
771.63	0.009993
781.275	0.004203
790.919	0.002653
800.564	0.002803
810.209	0.003123
819.854	0.004073
829.498	0.002273
839.143	0.002343
848.788	0.003023
858.433	0.005703
868.078	0.005593
877.722	0.005883
887.367	0.004363
897.012	0.007443
906.657	0.012633
916.301	0.024613
925.946	0.069033
935.591	0.083023
945.236	0.021793
954.88	0.016293
964.525	0.005823
974.17	0.004283
983.815	0.005323
993.46	0.008323
1003.1	0.008103
1012.75	0.009243
1022.39	0.012643
1032.04	0.015473
1041.68	0.026553
1051.33	0.031293
1060.97	0.024263
1070.62	0.019493
1080.26	0.018383
1089.91	0.016353
1099.55	0.014473
1109.2	0.009123
1118.84	0.016603
1128.49	0.041573
1138.13	0.025723
1147.78	0.015503
1157.42	0.022103
1167.07	0.028023
1176.71	0.012903
1186.36	0.008143
1196	0.008093
1205.64	0.012113
1215.29	0.012493
1224.93	0.006463
1234.58	0.007063
1244.22	0.009433
1253.87	0.019783
1263.51	0.020633
1273.16	0.014523
1282.8	0.013183
1292.45	0.006473
1302.09	0.006603
1311.74	0.007543
1321.38	0.008913
1331.03	0.007763
1340.67	0.006213
1350.32	0.004743
1359.96	0.002843
1369.61	0.002113
1379.25	0.001793
1388.9	0.001603
1398.54	0.0014888
1408.18	0.001186
1417.83	0.0012885
1427.47	0.001543
1437.12	0.001683
1446.76	0.002373
1456.41	0.003023
1466.05	0.007803
1475.7	0.004213
1485.34	0.003093
1494.99	0.003343
1504.63	0.002603
1514.28	0.001593
1523.92	0.001643
1533.57	0.001653
1543.21	0.001823
1552.86	0.001683
1562.5	0.002183
1572.15	0.003043
1581.79	0.004393
1591.44	0.007423
1601.08	0.011723
1610.73	0.017133
1620.37	0.028233
1630.01	0.016283
1639.66	0.004393
1649.3	0.002643
1658.95	0.002113
1668.59	0.001913
1678.24	0.001933
1687.88	0.002063
1697.53	0.002463
1707.17	0.004213
1716.82	0.006773
1726.46	0.007033
1736.11	0.009463
1745.75	0.024023
1755.4	0.030843
1765.04	0.009813
1774.69	0.005893
1784.33	0.007553
1793.98	0.009763
1803.62	0.013373
1813.27	0.027603
1822.91	0.084333
1832.55	0.095713
1842.2	0.029673
1851.84	0.014863
1861.49	0.010203
1871.13	0.006603
1880.78	0.004373
1890.42	0.003413
1900.07	0.002853
1909.71	0.002743
1919.36	0.002763
1929	0.002753
1938.65	0.002813
1948.29	0.002273
1957.94	0.002283
1967.58	0.002243
1977.23	0.001843
1986.87	0.001533
1996.52	0.0014463
2006.16	0.001404
2015.81	0.0013248
2025.45	0.0011769
2035.1	0.0011163
2044.74	0.0010692
2054.38	0.001264
2064.03	0.0011709
2073.67	0.0010942
2083.32	0.0010551
2092.96	0.0009848
2102.61	0.0009064
2112.25	0.000781
2121.9	0.000917
2131.54	0.0008812
2141.19	0.0008478
2150.83	0.0008807
2160.48	0.0008712
2170.12	0.0007978
2179.77	0.0007657
2189.41	0.0010023
2199.06	0.0008733
2208.7	0.0009874
2218.35	0.0011677
2227.99	0.0009843
2237.64	0.0008685
2247.28	0.0010728
2256.92	0.0011173
2266.57	0.0008635
2276.21	0.0010784
2285.86	0.0008148
2295.5	0.0009316
2305.15	0.0009549
2314.79	0.000944
2324.44	0.0009873
2334.08	0.0007767
2343.73	0.0007053
2353.37	0.0008818
2363.02	0.0008345
2372.66	0.0007138
2382.31	0.00054877
2391.95	0.0006304
2401.6	0.0007281
2411.24	0.00056372
2420.89	0.000547
2430.53	0.000695
2440.18	0.0007026
2449.82	0.0006062
2459.47	0.00059739
2469.11	0.0004445
2478.75	0.000695
2488.4	0.0006693
2498.04	0.0006766
2507.69	0.0009168
2517.33	0.00057844
2526.98	0.0004702
2536.62	0.0006228
2546.27	0.00056197
2555.91	0.0006409
2565.56	0.0006416
2575.2	0.00054233
2584.85	0.0006363
2594.49	0.00057975
2604.14	0.0007231
2613.78	0.00059287
2623.43	0.0008241
2633.07	0.0006637
2642.72	0.000612
2652.36	0.0006968
2662.01	0.000469
2671.65	0.0004446
2681.29	0.00052974
2690.94	0.00056101
2700.58	0.00055208
2710.23	0.00050618
2719.87	0.000263
2729.52	0.0004942
2739.16	0.00059095
2748.81	0.0007313
2758.45	0.0007722
2768.1	0.0007392
2777.74	0.0006459
2787.39	0.0005548
2797.03	0.0004462
2806.68	0.0004839
2816.32	0.00054395
2825.97	0.0006637
2835.61	0.0006677
2845.26	0.0005965
2854.9	0.00054402
2864.55	0.00058271
2874.19	0.0006058
2883.84	0.000719
2893.48	0.0006402
2903.12	0.0006789
2912.77	0.0008777
2922.41	0.0007361
2932.06	0.0008516
2941.7	0.00058915
2951.35	0.0006977
2960.99	0.0007018
2970.64	0.0004401
2980.28	0.000645
2989.93	0.0005958
2999.57	0.0008372
3009.22	0.0011366
3018.86	0.001336
3028.51	0.003013
3038.15	0.004223
3047.8	0.004393
3057.44	0.005443
3067.09	0.007933
3076.73	0.007663
3086.38	0.007233
3096.02	0.006193
3105.67	0.002633
3115.31	0.001673
3124.95	0.0008069
3134.6	0.0008457
3144.24	0.0007912
3153.89	0.00053944
3163.53	0.0007193
3173.18	0.00055233
3182.82	0.000328
3192.47	0.00058454
3202.11	0.0004991
3211.76	0.0007078
3221.4	0.0006304
3231.05	0.0006464
3240.69	0.000503459
3250.34	0.0004705
3259.98	0.000301
3269.63	0.000366
3279.27	0.0008274
3288.92	0.00052279
3298.56	0.000484
3308.21	0.0007174
3317.85	0.000769
3327.49	0.0007157
3337.14	0.0004582
3346.78	0.000329
3356.43	0.0004856
3366.07	0.000627
3375.72	0.000288
3385.36	0.00056885
3395.01	0.0007957
3404.65	0.00055807
3414.3	0.000293
3423.94	0.000511085
3433.59	0.0007353
3443.23	0.0006259
3452.88	0.00052201
3462.52	0.00049421
3472.17	0.0008792
3481.81	0.0004834
3491.46	0.000864
3501.1	0.0006402
3510.75	0.00057563
3520.39	0.000723
3530.04	0.000412
3539.68	0.0008523
3549.32	0.0004091
3558.97	0.000313
3568.61	0.00055975
3578.26	0.0006079
3587.9	0.00057297
3597.55	0.0008043
3607.19	0.0006297
3616.84	0.0010429
3626.48	0.0012429
3636.13	0.001513
3645.77	0.0014797
3655.42	0.0009769
3665.06	0.0009552
3674.71	0.000917
3684.35	0.0007304
3694	0.0006518
3703.64	0.0004911
3713.29	0.0004308
3722.93	0.0007263
3732.58	0.0004779
3742.22	0.00058238
3751.86	0.0007154
3761.51	0.00058773
3771.15	0.00048
3780.8	0.0004095
3790.44	0.0005901
3800.09	0.00029
3809.73	0.0006769
3819.38	0.0004294
3829.02	0.0007014
3838.67	0.000455
3848.31	0.00019
3857.96	0.0004739
3867.6	0.000369
3877.25	0.000287
3886.89	0.0004514
3896.54	0.00057909
3906.18	0.0006504
3915.83	0.0007463
3925.47	0.000267
3935.12	0.000273
3944.76	0.0007391
3954.41	9.4e-05
3964.05	0.000206
3973.69	0.000237
3983.34	0.0004164
3992.98	0.0006596
