Infrared Spectrum: 3-Fluoro-5-iodonitrobenzene
Formula: C6 H3 F I N O2
CAS: 3819-88-3
State: SOLUTION (10% CCl4 FOR 3800-1330, 10% CS2 FOR 1330-400)
Class: COBLENTZ III
Instrument: BECKMAN IR-9 (GRATING)
Instrument parameters: ORDER CHANGES: 670, 1200, 2000 CM^-^1
Sampling: TRANSMISSION
Path length: 0.012 CM, 0.010 CM
Resolution: 2
Origin: DOW CHEMICAL COMPANY
1/CM	TRANSMITTANCE
3800	0.9212
3791	0.9224
3782	0.9196
3773	0.9208
3764	0.9205
3755	0.9201
3746	0.9203
3737	0.9226
3728	0.923
3719	0.9207
3710	0.9233
3701	0.9243
3692	0.9222
3683	0.92
3674	0.92
3665	0.9199
3656	0.9199
3647	0.9196
3638	0.9194
3629	0.9192
3620	0.9148
3611	0.9073
3602	0.8991
3593	0.8945
3584	0.897
3575	0.9023
3566	0.9083
3557	0.9093
3548	0.9118
3539	0.911
3530	0.9115
3521	0.9087
3512	0.9062
3503	0.9037
3494	0.9013
3485	0.9009
3476	0.9006
3467	0.9001
3458	0.9015
3449	0.9037
3440	0.9061
3431	0.9082
3422	0.909
3413	0.9093
3404	0.9097
3395	0.9101
3386	0.91
3377	0.9093
3368	0.9087
3359	0.908
3350	0.9074
3341	0.9067
3332	0.9061
3323	0.9054
3314	0.9048
3305	0.9061
3296	0.9035
3287	0.9032
3278	0.9043
3269	0.9045
3260	0.9038
3251	0.9028
3242	0.9017
3233	0.9
3224	0.898
3215	0.8952
3206	0.8885
3197	0.8764
3188	0.8796
3179	0.8778
3170	0.8719
3161	0.8678
3152	0.8623
3143	0.8504
3134	0.8432
3125	0.8262
3116	0.7977
3107	0.6254
3098	0.4487
3089	0.6178
3080	0.7978
3071	0.8532
3062	0.8697
3053	0.879
3044	0.8914
3035	0.8984
3026	0.8924
3017	0.8947
3008	0.8901
2999	0.8873
2990	0.8912
2981	0.8937
2972	0.8956
2963	0.8941
2954	0.8894
2945	0.8844
2936	0.8866
2927	0.8887
2918	0.8883
2909	0.8847
2900	0.8676
2891	0.8512
2882	0.8302
2873	0.8401
2864	0.8463
2855	0.8697
2846	0.8778
2837	0.8764
2828	0.8729
2819	0.8771
2810	0.8793
2801	0.8845
2792	0.887
2783	0.8877
2774	0.8901
2765	0.8915
2756	0.8924
2747	0.8931
2738	0.8936
2729	0.8934
2720	0.893
2711	0.8927
2702	0.8876
2693	0.8803
2684	0.8786
2675	0.8812
2666	0.8844
2657	0.8892
2648	0.8913
2639	0.8935
2630	0.8972
2621	0.8989
2612	0.8953
2603	0.8952
2594	0.898
2585	0.9008
2576	0.9025
2567	0.9037
2558	0.9042
2549	0.9026
2540	0.9006
2531	0.9015
2522	0.9023
2513	0.9029
2504	0.9031
2495	0.9025
2486	0.9015
2477	0.9053
2468	0.9102
2459	0.9122
2450	0.9115
2441	0.9126
2432	0.9102
2423	0.9107
2414	0.9124
2405	0.9134
2396	0.9127
2387	0.9121
2378	0.9157
2369	0.9161
2360	0.9188
2351	0.9252
2342	0.9254
2333	0.9244
2324	0.929
2315	0.9276
2306	0.9269
2297	0.9308
2288	0.933
2279	0.9348
2270	0.9338
2261	0.935
2252	0.9361
2243	0.9356
2234	0.9347
2225	0.9352
2216	0.9329
2207	0.9303
2198	0.9205
2189	0.9171
2180	0.9258
2171	0.9322
2162	0.931
2153	0.9312
2144	0.9322
2135	0.9348
2126	0.9358
2117	0.9357
2108	0.9357
2099	0.9355
2090	0.9335
2081	0.9286
2072	0.9265
2063	0.9293
2054	0.9318
2045	0.93
2036	0.928
2027	0.9243
2018	0.925
2009	0.9251
2000	0.9182
1991	0.9085
1982	0.9211
1973	0.9216
1964	0.923
1955	0.9255
1946	0.9216
1937	0.9218
1928	0.9208
1919	0.9193
1910	0.9167
1901	0.9176
1892	0.9209
1883	0.9201
1874	0.9184
1865	0.9167
1856	0.9172
1847	0.9166
1838	0.917
1829	0.9161
1820	0.916
1811	0.917
1802	0.9112
1793	0.9084
1784	0.8997
1775	0.8824
1766	0.8627
1757	0.8459
1748	0.844
1739	0.8751
1730	0.9048
1721	0.9158
1712	0.9207
1703	0.9192
1694	0.9133
1685	0.9073
1676	0.9016
1667	0.8982
1658	0.8922
1649	0.8929
1640	0.8895
1631	0.8684
1622	0.8272
1613	0.6208
1604	0.4986
1595	0.652
1586	0.2676
1577	0.6884
1568	0.6244
1559	0.2984
1550	0.1208
1541	0.0337
1532	0.1679
1523	0.5682
1514	0.6832
1505	0.6783
1496	0.7943
1487	0.7898
1478	0.7593
1469	0.7734
1460	0.733
1451	0.5112
1442	0.4835
1433	0.7871
1424	0.5669
1415	0.534
1406	0.8148
1397	0.8624
1388	0.8765
1379	0.8374
1370	0.7604
1361	0.5408
1352	0.0121
1343	0.2625
1334	0.3495
1325	0.4506
1316	0.7591
1307	0.7799
1298	0.7541
1289	0.824
1280	0.8823
1271	0.8825
1262	0.8785
1253	0.8441
1244	0.3696
1235	0.5462
1226	0.7803
1217	0.8321
1208	0.8707
1199	0.8953
1190	0.9135
1181	0.9048
1172	0.9023
1163	0.9051
1154	0.9104
1145	0.9038
1136	0.9111
1127	0.9096
1118	0.9052
1109	0.8922
1100	0.8663
1091	0.8347
1082	0.7764
1073	0.7093
1064	0.8576
1055	0.8996
1046	0.9163
1037	0.9165
1028	0.9202
1019	0.9195
1010	0.9116
1001	0.768
992	0.9161
983	0.9237
974	0.9156
965	0.8806
956	0.7716
947	0.4843
938	0.8523
929	0.8958
920	0.9007
911	0.8966
902	0.8436
893	0.7305
884	0.7576
875	0.2594
866	0.3587
857	0.8748
848	0.8619
839	0.6205
830	0.7586
821	0.8938
812	0.9253
803	0.9413
794	0.9427
785	0.943
776	0.9287
767	0.9137
758	0.8951
749	0.8282
740	0.3322
731	0.755
722	0.7003
713	0.8913
704	0.9112
695	0.9164
686	0.9191
677	0.9295
668	0.9252
659	0.7773
650	0.7015
641	0.9223
632	0.9177
623	0.9332
614	0.9423
605	0.9406
596	0.94
587	0.925
578	0.9048
569	0.9165
560	0.9207
551	0.9144
542	0.9021
533	0.8946
524	0.8695
515	0.8355
506	0.8656
497	0.8572
488	0.8425
479	0.8128
470	0.8076
461	0.791
452	0.736
443	0.667
434	0.5651
425	0.4682
416	0.4011
407	0.4443
398	0.5185
