Infrared Spectrum: 11Beta-HYDROXYANDROST-4-ENE-3,17-DIONE
Formula: C19 H26 O3
CAS: 382-44-5
State: SOLID (KBr DISC)
Class: COBLENTZ III
Instrument: BECKMAN IR-7
Sampling: TRANSMISSION
Resolution: 4
Origin: THE WORCESTER FOUNDATION FOR EXPERIMENTAL BIOLOGY, Neal L. McNiven
1/CM	TRANSMITTANCE
599.272	0.515
608.013	0.5
616.754	0.53
625.495	0.564
634.236	0.647
642.977	0.695
651.717	0.739
660.458	0.71
669.199	0.734
677.94	0.836
686.681	0.917
695.422	0.917
704.163	0.86
712.904	0.9339
721.645	0.9789
730.386	0.954
739.127	0.985
747.867	0.988
756.608	0.906
765.349	0.939
774.09	0.98
782.831	0.878
791.572	0.955
800.313	0.915
809.054	0.97
817.795	0.961
826.536	0.926
835.277	0.951
844.018	0.923
852.758	0.957
861.499	0.839
870.24	0.604
878.981	0.691
887.722	0.95
896.463	0.872
905.204	0.952
913.945	0.88
922.686	0.904
931.427	0.7671
940.168	0.6911
948.908	0.768
957.649	0.783
966.39	0.874
975.131	0.894
983.872	0.864
992.613	0.894
1001.35	0.806
1010.09	0.531
1018.84	0.491
1027.58	0.7119
1036.32	0.584
1045.06	0.677
1053.8	0.568
1062.54	0.714
1071.28	0.6239
1080.02	0.835
1088.76	0.732
1097.5	0.603
1106.24	0.789
1114.99	0.789
1123.73	0.772
1132.47	0.795
1141.21	0.784
1149.95	0.594
1158.69	0.58
1167.43	0.6
1176.17	0.735
1184.91	0.698
1193.65	0.581
1202.39	0.685
1211.14	0.71
1219.88	0.764
1228.62	0.558
1237.36	0.466
1246.1	0.642
1254.84	0.723
1263.58	0.683
1272.32	0.551
1281.06	0.646
1289.8	0.711
1298.54	0.77
1307.29	0.715
1316.03	0.741
1324.77	0.595
1333.51	0.691
1342.25	0.642
1350.99	0.616
1359.73	0.671
1368.47	0.716
1377.21	0.6051
1385.95	0.731
1394.69	0.764
1403.44	0.604
1412.18	0.576
1420.92	0.4801
1429.66	0.61
1438.4	0.719
1447.14	0.542
1455.88	0.708
1464.62	0.707
1473.36	0.751
1482.1	0.894
1490.84	0.914
1499.59	0.901
1508.33	0.919
1517.07	0.917
1525.81	0.902
1534.55	0.896
1543.29	0.909
1552.03	0.884
1560.77	0.87
1569.51	0.859
1578.25	0.835
1586.99	0.8
1595.74	0.754
1604.48	0.6209
1613.22	0.399
1621.96	0.49
1630.7	0.355
1639.44	0.103
1648.18	0.04
1656.92	0.104
1665.66	0.406
1674.4	0.615
1683.14	0.69
1691.89	0.687
1700.63	0.754
1709.37	0.718
1718.11	0.579
1726.85	0.2461
1735.59	0.103
1744.33	0.127
1753.07	0.562
1761.81	0.757
1770.55	0.849
1779.29	0.894
1788.04	0.914
1796.78	0.925
1805.52	0.931
1814.26	0.936
1823	0.94
1831.74	0.944
1840.48	0.947
1849.22	0.949
1857.96	0.95
1866.7	0.95
1875.45	0.95
1884.19	0.95
1892.93	0.952
1901.67	0.953
1910.41	0.955
1919.15	0.955
1927.89	0.955
1936.63	0.953
1945.37	0.95
1954.11	0.949
1962.85	0.952
1971.6	0.95
1980.34	0.951
1989.08	0.952
1997.82	0.952
2006.56	0.951
2015.3	0.951
2024.04	0.95
2032.78	0.949
2041.52	0.949
2050.26	0.949
2059	0.949
2067.75	0.949
2076.49	0.949
2085.23	0.949
2093.97	0.948
2102.71	0.9476
2111.45	0.947
2120.19	0.947
2128.93	0.9465
2137.67	0.944
2146.41	0.9435
2155.15	0.9425
2163.9	0.941
2172.64	0.941
2181.38	0.94
2190.12	0.939
2198.86	0.9384
2207.6	0.9374
2216.34	0.936
2225.08	0.936
2233.82	0.935
2242.56	0.9333
2251.3	0.933
2260.05	0.932
2268.79	0.931
2277.53	0.9303
2286.27	0.9293
2295.01	0.9282
2303.75	0.928
2312.49	0.927
2321.23	0.927
2329.97	0.927
2338.71	0.926
2347.45	0.925
2356.2	0.923
2364.94	0.921
2373.68	0.92
2382.42	0.9181
2391.16	0.9161
2399.9	0.915
2408.64	0.913
2417.38	0.912
2426.12	0.91
2434.86	0.91
2443.6	0.909
2452.35	0.907
2461.09	0.9069
2469.83	0.9049
2478.57	0.904
2487.31	0.9039
2496.05	0.902
2504.79	0.9009
2513.53	0.8988
2522.27	0.896
2531.01	0.894
2539.75	0.891
2548.5	0.8898
2557.24	0.888
2565.98	0.888
2574.72	0.8867
2583.46	0.8847
2592.2	0.8824
2600.94	0.8747
2609.68	0.8727
2618.42	0.8683
2627.16	0.8663
2635.9	0.8632
2644.65	0.859
2653.39	0.8576
2662.13	0.8552
2670.87	0.851
2679.61	0.8495
2688.35	0.8475
2697.09	0.846
2705.83	0.846
2714.57	0.846
2723.31	0.846
2732.05	0.847
2740.8	0.8486
2749.54	0.8496
2758.28	0.85
2767.02	0.8464
2775.76	0.8373
2784.5	0.82
2793.24	0.794
2801.98	0.7689
2810.72	0.7353
2819.46	0.6807
2828.2	0.593
2836.95	0.4219
2845.69	0.575
2854.43	0.599
2863.17	0.5779
2871.91	0.4806
2880.65	0.4043
2889.39	0.3015
2898.13	0.3086
2906.87	0.3221
2915.61	0.247
2924.35	0.383
2933.1	0.3862
2941.84	0.3625
2950.58	0.4007
2959.32	0.5046
2968.06	0.6468
2976.8	0.694
2985.54	0.6202
2994.28	0.7325
3003.02	0.796
3011.76	0.8031
3020.5	0.8091
3029.25	0.8121
3037.99	0.8185
3046.73	0.831
3055.47	0.833
3064.21	0.8329
3072.95	0.83
3081.69	0.8288
3090.43	0.825
3099.17	0.8238
3107.91	0.8218
3116.65	0.8188
3125.4	0.8168
3134.14	0.814
3142.88	0.812
3151.62	0.8117
3160.36	0.8087
3169.1	0.8057
3177.84	0.8027
3186.58	0.7993
3195.32	0.7956
3204.06	0.7922
3212.8	0.7876
3221.55	0.7826
3230.29	0.7771
3239.03	0.7706
3247.77	0.7546
3256.51	0.7435
3265.25	0.7355
3273.99	0.7249
3282.73	0.7109
3291.47	0.7039
3300.21	0.6924
3308.95	0.6824
3317.7	0.6602
3326.44	0.6319
3335.18	0.6
3343.92	0.5679
3352.66	0.5387
3361.4	0.5046
3370.14	0.4717
3378.88	0.4417
3387.62	0.4091
3396.36	0.3739
3405.1	0.315
3413.85	0.312
3422.59	0.319
3431.33	0.3366
3440.07	0.3677
3448.81	0.415
3457.55	0.462
3466.29	0.5196
3475.03	0.5613
3483.77	0.5913
3492.51	0.6201
3501.25	0.6483
3510	0.6658
3518.74	0.6868
3527.48	0.7019
3536.22	0.726
3544.96	0.748
3553.7	0.7631
3562.44	0.7831
3571.18	0.7932
3579.92	0.8013
3588.66	0.8163
3597.4	0.8294
3606.15	0.8359
3614.89	0.8401
3623.63	0.8421
3632.37	0.8465
3641.11	0.851
3649.85	0.8532
3658.59	0.8552
3667.33	0.8572
3676.07	0.859
3684.81	0.8593
3693.55	0.861
3702.3	0.8623
3711.04	0.863
3719.78	0.864
3728.52	0.864
3737.26	0.8627
3746	0.861
3754.74	0.859
3763.48	0.858
3772.22	0.857
3780.96	0.856
3789.7	0.854
3798.45	0.8535
3807.19	0.852
3815.93	0.851
3824.67	0.8505
3833.41	0.849
3842.15	0.848
3850.89	0.8465
3859.63	0.846
3868.37	0.8444
3877.11	0.843
3885.85	0.842
3894.6	0.841
3903.34	0.84
3912.08	0.84
3920.82	0.841
3929.56	0.841
3938.3	0.842
3947.04	0.8427
3955.78	0.843
3964.52	0.843
3973.26	0.843
3982	0.843
3990.75	0.8438
3999.49	0.8448
