Infrared Spectrum: Androst-4-ene-3,11,17-trione
Formula: C19 H24 O3
CAS: 382-45-6
State: SOLID (SPLIT MULL), FLUOROLUBE FOR 3800-1330 CM^-^1, NUJOL FOR 1330-400 CM^-^1
Melting point: 222 C
Class: COBLENTZ III
Instrument: DOW KBr FOREPRISM-GRATING
Instrument parameters: BLAZED AT 3.5, 12.0, 20.0 MICRON AND CHANGED AT 5.0, 7.5, 14.9 MICRON
Sampling: TRANSMISSION
Resolution: 2
Origin: DOW CHEMICAL COMPANY
1/CM	TRANSMITTANCE
386	0.7148
395	0.7144
404	0.7132
413	0.7215
422	0.7914
431	0.8057
440	0.7895
449	0.7965
458	0.7385
467	0.8444
476	0.8534
485	0.8521
494	0.8305
503	0.6399
512	0.8228
521	0.8494
530	0.8161
539	0.7381
548	0.7312
557	0.8744
566	0.8647
575	0.8302
584	0.8447
593	0.8811
602	0.8804
611	0.8558
620	0.6026
629	0.854
638	0.8789
647	0.8604
656	0.851
665	0.8646
674	0.8528
683	0.7765
692	0.8527
701	0.8475
710	0.8167
719	0.7247
728	0.7175
737	0.7558
746	0.7869
755	0.7906
764	0.8095
773	0.7981
782	0.6292
791	0.8136
800	0.8133
809	0.7208
818	0.795
827	0.7465
836	0.8057
845	0.7342
854	0.6781
863	0.7825
872	0.6697
881	0.5053
890	0.7019
899	0.7018
908	0.7671
917	0.7233
926	0.6412
935	0.5634
944	0.5523
953	0.5194
962	0.6855
971	0.7265
980	0.7272
989	0.7364
998	0.6807
1007	0.5123
1016	0.2644
1025	0.7228
1034	0.6854
1043	0.6148
1052	0.3129
1061	0.6401
1070	0.7339
1079	0.6957
1088	0.5432
1097	0.5862
1106	0.6757
1115	0.703
1124	0.6753
1133	0.6467
1142	0.7138
1151	0.625
1160	0.5978
1169	0.6767
1178	0.5667
1187	0.6245
1196	0.4975
1205	0.4644
1214	0.4669
1223	0.2562
1232	0.2496
1241	0.5617
1250	0.4495
1259	0.614
1268	0.411
1277	0.6232
1286	0.5333
1295	0.5767
1304	0.5335
1313	0.6099
1322	0.5198
1331	0.5488
1340	0.4862
1349	0.5899
1358	0.6296
1367	0.6784
1376	0.6136
1385	0.5014
1394	0.6874
1403	0.646
1412	0.6308
1421	0.7269
1430	0.6878
1439	0.5731
1448	0.6792
1457	0.5849
1466	0.6965
1475	0.7751
1484	0.7928
1493	0.7875
1502	0.784
1511	0.7775
1520	0.7721
1529	0.7649
1538	0.7565
1547	0.7471
1556	0.7365
1565	0.7256
1574	0.7075
1583	0.6821
1592	0.6535
1601	0.6016
1610	0.3532
1619	0.6253
1628	0.6049
1637	0.5625
1646	0.4856
1655	0.3102
1664	0.1294
1673	0.1348
1682	0.3818
1691	0.4648
1700	0.3048
1709	0.1708
1718	0.47
1727	0.5366
1736	0.3588
1745	0.1344
1754	0.6718
1763	0.8607
1772	0.8677
1781	0.8783
1790	0.8721
1799	0.8678
1808	0.8625
1817	0.8578
1826	0.8503
1835	0.8444
1844	0.8391
1853	0.8325
1862	0.8271
1871	0.8223
1880	0.8211
1889	0.8197
1898	0.8185
1907	0.8137
1916	0.8134
1925	0.8125
1934	0.8088
1943	0.8062
1952	0.8054
1961	0.8119
1970	0.7947
1979	0.7914
1988	0.7915
1997	0.7937
2006	0.8017
2015	0.8004
2024	0.7988
2033	0.7967
2042	0.7945
2051	0.7917
2060	0.7861
2069	0.7783
2078	0.7761
2087	0.7749
2096	0.7732
2105	0.7714
2114	0.7694
2123	0.7671
2132	0.7638
2141	0.7604
2150	0.7569
2159	0.7531
2168	0.7493
2177	0.7433
2186	0.738
2195	0.7372
2204	0.7335
2213	0.7284
2222	0.7241
2231	0.7203
2240	0.7162
2249	0.7108
2258	0.7058
2267	0.7021
2276	0.6981
2285	0.6939
2294	0.6906
2303	0.6872
2312	0.6844
2321	0.6821
2330	0.6839
2339	0.6771
2348	0.6751
2357	0.6794
2366	0.6791
2375	0.6783
2384	0.676
2393	0.6741
2402	0.6725
2411	0.671
2420	0.6697
2429	0.6682
2438	0.6661
2447	0.664
2456	0.6618
2465	0.6603
2474	0.6599
2483	0.6593
2492	0.6581
2501	0.6561
2510	0.6542
2519	0.6521
2528	0.6503
2537	0.6484
2546	0.6465
2555	0.6448
2564	0.643
2573	0.6411
2582	0.6393
2591	0.6372
2600	0.6351
2609	0.633
2618	0.6308
2627	0.6278
2636	0.6237
2645	0.62
2654	0.6177
2663	0.6151
2672	0.612
2681	0.6088
2690	0.6057
2699	0.6026
2708	0.5998
2717	0.597
2726	0.5942
2735	0.5915
2744	0.5887
2753	0.5854
2762	0.5815
2771	0.5775
2780	0.5735
2789	0.5689
2798	0.5637
2807	0.5579
2816	0.5512
2825	0.5427
2834	0.5258
2843	0.4985
2852	0.4323
2861	0.4417
2870	0.3844
2879	0.4853
2888	0.4667
2897	0.4585
2906	0.4387
2915	0.3427
2924	0.4293
2933	0.4431
2942	0.3809
2951	0.4303
2960	0.4381
2969	0.4344
2978	0.4642
2987	0.3959
2996	0.5314
3005	0.5629
3014	0.5962
3023	0.5918
3032	0.5828
3041	0.5797
3050	0.5786
3059	0.5768
3068	0.5751
3077	0.5737
3086	0.5725
3095	0.5706
3104	0.5685
3113	0.5664
3122	0.5643
3131	0.5622
3140	0.5599
3149	0.5564
3158	0.5529
3167	0.5494
3176	0.546
3185	0.5429
3194	0.5399
3203	0.5369
3212	0.5344
3221	0.5318
3230	0.5293
3239	0.5268
3248	0.5239
3257	0.5207
3266	0.5176
3275	0.5144
3284	0.5112
3293	0.5086
3302	0.506
3311	0.5044
3320	0.5042
3329	0.5044
3338	0.5039
3347	0.501
3356	0.4969
3365	0.4924
3374	0.4873
3383	0.4838
3392	0.4844
3401	0.4859
3410	0.4844
3419	0.4825
3428	0.4802
3437	0.4777
3446	0.4742
3455	0.4698
3464	0.4786
3473	0.4776
3482	0.4764
3491	0.4753
3500	0.4742
3509	0.4732
3518	0.4722
3527	0.4714
3536	0.4707
3545	0.47
3554	0.4692
3563	0.468
3572	0.4669
3581	0.4657
3590	0.4647
3599	0.4638
3608	0.4628
3617	0.4618
3626	0.4608
3635	0.4599
3644	0.4589
3653	0.4575
3662	0.4562
3671	0.4549
3680	0.4536
3689	0.4524
3698	0.4512
3707	0.45
3716	0.4487
3725	0.4474
3734	0.4455
3743	0.4434
3752	0.4419
3761	0.4403
3770	0.4393
3779	0.4386
3788	0.4379
3797	0.4372
