Infrared Spectrum: 5-Acetyl-2,4-dimethylthiazole
Formula: C 7 H 9 N O S
CAS: 38205-60-6
State: gas
Origin: EPA-IR VAPOR PHASE LIBRARY
1/CM	ABSORBANCE
549.9	0.01065
559.547	0.006
569.193	0.00497
578.84	0.00703
588.486	0.00658
598.133	0.00319
607.779	0.0018787
617.426	0.0015648
627.072	0.001859
636.719	0.00342
646.365	0.01019
656.012	0.02752
665.658	0.02765
675.305	0.01172
684.951	0.00525
694.598	0.00328
704.245	0.002553
713.891	0.0019731
723.538	0.00139
733.184	0.00098
742.831	0.000982
752.477	0.000962
762.124	0.000981
771.77	0.000971
781.417	0.000925
791.063	0.000965
800.71	0.000866
810.356	0.000836
820.003	0.001019
829.649	0.001095
839.296	0.001363
848.943	0.00170741
858.589	0.0019977
868.236	0.002184
877.882	0.0025019
887.529	0.00299
897.175	0.00509
906.822	0.00949
916.468	0.01692
926.115	0.02182
935.761	0.01805
945.408	0.01132
955.054	0.00936
964.701	0.00758
974.347	0.00723
983.994	0.00916
993.64	0.01138
1003.29	0.01317
1012.93	0.01611
1022.58	0.01907
1032.23	0.01885
1041.87	0.01736
1051.52	0.01576
1061.17	0.01084
1070.81	0.00636
1080.46	0.00467
1090.11	0.00384
1099.75	0.0033
1109.4	0.00308
1119.05	0.0031
1128.69	0.0031
1138.34	0.00319
1147.99	0.00424
1157.63	0.00866
1167.28	0.02204
1176.92	0.03684
1186.57	0.03602
1196.22	0.02015
1205.86	0.01093
1215.51	0.01074
1225.16	0.02014
1234.8	0.03765
1244.45	0.04822
1254.1	0.03928
1263.74	0.02321
1273.39	0.01545
1283.04	0.02409
1292.68	0.05064
1302.33	0.08042
1311.98	0.08605
1321.62	0.06018
1331.27	0.02826
1340.92	0.0176
1350.56	0.02685
1360.21	0.04162
1369.86	0.05596
1379.5	0.05413
1389.15	0.03268
1398.79	0.01707
1408.44	0.01751
1418.09	0.02152
1427.73	0.02752
1437.38	0.04145
1447.03	0.06894
1456.67	0.07829
1466.32	0.05481
1475.97	0.03746
1485.61	0.0402
1495.26	0.04985
1504.91	0.05857
1514.55	0.05884
1524.2	0.04554
1533.85	0.02686
1543.49	0.01522
1553.14	0.01044
1562.79	0.00821
1572.43	0.007
1582.08	0.00626
1591.73	0.00579
1601.37	0.00557
1611.02	0.00581
1620.67	0.00668
1630.31	0.00814
1639.96	0.01032
1649.6	0.0131
1659.25	0.02133
1668.9	0.04885
1678.54	0.09709
1688.19	0.14346
1697.84	0.11381
1707.48	0.03293
1717.13	0.01098
1726.78	0.00803
1736.42	0.00743
1746.07	0.00588
1755.72	0.00354
1765.36	0.0022894
1775.01	0.0018905
1784.66	0.0018131
1794.3	0.0017671
1803.95	0.0017333
1813.6	0.00168832
1823.24	0.0017472
1832.89	0.00171033
1842.54	0.0017374
1852.18	0.001732
1861.83	0.00166716
1871.47	0.00171138
1881.12	0.0018153
1890.77	0.0019225
1900.41	0.0020654
1910.06	0.0020486
1919.71	0.0017857
1929.35	0.0015894
1939	0.0015765
1948.65	0.00164953
1958.29	0.0018104
1967.94	0.0017936
1977.59	0.00163745
1987.23	0.001478
1996.88	0.001467
2006.53	0.001491
2016.17	0.0015561
2025.82	0.00166074
2035.47	0.00163896
2045.11	0.001472
2054.76	0.001244
2064.41	0.0011
2074.05	0.001116
2083.7	0.001129
2093.35	0.001095
2102.99	0.0011
2112.64	0.00104
2122.28	0.000992
2131.93	0.000972
2141.58	0.001002
2151.22	0.001082
2160.87	0.001064
2170.52	0.001085
2180.16	0.00098
2189.81	0.001037
2199.46	0.000983
2209.1	0.000983
2218.75	0.00102
2228.4	0.001006
2238.04	0.000954
2247.69	0.000966
2257.34	0.000972
2266.98	0.001053
2276.63	0.001103
2286.28	0.001227
2295.92	0.001298
2305.57	0.001234
2315.22	0.001193
2324.86	0.001117
2334.51	0.001147
2344.16	0.001299
2353.8	0.001418
2363.45	0.0015
2373.09	0.001527
2382.74	0.001411
2392.39	0.001379
2402.03	0.001386
2411.68	0.001405
2421.33	0.001431
2430.97	0.001376
2440.62	0.001438
2450.27	0.001287
2459.91	0.001326
2469.56	0.001343
2479.21	0.001331
2488.85	0.001299
2498.5	0.001321
2508.15	0.001211
2517.79	0.001164
2527.44	0.001101
2537.09	0.001096
2546.73	0.001252
2556.38	0.001336
2566.03	0.001248
2575.67	0.001128
2585.32	0.001157
2594.96	0.001231
2604.61	0.001365
2614.26	0.001497
2623.9	0.001399
2633.55	0.001254
2643.2	0.001048
2652.84	0.000914
2662.49	0.000943
2672.14	0.000915
2681.78	0.001024
2691.43	0.001155
2701.08	0.001161
2710.72	0.001072
2720.37	0.001012
2730.02	0.001097
2739.66	0.001278
2749.31	0.001055
2758.96	0.000961
2768.6	0.00106
2778.25	0.001042
2787.9	0.001024
2797.54	0.001108
2807.19	0.001143
2816.84	0.00165429
2826.48	0.0023238
2836.13	0.00274
2845.77	0.00343
2855.42	0.00442
2865.07	0.00545
2874.71	0.00554
2884.36	0.00512
2894.01	0.00484
2903.65	0.00554
2913.3	0.00697
2922.95	0.01169
2932.59	0.02043
2942.24	0.02254
2951.89	0.0164
2961.53	0.01133
2971.18	0.00956
2980.83	0.00786
2990.47	0.00707
3000.12	0.00771
3009.77	0.00976
3019.41	0.00934
3029.06	0.00706
3038.71	0.00557
3048.35	0.00524
3058	0.00475
3067.64	0.00425
3077.29	0.0036
3086.94	0.00271
3096.58	0.0021587
3106.23	0.00162385
3115.88	0.001492
3125.52	0.00129
3135.17	0.000998
3144.82	0.000752
3154.46	0.00052
3164.11	0.00037
3173.76	0.00039
3183.4	0.00018
3193.05	0.0002
3202.7	8e-05
3212.34	2e-05
3221.99	0.00023
3231.64	0.00022
3241.28	0.00015
3250.93	9e-05
3260.58	0.00021
3270.22	0.00025
3279.87	0.00023
3289.52	0.0003
3299.16	0.00021
3308.81	0.00043
3318.45	0.000705
3328.1	0.001033
3337.75	0.001256
3347.39	0.0017536
3357.04	0.0025455
3366.69	0.0025321
3376.33	0.0015333
3385.98	0.000744
3395.63	0.00059
3405.27	0.00038
3414.92	0.00039
3424.57	0.00053
3434.21	0.00042
3443.86	0.00032
3453.51	0.00027
3463.15	0.00044
3472.8	0.00034
3482.45	0.00035
3492.09	0.00054
3501.74	0.0005
3511.39	0.000632
3521.03	0.00046
3530.68	0.00062
3540.33	0.000633
3549.97	0.00047
3559.62	0.00062
3569.26	0.0005
3578.91	0.0006
3588.56	0.00057
3598.2	0.00049
3607.85	0.0006
3617.5	0.0006
3627.14	0.00064
3636.79	0.000634
3646.44	0.00052
3656.08	0.00056
3665.73	0.000631
3675.38	0.000694
3685.02	0.00062
3694.67	0.00069
3704.32	0.000781
3713.96	0.000765
3723.61	0.000676
3733.26	0.000797
3742.9	0.000686
3752.55	0.000635
3762.2	0.000785
3771.84	0.000678
3781.49	0.000703
3791.13	0.00062
3800.78	0.000891
3810.43	0.000731
3820.07	0.000806
3829.72	0.000862
3839.37	0.000801
3849.01	0.000904
3858.66	0.000971
3868.31	0.000965
3877.95	0.000901
3887.6	0.000875
3897.25	0.001069
3906.89	0.000981
3916.54	0.00099
3926.19	0.000979
3935.83	0.000993
3945.48	0.001088
3955.13	0.001017
3964.77	0.001044
3974.42	0.001054
3984.07	0.00094
3993.71	0.000983
