Infrared Spectrum: MELISSIC ACID
Formula: C31 H62 O2
CAS: 38232-01-8
State: SOLID (MELT)
Class: COBLENTZ
Instrument: Not specified, most likely a prism, grating, or hybrid spectrometer.
Sampling: TRANSMISSION
Resolution: 4
Origin: BATTELLE MEMORIAL INSTITUTE
MICROMETERS	TRANSMITTANCE
2.013	0.725
2.04632	0.725
2.07963	0.725
2.11295	0.727
2.14627	0.729
2.17958	0.73
2.2129	0.73
2.24622	0.73
2.27953	0.72
2.31285	0.692
2.34617	0.692
2.37948	0.687
2.4128	0.689
2.44612	0.71
2.47943	0.722
2.51275	0.726
2.54607	0.729
2.57938	0.731
2.6127	0.735
2.64602	0.738
2.67933	0.739
2.71265	0.739
2.74597	0.738
2.77928	0.739
2.8126	0.741
2.84592	0.741
2.87923	0.741
2.91255	0.739
2.94587	0.73
2.97918	0.721
3.0125	0.712
3.04582	0.69
3.07913	0.672
3.11245	0.646
3.14577	0.621
3.17908	0.594
3.2124	0.557
3.24572	0.535
3.27903	0.505
3.31235	0.477
3.34567	0.313
3.37898	0.17
3.4123	0.114
3.44562	0.228
3.47893	0.145
3.51225	0.372
3.54557	0.474
3.57888	0.53
3.6122	0.56
3.64552	0.571
3.67884	0.576
3.71215	0.575
3.74547	0.571
3.77879	0.57
3.8121	0.592
3.84542	0.61
3.87874	0.62
3.91205	0.63
3.94537	0.646
3.97869	0.658
4.012	0.672
4.04532	0.683
4.07864	0.692
4.11195	0.701
4.14527	0.708
4.17859	0.712
4.2119	0.716
4.24522	0.718
4.27854	0.717
4.31185	0.723
4.34517	0.73
4.37849	0.732
4.4118	0.739
4.44512	0.747
4.47844	0.75
4.51175	0.752
4.54507	0.754
4.57839	0.754
4.6117	0.753
4.64502	0.754
4.67834	0.756
4.71165	0.761
4.74497	0.762
4.77829	0.765
4.8116	0.766
4.84492	0.767
4.87824	0.769
4.91155	0.767
4.94487	0.767
4.97819	0.769
5.0115	0.766
5.04482	0.766
5.07814	0.766
5.11145	0.766
5.14477	0.766
5.17809	0.763
5.2114	0.758
5.24472	0.753
5.27804	0.757
5.31135	0.758
5.34467	0.762
5.37799	0.762
5.4113	0.762
5.44462	0.757
5.47794	0.745
5.51125	0.745
5.54457	0.745
5.57789	0.74
5.6112	0.736
5.64452	0.727
5.67784	0.713
5.71115	0.652
5.74447	0.483
5.77779	0.325
5.8111	0.194
5.84442	0.185
5.87774	0.247
5.91105	0.403
5.94437	0.552
5.97769	0.625
6.011	0.656
6.04432	0.701
6.07764	0.714
6.11095	0.73
6.14427	0.743
6.17759	0.754
6.2109	0.761
6.24422	0.767
6.27754	0.77
6.31085	0.771
6.34417	0.775
6.37749	0.778
6.4108	0.779
6.44412	0.78
6.47744	0.781
6.51075	0.781
6.54407	0.781
6.57739	0.783
6.6107	0.781
6.64402	0.769
6.67734	0.745
6.71065	0.683
6.74397	0.521
6.77729	0.387
6.8106	0.339
6.84392	0.556
6.87724	0.602
6.91055	0.606
6.94387	0.594
6.97719	0.597
7.01051	0.602
7.04382	0.534
7.07714	0.51
7.11046	0.63
7.14377	0.707
7.17709	0.739
7.21041	0.738
7.24372	0.705
7.27704	0.723
7.31036	0.729
7.34367	0.716
7.37699	0.695
7.41031	0.686
7.44362	0.686
7.47694	0.685
7.51026	0.674
7.54357	0.607
7.57689	0.543
7.61021	0.489
7.64352	0.459
7.67684	0.446
7.71016	0.465
7.74347	0.499
7.77679	0.543
7.81011	0.585
7.84342	0.619
7.87674	0.638
7.91006	0.655
7.94337	0.673
7.97669	0.681
8.01001	0.683
8.04332	0.687
8.07664	0.686
8.10996	0.69
8.14327	0.682
8.17659	0.676
8.20991	0.683
8.24322	0.67
8.27654	0.677
8.30986	0.658
8.34317	0.689
8.37649	0.68
8.40981	0.707
8.44312	0.72
8.47644	0.743
8.50976	0.781
8.54307	0.798
8.57639	0.806
8.60971	0.81
8.64302	0.811
8.67634	0.815
8.70966	0.816
8.74297	0.818
8.77629	0.819
8.80961	0.818
8.84292	0.81
8.87624	0.784
8.90956	0.752
8.94287	0.767
8.97619	0.796
9.00951	0.805
9.04282	0.809
9.07614	0.81
9.10946	0.81
9.14277	0.81
9.17609	0.809
9.20941	0.796
9.24272	0.788
9.27604	0.796
9.30936	0.815
9.34267	0.821
9.37599	0.823
9.40931	0.824
9.44262	0.824
9.47594	0.824
9.50926	0.823
9.54257	0.821
9.57589	0.82
9.60921	0.819
9.64252	0.816
9.67584	0.815
9.70916	0.814
9.74247	0.812
9.77579	0.811
9.80911	0.806
9.84242	0.801
9.87574	0.797
9.90906	0.793
9.94237	0.788
9.97569	0.783
10.009	0.774
10.0423	0.76
10.0756	0.75
10.109	0.738
10.1423	0.727
10.1756	0.713
10.2089	0.7
10.2422	0.686
10.2755	0.674
10.3089	0.667
10.3422	0.66
10.3755	0.649
10.4088	0.637
10.4421	0.627
10.4754	0.61
10.5088	0.593
10.5421	0.581
10.5754	0.572
10.6087	0.563
10.642	0.562
10.6753	0.563
10.7087	0.57
10.742	0.58
10.7753	0.585
10.8086	0.597
10.8419	0.609
10.8752	0.616
10.9086	0.621
10.9419	0.623
10.9752	0.624
11.0085	0.629
11.0418	0.636
11.0751	0.643
11.1085	0.649
11.1418	0.654
11.1751	0.659
11.2084	0.664
11.2417	0.674
11.275	0.689
11.3084	0.703
11.3417	0.722
11.375	0.734
11.4083	0.749
11.4416	0.757
11.4749	0.76
11.5083	0.767
11.5416	0.772
11.5749	0.78
11.6082	0.788
11.6415	0.793
11.6748	0.801
11.7082	0.807
11.7415	0.812
11.7748	0.815
11.8081	0.818
11.8414	0.819
11.8747	0.82
11.9081	0.823
11.9414	0.829
11.9747	0.837
12.008	0.838
12.0413	0.843
12.0746	0.845
12.108	0.846
12.1413	0.845
12.1746	0.845
12.2079	0.847
12.2412	0.852
12.2745	0.855
12.3079	0.859
12.3412	0.859
12.3745	0.859
12.4078	0.849
12.4411	0.845
12.4744	0.849
12.5078	0.859
12.5411	0.865
12.5744	0.867
12.6077	0.867
12.641	0.865
12.6743	0.855
12.7077	0.854
12.741	0.854
12.7743	0.864
12.8076	0.867
12.8409	0.869
12.8742	0.868
12.9076	0.858
12.9409	0.854
12.9742	0.855
13.0075	0.864
13.0408	0.867
13.0741	0.867
13.1075	0.864
13.1408	0.861
13.1741	0.861
13.2074	0.86
13.2407	0.86
13.274	0.855
13.3074	0.847
13.3407	0.842
13.374	0.838
13.4073	0.837
13.4406	0.83
13.4739	0.821
13.5073	0.806
13.5406	0.783
13.5739	0.748
13.6072	0.667
13.6405	0.589
13.6738	0.487
13.7072	0.455
13.7405	0.485
13.7738	0.522
13.8071	0.523
13.8404	0.477
13.8737	0.432
13.9071	0.478
13.9404	0.552
13.9737	0.668
14.007	0.726
14.0403	0.752
14.0736	0.772
14.107	0.787
14.1403	0.796
14.1736	0.802
14.2069	0.806
14.2402	0.805
14.2735	0.802
14.3069	0.796
14.3402	0.784
14.3735	0.769
14.4068	0.757
14.4401	0.744
14.4734	0.736
14.5068	0.73
14.5401	0.731
14.5734	0.734
14.6067	0.743
14.64	0.748
14.6733	0.753
14.7067	0.76
14.74	0.762
14.7733	0.766
14.8066	0.769
14.8399	0.77
14.8732	0.771
14.9066	0.772
14.9399	0.772
14.9732	0.775
15.0065	0.778
15.0398	0.779
15.0731	0.78
15.1065	0.781
15.1398	0.781
15.1731	0.783
15.2064	0.783
15.2397	0.784
15.273	0.784
