Infrared Spectrum: (+)-N-Benzyl-.alpha.- phenethylamine
Formula: C 15 H 17 N
CAS: 38235-77-7
State: gas
Origin: EPA-IR VAPOR PHASE LIBRARY
1/CM	ABSORBANCE
549.8	0.008117
559.445	0.006527
569.09	0.005537
578.734	0.007277
588.379	0.007087
598.024	0.007037
607.669	0.005977
617.313	0.005157
626.958	0.004797
636.603	0.005347
646.248	0.006827
655.893	0.008217
665.537	0.011917
675.182	0.017917
684.827	0.026357
694.472	0.057937
704.116	0.055527
713.761	0.029897
723.406	0.024057
733.051	0.026207
742.695	0.026777
752.34	0.026477
761.985	0.026707
771.63	0.011807
781.275	0.007577
790.919	0.005717
800.564	0.005167
810.209	0.004837
819.854	0.004727
829.498	0.003597
839.143	0.002427
848.788	0.002327
858.433	0.002237
868.078	0.002797
877.722	0.003257
887.367	0.003337
897.012	0.004597
906.657	0.006477
916.301	0.004517
925.946	0.004017
935.591	0.002987
945.236	0.002377
954.88	0.003107
964.525	0.003597
974.17	0.003957
983.815	0.004017
993.46	0.005397
1003.1	0.005787
1012.75	0.006847
1022.39	0.012747
1032.04	0.012187
1041.68	0.006267
1051.33	0.008737
1060.97	0.008007
1070.62	0.008717
1080.26	0.008947
1089.91	0.009257
1099.55	0.011827
1109.2	0.018917
1118.84	0.026707
1128.49	0.026007
1138.13	0.015697
1147.78	0.007627
1157.42	0.005747
1167.07	0.005127
1176.71	0.008097
1186.36	0.008437
1196	0.010027
1205.64	0.010717
1215.29	0.006087
1224.93	0.005747
1234.58	0.005077
1244.22	0.005307
1253.87	0.005837
1263.51	0.005197
1273.16	0.006627
1282.8	0.007457
1292.45	0.009017
1302.09	0.010447
1311.74	0.009817
1321.38	0.011097
1331.03	0.009227
1340.67	0.009167
1350.32	0.011717
1359.96	0.012017
1369.61	0.013707
1379.25	0.012117
1388.9	0.005707
1398.54	0.004067
1408.18	0.004257
1417.83	0.005307
1427.47	0.008247
1437.12	0.014897
1446.76	0.024747
1456.41	0.027227
1466.05	0.021317
1475.7	0.013137
1485.34	0.013637
1494.99	0.018237
1504.63	0.007657
1514.28	0.003787
1523.92	0.002927
1533.57	0.003147
1543.21	0.002467
1552.86	0.002307
1562.5	0.002157
1572.15	0.002807
1581.79	0.004427
1591.44	0.006557
1601.08	0.008647
1610.73	0.005617
1620.37	0.002327
1630.01	0.001937
1639.66	0.001767
1649.3	0.002007
1658.95	0.002127
1668.59	0.001887
1678.24	0.001927
1687.88	0.0012615
1697.53	0.001507
1707.17	0.001657
1716.82	0.001787
1726.46	0.001807
1736.11	0.002117
1745.75	0.002047
1755.4	0.001767
1765.04	0.001797
1774.69	0.002127
1784.33	0.002677
1793.98	0.004127
1803.62	0.003787
1813.27	0.002697
1822.91	0.002087
1832.55	0.001617
1842.2	0.001697
1851.84	0.002167
1861.49	0.002717
1871.13	0.003197
1880.78	0.002977
1890.42	0.002437
1900.07	0.001657
1909.71	0.001717
1919.36	0.001947
1929	0.002667
1938.65	0.003727
1948.29	0.003747
1957.94	0.003067
1967.58	0.001727
1977.23	0.0010176
1986.87	0.0011834
1996.52	0.0010514
2006.16	0.0010395
2015.81	0.0009363
2025.45	0.001004
2035.1	0.0008458
2044.74	0.0007587
2054.38	0.0006292
2064.03	0.0007291
2073.67	0.0007876
2083.32	0.0007033
2092.96	0.000897
2102.61	0.0009354
2112.25	0.0010008
2121.9	0.0010179
2131.54	0.0007348
2141.19	0.0007568
2150.83	0.0010325
2160.48	0.0010638
2170.12	0.0008533
2179.77	0.0007145
2189.41	0.0008482
2199.06	0.0007636
2208.7	0.000738
2218.35	0.0009845
2227.99	0.0011008
2237.64	0.0009526
2247.28	0.0008904
2256.92	0.0009527
2266.57	0.0008757
2276.21	0.0009231
2285.86	0.0011183
2295.5	0.0011704
2305.15	0.001517
2314.79	0.0011206
2324.44	0.001327
2334.08	0.0009978
2343.73	0.0010452
2353.37	0.0011426
2363.02	0.0006853
2372.66	0.0008384
2382.31	0.0010286
2391.95	0.0009602
2401.6	0.0008597
2411.24	0.0010483
2420.89	0.0008929
2430.53	0.001297
2440.18	0.0008974
2449.82	0.0010575
2459.47	0.000734
2469.11	0.0008806
2478.75	0.0010936
2488.4	0.0011751
2498.04	0.0012079
2507.69	0.0009716
2517.33	0.0010464
2526.98	0.0011347
2536.62	0.0008405
2546.27	0.0011068
2555.91	0.001577
2565.56	0.001377
2575.2	0.001417
2584.85	0.001837
2594.49	0.001517
2604.14	0.001307
2613.78	0.001617
2623.43	0.001507
2633.07	0.001817
2642.72	0.001467
2652.36	0.001307
2662.01	0.001627
2671.65	0.001867
2681.29	0.001687
2690.94	0.001757
2700.58	0.001857
2710.23	0.002307
2719.87	0.002437
2729.52	0.002637
2739.16	0.002327
2748.81	0.002337
2758.45	0.002897
2768.1	0.003437
2777.74	0.005137
2787.39	0.007037
2797.03	0.009317
2806.68	0.011417
2816.32	0.012947
2825.97	0.014317
2835.61	0.015057
2845.26	0.014267
2854.9	0.013417
2864.55	0.013327
2874.19	0.014117
2883.84	0.014397
2893.48	0.014187
2903.12	0.014147
2912.77	0.013747
2922.41	0.016527
2932.06	0.018797
2941.7	0.015047
2951.35	0.012107
2960.99	0.017227
2970.64	0.028527
2980.28	0.027557
2989.93	0.013707
2999.57	0.008097
3009.22	0.010697
3018.86	0.019197
3028.51	0.033117
3038.15	0.029177
3047.8	0.019887
3057.44	0.023407
3067.09	0.039537
3076.73	0.033967
3086.38	0.021927
3096.02	0.014287
3105.67	0.009177
3115.31	0.005837
3124.95	0.003067
3134.6	0.001777
3144.24	0.001887
3153.89	0.001827
3163.53	0.001927
3173.18	0.002037
3182.82	0.001567
3192.47	0.0011764
3202.11	0.001297
3211.76	0.0005975
3221.4	0.0010162
3231.05	0.0005331
3240.69	0.0004972
3250.34	0.0005256
3259.98	0.0011226
3269.63	0.0008679
3279.27	0.0005212
3288.92	0.0007496
3298.56	0.0008243
3308.21	0.0008999
3317.85	0.0003987
3327.49	0.0004606
3337.14	0.0009599
3346.78	0.00030608
3356.43	0.001317
3366.07	0.0007023
3375.72	0.0009137
3385.36	0.0008039
3395.01	0.001717
3404.65	0.0006515
3414.3	0.0007022
3423.94	0.0007982
3433.59	0.0008645
3443.23	0.000452
3452.88	0.0011871
3462.52	0.0010431
3472.17	0.0010499
3481.81	0.0004097
3491.46	0.00036558
3501.1	0.0005662
3510.75	0.0010952
3520.39	0.0008686
3530.04	0.0005194
3539.68	0.0007991
3549.32	4.8e-05
3558.97	0.000699
3568.61	0.0006458
3578.26	0.00031111
3587.9	0.0007647
3597.55	0.0007877
3607.19	0.0011941
3616.84	0.001337
3626.48	0.0008577
3636.13	0.001287
3645.77	0.0009063
3655.42	0.0008606
3665.06	5.7e-05
3674.71	0.0011544
3684.35	0.0010002
3694	0.0012452
3703.64	0.001124
3713.29	0.0007638
3722.93	0.0011597
3732.58	0.0007925
3742.22	0.0004329
3751.86	0.0007963
3761.51	0.0006948
3771.15	0.0004744
3780.8	0.0006755
3790.44	0.0005526
3800.09	0.0012381
3809.73	0.0008504
3819.38	0.00035038
3829.02	0.000601
3838.67	0.0008854
3848.31	0.001191
3857.96	0.0007147
3867.6	0.0008245
3877.25	0.0011522
3886.89	0.0009143
3896.54	0.0010339
3906.18	0.0005469
3915.83	0.001297
3925.47	0.0007424
3935.12	0.0007615
3944.76	0.0007626
3954.41	0.0008485
3964.05	0.0011187
3973.69	0.001347
3983.34	0.0009658
3992.98	0.0010298
