Infrared Spectrum: 2-Pyridinethiol, 3-amino-
Formula: C5 H6 N2 S
CAS: 38240-21-0
State: SOLID (0.8 mg / 650 mg KBr DISC)
Class: COBLENTZ III
Instrument: PERKIN-ELMER 21 (GRATING)
Instrument parameters: FILTER CHANGE ABOUT 1020 CM^-^1
Sampling: TRANSMISSION
Resolution: 2
Origin: SOUTHERN RESEARCH INSTITUTE
1/CM	TRANSMITTANCE
600.75	0.456
609.778	0.456
618.807	0.4558
627.835	0.4543
636.864	0.4508
645.892	0.4464
654.921	0.4437
663.949	0.4366
672.978	0.4028
682.006	0.3161
691.035	0.3812
700.063	0.4905
709.091	0.477
718.12	0.4372
727.148	0.4052
736.177	0.567
745.205	0.5731
754.234	0.5719
763.262	0.5665
772.291	0.5468
781.319	0.4471
790.348	0.2955
799.376	0.3981
808.404	0.5548
817.433	0.5583
826.461	0.5591
835.49	0.5788
844.518	0.561
853.547	0.5562
862.575	0.5613
871.604	0.5952
880.632	0.606
889.661	0.6056
898.689	0.6055
907.717	0.6056
916.746	0.6046
925.774	0.6008
934.803	0.5927
943.831	0.5845
952.86	0.5777
961.888	0.5714
970.917	0.5741
979.945	0.5697
988.974	0.5621
998.002	0.5562
1007.03	0.5422
1016.06	0.5356
1025.09	0.4965
1034.12	0.4748
1043.14	0.4263
1052.17	0.4275
1061.2	0.4242
1070.23	0.4089
1079.26	0.4292
1088.29	0.4131
1097.32	0.328
1106.34	0.2596
1115.37	0.2737
1124.4	0.3595
1133.43	0.4359
1142.46	0.3904
1151.49	0.4862
1160.51	0.5636
1169.54	0.5946
1178.57	0.6142
1187.6	0.6175
1196.63	0.612
1205.66	0.6029
1214.68	0.588
1223.71	0.5632
1232.74	0.5201
1241.77	0.5172
1250.8	0.5983
1259.83	0.5553
1268.86	0.46
1277.88	0.4996
1286.91	0.5465
1295.94	0.5661
1304.97	0.5288
1314	0.4444
1323.03	0.3446
1332.05	0.6453
1341.08	0.6305
1350.11	0.605
1359.14	0.5876
1368.17	0.5578
1377.2	0.515
1386.23	0.521
1395.25	0.4878
1404.28	0.4546
1413.31	0.4025
1422.34	0.3205
1431.37	0.1302
1440.4	0.2108
1449.42	0.2765
1458.45	0.252
1467.48	0.241
1476.51	0.4195
1485.54	0.6062
1494.57	0.6558
1503.6	0.6269
1512.62	0.6041
1521.65	0.5681
1530.68	0.5425
1539.71	0.4826
1548.74	0.4689
1557.77	0.3225
1566.79	0.3886
1575.82	0.4166
1584.85	0.3495
1593.88	0.478
1602.91	0.3489
1611.94	0.2341
1620.97	0.255
1629.99	0.3905
1639.02	0.574
1648.05	0.6503
1657.08	0.664
1666.11	0.6829
1675.14	0.6905
1684.16	0.6925
1693.19	0.6994
1702.22	0.7137
1711.25	0.7146
1720.28	0.7154
1729.31	0.7165
1738.34	0.7146
1747.36	0.7127
1756.39	0.7081
1765.42	0.7009
1774.45	0.6927
1783.48	0.682
1792.51	0.6904
1801.53	0.6952
1810.56	0.6932
1819.59	0.6895
1828.62	0.6837
1837.65	0.6775
1846.68	0.673
1855.71	0.6749
1864.73	0.6818
1873.76	0.6789
1882.79	0.6749
1891.82	0.671
1900.85	0.6662
1909.88	0.66
1918.9	0.6579
1927.93	0.6695
1936.96	0.6714
1945.99	0.6687
1955.02	0.6652
1964.05	0.6634
1973.08	0.6616
1982.1	0.6598
1991.13	0.6583
2000.16	0.6567
2009.19	0.654
2018.22	0.6514
2027.25	0.6489
2036.27	0.647
2045.3	0.6452
2054.33	0.6432
2063.36	0.64
2072.39	0.6368
2081.42	0.6338
2090.45	0.6311
2099.47	0.6285
2108.5	0.6266
2117.53	0.6247
2126.56	0.6232
2135.59	0.6218
2144.62	0.6206
2153.64	0.6194
2162.67	0.6182
2171.7	0.6174
2180.73	0.6167
2189.76	0.6159
2198.79	0.6151
2207.82	0.6142
2216.84	0.6133
2225.87	0.612
2234.9	0.6103
2243.93	0.6066
2252.96	0.6029
2261.99	0.5994
2271.01	0.5961
2280.04	0.5927
2289.07	0.5889
2298.1	0.5843
2307.13	0.5829
2316.16	0.5823
2325.19	0.5822
2334.21	0.5822
2343.24	0.5826
2352.27	0.5829
2361.3	0.5832
2370.33	0.5837
2379.36	0.5828
2388.38	0.5818
2397.41	0.5804
2406.44	0.5789
2415.47	0.5776
2424.5	0.5763
2433.53	0.5753
2442.56	0.5742
2451.58	0.5726
2460.61	0.5708
2469.64	0.5687
2478.67	0.5662
2487.7	0.5637
2496.73	0.5606
2505.75	0.5586
2514.78	0.5578
2523.81	0.5581
2532.84	0.5588
2541.87	0.5595
2550.9	0.5591
2559.92	0.5586
2568.95	0.5581
2577.98	0.5549
2587.01	0.5493
2596.04	0.5484
2605.07	0.5475
2614.1	0.5468
2623.12	0.546
2632.15	0.5442
2641.18	0.543
2650.21	0.5425
2659.24	0.5421
2668.27	0.5416
2677.29	0.5407
2686.32	0.5391
2695.35	0.5374
2704.38	0.5356
2713.41	0.534
2722.44	0.5335
2731.47	0.5335
2740.49	0.5334
2749.52	0.5334
2758.55	0.5333
2767.58	0.5336
2776.61	0.5323
2785.64	0.523
2794.66	0.5118
2803.69	0.5019
2812.72	0.4936
2821.75	0.4854
2830.78	0.4795
2839.81	0.4745
2848.84	0.47
2857.86	0.4666
2866.89	0.4642
2875.92	0.4618
2884.95	0.4584
2893.98	0.453
2903.01	0.449
2912.03	0.4484
2921.06	0.4477
2930.09	0.4472
2939.12	0.4468
2948.15	0.4462
2957.18	0.4455
2966.21	0.4445
2975.23	0.4424
2984.26	0.4374
2993.29	0.4336
3002.32	0.4308
3011.35	0.4229
3020.38	0.4208
3029.4	0.4188
3038.43	0.412
3047.46	0.4026
3056.49	0.395
3065.52	0.3904
3074.55	0.3876
3083.58	0.3843
3092.6	0.3751
3101.63	0.3634
3110.66	0.3497
3119.69	0.3353
3128.72	0.3232
3137.75	0.3116
3146.77	0.299
3155.8	0.2934
3164.83	0.2946
3173.86	0.3008
3182.89	0.3172
3191.92	0.3358
3200.95	0.3571
3209.97	0.364
3219	0.3639
3228.03	0.3602
3237.06	0.3521
3246.09	0.3392
3255.12	0.3237
3264.14	0.3088
3273.17	0.294
3282.2	0.2822
3291.23	0.2807
3300.26	0.284
3309.29	0.2911
3318.32	0.3019
3327.34	0.3252
3336.37	0.3591
3345.4	0.3794
3354.43	0.3886
3363.46	0.3875
3372.49	0.3821
3381.51	0.3732
3390.54	0.3618
3399.57	0.3489
3408.6	0.3351
3417.63	0.318
3426.66	0.3
3435.69	0.2842
3444.71	0.2841
3453.74	0.2883
3462.77	0.3071
3471.8	0.3852
3480.83	0.4263
3489.86	0.449
3498.88	0.4666
3507.91	0.4783
3516.94	0.4883
3525.97	0.4966
3535	0.5045
3544.03	0.513
3553.06	0.5196
3562.08	0.5262
3571.11	0.5316
3580.14	0.5346
3589.17	0.5356
3598.2	0.5388
3607.23	0.5445
3616.25	0.5504
3625.28	0.5536
3634.31	0.554
3643.34	0.5539
3652.37	0.5538
3661.4	0.5536
3670.43	0.5535
3679.45	0.5533
3688.48	0.5532
3697.51	0.5531
3706.54	0.5529
3715.57	0.5528
3724.6	0.5526
3733.62	0.5525
3742.65	0.5523
3751.68	0.5522
3760.71	0.5521
3769.74	0.5519
3778.77	0.5518
3787.79	0.5516
3796.82	0.5506
3805.85	0.5461
3814.88	0.5397
3823.91	0.5393
3832.94	0.539
3841.97	0.5387
3850.99	0.5384
3860.02	0.5381
3869.05	0.5378
3878.08	0.5375
3887.11	0.5373
3896.14	0.5373
3905.16	0.5335
3914.19	0.5324
3923.22	0.5317
3932.25	0.5274
3941.28	0.5261
3950.31	0.5263
3959.34	0.5263
3968.36	0.5263
3977.39	0.5263
3986.42	0.5263
3995.45	0.5263
4004.48	0.5263
