Infrared Spectrum: Diethylamine, 2-ethoxy-,
Formula: C6 H15 N O
CAS: 38256-95-0
State: LIQUID (NEAT)
Boiling point: 134 C
Class: COBLENTZ III
Instrument: BAIRD (GRATING)
Instrument parameters: NaCl PRISM
Path length: 0.003 CM
Resolution: 2
Origin: WYANDOTTE CHEMICALS CORP.
1/CM	TRANSMITTANCE
625	0.7758
634	0.8065
643	0.8217
652	0.8321
661	0.8422
670	0.825
679	0.8156
688	0.7877
697	0.7503
706	0.6986
715	0.6421
724	0.586
733	0.5345
742	0.4763
751	0.4204
760	0.3923
769	0.4843
778	0.5611
787	0.6242
796	0.6527
805	0.6919
814	0.6986
823	0.7388
832	0.6657
841	0.7762
850	0.8472
859	0.8565
868	0.8232
877	0.7842
886	0.7317
895	0.7572
904	0.8192
913	0.8124
922	0.7897
931	0.7634
940	0.7423
949	0.7913
958	0.8806
967	0.9049
976	0.9115
985	0.9061
994	0.8785
1003	0.8532
1012	0.8106
1021	0.7425
1030	0.6363
1039	0.6281
1048	0.6329
1057	0.6435
1066	0.5709
1075	0.4395
1084	0.4078
1093	0.3379
1102	0.1772
1111	0.0394
1120	0.0328
1129	0.036
1138	0.0574
1147	0.1182
1156	0.1798
1165	0.3387
1174	0.4656
1183	0.5467
1192	0.6997
1201	0.8028
1210	0.852
1219	0.8523
1228	0.8049
1237	0.6695
1246	0.639
1255	0.7708
1264	0.7566
1273	0.7323
1282	0.7223
1291	0.7283
1300	0.7007
1309	0.6809
1318	0.7425
1327	0.8016
1336	0.7467
1345	0.5987
1354	0.6326
1363	0.4744
1372	0.5932
1381	0.5046
1390	0.325
1399	0.4882
1408	0.597
1417	0.7123
1426	0.6969
1435	0.7305
1444	0.7228
1453	0.5636
1462	0.3393
1471	0.3243
1480	0.3109
1489	0.442
1498	0.5352
1507	0.5739
1516	0.798
1525	0.8499
1534	0.8834
1543	0.902
1552	0.9133
1561	0.9238
1570	0.9363
1579	0.9331
1588	0.9442
1597	0.9572
1606	0.9611
1615	0.9624
1624	0.9613
1633	0.9577
1642	0.9526
1651	0.9458
1660	0.9361
1669	0.9304
1678	0.9356
1687	0.9347
1696	0.9329
1705	0.9419
1714	0.9532
1723	0.9582
1732	0.9657
1741	0.9712
1750	0.9735
1759	0.9735
1768	0.9745
1777	0.9764
1786	0.9784
1795	0.9787
1804	0.979
1813	0.9796
1822	0.9805
1831	0.9812
1840	0.9802
1849	0.9792
1858	0.9773
1867	0.9755
1876	0.9734
1885	0.9714
1894	0.9694
1903	0.9663
1912	0.9629
1921	0.9604
1930	0.9582
1939	0.957
1948	0.9564
1957	0.9558
1966	0.9552
1975	0.9545
1984	0.9554
1993	0.9607
2002	0.9663
2011	0.9738
2020	0.979
2029	0.98
2038	0.9809
2047	0.9801
2056	0.9793
2065	0.9788
2074	0.9783
2083	0.978
2092	0.9776
2101	0.9772
2110	0.9764
2119	0.9755
2128	0.9744
2137	0.9728
2146	0.9723
2155	0.9723
2164	0.9723
2173	0.9725
2182	0.9728
2191	0.973
2200	0.9733
2209	0.9727
2218	0.9704
2227	0.9679
2236	0.9643
2245	0.9617
2254	0.9622
2263	0.9646
2272	0.9647
2281	0.9641
2290	0.9666
2299	0.9701
2308	0.9681
2317	0.9647
2326	0.9629
2335	0.9641
2344	0.967
2353	0.9705
2362	0.9739
2371	0.9743
2380	0.9738
2389	0.9719
2398	0.97
2407	0.9676
2416	0.9709
2425	0.9757
2434	0.9772
2443	0.9776
2452	0.9779
2461	0.9774
2470	0.977
2479	0.9763
2488	0.9757
2497	0.975
2506	0.974
2515	0.9726
2524	0.971
2533	0.9688
2542	0.9659
2551	0.9631
2560	0.9579
2569	0.9513
2578	0.9454
2587	0.9399
2596	0.9362
2605	0.9323
2614	0.9259
2623	0.9196
2632	0.9133
2641	0.907
2650	0.9009
2659	0.8938
2668	0.8817
2677	0.8593
2686	0.8465
2695	0.8522
2704	0.8573
2713	0.8292
2722	0.794
2731	0.7685
2740	0.7527
2749	0.7227
2758	0.6936
2767	0.6714
2776	0.6466
2785	0.6174
2794	0.5907
2803	0.5622
2812	0.5373
2821	0.4472
2830	0.3521
2839	0.2576
2848	0.1668
2857	0.1424
2866	0.1368
2875	0.1325
2884	0.102
2893	0.0806
2902	0.0605
2911	0.0526
2920	0.0541
2929	0.0591
2938	0.0752
2947	0.1113
2956	0.1446
2965	0.1433
2974	0.1395
2983	0.1529
2992	0.161
3001	0.1506
3010	0.1069
3019	0.0966
3028	0.175
3037	0.2793
3046	0.383
3055	0.486
3064	0.5884
3073	0.6903
3082	0.7873
3091	0.8446
3100	0.8652
3109	0.8758
3118	0.8825
3127	0.8882
3136	0.8903
3145	0.8914
3154	0.8897
3163	0.888
3172	0.886
3181	0.884
3190	0.8819
3199	0.8793
3208	0.8766
3217	0.8739
3226	0.8703
3235	0.866
3244	0.8613
3253	0.8553
3262	0.8493
3271	0.8431
3280	0.8369
3289	0.8307
3298	0.8209
3307	0.8111
3316	0.8012
3325	0.7914
3334	0.7826
3343	0.774
3352	0.7707
3361	0.7748
3370	0.8018
3379	0.8148
3388	0.8282
3397	0.8431
3406	0.8525
3415	0.8603
3424	0.8672
3433	0.87
3442	0.8725
3451	0.8757
3460	0.8779
3469	0.8799
3478	0.8824
3487	0.8842
3496	0.8866
3505	0.8893
3514	0.8916
3523	0.894
3532	0.8965
3541	0.8989
3550	0.9014
3559	0.9037
3568	0.9057
3577	0.9076
3586	0.9096
3595	0.9115
3604	0.9135
3613	0.9158
3622	0.9182
3631	0.9205
3640	0.9232
3649	0.926
3658	0.9288
3667	0.9317
3676	0.935
3685	0.9383
3694	0.9418
3703	0.9462
3712	0.9508
3721	0.9553
3730	0.9594
3739	0.9634
3748	0.966
3757	0.9657
3766	0.9654
3775	0.9649
3784	0.9641
3793	0.9633
3802	0.9625
3811	0.9615
3820	0.9608
3829	0.9609
3838	0.9622
3847	0.9636
3856	0.9666
3865	0.9694
3874	0.9714
3883	0.9716
3892	0.9706
3901	0.9696
3910	0.9685
3919	0.9676
3928	0.9666
3937	0.966
3946	0.9661
3955	0.9663
3964	0.9664
3973	0.9665
3982	0.9667
3991	0.9667
4000	0.9669
