Infrared Spectrum: Valeric acid hydrazide
Formula: C 5 H 12 N 2 O
CAS: 38291-82-6
State: gas
Origin: EPA-IR VAPOR PHASE LIBRARY
1/CM	ABSORBANCE
549.8	0.00057
559.445	0.003219
569.09	0.00105
578.735	0.00083
588.38	0.00233
598.025	0.00182
607.67	0.0049366
617.315	0.00561
626.96	0.0052
636.605	0.00526
646.251	0.0051159
655.896	0.0051027
665.541	0.0046636
675.186	0.0041194
684.831	0.0046396
694.476	0.00569
704.121	0.0046091
713.766	0.0049822
723.411	0.0050042
733.056	0.00479
742.701	0.00553
752.346	0.006
761.991	0.00634
771.636	0.0065
781.281	0.0062
790.926	0.00644
800.571	0.00624
810.216	0.00669
819.861	0.00697
829.507	0.00682
839.152	0.00782
848.797	0.00901
858.442	0.00895
868.087	0.01021
877.732	0.01112
887.377	0.01206
897.022	0.01258
906.667	0.01298
916.312	0.01194
925.957	0.01108
935.602	0.01051
945.247	0.01109
954.892	0.01239
964.537	0.01381
974.182	0.01339
983.827	0.01336
993.472	0.0131
1003.12	0.01239
1012.76	0.00979
1022.41	0.00693
1032.05	0.00559
1041.7	0.00523
1051.34	0.00527
1060.99	0.00533
1070.63	0.0050207
1080.28	0.0045584
1089.92	0.004631
1099.57	0.00422361
1109.21	0.004335
1118.86	0.0044465
1128.5	0.0047137
1138.15	0.0046908
1147.79	0.0045204
1157.44	0.0046738
1167.08	0.00535
1176.73	0.00684
1186.37	0.00904
1196.02	0.01178
1205.66	0.0131
1215.31	0.01418
1224.95	0.01415
1234.6	0.01519
1244.24	0.01672
1253.89	0.01741
1263.53	0.01717
1273.18	0.01422
1282.82	0.01163
1292.47	0.00968
1302.11	0.00865
1311.76	0.00806
1321.4	0.00789
1331.05	0.00802
1340.69	0.00867
1350.34	0.00862
1359.98	0.00787
1369.63	0.00787
1379.27	0.00824
1388.92	0.00861
1398.56	0.00901
1408.21	0.01174
1417.85	0.01792
1427.5	0.0284
1437.14	0.04185
1446.79	0.04993
1456.43	0.04805
1466.08	0.03939
1475.73	0.02831
1485.37	0.01923
1495.02	0.01361
1504.66	0.01023
1514.31	0.00801
1523.95	0.00652
1533.6	0.00601
1543.24	0.0051297
1552.89	0.0048971
1562.53	0.0048424
1572.18	0.0049511
1581.82	0.0050805
1591.47	0.00642
1601.11	0.00793
1610.76	0.01108
1620.4	0.01563
1630.05	0.01955
1639.69	0.01991
1649.34	0.01713
1658.98	0.01385
1668.63	0.0135
1678.27	0.0183
1687.92	0.03065
1697.56	0.05046
1707.21	0.06716
1716.85	0.06916
1726.5	0.05214
1736.14	0.02865
1745.79	0.01474
1755.43	0.00825
1765.08	0.00555
1774.72	0.0045288
1784.37	0.003736
1794.01	0.003584
1803.66	0.00306
1813.3	0.00305
1822.95	0.00299
1832.59	0.0026
1842.24	0.00278
1851.88	0.00284
1861.53	0.00262
1871.17	0.0026
1880.82	0.00266
1890.46	0.00261
1900.11	0.00264
1909.75	0.00253
1919.4	0.00248
1929.04	0.00236
1938.69	0.0025
1948.33	0.00238
1957.98	0.00243
1967.62	0.00225
1977.27	0.00233
1986.91	0.00237
1996.56	0.00241
2006.2	0.00225
2015.85	0.00213
2025.49	0.00231
2035.14	0.00234
2044.78	0.00239
2054.43	0.0023
2064.07	0.00224
2073.72	0.00214
2083.36	0.00215
2093.01	0.00214
2102.65	0.00227
2112.3	0.00234
2121.94	0.0022
2131.59	0.002
2141.23	0.00218
2150.88	0.00219
2160.52	0.00219
2170.17	0.00224
2179.81	0.00207
2189.46	0.00229
2199.1	0.00217
2208.75	0.00195
2218.39	0.00211
2228.04	0.00193
2237.68	0.00212
2247.33	0.00222
2256.97	0.0019
2266.62	0.00223
2276.26	0.0022
2285.91	0.00211
2295.55	0.00218
2305.2	0.00246
2314.84	0.00211
2324.49	0.00199
2334.13	0.00203
2343.78	0.00218
2353.42	0.00217
2363.07	0.00224
2372.72	0.00205
2382.36	0.00227
2392.01	0.0021
2401.65	0.00208
2411.3	0.00217
2420.94	0.00224
2430.59	0.00217
2440.23	0.0021
2449.88	0.00222
2459.52	0.00212
2469.17	0.00177
2478.81	0.0021
2488.46	0.00218
2498.1	0.00238
2507.75	0.00203
2517.39	0.00227
2527.04	0.00187
2536.68	0.00194
2546.33	0.00221
2555.97	0.00211
2565.62	0.00188
2575.26	0.00203
2584.91	0.00231
2594.55	0.00204
2604.2	0.00197
2613.84	0.00203
2623.49	0.0019
2633.13	0.00223
2642.78	0.00241
2652.42	0.00266
2662.07	0.00239
2671.71	0.00256
2681.36	0.00281
2691	0.0026
2700.65	0.00263
2710.29	0.00249
2719.94	0.00222
2729.58	0.00303
2739.23	0.00288
2748.87	0.00283
2758.52	0.00297
2768.16	0.00305
2777.81	0.003201
2787.45	0.003516
2797.1	0.003598
2806.74	0.003525
2816.39	0.003848
2826.03	0.0041406
2835.68	0.00531
2845.32	0.00682
2854.97	0.01013
2864.61	0.01421
2874.26	0.0183
2883.9	0.02004
2893.55	0.01856
2903.19	0.01812
2912.84	0.02189
2922.48	0.02829
2932.13	0.03563
2941.77	0.03964
2951.42	0.0401
2961.06	0.04138
2970.71	0.0406
2980.35	0.02865
2990	0.01477
2999.64	0.00887
3009.29	0.00575
3018.93	0.004961
3028.58	0.00427216
3038.22	0.00419352
3047.87	0.003287
3057.51	0.003
3067.16	0.00312
3076.8	0.00292
3086.45	0.00212
3096.09	0.00224
3105.74	0.00246
3115.38	0.00296
3125.03	0.00273
3134.67	0.00239
3144.32	0.00238
3153.96	0.00262
3163.61	0.00216
3173.25	0.00247
3182.9	0.00318
3192.54	0.00277
3202.19	0.00317
3211.83	0.00289
3221.48	0.00286
3231.12	0.00205
3240.77	0.00209
3250.41	0.00196
3260.06	0.00211
3269.7	0.00197
3279.35	0.00224
3289	0.00204
3298.64	0.00242
3308.29	0.00236
3317.93	0.00249
3327.58	0.00254
3337.22	0.00229
3346.87	0.00225
3356.51	0.00263
3366.16	0.00225
3375.8	0.00242
3385.45	0.00307
3395.09	0.00298
3404.74	0.003212
3414.38	0.00372
3424.03	0.003607
3433.67	0.0047267
3443.32	0.00674
3452.96	0.01012
3462.61	0.01185
3472.25	0.01179
3481.9	0.00986
3491.54	0.00607
3501.19	0.0044427
3510.83	0.003538
3520.48	0.003268
3530.12	0.00205
3539.77	0.00228
3549.41	0.00207
3559.06	0.00162
3568.7	0.00114
3578.35	0.00208
3587.99	0.00184
3597.64	0.00159
3607.28	0.00221
3616.93	0.00224
3626.57	0.00086
3636.22	0.00204
3645.86	0.00235
3655.51	0.00215
3665.15	0.00145
3674.8	0.002
3684.44	0.00163
3694.09	0.0014
3703.73	0.00142
3713.38	0.00245
3723.02	0.00143
3732.67	0.0016
3742.31	0.00189
3751.96	0.00198
3761.6	0.00159
3771.25	0.00205
3780.89	0.00112
3790.54	0.00164
3800.18	0.00183
3809.83	0.00198
3819.47	0.0016
3829.12	0.00187
3838.76	0.00164
3848.41	0.00134
3858.05	0.00144
3867.7	0.00153
3877.34	0.00204
3886.99	0.00162
3896.63	0.00155
3906.28	0.00179
3915.92	0.00157
3925.57	0.00164
3935.21	0.00213
3944.86	0.0026
3954.5	0.00201
3964.15	0.00219
3973.79	0.0018
3983.44	0.00179
3993.08	0.00191
