Infrared Spectrum: SULFONE, BIS(4-FLUOROPHENYL)-
Formula: C12 H8 F2 O2 S
CAS: 383-29-9
State: SOLUTION (10% IN CCl4 FOR 3800-1330, 10% IN CS2 FOR 1330-460 CM^-^1)
Melting point: 99 C
Class: COBLENTZ III
Instrument: DOW KBr FOREPRISM-GRATING
Instrument parameters: BLAZED AT 3.5, 12.0, 20.0 MICRON, CHANGED AT 5.0, 7.5, 14.9 MICRON
Sampling: TRANSMISSION
Path length: 0.010, 0.010 CM
Resolution: 4
Origin: DOW CHEMICAL COMPANY
1/CM	TRANSMITTANCE
457.093	0.759
465.85	0.76
474.606	0.764
483.363	0.767
492.119	0.759
500.876	0.761
509.632	0.779
518.389	0.771
527.146	0.787
535.902	0.764
544.659	0.548
553.415	0.035
562.172	0.574
570.928	0.808
579.685	0.819
588.442	0.85
597.198	0.854
605.955	0.859
614.711	0.856
623.468	0.846
632.224	0.673
640.981	0.83
649.738	0.813
658.494	0.818
667.251	0.768
676.007	0.287
684.764	0.603
693.52	0.856
702.277	0.863
711.034	0.0971
719.79	0.88
728.547	0.913
737.303	0.924
746.06	0.928
754.816	0.926
763.573	0.922
772.33	0.917
781.086	0.912
789.843	0.896
798.599	0.867
807.356	0.712
816.112	0.418
824.869	0.389
833.625	0.195
842.382	0.37
851.139	0.69
859.895	0.73
868.652	0.777
877.408	0.813
886.165	0.87
894.921	0.898
903.678	0.912
912.435	0.917
921.191	0.917
929.948	0.915
938.704	0.883
947.461	0.906
956.217	0.911
964.974	0.916
973.731	0.923
982.487	0.922
991.244	0.915
1000	0.9
1008.76	0.744
1017.51	0.852
1026.27	0.853
1035.03	0.839
1043.78	0.826
1052.54	0.815
1061.3	0.801
1070.05	0.425
1078.81	0.781
1087.57	0.692
1096.32	0.366
1105.08	0.138
1113.84	0.648
1122.59	0.741
1131.35	0.734
1140.11	0.614
1148.86	0.161
1157.62	0.307
1166.38	0.254
1175.13	0.647
1183.89	0.813
1192.64	0.856
1201.4	0.852
1210.16	0.753
1218.91	0.611
1227.67	0.432
1236.43	0.053
1245.18	0.447
1253.94	0.781
1262.7	0.805
1271.45	0.844
1280.21	0.803
1288.97	0.143
1297.72	0.662
1306.48	0.757
1315.24	0.633
1323.99	0.393
1332.75	0.065
1341.51	0.091
1350.26	0.659
1359.02	0.807
1367.78	0.849
1376.53	0.885
1385.29	0.898
1394.05	0.85
1402.8	0.589
1411.56	0.633
1420.32	0.912
1429.07	0.943
1437.83	0.916
1446.59	0.879
1455.34	0.891
1464.1	0.893
1472.86	0.853
1481.61	0.7069
1490.37	0.017
1499.12	0.0611
1507.88	0.607
1516.64	0.621
1525.39	0.607
1534.15	0.619
1542.91	0.534
1551.66	0.514
1560.42	0.543
1569.18	0.54
1577.93	0.3999
1586.69	0.0669
1595.45	0.103
1604.2	0.4801
1612.96	0.742
1621.72	0.822
1630.47	0.86
1639.23	0.893
1647.99	0.864
1656.74	0.872
1665.5	0.916
1674.26	0.954
1683.01	0.958
1691.77	0.964
1700.53	0.967
1709.28	0.971
1718.04	0.968
1726.8	0.969
1735.55	0.968
1744.31	0.968
1753.07	0.96
1761.82	0.953
1770.58	0.901
1779.34	0.938
1788.09	0.956
1796.85	0.968
1805.6	0.976
1814.36	0.979
1823.12	0.976
1831.87	0.975
1840.63	0.972
1849.39	0.971
1858.14	0.972
1866.9	0.965
1875.66	0.963
1884.41	0.953
1893.17	0.915
1901.93	0.845
1910.68	0.893
1919.44	0.938
1928.2	0.961
1936.95	0.968
1945.71	0.976
1954.47	0.979
1963.22	0.967
1971.98	0.968
1980.74	0.964
1989.49	0.964
1998.25	0.972
2007.01	0.978
2015.76	0.98
2024.52	0.982
2033.28	0.975
2042.03	0.976
2050.79	0.968
2059.55	0.957
2068.3	0.958
2077.06	0.968
2085.81	0.978
2094.57	0.984
2103.33	0.989
2112.08	0.989
2120.84	0.9861
2129.6	0.984
2138.35	0.99
2147.11	0.989
2155.87	0.991
2164.62	0.99
2173.38	0.9781
2182.14	0.969
2190.89	0.9869
2199.65	0.991
2208.41	0.987
2217.16	0.9841
2225.92	0.9762
2234.68	0.979
2243.43	0.9777
2252.19	0.9652
2260.95	0.9559
2269.7	0.969
2278.46	0.971
2287.22	0.976
2295.97	0.976
2304.73	0.9611
2313.49	0.9708
2322.24	0.9819
2331	0.987
2339.76	0.9861
2348.51	0.9869
2357.27	0.986
2366.03	0.984
2374.78	0.983
2383.54	0.979
2392.29	0.9691
2401.05	0.9611
2409.81	0.9609
2418.56	0.967
2427.32	0.968
2436.08	0.979
2444.83	0.984
2453.59	0.9791
2462.35	0.9692
2471.1	0.9641
2479.86	0.963
2488.62	0.9745
2497.37	0.979
2506.13	0.979
2514.89	0.9869
2523.64	0.99
2532.4	0.99
2541.16	0.99
2549.91	0.989
2558.67	0.9821
2567.43	0.979
2576.18	0.9751
2584.94	0.9576
2593.7	0.9521
2602.45	0.9539
2611.21	0.9685
2619.97	0.9789
2628.72	0.9858
2637.48	0.986
2646.24	0.979
2654.99	0.982
2663.75	0.9791
2672.51	0.9827
2681.26	0.9842
2690.02	0.983
2698.77	0.9791
2707.53	0.98
2716.29	0.986
2725.04	0.982
2733.8	0.978
2742.56	0.979
2751.31	0.9829
2760.07	0.984
2768.83	0.9821
2777.58	0.9675
2786.34	0.9746
2795.1	0.9826
2803.85	0.983
2812.61	0.982
2821.37	0.982
2830.12	0.98
2838.88	0.9781
2847.64	0.9724
2856.39	0.961
2865.15	0.9667
2873.91	0.9602
2882.66	0.953
2891.42	0.9578
2900.18	0.9602
2908.93	0.9562
2917.69	0.9455
2926.45	0.9382
2935.2	0.9428
2943.96	0.9578
2952.72	0.9608
2961.47	0.9563
2970.23	0.9503
2978.99	0.941
2987.74	0.952
2996.5	0.96
3005.25	0.967
3014.01	0.9706
3022.77	0.969
3031.52	0.9645
3040.28	0.9535
3049.04	0.9377
3057.79	0.9235
3066.55	0.8879
3075.31	0.8312
3084.06	0.8129
3092.82	0.8965
3101.58	0.8771
3110.33	0.8525
3119.09	0.9107
3127.85	0.9404
3136.6	0.95
3145.36	0.9556
3154.12	0.9596
3162.87	0.963
3171.63	0.965
3180.39	0.9642
3189.14	0.953
3197.9	0.9646
3206.66	0.9748
3215.41	0.976
3224.17	0.978
3232.93	0.978
3241.68	0.9764
3250.44	0.978
3259.2	0.978
3267.95	0.978
3276.71	0.976
3285.47	0.979
3294.22	0.978
3302.98	0.976
3311.73	0.976
3320.49	0.9764
3329.25	0.975
3338	0.976
3346.76	0.975
3355.52	0.9742
3364.27	0.974
3373.03	0.974
3381.79	0.974
3390.54	0.971
3399.3	0.9718
3408.06	0.968
3416.81	0.969
3425.57	0.972
3434.33	0.9695
3443.08	0.969
3451.84	0.969
3460.6	0.969
3469.35	0.969
3478.11	0.968
3486.87	0.9695
3495.62	0.965
3504.38	0.9705
3513.14	0.9673
3521.89	0.9658
3530.65	0.9665
3539.41	0.964
3548.16	0.9615
3556.92	0.957
3565.68	0.9555
3574.43	0.9505
3583.19	0.9589
3591.94	0.9615
3600.7	0.96
3609.46	0.963
3618.21	0.9637
3626.97	0.9603
3635.73	0.9665
3644.48	0.969
3653.24	0.9656
3662	0.968
3670.75	0.9616
3679.51	0.968
3688.27	0.9624
3697.02	0.9677
3705.78	0.971
3714.54	0.968
3723.29	0.9729
3732.05	0.9821
3740.81	0.9783
3749.56	0.9774
3758.32	0.974
3767.08	0.9753
3775.83	0.976
3784.59	0.979
3793.35	0.979
