Infrared Spectrum: P-TOLUENESULFONIC ACID, 2-FLUOROETHYL ESTER
Formula: C9 H11 F O3 S
CAS: 383-50-6
State: LIQUID (NEAT)
Boiling point: 113-125 C AT 75-175 mmHg
Class: COBLENTZ III
Instrument: PERKIN-ELMER 221 (GRATING)
Instrument parameters: FILTER AT 980 CM ^-^1, GRATING FOR 4000-1428 CM^-^1, NaCl PRISM FOR 1428-650 CM ^-^1
Sampling: TRANSMISSION
Path length: CAPILLARY
Resolution: 4
Origin: SOUTHERN RES. INSTITUTE
1/CM	TRANSMITTANCE
601.53	0.686
610.709	0.688
619.888	0.694
629.067	0.712
638.246	0.715
647.425	0.669
656.604	0.242
665.783	0.403
674.962	0.611
684.141	0.678
693.32	0.653
702.499	0.75
711.678	0.822
720.857	0.84
730.036	0.807
739.215	0.628
748.394	0.477
757.573	0.388
766.752	0.298
775.931	0.33
785.11	0.628
794.289	0.665
803.468	0.437
812.647	0.274
821.826	0.479
831.005	0.676
840.184	0.79
849.363	0.813
858.542	0.796
867.721	0.583
876.9	0.503
886.079	0.603
895.258	0.512
904.437	0.253
913.616	0.115
922.795	0.095
931.974	0.268
941.153	0.593
950.332	0.713
959.511	0.745
968.69	0.766
977.869	0.767
987.048	0.733
996.227	0.673
1005.41	0.507
1014.59	0.337
1023.76	0.304
1032.94	0.439
1042.12	0.6
1051.3	0.594
1060.48	0.347
1069.66	0.326
1078.84	0.555
1088.02	0.652
1097.2	0.384
1106.38	0.681
1115.55	0.665
1124.73	0.7
1133.91	0.843
1143.09	0.839
1152.27	0.771
1161.45	0.671
1170.63	0.214
1179.81	0.199
1188.99	0.123
1198.17	0.461
1207.34	0.752
1216.52	0.756
1225.7	0.842
1234.88	0.81
1244.06	0.719
1253.24	0.785
1262.42	0.858
1271.6	0.836
1280.78	0.733
1289.96	0.67
1299.13	0.756
1308.31	0.65
1317.49	0.803
1326.67	0.731
1335.85	0.542
1345.03	0.26
1354.21	0.124
1363.39	0.168
1372.57	0.23
1381.75	0.515
1390.92	0.674
1400.1	0.623
1409.28	0.787
1418.46	0.796
1427.64	0.783
1436.82	0.752
1446	0.676
1455.18	0.586
1464.36	0.694
1473.54	0.788
1482.71	0.846
1491.89	0.78
1501.07	0.68
1510.25	0.883
1519.43	0.892
1528.61	0.896
1537.79	0.899
1546.97	0.903
1556.15	0.902
1565.33	0.898
1574.5	0.885
1583.68	0.865
1592.86	0.83
1602.04	0.498
1611.22	0.644
1620.4	0.841
1629.58	0.879
1638.76	0.886
1647.94	0.888
1657.12	0.871
1666.29	0.883
1675.47	0.889
1684.65	0.891
1693.83	0.893
1703.01	0.898
1712.19	0.901
1721.37	0.903
1730.55	0.902
1739.73	0.901
1748.91	0.9
1758.08	0.899
1767.26	0.897
1776.44	0.9
1785.62	0.903
1794.8	0.902
1803.98	0.897
1813.16	0.894
1822.34	0.896
1831.52	0.903
1840.7	0.906
1849.87	0.907
1859.05	0.906
1868.23	0.905
1877.41	0.905
1886.59	0.903
1895.77	0.9
1904.95	0.894
1914.13	0.882
1923.31	0.871
1932.49	0.877
1941.66	0.889
1950.84	0.899
1960.02	0.901
1969.2	0.903
1978.38	0.903
1987.56	0.903
1996.74	0.903
2005.92	0.903
2015.1	0.903
2024.28	0.904
2033.45	0.904
2042.63	0.904
2051.81	0.904
2060.99	0.903
2070.17	0.903
2079.35	0.903
2088.53	0.903
2097.71	0.902
2106.89	0.901
2116.07	0.9
2125.24	0.9
2134.42	0.899
2143.6	0.9
2152.78	0.9
2161.96	0.901
2171.14	0.901
2180.32	0.9
2189.5	0.899
2198.68	0.898
2207.86	0.898
2217.03	0.9
2226.21	0.9
2235.39	0.898
2244.57	0.895
2253.75	0.891
2262.93	0.887
2272.11	0.884
2281.29	0.884
2290.47	0.885
2299.65	0.886
2308.82	0.888
2318	0.888
2327.18	0.889
2336.36	0.89
2345.54	0.89
2354.72	0.888
2363.9	0.887
2373.08	0.886
2382.26	0.885
2391.44	0.884
2400.61	0.884
2409.79	0.886
2418.97	0.887
2428.15	0.888
2437.33	0.886
2446.51	0.886
2455.69	0.886
2464.87	0.886
2474.05	0.884
2483.23	0.86
2492.4	0.879
2501.58	0.886
2510.76	0.883
2519.94	0.881
2529.12	0.881
2538.3	0.881
2547.48	0.881
2556.66	0.881
2565.84	0.882
2575.02	0.882
2584.19	0.883
2593.37	0.883
2602.55	0.885
2611.73	0.886
2620.91	0.887
2630.09	0.889
2639.27	0.888
2648.45	0.886
2657.63	0.886
2666.81	0.885
2675.98	0.884
2685.16	0.883
2694.34	0.883
2703.52	0.882
2712.7	0.881
2721.88	0.88
2731.06	0.88
2740.24	0.88
2749.42	0.88
2758.6	0.88
2767.77	0.877
2776.95	0.875
2786.13	0.871
2795.31	0.87
2804.49	0.868
2813.67	0.866
2822.85	0.864
2832.03	0.862
2841.21	0.859
2850.39	0.85
2859.56	0.836
2868.74	0.824
2877.92	0.813
2887.1	0.803
2896.28	0.805
2905.46	0.805
2914.64	0.799
2923.82	0.772
2933	0.765
2942.18	0.756
2951.35	0.712
2960.53	0.674
2969.71	0.703
2978.89	0.726
2988.07	0.733
2997.25	0.754
3006.43	0.784
3015.61	0.801
3024.79	0.807
3033.97	0.804
3043.14	0.8
3052.32	0.797
3061.5	0.795
3070.68	0.799
3079.86	0.825
3089.04	0.83
3098.22	0.834
3107.4	0.837
3116.58	0.846
3125.76	0.855
3134.93	0.857
3144.11	0.857
3153.29	0.858
3162.47	0.859
3171.65	0.86
3180.83	0.861
3190.01	0.862
3199.19	0.863
3208.37	0.863
3217.55	0.864
3226.72	0.865
3235.9	0.865
3245.08	0.865
3254.26	0.864
3263.44	0.864
3272.62	0.864
3281.8	0.863
3290.98	0.862
3300.16	0.861
3309.34	0.861
3318.51	0.86
3327.69	0.86
3336.87	0.86
3346.05	0.86
3355.23	0.859
3364.41	0.858
3373.59	0.857
3382.77	0.857
3391.95	0.857
3401.13	0.857
3410.3	0.857
3419.48	0.857
3428.66	0.857
3437.84	0.856
3447.02	0.856
3456.2	0.856
3465.38	0.856
3474.56	0.856
3483.74	0.853
3492.92	0.855
3502.09	0.856
3511.27	0.858
3520.45	0.859
3529.63	0.859
3538.81	0.857
3547.99	0.855
3557.17	0.853
3566.35	0.852
3575.53	0.853
3584.71	0.853
3593.88	0.856
3603.06	0.856
3612.24	0.856
3621.42	0.853
3630.6	0.85
3639.78	0.846
3648.96	0.843
3658.14	0.84
3667.32	0.838
3676.5	0.841
3685.67	0.848
3694.85	0.853
3704.03	0.856
3713.21	0.856
3722.39	0.854
3731.57	0.852
3740.75	0.852
3749.93	0.853
3759.11	0.853
3768.29	0.854
3777.46	0.855
3786.64	0.856
3795.82	0.855
3805	0.853
3814.18	0.853
3823.36	0.852
3832.54	0.851
3841.72	0.851
3850.9	0.851
3860.08	0.851
3869.25	0.85
3878.43	0.849
3887.61	0.85
3896.79	0.85
3905.97	0.85
3915.15	0.85
3924.33	0.85
3933.51	0.85
3942.69	0.85
3951.87	0.852
3961.04	0.852
3970.22	0.851
3979.4	0.851
3988.58	0.85
3997.76	0.849
