Infrared Spectrum: Allyl trifluoroacetate
Formula: C 5 H 5 F 3 O 2
CAS: 383-67-5
State: gas
Origin: EPA-IR VAPOR PHASE LIBRARY
1/CM	ABSORBANCE
549.9	0.00813
559.547	0.00745
569.193	0.00666
578.84	0.00603
588.486	0.00568
598.133	0.00485
607.779	0.0047
617.426	0.00483
627.072	0.00558
636.719	0.00699
646.365	0.00826
656.012	0.00814
665.658	0.00665
675.305	0.00549
684.951	0.00516
694.598	0.00518
704.245	0.00582
713.891	0.0081
723.538	0.01987
733.184	0.03489
742.831	0.02595
752.477	0.00995
762.124	0.0115
771.77	0.01686
781.417	0.01793
791.063	0.01317
800.71	0.00919
810.356	0.00878
820.003	0.01186
829.649	0.01517
839.296	0.01482
848.943	0.01252
858.589	0.01063
868.236	0.00902
877.882	0.00834
887.529	0.00923
897.175	0.01248
906.822	0.01892
916.468	0.02661
926.115	0.03544
935.761	0.04869
945.408	0.05014
955.054	0.04415
964.701	0.04323
974.347	0.03658
983.994	0.0298
993.64	0.02483
1003.29	0.01901
1012.93	0.01457
1022.58	0.01259
1032.23	0.01168
1041.87	0.01109
1051.52	0.01088
1061.17	0.01114
1070.81	0.01232
1080.46	0.01528
1090.11	0.02062
1099.75	0.02993
1109.4	0.05014
1119.05	0.10606
1128.69	0.23425
1138.34	0.41002
1147.99	0.49912
1157.63	0.41169
1167.28	0.31492
1176.92	0.31871
1186.57	0.31188
1196.22	0.24056
1205.86	0.2005
1215.51	0.23513
1225.16	0.29894
1234.8	0.26266
1244.45	0.14565
1254.1	0.06334
1263.74	0.03862
1273.39	0.03034
1283.04	0.02426
1292.68	0.02036
1302.33	0.02098
1311.98	0.02755
1321.62	0.04219
1331.27	0.06016
1340.92	0.06406
1350.56	0.04643
1360.21	0.02998
1369.86	0.02787
1379.5	0.03102
1389.15	0.02742
1398.79	0.01811
1408.44	0.01353
1418.09	0.01294
1427.73	0.01305
1437.38	0.0119
1447.03	0.01173
1456.67	0.01284
1466.32	0.01133
1475.97	0.0083
1485.61	0.00621
1495.26	0.00521
1504.91	0.00477
1514.55	0.00448
1524.2	0.0044717
1533.85	0.00477
1543.49	0.00603
1553.14	0.00666
1562.79	0.00554
1572.43	0.0043999
1582.08	0.003945
1591.73	0.0039059
1601.37	0.0038248
1611.02	0.0040295
1620.67	0.0043158
1630.31	0.00487
1639.96	0.00597
1649.6	0.00675
1659.25	0.00603
1668.9	0.00506
1678.54	0.00471
1688.19	0.00474
1697.84	0.00503
1707.48	0.00513
1717.13	0.00546
1726.78	0.0064
1736.42	0.0084
1746.07	0.01237
1755.72	0.019
1765.36	0.03195
1775.01	0.0627
1784.66	0.13113
1794.3	0.21869
1803.95	0.21787
1813.6	0.11757
1823.24	0.0461
1832.89	0.021
1842.54	0.01288
1852.18	0.00922
1861.83	0.00766
1871.47	0.0071
1881.12	0.0069
1890.77	0.00617
1900.41	0.00516
1910.06	0.00474
1919.71	0.0044438
1929.35	0.0041008
1939	0.0040999
1948.65	0.0042667
1958.29	0.0044747
1967.94	0.0044332
1977.59	0.0041827
1987.23	0.0038676
1996.88	0.0036232
2006.53	0.0033822
2016.17	0.003237
2025.82	0.003111
2035.47	0.003012
2045.11	0.003032
2054.76	0.003038
2064.41	0.003062
2074.05	0.00305
2083.7	0.002945
2093.35	0.002843
2102.99	0.002778
2112.64	0.002792
2122.28	0.002647
2131.93	0.002652
2141.58	0.002548
2151.22	0.002517
2160.87	0.002483
2170.52	0.002489
2180.16	0.00246
2189.81	0.002506
2199.46	0.00254
2209.1	0.002554
2218.75	0.002587
2228.4	0.002565
2238.04	0.00252
2247.69	0.002681
2257.34	0.00274
2266.98	0.002943
2276.63	0.003135
2286.28	0.003324
2295.92	0.00347261
2305.57	0.00364
2315.22	0.00355161
2324.86	0.00351421
2334.51	0.003419
2344.16	0.003319
2353.8	0.003247
2363.45	0.003201
2373.09	0.003045
2382.74	0.002988
2392.39	0.003058
2402.03	0.003055
2411.68	0.003071
2421.33	0.003013
2430.97	0.003048
2440.62	0.00306
2450.27	0.003132
2459.91	0.003249
2469.56	0.003325
2479.21	0.003233
2488.85	0.003195
2498.5	0.003078
2508.15	0.002966
2517.79	0.00292
2527.44	0.002801
2537.09	0.002631
2546.73	0.002535
2556.38	0.00239
2566.03	0.00235
2575.67	0.00217
2585.32	0.0021
2594.96	0.00199
2604.61	0.00192
2614.26	0.00201
2623.9	0.00205
2633.55	0.00196
2643.2	0.00187
2652.84	0.00172
2662.49	0.00156
2672.14	0.00151
2681.78	0.00139
2691.43	0.00148
2701.08	0.00141
2710.72	0.00133
2720.37	0.00141
2730.02	0.00135
2739.66	0.00134
2749.31	0.00144
2758.96	0.00149
2768.6	0.00151
2778.25	0.0013
2787.9	0.00144
2797.54	0.00131
2807.19	0.00102
2816.84	0.00093
2826.48	0.00073
2836.13	0.0006
2845.77	0.00036
2855.42	0.00021
2865.07	0.0001
2874.71	0.00042
2884.36	0.00139
2894.01	0.00239
2903.65	0.002836
2913.3	0.002578
2922.95	0.002585
2932.59	0.0034346
2942.24	0.00538
2951.89	0.00897
2961.53	0.01208
2971.18	0.01112
2980.83	0.00812
2990.47	0.00758
3000.12	0.00798
3009.77	0.00705
3019.41	0.00595
3029.06	0.00597
3038.71	0.0052
3048.35	0.0036455
3058	0.003072
3067.64	0.0036074
3077.29	0.00455
3086.94	0.00677
3096.58	0.00917
3106.23	0.00858
3115.88	0.00502
3125.52	0.002609
3135.17	0.00171
3144.82	0.00144
3154.46	0.00131
3164.11	0.0012
3173.76	0.00108
3183.4	0.00117
3193.05	0.00102
3202.7	0.00087
3212.34	0.00099
3221.99	0.00094
3231.64	0.0009
3241.28	0.00101
3250.93	0.00102
3260.58	0.00098
3270.22	0.00103
3279.87	0.00119
3289.52	0.00105
3299.16	0.00117
3308.81	0.00111
3318.45	0.00109
3328.1	0.00125
3337.75	0.0012
3347.39	0.00135
3357.04	0.00153
3366.69	0.00146
3376.33	0.00135
3385.98	0.00151
3395.63	0.00168
3405.27	0.00171
3414.92	0.00184
3424.57	0.00176
3434.21	0.00163
3443.86	0.00177
3453.51	0.00182
3463.15	0.00182
3472.8	0.00204
3482.45	0.0021
3492.09	0.00207
3501.74	0.00217
3511.39	0.0023
3521.03	0.00233
3530.68	0.00246
3540.33	0.002612
3549.97	0.002867
3559.62	0.0036328
3569.26	0.0041007
3578.91	0.00453
3588.56	0.0040452
3598.2	0.003274
3607.85	0.002772
3617.5	0.002651
3627.14	0.0024
3636.79	0.00226
3646.44	0.00232
3656.08	0.00225
3665.73	0.00219
3675.38	0.00222
3685.02	0.00233
3694.67	0.00232
3704.32	0.00228
3713.96	0.00231
3723.61	0.00241
3733.26	0.00231
3742.9	0.00234
3752.55	0.00223
3762.2	0.00216
3771.84	0.00224
3781.49	0.00219
3791.13	0.00223
3800.78	0.0023
3810.43	0.00235
3820.07	0.00232
3829.72	0.00231
3839.37	0.00229
3849.01	0.00232
3858.66	0.00237
3868.31	0.00246
3877.95	0.00239
3887.6	0.00237
3897.25	0.00233
3906.89	0.00233
3916.54	0.00231
3926.19	0.002547
3935.83	0.00221
3945.48	0.00242
3955.13	0.00239
3964.77	0.00244
3974.42	0.00229
3984.07	0.00222
3993.71	0.00233
