Infrared Spectrum: 5Alpha-Androstane, 3,3,17,17-tetrafluoro-,
Formula: C19 H28 F4
CAS: 3834-18-2
State: SOLUTION 7% (CHCl3)
Class: COBLENTZ
Instrument: PERKIN-ELMER 21 (GRATING)
Instrument parameters: FILTER AT ABOUT 10 MICRONS
Path length: 0.01 CM
Resolution: 2
Origin: ABBOTT LABORATORIES
1/CM	TRANSMITTANCE
799	0.7796
808	0.7128
817	0.8549
826	0.8711
835	0.8636
844	0.794
853	0.874
862	0.8804
871	0.8877
880	0.7968
889	0.7126
898	0.6956
907	0.6961
916	0.7769
925	0.6803
934	0.427
943	0.7939
952	0.7234
961	0.4625
970	0.6995
979	0.6428
988	0.5653
997	0.3347
1006	0.6714
1015	0.6579
1024	0.663
1033	0.501
1042	0.715
1051	0.5521
1060	0.2048
1069	0.3975
1078	0.293
1087	0.401
1096	0.3717
1105	0.4948
1114	0.6075
1123	0.5966
1132	0.5979
1141	0.6086
1150	0.473
1159	0.3043
1168	0.5183
1177	0.5913
1186	0.727
1195	0.6803
1204	0.6575
1213	0.6477
1222	0.6368
1231	0.6783
1240	0.6477
1249	0.6926
1258	0.5299
1267	0.5869
1276	0.6593
1285	0.5184
1294	0.6937
1303	0.4667
1312	0.3296
1321	0.6688
1330	0.708
1339	0.5489
1348	0.7014
1357	0.5618
1366	0.5547
1375	0.5768
1384	0.6756
1393	0.828
1402	0.8276
1411	0.7996
1420	0.7421
1429	0.6397
1438	0.5804
1447	0.5113
1456	0.516
1465	0.664
1474	0.8225
1483	0.8602
1492	0.8728
1501	0.8775
1510	0.8852
1519	0.893
1528	0.898
1537	0.9012
1546	0.9027
1555	0.9042
1564	0.905
1573	0.9056
1582	0.9064
1591	0.9072
1600	0.908
1609	0.9085
1618	0.909
1627	0.9095
1636	0.91
1645	0.9106
1654	0.9113
1663	0.9121
1672	0.9131
1681	0.9152
1690	0.9159
1699	0.916
1708	0.9149
1717	0.9135
1726	0.9124
1735	0.9138
1744	0.9152
1753	0.9164
1762	0.9178
1771	0.921
1780	0.923
1789	0.9239
1798	0.9245
1807	0.9251
1816	0.9258
1825	0.9265
1834	0.927
1843	0.9274
1852	0.9278
1861	0.9281
1870	0.9286
1879	0.9289
1888	0.9291
1897	0.9291
1906	0.9292
1915	0.9293
1924	0.9294
1933	0.9294
1942	0.929
1951	0.9286
1960	0.9281
1969	0.9277
1978	0.9273
1987	0.9268
1996	0.9263
2005	0.9257
2014	0.9252
2023	0.9246
2032	0.9242
2041	0.9237
2050	0.9233
2059	0.923
2068	0.9226
2077	0.9222
2086	0.922
2095	0.922
2104	0.922
2113	0.9221
2122	0.9221
2131	0.9221
2140	0.9221
2149	0.9222
2158	0.9222
2167	0.9222
2176	0.9222
2185	0.9223
2194	0.9223
2203	0.9231
2212	0.9242
2221	0.9253
2230	0.9264
2239	0.9275
2248	0.9279
2257	0.9285
2266	0.9289
2275	0.9285
2284	0.9271
2293	0.9257
2302	0.9242
2311	0.9227
2320	0.9213
2329	0.9197
2338	0.9182
2347	0.9166
2356	0.9151
2365	0.9143
2374	0.9139
2383	0.9135
2392	0.9143
2401	0.9153
2410	0.9173
2419	0.9198
2428	0.9222
2437	0.9249
2446	0.9275
2455	0.9293
2464	0.9309
2473	0.9319
2482	0.9312
2491	0.9303
2500	0.928
2509	0.9256
2518	0.9228
2527	0.9199
2536	0.9171
2545	0.914
2554	0.911
2563	0.9081
2572	0.906
2581	0.9039
2590	0.9027
2599	0.9018
2608	0.9017
2617	0.9017
2626	0.9014
2635	0.9007
2644	0.9002
2653	0.8993
2662	0.8985
2671	0.8976
2680	0.8968
2689	0.8955
2698	0.894
2707	0.8924
2716	0.8903
2725	0.8871
2734	0.8839
2743	0.8795
2752	0.8742
2761	0.8669
2770	0.8591
2779	0.8465
2788	0.8303
2797	0.8112
2806	0.7721
2815	0.7026
2824	0.6336
2833	0.5651
2842	0.4969
2851	0.4608
2860	0.4546
2869	0.45
2878	0.4435
2887	0.4236
2896	0.3874
2905	0.3097
2914	0.2844
2923	0.2791
2932	0.2797
2941	0.2857
2950	0.3314
2959	0.4123
2968	0.4931
2977	0.5733
2986	0.6531
2995	0.7989
3004	0.8232
3013	0.8393
3022	0.8487
3031	0.8568
3040	0.8634
3049	0.8695
3058	0.8743
3067	0.8791
3076	0.8838
3085	0.8882
3094	0.8924
3103	0.8954
3112	0.8979
3121	0.9002
3130	0.9026
3139	0.905
3148	0.9071
3157	0.9092
3166	0.9113
3175	0.9131
3184	0.9147
3193	0.9164
3202	0.918
3211	0.9194
3220	0.9204
3229	0.9214
3238	0.9225
3247	0.9233
3256	0.924
3265	0.9247
3274	0.9253
3283	0.9253
3292	0.9251
3301	0.925
3310	0.9249
3319	0.9248
3328	0.9247
3337	0.9245
3346	0.9244
3355	0.9242
3364	0.9241
3373	0.9239
3382	0.9239
3391	0.9241
3400	0.9243
3409	0.9246
3418	0.9248
3427	0.925
3436	0.9252
3445	0.9256
3454	0.9259
3463	0.9263
3472	0.9265
3481	0.9256
3490	0.9249
3499	0.9241
3508	0.9234
3517	0.9223
3526	0.9214
3535	0.9203
3544	0.9193
3553	0.918
3562	0.9166
3571	0.9152
3580	0.9141
3589	0.9135
3598	0.913
3607	0.9125
3616	0.9121
3625	0.9121
3634	0.9122
3643	0.9123
3652	0.9124
3661	0.9125
3670	0.9125
3679	0.9126
3688	0.9125
3697	0.9124
3706	0.9123
3715	0.9121
3724	0.9121
3733	0.9119
3742	0.9118
3751	0.9114
3760	0.9111
3769	0.9109
3778	0.9106
3787	0.9103
3796	0.91
3805	0.9097
3814	0.9093
3823	0.909
3832	0.9088
3841	0.9085
3850	0.9082
3859	0.9079
3868	0.9076
3877	0.9073
3886	0.9069
3895	0.9064
3904	0.9061
3913	0.9057
3922	0.9053
3931	0.905
3940	0.9048
3949	0.9045
3958	0.9042
3967	0.9039
3976	0.9036
3985	0.9033
3994	0.903
