Infrared Spectrum: 2-PYRIDINECARBAMIC ACID, 5,6-DIAMINO-4-[(DIPHENYLMETHYL)AMINO]-, ETHYL ESTER
Formula: C21 H23 N5 O2
CAS: 38359-68-1
State: SOLID (1 mg / 650 mg KBr DISC)
Class: COBLENTZ III
Instrument: PERKIN-ELMER 521 (GRATING)
Instrument parameters: FILTER CHANGE AT 3150, 2500, 2000, 1150, 700, 410 CM^-^1, GRATING CHANGES AT 2000, 630 CM^-^1
Sampling: TRANSMISSION
Resolution: 4
Origin: SOUTHERN RESEARCH INSTITUTE
1/CM	TRANSMITTANCE
255.313	0.333
264.376	0.417
273.438	0.458
282.501	0.502
291.563	0.553
300.626	0.591
309.688	0.615
318.751	0.627
327.813	0.637
336.876	0.641
345.938	0.636
355.001	0.636
364.063	0.664
373.126	0.68
382.188	0.698
391.251	0.708
400.313	0.712
409.376	0.712
418.438	0.71
427.501	0.702
436.563	0.695
445.626	0.695
454.688	0.699
463.751	0.699
472.813	0.691
481.876	0.688
490.938	0.683
500.001	0.673
509.063	0.675
518.126	0.675
527.189	0.67
536.251	0.645
545.314	0.654
554.376	0.658
563.439	0.598
572.501	0.556
581.564	0.579
590.626	0.566
599.689	0.584
608.751	0.619
617.814	0.619
626.876	0.628
635.939	0.654
645.001	0.658
654.064	0.661
663.126	0.647
672.189	0.637
681.251	0.619
690.314	0.467
699.376	0.326
708.439	0.558
717.501	0.668
726.564	0.63
735.626	0.557
744.689	0.52
753.751	0.585
762.814	0.522
771.877	0.531
780.939	0.641
790.002	0.669
799.064	0.597
808.127	0.614
817.189	0.657
826.252	0.706
835.314	0.699
844.377	0.732
853.439	0.752
862.502	0.765
871.564	0.767
880.627	0.766
889.689	0.757
898.752	0.808
907.814	0.806
916.877	0.802
925.939	0.826
935.002	0.833
944.064	0.831
953.127	0.82
962.189	0.796
971.252	0.774
980.314	0.746
989.377	0.718
998.439	0.643
1007.5	0.581
1016.56	0.596
1025.63	0.554
1034.69	0.609
1043.75	0.577
1052.81	0.471
1061.88	0.621
1070.94	0.663
1080	0.681
1089.06	0.63
1098.13	0.626
1107.19	0.628
1116.25	0.581
1125.31	0.597
1134.38	0.641
1143.44	0.639
1152.5	0.606
1161.56	0.563
1170.63	0.522
1179.69	0.505
1188.75	0.451
1197.81	0.35
1206.88	0.315
1215.94	0.291
1225	0.266
1234.06	0.242
1243.13	0.263
1252.19	0.375
1261.25	0.495
1270.31	0.672
1279.38	0.715
1288.44	0.73
1297.5	0.711
1306.57	0.64
1315.63	0.623
1324.69	0.552
1333.75	0.531
1342.82	0.621
1351.88	0.678
1360.94	0.681
1370	0.602
1379.07	0.516
1388.13	0.508
1397.19	0.529
1406.25	0.486
1415.32	0.42
1424.38	0.328
1433.44	0.235
1442.5	0.247
1451.57	0.28
1460.63	0.385
1469.69	0.514
1478.75	0.539
1487.82	0.471
1496.88	0.366
1505.94	0.424
1515	0.357
1524.07	0.274
1533.13	0.273
1542.19	0.292
1551.25	0.352
1560.32	0.426
1569.38	0.407
1578.44	0.322
1587.5	0.273
1596.57	0.236
1605.63	0.194
1614.69	0.172
1623.75	0.225
1632.82	0.399
1641.88	0.517
1650.94	0.631
1660	0.672
1669.07	0.632
1678.13	0.536
1687.19	0.435
1696.25	0.365
1705.32	0.345
1714.38	0.354
1723.44	0.399
1732.5	0.647
1741.57	0.816
1750.63	0.883
1759.69	0.912
1768.75	0.93
1777.82	0.937
1786.88	0.936
1795.94	0.934
1805	0.941
1814.07	0.951
1823.13	0.957
1832.19	0.964
1841.25	0.971
1850.32	0.973
1859.38	0.97
1868.44	0.962
1877.5	0.955
1886.57	0.957
1895.63	0.961
1904.69	0.964
1913.75	0.964
1922.82	0.96
1931.88	0.954
1940.94	0.944
1950	0.947
1959.07	0.951
1968.13	0.954
1977.19	0.955
1986.25	0.955
1995.32	0.955
2004.38	0.955
2013.44	0.955
2022.5	0.954
2031.57	0.954
2040.63	0.954
2049.69	0.953
2058.75	0.952
2067.82	0.951
2076.88	0.95
2085.94	0.949
2095	0.947
2104.07	0.946
2113.13	0.946
2122.19	0.945
2131.25	0.944
2140.32	0.944
2149.38	0.943
2158.44	0.941
2167.5	0.938
2176.57	0.936
2185.63	0.934
2194.69	0.933
2203.75	0.933
2212.82	0.932
2221.88	0.931
2230.94	0.931
2240	0.931
2249.07	0.93
2258.13	0.93
2267.19	0.93
2276.25	0.929
2285.32	0.926
2294.38	0.924
2303.44	0.92
2312.5	0.917
2321.57	0.916
2330.63	0.915
2339.69	0.913
2348.75	0.913
2357.82	0.913
2366.88	0.912
2375.94	0.912
2385	0.912
2394.07	0.911
2403.13	0.91
2412.19	0.908
2421.25	0.907
2430.32	0.905
2439.38	0.903
2448.44	0.901
2457.5	0.898
2466.57	0.894
2475.63	0.892
2484.69	0.89
2493.75	0.887
2502.82	0.885
2511.88	0.884
2520.94	0.882
2530	0.881
2539.07	0.879
2548.13	0.877
2557.19	0.875
2566.26	0.872
2575.32	0.87
2584.38	0.866
2593.44	0.862
2602.51	0.858
2611.57	0.854
2620.63	0.852
2629.69	0.849
2638.76	0.848
2647.82	0.845
2656.88	0.841
2665.94	0.838
2675.01	0.833
2684.07	0.829
2693.13	0.825
2702.19	0.82
2711.26	0.815
2720.32	0.808
2729.38	0.803
2738.44	0.794
2747.51	0.787
2756.57	0.777
2765.63	0.774
2774.69	0.77
2783.76	0.768
2792.82	0.766
2801.88	0.763
2810.94	0.759
2820.01	0.753
2829.07	0.748
2838.13	0.734
2847.19	0.717
2856.26	0.71
2865.32	0.703
2874.38	0.699
2883.44	0.69
2892.51	0.678
2901.57	0.668
2910.63	0.661
2919.69	0.651
2928.76	0.635
2937.82	0.65
2946.88	0.648
2955.94	0.634
2965.01	0.611
2974.07	0.595
2983.13	0.611
2992.19	0.634
3001.26	0.646
3010.32	0.634
3019.38	0.604
3028.44	0.618
3037.51	0.654
3046.57	0.646
3055.63	0.636
3064.69	0.663
3073.76	0.672
3082.82	0.676
3091.88	0.679
3100.94	0.681
3110.01	0.677
3119.07	0.665
3128.13	0.653
3137.19	0.646
3146.26	0.644
3155.32	0.634
3164.38	0.607
3173.44	0.601
3182.51	0.591
3191.57	0.582
3200.63	0.581
3209.69	0.584
3218.76	0.585
3227.82	0.587
3236.88	0.587
3245.94	0.585
3255.01	0.581
3264.07	0.575
3273.13	0.57
3282.19	0.563
3291.26	0.551
3300.32	0.538
3309.38	0.527
3318.44	0.516
3327.51	0.506
3336.57	0.492
3345.63	0.479
3354.69	0.46
3363.76	0.438
3372.82	0.432
3381.88	0.433
3390.94	0.443
3400.01	0.461
3409.07	0.487
3418.13	0.506
3427.19	0.524
3436.26	0.537
3445.32	0.553
3454.38	0.578
3463.44	0.592
3472.51	0.602
3481.57	0.617
3490.63	0.638
3499.69	0.664
3508.76	0.701
3517.82	0.711
3526.88	0.717
3535.94	0.737
3545.01	0.746
3554.07	0.757
3563.13	0.766
3572.19	0.781
3581.26	0.788
3590.32	0.797
3599.38	0.806
3608.44	0.817
3617.51	0.827
3626.57	0.835
3635.63	0.843
3644.69	0.852
3653.76	0.855
3662.82	0.856
3671.88	0.857
3680.94	0.858
3690.01	0.859
3699.07	0.862
3708.13	0.865
3717.19	0.867
3726.26	0.867
3735.32	0.868
3744.38	0.868
3753.44	0.868
3762.51	0.868
3771.57	0.868
3780.63	0.867
3789.69	0.867
3798.76	0.864
3807.82	0.862
3816.88	0.857
