Infrared Spectrum: 2,2-Dimethyl-1-phenyl-1-propanol
Formula: C 11 H 16 O
CAS: 3835-64-1
State: gas
Instrument: HP-GC/MS/IRD
Origin: NIST Mass Spectrometry Data Center
1/CM	ABSORBANCE
550	0.0016365
562	0.000492
574	0.0001605
586	0.000297
598	0.000111
610	0.000111
622	0.00021
634	0.0005535
646	0.001119
658	0.000588
670	0.000618
682	0.0012855
694	0.0042945
706	0.006129
718	0.004773
730	0.0057555
742	0.0029475
754	0.0010335
766	0.000858
778	0.001149
790	0.0006405
802	0.000255
814	0.000234
826	0.000378
838	0.0002295
850	0.0001965
862	0.000315
874	0.000543
886	0.001395
898	0.001611
910	0.0008655
922	0.0006285
934	0.0005385
946	0.00045
958	0.000465
970	0.0007335
982	0.001437
994	0.0037095
1006	0.0058185
1018	0.004329
1030	0.0036705
1042	0.0047445
1054	0.0043245
1066	0.001854
1078	0.001527
1090	0.001188
1102	0.0006075
1114	0.000477
1126	0.000447
1138	0.0006225
1150	0.000963
1162	0.00189
1174	0.0027015
1186	0.0028155
1198	0.0027645
1210	0.002823
1222	0.0028845
1234	0.002547
1246	0.0016605
1258	0.001464
1270	0.001806
1282	0.0021885
1294	0.001938
1306	0.001446
1318	0.00108
1330	0.0010635
1342	0.001395
1354	0.0023085
1366	0.0038055
1378	0.0026085
1390	0.002244
1402	0.0023535
1414	0.0009795
1426	0.0007185
1438	0.0011865
1450	0.002373
1462	0.0025425
1474	0.002961
1486	0.0036
1498	0.001884
1510	0.000525
1522	0.0002865
1534	0.000261
1546	0.000282
1558	0.0001935
1570	0.000177
1582	0.000258
1594	0.0004305
1606	0.000495
1618	0.000183
1630	8.7e-05
1642	0.000117
1654	6.6e-05
1666	6.45e-05
1678	6.45e-05
1690	6.9e-05
1702	0.000102
1714	7.05e-05
1726	6.75e-05
1738	9.15e-05
1750	0.000141
1762	0.0001215
1774	0.0001005
1786	0.000117
1798	0.000255
1810	0.0002865
1822	0.000141
1834	8.55e-05
1846	5.55e-05
1858	9.3e-05
1870	0.0001485
1882	0.0002115
1894	0.000204
1906	0.000126
1918	8.1e-05
1930	0.0001635
1942	0.000336
1954	0.0003285
1966	0.0001815
1978	5.7e-05
1990	1.5e-05
2002	2.4e-05
2014	4.05e-05
2026	2.7e-05
2038	1.95e-05
2050	4.05e-05
2062	1.05e-05
2074	2.4e-05
2086	2.1e-05
2098	1.8e-05
2110	4.05e-05
2122	1.8e-05
2134	3.3e-05
2146	1.35e-05
2158	3e-05
2170	9e-06
2182	7.5e-06
2194	3.45e-05
2206	0
2218	2.25e-05
2230	3.75e-05
2242	1.65e-05
2254	1.95e-05
2266	5.25e-05
2278	1.8e-05
2290	3.6e-05
2302	3.6e-05
2314	4.8e-05
2326	9e-06
2338	5.4e-05
2350	3e-06
2362	0
2374	2.85e-05
2386	3.6e-05
2398	5.1e-05
2410	3.15e-05
2422	5.25e-05
2434	2.55e-05
2446	3.45e-05
2458	3.9e-05
2470	7.5e-06
2482	1.95e-05
2494	2.7e-05
2506	4.2e-05
2518	7.5e-06
2530	4.35e-05
2542	3.45e-05
2554	2.4e-05
2566	5.55e-05
2578	7.95e-05
2590	6.45e-05
2602	8.55e-05
2614	9.6e-05
2626	9.15e-05
2638	9.15e-05
2650	6.3e-05
2662	0.0001155
2674	0.0001245
2686	0.0001395
2698	0.000141
2710	0.000132
2722	0.0002205
2734	0.0001905
2746	0.000207
2758	0.0002055
2770	0.000213
2782	0.0002625
2794	0.000366
2806	0.0004725
2818	0.000588
2830	0.0007485
2842	0.001194
2854	0.002349
2866	0.0050085
2878	0.0068865
2890	0.0057675
2902	0.004905
2914	0.005235
2926	0.005445
2938	0.006492
2950	0.0096765
2962	0.014523
2974	0.013905
2986	0.0076425
2998	0.002448
3010	0.001305
3022	0.002118
3034	0.003552
3046	0.0027585
3058	0.0026025
3070	0.003921
3082	0.0031095
3094	0.0020265
3106	0.0011325
3118	0.000537
3130	0.000297
3142	0.0002475
3154	0.000207
3166	0.0002535
3178	0.0001845
3190	0.0001845
3202	0.000159
3214	0.000111
3226	0.0001485
3238	9.75e-05
3250	8.1e-05
3262	0.00012
3274	4.35e-05
3286	2.4e-05
3298	4.65e-05
3310	5.85e-05
3322	3e-05
3334	1.2e-05
3346	9.75e-05
3358	7.35e-05
3370	9.9e-05
3382	8.25e-05
3394	6.15e-05
3406	9.15e-05
3418	7.35e-05
3430	0.0001065
3442	8.55e-05
3454	7.2e-05
3466	7.2e-05
3478	8.85e-05
3490	8.4e-05
3502	5.55e-05
3514	5.85e-05
3526	6e-05
3538	6.15e-05
3550	9e-05
3562	7.65e-05
3574	1.95e-05
3586	9e-05
3598	8.7e-05
3610	0.0001005
3622	0.0002115
3634	0.0006045
3646	0.001881
3658	0.0020955
3670	0.0008355
3682	0.000261
3694	0.0001875
3706	0.000138
3718	6.6e-05
3730	0.000126
3742	9.6e-05
3754	0.000105
3766	0.000123
3778	9.9e-05
3790	2.55e-05
3802	4.5e-05
3814	5.25e-05
3826	6.75e-05
3838	6.75e-05
