Infrared Spectrum: 3,5-Dimethylthiophenol
Formula: C 8 H 10 S
CAS: 38360-81-5
State: gas
Origin: EPA-IR VAPOR PHASE LIBRARY
1/CM	ABSORBANCE
549.8	0.003684
559.445	0.001594
569.09	0.0005357
578.734	0.0008452
588.379	0.00056273
598.024	0.0007582
607.669	0.0012233
617.313	0.00062789
626.958	0.001724
636.603	0.000428
646.248	0.001574
655.893	0.003494
665.537	0.011554
675.182	0.021384
684.827	0.017064
694.472	0.009334
704.116	0.002704
713.761	0.002314
723.406	0.001734
733.051	0.001874
742.695	0.001584
752.34	0.0015099
761.985	0.0014819
771.63	0.002294
781.275	0.002584
790.919	0.004664
800.564	0.007464
810.209	0.014164
819.854	0.025194
829.498	0.040084
839.143	0.050294
848.788	0.047574
858.433	0.026464
868.078	0.007744
877.722	0.005904
887.367	0.006474
897.012	0.006494
906.657	0.006844
916.301	0.004734
925.946	0.003944
935.591	0.003914
945.236	0.003354
954.88	0.003374
964.525	0.004054
974.17	0.006294
983.815	0.007404
993.46	0.007084
1003.1	0.005174
1012.75	0.003894
1022.39	0.005154
1032.04	0.005674
1041.68	0.006694
1051.33	0.006824
1060.97	0.005054
1070.62	0.004174
1080.26	0.001864
1089.91	0.003484
1099.55	0.001934
1109.2	0.003504
1118.84	0.008074
1128.49	0.008644
1138.13	0.004294
1147.78	0.002704
1157.42	0.0010782
1167.07	0.002754
1176.71	0.002034
1186.36	0.001964
1196	0.002474
1205.64	0.002084
1215.29	0.001944
1224.93	0.002284
1234.58	0.002374
1244.22	0.004974
1253.87	0.007774
1263.51	0.009324
1273.16	0.007354
1282.8	0.004194
1292.45	0.004194
1302.09	0.004094
1311.74	0.003294
1321.38	0.003284
1331.03	0.003684
1340.67	0.004784
1350.32	0.006374
1359.96	0.007534
1369.61	0.008764
1379.25	0.011824
1388.9	0.012784
1398.54	0.010474
1408.18	0.009194
1417.83	0.011354
1427.47	0.021344
1437.12	0.031044
1446.76	0.030374
1456.41	0.022424
1466.05	0.020184
1475.7	0.021424
1485.34	0.021464
1494.99	0.020884
1504.63	0.020784
1514.28	0.019624
1523.92	0.019924
1533.57	0.022154
1543.21	0.023084
1552.86	0.023544
1562.5	0.031804
1572.15	0.057724
1581.79	0.089314
1591.44	0.095454
1601.08	0.059464
1610.73	0.031464
1620.37	0.010004
1630.01	0.004804
1639.66	0.003924
1649.3	0.003384
1658.95	0.003064
1668.59	0.003104
1678.24	0.003444
1687.88	0.003664
1697.53	0.004734
1707.17	0.005064
1716.82	0.005004
1726.46	0.005464
1736.11	0.005874
1745.75	0.006074
1755.4	0.005244
1765.04	0.003814
1774.69	0.002514
1784.33	0.001764
1793.98	0.001624
1803.62	0.0014389
1813.27	0.001614
1822.91	0.001674
1832.55	0.001654
1842.2	0.002024
1851.84	0.001714
1861.49	0.001674
1871.13	0.001754
1880.78	0.001834
1890.42	0.001884
1900.07	0.001784
1909.71	0.001804
1919.36	0.002024
1929	0.001854
1938.65	0.001644
1948.29	0.0010832
1957.94	0.0012532
1967.58	0.0010345
1977.23	0.0010731
1986.87	0.0009478
1996.52	0.0010776
2006.16	0.000991
2015.81	0.0011171
2025.45	0.0009111
2035.1	0.0008771
2044.74	0.0008944
2054.38	0.0007051
2064.03	0.0008494
2073.67	0.0009208
2083.32	0.00063751
2092.96	0.0008685
2102.61	0.0008433
2112.25	0.0011961
2121.9	0.0010989
2131.54	0.0010728
2141.19	0.0010145
2150.83	0.0011236
2160.48	0.0010027
2170.12	0.0008444
2179.77	0.0010217
2189.41	0.0010011
2199.06	0.0010081
2208.7	0.0009564
2218.35	0.0009797
2227.99	0.0011232
2237.64	0.0013915
2247.28	0.0009339
2256.92	0.0008524
2266.57	0.0011325
2276.21	0.0010763
2285.86	0.0010885
2295.5	0.001039
2305.15	0.0010041
2314.79	0.0009276
2324.44	0.0012265
2334.08	0.0011611
2343.73	0.00103
2353.37	0.0011472
2363.02	0.001261
2372.66	0.0014343
2382.31	0.001333
2391.95	0.0013418
2401.6	0.0015162
2411.24	0.001804
2420.89	0.001874
2430.53	0.001674
2440.18	0.001804
2449.82	0.001674
2459.47	0.0012934
2469.11	0.0013121
2478.75	0.0011478
2488.4	0.001212
2498.04	0.0013292
2507.69	0.0015323
2517.33	0.0014839
2526.98	0.0013017
2536.62	0.0012744
2546.27	0.0011623
2555.91	0.0013444
2565.56	0.0014939
2575.2	0.001714
2584.85	0.002384
2594.49	0.002164
2604.14	0.001614
2613.78	0.0013993
2623.43	0.0011665
2633.07	0.0014423
2642.72	0.0015093
2652.36	0.0014492
2662.01	0.0010737
2671.65	0.0012701
2681.29	0.0015625
2690.94	0.0012901
2700.58	0.0014898
2710.23	0.001694
2719.87	0.002044
2729.52	0.003124
2739.16	0.004014
2748.81	0.003624
2758.45	0.002514
2768.1	0.002084
2777.74	0.002124
2787.39	0.002174
2797.03	0.002704
2806.68	0.003324
2816.32	0.004294
2825.97	0.005624
2835.61	0.007424
2845.26	0.010144
2854.9	0.015354
2864.55	0.025314
2874.19	0.031784
2883.84	0.028514
2893.48	0.025924
2903.12	0.031084
2912.77	0.042404
2922.41	0.063524
2932.06	0.072514
2941.7	0.058034
2951.35	0.036354
2960.99	0.025534
2970.64	0.019284
2980.28	0.018934
2989.93	0.023564
2999.57	0.028474
3009.22	0.034574
3018.86	0.041084
3028.51	0.049014
3038.15	0.053624
3047.8	0.041984
3057.44	0.022264
3067.09	0.011324
3076.73	0.008244
3086.38	0.007044
3096.02	0.005794
3105.67	0.003784
3115.31	0.003204
3124.95	0.002014
3134.6	0.0014993
3144.24	0.0014073
3153.89	0.001488
3163.53	0.0014706
3173.18	0.0013744
3182.82	0.0012765
3192.47	0.0015435
3202.11	0.0013898
3211.76	0.0013336
3221.4	0.0011332
3231.05	0.0008982
3240.69	0.0008497
3250.34	0.0014888
3259.98	0.0009442
3269.63	0.0007706
3279.27	0.000463
3288.92	0.000918
3298.56	0.0007438
3308.21	0.0007732
3317.85	0.000301
3327.49	0.0010241
3337.14	0.00065608
3346.78	0.0007713
3356.43	0.0008618
3366.07	0.0009778
3375.72	0.00062281
3385.36	0.0006722
3395.01	0.00058148
3404.65	0.00038
3414.3	0.0007993
3423.94	0.0010045
3433.59	0.0009292
3443.23	0.0009571
3452.88	0.0007836
3462.52	0.0008604
3472.17	0.0010052
3481.81	0.0010735
3491.46	0.0007299
3501.1	0.0011395
3510.75	0.0004793
3520.39	0.0007848
3530.04	0.0006981
3539.68	0.0011234
3549.32	0.0012066
3558.97	0.0006143
3568.61	0.000570527
3578.26	0.0008742
3587.9	0.0006904
3597.55	0.000358
3607.19	0.0006929
3616.84	0.0008435
3626.48	0.0004952
3636.13	0.000427
3645.77	0.0005132
3655.42	0.000452
3665.06	0.0002
3674.71	0.00064175
3684.35	0.000793
3694	0.0004924
3703.64	0.000251
3713.29	0.000443
3722.93	0.0008295
3732.58	0.00062909
3742.22	0.0007642
3751.86	0.00062546
3761.51	0.0007585
3771.15	0.0005441
3780.8	0.0004798
3790.44	0.00058831
3800.09	0.0004642
3809.73	0.0011344
3819.38	0.0008846
3829.02	0.0012298
3838.67	0.0009029
3848.31	0.0009667
3857.96	0.0010939
3867.6	0.0011425
3877.25	0.0010527
3886.89	0.0011792
3896.54	0.0010704
3906.18	0.0014448
3915.83	0.0009368
3925.47	0.0014743
3935.12	0.0006768
3944.76	0.0011798
3954.41	0.0012227
3964.05	0.0007175
3973.69	0.0010775
3983.34	0.0012409
3992.98	0.001574
