Infrared Spectrum: PREGN-5-EN-20-ONE, 3-HYDROXY-
Formula: C21 H32 O2
CAS: 38372-24-6
State: SOLID (SPLIT MULL), FLUOROLUBE FOR 3800-1330 CM^-^1, NUJOL FOR 1330-400 CM^-^1
Class: COBLENTZ III
Instrument: DOW KBr FOREPRISM-GRATING
Instrument parameters: BLAZED AT 3.5, 12.0, 20.0 MICRON AND CHANGED AT 5.0, 7.5, 14.9 MICRON
Sampling: TRANSMISSION
Resolution: 2
Origin: DOW CHEMICAL COMPANY
1/CM	TRANSMITTANCE
381	0.7106
390	0.7194
399	0.7265
408	0.734
417	0.7388
426	0.7357
435	0.7267
444	0.7208
453	0.7232
462	0.7044
471	0.72
480	0.7282
489	0.7435
498	0.689
507	0.7562
516	0.7297
525	0.7639
534	0.7676
543	0.7628
552	0.7686
561	0.7524
570	0.8104
579	0.8134
588	0.79
597	0.5238
606	0.7106
615	0.8457
624	0.849
633	0.8174
642	0.874
651	0.8509
660	0.8875
669	0.8673
678	0.8612
687	0.864
696	0.8413
705	0.8378
714	0.7815
723	0.7103
732	0.7349
741	0.7008
750	0.7953
759	0.8049
768	0.799
777	0.7991
786	0.7997
795	0.7832
804	0.5155
813	0.7678
822	0.6915
831	0.7258
840	0.6348
849	0.6246
858	0.7662
867	0.763
876	0.7035
885	0.7448
894	0.7496
903	0.7181
912	0.7132
921	0.604
930	0.6965
939	0.6323
948	0.6027
957	0.5547
966	0.6855
975	0.6431
984	0.624
993	0.6497
1002	0.6639
1011	0.4783
1020	0.4515
1029	0.5905
1038	0.5798
1047	0.4248
1056	0.2408
1065	0.4708
1074	0.4084
1083	0.6231
1092	0.6189
1101	0.438
1110	0.6662
1119	0.6711
1128	0.6451
1137	0.4782
1146	0.6128
1155	0.5698
1164	0.4388
1173	0.5118
1182	0.576
1191	0.39
1200	0.5179
1209	0.6371
1218	0.5859
1227	0.3202
1236	0.5176
1245	0.5009
1254	0.584
1263	0.6005
1272	0.4802
1281	0.5451
1290	0.3818
1299	0.4519
1308	0.5196
1317	0.5833
1326	0.5827
1335	0.5968
1344	0.5531
1353	0.514
1362	0.445
1371	0.6717
1380	0.64
1389	0.7458
1398	0.6845
1407	0.6701
1416	0.6901
1425	0.6145
1434	0.5865
1443	0.6467
1452	0.6928
1461	0.5647
1470	0.7193
1479	0.827
1488	0.8575
1497	0.8507
1506	0.8573
1515	0.8575
1524	0.8568
1533	0.8517
1542	0.8481
1551	0.8455
1560	0.8418
1569	0.8361
1578	0.829
1587	0.8218
1596	0.8149
1605	0.8083
1614	0.8008
1623	0.7915
1632	0.7793
1641	0.7478
1650	0.7457
1659	0.6894
1668	0.5922
1677	0.3532
1686	0.2196
1695	0.7846
1704	0.8832
1713	0.8883
1722	0.8825
1731	0.8684
1740	0.8623
1749	0.8594
1758	0.8598
1767	0.8574
1776	0.8517
1785	0.8493
1794	0.8485
1803	0.8473
1812	0.8452
1821	0.8431
1830	0.8399
1839	0.8365
1848	0.8328
1857	0.8317
1866	0.8311
1875	0.8299
1884	0.8278
1893	0.826
1902	0.824
1911	0.822
1920	0.8199
1929	0.8178
1938	0.8156
1947	0.8134
1956	0.8108
1965	0.8084
1974	0.8046
1983	0.801
1992	0.7984
2001	0.76
2010	0.7541
2019	0.7532
2028	0.7515
2037	0.7493
2046	0.7464
2055	0.7438
2064	0.7411
2073	0.7386
2082	0.7362
2091	0.7341
2100	0.7319
2109	0.7298
2118	0.7276
2127	0.7254
2136	0.7225
2145	0.7198
2154	0.7172
2163	0.7148
2172	0.7119
2181	0.7088
2190	0.7057
2199	0.7028
2208	0.7003
2217	0.6971
2226	0.6938
2235	0.6886
2244	0.6821
2253	0.6738
2262	0.67
2271	0.6665
2280	0.6649
2289	0.6621
2298	0.6594
2307	0.6584
2316	0.6658
2325	0.6644
2334	0.6575
2343	0.6562
2352	0.6547
2361	0.6531
2370	0.6518
2379	0.6507
2388	0.6498
2397	0.6489
2406	0.648
2415	0.6471
2424	0.6471
2433	0.6474
2442	0.6467
2451	0.6454
2460	0.6432
2469	0.6406
2478	0.638
2487	0.6356
2496	0.6332
2505	0.6307
2514	0.6286
2523	0.6271
2532	0.6256
2541	0.6241
2550	0.6214
2559	0.6182
2568	0.6152
2577	0.6121
2586	0.609
2595	0.6059
2604	0.6028
2613	0.5995
2622	0.5962
2631	0.5929
2640	0.5896
2649	0.5864
2658	0.5833
2667	0.5801
2676	0.5767
2685	0.5731
2694	0.5698
2703	0.5671
2712	0.5643
2721	0.5608
2730	0.557
2739	0.5527
2748	0.5476
2757	0.5403
2766	0.5322
2775	0.5226
2784	0.5108
2793	0.5068
2802	0.5018
2811	0.4644
2820	0.4158
2829	0.3207
2838	0.2884
2847	0.4036
2856	0.3094
2865	0.3834
2874	0.3384
2883	0.3786
2892	0.2859
2901	0.3446
2910	0.2737
2919	0.3176
2928	0.2367
2937	0.2824
2946	0.2638
2955	0.2973
2964	0.2757
2973	0.4789
2982	0.5523
2991	0.5776
3000	0.5912
3009	0.6229
3018	0.6053
3027	0.5915
3036	0.6053
3045	0.6054
3054	0.6047
3063	0.6009
3072	0.5945
3081	0.5903
3090	0.5862
3099	0.5821
3108	0.5784
3117	0.5748
3126	0.571
3135	0.5675
3144	0.5642
3153	0.5609
3162	0.5576
3171	0.5544
3180	0.5515
3189	0.5486
3198	0.5457
3207	0.5427
3216	0.5398
3225	0.5368
3234	0.5339
3243	0.5309
3252	0.528
3261	0.5252
3270	0.5224
3279	0.5195
3288	0.5167
3297	0.5125
3306	0.5081
3315	0.5038
3324	0.4985
3333	0.493
3342	0.4874
3351	0.4818
3360	0.4762
3369	0.4708
3378	0.4654
3387	0.4593
3396	0.4531
3405	0.4462
3414	0.4384
3423	0.4297
3432	0.4179
3441	0.4059
3450	0.3941
3459	0.3821
3468	0.365
3477	0.3434
3486	0.3073
3495	0.239
3504	0.2138
3513	0.3151
3522	0.411
3531	0.4656
3540	0.4871
3549	0.4991
3558	0.5027
3567	0.503
3576	0.503
3585	0.5027
3594	0.5022
3603	0.5004
3612	0.4966
3621	0.4918
3630	0.488
3639	0.4842
3648	0.4804
3657	0.4767
3666	0.4731
3675	0.4698
3684	0.4671
3693	0.4644
3702	0.4621
3711	0.4598
3720	0.458
3729	0.4566
3738	0.4553
3747	0.4549
3756	0.4512
3765	0.4449
3774	0.4417
3783	0.4399
3792	0.4402
