Infrared Spectrum: 3,3-Dimethyl-1-indanol
Formula: C 11 H 14 O
CAS: 38393-92-9
State: gas
Instrument: HP-GC/MS/IRD
Origin: NIST Mass Spectrometry Data Center
1/CM	ABSORBANCE
550	0.001118
562	0.001072
574	0.000376
586	0.000404
598	0.000356
610	0.000614
622	0.000454
634	0.000112
646	0.000162
658	0.000142
670	6.6e-05
682	2e-06
694	0.000102
706	0.00025
718	0.000566
730	0.001282
742	0.00576
754	0.009668
766	0.003622
778	0.000718
790	0.000444
802	0.000396
814	0.00027
826	0.000164
838	0.000282
850	0.000534
862	0.000852
874	0.000906
886	0.00077
898	0.000516
910	0.000394
922	0.000604
934	0.000818
946	0.000878
958	0.001036
970	0.00161
982	0.001888
994	0.002258
1006	0.003064
1018	0.004504
1030	0.004994
1042	0.005134
1054	0.005646
1066	0.003944
1078	0.002878
1090	0.003138
1102	0.00251
1114	0.002204
1126	0.00202
1138	0.001868
1150	0.001882
1162	0.001954
1174	0.001958
1186	0.00243
1198	0.002794
1210	0.002658
1222	0.001878
1234	0.001544
1246	0.001668
1258	0.002
1270	0.00235
1282	0.00232
1294	0.002612
1306	0.003014
1318	0.00302
1330	0.002782
1342	0.002808
1354	0.00322
1366	0.004396
1378	0.004172
1390	0.003434
1402	0.00191
1414	0.001086
1426	0.000982
1438	0.001542
1450	0.002714
1462	0.003118
1474	0.003474
1486	0.002172
1498	0.000634
1510	0.000374
1522	0.000192
1534	7.2e-05
1546	7e-05
1558	6.8e-05
1570	0.000106
1582	0.000282
1594	0.000552
1606	0.000752
1618	0.000448
1630	0.000202
1642	8.2e-05
1654	8.4e-05
1666	8.2e-05
1678	0.000136
1690	0.00021
1702	0.000136
1714	9e-05
1726	9e-05
1738	5e-05
1750	4e-05
1762	3.8e-05
1774	9e-05
1786	0.000202
1798	0.000276
1810	0.000196
1822	0.00018
1834	0.000164
1846	0.000128
1858	8.4e-05
1870	0.000146
1882	0.000136
1894	0.000218
1906	0.00036
1918	0.000262
1930	0.000156
1942	0.0003
1954	0.00018
1966	3.6e-05
1978	2.2e-05
1990	0
2002	2e-05
2014	3.8e-05
2026	1.2e-05
2038	2.4e-05
2050	1.4e-05
2062	6e-06
2074	1.8e-05
2086	3.6e-05
2098	4.4e-05
2110	2e-05
2122	4.2e-05
2134	2.8e-05
2146	2e-05
2158	1.8e-05
2170	4e-05
2182	3.2e-05
2194	2e-05
2206	1.2e-05
2218	1.6e-05
2230	3.6e-05
2242	3.2e-05
2254	1.6e-05
2266	5.2e-05
2278	4.4e-05
2290	6.4e-05
2302	9e-05
2314	0.00012
2326	7.6e-05
2338	5.4e-05
2350	4.2e-05
2362	2.2e-05
2374	3e-05
2386	5.4e-05
2398	6.2e-05
2410	5.2e-05
2422	7.4e-05
2434	4.4e-05
2446	7.6e-05
2458	5.8e-05
2470	3.8e-05
2482	6.6e-05
2494	4.8e-05
2506	4e-05
2518	5e-05
2530	6.8e-05
2542	5.6e-05
2554	6.2e-05
2566	9.8e-05
2578	9.4e-05
2590	8.2e-05
2602	0.000112
2614	9.6e-05
2626	8.6e-05
2638	0.000154
2650	0.000146
2662	0.00012
2674	0.000142
2686	0.000144
2698	0.000134
2710	0.00018
2722	0.000262
2734	0.000286
2746	0.000298
2758	0.00027
2770	0.000312
2782	0.000314
2794	0.000298
2806	0.000442
2818	0.000538
2830	0.000726
2842	0.001246
2854	0.00253
2866	0.00488
2878	0.005864
2890	0.005196
2902	0.005632
2914	0.007016
2926	0.00944
2938	0.010468
2950	0.012652
2962	0.02
2974	0.012318
2986	0.00317
2998	0.00135
3010	0.001646
3022	0.003022
3034	0.003476
3046	0.002894
3058	0.003166
3070	0.004772
3082	0.003918
3094	0.001568
3106	0.000672
3118	0.000288
3130	0.000224
3142	0.000216
3154	0.000228
3166	0.000248
3178	0.000322
3190	0.0003
3202	0.00023
3214	0.000154
3226	9.6e-05
3238	0.000104
3250	8.6e-05
3262	6.4e-05
3274	5.2e-05
3286	5.6e-05
3298	8.4e-05
3310	6.8e-05
3322	2e-05
3334	3.6e-05
3346	1.6e-05
3358	1.2e-05
3370	2.4e-05
3382	4.6e-05
3394	2.4e-05
3406	3.4e-05
3418	6.4e-05
3430	1.2e-05
3442	6.4e-05
3454	6.8e-05
3466	2e-05
3478	6.2e-05
3490	6.6e-05
3502	5e-05
3514	4.2e-05
3526	2.2e-05
3538	6.6e-05
3550	4.6e-05
3562	4.4e-05
3574	2.4e-05
3586	0.000118
3598	0.000106
3610	0.000248
3622	0.00066
3634	0.001294
3646	0.001574
3658	0.000992
3670	0.000436
3682	0.000106
3694	6.2e-05
3706	3.6e-05
3718	7.8e-05
3730	6.2e-05
3742	6.4e-05
3754	9e-05
3766	6.4e-05
3778	3e-05
3790	6e-05
3802	8e-05
3814	0.00011
3826	6.2e-05
3838	0.000152
