Infrared Spectrum: 2-Cyanobenzoic acid
Formula: C 8 H 5 N O 2
CAS: 3839-22-3
State: gas
Origin: EPA-IR VAPOR PHASE LIBRARY
1/CM	ABSORBANCE
549.8	0.019507
559.445	0.011827
569.09	0.007107
578.734	0.004247
588.379	0.002887
598.024	0.001737
607.669	0.001387
617.313	0.0012606
626.958	0.001717
636.603	0.002847
646.248	0.003147
655.893	0.001327
665.537	0.0009693
675.182	0.0009174
684.827	0.001807
694.472	0.006427
704.116	0.016097
713.761	0.036967
723.406	0.016817
733.051	0.005597
742.695	0.003127
752.34	0.002197
761.985	0.0011464
771.63	0.001547
781.275	0.002777
790.919	0.003187
800.564	0.001527
810.209	0.0005029
819.854	0.0006538
829.498	0.0006179
839.143	0.0003846
848.788	0.0002592
858.433	0.00032647
868.078	0.0002909
877.722	0.0003779
887.367	0.0007026
897.012	0.0006247
906.657	0.0006461
916.301	0.0007988
925.946	0.0007223
935.591	0.0006873
945.236	0.0009418
954.88	0.001477
964.525	0.001607
974.17	0.002147
983.815	0.002527
993.46	0.005437
1003.1	0.010457
1012.75	0.018057
1022.39	0.029307
1032.04	0.026917
1041.68	0.010687
1051.33	0.005677
1060.97	0.007007
1070.62	0.007537
1080.26	0.008217
1089.91	0.007337
1099.55	0.004847
1109.2	0.002897
1118.84	0.002057
1128.49	0.001787
1138.13	0.001437
1147.78	0.001517
1157.42	0.001767
1167.07	0.003507
1176.71	0.005497
1186.36	0.005267
1196	0.002737
1205.64	0.002477
1215.29	0.002527
1224.93	0.002387
1234.58	0.002497
1244.22	0.003967
1253.87	0.006117
1263.51	0.007317
1273.16	0.010407
1282.8	0.020727
1292.45	0.030877
1302.09	0.025917
1311.74	0.010297
1321.38	0.006587
1331.03	0.010317
1340.67	0.017547
1350.32	0.023237
1359.96	0.023127
1369.61	0.016997
1379.25	0.008807
1388.9	0.003957
1398.54	0.001997
1408.18	0.001897
1417.83	0.002027
1427.47	0.001647
1437.12	0.00101
1446.76	0.001337
1456.41	0.002177
1466.05	0.003447
1475.7	0.002947
1485.34	0.0011808
1494.99	0.0006507
1504.63	0.0007197
1514.28	0.0009506
1523.92	0.0010963
1533.57	0.0010707
1543.21	0.0009127
1552.86	0.0009196
1562.5	0.0009282
1572.15	0.001154
1581.79	0.001477
1591.44	0.002087
1601.08	0.002787
1610.73	0.002937
1620.37	0.002147
1630.01	0.001677
1639.66	0.001267
1649.3	0.001747
1658.95	0.002067
1668.59	0.002117
1678.24	0.001677
1687.88	0.001577
1697.53	0.002077
1707.17	0.003487
1716.82	0.006337
1726.46	0.010637
1736.11	0.017367
1745.75	0.048087
1755.4	0.156267
1765.04	0.184607
1774.69	0.115237
1784.33	0.043597
1793.98	0.039817
1803.62	0.023967
1813.27	0.010177
1822.91	0.008357
1832.55	0.005947
1842.2	0.004077
1851.84	0.002837
1861.49	0.002237
1871.13	0.002097
1880.78	0.002087
1890.42	0.001897
1900.07	0.001687
1909.71	0.001447
1919.36	0.001427
1929	0.001527
1938.65	0.001727
1948.29	0.001407
1957.94	0.001066
1967.58	0.0011672
1977.23	0.0010198
1986.87	0.0007141
1996.52	0.0004623
2006.16	0.0004616
2015.81	0.0004561
2025.45	0.0005038
2035.1	0.0005197
2044.74	0.0004859
2054.38	0.0004058
2064.03	0.0004167
2073.67	0.0004498
2083.32	0.0006073
2092.96	0.0006669
2102.61	0.0006557
2112.25	0.0005565
2121.9	0.0005746
2131.54	0.0005817
2141.19	0.0005364
2150.83	0.0005392
2160.48	0.0005959
2170.12	0.0005582
2179.77	0.0006034
2189.41	0.00036366
2199.06	0.00031701
2208.7	0.00035264
2218.35	0.00035908
2227.99	0.0003774
2237.64	0.00036369
2247.28	0.0004037
2256.92	0.0005939
2266.57	0.0006602
2276.21	0.0004986
2285.86	0.0006165
2295.5	0.0008108
2305.15	0.0009142
2314.79	0.0008032
2324.44	0.000694
2334.08	0.0006287
2343.73	0.0006024
2353.37	0.0006784
2363.02	0.0006692
2372.66	0.0007413
2382.31	0.0006469
2391.95	0.0006785
2401.6	0.0006046
2411.24	0.0007049
2420.89	0.0005435
2430.53	0.0006659
2440.18	0.0004253
2449.82	0.0003676
2459.47	0.0004105
2469.11	0.0003821
2478.75	0.0003953
2488.4	0.0004195
2498.04	0.0004121
2507.69	0.0003773
2517.33	0.0005158
2526.98	0.0005004
2536.62	0.0004958
2546.27	0.0004208
2555.91	0.0003781
2565.56	0.00030292
2575.2	0.0004961
2584.85	0.0006259
2594.49	0.0005616
2604.14	0.0005236
2613.78	0.0005518
2623.43	0.0004414
2633.07	0.0005176
2642.72	0.0004372
2652.36	0.0005236
2662.01	0.0004807
2671.65	0.00036319
2681.29	0.0003731
2690.94	0.0003902
2700.58	0.0005249
2710.23	0.00035734
2719.87	0.00032949
2729.52	0.000171
2739.16	0.0002649
2748.81	0.00033851
2758.45	0.0002463
2768.1	0.0002653
2777.74	0.0004064
2787.39	0.000373
2797.03	0.0005121
2806.68	0.0001826
2816.32	0.0001956
2825.97	0.00027715
2835.61	0.000133
2845.26	0.00028153
2854.9	0.0004647
2864.55	0.0002521
2874.19	0.00031442
2883.84	0.0003756
2893.48	0.0005893
2903.12	0.0005366
2912.77	0.0004802
2922.41	0.0005161
2932.06	0.0007196
2941.7	0.0004196
2951.35	0.0002372
2960.99	0.0005013
2970.64	0.0003981
2980.28	0.00029943
2989.93	0.000379
2999.57	0.0002332
3009.22	0.00035183
3018.86	0.0003784
3028.51	0.0004864
3038.15	0.0010083
3047.8	0.001427
3057.44	0.002057
3067.09	0.002437
3076.73	0.003147
3086.38	0.003767
3096.02	0.002767
3105.67	0.001477
3115.31	0.0005364
3124.95	0.00028128
3134.6	0.0003788
3144.24	0.00027721
3153.89	9e-05
3163.53	0.0003047
3173.18	0.0002125
3182.82	0.00027951
3192.47	0.0003834
3202.11	0.00033182
3211.76	0.0003783
3221.4	0.0005761
3231.05	0.0004936
3240.69	0.00032551
3250.34	0.0002856
3259.98	0.00035571
3269.63	0.0002029
3279.27	0.000124
3288.92	0.000151
3298.56	0.00028817
3308.21	0.00030432
3317.85	0.0002328
3327.49	0.0004089
3337.14	0.00035046
3346.78	0.000274453
3356.43	0.0001689
3366.07	0.0003768
3375.72	0.000388
3385.36	0.0002128
3395.01	0.00034499
3404.65	0.0005166
3414.3	0.0005176
3423.94	0.0006974
3433.59	0.0012008
3443.23	0.002717
3452.88	0.006747
3462.52	0.015007
3472.17	0.022997
3481.81	0.017287
3491.46	0.005167
3501.1	0.001487
3510.75	0.001767
3520.39	0.002297
3530.04	0.002647
3539.68	0.002827
3549.32	0.002247
3558.97	0.0010036
3568.61	0.0007673
3578.26	0.0006097
3587.9	0.0006091
3597.55	0.0006362
3607.19	0.0005927
3616.84	0.0005117
3626.48	0.00026536
3636.13	4.4e-05
3645.77	0.000571
3655.42	0.0004262
3665.06	0.0003836
3674.71	5.8e-05
3684.35	0
3694	0.00026738
3703.64	0.0002058
3713.29	0.000274632
3722.93	0.0002184
3732.58	0.0001911
3742.22	0.0004718
3751.86	0.0003362
3761.51	0.0002119
3771.15	0.0002376
3780.8	0.00033511
3790.44	0.0004167
3800.09	0.0003714
3809.73	0.00031784
3819.38	0.0004126
3829.02	0.0002293
3838.67	0.00031628
3848.31	0.0005207
3857.96	0.00027827
3867.6	0.000244
3877.25	0.00028168
3886.89	0.000272226
3896.54	0.00033615
3906.18	0.0002377
3915.83	0.0001751
3925.47	0.0002279
3935.12	0.0002491
3944.76	0.000164
3954.41	0.0001954
3964.05	0.0002448
3973.69	7.6e-05
3983.34	0.0004376
3992.98	0.0004646
