Infrared Spectrum: 3,4,5-Trimethoxybenzyl chloride
Formula: C 10 H 13 Cl O 3
CAS: 3840-30-0
State: gas
Origin: EPA-IR VAPOR PHASE LIBRARY
1/CM	ABSORBANCE
549.8	0.003477
559.445	0.004427
569.09	0.004647
578.734	0.003467
588.379	0.003297
598.024	0.004217
607.669	0.006567
617.313	0.010937
626.958	0.014677
636.603	0.013537
646.248	0.010997
655.893	0.009147
665.537	0.006927
675.182	0.005777
684.827	0.005077
694.472	0.006187
704.116	0.010257
713.761	0.020897
723.406	0.030557
733.051	0.024257
742.695	0.015217
752.34	0.011377
761.985	0.009307
771.63	0.008437
781.275	0.008467
790.919	0.004947
800.564	0.003127
810.209	0.003697
819.854	0.005507
829.498	0.008227
839.143	0.007787
848.788	0.006327
858.433	0.005577
868.078	0.003787
877.722	0.003057
887.367	0.003207
897.012	0.004027
906.657	0.004567
916.301	0.005317
925.946	0.006877
935.591	0.008987
945.236	0.009447
954.88	0.008787
964.525	0.007617
974.17	0.007597
983.815	0.009037
993.46	0.014397
1003.1	0.028247
1012.75	0.049117
1022.39	0.038837
1032.04	0.023987
1041.68	0.027857
1051.33	0.021947
1060.97	0.018647
1070.62	0.024727
1080.26	0.038957
1089.91	0.059807
1099.55	0.083837
1109.2	0.109577
1118.84	0.118107
1128.49	0.105217
1138.13	0.087947
1147.78	0.060477
1157.42	0.033787
1167.07	0.021677
1176.71	0.022027
1186.36	0.025277
1196	0.024317
1205.64	0.027577
1215.29	0.045587
1224.93	0.083917
1234.58	0.106247
1244.22	0.086747
1253.87	0.052047
1263.51	0.032707
1273.16	0.023447
1282.8	0.018757
1292.45	0.018307
1302.09	0.021407
1311.74	0.032937
1321.38	0.064997
1331.03	0.108647
1340.67	0.086757
1350.32	0.035267
1359.96	0.016927
1369.61	0.012197
1379.25	0.011797
1388.9	0.015007
1398.54	0.026637
1408.18	0.057917
1417.83	0.081447
1427.47	0.064787
1437.12	0.046777
1446.76	0.038217
1456.41	0.054607
1466.05	0.059557
1475.7	0.050367
1485.34	0.058237
1494.99	0.084377
1504.63	0.072057
1514.28	0.035197
1523.92	0.018337
1533.57	0.014187
1543.21	0.013767
1552.86	0.016347
1562.5	0.024697
1572.15	0.044417
1581.79	0.068997
1591.44	0.061497
1601.08	0.033507
1610.73	0.017887
1620.37	0.009897
1630.01	0.006897
1639.66	0.005727
1649.3	0.004917
1658.95	0.004457
1668.59	0.004167
1678.24	0.003647
1687.88	0.003297
1697.53	0.003177
1707.17	0.003027
1716.82	0.002927
1726.46	0.002517
1736.11	0.002297
1745.75	0.002047
1755.4	0.001987
1765.04	0.001817
1774.69	0.001767
1784.33	0.001737
1793.98	0.001697
1803.62	0.001517
1813.27	0.0013387
1822.91	0.0012523
1832.55	0.0013051
1842.2	0.0012846
1851.84	0.0013258
1861.49	0.0013594
1871.13	0.0013971
1880.78	0.0013631
1890.42	0.001329
1900.07	0.0013204
1909.71	0.0012175
1919.36	0.0012184
1929	0.0014237
1938.65	0.001607
1948.29	0.002017
1957.94	0.002437
1967.58	0.002857
1977.23	0.003237
1986.87	0.003407
1996.52	0.003237
2006.16	0.003437
2015.81	0.003817
2025.45	0.003647
2035.1	0.002697
2044.74	0.002247
2054.38	0.002167
2064.03	0.002177
2073.67	0.002287
2083.32	0.002097
2092.96	0.001897
2102.61	0.001807
2112.25	0.001587
2121.9	0.001567
2131.54	0.0014224
2141.19	0.001557
2150.83	0.001557
2160.48	0.001677
2170.12	0.001677
2179.77	0.001527
2189.41	0.001527
2199.06	0.0014299
2208.7	0.0013178
2218.35	0.0012895
2227.99	0.001477
2237.64	0.001687
2247.28	0.001677
2256.92	0.001777
2266.57	0.001757
2276.21	0.001527
2285.86	0.0012776
2295.5	0.0009908
2305.15	0.0008177
2314.79	0.0006805
2324.44	0.0007411
2334.08	0.0006943
2343.73	0.0007551
2353.37	0.0008288
2363.02	0.0009212
2372.66	0.0010354
2382.31	0.0010781
2391.95	0.0010878
2401.6	0.0010825
2411.24	0.0011187
2420.89	0.0011476
2430.53	0.0012622
2440.18	0.0012427
2449.82	0.0013366
2459.47	0.0013958
2469.11	0.0013199
2478.75	0.0012296
2488.4	0.001197
2498.04	0.0012572
2507.69	0.0011711
2517.33	0.0011841
2526.98	0.001192
2536.62	0.0013147
2546.27	0.001537
2555.91	0.001857
2565.56	0.001927
2575.2	0.001847
2584.85	0.001657
2594.49	0.001597
2604.14	0.001557
2613.78	0.0014323
2623.43	0.001517
2633.07	0.001477
2642.72	0.001467
2652.36	0.001617
2662.01	0.0013387
2671.65	0.0013127
2681.29	0.0013145
2690.94	0.001447
2700.58	0.001527
2710.23	0.001787
2719.87	0.001917
2729.52	0.001847
2739.16	0.001927
2748.81	0.001847
2758.45	0.001997
2768.1	0.002227
2777.74	0.002547
2787.39	0.002937
2797.03	0.003827
2806.68	0.005227
2816.32	0.008047
2825.97	0.014837
2835.61	0.029277
2845.26	0.032587
2854.9	0.022417
2864.55	0.017687
2874.19	0.019147
2883.84	0.021097
2893.48	0.022407
2903.12	0.022757
2912.77	0.025057
2922.41	0.029417
2932.06	0.040057
2941.7	0.065047
2951.35	0.067327
2960.99	0.051157
2970.64	0.041877
2980.28	0.032577
2989.93	0.032527
2999.57	0.041567
3009.22	0.040537
3018.86	0.022447
3028.51	0.013537
3038.15	0.010417
3047.8	0.009387
3057.44	0.009097
3067.09	0.008757
3076.73	0.007637
3086.38	0.005817
3096.02	0.004477
3105.67	0.003777
3115.31	0.002917
3124.95	0.002387
3134.6	0.001987
3144.24	0.001657
3153.89	0.001447
3163.53	0.0012294
3173.18	0.0010831
3182.82	0.0011453
3192.47	0.0009592
3202.11	0.000716
3211.76	0.0006702
3221.4	0.00050879
3231.05	0.0007237
3240.69	0.00047326
3250.34	0.00049593
3259.98	0.00045684
3269.63	0.0005899
3279.27	0.00046744
3288.92	0.000309
3298.56	0.00046755
3308.21	0.0003523
3317.85	0.000226
3327.49	0.00049596
3337.14	0.0003681
3346.78	0.0004651
3356.43	0.0004035
3366.07	0.000233
3375.72	0.0003375
3385.36	0.00045193
3395.01	0.0003908
3404.65	0.00051935
3414.3	0
3423.94	0.0004094
3433.59	0.0004633
3443.23	0.0003539
3452.88	0.000281
3462.52	0.000305
3472.17	0.000284
3481.81	0.0003614
3491.46	0.000283
3501.1	0.0004219
3510.75	4.2e-05
3520.39	0.000437656
3530.04	0.000325
3539.68	0.000306
3549.32	0.000251
3558.97	0.0003419
3568.61	0.000304
3578.26	0.0003667
3587.9	0.0005556
3597.55	0.000445354
3607.19	0.0003813
3616.84	0.0004543
3626.48	0.000282
3636.13	0.000314
3645.77	0.0004146
3655.42	0.0005528
3665.06	0.000444533
3674.71	0.0005765
3684.35	0.000251
3694	0.0005653
3703.64	0.0003846
3713.29	0.000321
3722.93	0.00051974
3732.58	0.0005651
3742.22	0.00042713
3751.86	0.0006208
3761.51	0.00053129
3771.15	0.00051373
3780.8	0.00044801
3790.44	0.0006082
3800.09	0.00044892
3809.73	0.0006209
3819.38	0.000518
3829.02	0.000615
3838.67	0.0005373
3848.31	0.0007579
3857.96	0.0006593
3867.6	0.00050406
3877.25	0.00043381
3886.89	0.0006822
3896.54	0.0009635
3906.18	0.0007431
3915.83	0.000656
3925.47	0.00051332
3935.12	0.0006049
3944.76	0.0008085
3954.41	0.0007952
3964.05	0.0008792
3973.69	0.0008342
3983.34	0.0008133
3992.98	0.0008558
