Infrared Spectrum: 1-Cyclobutylethanol
Formula: C 6 H 12 O
CAS: 38401-41-1
State: gas
Instrument: HP-GC/MS/IRD
Origin: NIST Mass Spectrometry Data Center
1/CM	ABSORBANCE
550	0.0003132
562	0.0001917
574	0.0001431
586	0.0001296
598	0.0001188
610	0.0003159
622	0.0002673
634	0.0003807
646	0.0002862
658	0.0001458
670	5.94e-05
682	0.0001377
694	0.000135
706	5.4e-05
718	0.0001161
730	7.83e-05
742	9.18e-05
754	8.1e-05
766	8.91e-05
778	1.35e-05
790	5.4e-05
802	9.72e-05
814	9.72e-05
826	0.0002295
838	0.0004212
850	0.0008208
862	0.0013284
874	0.0017496
886	0.0019116
898	0.0018549
910	0.0015228
922	0.0015714
934	0.001728
946	0.001755
958	0.0014526
970	0.0014094
982	0.0019548
994	0.0029511
1006	0.0040716
1018	0.0044793
1030	0.0037881
1042	0.0029052
1054	0.0027486
1066	0.0033588
1078	0.0042687
1090	0.0052407
1102	0.005481
1114	0.0047493
1126	0.0037881
1138	0.0034452
1150	0.0031104
1162	0.0025812
1174	0.0020088
1186	0.0016902
1198	0.0016092
1210	0.0020358
1222	0.002727
1234	0.0038988
1246	0.0044496
1258	0.0038232
1270	0.0025326
1282	0.0018684
1294	0.0017739
1306	0.0017604
1318	0.0018117
1330	0.0019656
1342	0.002079
1354	0.0025461
1366	0.0037206
1378	0.0046278
1390	0.004023
1402	0.0023814
1414	0.0014715
1426	0.0013176
1438	0.0016551
1450	0.0018468
1462	0.001566
1474	0.0010881
1486	0.000621
1498	0.0003699
1510	0.0002646
1522	0.000216
1534	0.0001863
1546	0.0001728
1558	7.56e-05
1570	7.29e-05
1582	5.94e-05
1594	4.59e-05
1606	4.59e-05
1618	1.89e-05
1630	1.08e-05
1642	1.62e-05
1654	1.62e-05
1666	3.24e-05
1678	3.51e-05
1690	3.78e-05
1702	4.86e-05
1714	4.86e-05
1726	3.24e-05
1738	3.78e-05
1750	1.35e-05
1762	1.35e-05
1774	5.4e-06
1786	2.97e-05
1798	2.16e-05
1810	3.24e-05
1822	4.59e-05
1834	3.24e-05
1846	5.4e-05
1858	5.4e-05
1870	4.59e-05
1882	5.94e-05
1894	6.21e-05
1906	2.16e-05
1918	3.78e-05
1930	2.97e-05
1942	3.24e-05
1954	3.51e-05
1966	2.97e-05
1978	3.78e-05
1990	2.97e-05
2002	2.16e-05
2014	2.43e-05
2026	2.7e-05
2038	1.62e-05
2050	4.59e-05
2062	3.24e-05
2074	5.13e-05
2086	6.75e-05
2098	7.29e-05
2110	9.45e-05
2122	0.0001026
2134	0.0001053
2146	0.0001242
2158	0.0001458
2170	9.99e-05
2182	9.45e-05
2194	8.37e-05
2206	8.91e-05
2218	8.37e-05
2230	7.56e-05
2242	7.29e-05
2254	4.86e-05
2266	7.02e-05
2278	6.21e-05
2290	3.78e-05
2302	2.97e-05
2314	5.4e-05
2326	5.94e-05
2338	5.67e-05
2350	8.1e-05
2362	5.67e-05
2374	7.56e-05
2386	6.21e-05
2398	5.13e-05
2410	6.48e-05
2422	2.16e-05
2434	4.05e-05
2446	6.21e-05
2458	7.56e-05
2470	5.67e-05
2482	7.29e-05
2494	4.59e-05
2506	5.4e-05
2518	4.32e-05
2530	3.51e-05
2542	3.51e-05
2554	5.67e-05
2566	7.02e-05
2578	0.0001053
2590	0.0001161
2602	0.0001512
2614	0.0002241
2626	0.0003024
2638	0.000351
2650	0.0003159
2662	0.0003078
2674	0.0002673
2686	0.0002835
2698	0.0002916
2710	0.0002889
2722	0.0003213
2734	0.0003321
2746	0.0003672
2758	0.0003888
2770	0.0004806
2782	0.0005184
2794	0.0006426
2806	0.0008019
2818	0.0010611
2830	0.0016173
2842	0.002754
2854	0.0051111
2866	0.0083241
2878	0.0101466
2890	0.009963
2902	0.0097578
2914	0.011529
2926	0.0134433
2938	0.0154629
2950	0.0185733
2962	0.0234171
2974	0.0266463
2986	0.0223965
2998	0.0110619
3010	0.0038178
3022	0.0015822
3034	0.0011421
3046	0.0010179
3058	0.0009018
3070	0.0007263
3082	0.0005589
3094	0.0004536
3106	0.0003618
3118	0.0002484
3130	0.000162
3142	0.0001458
3154	0.0001917
3166	0.0001593
3178	0.0001836
3190	0.0001863
3202	0.0001917
3214	0.0001026
3226	8.1e-05
3238	3.78e-05
3250	5.13e-05
3262	5.67e-05
3274	4.86e-05
3286	0.0001053
3298	8.37e-05
3310	8.1e-05
3322	5.4e-05
3334	5.13e-05
3346	8.1e-05
3358	2.43e-05
3370	1.89e-05
3382	5.67e-05
3394	6.21e-05
3406	0.0001404
3418	0.0001296
3430	0.0001647
3442	0.0001593
3454	0.0001647
3466	0.0001512
3478	0.0001485
3490	0.0001107
3502	7.02e-05
3514	9.99e-05
3526	0.0001026
3538	8.37e-05
3550	8.91e-05
3562	0.0001053
3574	6.75e-05
3586	0.0001377
3598	0.0001431
3610	0.0002484
3622	0.0005778
3634	0.0011934
3646	0.0017874
3658	0.0018198
3670	0.0011421
3682	0.0004941
3694	0.0002268
3706	0.0001512
3718	0.0001269
3730	0.0001161
3742	0.000162
3754	0.0001512
3766	9.72e-05
3778	7.56e-05
3790	0.0001323
3802	0.0001269
3814	0.0001161
3826	0.000162
3838	0.0001755
