Infrared Spectrum: 2,5-Dichloro-4-nitroacetanilide
Formula: C 8 H 6 Cl 2 N 2 O 3
CAS: 38411-17-5
State: gas
Origin: EPA-IR VAPOR PHASE LIBRARY
1/CM	ABSORBANCE
549.8	0.0124
559.445	0.00939
569.09	0.00428
578.734	0.0035
588.379	0.00376
598.024	0.00434
607.669	0.00281
617.313	0.00342
626.958	0.00326
636.603	0.00279
646.248	0.00278
655.893	0.00401
665.537	0.00433
675.182	0.00911
684.827	0.00426
694.472	0.00246
704.116	0.0018723
713.761	0.00252
723.406	0.00267
733.051	0.00279
742.695	0.00335
752.34	0.00717
761.985	0.00715
771.63	0.0034
781.275	0.0017593
790.919	0.00226
800.564	0.0024
810.209	0.0017359
819.854	0.00218
829.498	0.00303
839.143	0.00744
848.788	0.00875
858.433	0.00322
868.078	0.0022
877.722	0.00367
887.367	0.00876
897.012	0.00843
906.657	0.00387
916.301	0.00221
925.946	0.00242
935.591	0.00239
945.236	0.00205
954.88	0.00217
964.525	0.00309
974.17	0.00396
983.815	0.00512
993.46	0.0084
1003.1	0.00938
1012.75	0.0055
1022.39	0.00402
1032.04	0.0034
1041.68	0.00389
1051.33	0.00406
1060.97	0.00572
1070.62	0.0126
1080.26	0.02478
1089.91	0.01621
1099.55	0.00503
1109.2	0.00375
1118.84	0.00397
1128.49	0.00389
1138.13	0.00277
1147.78	0.00402
1157.42	0.00413
1167.07	0.00435
1176.71	0.00659
1186.36	0.00898
1196	0.01418
1205.64	0.02216
1215.29	0.04312
1224.93	0.03559
1234.58	0.01758
1244.22	0.02093
1253.87	0.01364
1263.51	0.00969
1273.16	0.0108
1282.8	0.01381
1292.45	0.00859
1302.09	0.00743
1311.74	0.00841
1321.38	0.01273
1331.03	0.02799
1340.67	0.05893
1350.32	0.06055
1359.96	0.03548
1369.61	0.03934
1379.25	0.0357
1388.9	0.01779
1398.54	0.01035
1408.18	0.00831
1417.83	0.00794
1427.47	0.00848
1437.12	0.01083
1446.76	0.01738
1456.41	0.01826
1466.05	0.01616
1475.7	0.02311
1485.34	0.04097
1494.99	0.06238
1504.63	0.06345
1514.28	0.04663
1523.92	0.03186
1533.57	0.02996
1543.21	0.03922
1552.86	0.05182
1562.5	0.04538
1572.15	0.05406
1581.79	0.05841
1591.44	0.03551
1601.08	0.01709
1610.73	0.0075
1620.37	0.00486
1630.01	0.00453
1639.66	0.00347
1649.3	0.0031
1658.95	0.00255
1668.59	0.00266
1678.24	0.0033
1687.88	0.00419
1697.53	0.00477
1707.17	0.00588
1716.82	0.00718
1726.46	0.01201
1736.11	0.03514
1745.75	0.03982
1755.4	0.01337
1765.04	0.00829
1774.69	0.00654
1784.33	0.00418
1793.98	0.00375
1803.62	0.00274
1813.27	0.0022
1822.91	0.0018352
1832.55	0.0018281
1842.2	0.0017858
1851.84	0.0016306
1861.49	0.0017057
1871.13	0.0015538
1880.78	0.0015385
1890.42	0.0013629
1900.07	0.0013788
1909.71	0.0013913
1919.36	0.0013124
1929	0.0013625
1938.65	0.0013335
1948.29	0.0013894
1957.94	0.0011915
1967.58	0.0011884
1977.23	0.0011682
1986.87	0.00111481
1996.52	0.00106993
2006.16	0.001296
2015.81	0.0012042
2025.45	0.00107617
2035.1	0.00107233
2044.74	0.0011913
2054.38	0.00102706
2064.03	0.000887
2073.67	0.000883
2083.32	0.001078
2092.96	0.00105816
2102.61	0.000872
2112.25	0.0009641
2121.9	0.00109275
2131.54	0.00109704
2141.19	0.0012001
2150.83	0.00111001
2160.48	0.0012179
2170.12	0.00103765
2179.77	0.000909
2189.41	0.000835
2199.06	0.0012283
2208.7	0.0012451
2218.35	0.001161
2227.99	0.0011285
2237.64	0.00109566
2247.28	0.000941
2256.92	0.0010069
2266.57	0.0009919
2276.21	0.0009947
2285.86	0.000907
2295.5	0.001172
2305.15	0.00109955
2314.79	0.00107592
2324.44	0.0009463
2334.08	0.0011482
2343.73	0.0011642
2353.37	0.0011552
2363.02	0.00108652
2372.66	0.0009937
2382.31	0.000773
2391.95	0.0010776
2401.6	0.0012003
2411.24	0.001225
2420.89	0.0011516
2430.53	0.0011921
2440.18	0.0011609
2449.82	0.0012045
2459.47	0.000859
2469.11	0.0012167
2478.75	0.001008
2488.4	0.0011703
2498.04	0.0012234
2507.69	0.0013238
2517.33	0.0013787
2526.98	0.0014686
2536.62	0.00114
2546.27	0.0012727
2555.91	0.000885
2565.56	0.0012861
2575.2	0.0015103
2584.85	0.0011587
2594.49	0.0012093
2604.14	0.001291
2613.78	0.001151
2623.43	0.0013079
2633.07	0.0011207
2642.72	0.000798
2652.36	0.00106936
2662.01	0.0011513
2671.65	0.0013915
2681.29	0.0012647
2690.94	0.0011738
2700.58	0.00111368
2710.23	0.0014651
2719.87	0.0013861
2729.52	0.0011791
2739.16	0.0013171
2748.81	0.00063
2758.45	0.0013933
2768.1	0.0009306
2777.74	0.0009625
2787.39	0.0014739
2797.03	0.0014236
2806.68	0.00107696
2816.32	0.0009425
2825.97	0.0012669
2835.61	0.0010008
2845.26	0.001565
2854.9	0.0012997
2864.55	0.0011747
2874.19	0.00204
2883.84	0.0012377
2893.48	0.0020063
2903.12	0.00207
2912.77	0.0018508
2922.41	0.0013091
2932.06	0.0019327
2941.7	0.0018603
2951.35	0.00217
2960.99	0.0015753
2970.64	0.0019491
2980.28	0.0014479
2989.93	0.0011746
2999.57	0.0013486
3009.22	0.0016716
3018.86	0.0013375
3028.51	0.0019026
3038.15	0.001672
3047.8	0.0018828
3057.44	0.001999
3067.09	0.0016367
3076.73	0.0019567
3086.38	0.0016314
3096.02	0.00254
3105.67	0.0028
3115.31	0.00436
3124.95	0.00431
3134.6	0.0019039
3144.24	0.0016337
3153.89	0.00110944
3163.53	0.000712
3173.18	0.0019512
3182.82	0.0013736
3192.47	0.000793
3202.11	0.000895
3211.76	0.0009354
3221.4	0.000813
3231.05	0.0017354
3240.69	0.0015967
3250.34	0.000513
3259.98	0.000652
3269.63	0.000881
3279.27	0.00111708
3288.92	0.000367
3298.56	0.0011602
3308.21	0.00108445
3317.85	0.000566
3327.49	0.0012143
3337.14	0.000669
3346.78	0.0012292
3356.43	0.0013993
3366.07	0.00072
3375.72	0.0013678
3385.36	0.000727
3395.01	0.0014767
3404.65	0.0017888
3414.3	0.00244
3423.94	0.00474
3433.59	0.01034
3443.23	0.01309
3452.88	0.00436
3462.52	0.00223
3472.17	0.0014906
3481.81	0.0009916
3491.46	0.000511
3501.1	0.00054
3510.75	0.0012873
3520.39	0.001569
3530.04	0.00104668
3539.68	0.00107046
3549.32	0.000636
3558.97	0.001269
3568.61	0.0010661
3578.26	0.0009276
3587.9	0.000874
3597.55	0.00027
3607.19	0.000426
3616.84	0.000518
3626.48	0.000827
3636.13	0.000769
3645.77	0.0014547
3655.42	0.0014759
3665.06	0.000613
3674.71	0.0013464
3684.35	0.0012863
3694	0.000441
3703.64	0.000863
3713.29	0.000457
3722.93	0.00042
3732.58	0.00041
3742.22	0.00105491
3751.86	0.0011649
3761.51	0.0011485
3771.15	0.00104969
3780.8	0.0014669
3790.44	0.0011584
3800.09	0.0011813
3809.73	0.000672
3819.38	0.0012615
3829.02	0.0013754
3838.67	0.000782
3848.31	0.000348
3857.96	0.00107571
3867.6	0.000439
3877.25	0.000552
3886.89	0.00024
3896.54	0.000658
3906.18	0.00108781
3915.83	0.000994
3925.47	0.000427
3935.12	0.001154
3944.76	0.001422
3954.41	0.000707
3964.05	0.0015149
3973.69	0.0011899
3983.34	0.0013492
3992.98	0.0011574
