Infrared Spectrum: N-CYANOMETHYL PHTHALIMIDE
Formula: C10 H6 N2 O2
CAS: 3842-20-4
State: SOLUTION (9% CHCl3)
Class: COBLENTZ
Instrument: Not specified, most likely a grating spectrometer.
Sampling: TRANSMISSION
Path length: 0.009 CM
Resolution: 4
Origin: ABBOTT LABORATORIES
MICROMETERS	TRANSMITTANCE
2.007	0.985
2.04714	0.983
2.08729	0.986
2.12743	0.98
2.16757	0.988
2.20772	0.981
2.24786	0.981
2.288	0.98
2.32815	0.97
2.36829	0.966
2.40843	0.968
2.44858	0.965
2.48872	0.968
2.52886	0.976
2.56901	0.978
2.60915	0.978
2.64929	0.971
2.68944	0.97
2.72958	0.97
2.76972	0.955
2.80987	0.91
2.85001	0.899
2.89015	0.945
2.9303	0.965
2.97044	0.955
3.01058	0.957
3.05073	0.958
3.09087	0.952
3.13101	0.948
3.17116	0.94
3.2113	0.909
3.25144	0.841
3.29159	0.735
3.33173	0.83
3.37187	0.881
3.41202	0.927
3.45216	0.933
3.4923	0.95
3.53245	0.95
3.57259	0.945
3.61273	0.95
3.65288	0.957
3.69302	0.937
3.73316	0.938
3.77331	0.94
3.81345	0.947
3.85359	0.947
3.89374	0.95
3.93388	0.943
3.97402	0.937
4.01417	0.93
4.05431	0.929
4.09445	0.925
4.1346	0.932
4.17474	0.957
4.21488	0.953
4.25503	0.93
4.29517	0.917
4.33531	0.929
4.37546	0.945
4.4156	0.93
4.45574	0.932
4.49589	0.94
4.53603	0.945
4.57617	0.937
4.61632	0.937
4.65646	0.943
4.6966	0.94
4.73675	0.933
4.77689	0.943
4.81703	0.943
4.85718	0.943
4.89732	0.937
4.93746	0.937
4.97761	0.935
5.01775	0.914
5.05789	0.922
5.09804	0.902
5.13818	0.912
5.17832	0.876
5.21846	0.902
5.25861	0.922
5.29875	0.904
5.33889	0.904
5.37904	0.886
5.41918	0.863
5.45932	0.836
5.49947	0.788
5.53961	0.666
5.57975	0.349
5.6199	0.232
5.66004	0.613
5.70018	0.45
5.74033	0.209
5.78047	0.013
5.82061	0.146
5.86076	0.458
5.9009	0.752
5.94104	0.825
5.98119	0.876
6.02133	0.882
6.06147	0.881
6.10162	0.882
6.14176	0.823
6.1819	0.752
6.22205	0.872
6.26219	0.856
6.30233	0.896
6.34248	0.905
6.38262	0.919
6.42276	0.919
6.46291	0.922
6.50305	0.922
6.54319	0.925
6.58334	0.91
6.62348	0.91
6.66362	0.909
6.70377	0.896
6.74391	0.858
6.78405	0.376
6.8242	0.704
6.86434	0.811
6.90448	0.834
6.94463	0.762
6.98477	0.597
7.02491	0.41
7.06506	0.089
7.1052	0.087
7.14534	0.217
7.18549	0.041
7.22563	0.123
7.26577	0.407
7.30592	0.463
7.34606	0.575
7.3862	0.333
7.42635	0.189
7.46649	0.592
7.50663	0.701
7.54678	0.653
7.58692	0.493
7.62706	0.448
7.66721	0.661
7.70735	0.767
7.74749	0.788
7.78764	0.816
7.82778	0.851
7.86792	0.872
7.90807	0.867
7.94821	0.867
7.98835	0.856
8.0285	0.823
8.06864	0.747
8.10878	0.636
8.14893	0.602
8.18907	0.599
8.22921	0.605
8.26936	0.612
8.3095	0.716
8.34964	0.595
8.38979	0.554
8.42993	0.767
8.47007	0.801
8.51022	0.694
8.55036	0.806
8.5905	0.818
8.63065	0.879
8.67079	0.897
8.71093	0.897
8.75108	0.886
8.79122	0.854
8.83136	0.797
8.87151	0.501
8.91165	0.117
8.95179	0.415
8.99194	0.702
9.03208	0.77
9.07222	0.813
9.11237	0.826
9.15251	0.617
9.19265	0.63
9.2328	0.83
9.27294	0.843
9.31308	0.821
9.35323	0.806
9.39337	0.843
9.43351	0.899
9.47366	0.915
9.5138	0.927
9.55394	0.942
9.59409	0.937
9.63423	0.93
9.67437	0.945
9.71452	0.955
9.75466	0.943
9.7948	0.935
9.83495	0.93
9.87509	0.914
9.91523	0.922
9.95538	0.915
9.99552	0.912
10.0357	0.902
10.0758	0.892
10.1159	0.863
10.1561	0.849
10.1962	0.866
10.2364	0.872
10.2765	0.877
10.3167	0.876
10.3568	0.854
10.397	0.821
10.4371	0.8
10.4772	0.734
10.5174	0.574
10.5575	0.372
10.5977	0.212
10.6378	0.145
10.678	0.268
10.7181	0.531
10.7582	0.707
10.7984	0.74
10.8385	0.712
10.8787	0.666
10.9188	0.666
10.959	0.722
10.9991	0.757
11.0392	0.76
11.0794	0.747
11.1195	0.755
11.1597	0.795
11.1998	0.841
11.24	0.879
11.2801	0.892
11.3202	0.904
11.3604	0.91
11.4005	0.917
11.4407	0.924
11.4808	0.924
11.521	0.917
11.5611	0.915
11.6013	0.917
11.6414	0.915
11.6815	0.914
11.7217	0.909
11.7618	0.907
11.802	0.882
11.8421	0.876
11.8823	0.899
11.9224	0.905
11.9625	0.91
12.0027	0.912
12.0428	0.915
12.083	0.93
12.1231	0.919
12.1633	0.924
12.2034	0.922
12.2435	0.925
12.2837	0.932
12.3238	0.94
12.364	0.95
12.4041	0.943
12.4443	0.947
12.4844	0.94
12.5245	0.947
12.5647	0.93
12.6048	0.922
12.645	0.917
12.6851	0.933
12.7253	0.933
12.7654	0.938
12.8056	0.943
12.8457	0.952
12.8858	0.947
12.926	0.955
12.9661	0.962
13.0063	0.963
13.0464	0.965
13.0866	0.966
13.1267	0.973
13.1668	0.966
13.207	0.962
13.2471	0.957
13.2873	0.965
13.3274	0.968
13.3676	0.966
13.4077	0.971
13.4478	0.98
13.488	0.975
13.5281	0.998
13.5683	0.983
13.6084	0.991
13.6486	0.99
13.6887	0.998
13.7288	0.98
13.769	0.942
13.8091	0.856
13.8493	0.754
13.8894	0.668
13.9296	0.612
13.9697	0.537
14.0099	0.41
14.05	0.254
14.0901	0.235
14.1303	0.328
14.1704	0.541
14.2106	0.709
14.2507	0.77
14.2909	0.813
14.331	0.828
14.3711	0.825
14.4113	0.806
14.4514	0.826
14.4916	0.864
14.5317	0.896
14.5719	0.909
14.612	0.919
14.6521	0.914
14.6923	0.927
14.7324	0.937
14.7726	0.95
14.8127	0.96
14.8529	0.963
14.893	0.975
14.9331	0.976
14.9733	0.955
15.0134	0.945
15.0536	0.902
15.0937	0.866
15.1339	0.876
15.174	0.905
15.2141	0.919
15.2543	0.924
15.2944	0.935
15.3346	0.932
15.3747	0.919
15.4149	0.91
15.455	0.887
