Infrared Spectrum: BIUREA, 1,6-DIMETHYL-1,6-DINITROSO-
Formula: C4 H8 N6 O4
CAS: 3844-60-8
State: SOLID (1 mg / 650 mg KBr DISC)
Class: COBLENTZ III
Instrument: PERKIN-ELMER 221 (GRATING)
Instrument parameters: FILTER CHANGE AT 2490, 980 CM^-^1, GRATING FOR 4000-1428 CM^-^1, NaCl PRISM FOR 1428-650 CM^-^1
Sampling: TRANSMISSION
Resolution: 4
Origin: SOUTHERN RESEARCH INST.
1/CM	TRANSMITTANCE
631.388	0.703
640.536	0.724
649.685	0.742
658.833	0.76
667.981	0.771
677.129	0.774
686.278	0.778
695.426	0.781
704.574	0.781
713.722	0.779
722.871	0.775
732.019	0.756
741.167	0.694
750.315	0.508
759.464	0.761
768.612	0.693
777.76	0.578
786.908	0.688
796.057	0.565
805.205	0.195
814.353	0.322
823.501	0.697
832.65	0.765
841.798	0.718
850.946	0.679
860.094	0.605
869.243	0.468
878.391	0.287
887.539	0.228
896.687	0.274
905.836	0.462
914.984	0.581
924.132	0.64
933.28	0.646
942.429	0.619
951.577	0.561
960.725	0.459
969.873	0.336
979.022	0.212
988.17	0.1
997.318	0.181
1006.47	0.375
1015.61	0.542
1024.76	0.653
1033.91	0.709
1043.06	0.687
1052.21	0.562
1061.36	0.444
1070.5	0.487
1079.65	0.481
1088.8	0.305
1097.95	0.137
1107.1	0.124
1116.25	0.192
1125.39	0.299
1134.54	0.409
1143.69	0.489
1152.84	0.607
1161.99	0.644
1171.14	0.683
1180.28	0.688
1189.43	0.679
1198.58	0.631
1207.73	0.541
1216.88	0.499
1226.02	0.493
1235.17	0.556
1244.32	0.653
1253.47	0.687
1262.62	0.752
1271.77	0.775
1280.91	0.781
1290.06	0.78
1299.21	0.775
1308.36	0.743
1317.51	0.687
1326.66	0.572
1335.8	0.443
1344.95	0.458
1354.1	0.594
1363.25	0.696
1372.4	0.717
1381.55	0.681
1390.69	0.625
1399.84	0.537
1408.99	0.505
1418.14	0.643
1427.29	0.543
1436.43	0.503
1445.58	0.425
1454.73	0.347
1463.88	0.277
1473.03	0.216
1482.18	0.168
1491.32	0.084
1500.47	0.077
1509.62	0.081
1518.77	0.086
1527.92	0.106
1537.07	0.178
1546.21	0.277
1555.36	0.367
1564.51	0.452
1573.66	0.502
1582.81	0.55
1591.95	0.607
1601.1	0.646
1610.25	0.671
1619.4	0.677
1628.55	0.676
1637.7	0.675
1646.84	0.67
1655.99	0.647
1665.14	0.61
1674.29	0.561
1683.44	0.434
1692.59	0.299
1701.73	0.16
1710.88	0.087
1720.03	0.108
1729.18	0.168
1738.33	0.213
1747.48	0.173
1756.62	0.208
1765.77	0.295
1774.92	0.359
1784.07	0.446
1793.22	0.522
1802.36	0.559
1811.51	0.607
1820.66	0.636
1829.81	0.669
1838.96	0.693
1848.11	0.704
1857.25	0.709
1866.4	0.718
1875.55	0.738
1884.7	0.751
1893.85	0.757
1903	0.767
1912.14	0.771
1921.29	0.784
1930.44	0.788
1939.59	0.796
1948.74	0.804
1957.89	0.811
1967.03	0.815
1976.18	0.818
1985.33	0.828
1994.48	0.832
2003.63	0.837
2012.77	0.838
2021.92	0.84
2031.07	0.843
2040.22	0.844
2049.37	0.845
2058.52	0.846
2067.66	0.846
2076.81	0.846
2085.96	0.846
2095.11	0.847
2104.26	0.848
2113.41	0.849
2122.55	0.85
2131.7	0.853
2140.85	0.855
2150	0.857
2159.15	0.862
2168.3	0.863
2177.44	0.864
2186.59	0.865
2195.74	0.865
2204.89	0.866
2214.04	0.867
2223.18	0.867
2232.33	0.867
2241.48	0.866
2250.63	0.865
2259.78	0.865
2268.93	0.864
2278.07	0.862
2287.22	0.859
2296.37	0.857
2305.52	0.855
2314.67	0.852
2323.82	0.849
2332.96	0.85
2342.11	0.853
2351.26	0.854
2360.41	0.854
2369.56	0.856
2378.71	0.857
2387.85	0.859
2397	0.86
2406.15	0.862
2415.3	0.862
2424.45	0.862
2433.59	0.861
2442.74	0.86
2451.89	0.858
2461.04	0.856
2470.19	0.854
2479.34	0.853
2488.48	0.851
2497.63	0.857
2506.78	0.859
2515.93	0.859
2525.08	0.858
2534.23	0.856
2543.37	0.856
2552.52	0.854
2561.67	0.854
2570.82	0.854
2579.97	0.854
2589.11	0.854
2598.26	0.854
2607.41	0.854
2616.56	0.855
2625.71	0.855
2634.86	0.855
2644	0.855
2653.15	0.855
2662.3	0.855
2671.45	0.855
2680.6	0.853
2689.75	0.853
2698.89	0.852
2708.04	0.852
2717.19	0.852
2726.34	0.851
2735.49	0.851
2744.64	0.85
2753.78	0.849
2762.93	0.848
2772.08	0.847
2781.23	0.845
2790.38	0.843
2799.52	0.84
2808.67	0.834
2817.82	0.828
2826.97	0.82
2836.12	0.812
2845.27	0.796
2854.41	0.789
2863.56	0.787
2872.71	0.79
2881.86	0.79
2891.01	0.787
2900.16	0.784
2909.3	0.778
2918.45	0.775
2927.6	0.762
2936.75	0.756
2945.9	0.751
2955.05	0.738
2964.19	0.731
2973.34	0.729
2982.49	0.724
2991.64	0.717
3000.79	0.716
3009.93	0.721
3019.08	0.743
3028.23	0.763
3037.38	0.771
3046.53	0.775
3055.68	0.777
3064.82	0.778
3073.97	0.778
3083.12	0.774
3092.27	0.769
3101.42	0.763
3110.57	0.757
3119.71	0.751
3128.86	0.74
3138.01	0.731
3147.16	0.718
3156.31	0.713
3165.46	0.687
3174.6	0.676
3183.75	0.668
3192.9	0.656
3202.05	0.64
3211.2	0.623
3220.34	0.608
3229.49	0.594
3238.64	0.58
3247.79	0.565
3256.94	0.546
3266.09	0.522
3275.23	0.502
3284.38	0.468
3293.53	0.434
3302.68	0.387
3311.83	0.293
3320.98	0.202
3330.12	0.198
3339.27	0.265
3348.42	0.252
3357.57	0.179
3366.72	0.225
3375.86	0.32
3385.01	0.386
3394.16	0.429
3403.31	0.462
3412.46	0.489
3421.61	0.504
3430.75	0.512
3439.9	0.521
3449.05	0.534
3458.2	0.541
3467.35	0.556
3476.5	0.571
3485.64	0.583
3494.79	0.601
3503.94	0.616
3513.09	0.629
3522.24	0.643
3531.39	0.659
3540.53	0.672
3549.68	0.691
3558.83	0.699
3567.98	0.712
3577.13	0.726
3586.27	0.735
3595.42	0.748
3604.57	0.765
3613.72	0.775
3622.87	0.782
3632.02	0.795
3641.16	0.809
3650.31	0.82
3659.46	0.825
3668.61	0.828
3677.76	0.83
3686.91	0.832
3696.05	0.834
3705.2	0.834
3714.35	0.835
3723.5	0.836
3732.65	0.836
3741.8	0.836
3750.94	0.836
3760.09	0.836
3769.24	0.836
3778.39	0.836
3787.54	0.836
3796.68	0.836
3805.83	0.837
3814.98	0.837
3824.13	0.837
3833.28	0.837
3842.43	0.837
3851.57	0.837
3860.72	0.837
3869.87	0.837
3879.02	0.837
3888.17	0.837
3897.32	0.837
3906.46	0.837
3915.61	0.837
3924.76	0.837
3933.91	0.838
3943.06	0.838
3952.21	0.839
3961.35	0.84
3970.5	0.84
3979.65	0.84
3988.8	0.84
3997.95	0.841
