Infrared Spectrum: Di-sec-butyl adipate
Formula: C14 H26 O4
CAS: 38447-22-2
State: SOLUTION (10% CCl4 FOR 2.7-7.5, 10% CS2 FOR 7.5-26 MICRON) VS SOLVENT
Class: COBLENTZ III
Instrument: DOW KBr FOREPRISM-GRATING
Instrument parameters: BLAZED AT 3.5, 12.0, 20.0 MICRON AND CHANGED AT 5.0, 7.5, 14.9 MICRON
Sampling: TRANSMISSION
Path length: 0.011 CM, 0.011 CM
Resolution: 2
Origin: DOW CHEMICAL COMPANY
1/CM	TRANSMITTANCE
3800	0.8437
3791	0.8428
3782	0.8418
3773	0.8413
3764	0.8411
3755	0.8414
3746	0.8418
3737	0.8418
3728	0.8416
3719	0.8414
3710	0.8413
3701	0.8421
3692	0.8428
3683	0.8433
3674	0.8434
3665	0.8437
3656	0.8442
3647	0.8447
3638	0.8459
3629	0.847
3620	0.8483
3611	0.8491
3602	0.8497
3593	0.8501
3584	0.8507
3575	0.8514
3566	0.8521
3557	0.8528
3548	0.8536
3539	0.8547
3530	0.8562
3521	0.8575
3512	0.8592
3503	0.8608
3494	0.8625
3485	0.8639
3476	0.8651
3467	0.8651
3458	0.8625
3449	0.8561
3440	0.8403
3431	0.8255
3422	0.8241
3413	0.8375
3404	0.8489
3395	0.8577
3386	0.8639
3377	0.8671
3368	0.8697
3359	0.8721
3350	0.874
3341	0.8758
3332	0.877
3323	0.8778
3314	0.8787
3305	0.8793
3296	0.8798
3287	0.8799
3278	0.88
3269	0.88
3260	0.8802
3251	0.8804
3242	0.8804
3233	0.8799
3224	0.878
3215	0.8745
3206	0.8718
3197	0.8698
3188	0.8678
3179	0.866
3170	0.8646
3161	0.8639
3152	0.8639
3143	0.864
3134	0.8647
3125	0.8656
3116	0.8645
3107	0.8632
3098	0.8616
3089	0.8597
3080	0.8568
3071	0.8533
3062	0.8475
3053	0.8402
3044	0.8334
3035	0.8262
3026	0.8146
3017	0.7896
3008	0.7501
2999	0.6871
2990	0.3709
2981	0.0523
2972	0.0328
2963	0.1029
2954	0.209
2945	0.1496
2936	0.1096
2927	0.1375
2918	0.232
2909	0.3354
2900	0.4388
2891	0.5015
2882	0.2831
2873	0.3489
2864	0.437
2855	0.5209
2846	0.6045
2837	0.688
2828	0.7395
2819	0.7424
2810	0.7611
2801	0.7847
2792	0.8028
2783	0.8165
2774	0.8263
2765	0.8315
2756	0.8325
2747	0.8321
2738	0.8278
2729	0.8228
2720	0.8216
2711	0.8238
2702	0.8292
2693	0.8337
2684	0.8366
2675	0.839
2666	0.8414
2657	0.8423
2648	0.8433
2639	0.8438
2630	0.8444
2621	0.8448
2612	0.8453
2603	0.8457
2594	0.8466
2585	0.8487
2576	0.8508
2567	0.8521
2558	0.8534
2549	0.8546
2540	0.8559
2531	0.8571
2522	0.8581
2513	0.8591
2504	0.8594
2495	0.8592
2486	0.859
2477	0.859
2468	0.8592
2459	0.8596
2450	0.8597
2441	0.8595
2432	0.8587
2423	0.857
2414	0.8542
2405	0.8523
2396	0.8507
2387	0.8495
2378	0.8485
2369	0.8481
2360	0.8505
2351	0.8515
2342	0.8525
2333	0.8531
2324	0.8538
2315	0.8533
2306	0.8524
2297	0.8521
2288	0.8521
2279	0.8533
2270	0.8545
2261	0.8555
2252	0.8564
2243	0.8568
2234	0.8573
2225	0.858
2216	0.8589
2207	0.86
2198	0.8613
2189	0.8628
2180	0.8656
2171	0.8733
2162	0.8658
2153	0.8636
2144	0.864
2135	0.8643
2126	0.8645
2117	0.8646
2108	0.8648
2099	0.8641
2090	0.8633
2081	0.8624
2072	0.8617
2063	0.8598
2054	0.8561
2045	0.8549
2036	0.855
2027	0.8551
2018	0.8555
2009	0.8562
2000	0.8575
1991	0.8583
1982	0.8582
1973	0.8594
1964	0.8606
1955	0.862
1946	0.8625
1937	0.8623
1928	0.8611
1919	0.859
1910	0.8578
1901	0.8568
1892	0.8548
1883	0.8521
1874	0.8506
1865	0.8491
1856	0.8471
1847	0.8453
1838	0.8436
1829	0.8371
1820	0.8311
1811	0.8225
1802	0.8082
1793	0.7922
1784	0.7756
1775	0.7518
1766	0.709
1757	0.6267
1748	0.324
1739	0.0587
1730	0.0052
1721	0.0019
1712	0.0822
1703	0.3297
1694	0.5279
1685	0.5794
1676	0.6615
1667	0.7351
1658	0.7548
1649	0.7708
1640	0.7861
1631	0.8001
1622	0.8118
1613	0.8217
1604	0.8277
1595	0.8294
1586	0.831
1577	0.8335
1568	0.8362
1559	0.8383
1550	0.8417
1541	0.8439
1532	0.8411
1523	0.8347
1514	0.8254
1505	0.8132
1496	0.7995
1487	0.7789
1478	0.716
1469	0.4584
1460	0.2168
1451	0.2923
1442	0.4471
1433	0.5219
1424	0.486
1415	0.4605
1406	0.6339
1397	0.6315
1388	0.323
1379	0.1149
1370	0.246
1361	0.3141
1352	0.3836
1343	0.3523
1334	0.3534
1325	0.4095
1316	0.382
1307	0.3291
1298	0.3484
1289	0.3205
1280	0.2349
1271	0.2342
1262	0.1476
1253	0.0924
1244	0.0868
1235	0.1076
1226	0.1224
1217	0.1114
1208	0.1077
1199	0.0833
1190	0.0567
1181	0.0419
1172	0.0329
1163	0.0986
1154	0.1918
1145	0.1615
1136	0.1617
1127	0.1039
1118	0.064
1109	0.0937
1100	0.2081
1091	0.0786
1082	0.373
1073	0.3957
1064	0.4375
1055	0.4545
1046	0.508
1037	0.5627
1028	0.3399
1019	0.5008
1010	0.5712
1001	0.5042
992	0.2972
983	0.3536
974	0.4664
965	0.3503
956	0.5535
947	0.6042
938	0.5634
929	0.5906
920	0.5936
911	0.6936
902	0.7396
893	0.7357
884	0.6127
875	0.4888
866	0.5465
857	0.6525
848	0.7506
839	0.7122
830	0.704
821	0.7651
812	0.799
803	0.8036
794	0.7958
785	0.7625
776	0.7384
767	0.7598
758	0.7525
749	0.7412
740	0.7754
731	0.7781
722	0.7955
713	0.8056
704	0.8108
695	0.8223
686	0.8298
677	0.8357
668	0.8386
659	0.8571
650	0.8275
641	0.8281
632	0.8251
623	0.8162
614	0.8043
605	0.7908
596	0.7795
587	0.7742
578	0.7783
569	0.7943
560	0.8114
551	0.8224
542	0.8285
533	0.8286
524	0.8202
515	0.8186
506	0.806
497	0.7956
488	0.8005
479	0.8044
470	0.7985
461	0.7831
452	0.7756
443	0.776
434	0.796
425	0.7811
416	0.7736
407	0.7718
398	0.7721
