Infrared Spectrum: 1,3,3,5,5-Pentamethylcyclohexanol
Formula: C 11 H 22 O
CAS: 38490-33-4
State: gas
Instrument: HP-GC/MS/IRD
Origin: NIST Mass Spectrometry Data Center
1/CM	ABSORBANCE
550	0.0006528
562	0.0004512
574	0.0004736
586	0.00032
598	0.0001856
610	0.0001792
622	0.0001536
634	0.0001696
646	0.0001888
658	0.000144
670	6.08e-05
682	0.000112
694	2.88e-05
706	8e-05
718	6.72e-05
730	8.96e-05
742	0.0001024
754	0.000128
766	0.000208
778	0.0003712
790	0.0008832
802	0.0012064
814	0.0004256
826	0.0001248
838	0.000304
850	0.0004096
862	0.0007328
874	0.0012
886	0.001776
898	0.0028384
910	0.0016448
922	0.000768
934	0.0008032
946	0.0011456
958	0.0015744
970	0.0012
982	0.0007584
994	0.0006592
1006	0.0008
1018	0.0007264
1030	0.0005856
1042	0.00064
1054	0.001024
1066	0.0020064
1078	0.0036512
1090	0.0036896
1102	0.0021056
1114	0.001312
1126	0.0011392
1138	0.0013376
1150	0.0016864
1162	0.0021568
1174	0.0024672
1186	0.0028224
1198	0.0038208
1210	0.0048288
1222	0.0044576
1234	0.0031296
1246	0.0023936
1258	0.0018784
1270	0.0015808
1282	0.0015776
1294	0.0016672
1306	0.0017792
1318	0.0017792
1330	0.0020352
1342	0.0032576
1354	0.0046208
1366	0.0059168
1378	0.0054592
1390	0.0034528
1402	0.0018272
1414	0.001248
1426	0.0015808
1438	0.0020096
1450	0.0033472
1462	0.0044192
1474	0.0034784
1486	0.00232
1498	0.0010944
1510	0.0005184
1522	0.0003136
1534	0.0002304
1546	0.0001856
1558	0.000128
1570	0.0001376
1582	0.0001728
1594	0.0001536
1606	0.0001664
1618	0.0001056
1630	9.6e-05
1642	0.0001312
1654	9.92e-05
1666	0.0001504
1678	0.0001856
1690	0.000192
1702	0.000272
1714	0.0005792
1726	0.000928
1738	0.0006656
1750	0.0003072
1762	0.0001696
1774	0.0001088
1786	0.0001088
1798	7.68e-05
1810	6.08e-05
1822	4.16e-05
1834	4.8e-05
1846	7.04e-05
1858	3.84e-05
1870	6.4e-05
1882	6.72e-05
1894	7.04e-05
1906	3.52e-05
1918	3.84e-05
1930	2.24e-05
1942	1.6e-05
1954	3.84e-05
1966	3.84e-05
1978	2.88e-05
1990	2.56e-05
2002	1.28e-05
2014	1.6e-05
2026	2.56e-05
2038	1.28e-05
2050	0
2062	2.56e-05
2074	3.84e-05
2086	2.24e-05
2098	4.48e-05
2110	2.88e-05
2122	3.84e-05
2134	3.52e-05
2146	6.08e-05
2158	3.84e-05
2170	6.08e-05
2182	2.24e-05
2194	2.56e-05
2206	2.88e-05
2218	4.16e-05
2230	3.84e-05
2242	5.44e-05
2254	4.8e-05
2266	3.84e-05
2278	5.44e-05
2290	4.16e-05
2302	9.6e-06
2314	0
2326	0
2338	0
2350	0
2362	0
2374	0
2386	2.88e-05
2398	4.48e-05
2410	5.12e-05
2422	5.12e-05
2434	7.68e-05
2446	6.72e-05
2458	9.6e-05
2470	7.36e-05
2482	6.72e-05
2494	5.12e-05
2506	6.4e-05
2518	9.28e-05
2530	7.04e-05
2542	4.48e-05
2554	0.0001024
2566	9.6e-05
2578	0.0001376
2590	0.0001408
2602	0.00016
2614	0.0001632
2626	0.000144
2638	0.0001664
2650	0.0002176
2662	0.0002656
2674	0.0003072
2686	0.0003648
2698	0.0003808
2710	0.0005376
2722	0.0005952
2734	0.0005792
2746	0.0005312
2758	0.0005344
2770	0.0006784
2782	0.0007744
2794	0.0008384
2806	0.0011936
2818	0.0018432
2830	0.0030848
2842	0.004544
2854	0.0057344
2866	0.0091552
2878	0.0132
2890	0.0166176
2902	0.021456
2914	0.022208
2926	0.0199936
2938	0.0187488
2950	0.0258784
2962	0.0302944
2974	0.0151168
2986	0.0060928
2998	0.0026912
3010	0.0021632
3022	0.002272
3034	0.0018528
3046	0.0010208
3058	0.0006016
3070	0.0004864
3082	0.000448
3094	0.000448
3106	0.000368
3118	0.000336
3130	0.0003456
3142	0.000368
3154	0.000352
3166	0.0003776
3178	0.0003808
3190	0.0004544
3202	0.0004896
3214	0.0004032
3226	0.0003008
3238	0.0002368
3250	0.0001824
3262	0.0001312
3274	0.0001024
3286	7.68e-05
3298	9.6e-05
3310	0.0001024
3322	0.0001088
3334	0.0001312
3346	0.0001408
3358	0.0001088
3370	0.0001216
3382	8.64e-05
3394	0.0001536
3406	0.0001536
3418	9.28e-05
3430	0.0001696
3442	0.0001376
3454	0.000144
3466	9.28e-05
3478	8.32e-05
3490	3.52e-05
3502	5.12e-05
3514	5.12e-05
3526	4.48e-05
3538	1.6e-05
3550	5.76e-05
3562	7.68e-05
3574	6.08e-05
3586	6.4e-05
3598	7.04e-05
3610	0.0001664
3622	0.0005536
3634	0.001152
3646	0.0008224
3658	0.0003232
3670	0.0001152
3682	8.96e-05
3694	0.000112
3706	4.8e-05
3718	7.36e-05
3730	6.72e-05
3742	4.16e-05
3754	5.12e-05
3766	3.52e-05
3778	2.56e-05
3790	7.68e-05
3802	3.2e-06
3814	6.4e-05
3826	3.2e-05
3838	4.8e-05
