Infrared Spectrum: 2,6-Difluorobenzoic acid
Formula: C 7 H 4 F 2 O 2
CAS: 385-00-2
State: gas
Origin: EPA-IR VAPOR PHASE LIBRARY
1/CM	ABSORBANCE
549.8	0.022504
559.445	0.040864
569.09	0.044244
578.734	0.033244
588.379	0.022574
598.024	0.011584
607.669	0.007294
617.313	0.005344
626.958	0.003434
636.603	0.002684
646.248	0.001654
655.893	0.001884
665.537	0.003044
675.182	0.005034
684.827	0.013004
694.472	0.022054
704.116	0.020464
713.761	0.015664
723.406	0.009744
733.051	0.006474
742.695	0.006074
752.34	0.007984
761.985	0.009284
771.63	0.009484
781.275	0.013954
790.919	0.022544
800.564	0.026804
810.209	0.014224
819.854	0.005744
829.498	0.002534
839.143	0.001804
848.788	0.001424
858.433	0.0008688
868.078	0.0008164
877.722	0.0004773
887.367	0.0004692
897.012	0.0005893
906.657	0.0004937
916.301	0.0005295
925.946	0.0004371
935.591	0.0006337
945.236	0.0011314
954.88	0.001634
964.525	0.002494
974.17	0.002974
983.815	0.004644
993.46	0.009214
1003.1	0.024674
1012.75	0.061474
1022.39	0.067184
1032.04	0.032094
1041.68	0.015644
1051.33	0.019684
1060.97	0.016864
1070.62	0.012464
1080.26	0.026314
1089.91	0.054454
1099.55	0.053484
1109.2	0.023934
1118.84	0.009734
1128.49	0.007644
1138.13	0.007344
1147.78	0.009154
1157.42	0.014154
1167.07	0.028224
1176.71	0.044444
1186.36	0.047324
1196	0.035224
1205.64	0.020264
1215.29	0.012194
1224.93	0.016204
1234.58	0.035544
1244.22	0.039264
1253.87	0.021264
1263.51	0.012154
1273.16	0.013754
1282.8	0.023614
1292.45	0.030914
1302.09	0.029584
1311.74	0.030334
1321.38	0.031704
1331.03	0.027714
1340.67	0.020764
1350.32	0.018154
1359.96	0.019864
1369.61	0.019214
1379.25	0.013804
1388.9	0.007644
1398.54	0.003904
1408.18	0.002494
1417.83	0.002304
1427.47	0.002724
1437.12	0.004154
1446.76	0.008374
1456.41	0.024004
1466.05	0.062694
1475.7	0.075834
1485.34	0.036424
1494.99	0.009914
1504.63	0.004714
1514.28	0.003774
1523.92	0.003924
1533.57	0.005284
1543.21	0.008494
1552.86	0.012394
1562.5	0.014324
1572.15	0.014754
1581.79	0.018324
1591.44	0.027104
1601.08	0.034464
1610.73	0.041524
1620.37	0.054964
1630.01	0.045284
1639.66	0.018444
1649.3	0.005354
1658.95	0.003524
1668.59	0.003044
1678.24	0.002734
1687.88	0.002524
1697.53	0.002524
1707.17	0.003474
1716.82	0.005594
1726.46	0.010124
1736.11	0.018844
1745.75	0.030074
1755.4	0.042424
1765.04	0.081074
1774.69	0.138274
1784.33	0.125264
1793.98	0.060894
1803.62	0.031194
1813.27	0.018034
1822.91	0.009574
1832.55	0.005874
1842.2	0.003684
1851.84	0.002374
1861.49	0.002234
1871.13	0.002494
1880.78	0.002264
1890.42	0.001594
1900.07	0.001334
1909.71	0.001624
1919.36	0.002314
1929	0.002084
1938.65	0.0011073
1948.29	0.0007706
1957.94	0.0008276
1967.58	0.0008753
1977.23	0.0009625
1986.87	0.0009202
1996.52	0.0006864
2006.16	0.0005465
2015.81	0.0005528
2025.45	0.0006517
2035.1	0.0007565
2044.74	0.0006131
2054.38	0.0005988
2064.03	0.000511
2073.67	0.0005183
2083.32	0.0004117
2092.96	0.0003399
2102.61	0.000386
2112.25	0.0004973
2121.9	0.0004859
2131.54	0.0004679
2141.19	0.0004729
2150.83	0.0006202
2160.48	0.0008543
2170.12	0.0009298
2179.77	0.00104
2189.41	0.0009137
2199.06	0.0007475
2208.7	0.0004458
2218.35	0.0004555
2227.99	0.000516
2237.64	0.0004215
2247.28	0.000596
2256.92	0.0007818
2266.57	0.0006683
2276.21	0.0009057
2285.86	0.0010048
2295.5	0.001544
2305.15	0.001784
2314.79	0.001764
2324.44	0.001364
2334.08	0.001274
2343.73	0.0010898
2353.37	0.0010924
2363.02	0.001254
2372.66	0.001234
2382.31	0.0007783
2391.95	0.0007361
2401.6	0.0006565
2411.24	0.0005688
2420.89	0.0005861
2430.53	0.0005173
2440.18	0.0005143
2449.82	0.0006077
2459.47	0.0005741
2469.11	0.0006693
2478.75	0.00079
2488.4	0.00091
2498.04	0.0007787
2507.69	0.0007394
2517.33	0.0008852
2526.98	0.0009048
2536.62	0.0007763
2546.27	0.0004651
2555.91	0.0004942
2565.56	0.0004885
2575.2	0.0005082
2584.85	0.0005184
2594.49	0.000189952
2604.14	0.0003321
2613.78	0.0002868
2623.43	0.0003034
2633.07	0.0003318
2642.72	0.0003179
2652.36	0.00028095
2662.01	0.0003041
2671.65	0.0001666
2681.29	0.0003585
2690.94	0.0002927
2700.58	0.00020819
2710.23	0.0003812
2719.87	0.0003196
2729.52	0.0004499
2739.16	0.0005245
2748.81	0.0006099
2758.45	0.0006277
2768.1	0.0005069
2777.74	0.0003415
2787.39	0.00025769
2797.03	0.00022755
2806.68	0.0003122
2816.32	0.00020798
2825.97	0.0003721
2835.61	0.0004186
2845.26	0.0002942
2854.9	0.0004748
2864.55	0.0005665
2874.19	0.0004853
2883.84	0.0005071
2893.48	0.00026313
2903.12	0.0002853
2912.77	0.0003777
2922.41	0.00026047
2932.06	0.00018147
2941.7	0.0003145
2951.35	0.0004127
2960.99	0.00024473
2970.64	0.0001278
2980.28	0.0004577
2989.93	0.0004492
2999.57	0.0005382
3009.22	0.0005739
3018.86	0.0005644
3028.51	0.0007722
3038.15	0.0009484
3047.8	0.0010325
3057.44	0.0008993
3067.09	0.0007961
3076.73	0.001274
3086.38	0.001704
3096.02	0.001544
3105.67	0.0010685
3115.31	0.000687
3124.95	0.0004001
3134.6	0.0003043
3144.24	0.0003252
3153.89	0.0004921
3163.53	0.00017899
3173.18	0.00028259
3182.82	0.0001616
3192.47	0.00022303
3202.11	0.00020767
3211.76	0.00027627
3221.4	0.0001408
3231.05	0.00021085
3240.69	0.0002878
3250.34	0.0003341
3259.98	0.00023791
3269.63	0.00020604
3279.27	0.0003391
3288.92	0.0001217
3298.56	0.000183938
3308.21	4.1e-05
3317.85	0.0001315
3327.49	0.00019943
3337.14	0.00044
3346.78	0.00027708
3356.43	0.0003597
3366.07	0.0003272
3375.72	0.000188087
3385.36	0.0002162
3395.01	0.00022168
3404.65	0.00023261
3414.3	0.00024915
3423.94	0.00024362
3433.59	0.00025953
3443.23	0.0001663
3452.88	0.00017993
3462.52	0.000377
3472.17	0.0004112
3481.81	0.0003518
3491.46	0.0004835
3501.1	0.0009066
3510.75	0.0011651
3520.39	0.001254
3530.04	0.001774
3539.68	0.002704
3549.32	0.005474
3558.97	0.026964
3568.61	0.049144
3578.26	0.035754
3587.9	0.005804
3597.55	0.002404
3607.19	0.002104
3616.84	0.002204
3626.48	0.002084
3636.13	0.001214
3645.77	0.0009834
3655.42	0.0008691
3665.06	0.0006251
3674.71	0.0005689
3684.35	0.00026398
3694	0.0003068
3703.64	0.00017409
3713.29	0.000499
3722.93	0.0002986
3732.58	0.0003977
3742.22	0.0003688
3751.86	0.0003228
3761.51	0.00022053
3771.15	0.0002971
3780.8	5e-05
3790.44	0.0001515
3800.09	0.00021258
3809.73	0.0001264
3819.38	0.0001291
3829.02	0.0003654
3838.67	0.0001691
3848.31	0.0001693
3857.96	0.0003461
3867.6	0.0003917
3877.25	0.00026526
3886.89	0.00023085
3896.54	0.0004326
3906.18	0.0003736
3915.83	0.0003559
3925.47	0.0001226
3935.12	9.32e-05
3944.76	0.000444
3954.41	0.0001405
3964.05	5.4e-05
3973.69	0.000193779
3983.34	4.3e-05
3992.98	0.0003877
