Infrared Spectrum: 2-PHENYLBENZO-1,4-THIAZANE-3-ONE
Formula: C14 H11 N O S
CAS: 38533-19-6
State: SOLID (NUJOL MULL)
Class: COBLENTZ
Instrument: PERKIN-ELMER
Sampling: TRANSMISSION
Resolution: 4
Origin: ABBOTT LABORATORIES - WASHBURN
MICROMETERS	TRANSMITTANCE
2.043	0.369
2.0766	0.376
2.1102	0.381
2.1438	0.384
2.1774	0.3894
2.211	0.399
2.2446	0.404
2.2782	0.4136
2.3118	0.4229
2.3454	0.418
2.379	0.426
2.4126	0.433
2.4462	0.438
2.4798	0.45
2.5134	0.4561
2.547	0.463
2.5806	0.4699
2.6142	0.4846
2.6478	0.489
2.6814	0.4939
2.715	0.5
2.7486	0.4999
2.7822	0.5071
2.8158	0.504
2.8494	0.5141
2.883	0.5221
2.9166	0.526
2.9502	0.5319
2.9838	0.537
3.0174	0.5371
3.051	0.536
3.0846	0.537
3.1182	0.5037
3.1518	0.4278
3.1854	0.4482
3.219	0.4208
3.2526	0.408
3.2862	0.3775
3.3198	0.3651
3.3534	0.3142
3.387	0.146
3.4206	0.0741
3.4542	0.0472
3.4878	0.0943
3.5214	0.1258
3.555	0.402
3.5886	0.5473
3.6222	0.5976
3.6558	0.598
3.6894	0.6019
3.723	0.61
3.7566	0.615
3.7902	0.62
3.8238	0.625
3.8574	0.6302
3.891	0.6349
3.9246	0.6519
3.9582	0.65
3.9918	0.6569
4.0254	0.6659
4.059	0.666
4.0926	0.664
4.1262	0.6691
4.1598	0.674
4.1934	0.672
4.227	0.679
4.2606	0.676
4.2942	0.677
4.3278	0.679
4.3614	0.6859
4.395	0.693
4.4286	0.693
4.4622	0.698
4.4958	0.701
4.5294	0.7039
4.563	0.708
4.5966	0.7109
4.6302	0.7129
4.6638	0.718
4.6974	0.72
4.731	0.725
4.7646	0.7259
4.7982	0.73
4.8318	0.733
4.8654	0.735
4.899	0.738
4.9326	0.745
4.9662	0.7451
4.9998	0.7481
5.0334	0.7517
5.067	0.753
5.1006	0.7485
5.1342	0.7501
5.1678	0.7625
5.2014	0.762
5.235	0.7595
5.2686	0.767
5.3022	0.767
5.3358	0.7701
5.3694	0.784
5.403	0.787
5.4366	0.782
5.4702	0.7846
5.5038	0.789
5.5374	0.793
5.571	0.795
5.6046	0.7975
5.6382	0.804
5.6718	0.799
5.7054	0.792
5.739	0.7966
5.7726	0.799
5.8062	0.7742
5.8398	0.6919
5.8734	0.5585
5.907	0.3668
5.9406	0.2109
5.9742	0.1864
6.0078	0.2939
6.0414	0.3927
6.075	0.504
6.1086	0.5419
6.1422	0.5797
6.1758	0.6092
6.2094	0.6362
6.243	0.6395
6.2766	0.5771
6.3102	0.4797
6.3438	0.5714
6.3774	0.6276
6.411	0.65
6.4446	0.677
6.4782	0.681
6.5118	0.7075
6.5454	0.716
6.579	0.713
6.6126	0.718
6.6462	0.725
6.6798	0.6883
6.7134	0.6089
6.747	0.3825
6.7806	0.2812
6.8142	0.2765
6.8478	0.2767
6.8814	0.29
6.915	0.3683
6.9486	0.4749
6.9822	0.57
7.0158	0.6108
7.0494	0.6452
7.083	0.6793
7.1166	0.701
7.1502	0.7042
7.1838	0.6682
7.2174	0.5584
7.251	0.4358
7.2846	0.3303
7.3182	0.3004
7.3518	0.4154
7.3854	0.5293
7.419	0.6009
7.4526	0.6428
7.4862	0.661
7.5198	0.5475
7.5534	0.5881
7.587	0.5632
7.6206	0.6357
7.6542	0.6191
7.6878	0.6282
7.7214	0.6461
7.755	0.6779
7.7886	0.6966
7.8222	0.7111
7.8558	0.6824
7.8894	0.6365
7.923	0.66
7.9566	0.6479
7.9902	0.652
8.0238	0.624
8.0574	0.6103
8.091	0.5838
8.1246	0.6424
8.1582	0.6932
8.1918	0.7089
8.2254	0.7179
8.259	0.7227
8.2926	0.721
8.3262	0.711
8.3598	0.7271
8.3934	0.7369
8.427	0.7436
8.4606	0.745
8.4942	0.7266
8.5278	0.7251
8.5614	0.73
8.595	0.7132
8.6286	0.6799
8.6622	0.7171
8.6958	0.7221
8.7294	0.7369
8.763	0.7537
8.7966	0.7606
8.8302	0.7596
8.8638	0.7631
8.8974	0.7719
8.931	0.775
8.9646	0.777
8.9982	0.777
9.0318	0.7708
9.0654	0.768
9.099	0.7752
9.1326	0.78
9.1662	0.7836
9.1998	0.7745
9.2334	0.7569
9.267	0.6993
9.3006	0.7143
9.3342	0.7242
9.3678	0.7415
9.4014	0.7665
9.435	0.7809
9.4686	0.787
9.5022	0.792
9.5358	0.7942
9.5694	0.797
9.603	0.795
9.6366	0.7873
9.6702	0.7645
9.7038	0.7014
9.7374	0.715
9.771	0.7608
9.8046	0.7744
9.8382	0.7826
9.8718	0.78
9.9054	0.787
9.939	0.789
9.9726	0.79
10.0062	0.785
10.0398	0.795
10.0734	0.8036
10.107	0.795
10.1406	0.7936
10.1742	0.794
10.2078	0.7794
10.2414	0.7943
10.275	0.797
10.3086	0.7948
10.3422	0.802
10.3758	0.799
10.4094	0.797
10.443	0.802
10.4766	0.802
10.5102	0.7959
10.5438	0.7666
10.5774	0.7592
10.611	0.73
10.6446	0.7344
10.6782	0.7854
10.7118	0.7972
10.7454	0.8056
10.779	0.8106
10.8126	0.8096
10.8462	0.811
10.8798	0.8057
10.9134	0.795
10.947	0.8046
10.9806	0.8123
11.0142	0.811
11.0478	0.8209
11.0814	0.819
11.115	0.8112
11.1486	0.7957
11.1822	0.7724
11.2158	0.7285
11.2494	0.696
11.283	0.7108
11.3166	0.7508
11.3502	0.7707
11.3838	0.777
11.4174	0.787
11.451	0.784
11.4846	0.7746
11.5182	0.7287
11.5518	0.7364
11.5854	0.7636
11.619	0.7528
11.6526	0.738
11.6862	0.7413
11.7198	0.7433
11.7534	0.748
11.787	0.7365
11.8206	0.7408
11.8542	0.742
11.8878	0.7317
11.9214	0.7135
11.955	0.699
11.9886	0.6845
12.0222	0.6626
12.0558	0.6335
12.0894	0.6149
12.123	0.6
12.1566	0.59
12.1902	0.5925
12.2238	0.6026
12.2574	0.6265
12.291	0.6617
12.3246	0.6906
12.3582	0.696
12.3918	0.7044
12.4254	0.7039
12.459	0.6911
12.4926	0.6989
12.5262	0.7076
12.5598	0.718
12.5934	0.7243
12.627	0.73
12.6606	0.733
12.6942	0.743
12.7278	0.7494
12.7614	0.752
12.795	0.753
12.8286	0.75
12.8622	0.755
12.8958	0.755
12.9294	0.757
12.963	0.757
12.9966	0.7489
13.0302	0.7443
13.0638	0.7203
13.0974	0.6743
13.131	0.5505
13.1646	0.3967
13.1982	0.3111
13.2318	0.3679
13.2654	0.4909
13.299	0.5822
13.3326	0.5569
13.3662	0.5105
13.3998	0.4654
13.4334	0.4718
13.467	0.541
13.5006	0.6213
13.5342	0.6671
13.5678	0.6938
13.6014	0.704
13.635	0.7125
13.6686	0.718
13.7022	0.7205
13.7358	0.7193
13.7694	0.7149
13.803	0.709
13.8366	0.7028
13.8702	0.686
13.9038	0.6492
13.9374	0.6614
13.971	0.7091
14.0046	0.7284
14.0382	0.7341
14.0718	0.7355
14.1054	0.736
14.139	0.7291
14.1726	0.717
14.2062	0.6764
14.2398	0.6247
14.2734	0.5294
14.307	0.4362
14.3406	0.3737
14.3742	0.3496
14.4078	0.4398
14.4414	0.5361
14.475	0.6256
14.5086	0.6575
14.5422	0.6494
14.5758	0.613
14.6094	0.5761
14.643	0.576
14.6766	0.578
14.7102	0.5848
14.7438	0.611
14.7774	0.629
14.811	0.6063
14.8446	0.5559
14.8782	0.5151
14.9118	0.4972
14.9454	0.5169
14.979	0.592
15.0126	0.6303
15.0462	0.6213
15.0798	0.5949
15.1134	0.5404
15.147	0.4885
15.1806	0.4737
15.2142	0.4977
15.2478	0.5284
15.2814	0.5592
15.315	0.5709
15.3486	0.585
15.3822	0.5877
15.4158	0.586
15.4494	0.586
