Infrared Spectrum: CYCLOBUTANECARBOXYLIC ACID, 2-DIMETHYLAMINO-3,3-DIMETHYL, METHYL ESTER
Formula: C10 H19 N O2
CAS: 3854-82-8
State: LIQUID
Boiling point: 69-74 C AT 4.8-6.4 mmHg
Class: COBLENTZ
Instrument: Not specified, most likely a prism, grating, or hybrid spectrometer.
Sampling: TRANSMISSION
Path length: 0.0030 CM
Resolution: 4
Origin: TENNESSEE EASTMAN COMPANY, RESEARCH LABORATORIES
MICROMETERS	TRANSMITTANCE
2.068	0.989
2.1089	0.989
2.14979	0.989
2.19069	0.974
2.23159	0.921
2.27249	0.931
2.31338	0.933
2.35428	0.933
2.39518	0.934
2.43607	0.939
2.47697	0.95
2.51787	0.953
2.55877	0.953
2.59966	0.958
2.64056	0.963
2.68146	0.963
2.72235	0.962
2.76325	0.958
2.80415	0.958
2.84505	0.946
2.88594	0.909
2.92684	0.931
2.96774	0.934
3.00863	0.938
3.04953	0.936
3.09043	0.927
3.13132	0.905
3.17222	0.903
3.21312	0.891
3.25402	0.828
3.29491	0.481
3.33581	0.018
3.37671	0.176
3.4176	0.222
3.4585	0.319
3.4994	0.135
3.5403	0.2
3.58119	0.241
3.62209	0.598
3.66299	0.771
3.70388	0.849
3.74478	0.859
3.78568	0.874
3.82658	0.921
3.86747	0.929
3.90837	0.933
3.94927	0.933
3.99016	0.933
4.03106	0.927
4.07196	0.946
4.11286	0.939
4.15375	0.941
4.19465	0.939
4.23555	0.938
4.27644	0.926
4.31734	0.929
4.35824	0.951
4.39914	0.951
4.44003	0.955
4.48093	0.958
4.52183	0.958
4.56272	0.958
4.60362	0.943
4.64452	0.929
4.68542	0.909
4.72631	0.915
4.76721	0.917
4.80811	0.921
4.849	0.924
4.8899	0.931
4.9308	0.933
4.9717	0.933
5.01259	0.933
5.05349	0.936
5.09439	0.941
5.13528	0.934
5.17618	0.943
5.21708	0.939
5.25797	0.939
5.29887	0.943
5.33977	0.936
5.38067	0.927
5.42156	0.917
5.46246	0.9
5.50336	0.869
5.54425	0.813
5.58515	0.751
5.62605	0.593
5.66695	0.298
5.70784	0.015
5.74874	0.034
5.78964	0.221
5.83053	0.475
5.87143	0.586
5.91233	0.663
5.95323	0.759
5.99412	0.794
6.03502	0.809
6.07592	0.814
6.11681	0.821
6.15771	0.828
6.19861	0.847
6.23951	0.859
6.2804	0.861
6.3213	0.842
6.3622	0.838
6.40309	0.821
6.44399	0.814
6.48489	0.813
6.52579	0.797
6.56668	0.79
6.60758	0.747
6.64848	0.703
6.68937	0.572
6.73027	0.329
6.77117	0.077
6.81207	0.066
6.85296	0.082
6.89386	0.097
6.93476	0.123
6.97565	0.409
7.01655	0.634
7.05745	0.656
7.09835	0.638
7.13924	0.514
7.18014	0.204
7.22104	0.099
7.26193	0.135
7.30283	0.145
7.34373	0.243
7.38462	0.368
7.42552	0.365
7.46642	0.174
7.50732	0.313
7.54821	0.456
7.58911	0.557
7.63001	0.588
7.6709	0.53
7.7118	0.319
7.7527	0.101
7.7936	0.138
7.83449	0.108
7.87539	0.109
7.91629	0.118
7.95718	0.231
7.99808	0.337
8.03898	0.379
8.07988	0.324
8.12077	0.128
8.16167	0.066
8.20257	0.06
8.24346	0.058
8.28436	0.036
8.32526	0.029
8.36616	0.018
8.40705	0.02
8.44795	0.017
8.48885	0.029
8.52974	0.114
8.57064	0.126
8.61154	0.034
8.65244	0.056
8.69333	0.089
8.73423	0.164
8.77513	0.351
8.81602	0.499
8.85692	0.567
8.89782	0.581
8.93872	0.554
8.97961	0.495
9.02051	0.509
9.06141	0.548
9.1023	0.476
9.1432	0.548
9.1841	0.5
9.225	0.339
9.26589	0.18
9.30679	0.238
9.34769	0.375
9.38858	0.457
9.42948	0.433
9.47038	0.293
9.51127	0.089
9.55217	0.049
9.59307	0.094
9.63397	0.197
9.67486	0.361
9.71576	0.554
9.75666	0.634
9.79755	0.66
9.83845	0.682
9.87935	0.716
9.92025	0.74
9.96114	0.751
10.002	0.739
10.0429	0.684
10.0838	0.639
10.1247	0.703
10.1656	0.771
10.2065	0.811
10.2474	0.831
10.2883	0.838
10.3292	0.828
10.3701	0.804
10.411	0.728
10.4519	0.588
10.4928	0.445
10.5337	0.391
10.5746	0.543
10.6155	0.682
10.6564	0.742
10.6973	0.746
10.7382	0.631
10.7791	0.488
10.82	0.476
10.8609	0.567
10.9018	0.636
10.9427	0.725
10.9836	0.756
11.0245	0.706
11.0654	0.55
11.1063	0.548
11.1472	0.672
11.1881	0.744
11.229	0.749
11.2699	0.728
11.3107	0.711
11.3516	0.691
11.3925	0.706
11.4334	0.73
11.4743	0.722
11.5152	0.728
11.5561	0.78
11.597	0.821
11.6379	0.84
11.6788	0.852
11.7197	0.864
11.7606	0.864
11.8015	0.854
11.8424	0.83
11.8833	0.785
11.9242	0.694
11.9651	0.528
12.006	0.459
12.0469	0.456
12.0878	0.545
12.1287	0.624
12.1696	0.699
12.2105	0.754
12.2514	0.792
12.2923	0.818
12.3332	0.826
12.3741	0.833
12.415	0.835
12.4559	0.825
12.4968	0.799
12.5377	0.761
12.5786	0.747
12.6195	0.753
12.6604	0.799
12.7012	0.826
12.7421	0.845
12.783	0.857
12.8239	0.862
12.8648	0.866
12.9057	0.867
12.9466	0.869
12.9875	0.871
13.0284	0.871
13.0693	0.871
13.1102	0.871
13.1511	0.869
13.192	0.866
13.2329	0.857
13.2738	0.849
13.3147	0.838
13.3556	0.826
13.3965	0.814
13.4374	0.809
13.4783	0.807
13.5192	0.807
13.5601	0.807
13.601	0.807
13.6419	0.802
13.6828	0.801
13.7237	0.801
13.7646	0.801
13.8055	0.794
13.8464	0.782
13.8873	0.777
13.9282	0.766
13.9691	0.732
14.01	0.706
14.0509	0.651
14.0918	0.614
14.1326	0.595
14.1735	0.59
14.2144	0.596
14.2553	0.605
14.2962	0.617
14.3371	0.634
14.378	0.651
14.4189	0.667
14.4598	0.677
14.5007	0.686
14.5416	0.689
14.5825	0.691
14.6234	0.694
14.6643	0.696
14.7052	0.696
14.7461	0.694
14.787	0.691
14.8279	0.687
14.8688	0.682
14.9097	0.668
14.9506	0.66
14.9915	0.656
15.0324	0.653
15.0733	0.65
15.1142	0.644
15.1551	0.638
15.196	0.629
15.2369	0.62
15.2778	0.614
15.3187	0.605
15.3596	0.6
15.4005	0.595
15.4414	0.59
15.4823	0.583
15.5232	0.583
15.564	0.576
15.6049	0.564
15.6458	0.559
15.6867	0.557
15.7276	0.55
15.7685	0.547
15.8094	0.545
15.8503	0.54
15.8912	0.536
15.9321	0.531
15.973	0.53
