Infrared Spectrum: 1,4-Dichlorobenzene-d4
Formula: C 6 Cl 2 D 4
CAS: 3855-82-1
State: gas
Instrument: HP-GC/MS/IRD
Origin: NIST Mass Spectrometry Data Center
1/CM	ABSORBANCE
550	0.0008436
562	0.0004332
574	7.41e-05
586	0.0001368
598	0.0002793
610	0.0002394
622	0.0002907
634	0.0003591
646	0.0003933
658	0.0004446
670	0.0010716
682	0.0037164
694	0.0073701
706	0.0045144
718	0.0015618
730	0.0004731
742	0.0003249
754	0.000228
766	0.0002451
778	0.0002964
790	0.0004218
802	0.0011457
814	0.0014934
826	0.0015276
838	0.0019095
850	0.0008379
862	0.0003249
874	0.0002964
886	0.0003648
898	0.0003933
910	0.0003819
922	0.0004275
934	0.0004788
946	0.0004332
958	0.0005757
970	0.001311
982	0.0029127
994	0.0050673
1006	0.0141987
1018	0.0311619
1030	0.0368106
1042	0.0080313
1054	0.0017157
1066	0.0007524
1078	0.0004959
1090	0.0004047
1102	0.0003762
1114	0.000228
1126	0.0001767
1138	0.0001995
1150	0.0002451
1162	0.0002907
1174	0.0003249
1186	0.0001653
1198	0.0004275
1210	0.0003306
1222	0.0001311
1234	0.0002337
1246	0.0002736
1258	0.0002109
1270	0.0003078
1282	0.0009234
1294	0.0017328
1306	0.0018924
1318	0.0024168
1330	0.0040299
1342	0.0101004
1354	0.0408462
1366	0.0513228
1378	0.0088863
1390	0.0018126
1402	0.0018354
1414	0.0010944
1426	0.0006099
1438	0.0004845
1450	0.0004731
1462	0.000513
1474	0.0004446
1486	0.0002793
1498	0.0002622
1510	0.000228
1522	0.0002679
1534	0.0004047
1546	0.0006327
1558	0.0009804
1570	0.001026
1582	0.0007182
1594	0.0003876
1606	0.0003933
1618	0.0005472
1630	0.0004332
1642	0.0002907
1654	0.0002109
1666	0.0001881
1678	0.000171
1690	0.0001653
1702	8.55e-05
1714	9.12e-05
1726	0.0001197
1738	9.12e-05
1750	0.0001083
1762	8.55e-05
1774	7.41e-05
1786	0.0001026
1798	5.7e-05
1810	7.41e-05
1822	5.7e-05
1834	9.12e-05
1846	0.0001026
1858	6.27e-05
1870	5.7e-05
1882	5.7e-05
1894	6.27e-05
1906	9.69e-05
1918	0.0001254
1930	0.000114
1942	9.69e-05
1954	8.55e-05
1966	9.12e-05
1978	6.84e-05
1990	4.56e-05
2002	3.99e-05
2014	4.56e-05
2026	4.56e-05
2038	3.99e-05
2050	7.98e-05
2062	0.000114
2074	0.0001425
2086	0.0001254
2098	5.7e-05
2110	3.42e-05
2122	2.28e-05
2134	5.13e-05
2146	2.85e-05
2158	2.85e-05
2170	3.42e-05
2182	3.99e-05
2194	3.99e-05
2206	6.27e-05
2218	6.27e-05
2230	7.41e-05
2242	0.0001368
2254	0.0001197
2266	0.0001881
2278	0.0004446
2290	0.0005301
2302	0.0004446
2314	0.0001881
2326	9.69e-05
2338	6.84e-05
2350	0.0001083
2362	0.0001368
2374	0.0001767
2386	0.000114
2398	9.12e-05
2410	5.13e-05
2422	6.27e-05
2434	3.99e-05
2446	2.85e-05
2458	3.42e-05
2470	2.28e-05
2482	0
2494	2.28e-05
2506	6.27e-05
2518	4.56e-05
2530	5.13e-05
2542	6.27e-05
2554	6.84e-05
2566	8.55e-05
2578	8.55e-05
2590	7.41e-05
2602	4.56e-05
2614	8.55e-05
2626	6.27e-05
2638	6.27e-05
2650	8.55e-05
2662	8.55e-05
2674	7.98e-05
2686	9.69e-05
2698	7.98e-05
2710	8.55e-05
2722	6.27e-05
2734	0.0001026
2746	7.98e-05
2758	0.0001539
2770	0.0001938
2782	0.0003933
2794	0.0004788
2806	0.0003021
2818	0.000171
2830	0.000171
2842	0.0001653
2854	0.0001539
2866	0.0001596
2878	0.0001824
2890	0.0001938
2902	0.000228
2914	0.0001767
2926	0.000171
2938	0.0001539
2950	0.0001368
2962	0.0001653
2974	0.000114
2986	0.0001767
2998	0.0001995
3010	0.0001767
3022	0.0001368
3034	0.0001197
3046	0.0001254
3058	0.0001083
3070	0.0001539
3082	0.0001539
3094	0.0001197
3106	0.0001425
3118	0.0001767
3130	0.0001653
3142	0.0001254
3154	0.0001767
3166	9.69e-05
3178	0.0001026
3190	0.0001368
3202	0.0001368
3214	0.0001083
3226	0.0001368
3238	9.69e-05
3250	0.0001425
3262	0.0001197
3274	0.0001425
3286	0.0002052
3298	0.0002109
3310	0.0002451
3322	0.0002736
3334	0.0002394
3346	0.0001653
3358	0.0001197
3370	0.0001482
3382	0.000114
3394	8.55e-05
3406	5.13e-05
3418	5.7e-05
3430	5.7e-05
3442	6.84e-05
3454	0.0001197
3466	6.84e-05
3478	6.27e-05
3490	9.12e-05
3502	5.13e-05
3514	9.12e-05
3526	0.0001083
3538	0.0001368
3550	7.98e-05
3562	1.14e-05
3574	2.85e-05
3586	4.56e-05
3598	7.98e-05
3610	4.56e-05
3622	0.0001254
3634	9.69e-05
3646	9.69e-05
3658	0.0001197
3670	3.99e-05
3682	0.0001425
3694	9.69e-05
3706	0.0001026
3718	7.98e-05
3730	0.0001197
3742	5.7e-05
3754	6.27e-05
3766	7.98e-05
3778	0.0001539
3790	0.000171
3802	9.69e-05
3814	0.000171
3826	0.0002166
3838	0.0001824
