Infrared Spectrum: ISOVALERIC ACID, 2-(2,4-DINITROPHENYL) HYDRAZIDE
Formula: C11 H14 N4 O5
CAS: 38562-54-8
State: SOLID (MINERAL OIL MULL)
Class: COBLENTZ
Instrument: Not specified, most likely a prism, grating, or hybrid spectrometer.
Sampling: TRANSMISSION
Resolution: 4
Origin: DOW CHEMICAL COMPANY
MICROMETERS	TRANSMITTANCE
2.055	0.731
2.09606	0.738
2.13711	0.74
2.17817	0.747
2.21922	0.75
2.26028	0.74
2.30133	0.749
2.34239	0.754
2.38344	0.757
2.4245	0.764
2.46555	0.771
2.50661	0.771
2.54767	0.774
2.58872	0.781
2.62978	0.786
2.67083	0.792
2.71189	0.797
2.75294	0.8
2.794	0.809
2.83505	0.81
2.87611	0.805
2.91717	0.747
2.95822	0.584
2.99928	0.529
3.04033	0.501
3.08139	0.536
3.12244	0.582
3.1635	0.682
3.20455	0.666
3.24561	0.68
3.28666	0.635
3.32772	0.554
3.36878	0.192
3.40983	0.132
3.45089	0.242
3.49194	0.448
3.533	0.745
3.57405	0.786
3.61511	0.8
3.65616	0.804
3.69722	0.81
3.73828	0.81
3.77933	0.823
3.82039	0.831
3.86144	0.841
3.9025	0.848
3.94355	0.86
3.98461	0.86
4.02566	0.855
4.06672	0.853
4.10777	0.859
4.14883	0.867
4.18989	0.869
4.23094	0.869
4.272	0.871
4.31305	0.874
4.35411	0.871
4.39516	0.874
4.43622	0.879
4.47727	0.878
4.51833	0.872
4.55938	0.878
4.60044	0.881
4.6415	0.881
4.68255	0.883
4.72361	0.883
4.76466	0.886
4.80572	0.886
4.84677	0.883
4.88783	0.888
4.92888	0.891
4.96994	0.89
5.011	0.888
5.05205	0.888
5.09311	0.893
5.13416	0.895
5.17522	0.9
5.21627	0.902
5.25733	0.9
5.29838	0.9
5.33944	0.9
5.38049	0.902
5.42155	0.89
5.46261	0.896
5.50366	0.9
5.54472	0.902
5.58577	0.902
5.62683	0.891
5.66788	0.884
5.70894	0.879
5.74999	0.878
5.79105	0.867
5.83211	0.843
5.87316	0.785
5.91422	0.63
5.95527	0.402
5.99633	0.209
6.03738	0.565
6.07844	0.632
6.11949	0.529
6.16055	0.206
6.2016	0.369
6.24266	0.359
6.28372	0.525
6.32477	0.704
6.36583	0.67
6.40688	0.589
6.44794	0.599
6.48899	0.441
6.53005	0.343
6.5711	0.326
6.61216	0.469
6.65321	0.474
6.69427	0.537
6.73533	0.589
6.77638	0.462
6.81744	0.403
6.85849	0.472
6.89955	0.524
6.9406	0.487
6.98166	0.441
7.02271	0.561
7.06377	0.697
7.10483	0.74
7.14588	0.711
7.18694	0.635
7.22799	0.554
7.26905	0.5
7.3101	0.446
7.35116	0.403
7.39221	0.238
7.43327	0.134
7.47432	0.316
7.51538	0.429
7.55644	0.347
7.59749	0.355
7.63855	0.451
7.6796	0.518
7.72066	0.455
7.76171	0.41
7.80277	0.405
7.84382	0.493
7.88488	0.577
7.92594	0.618
7.96699	0.611
8.00805	0.579
8.0491	0.556
8.09016	0.666
8.13121	0.709
8.17227	0.692
8.21332	0.675
8.25438	0.671
8.29543	0.707
8.33649	0.757
8.37755	0.774
8.4186	0.773
8.45966	0.738
8.50071	0.683
8.54177	0.664
8.58282	0.663
8.62388	0.635
8.66493	0.587
8.70599	0.553
8.74704	0.659
8.7881	0.733
8.82916	0.706
8.87021	0.699
8.91127	0.706
8.95232	0.737
8.99338	0.773
9.03443	0.785
9.07549	0.79
9.11654	0.781
9.1576	0.743
9.19866	0.697
9.23971	0.73
9.28077	0.774
9.32182	0.783
9.36288	0.747
9.40393	0.675
9.44499	0.747
9.48604	0.829
9.5271	0.841
9.56815	0.847
9.60921	0.853
9.65027	0.857
9.69132	0.862
9.73238	0.862
9.77343	0.864
9.81449	0.864
9.85554	0.864
9.8966	0.855
9.93765	0.831
9.97871	0.814
10.0198	0.824
10.0608	0.833
10.1019	0.841
10.1429	0.855
10.184	0.862
10.225	0.85
10.2661	0.848
10.3072	0.862
10.3482	0.865
10.3893	0.864
10.4303	0.867
10.4714	0.845
10.5124	0.831
10.5535	0.847
10.5945	0.871
10.6356	0.871
10.6767	0.857
10.7177	0.807
10.7588	0.737
10.7998	0.673
10.8409	0.694
10.8819	0.692
10.923	0.745
10.964	0.852
11.0051	0.878
11.0462	0.883
11.0872	0.888
11.1283	0.888
11.1693	0.884
11.2104	0.871
11.2514	0.862
11.2925	0.871
11.3335	0.884
11.3746	0.896
11.4157	0.902
11.4567	0.903
11.4978	0.903
11.5388	0.903
11.5799	0.903
11.6209	0.898
11.662	0.891
11.703	0.883
11.7441	0.862
11.7852	0.8
11.8262	0.73
11.8673	0.711
11.9083	0.723
11.9494	0.685
11.9904	0.647
12.0315	0.656
12.0725	0.699
12.1136	0.759
12.1547	0.792
12.1957	0.85
12.2368	0.871
12.2778	0.879
12.3189	0.881
12.3599	0.883
12.401	0.883
12.442	0.883
12.4831	0.879
12.5241	0.876
12.5652	0.869
12.6063	0.855
12.6473	0.843
12.6884	0.831
12.7294	0.831
12.7705	0.836
12.8115	0.84
12.8526	0.843
12.8936	0.843
12.9347	0.84
12.9758	0.829
13.0168	0.804
13.0579	0.79
13.0989	0.79
13.14	0.809
13.181	0.814
13.2221	0.807
13.2631	0.798
13.3042	0.78
13.3453	0.745
13.3863	0.671
13.4274	0.58
13.4684	0.542
13.5095	0.623
13.5505	0.706
13.5916	0.731
13.6326	0.738
13.6737	0.728
13.7148	0.709
13.7558	0.685
13.7969	0.658
13.8379	0.628
13.879	0.613
13.92	0.632
13.9611	0.654
14.0021	0.675
14.0432	0.685
14.0843	0.689
14.1253	0.689
14.1664	0.678
14.2074	0.67
14.2485	0.658
14.2895	0.64
14.3306	0.621
14.3716	0.604
14.4127	0.587
14.4538	0.57
14.4948	0.558
14.5359	0.551
14.5769	0.549
14.618	0.546
14.659	0.539
14.7001	0.532
14.7411	0.522
14.7822	0.518
14.8233	0.508
14.8643	0.501
14.9054	0.498
14.9464	0.494
14.9875	0.496
15.0285	0.493
15.0696	0.489
15.1106	0.486
15.1517	0.481
15.1928	0.479
15.2338	0.472
15.2749	0.463
15.3159	0.458
15.357	0.453
15.398	0.448
15.4391	0.441
15.4801	0.434
15.5212	0.429
15.5623	0.422
15.6033	0.419
15.6444	0.414
15.6854	0.408
15.7265	0.398
15.7675	0.391
15.8086	0.383
15.8496	0.378
15.8907	0.376
