Infrared Spectrum: N-Ethyl trimethylene diamine
Formula: C 5 H 14 N 2
CAS: 38571-87-8
State: gas
Origin: EPA-IR VAPOR PHASE LIBRARY
1/CM	ABSORBANCE
501.5	0.003385
513.074	0.003535
524.648	0.003475
536.222	0.003445
547.796	0.003455
559.37	0.003625
570.944	0.003655
582.518	0.003815
594.092	0.004185
605.666	0.004855
617.24	0.005345
628.814	0.006355
640.388	0.007435
651.962	0.008895
663.536	0.010565
675.11	0.012205
686.684	0.013705
698.258	0.014805
709.832	0.015645
721.406	0.016415
732.98	0.017575
744.554	0.019375
756.128	0.020635
767.702	0.021045
779.276	0.020335
790.85	0.017205
802.423	0.013185
813.997	0.010175
825.571	0.008305
837.145	0.007005
848.719	0.006205
860.293	0.005595
871.867	0.005095
883.441	0.004695
895.015	0.004295
906.589	0.004035
918.163	0.003945
929.737	0.003995
941.311	0.003565
952.885	0.003345
964.459	0.003765
976.033	0.003425
987.607	0.003515
999.181	0.003745
1010.76	0.004235
1022.33	0.005065
1033.9	0.005745
1045.48	0.006305
1057.05	0.007285
1068.63	0.008465
1080.2	0.008885
1091.77	0.009185
1103.35	0.010645
1114.92	0.014335
1126.49	0.020505
1138.07	0.023515
1149.64	0.018465
1161.22	0.011595
1172.79	0.007255
1184.36	0.005105
1195.94	0.004065
1207.51	0.003375
1219.09	0.003235
1230.66	0.003165
1242.23	0.003255
1253.81	0.003205
1265.38	0.003575
1276.96	0.003615
1288.53	0.003885
1300.1	0.004235
1311.68	0.004725
1323.25	0.006135
1334.83	0.008295
1346.4	0.009475
1357.97	0.009365
1369.55	0.010415
1381.12	0.011275
1392.7	0.008755
1404.27	0.005885
1415.84	0.005235
1427.42	0.006815
1438.99	0.010045
1450.57	0.013035
1462.14	0.014115
1473.71	0.011715
1485.29	0.007145
1496.86	0.004015
1508.44	0.002765
1520.01	0.002205
1531.58	0.001985
1543.16	0.001875
1554.73	0.001865
1566.31	0.001935
1577.88	0.002265
1589.45	0.002775
1601.03	0.003835
1612.6	0.005415
1624.18	0.006125
1635.75	0.004875
1647.32	0.003185
1658.9	0.002135
1670.47	0.001645
1682.05	0.001375
1693.62	0.001185
1705.19	0.0010553
1716.77	0.0009392
1728.34	0.0009467
1739.92	0.0009536
1751.49	0.0009954
1763.06	0.0009476
1774.64	0.0009815
1786.21	0.0009767
1797.79	0.0009714
1809.36	0.0009021
1820.93	0.0009583
1832.51	0.0009366
1844.08	0.0009272
1855.66	0.0007947
1867.23	0.0007038
1878.8	0.0005833
1890.38	0.0005092
1901.95	0.0004446
1913.53	0.0004243
1925.1	0.0003772
1936.67	0.0003534
1948.25	0.0003496
1959.82	0.0003421
1971.4	0.0003629
1982.97	0.0002966
1994.54	0.0003343
2006.12	0.0003433
2017.69	0.000333
2029.27	0.0002975
2040.84	0.0002894
2052.41	0.000277
2063.99	0.0002621
2075.56	0.0002688
2087.14	0.0002547
2098.71	0.0002496
2110.28	0.0002673
2121.86	0.0002624
2133.43	0.0002508
2145.01	0.0002968
2156.58	0.0002517
2168.15	0.0002681
2179.73	0.0002501
2191.3	0.0002399
2202.88	0.0002405
2214.45	0.0002614
2226.02	0.0002682
2237.6	0.0002576
2249.17	0.0002611
2260.74	0.0002708
2272.32	0.0002684
2283.89	0.0002538
2295.47	0.0003134
2307.04	0.0002754
2318.61	0.0003326
2330.19	0.0003371
2341.76	0.0003099
2353.34	0.0003138
2364.91	0.0003229
2376.48	0.000336
2388.06	0.0002922
2399.63	0.0002861
2411.21	0.0002782
2422.78	0.0003053
2434.35	0.0002882
2445.93	0.0003121
2457.5	0.0003208
2469.08	0.0003055
2480.65	0.0003556
2492.22	0.0003613
2503.8	0.0004068
2515.37	0.0004477
2526.95	0.0004954
2538.52	0.0005988
2550.09	0.00068
2561.67	0.0007946
2573.24	0.0009321
2584.82	0.0010656
2596.39	0.001225
2607.96	0.001365
2619.54	0.001465
2631.11	0.001765
2642.69	0.002115
2654.26	0.002455
2665.83	0.002845
2677.41	0.003325
2688.98	0.003755
2700.56	0.004245
2712.13	0.004735
2723.7	0.005405
2735.28	0.006185
2746.85	0.007085
2758.43	0.008015
2770	0.009455
2781.57	0.012135
2793.15	0.016785
2804.72	0.023355
2816.3	0.029675
2827.87	0.032805
2839.44	0.032765
2851.02	0.032305
2862.59	0.032315
2874.17	0.033095
2885.74	0.033525
2897.31	0.035105
2908.89	0.041055
2920.46	0.049765
2932.04	0.055865
2943.61	0.052715
2955.18	0.044015
2966.76	0.039425
2978.33	0.031655
2989.91	0.018315
3001.48	0.009335
3013.05	0.005385
3024.63	0.003595
3036.2	0.002715
3047.78	0.002105
3059.35	0.001645
3070.92	0.001355
3082.5	0.001125
3094.07	0.0009686
3105.65	0.0009134
3117.22	0.0007878
3128.79	0.0007017
3140.37	0.0005927
3151.94	0.0005123
3163.52	0.0005118
3175.09	0.0004827
3186.66	0.0004832
3198.24	0.0004201
3209.81	0.0004098
3221.39	0.0003003
3232.96	0.0002919
3244.53	0.0002562
3256.11	0.00017907
3267.68	0.00018098
3279.26	0.000121114
3290.83	0.000118041
3302.4	0.00017884
3313.98	0.0003949
3325.55	0.0006708
3337.13	0.0010178
3348.7	0.001125
3360.27	0.0008453
3371.85	0.0004596
3383.42	0.0003816
3395	0.0004796
3406.57	0.000495
3418.14	0.000517
3429.72	0.0002615
3441.29	0.00011235
3452.86	0.00013093
3464.44	0.0002084
3476.01	9.71e-05
3487.59	3.83e-05
3499.16	6.84e-05
3510.73	0.00015074
3522.31	0.00012964
3533.88	1.66e-05
3545.46	0.00011228
3557.03	6.44e-05
3568.6	7.99e-05
3580.18	5.07e-05
3591.75	4.6e-05
3603.33	0.00010648
3614.9	0.00019009
3626.47	6.99e-05
3638.05	0.00010658
3649.62	9.23e-05
3661.2	0.00014196
3672.77	7.65e-05
3684.34	0.00020248
3695.92	0.00014615
3707.49	0.00010602
3719.07	7.28e-05
3730.64	5.45e-05
3742.21	0.00016436
3753.79	0.000119865
3765.36	7.69e-05
3776.94	0.0001012
3788.51	0.00015562
3800.08	8.26e-05
3811.66	6.16e-05
3823.23	6.99e-05
3834.81	9.78e-05
3846.38	0.000122082
3857.95	4.46e-05
3869.53	7.95e-05
3881.1	0.00016443
3892.68	0.000120857
3904.25	0.0002355
3915.82	0.00017121
3927.4	0.0002568
3938.97	0.00012859
3950.55	0.0002291
3962.12	0.0003282
3973.69	0.0002624
3985.27	0.0002534
3996.84	0.0002901
