Infrared Spectrum: Cholesterol, propyl carbonate
Formula: C31 H52 O3
CAS: 38577-26-3
State: SOLUTION (10% CCl4 FOR 3800-1330, 10% CS2 FOR 1330-450 CM^-^1)
Melting point: 97 C
Class: COBLENTZ III
Instrument: BECKMAN IR-9 (GRATING)
Instrument parameters: ORDER CHANGES: 670, 1200, 2000 CM^-^1
Sampling: TRANSMISSION
Path length: 0.011 CM, 0.011 CM
Resolution: 2
Origin: DOW CHEMICAL COMPANY
1/CM	TRANSMITTANCE
3800	0.8887
3791	0.8888
3782	0.889
3773	0.8894
3764	0.8899
3755	0.8903
3746	0.8908
3737	0.891
3728	0.8911
3719	0.8908
3710	0.8904
3701	0.8897
3692	0.8887
3683	0.8877
3674	0.8868
3665	0.8862
3656	0.8859
3647	0.886
3638	0.8871
3629	0.8896
3620	0.8917
3611	0.8925
3602	0.8931
3593	0.8918
3584	0.8883
3575	0.8863
3566	0.8849
3557	0.8835
3548	0.8824
3539	0.8812
3530	0.88
3521	0.8788
3512	0.8775
3503	0.8755
3494	0.8744
3485	0.8734
3476	0.8746
3467	0.8761
3458	0.8777
3449	0.8782
3440	0.8788
3431	0.8789
3422	0.8788
3413	0.8789
3404	0.879
3395	0.8791
3386	0.8788
3377	0.8785
3368	0.8785
3359	0.8788
3350	0.879
3341	0.879
3332	0.8788
3323	0.8787
3314	0.8785
3305	0.8784
3296	0.8783
3287	0.8784
3278	0.8785
3269	0.8786
3260	0.8786
3251	0.8771
3242	0.8754
3233	0.8718
3224	0.8684
3215	0.867
3206	0.8671
3197	0.8675
3188	0.8677
3179	0.8674
3170	0.867
3161	0.8661
3152	0.8651
3143	0.8631
3134	0.8612
3125	0.8593
3116	0.8573
3107	0.8552
3098	0.8531
3089	0.8507
3080	0.8459
3071	0.8367
3062	0.8172
3053	0.7928
3044	0.7691
3035	0.7675
3026	0.7617
3017	0.738
3008	0.6438
2999	0.5697
2990	0.2932
2981	0.0912
2972	0.0247
2963	0.0204
2954	0.0193
2945	0.0238
2936	0.0346
2927	0.0791
2918	0.1045
2909	0.1088
2900	0.1325
2891	0.1625
2882	0.154
2873	0.121
2864	0.2007
2855	0.1854
2846	0.3584
2837	0.4842
2828	0.4944
2819	0.7261
2810	0.7883
2801	0.8051
2792	0.8174
2783	0.8261
2774	0.8325
2765	0.8333
2756	0.8321
2747	0.8302
2738	0.8283
2729	0.8271
2720	0.8318
2711	0.8404
2702	0.8411
2693	0.8417
2684	0.8425
2675	0.8432
2666	0.8439
2657	0.8446
2648	0.8453
2639	0.8475
2630	0.8501
2621	0.8525
2612	0.8558
2603	0.8592
2594	0.8624
2585	0.8648
2576	0.867
2567	0.8675
2558	0.8677
2549	0.8678
2540	0.8678
2531	0.8674
2522	0.8675
2513	0.8694
2504	0.8718
2495	0.8743
2486	0.8767
2477	0.8785
2468	0.8796
2459	0.8798
2450	0.8789
2441	0.8775
2432	0.8761
2423	0.8745
2414	0.8728
2405	0.8717
2396	0.8721
2387	0.8741
2378	0.8765
2369	0.8788
2360	0.8808
2351	0.8825
2342	0.8836
2333	0.8838
2324	0.8809
2315	0.879
2306	0.8784
2297	0.8775
2288	0.8767
2279	0.876
2270	0.8753
2261	0.8741
2252	0.8727
2243	0.8711
2234	0.8701
2225	0.87
2216	0.8704
2207	0.8725
2198	0.8752
2189	0.879
2180	0.8804
2171	0.8809
2162	0.8812
2153	0.881
2144	0.8808
2135	0.881
2126	0.8812
2117	0.8816
2108	0.8823
2099	0.8825
2090	0.8828
2081	0.8856
2072	0.887
2063	0.8808
2054	0.88
2045	0.8806
2036	0.8818
2027	0.883
2018	0.8838
2009	0.8898
2000	0.9373
1991	0.8958
1982	0.8949
1973	0.8946
1964	0.8942
1955	0.8939
1946	0.8936
1937	0.8932
1928	0.8928
1919	0.8925
1910	0.8921
1901	0.8921
1892	0.8923
1883	0.8918
1874	0.89
1865	0.8861
1856	0.8814
1847	0.8743
1838	0.8662
1829	0.8575
1820	0.8527
1811	0.8517
1802	0.8499
1793	0.8418
1784	0.8202
1775	0.7711
1766	0.6237
1757	0.3437
1748	0.0238
1739	0.0261
1730	0.2902
1721	0.64
1712	0.7548
1703	0.7797
1694	0.8018
1685	0.818
1676	0.8144
1667	0.8315
1658	0.8455
1649	0.8486
1640	0.8566
1631	0.8754
1622	0.8671
1613	0.8614
1604	0.8593
1595	0.8552
1586	0.8637
1577	0.8777
1568	0.8865
1559	0.8873
1550	0.8733
1541	0.8583
1532	0.8448
1523	0.8421
1514	0.8507
1505	0.8464
1496	0.8266
1487	0.7783
1478	0.4749
1469	0.2314
1460	0.3803
1451	0.5262
1442	0.4837
1433	0.6301
1424	0.7683
1415	0.756
1406	0.6074
1397	0.4246
1388	0.4848
1379	0.4023
1370	0.4179
1361	0.563
1352	0.5179
1343	0.713
1334	0.6569
1325	0.6647
1316	0.4975
1307	0.5201
1298	0.5715
1289	0.3879
1280	0.2787
1271	0.0165
1262	0.0138
1253	0.0052
1244	0.0333
1235	0.339
1226	0.5515
1217	0.6982
1208	0.715
1199	0.6708
1190	0.7778
1181	0.7665
1172	0.7676
1163	0.7612
1154	0.8058
1145	0.7498
1136	0.7093
1127	0.7621
1118	0.7718
1109	0.7699
1100	0.8175
1091	0.7628
1082	0.8158
1073	0.8207
1064	0.7956
1055	0.7036
1046	0.6052
1037	0.6947
1028	0.6553
1019	0.6884
1010	0.6326
1001	0.6358
992	0.5553
983	0.6022
974	0.4362
965	0.5321
956	0.454
947	0.4366
938	0.4533
929	0.6112
920	0.7896
911	0.8221
902	0.825
893	0.816
884	0.8473
875	0.872
866	0.87
857	0.8076
848	0.7924
839	0.8076
830	0.8377
821	0.8467
812	0.8292
803	0.6901
794	0.5008
785	0.8325
776	0.8825
767	0.886
758	0.8802
749	0.8595
740	0.8608
731	0.8809
722	0.893
713	0.8909
704	0.8756
695	0.8844
686	0.8878
677	0.8935
668	0.8933
659	0.878
650	0.8764
641	0.8764
632	0.8707
623	0.8783
614	0.8709
605	0.8456
596	0.825
587	0.8765
578	0.8839
569	0.8809
560	0.8799
551	0.8834
542	0.8823
533	0.8807
524	0.879
515	0.8742
506	0.8648
497	0.8503
488	0.8355
479	0.8337
470	0.8259
461	0.8292
452	0.8424
443	0.8538
434	0.8593
425	0.8844
416	0.8932
407	0.8931
