Infrared Spectrum: 2-Propyltetrahydropyran
Formula: C 8 H 16 O
CAS: 3857-17-8
State: gas
Instrument: HP-GC/MS/IRD
Origin: NIST Mass Spectrometry Data Center
1/CM	ABSORBANCE
550	0.0002156
562	0.0001225
574	0.0001666
586	0.0002793
598	0.0002107
610	0.0001225
622	0.0001225
634	0.0001519
646	6.86e-05
658	6.37e-05
670	5.39e-05
682	3.92e-05
694	0.0001127
706	0.0001764
718	0.0001764
730	0.000196
742	0.0004018
754	0.0003773
766	0.0004067
778	0.0005292
790	0.0008771
802	0.0011662
814	0.0009261
826	0.0008869
838	0.0012691
850	0.0016513
862	0.0019453
874	0.0018914
886	0.0016954
898	0.0016562
910	0.0022246
922	0.0018816
934	0.001029
946	0.000686
958	0.0009163
970	0.0013328
982	0.0009359
994	0.0010045
1006	0.0019796
1018	0.0029645
1030	0.003381
1042	0.0058065
1054	0.0070413
1066	0.0058261
1078	0.0114709
1090	0.0200753
1102	0.014847
1114	0.0049833
1126	0.0024892
1138	0.0016611
1150	0.0012789
1162	0.0014259
1174	0.0029449
1186	0.0035868
1198	0.004312
1210	0.0044247
1222	0.0020041
1234	0.0014063
1246	0.0014406
1258	0.0020286
1270	0.0023226
1282	0.0019747
1294	0.001372
1306	0.0009604
1318	0.0009996
1330	0.0015435
1342	0.002695
1354	0.0033712
1366	0.0034545
1378	0.0036064
1390	0.0023471
1402	0.0012005
1414	0.0009898
1426	0.0016023
1438	0.0029155
1450	0.0037828
1462	0.0038122
1474	0.002695
1486	0.0012348
1498	0.0005684
1510	0.0003479
1522	0.0002793
1534	0.0002254
1546	0.0001911
1558	0.0001666
1570	0.0001274
1582	0.0001421
1594	0.0001176
1606	9.8e-05
1618	0.0001078
1630	8.33e-05
1642	0.0001078
1654	0.0001078
1666	5.39e-05
1678	8.82e-05
1690	5.88e-05
1702	7.84e-05
1714	4.9e-05
1726	3.92e-05
1738	4.41e-05
1750	5.88e-05
1762	4.9e-05
1774	9.8e-05
1786	6.86e-05
1798	6.86e-05
1810	8.82e-05
1822	9.31e-05
1834	7.84e-05
1846	0.0001078
1858	9.31e-05
1870	0.0001323
1882	0.0001519
1894	0.0001617
1906	0.0001372
1918	0.0001225
1930	0.0001127
1942	0.0001372
1954	0.0001127
1966	0.0001323
1978	0.000147
1990	0.0001519
2002	0.0001666
2014	0.0001127
2026	7.35e-05
2038	4.9e-05
2050	4.9e-05
2062	3.43e-05
2074	0
2086	2.45e-05
2098	2.45e-05
2110	4.41e-05
2122	5.88e-05
2134	7.35e-05
2146	7.84e-05
2158	0.0001029
2170	0.0001029
2182	8.33e-05
2194	6.86e-05
2206	7.84e-05
2218	5.88e-05
2230	9.31e-05
2242	8.33e-05
2254	8.33e-05
2266	7.84e-05
2278	7.35e-05
2290	4.9e-05
2302	4.9e-05
2314	4.9e-05
2326	4.41e-05
2338	3.92e-05
2350	5.88e-05
2362	5.88e-05
2374	6.86e-05
2386	9.31e-05
2398	8.33e-05
2410	6.37e-05
2422	2.45e-05
2434	3.92e-05
2446	3.92e-05
2458	7.84e-05
2470	6.37e-05
2482	6.37e-05
2494	8.82e-05
2506	0.0001176
2518	0.0001274
2530	0.0001176
2542	0.0001274
2554	0.0001372
2566	0.0002009
2578	0.0002401
2590	0.0003577
2602	0.0004459
2614	0.00049
2626	0.0005831
2638	0.0006664
2650	0.0008428
2662	0.00098
2674	0.0009604
2686	0.0008918
2698	0.0009408
2710	0.0011025
2722	0.0013034
2734	0.001568
2746	0.0016023
2758	0.0013573
2770	0.0011662
2782	0.0013622
2794	0.0018669
2806	0.0029792
2818	0.0056399
2830	0.0108927
2842	0.0164101
2854	0.0158515
2866	0.0140042
2878	0.0127645
2890	0.0105154
2902	0.0104272
2914	0.0171108
2926	0.031164
2938	0.0469371
2950	0.0407729
2962	0.0305564
2974	0.0210994
2986	0.0079478
2998	0.003185
3010	0.001911
3022	0.0014798
3034	0.001225
3046	0.001029
3058	0.0007938
3070	0.0006174
3082	0.0005929
3094	0.0005243
3106	0.0004704
3118	0.0004067
3130	0.0003479
3142	0.0003136
3154	0.0003283
3166	0.0003087
3178	0.0003332
3190	0.0003038
3202	0.0002401
3214	0.0001715
3226	0.0001421
3238	0.0001421
3250	0.0001666
3262	0.0001421
3274	0.0001323
3286	0.0001323
3298	8.82e-05
3310	5.39e-05
3322	8.82e-05
3334	6.37e-05
3346	6.86e-05
3358	4.9e-05
3370	8.82e-05
3382	0.0001323
3394	0.0001029
3406	0.0001225
3418	0.0001176
3430	0.0001274
3442	6.37e-05
3454	6.37e-05
3466	4.9e-05
3478	0.0001078
3490	6.86e-05
3502	6.37e-05
3514	4.9e-05
3526	8.82e-05
3538	8.82e-05
3550	9.8e-05
3562	1.47e-05
3574	8.82e-05
3586	8.82e-05
3598	0.0001176
3610	0.0001127
3622	7.35e-05
3634	3.43e-05
3646	9.31e-05
3658	0.0001274
3670	0.000147
3682	0.0001029
3694	0.0001323
3706	9.31e-05
3718	8.33e-05
3730	0.0001225
3742	0.0001617
3754	0.0001421
3766	0.0001764
3778	0.0001176
3790	0.0001911
3802	0.0001617
3814	0.0001666
3826	0.0001519
3838	0.0001764
