Infrared Spectrum: 1-Formyl-2-p-tolylhydrazine
Formula: C 8 H 10 N 2 O
CAS: 38577-24-1
State: gas
Origin: EPA-IR VAPOR PHASE LIBRARY
1/CM	ABSORBANCE
549.8	0.002475
559.445	0.002655
569.09	0.002445
578.734	0.002455
588.379	0.002315
598.024	0.002135
607.669	0.002095
617.313	0.001855
626.958	0.001935
636.603	0.001795
646.248	0.002015
655.893	0.001585
665.537	0.001495
675.182	0.001475
684.827	0.0012044
694.472	0.0012292
704.116	0.0011228
713.761	0.0013251
723.406	0.0012419
733.051	0.0011959
742.695	0.0012502
752.34	0.001405
761.985	0.001375
771.63	0.001525
781.275	0.001775
790.919	0.002245
800.564	0.003755
810.209	0.004445
819.854	0.003865
829.498	0.002525
839.143	0.001765
848.788	0.001395
858.433	0.001385
868.078	0.001395
877.722	0.001465
887.367	0.001375
897.012	0.001333
906.657	0.0012149
916.301	0.0011828
925.946	0.000941
935.591	0.0010799
945.236	0.001097
954.88	0.0010519
964.525	0.0011061
974.17	0.0013172
983.815	0.001565
993.46	0.001475
1003.1	0.001585
1012.75	0.002015
1022.39	0.002325
1032.04	0.002245
1041.68	0.001815
1051.33	0.002105
1060.97	0.002235
1070.62	0.001705
1080.26	0.001535
1089.91	0.000961
1099.55	0.0010683
1109.2	0.001435
1118.84	0.001445
1128.49	0.0012602
1138.13	0.0011397
1147.78	0.0013414
1157.42	0.001475
1167.07	0.002005
1176.71	0.002745
1186.36	0.003405
1196	0.003905
1205.64	0.004025
1215.29	0.005105
1224.93	0.005545
1234.58	0.003635
1244.22	0.002015
1253.87	0.001815
1263.51	0.002085
1273.16	0.001735
1282.8	0.001525
1292.45	0.0011551
1302.09	0.0010457
1311.74	0.0009637
1321.38	0.0008259
1331.03	0.0007458
1340.67	0.0007776
1350.32	0.0007383
1359.96	0.0007863
1369.61	0.0010423
1379.25	0.0010833
1388.9	0.0011932
1398.54	0.0013538
1408.18	0.001645
1417.83	0.002125
1427.47	0.002715
1437.12	0.002985
1446.76	0.002565
1456.41	0.002055
1466.05	0.001885
1475.7	0.001975
1485.34	0.002085
1494.99	0.003145
1504.63	0.007065
1514.28	0.009645
1523.92	0.005405
1533.57	0.001875
1543.21	0.0012213
1552.86	0.000927
1562.5	0.0008896
1572.15	0.0008208
1581.79	0.0008613
1591.44	0.0011577
1601.08	0.001635
1610.73	0.002395
1620.37	0.002435
1630.01	0.001575
1639.66	0.0009721
1649.3	0.0008252
1658.95	0.0008598
1668.59	0.0010339
1678.24	0.001465
1687.88	0.002235
1697.53	0.003185
1707.17	0.004275
1716.82	0.007525
1726.46	0.014345
1736.11	0.026045
1745.75	0.024275
1755.4	0.009265
1765.04	0.005375
1774.69	0.003345
1784.33	0.001935
1793.98	0.001385
1803.62	0.0009944
1813.27	0.0008372
1822.91	0.0006786
1832.55	0.0006187
1842.2	0.0006566
1851.84	0.0007309
1861.49	0.0008593
1871.13	0.0007928
1880.78	0.0007521
1890.42	0.0005754
1900.07	0.0006161
1909.71	0.0005369
1919.36	0.000486
1929	0.00045165
1938.65	0.0004684
1948.29	0.0005026
1957.94	0.00046082
1967.58	0.00046133
1977.23	0.00043895
1986.87	0.00045113
1996.52	0.00043541
2006.16	0.00041252
2015.81	0.00043253
2025.45	0.00038128
2035.1	0.000374877
2044.74	0.00038664
2054.38	0.00038898
2064.03	0.00038575
2073.67	0.00040624
2083.32	0.00039263
2092.96	0.00037909
2102.61	0.00035701
2112.25	0.00036391
2121.9	0.00042416
2131.54	0.00038891
2141.19	0.0003421
2150.83	0.00038941
2160.48	0.0002903
2170.12	0.00038705
2179.77	0.0003471
2189.41	0.000366813
2199.06	0.00036384
2208.7	0.0004249
2218.35	0.00039752
2227.99	0.00039845
2237.64	0.00038909
2247.28	0.00043941
2256.92	0.0004414
2266.57	0.0003534
2276.21	0.00041773
2285.86	0.00044449
2295.5	0.00044217
2305.15	0.0004202
2314.79	0.00036064
2324.44	0.00041205
2334.08	0.00037527
2343.73	0.00042351
2353.37	0.000362
2363.02	0.0004113
2372.66	0.00045725
2382.31	0.00035888
2391.95	0.000344
2401.6	0.000373214
2411.24	0.0003273
2420.89	0.00038032
2430.53	0.00036127
2440.18	0.00037757
2449.82	0.00045576
2459.47	0.00042563
2469.11	0.00041435
2478.75	0.000424
2488.4	0.00039959
2498.04	0.00044866
2507.69	0.000299
2517.33	0.00039471
2526.98	0.0003384
2536.62	0.000370466
2546.27	0.00039608
2555.91	0.0003115
2565.56	0.00036229
2575.2	0.0003524
2584.85	0.000364543
2594.49	0.00038188
2604.14	0.000364413
2613.78	0.00040688
2623.43	0.00038577
2633.07	0.0002763
2642.72	0.00046006
2652.36	0.0003424
2662.01	0.00043139
2671.65	0.00040685
2681.29	0.00044244
2690.94	0.0004144
2700.58	0.0003955
2710.23	0.0004782
2719.87	0.0006726
2729.52	0.000783
2739.16	0.0007378
2748.81	0.0005815
2758.45	0.0004958
2768.1	0.0004883
2777.74	0.00039695
2787.39	0.0005469
2797.03	0.0006982
2806.68	0.0008367
2816.32	0.0009674
2825.97	0.001465
2835.61	0.002515
2845.26	0.004125
2854.9	0.004415
2864.55	0.003625
2874.19	0.003015
2883.84	0.002365
2893.48	0.001755
2903.12	0.001435
2912.77	0.001445
2922.41	0.002085
2932.06	0.002805
2941.7	0.002255
2951.35	0.001385
2960.99	0.0010168
2970.64	0.0008931
2980.28	0.0010949
2989.93	0.001435
2999.57	0.001675
3009.22	0.001795
3018.86	0.002275
3028.51	0.002945
3038.15	0.002675
3047.8	0.002215
3057.44	0.001865
3067.09	0.001465
3076.73	0.0011355
3086.38	0.0008541
3096.02	0.0007723
3105.67	0.000696
3115.31	0.0006255
3124.95	0.00042895
3134.6	0.00045802
3144.24	0.00042492
3153.89	0.0002772
3163.53	0.00035737
3173.18	0.0002797
3182.82	0.000255
3192.47	0.0003431
3202.11	0.000205
3211.76	0.0003069
3221.4	0.0003213
3231.05	0.0003296
3240.69	0.0002918
3250.34	0.00040121
3259.98	0.0003396
3269.63	0.0003076
3279.27	0.000249
3288.92	0.000246
3298.56	0.00046203
3308.21	0.0003393
3317.85	0.00044475
3327.49	0.0007441
3337.14	0.0010609
3346.78	0.0011844
3356.43	0.001375
3366.07	0.0011862
3375.72	0.001092
3385.36	0.0011204
3395.01	0.0009904
3404.65	0.0009184
3414.3	0.0007685
3423.94	0.0009206
3433.59	0.0011757
3443.23	0.0011355
3452.88	0.0011021
3462.52	0.0008151
3472.17	0.0006223
3481.81	0.0005827
3491.46	0.00045652
3501.1	0.0003465
3510.75	0.0003141
3520.39	0.000214
3530.04	0.0002728
3539.68	0.0003034
3549.32	0.000194
3558.97	0.0003499
3568.61	0.000372127
3578.26	0.00038012
3587.9	0.000238
3597.55	0.000153
3607.19	0.0002832
3616.84	0.0002835
3626.48	0.0003169
3636.13	0.00037995
3645.77	0.000222
3655.42	0.000172
3665.06	0.000253
3674.71	0.000157
3684.35	0.000258
3694	0.0002823
3703.64	0.000165
3713.29	0.00037531
3722.93	0.0003424
3732.58	0.0003064
3742.22	0.0002989
3751.86	0.00037895
3761.51	0.000246
3771.15	0.000182
3780.8	0.000251
3790.44	0.000252
3800.09	0.00036133
3809.73	0.0003145
3819.38	0.0003129
3829.02	0.0003064
3838.67	0.0002718
3848.31	0.0002994
3857.96	0.0003021
3867.6	0.000333
3877.25	0.00042434
3886.89	0.000257
3896.54	0.000249
3906.18	0.000368488
3915.83	0.00038086
3925.47	0.000364663
3935.12	0.0003042
3944.76	0.0003016
3954.41	6.1e-05
3964.05	0.0003269
3973.69	0.0003116
3983.34	0.00034
3992.98	0.000142
