Infrared Spectrum: n-BUTYLAMINE HYDROCHLORIDE
Formula: C4 H11 N  * H Cl
CAS: 3858-78-4
State: SOLID (MINERAL OIL MULL)
Melting point: 18-19 C
Class: COBLENTZ
Instrument: Not specified, most likely a prism, grating, or hybrid spectrometer.
Sampling: TRANSMISSION
Resolution: 4
Origin: WYANDOTTE CHEMICALS CORP., WYANDOTTE, MICHIGAN, USA
MICROMETERS	TRANSMITTANCE
2.025	0.984
2.06213	0.961
2.09927	0.937
2.1364	0.937
2.17353	0.916
2.21067	0.863
2.2478	0.826
2.28493	0.829
2.32207	0.835
2.3592	0.843
2.39633	0.866
2.43347	0.892
2.4706	0.913
2.50773	0.917
2.54487	0.937
2.582	0.939
2.61913	0.925
2.65627	0.917
2.6934	0.885
2.73053	0.809
2.76767	0.695
2.8048	0.571
2.84193	0.473
2.87907	0.405
2.9162	0.354
2.95333	0.336
2.99047	0.326
3.0276	0.29
3.06473	0.18
3.10186	0.082
3.139	0.057
3.17613	0.046
3.21326	0.045
3.2504	0.037
3.28753	0.034
3.32466	0.035
3.3618	0.038
3.39893	0.032
3.43606	0.031
3.4732	0.032
3.51033	0.034
3.54746	0.035
3.5846	0.035
3.62173	0.035
3.65886	0.045
3.696	0.06
3.73313	0.069
3.77026	0.063
3.8074	0.062
3.84453	0.096
3.88166	0.147
3.9188	0.169
3.95593	0.136
3.99306	0.116
4.0302	0.161
4.06733	0.31
4.10446	0.383
4.1416	0.368
4.17873	0.36
4.21586	0.416
4.253	0.515
4.29013	0.565
4.32726	0.613
4.3644	0.666
4.40153	0.722
4.43866	0.737
4.4758	0.754
4.51293	0.771
4.55006	0.79
4.5872	0.787
4.62433	0.776
4.66146	0.784
4.6986	0.798
4.73573	0.798
4.77286	0.726
4.81	0.619
4.84713	0.512
4.88426	0.406
4.9214	0.322
4.95853	0.296
4.99566	0.301
5.0328	0.327
5.06993	0.355
5.10706	0.392
5.1442	0.42
5.18133	0.442
5.21846	0.478
5.25559	0.532
5.29273	0.6
5.32986	0.619
5.36699	0.644
5.40413	0.647
5.44126	0.644
5.47839	0.652
5.51553	0.658
5.55266	0.669
5.58979	0.681
5.62693	0.687
5.66406	0.681
5.70119	0.658
5.73833	0.638
5.77546	0.638
5.81259	0.607
5.84973	0.597
5.88686	0.58
5.92399	0.548
5.96113	0.472
5.99826	0.378
6.03539	0.29
6.07253	0.225
6.10966	0.152
6.14679	0.085
6.18393	0.06
6.22106	0.062
6.25819	0.071
6.29533	0.108
6.33246	0.152
6.36959	0.186
6.40673	0.209
6.44386	0.211
6.48099	0.178
6.51813	0.119
6.55526	0.088
6.59239	0.074
6.62953	0.074
6.66666	0.082
6.70379	0.077
6.74093	0.049
6.77806	0.041
6.81519	0.048
6.85233	0.059
6.88946	0.082
6.92659	0.141
6.96373	0.26
7.00086	0.338
7.03799	0.369
7.07513	0.333
7.11226	0.203
7.14939	0.161
7.18653	0.228
7.22366	0.136
7.26079	0.128
7.29792	0.248
7.33506	0.299
7.37219	0.369
7.40932	0.377
7.44646	0.341
7.48359	0.344
7.52072	0.394
7.55786	0.427
7.59499	0.408
7.63212	0.366
7.66926	0.394
7.70639	0.4
7.74352	0.352
7.78066	0.36
7.81779	0.427
7.85492	0.381
7.89206	0.366
7.92919	0.445
7.96632	0.5
8.00346	0.546
8.04059	0.582
8.07772	0.596
8.11486	0.591
8.15199	0.585
8.18912	0.586
8.22626	0.58
8.26339	0.566
8.30052	0.551
8.33766	0.501
8.37479	0.42
8.41192	0.335
8.44906	0.277
8.48619	0.208
8.52332	0.177
8.56046	0.155
8.59759	0.149
8.63472	0.166
8.67186	0.263
8.70899	0.414
8.74612	0.534
8.78326	0.588
8.82039	0.611
8.85752	0.627
8.89466	0.649
8.93179	0.644
8.96892	0.652
9.00606	0.65
9.04319	0.644
9.08032	0.619
9.11746	0.596
9.15459	0.565
9.19172	0.493
9.22886	0.4
9.26599	0.307
9.30312	0.291
9.34026	0.381
9.37739	0.442
9.41452	0.444
9.45165	0.419
9.48879	0.371
9.52592	0.307
9.56305	0.254
9.60019	0.228
9.63732	0.234
9.67445	0.228
9.71159	0.183
9.74872	0.166
9.78585	0.173
9.82299	0.187
9.86012	0.198
9.89725	0.26
9.93439	0.349
9.97152	0.454
10.0087	0.512
10.0458	0.538
10.0829	0.566
10.1201	0.579
10.1572	0.588
10.1943	0.597
10.2315	0.597
10.2686	0.591
10.3057	0.583
10.3429	0.588
10.38	0.582
10.4171	0.585
10.4543	0.577
10.4914	0.562
10.5285	0.535
10.5657	0.507
10.6028	0.473
10.6399	0.448
10.6771	0.409
10.7142	0.349
10.7513	0.301
10.7885	0.253
10.8256	0.237
10.8627	0.218
10.8999	0.178
10.937	0.121
10.9741	0.116
11.0113	0.152
11.0484	0.215
11.0855	0.295
11.1227	0.357
11.1598	0.397
11.1969	0.375
11.2341	0.333
11.2712	0.369
11.3083	0.464
11.3455	0.521
11.3826	0.551
11.4197	0.562
11.4569	0.541
11.494	0.51
11.5311	0.49
11.5683	0.503
11.6054	0.56
11.6425	0.607
11.6797	0.638
11.7168	0.659
11.7539	0.675
11.7911	0.684
11.8282	0.684
11.8653	0.689
11.9025	0.69
11.9396	0.698
11.9767	0.7
12.0139	0.709
12.051	0.72
12.0881	0.718
12.1253	0.714
12.1624	0.718
12.1995	0.715
12.2367	0.712
12.2738	0.697
12.3109	0.677
12.3481	0.65
12.3852	0.638
12.4223	0.605
12.4595	0.586
12.4966	0.546
12.5337	0.495
12.5708	0.456
12.608	0.445
12.6451	0.454
12.6822	0.453
12.7194	0.45
12.7565	0.461
12.7936	0.503
12.8308	0.546
12.8679	0.59
12.905	0.607
12.9422	0.618
12.9793	0.627
13.0164	0.627
13.0536	0.628
13.0907	0.618
13.1278	0.597
13.165	0.568
13.2021	0.517
13.2392	0.464
13.2764	0.427
13.3135	0.388
13.3506	0.364
13.3878	0.332
13.4249	0.277
13.462	0.245
13.4992	0.223
13.5363	0.226
13.5734	0.263
13.6106	0.327
13.6477	0.394
13.6848	0.458
13.722	0.507
13.7591	0.54
13.7962	0.56
13.8334	0.572
13.8705	0.585
13.9076	0.588
13.9448	0.611
13.9819	0.621
14.019	0.638
14.0562	0.647
14.0933	0.656
14.1304	0.659
14.1676	0.664
14.2047	0.663
14.2418	0.669
14.279	0.672
14.3161	0.677
14.3532	0.68
14.3904	0.68
14.4275	0.686
14.4646	0.686
14.5018	0.686
14.5389	0.68
14.576	0.678
14.6132	0.681
14.6503	0.678
14.6874	0.678
14.7246	0.68
14.7617	0.677
14.7988	0.658
14.836	0.667
14.8731	0.661
14.9102	0.664
14.9474	0.666
14.9845	0.661
15.0216	0.636
15.0588	0.619
15.0959	0.613
15.133	0.613
15.1702	0.628
15.2073	0.641
15.2444	0.638
15.2816	0.636
15.3187	0.636
15.3558	0.63
15.393	0.619
15.4301	0.616
15.4672	0.624
15.5044	0.616
15.5415	0.611
15.5786	0.605
15.6158	0.604
15.6529	0.604
15.69	0.599
15.7272	0.594
15.7643	0.588
15.8014	0.582
15.8386	0.579
15.8757	0.566
15.9128	0.565
15.95	0.568
15.9871	0.559
