Infrared Spectrum: 3-Amino-2-nitrobenzotrifluoride
Formula: C 7 H 5 F 3 N 2 O 2
CAS: 386-71-0
State: gas
Origin: EPA-IR VAPOR PHASE LIBRARY
1/CM	ABSORBANCE
549.8	0.014079
559.445	0.013369
569.09	0.014639
578.734	0.013509
588.379	0.011559
598.024	0.012009
607.669	0.010509
617.313	0.010289
626.958	0.011569
636.603	0.010949
646.248	0.012169
655.893	0.011579
665.537	0.011949
675.182	0.013389
684.827	0.024309
694.472	0.026589
704.116	0.017849
713.761	0.018449
723.406	0.017229
733.051	0.016879
742.695	0.019249
752.34	0.030069
761.985	0.031899
771.63	0.018669
781.275	0.018219
790.919	0.031079
800.564	0.031969
810.209	0.017779
819.854	0.013429
829.498	0.013039
839.143	0.019649
848.788	0.029009
858.433	0.023289
868.078	0.011719
877.722	0.009479
887.367	0.008969
897.012	0.010029
906.657	0.014279
916.301	0.025659
925.946	0.029339
935.591	0.014279
945.236	0.006719
954.88	0.005109
964.525	0.004849
974.17	0.005139
983.815	0.004419
993.46	0.005549
1003.1	0.005399
1012.75	0.005389
1022.39	0.005289
1032.04	0.009069
1041.68	0.017409
1051.33	0.019609
1060.97	0.009739
1070.62	0.007549
1080.26	0.013319
1089.91	0.026859
1099.55	0.041279
1109.2	0.035409
1118.84	0.026489
1128.49	0.028329
1138.13	0.036259
1147.78	0.068169
1157.42	0.143129
1167.07	0.226089
1176.71	0.223999
1186.36	0.153019
1196	0.093059
1205.64	0.081029
1215.29	0.050689
1224.93	0.024809
1234.58	0.016939
1244.22	0.015809
1253.87	0.015349
1263.51	0.018019
1273.16	0.021409
1282.8	0.032899
1292.45	0.078429
1302.09	0.144309
1311.74	0.139019
1321.38	0.103519
1331.03	0.115769
1340.67	0.129609
1350.32	0.114169
1359.96	0.085799
1369.61	0.040469
1379.25	0.016139
1388.9	0.011249
1398.54	0.009779
1408.18	0.008769
1417.83	0.008499
1427.47	0.008949
1437.12	0.010939
1446.76	0.016729
1456.41	0.034229
1466.05	0.061319
1475.7	0.057979
1485.34	0.035779
1494.99	0.026009
1504.63	0.026969
1514.28	0.033959
1523.92	0.051979
1533.57	0.096449
1543.21	0.146469
1552.86	0.121769
1562.5	0.066559
1572.15	0.040759
1581.79	0.033149
1591.44	0.036719
1601.08	0.044019
1610.73	0.048549
1620.37	0.065159
1630.01	0.073539
1639.66	0.043439
1649.3	0.021139
1658.95	0.012619
1668.59	0.009159
1678.24	0.007029
1687.88	0.005919
1697.53	0.004429
1707.17	0.004089
1716.82	0.003359
1726.46	0.003399
1736.11	0.003289
1745.75	0.003209
1755.4	0.003469
1765.04	0.004019
1774.69	0.003679
1784.33	0.002979
1793.98	0.002989
1803.62	0.002779
1813.27	0.002889
1822.91	0.002849
1832.55	0.003019
1842.2	0.003379
1851.84	0.003689
1861.49	0.002879
1871.13	0.002189
1880.78	0.002309
1890.42	0.002019
1900.07	0.002069
1909.71	0.002529
1919.36	0.002909
1929	0.003519
1938.65	0.003479
1948.29	0.002479
1957.94	0.0014704
1967.58	0.001869
1977.23	0.0015584
1986.87	0.0013359
1996.52	0.0011293
2006.16	0.0014555
2015.81	0.0013987
2025.45	0.0014596
2035.1	0.0013867
2044.74	0.0014257
2054.38	0.0015763
2064.03	0.0017218
2073.67	0.001899
2083.32	0.002099
2092.96	0.002029
2102.61	0.0015483
2112.25	0.0015015
2121.9	0.0013768
2131.54	0.0011576
2141.19	0.0014625
2150.83	0.0010473
2160.48	0.0011114
2170.12	0.0012087
2179.77	0.0013189
2189.41	0.0014656
2199.06	0.001586
2208.7	0.0014776
2218.35	0.001637
2227.99	0.0015272
2237.64	0.0013104
2247.28	0.0014291
2256.92	0.00166
2266.57	0.0015856
2276.21	0.0014973
2285.86	0.0012936
2295.5	0.0014973
2305.15	0.0014625
2314.79	0.001789
2324.44	0.0015579
2334.08	0.0016185
2343.73	0.0016556
2353.37	0.0014159
2363.02	0.001749
2372.66	0.0013879
2382.31	0.001859
2391.95	0.001869
2401.6	0.0016834
2411.24	0.0011849
2420.89	0.0013024
2430.53	0.0011277
2440.18	0.000931
2449.82	0.0010932
2459.47	0.0008599
2469.11	0.0010291
2478.75	0.0008825
2488.4	0.0008849
2498.04	0.0012066
2507.69	0.0011561
2517.33	0.0009808
2526.98	0.0007001
2536.62	0.0014105
2546.27	0.00079336
2555.91	0.0010662
2565.56	0.0008954
2575.2	0.00076974
2584.85	0.000607
2594.49	0.0012354
2604.14	0.0013016
2613.78	0.0010549
2623.43	0.0016403
2633.07	0.0012605
2642.72	0.0016065
2652.36	0.0012265
2662.01	0.0011182
2671.65	0.0015048
2681.29	0.0006398
2690.94	0.0013601
2700.58	0.0010218
2710.23	0.0011553
2719.87	0.0012346
2729.52	0.00082997
2739.16	0.00052
2748.81	0.000915
2758.45	0.0008777
2768.1	0.0008302
2777.74	0.000515
2787.39	0.00077226
2797.03	0.0009442
2806.68	0.000557
2816.32	0.0007287
2825.97	0.0013014
2835.61	0.0009581
2845.26	0.0015631
2854.9	0.0010449
2864.55	0.0016764
2874.19	0.002279
2883.84	0.002689
2893.48	0.002759
2903.12	0.002349
2912.77	0.0015107
2922.41	0.001849
2932.06	0.0012489
2941.7	0.0013684
2951.35	0.0010328
2960.99	0.0011559
2970.64	0.00072957
2980.28	0.00048
2989.93	0.0010366
2999.57	0.0011648
3009.22	0.001225
3018.86	0.0013373
3028.51	0.003249
3038.15	0.004409
3047.8	0.004099
3057.44	0.003919
3067.09	0.005989
3076.73	0.005039
3086.38	0.003799
3096.02	0.002829
3105.67	0.002639
3115.31	0.002079
3124.95	0.0013515
3134.6	0.00076559
3144.24	0.000698
3153.89	0.0010294
3163.53	0.000543
3173.18	0.0010012
3182.82	0.00082376
3192.47	0.0016245
3202.11	0.0011181
3211.76	0.0016202
3221.4	0.002159
3231.05	0.001919
3240.69	0.001789
3250.34	0.00123
3259.98	0.0009906
3269.63	0.000381
3279.27	0.0009649
3288.92	0.0010642
3298.56	0.000147
3308.21	0.0008554
3317.85	0.0010194
3327.49	0.000447
3337.14	0.0013712
3346.78	0.000609
3356.43	0.0012448
3366.07	0.001889
3375.72	0.002559
3385.36	0.003319
3395.01	0.005789
3404.65	0.015059
3414.3	0.030229
3423.94	0.027839
3433.59	0.009939
3443.23	0.003629
3452.88	0.002739
3462.52	0.002339
3472.17	0.002399
3481.81	0.004229
3491.46	0.006979
3501.1	0.011619
3510.75	0.019889
3520.39	0.022199
3530.04	0.012489
3539.68	0.005329
3549.32	0.002529
3558.97	0.002539
3568.61	0.001525
3578.26	0.001779
3587.9	0.0014478
3597.55	0.0012253
3607.19	0.00073679
3616.84	0.0008133
3626.48	0.0011382
3636.13	0.0013827
3645.77	0.001071
3655.42	0.000464
3665.06	0.0011004
3674.71	0.000526
3684.35	0.0011225
3694	0.00076027
3703.64	0.001245
3713.29	0.000349
3722.93	0.00075773
3732.58	0.0014693
3742.22	0.00079073
3751.86	0.001809
3761.51	0.0009373
3771.15	0.0013244
3780.8	0.0015075
3790.44	0.001245
3800.09	0.00073653
3809.73	0.0010847
3819.38	0.0011427
3829.02	0.000535
3838.67	0.000538
3848.31	0.0014416
3857.96	0.00076806
3867.6	0.0011375
3877.25	0.0013416
3886.89	0.0014975
3896.54	0.0016026
3906.18	0.0006639
3915.83	0.0010795
3925.47	0.000459
3935.12	0.0010964
3944.76	0.0014032
3954.41	0.0014303
3964.05	0.0007215
3973.69	0.000507
3983.34	0.0009915
3992.98	0.000516
