Infrared Spectrum: GLUTARIC ANHYDRIDE,2-ACETAMIDO
Formula: C7 H9 N O4
CAS: 38628-68-1
State: SOLID (NUJOL MULL)
Melting point: 118-121 C
Class: COBLENTZ III
Instrument: PERKIN-ELMER 421 (GRATING)
Instrument parameters: GRATING CHANGE AT 1999 CM^-^1
Resolution: 2
Origin: ABBOTT LABORATORIES
1/CM	TRANSMITTANCE
650	0.6864
659	0.6244
668	0.6775
677	0.7256
686	0.7083
695	0.6802
704	0.6729
713	0.6944
722	0.7747
731	0.8233
740	0.8418
749	0.8401
758	0.8033
767	0.8838
776	0.8931
785	0.8949
794	0.8954
803	0.8944
812	0.893
821	0.8907
830	0.8879
839	0.8828
848	0.8781
857	0.8679
866	0.8421
875	0.8757
884	0.8766
893	0.8707
902	0.8611
911	0.8352
920	0.6123
929	0.8218
938	0.7964
947	0.6157
956	0.6385
965	0.5524
974	0.3369
983	0.6727
992	0.6952
1001	0.6009
1010	0.538
1019	0.3372
1028	0.2613
1037	0.2812
1046	0.514
1055	0.434
1064	0.2557
1073	0.3957
1082	0.4468
1091	0.6378
1100	0.7433
1109	0.7881
1118	0.8091
1127	0.7918
1136	0.7401
1145	0.6045
1154	0.8123
1163	0.809
1172	0.8302
1181	0.8282
1190	0.7847
1199	0.6563
1208	0.7012
1217	0.796
1226	0.7908
1235	0.709
1244	0.6124
1253	0.7661
1262	0.7456
1271	0.673
1280	0.6718
1289	0.7023
1298	0.7128
1307	0.6491
1316	0.4995
1325	0.6365
1334	0.7368
1343	0.7224
1352	0.6601
1361	0.5099
1370	0.3262
1379	0.5532
1388	0.7641
1397	0.7173
1406	0.6947
1415	0.732
1424	0.6566
1433	0.5351
1442	0.4458
1451	0.3485
1460	0.3146
1469	0.6832
1478	0.769
1487	0.7883
1496	0.7685
1505	0.7561
1514	0.6794
1523	0.5946
1532	0.5166
1541	0.3429
1550	0.5091
1559	0.5508
1568	0.7224
1577	0.7704
1586	0.775
1595	0.7227
1604	0.6301
1613	0.5769
1622	0.5484
1631	0.4163
1640	0.2859
1649	0.1976
1658	0.3724
1667	0.5942
1676	0.6959
1685	0.7932
1694	0.816
1703	0.8154
1712	0.8063
1721	0.7735
1730	0.7062
1739	0.6759
1748	0.6288
1757	0.3844
1766	0.1589
1775	0.2029
1784	0.4699
1793	0.4584
1802	0.3746
1811	0.4078
1820	0.7227
1829	0.8056
1838	0.8339
1847	0.8676
1856	0.8948
1865	0.9029
1874	0.9187
1883	0.9209
1892	0.9202
1901	0.9259
1910	0.9329
1919	0.931
1928	0.9372
1937	0.9273
1946	0.9273
1955	0.931
1964	0.9329
1973	0.933
1982	0.9283
1991	0.8774
2000	0.913
2009	0.9156
2018	0.9165
2027	0.9169
2036	0.917
2045	0.9164
2054	0.9163
2063	0.918
2072	0.9214
2081	0.9252
2090	0.9264
2099	0.9252
2108	0.9238
2117	0.9221
2126	0.9196
2135	0.9165
2144	0.9145
2153	0.9137
2162	0.9141
2171	0.9149
2180	0.914
2189	0.9133
2198	0.9127
2207	0.9107
2216	0.9063
2225	0.9034
2234	0.9062
2243	0.9095
2252	0.909
2261	0.9089
2270	0.9092
2279	0.9097
2288	0.9103
2297	0.9106
2306	0.9109
2315	0.9112
2324	0.9112
2333	0.9111
2342	0.9099
2351	0.908
2360	0.9062
2369	0.9033
2378	0.898
2387	0.905
2396	0.9047
2405	0.8987
2414	0.901
2423	0.9034
2432	0.9051
2441	0.9058
2450	0.9065
2459	0.9075
2468	0.905
2477	0.899
2486	0.8882
2495	0.8845
2504	0.883
2513	0.8827
2522	0.8827
2531	0.8821
2540	0.8801
2549	0.8761
2558	0.8724
2567	0.8688
2576	0.866
2585	0.8631
2594	0.8616
2603	0.8604
2612	0.8599
2621	0.8588
2630	0.8576
2639	0.8565
2648	0.8509
2657	0.8446
2666	0.8442
2675	0.8461
2684	0.849
2693	0.8513
2702	0.8473
2711	0.8393
2720	0.8406
2729	0.847
2738	0.853
2747	0.8496
2756	0.8449
2765	0.8342
2774	0.8177
2783	0.8004
2792	0.775
2801	0.7304
2810	0.6844
2819	0.6267
2828	0.5281
2837	0.265
2846	0.1218
2855	0.1002
2864	0.1537
2873	0.2225
2882	0.217
2891	0.1476
2900	0.0733
2909	0.0373
2918	0.0198
2927	0.0301
2936	0.0652
2945	0.0707
2954	0.084
2963	0.236
2972	0.3959
2981	0.5368
2990	0.6162
2999	0.665
3008	0.7392
3017	0.7466
3026	0.75
3035	0.7411
3044	0.7199
3053	0.6889
3062	0.6573
3071	0.6609
3080	0.7298
3089	0.762
3098	0.7743
3107	0.7808
3116	0.7937
3125	0.794
3134	0.7931
3143	0.7917
3152	0.7893
3161	0.7782
3170	0.7627
3179	0.7458
3188	0.715
3197	0.6867
3206	0.6674
3215	0.6701
3224	0.6731
3233	0.652
3242	0.6032
3251	0.5294
3260	0.4231
3269	0.3685
3278	0.3279
3287	0.3937
3296	0.482
3305	0.558
3314	0.6284
3323	0.7174
3332	0.7553
3341	0.7917
3350	0.8172
3359	0.835
3368	0.8482
3377	0.8587
3386	0.8645
3395	0.8671
3404	0.8672
3413	0.8686
3422	0.8765
3431	0.8794
3440	0.8796
3449	0.8799
3458	0.8818
3467	0.8818
3476	0.8811
3485	0.8803
3494	0.8794
3503	0.8787
3512	0.8779
3521	0.877
3530	0.8747
3539	0.8725
3548	0.8719
3557	0.8731
3566	0.8756
3575	0.8778
3584	0.8794
3593	0.8811
3602	0.8829
3611	0.8844
3620	0.8857
3629	0.8852
3638	0.8838
3647	0.8828
3656	0.8825
3665	0.8822
3674	0.8828
3683	0.884
3692	0.8849
3701	0.8859
3710	0.8871
3719	0.887
3728	0.8865
3737	0.8855
3746	0.8842
3755	0.883
3764	0.8817
3773	0.8804
3782	0.8796
3791	0.8788
3800	0.8779
3809	0.8769
3818	0.8759
3827	0.8757
3836	0.8755
3845	0.8754
3854	0.8748
3863	0.8742
3872	0.8735
3881	0.8728
3890	0.8721
3899	0.8714
3908	0.8707
3917	0.8702
3926	0.8701
3935	0.8699
3944	0.8698
3953	0.8697
3962	0.8697
3971	0.8695
3980	0.8683
3989	0.8681
3998	0.868
