Infrared Spectrum: 3,4-Difluoroaniline
Formula: C 6 H 5 F 2 N
CAS: 3863-11-4
State: gas
Origin: EPA-IR VAPOR PHASE LIBRARY
1/CM	ABSORBANCE
549.8	0.007681
559.445	0.008971
569.09	0.011791
578.734	0.014711
588.379	0.017271
598.024	0.017771
607.669	0.018831
617.313	0.012761
626.958	0.011681
636.603	0.014831
646.248	0.022551
655.893	0.033671
665.537	0.037431
675.182	0.029871
684.827	0.020221
694.472	0.015361
704.116	0.013591
713.761	0.013041
723.406	0.013651
733.051	0.014161
742.695	0.014241
752.34	0.013841
761.985	0.019411
771.63	0.039791
781.275	0.047061
790.919	0.040231
800.564	0.037431
810.209	0.023881
819.854	0.017611
829.498	0.020161
839.143	0.032101
848.788	0.022991
858.433	0.014671
868.078	0.008311
877.722	0.005611
887.367	0.004951
897.012	0.004781
906.657	0.004721
916.301	0.005201
925.946	0.005291
935.591	0.007771
945.236	0.016931
954.88	0.021261
964.525	0.018751
974.17	0.006751
983.815	0.003911
993.46	0.003311
1003.1	0.002861
1012.75	0.003071
1022.39	0.003541
1032.04	0.003751
1041.68	0.004531
1051.33	0.004561
1060.97	0.005261
1070.62	0.006311
1080.26	0.008601
1089.91	0.011181
1099.55	0.012591
1109.2	0.015041
1118.84	0.016521
1128.49	0.015581
1138.13	0.011081
1147.78	0.013251
1157.42	0.029491
1167.07	0.034771
1176.71	0.026551
1186.36	0.010891
1196	0.012791
1205.64	0.041001
1215.29	0.073751
1224.93	0.070751
1234.58	0.027711
1244.22	0.010541
1253.87	0.023311
1263.51	0.045291
1273.16	0.050971
1282.8	0.030121
1292.45	0.018211
1302.09	0.017481
1311.74	0.022841
1321.38	0.025851
1331.03	0.021421
1340.67	0.008771
1350.32	0.003711
1359.96	0.003331
1369.61	0.003531
1379.25	0.003281
1388.9	0.003051
1398.54	0.003311
1408.18	0.003491
1417.83	0.004121
1427.47	0.006751
1437.12	0.014381
1446.76	0.021821
1456.41	0.020531
1466.05	0.016001
1475.7	0.011901
1485.34	0.012691
1494.99	0.024661
1504.63	0.079161
1514.28	0.185431
1523.92	0.230431
1533.57	0.157111
1543.21	0.055221
1552.86	0.023531
1562.5	0.015091
1572.15	0.012751
1581.79	0.016651
1591.44	0.024331
1601.08	0.036361
1610.73	0.049791
1620.37	0.048251
1630.01	0.043461
1639.66	0.037611
1649.3	0.028741
1658.95	0.015051
1668.59	0.008531
1678.24	0.005551
1687.88	0.003711
1697.53	0.002851
1707.17	0.002711
1716.82	0.002641
1726.46	0.002511
1736.11	0.002541
1745.75	0.002601
1755.4	0.002511
1765.04	0.002481
1774.69	0.002191
1784.33	0.002091
1793.98	0.001891
1803.62	0.001781
1813.27	0.002151
1822.91	0.002911
1832.55	0.003541
1842.2	0.003301
1851.84	0.002331
1861.49	0.001651
1871.13	0.001441
1880.78	0.001531
1890.42	0.001951
1900.07	0.002261
1909.71	0.002001
1919.36	0.001421
1929	0.0010706
1938.65	0.0011423
1948.29	0.0010922
1957.94	0.0012732
1967.58	0.0012889
1977.23	0.001361
1986.87	0.001391
1996.52	0.001391
2006.16	0.0011877
2015.81	0.0010734
2025.45	0.0011152
2035.1	0.001441
2044.74	0.001521
2054.38	0.001521
2064.03	0.001391
2073.67	0.001331
2083.32	0.0012955
2092.96	0.0012538
2102.61	0.0012018
2112.25	0.0010072
2121.9	0.0008969
2131.54	0.0007666
2141.19	0.0006814
2150.83	0.0007244
2160.48	0.0006627
2170.12	0.0007742
2179.77	0.0008204
2189.41	0.0008573
2199.06	0.0006112
2208.7	0.0005678
2218.35	0.0005679
2227.99	0.0007209
2237.64	0.0006941
2247.28	0.0008471
2256.92	0.0009303
2266.57	0.0010089
2276.21	0.001122
2285.86	0.001255
2295.5	0.001331
2305.15	0.001331
2314.79	0.0012243
2324.44	0.0012196
2334.08	0.001093
2343.73	0.0010967
2353.37	0.0009951
2363.02	0.0009566
2372.66	0.0008905
2382.31	0.0009643
2391.95	0.0008488
2401.6	0.0008729
2411.24	0.001013
2420.89	0.0009676
2430.53	0.0009256
2440.18	0.0008085
2449.82	0.0005221
2459.47	0.0006983
2469.11	0.0009284
2478.75	0.001278
2488.4	0.001213
2498.04	0.0009537
2507.69	0.0005367
2517.33	0.0005586
2526.98	0.0008345
2536.62	0.0010227
2546.27	0.0009144
2555.91	0.0008613
2565.56	0.0008951
2575.2	0.0008896
2584.85	0.0008823
2594.49	0.0008091
2604.14	0.0007686
2613.78	0.0006791
2623.43	0.0006272
2633.07	0.000425
2642.72	0.000461
2652.36	0.0004154
2662.01	0.0002875
2671.65	0.000446
2681.29	0.0004867
2690.94	0.0005345
2700.58	0.0006272
2710.23	0.0004853
2719.87	0.0006715
2729.52	0.0006606
2739.16	0.0007087
2748.81	0.0006416
2758.45	0.0006156
2768.1	0.0005311
2777.74	0.0005315
2787.39	0.0007024
2797.03	0.0005092
2806.68	0.000405
2816.32	0.0005318
2825.97	0.0005606
2835.61	0.0004929
2845.26	0.0005229
2854.9	0.0006721
2864.55	0.0004326
2874.19	0.0005206
2883.84	0.0006247
2893.48	0.0006075
2903.12	0.000721
2912.77	0.0007147
2922.41	0.0006423
2932.06	0.0005349
2941.7	0.0005517
2951.35	0.0006384
2960.99	0.000577
2970.64	0.0003989
2980.28	0.00029999
2989.93	0.0004212
2999.57	0.0005155
3009.22	0.00029773
3018.86	0.0005065
3028.51	0.002021
3038.15	0.004941
3047.8	0.007771
3057.44	0.007431
3067.09	0.004571
3076.73	0.003051
3086.38	0.001741
3096.02	0.0010584
3105.67	0.0006484
3115.31	0.000453
3124.95	0.0002432
3134.6	0.00035787
3144.24	0.00037129
3153.89	0.00031425
3163.53	4e-05
3173.18	0.000191
3182.82	9.2e-05
3192.47	0.000179
3202.11	0.0004288
3211.76	0.0007582
3221.4	0.0009154
3231.05	0.001029
3240.69	0.0010452
3250.34	0.0012592
3259.98	0.0011334
3269.63	0.0008554
3279.27	0.0004338
3288.92	0.0006056
3298.56	0.000437
3308.21	0.000155
3317.85	7.3e-05
3327.49	0.00029297
3337.14	0.0002114
3346.78	0.000107
3356.43	0.0002831
3366.07	0.0005415
3375.72	0.0009862
3385.36	0.002031
3395.01	0.004451
3404.65	0.007571
3414.3	0.008891
3423.94	0.007061
3433.59	0.003701
3443.23	0.002031
3452.88	0.001591
3462.52	0.002021
3472.17	0.003221
3481.81	0.005121
3491.46	0.006031
3501.1	0.006621
3510.75	0.004381
3520.39	0.002751
3530.04	0.0012935
3539.68	0.0007766
3549.32	0.0005492
3558.97	0.00036156
3568.61	0.00038815
3578.26	0.00017
3587.9	0.0002697
3597.55	9.7e-05
3607.19	0
3616.84	0.000194
3626.48	0.0002557
3636.13	0.00035086
3645.77	0.0005016
3655.42	0.00032294
3665.06	1.2e-05
3674.71	0.000184
3684.35	0.0002034
3694	0.0003361
3703.64	0.0002049
3713.29	0.00032468
3722.93	0.0002952
3732.58	0.00035945
3742.22	0.00036497
3751.86	0.0002037
3761.51	0.0002681
3771.15	0.00037333
3780.8	0.000178
3790.44	0.000185
3800.09	0.00038811
3809.73	0.0002014
3819.38	0.00036342
3829.02	0.00039683
3838.67	0.00036151
3848.31	0.0005444
3857.96	0.0007735
3867.6	0.0006322
3877.25	0.0004591
3886.89	0.00032235
3896.54	0.0004475
3906.18	0.0004415
3915.83	0.0004333
3925.47	0.0005124
3935.12	0.0003413
3944.76	0.00039792
3954.41	0.00032281
3964.05	0.00039859
3973.69	0.0004209
3983.34	0.000198
3992.98	0.0004702
