Infrared Spectrum: 2-Methoxyethyl isothiocyanate
Formula: C 4 H 7 N O S
CAS: 38663-85-3
State: gas
Origin: EPA-IR VAPOR PHASE LIBRARY
1/CM	ABSORBANCE
549.8	0.013218
559.445	0.012958
569.09	0.011198
578.734	0.010008
588.379	0.007918
598.024	0.006048
607.669	0.005178
617.313	0.003768
626.958	0.003348
636.603	0.003338
646.248	0.003338
655.893	0.003528
665.537	0.004278
675.182	0.004998
684.827	0.005268
694.472	0.005438
704.116	0.006348
713.761	0.006688
723.406	0.005748
733.051	0.004078
742.695	0.002678
752.34	0.001768
761.985	0.001558
771.63	0.001608
781.275	0.001818
790.919	0.001888
800.564	0.002618
810.209	0.003538
819.854	0.005318
829.498	0.006528
839.143	0.006778
848.788	0.004548
858.433	0.003608
868.078	0.002528
877.722	0.002378
887.367	0.002668
897.012	0.003268
906.657	0.004058
916.301	0.004888
925.946	0.005978
935.591	0.007148
945.236	0.007838
954.88	0.008268
964.525	0.008498
974.17	0.008158
983.815	0.008658
993.46	0.008878
1003.1	0.009998
1012.75	0.011238
1022.39	0.010788
1032.04	0.009048
1041.68	0.009088
1051.33	0.009898
1060.97	0.011898
1070.62	0.014528
1080.26	0.018878
1089.91	0.022338
1099.55	0.029268
1109.2	0.042368
1118.84	0.065778
1128.49	0.086538
1138.13	0.084928
1147.78	0.059488
1157.42	0.037388
1167.07	0.026718
1176.71	0.023368
1186.36	0.027078
1196	0.031118
1205.64	0.028438
1215.29	0.017448
1224.93	0.011498
1234.58	0.010768
1244.22	0.010698
1253.87	0.010338
1263.51	0.009738
1273.16	0.009898
1282.8	0.010278
1292.45	0.011478
1302.09	0.016128
1311.74	0.021758
1321.38	0.022648
1331.03	0.027898
1340.67	0.045108
1350.32	0.041468
1359.96	0.024398
1369.61	0.012988
1379.25	0.010948
1388.9	0.009008
1398.54	0.007068
1408.18	0.005808
1417.83	0.005988
1427.47	0.007928
1437.12	0.015528
1446.76	0.023768
1456.41	0.027888
1466.05	0.019738
1475.7	0.012548
1485.34	0.007398
1494.99	0.005128
1504.63	0.003748
1514.28	0.002858
1523.92	0.002268
1533.57	0.002068
1543.21	0.001768
1552.86	0.001618
1562.5	0.001468
1572.15	0.001458
1581.79	0.001418
1591.44	0.0012954
1601.08	0.0011623
1610.73	0.0012912
1620.37	0.0011652
1630.01	0.0011694
1639.66	0.0012167
1649.3	0.0012177
1658.95	0.0012838
1668.59	0.001245
1678.24	0.0010866
1687.88	0.0009407
1697.53	0.0010032
1707.17	0.0007047
1716.82	0.0009318
1726.46	0.0008292
1736.11	0.0008914
1745.75	0.0008311
1755.4	0.0008085
1765.04	0.000872
1774.69	0.0008147
1784.33	0.0009736
1793.98	0.001106
1803.62	0.001137
1813.27	0.0011478
1822.91	0.0013377
1832.55	0.001508
1842.2	0.001998
1851.84	0.002368
1861.49	0.002948
1871.13	0.003598
1880.78	0.004608
1890.42	0.005698
1900.07	0.007088
1909.71	0.008808
1919.36	0.010998
1929	0.013668
1938.65	0.017298
1948.29	0.022258
1957.94	0.028708
1967.58	0.037628
1977.23	0.049938
1986.87	0.067498
1996.52	0.093188
2006.16	0.128528
2015.81	0.173938
2025.45	0.227138
2035.1	0.284618
2044.74	0.339258
2054.38	0.373428
2064.03	0.373478
2073.67	0.330888
2083.32	0.257788
2092.96	0.190218
2102.61	0.141688
2112.25	0.108298
2121.9	0.086658
2131.54	0.072798
2141.19	0.063178
2150.83	0.056008
2160.48	0.050138
2170.12	0.044608
2179.77	0.040058
2189.41	0.036788
2199.06	0.035348
2208.7	0.035018
2218.35	0.034448
2227.99	0.031538
2237.64	0.025908
2247.28	0.019728
2256.92	0.014478
2266.57	0.010718
2276.21	0.008238
2285.86	0.006378
2295.5	0.005088
2305.15	0.004138
2314.79	0.003518
2324.44	0.003058
2334.08	0.002698
2343.73	0.002448
2353.37	0.002098
2363.02	0.002158
2372.66	0.001908
2382.31	0.001908
2391.95	0.001828
2401.6	0.001788
2411.24	0.001768
2420.89	0.001608
2430.53	0.001588
2440.18	0.0013607
2449.82	0.0012796
2459.47	0.001408
2469.11	0.0013
2478.75	0.0013283
2488.4	0.0013138
2498.04	0.001488
2507.69	0.001528
2517.33	0.001778
2526.98	0.001858
2536.62	0.001818
2546.27	0.001808
2555.91	0.001778
2565.56	0.002238
2575.2	0.002458
2584.85	0.002528
2594.49	0.002378
2604.14	0.002098
2613.78	0.001928
2623.43	0.001698
2633.07	0.001648
2642.72	0.001598
2652.36	0.001818
2662.01	0.001978
2671.65	0.002468
2681.29	0.003098
2690.94	0.003768
2700.58	0.004258
2710.23	0.005268
2719.87	0.006568
2729.52	0.008038
2739.16	0.009188
2748.81	0.009708
2758.45	0.009158
2768.1	0.008388
2777.74	0.008008
2787.39	0.008298
2797.03	0.009748
2806.68	0.012998
2816.32	0.018418
2825.97	0.025368
2835.61	0.029488
2845.26	0.030288
2854.9	0.030318
2864.55	0.033098
2874.19	0.037678
2883.84	0.042618
2893.48	0.044198
2903.12	0.041328
2912.77	0.038778
2922.41	0.041468
2932.06	0.050308
2941.7	0.055348
2951.35	0.052538
2960.99	0.042318
2970.64	0.032088
2980.28	0.024968
2989.93	0.022778
2999.57	0.022178
3009.22	0.017198
3018.86	0.010138
3028.51	0.007188
3038.15	0.005468
3047.8	0.004348
3057.44	0.003648
3067.09	0.003248
3076.73	0.002728
3086.38	0.002528
3096.02	0.002038
3105.67	0.001658
3115.31	0.001598
3124.95	0.001618
3134.6	0.0011251
3144.24	0.001167
3153.89	0.000919
3163.53	0.0007987
3173.18	0.0006824
3182.82	0.0006618
3192.47	0.0005555
3202.11	0.0005318
3211.76	0.0005903
3221.4	0.00041159
3231.05	0.0006266
3240.69	0.000252
3250.34	0.000174
3259.98	0.000244
3269.63	0.000388749
3279.27	0.000365
3288.92	0.0003745
3298.56	0.000205
3308.21	0.0003214
3317.85	0.000255
3327.49	0.000273
3337.14	0.00043322
3346.78	0.000246
3356.43	0.0005535
3366.07	0.0003769
3375.72	0.00047343
3385.36	0.000237
3395.01	0.0003484
3404.65	0.00047062
3414.3	0.000254
3423.94	0.00038603
3433.59	0.0003446
3443.23	0.00015
3452.88	7.4e-05
3462.52	0.0004778
3472.17	0.000125
3481.81	0.00049
3491.46	0.0003001
3501.1	0.000126
3510.75	0.0005176
3520.39	0.000198
3530.04	0.00038492
3539.68	0.00042937
3549.32	0.0003619
3558.97	0.0005583
3568.61	0.000142
3578.26	0.000212
3587.9	6.6e-05
3597.55	0.0003407
3607.19	0.0005149
3616.84	0.0002945
3626.48	1.9e-05
3636.13	0.0003536
3645.77	0.0003339
3655.42	0.000238
3665.06	0.00043574
3674.71	0.00044162
3684.35	0.0005721
3694	0.00023
3703.64	0.00044535
3713.29	0.0003382
3722.93	0.00042861
3732.58	0.0003424
3742.22	0.000501
3751.86	0.0005039
3761.51	0.0005453
3771.15	0.00048126
3780.8	0.0006802
3790.44	0.000751
3800.09	0.0006387
3809.73	0.0005239
3819.38	0.0006774
3829.02	0.0007233
3838.67	0.0006484
3848.31	0.0007592
3857.96	0.000573
3867.6	0.0007827
3877.25	0.0009458
3886.89	0.000826
3896.54	0.0011393
3906.18	0.0010252
3915.83	0.0008863
3925.47	0.0013068
3935.12	0.0012245
3944.76	0.0012075
3954.41	0.001688
3964.05	0.001648
3973.69	0.001828
3983.34	0.001828
3992.98	0.001958
