Infrared Spectrum: Alpha,Alpha'-DIACETYL-3,3'-BIS(TRIFLUOROMETHYL) GLUTARANILIDE
Formula: C23 H20 F6 N2 O4
CAS: 3870-70-0
State: SOLID (KBr PELLET)
Melting point: 145-146 C
Class: COBLENTZ
Instrument: Not specified, most likely a prism, grating, or hybrid spectrometer.
Sampling: TRANSMISSION
Resolution: 4
Origin: EASTMAN KODAK COMPANY, RESEARCH LABORATORIES, ROCHESTER, N.Y.
MICROMETERS	TRANSMITTANCE
2.027	0.856
2.06696	0.853
2.10692	0.858
2.14689	0.863
2.18685	0.858
2.22681	0.853
2.26677	0.853
2.30674	0.855
2.3467	0.856
2.38666	0.856
2.42662	0.856
2.46659	0.856
2.50655	0.856
2.54651	0.856
2.58647	0.859
2.62644	0.863
2.6664	0.863
2.70636	0.858
2.74632	0.84
2.78628	0.787
2.82625	0.744
2.86621	0.705
2.90617	0.67
2.94613	0.637
2.9861	0.492
3.02606	0.347
3.06602	0.345
3.10598	0.466
3.14595	0.586
3.18591	0.663
3.22587	0.691
3.26583	0.665
3.3058	0.726
3.34576	0.749
3.38572	0.777
3.42568	0.759
3.46565	0.82
3.50561	0.831
3.54557	0.853
3.58553	0.845
3.62549	0.856
3.66546	0.869
3.70542	0.878
3.74538	0.868
3.78534	0.876
3.82531	0.883
3.86527	0.881
3.90523	0.884
3.94519	0.883
3.98516	0.884
4.02512	0.883
4.06508	0.886
4.10504	0.884
4.14501	0.889
4.18497	0.889
4.22493	0.891
4.26489	0.911
4.30485	0.924
4.34482	0.896
4.38478	0.894
4.42474	0.892
4.4647	0.891
4.50467	0.894
4.54463	0.894
4.58459	0.894
4.62455	0.897
4.66452	0.892
4.70448	0.891
4.74444	0.886
4.7844	0.889
4.82437	0.886
4.86433	0.887
4.90429	0.899
4.94425	0.901
4.98422	0.897
5.02418	0.897
5.06414	0.891
5.1041	0.881
5.14406	0.887
5.18403	0.886
5.22399	0.891
5.26395	0.881
5.30391	0.876
5.34388	0.868
5.38384	0.868
5.4238	0.879
5.46376	0.876
5.50373	0.864
5.54369	0.848
5.58365	0.851
5.62361	0.831
5.66358	0.817
5.70354	0.78
5.7435	0.734
5.78346	0.509
5.82342	0.098
5.86339	0.077
5.90335	0.182
5.94331	0.316
5.98327	0.268
6.02324	0.194
6.0632	0.133
6.10316	0.28
6.14312	0.551
6.18309	0.535
6.22305	0.332
6.26301	0.322
6.30297	0.601
6.34294	0.53
6.3829	0.294
6.42286	0.116
6.46282	0.133
6.50279	0.169
6.54275	0.324
6.58271	0.428
6.62267	0.565
6.66263	0.589
6.7026	0.421
6.74256	0.291
6.78252	0.543
6.82248	0.658
6.86245	0.609
6.90241	0.438
6.94237	0.08
6.98233	0.233
7.0223	0.354
7.06226	0.415
7.10222	0.542
7.14218	0.629
7.18215	0.667
7.22211	0.683
7.26207	0.64
7.30203	0.558
7.34199	0.4
7.38196	0.289
7.42192	0.299
7.46188	0.181
7.50184	0.046
7.54181	0.021
7.58177	0.092
7.62173	0.192
7.66169	0.278
7.70166	0.395
7.74162	0.451
7.78158	0.469
7.82154	0.4
7.86151	0.359
7.90147	0.451
7.94143	0.504
7.98139	0.502
8.02136	0.481
8.06132	0.457
8.10128	0.438
8.14124	0.443
8.1812	0.49
8.22117	0.548
8.26113	0.515
8.30109	0.566
8.34105	0.576
8.38102	0.502
8.42098	0.395
8.46094	0.23
8.5009	0.144
8.54087	0.125
8.58083	0.098
8.62079	0.077
8.66075	0.077
8.70072	0.095
8.74068	0.133
8.78064	0.136
8.8206	0.098
8.86056	0.075
8.90053	0.057
8.94049	0.052
8.98045	0.133
9.02041	0.324
9.06038	0.423
9.10034	0.326
9.1403	0.367
9.18026	0.532
9.22023	0.583
9.26019	0.561
9.30015	0.448
9.34011	0.214
9.38008	0.271
9.42004	0.593
9.46	0.7
9.49996	0.756
9.53993	0.782
9.57989	0.771
9.61985	0.731
9.65981	0.738
9.69977	0.775
9.73974	0.8
9.7797	0.805
9.81966	0.815
9.85962	0.807
9.89959	0.813
9.93955	0.803
9.97951	0.774
10.0195	0.808
10.0594	0.833
10.0994	0.85
10.1394	0.846
10.1793	0.838
10.2193	0.828
10.2592	0.808
10.2992	0.785
10.3392	0.777
10.3791	0.774
10.4191	0.775
10.4591	0.777
10.499	0.779
10.539	0.775
10.5789	0.774
10.6189	0.777
10.6589	0.794
10.6988	0.794
10.7388	0.784
10.7788	0.759
10.8187	0.723
10.8587	0.733
10.8986	0.742
10.9386	0.736
10.9786	0.731
11.0185	0.711
11.0585	0.693
11.0985	0.658
11.1384	0.622
11.1784	0.586
11.2183	0.561
11.2583	0.563
11.2983	0.57
11.3382	0.571
11.3782	0.593
11.4182	0.65
11.4581	0.716
11.4981	0.771
11.538	0.812
11.578	0.83
11.618	0.845
11.6579	0.853
11.6979	0.843
11.7379	0.856
11.7778	0.858
11.8178	0.856
11.8577	0.856
11.8977	0.85
11.9377	0.855
11.9776	0.85
12.0176	0.845
12.0576	0.845
12.0975	0.838
12.1375	0.83
12.1774	0.833
12.2174	0.822
12.2574	0.79
12.2973	0.771
12.3373	0.713
12.3773	0.639
12.4172	0.55
12.4572	0.461
12.4971	0.35
12.5371	0.301
12.5771	0.311
12.617	0.421
12.657	0.594
12.697	0.675
12.7369	0.708
12.7769	0.726
12.8168	0.733
12.8568	0.734
12.8968	0.736
12.9367	0.746
12.9767	0.742
13.0167	0.747
13.0566	0.751
13.0966	0.754
13.1365	0.752
13.1765	0.751
13.2165	0.747
13.2564	0.746
13.2964	0.739
13.3364	0.729
13.3763	0.721
13.4163	0.708
13.4562	0.711
13.4962	0.711
13.5362	0.713
13.5761	0.718
13.6161	0.718
13.656	0.713
13.696	0.711
13.736	0.718
13.7759	0.718
13.8159	0.723
13.8559	0.718
13.8958	0.711
13.9358	0.71
13.9757	0.703
14.0157	0.695
14.0557	0.682
14.0956	0.668
14.1356	0.635
14.1756	0.589
14.2155	0.507
14.2555	0.426
14.2954	0.331
14.3354	0.275
14.3754	0.268
14.4153	0.344
14.4553	0.538
14.4953	0.644
14.5352	0.708
14.5752	0.718
14.6151	0.728
14.6551	0.724
14.6951	0.728
14.735	0.731
14.775	0.734
14.815	0.726
14.8549	0.721
14.8949	0.718
14.9348	0.713
14.9748	0.698
15.0148	0.68
15.0547	0.645
15.0947	0.596
15.1347	0.543
15.1746	0.53
15.2146	0.55
15.2545	0.589
15.2945	0.627
15.3345	0.644
15.3744	0.672
15.4144	0.678
15.4544	0.683
15.4943	0.688
15.5343	0.678
15.5742	0.672
15.6142	0.672
15.6542	0.673
15.6941	0.672
15.7341	0.668
15.7741	0.668
15.814	0.668
15.854	0.663
