Infrared Spectrum: 2-(3-Methoxyphenyl)-5-phenyloxazole
Formula: C 16 H 13 N O 2
CAS: 38705-20-3
State: gas
Origin: EPA-IR VAPOR PHASE LIBRARY
1/CM	ABSORBANCE
549.8	0.004617
559.445	0.004857
569.09	0.006277
578.734	0.005167
588.379	0.002987
598.024	0.002817
607.669	0.002427
617.313	0.001597
626.958	0.002307
636.603	0.003447
646.248	0.005397
655.893	0.008127
665.537	0.014557
675.182	0.026837
684.827	0.064157
694.472	0.051857
704.116	0.021347
713.761	0.017337
723.406	0.031057
733.051	0.069617
742.695	0.031737
752.34	0.034857
761.985	0.042657
771.63	0.020397
781.275	0.030517
790.919	0.034067
800.564	0.015247
810.209	0.009387
819.854	0.017877
829.498	0.035727
839.143	0.049067
848.788	0.054587
858.433	0.021807
868.078	0.016307
877.722	0.016207
887.367	0.013967
897.012	0.010387
906.657	0.008697
916.301	0.006547
925.946	0.007677
935.591	0.021077
945.236	0.019707
954.88	0.032077
964.525	0.021467
974.17	0.008377
983.815	0.008067
993.46	0.011167
1003.1	0.011547
1012.75	0.015377
1022.39	0.035037
1032.04	0.057167
1041.68	0.077767
1051.33	0.084157
1060.97	0.059767
1070.62	0.025557
1080.26	0.018877
1089.91	0.018327
1099.55	0.012397
1109.2	0.012557
1118.84	0.031677
1128.49	0.074537
1138.13	0.038617
1147.78	0.014397
1157.42	0.017087
1167.07	0.021337
1176.71	0.029107
1186.36	0.028587
1196	0.027027
1205.64	0.045917
1215.29	0.083457
1224.93	0.064027
1234.58	0.036587
1244.22	0.054597
1253.87	0.084337
1263.51	0.047657
1273.16	0.056567
1282.8	0.065267
1292.45	0.050047
1302.09	0.046087
1311.74	0.050577
1321.38	0.050587
1331.03	0.038227
1340.67	0.033117
1350.32	0.019107
1359.96	0.009237
1369.61	0.006787
1379.25	0.006207
1388.9	0.007187
1398.54	0.009187
1408.18	0.013667
1417.83	0.020027
1427.47	0.038287
1437.12	0.066927
1446.76	0.048367
1456.41	0.055387
1466.05	0.092227
1475.7	0.107097
1485.34	0.119887
1494.99	0.082567
1504.63	0.023847
1514.28	0.016247
1523.92	0.020067
1533.57	0.040597
1543.21	0.080787
1552.86	0.062027
1562.5	0.038977
1572.15	0.049337
1581.79	0.066787
1591.44	0.101507
1601.08	0.080867
1610.73	0.067607
1620.37	0.035697
1630.01	0.015057
1639.66	0.010297
1649.3	0.011927
1658.95	0.012177
1668.59	0.009637
1678.24	0.006227
1687.88	0.004857
1697.53	0.004137
1707.17	0.003657
1716.82	0.003947
1726.46	0.004347
1736.11	0.005237
1745.75	0.004677
1755.4	0.004087
1765.04	0.004167
1774.69	0.004577
1784.33	0.005317
1793.98	0.005637
1803.62	0.003997
1813.27	0.003917
1822.91	0.003127
1832.55	0.003287
1842.2	0.003737
1851.84	0.004277
1861.49	0.004617
1871.13	0.004627
1880.78	0.004787
1890.42	0.004487
1900.07	0.002617
1909.71	0.002777
1919.36	0.004277
1929	0.005407
1938.65	0.005907
1948.29	0.004397
1957.94	0.004737
1967.58	0.002537
1977.23	0.001987
1986.87	0.002227
1996.52	0.002067
2006.16	0.002277
2015.81	0.002347
2025.45	0.002337
2035.1	0.002567
2044.74	0.003017
2054.38	0.003417
2064.03	0.003877
2073.67	0.003777
2083.32	0.003387
2092.96	0.003207
2102.61	0.003117
2112.25	0.002327
2121.9	0.002017
2131.54	0.001757
2141.19	0.001697
2150.83	0.001607
2160.48	0.001667
2170.12	0.001577
2179.77	0.001727
2189.41	0.001757
2199.06	0.001807
2208.7	0.001537
2218.35	0.001507
2227.99	0.0014221
2237.64	0.0012547
2247.28	0.001447
2256.92	0.001557
2266.57	0.001697
2276.21	0.001687
2285.86	0.001597
2295.5	0.001717
2305.15	0.001997
2314.79	0.002627
2324.44	0.002387
2334.08	0.002507
2343.73	0.002207
2353.37	0.002067
2363.02	0.001917
2372.66	0.001567
2382.31	0.002027
2391.95	0.001977
2401.6	0.002167
2411.24	0.002257
2420.89	0.002237
2430.53	0.002097
2440.18	0.002137
2449.82	0.002127
2459.47	0.001957
2469.11	0.001807
2478.75	0.002027
2488.4	0.002257
2498.04	0.002127
2507.69	0.002157
2517.33	0.001987
2526.98	0.001857
2536.62	0.001987
2546.27	0.002387
2555.91	0.002167
2565.56	0.002467
2575.2	0.002337
2584.85	0.002277
2594.49	0.002477
2604.14	0.002907
2613.78	0.002687
2623.43	0.001987
2633.07	0.001987
2642.72	0.002047
2652.36	0.001447
2662.01	0.002147
2671.65	0.002587
2681.29	0.002427
2690.94	0.001917
2700.58	0.001617
2710.23	0.001477
2719.87	0.001787
2729.52	0.001737
2739.16	0.001967
2748.81	0.002107
2758.45	0.002247
2768.1	0.002267
2777.74	0.002407
2787.39	0.002857
2797.03	0.003287
2806.68	0.004007
2816.32	0.005607
2825.97	0.007997
2835.61	0.014177
2845.26	0.022687
2854.9	0.014157
2864.55	0.009887
2874.19	0.009197
2883.84	0.009667
2893.48	0.011287
2903.12	0.013287
2912.77	0.015847
2922.41	0.018137
2932.06	0.018987
2941.7	0.027417
2951.35	0.033917
2960.99	0.027747
2970.64	0.018927
2980.28	0.013207
2989.93	0.014027
2999.57	0.022347
3009.22	0.035877
3018.86	0.022037
3028.51	0.018067
3038.15	0.022667
3047.8	0.023297
3057.44	0.024267
3067.09	0.041147
3076.73	0.052897
3086.38	0.036037
3096.02	0.020527
3105.67	0.012807
3115.31	0.009087
3124.95	0.009927
3134.6	0.010937
3144.24	0.006877
3153.89	0.004017
3163.53	0.003207
3173.18	0.002397
3182.82	0.001867
3192.47	0.001393
3202.11	0.001507
3211.76	0.001164
3221.4	0.0013144
3231.05	0.0004284
3240.69	0.000207
3250.34	0.0009173
3259.98	0.00050997
3269.63	0.0006645
3279.27	0.00011
3288.92	0.0007656
3298.56	0.00050478
3308.21	0.0007031
3317.85	0.000279
3327.49	0.0006172
3337.14	0.0004368
3346.78	0.00046456
3356.43	0.000275
3366.07	0.00029
3375.72	0.0006153
3385.36	0.0008899
3395.01	0.0007243
3404.65	0.000238
3414.3	0.0004173
3423.94	0.000178
3433.59	0.0006746
3443.23	0
3452.88	0.000243
3462.52	0.00046597
3472.17	0.00052862
3481.81	0.0008243
3491.46	0.0010626
3501.1	0.0007812
3510.75	0.0005978
3520.39	0.0008521
3530.04	0.0004258
3539.68	0.000304
3549.32	0.00052044
3558.97	0.0005981
3568.61	0.0003555
3578.26	0.0006408
3587.9	0.0008165
3597.55	0.0006417
3607.19	0.00050417
3616.84	0.0008235
3626.48	0.00023
3636.13	0.00050751
3645.77	0.0010504
3655.42	0.000451742
3665.06	0.0007933
3674.71	0.0006729
3684.35	0.0008927
3694	0.0008642
3703.64	0.0005221
3713.29	0.0007077
3722.93	0.0007048
3732.58	0.0009421
3742.22	0.0010709
3751.86	0.00047037
3761.51	0.0006153
3771.15	0.00047771
3780.8	0.000215
3790.44	0.0007461
3800.09	0.0008466
3809.73	0.000339
3819.38	0.0009741
3829.02	0.0008911
3838.67	0.000287
3848.31	0.000148
3857.96	0.0005808
3867.6	0.000721
3877.25	0.0006655
3886.89	0.000305
3896.54	0.0011994
3906.18	0.0008097
3915.83	0.0007486
3925.47	0.000194
3935.12	0.00049874
3944.76	0.000249
3954.41	0.0009346
3964.05	0.0003938
3973.69	0.0008268
3983.34	0.000739
3992.98	0.0011582
