Infrared Spectrum: Dimethylaminoacetaldehyde diethyl acetal
Formula: C 8 H 19 N O 2
CAS: 38711-20-5
State: gas
Origin: EPA-IR VAPOR PHASE LIBRARY
1/CM	ABSORBANCE
549.9	0.00643
559.547	0.00688
569.193	0.00607
578.84	0.00532
588.486	0.00459
598.133	0.00421
607.779	0.003645
617.426	0.0030346
627.072	0.002437
636.719	0.002105
646.365	0.00197
656.012	0.00178
665.658	0.0018
675.305	0.00176
684.951	0.00172
694.598	0.00205
704.245	0.002131
713.891	0.00204
723.538	0.00203
733.184	0.002211
742.831	0.002333
752.477	0.002888
762.124	0.0034772
771.77	0.00446
781.417	0.00554
791.063	0.00653
800.71	0.00779
810.356	0.00989
820.003	0.01342
829.649	0.01945
839.296	0.02439
848.943	0.02164
858.589	0.01587
868.236	0.01173
877.882	0.00962
887.529	0.01025
897.175	0.01259
906.822	0.01558
916.468	0.01784
926.115	0.01855
935.761	0.01805
945.408	0.01648
955.054	0.01537
964.701	0.01662
974.347	0.02187
983.994	0.03269
993.64	0.04812
1003.29	0.06276
1012.93	0.07447
1022.58	0.09262
1032.23	0.13139
1041.87	0.17888
1051.52	0.22785
1061.17	0.27455
1070.81	0.26441
1080.46	0.21091
1090.11	0.17432
1099.75	0.15647
1109.4	0.14676
1119.05	0.159
1128.69	0.17739
1138.34	0.16489
1147.99	0.12915
1157.63	0.09439
1167.28	0.06806
1176.92	0.04983
1186.57	0.03869
1196.22	0.03067
1205.86	0.02387
1215.51	0.01822
1225.16	0.01504
1234.8	0.01424
1244.45	0.01572
1254.1	0.02197
1263.74	0.03483
1273.39	0.04571
1283.04	0.04387
1292.68	0.03907
1302.33	0.03717
1311.98	0.03683
1321.62	0.03618
1331.27	0.03531
1340.92	0.03826
1350.56	0.03705
1360.21	0.03055
1369.86	0.04021
1379.5	0.04863
1389.15	0.03715
1398.79	0.02802
1408.44	0.02259
1418.09	0.01978
1427.73	0.01988
1437.38	0.02489
1447.03	0.03715
1456.67	0.04389
1466.32	0.03826
1475.97	0.0289
1485.61	0.01924
1495.26	0.01246
1504.91	0.00871
1514.55	0.00687
1524.2	0.0058
1533.85	0.00501
1543.49	0.00445
1553.14	0.0039555
1562.79	0.0037052
1572.43	0.0034383
1582.08	0.0033371
1591.73	0.0033004
1601.37	0.0032814
1611.02	0.0032804
1620.67	0.0033695
1630.31	0.0033791
1639.96	0.0034125
1649.6	0.0034585
1659.25	0.0034861
1668.9	0.0034157
1678.54	0.0034075
1688.19	0.0032889
1697.84	0.00315355
1707.48	0.0030586
1717.13	0.002948
1726.78	0.002993
1736.42	0.002906
1746.07	0.002761
1755.72	0.002608
1765.36	0.002523
1775.01	0.002389
1784.66	0.002322
1794.3	0.002217
1803.95	0.002176
1813.6	0.002171
1823.24	0.002231
1832.89	0.002309
1842.54	0.002512
1852.18	0.002767
1861.83	0.00309
1871.47	0.0034138
1881.12	0.0036944
1890.77	0.0037375
1900.41	0.0037478
1910.06	0.0036985
1919.71	0.0037131
1929.35	0.0036898
1939	0.0038538
1948.65	0.0040937
1958.29	0.00428
1967.94	0.0043
1977.59	0.0042
1987.23	0.0038428
1996.88	0.0034501
2006.53	0.00315502
2016.17	0.002909
2025.82	0.002729
2035.47	0.002629
2045.11	0.002572
2054.76	0.002475
2064.41	0.002552
2074.05	0.002633
2083.7	0.002736
2093.35	0.002903
2102.99	0.002887
2112.64	0.002973
2122.28	0.002944
2131.93	0.002876
2141.58	0.002883
2151.22	0.002927
2160.87	0.002966
2170.52	0.002922
2180.16	0.002962
2189.81	0.002909
2199.46	0.00277
2209.1	0.002676
2218.75	0.002575
2228.4	0.002542
2238.04	0.002529
2247.69	0.002563
2257.34	0.002561
2266.98	0.002623
2276.63	0.002545
2286.28	0.002504
2295.92	0.002458
2305.57	0.002444
2315.22	0.002301
2324.86	0.002225
2334.51	0.002191
2344.16	0.002193
2353.8	0.002237
2363.45	0.002263
2373.09	0.002307
2382.74	0.002306
2392.39	0.002428
2402.03	0.002522
2411.68	0.002588
2421.33	0.002744
2430.97	0.002789
2440.62	0.002667
2450.27	0.002617
2459.91	0.002574
2469.56	0.002685
2479.21	0.002749
2488.85	0.0030613
2498.5	0.0032555
2508.15	0.0033458
2517.79	0.00310914
2527.44	0.00312402
2537.09	0.003224
2546.73	0.0032198
2556.38	0.0033875
2566.03	0.0034874
2575.67	0.0036497
2585.32	0.0040425
2594.96	0.0045
2604.61	0.00483
2614.26	0.00521
2623.9	0.00543
2633.55	0.00576
2643.2	0.00614
2652.84	0.00659
2662.49	0.00706
2672.14	0.00765
2681.78	0.00831
2691.43	0.00933
2701.08	0.01114
2710.72	0.01414
2720.37	0.0187
2730.02	0.02452
2739.66	0.03062
2749.31	0.03829
2758.96	0.0548
2768.6	0.09059
2778.25	0.11459
2787.9	0.0934
2797.54	0.0732
2807.19	0.07239
2816.84	0.085
2826.48	0.09653
2836.13	0.08551
2845.77	0.07592
2855.42	0.08315
2865.07	0.09832
2874.71	0.11196
2884.36	0.11557
2894.01	0.11024
2903.65	0.11236
2913.3	0.12167
2922.95	0.12595
2932.59	0.14078
2942.24	0.15867
2951.89	0.15308
2961.53	0.13866
2971.18	0.15823
2980.83	0.17981
2990.47	0.12276
3000.12	0.06012
3009.77	0.03679
3019.41	0.02574
3029.06	0.01833
3038.71	0.01359
3048.35	0.01068
3058	0.00897
3067.64	0.00761
3077.29	0.00657
3086.94	0.00565
3096.58	0.00488
3106.23	0.00449
3115.88	0.00416
3125.52	0.0036673
3135.17	0.0033678
3144.82	0.0032108
3154.46	0.002965
3164.11	0.002901
3173.76	0.00281
3183.4	0.00264
3193.05	0.002581
3202.7	0.002253
3212.34	0.00185
3221.99	0.00152
3231.64	0.00126
3241.28	0.00087
3250.93	0.00078
3260.58	0.00051
3270.22	0.00057
3279.87	0.00056
3289.52	0.00044
3299.16	0.00049
3308.81	0.00031
3318.45	0.00039
3328.1	0.00038
3337.75	0.0002
3347.39	0.00038
3357.04	0.00011
3366.69	0.00032
3376.33	0.00035
3385.98	0.00039
3395.63	0.00034
3405.27	0.00038
3414.92	0.00043
3424.57	0.00041
3434.21	0.00026
3443.86	1e-05
3453.51	0.00014
3463.15	0.00022
3472.8	6e-05
3482.45	0
3492.09	0.00018
3501.74	0.00017
3511.39	0.00015
3521.03	0.00015
3530.68	0.0001
3540.33	2e-05
3549.97	0.00016
3559.62	0.00017
3569.26	0.00029
3578.91	0.00035
3588.56	0.00031
3598.2	0.00042
3607.85	0.00036
3617.5	0.00043
3627.14	0.00046
3636.79	0.00049
3646.44	0.00053
3656.08	0.00061
3665.73	0.00068
3675.38	0.00083
3685.02	0.00064
3694.67	0.00085
3704.32	0.00088
3713.96	0.00085
3723.61	0.00098
3733.26	0.00084
3742.9	0.00085
3752.55	0.00104
3762.2	0.00093
3771.84	0.00103
3781.49	0.00096
3791.13	0.00103
3800.78	0.00115
3810.43	0.00129
3820.07	0.00125
3829.72	0.00127
3839.37	0.00124
3849.01	0.00122
3858.66	0.00121
3868.31	0.00132
3877.95	0.00129
3887.6	0.00141
3897.25	0.00138
3906.89	0.0014
3916.54	0.00141
3926.19	0.00166
3935.83	0.00156
3945.48	0.00169
3955.13	0.00196
3964.77	0.00208
3974.42	0.002218
3984.07	0.002451
3993.71	0.002415
