Infrared Spectrum: N-BUTYL-DIETHANOLAMINE HYDROCHLORIDE
Formula: C8 H20 Cl N O2
CAS: 38739-74-1
State: LIQUID (NEAT)
Class: COBLENTZ III
Instrument: PERKIN-ELMER 157
Sampling: TRANSMISSION
Resolution: 2
Origin: BRITISH PETROLEUM CO. LTD., ENGLAND
1/CM	TRANSMITTANCE
668	0.2531
677	0.2673
686	0.2949
695	0.3222
704	0.3534
713	0.3782
722	0.385
731	0.3478
740	0.3154
749	0.3946
758	0.4335
767	0.48
776	0.5048
785	0.5107
794	0.511
803	0.5206
812	0.5696
821	0.6062
830	0.6204
839	0.6022
848	0.552
857	0.5354
866	0.4857
875	0.4215
884	0.3491
893	0.279
902	0.2803
911	0.2831
920	0.3622
929	0.3784
938	0.3073
947	0.2535
956	0.2308
965	0.2157
974	0.2855
983	0.2782
992	0.2048
1001	0.1438
1010	0.1167
1019	0.1005
1028	0.0687
1037	0.0615
1046	0.0477
1055	0.0174
1064	0.0048
1073	0.0029
1082	0.0076
1091	0.0315
1100	0.083
1109	0.1349
1118	0.223
1127	0.2805
1136	0.3192
1145	0.3519
1154	0.3495
1163	0.3958
1172	0.4189
1181	0.4116
1190	0.3628
1199	0.2816
1208	0.2381
1217	0.2398
1226	0.2538
1235	0.2634
1244	0.2632
1253	0.263
1262	0.2628
1271	0.2628
1280	0.2595
1289	0.243
1298	0.2194
1307	0.1937
1316	0.1673
1325	0.1618
1334	0.1511
1343	0.1365
1352	0.1337
1361	0.1172
1370	0.1046
1379	0.0647
1388	0.0633
1397	0.0598
1406	0.0546
1415	0.0544
1424	0.0522
1433	0.0428
1442	0.038
1451	0.0358
1460	0.0324
1469	0.0423
1478	0.0644
1487	0.1945
1496	0.3915
1505	0.5273
1514	0.5605
1523	0.5934
1532	0.611
1541	0.6408
1550	0.6411
1559	0.6407
1568	0.6404
1577	0.6403
1586	0.6371
1595	0.6246
1604	0.6149
1613	0.5902
1622	0.567
1631	0.5665
1640	0.573
1649	0.6102
1658	0.6231
1667	0.6718
1676	0.7063
1685	0.7226
1694	0.731
1703	0.7351
1712	0.737
1721	0.7374
1730	0.7367
1739	0.7352
1748	0.7339
1757	0.7497
1766	0.7659
1775	0.7759
1784	0.7793
1793	0.7802
1802	0.7807
1811	0.7804
1820	0.7801
1829	0.7798
1838	0.7795
1847	0.7791
1856	0.7781
1865	0.7766
1874	0.7747
1883	0.7726
1892	0.7703
1901	0.768
1910	0.7661
1919	0.7644
1928	0.7627
1937	0.7617
1946	0.761
1955	0.7604
1964	0.7601
1973	0.7599
1982	0.7592
1991	0.7577
2000	0.7549
2009	0.7516
2018	0.7472
2027	0.7402
2036	0.7322
2045	0.7241
2054	0.7182
2063	0.713
2072	0.7088
2081	0.7046
2090	0.7016
2099	0.699
2108	0.6967
2117	0.6948
2126	0.6929
2135	0.691
2144	0.6892
2153	0.6874
2162	0.6857
2171	0.6838
2180	0.6808
2189	0.6747
2198	0.666
2207	0.6572
2216	0.6476
2225	0.6369
2234	0.6228
2243	0.6076
2252	0.5951
2261	0.5836
2270	0.571
2279	0.5601
2288	0.5467
2297	0.5251
2306	0.5075
2315	0.4787
2324	0.4492
2333	0.4251
2342	0.4093
2351	0.3804
2360	0.362
2369	0.3489
2378	0.3369
2387	0.3173
2396	0.2967
2405	0.2762
2414	0.2559
2423	0.2354
2432	0.213
2441	0.1888
2450	0.1498
2459	0.1243
2468	0.1141
2477	0.1069
2486	0.1017
2495	0.0967
2504	0.0914
2513	0.0861
2522	0.0811
2531	0.0762
2540	0.0713
2549	0.0662
2558	0.0535
2567	0.0464
2576	0.0422
2585	0.0405
2594	0.04
2603	0.0396
2612	0.0397
2621	0.0398
2630	0.0399
2639	0.0403
2648	0.0409
2657	0.0417
2666	0.0429
2675	0.044
2684	0.0453
2693	0.0466
2702	0.0479
2711	0.0494
2720	0.0511
2729	0.0531
2738	0.0554
2747	0.0581
2756	0.0595
2765	0.0595
2774	0.059
2783	0.0574
2792	0.0558
2801	0.0533
2810	0.0507
2819	0.0474
2828	0.044
2837	0.0405
2846	0.0376
2855	0.0349
2864	0.0331
2873	0.0324
2882	0.0321
2891	0.0318
2900	0.0318
2909	0.0319
2918	0.032
2927	0.0323
2936	0.0329
2945	0.0338
2954	0.0365
2963	0.0408
2972	0.0468
2981	0.0533
2990	0.0569
2999	0.058
3008	0.0585
3017	0.0581
3026	0.0573
3035	0.0561
3044	0.0539
3053	0.0511
3062	0.0478
3071	0.0445
3080	0.0413
3089	0.038
3098	0.0347
3107	0.0312
3116	0.0279
3125	0.0246
3134	0.0213
3143	0.0183
3152	0.0162
3161	0.0144
3170	0.0144
3179	0.0144
3188	0.0144
3197	0.0144
3206	0.0145
3215	0.0147
3224	0.0148
3233	0.015
3242	0.0153
3251	0.0158
3260	0.0163
3269	0.0167
3278	0.0172
3287	0.0177
3296	0.0185
3305	0.0193
3314	0.0201
3323	0.021
3332	0.0223
3341	0.0238
3350	0.0251
3359	0.0265
3368	0.0279
3377	0.0291
3386	0.03
3395	0.0309
3404	0.0318
3413	0.0326
3422	0.0333
3431	0.034
3440	0.0371
3449	0.0576
3458	0.089
3467	0.1202
3476	0.1513
3485	0.1823
3494	0.213
3503	0.2437
3512	0.2741
3521	0.3044
3530	0.3346
3539	0.3631
3548	0.4124
3557	0.4682
3566	0.5237
3575	0.5789
3584	0.6339
3593	0.6886
3602	0.7238
3611	0.7452
3620	0.7583
3629	0.7663
3638	0.7746
3647	0.7831
3656	0.7896
3665	0.7908
3674	0.7916
3683	0.7921
3692	0.7921
3701	0.7922
3710	0.7923
3719	0.7922
3728	0.7919
3737	0.7915
3746	0.7912
3755	0.7908
3764	0.79
3773	0.7892
3782	0.788
3791	0.7863
3800	0.7846
3809	0.7829
3818	0.7812
3827	0.7791
3836	0.7768
3845	0.775
3854	0.7739
3863	0.7732
3872	0.7728
3881	0.7725
3890	0.7721
3899	0.7717
3908	0.7709
3917	0.77
3926	0.769
3935	0.7672
3944	0.7655
3953	0.7638
3962	0.7621
3971	0.7606
3980	0.7589
3989	0.7573
3998	0.7562
