Infrared Spectrum: 4-Butoxyphenylacetonitrile
Formula: C 12 H 15 N O
CAS: 38746-93-9
State: gas
Origin: EPA-IR VAPOR PHASE LIBRARY
1/CM	ABSORBANCE
549.8	0.002803
559.445	0.002903
569.09	0.003063
578.734	0.003953
588.379	0.004323
598.024	0.004693
607.669	0.003673
617.313	0.002593
626.958	0.001733
636.603	0.001893
646.248	0.001293
655.893	0.0010695
665.537	0.0011854
675.182	0.001843
684.827	0.002433
694.472	0.002443
704.116	0.002613
713.761	0.002563
723.406	0.002703
733.051	0.003283
742.695	0.003683
752.34	0.003903
761.985	0.004843
771.63	0.005333
781.275	0.005983
790.919	0.008403
800.564	0.012793
810.209	0.018043
819.854	0.021753
829.498	0.019283
839.143	0.013643
848.788	0.008663
858.433	0.006333
868.078	0.006633
877.722	0.007263
887.367	0.005463
897.012	0.004583
906.657	0.004493
916.301	0.003743
925.946	0.003453
935.591	0.004253
945.236	0.005943
954.88	0.007743
964.525	0.010143
974.17	0.012633
983.815	0.011193
993.46	0.010893
1003.1	0.015603
1012.75	0.025413
1022.39	0.027773
1032.04	0.026103
1041.68	0.019493
1051.33	0.013003
1060.97	0.016263
1070.62	0.017663
1080.26	0.011163
1089.91	0.007523
1099.55	0.008443
1109.2	0.009563
1118.84	0.009963
1128.49	0.007453
1138.13	0.006493
1147.78	0.006093
1157.42	0.007453
1167.07	0.020283
1176.71	0.048983
1186.36	0.020063
1196	0.013653
1205.64	0.021553
1215.29	0.042263
1224.93	0.068333
1234.58	0.098373
1244.22	0.150763
1253.87	0.126013
1263.51	0.067883
1273.16	0.051303
1282.8	0.040663
1292.45	0.033063
1302.09	0.029253
1311.74	0.020713
1321.38	0.013533
1331.03	0.012153
1340.67	0.009693
1350.32	0.007293
1359.96	0.006503
1369.61	0.006723
1379.25	0.010513
1388.9	0.015393
1398.54	0.009943
1408.18	0.007123
1417.83	0.008923
1427.47	0.016333
1437.12	0.011603
1446.76	0.010113
1456.41	0.012503
1466.05	0.019803
1475.7	0.027523
1485.34	0.019093
1494.99	0.027063
1504.63	0.092093
1514.28	0.141713
1523.92	0.043873
1533.57	0.015163
1543.21	0.008333
1552.86	0.006413
1562.5	0.006523
1572.15	0.008763
1581.79	0.013263
1591.44	0.015063
1601.08	0.021303
1610.73	0.035343
1620.37	0.026873
1630.01	0.009063
1639.66	0.004863
1649.3	0.003203
1658.95	0.002243
1668.59	0.001873
1678.24	0.001493
1687.88	0.001323
1697.53	0.001413
1707.17	0.001443
1716.82	0.001593
1726.46	0.001663
1736.11	0.001893
1745.75	0.002333
1755.4	0.002663
1765.04	0.002313
1774.69	0.001663
1784.33	0.001313
1793.98	0.0010976
1803.62	0.0010773
1813.27	0.0010551
1822.91	0.0010984
1832.55	0.0012223
1842.2	0.001523
1851.84	0.001883
1861.49	0.002043
1871.13	0.002053
1880.78	0.002063
1890.42	0.002153
1900.07	0.002123
1909.71	0.001673
1919.36	0.001313
1929	0.0011598
1938.65	0.001263
1948.29	0.001243
1957.94	0.001263
1967.58	0.001333
1977.23	0.001553
1986.87	0.001603
1996.52	0.001743
2006.16	0.001883
2015.81	0.001873
2025.45	0.001943
2035.1	0.001803
2044.74	0.001713
2054.38	0.001673
2064.03	0.001603
2073.67	0.001493
2083.32	0.001343
2092.96	0.001313
2102.61	0.001101
2112.25	0.0010407
2121.9	0.0008828
2131.54	0.0008571
2141.19	0.0007859
2150.83	0.0007068
2160.48	0.0005452
2170.12	0.0006245
2179.77	0.0005088
2189.41	0.0005747
2199.06	0.0004991
2208.7	0.0006403
2218.35	0.0007079
2227.99	0.0008457
2237.64	0.0011439
2247.28	0.001673
2256.92	0.002203
2266.57	0.001643
2276.21	0.0010718
2285.86	0.000825
2295.5	0.0007475
2305.15	0.0008123
2314.79	0.000859
2324.44	0.000928
2334.08	0.0010737
2343.73	0.0011064
2353.37	0.0010306
2363.02	0.0010291
2372.66	0.0008528
2382.31	0.000836
2391.95	0.0009065
2401.6	0.0009481
2411.24	0.0011455
2420.89	0.001293
2430.53	0.0011922
2440.18	0.0011838
2449.82	0.0011308
2459.47	0.001293
2469.11	0.001283
2478.75	0.001483
2488.4	0.001563
2498.04	0.001373
2507.69	0.001353
2517.33	0.001443
2526.98	0.001463
2536.62	0.001583
2546.27	0.001513
2555.91	0.001503
2565.56	0.001343
2575.2	0.001303
2584.85	0.001293
2594.49	0.001333
2604.14	0.0011172
2613.78	0.0009495
2623.43	0.000921
2633.07	0.0009527
2642.72	0.0008731
2652.36	0.0007561
2662.01	0.0009241
2671.65	0.0008937
2681.29	0.0010817
2690.94	0.0010069
2700.58	0.001253
2710.23	0.001233
2719.87	0.001533
2729.52	0.001783
2739.16	0.002233
2748.81	0.002373
2758.45	0.002333
2768.1	0.002193
2777.74	0.002103
2787.39	0.002083
2797.03	0.002463
2806.68	0.002793
2816.32	0.003533
2825.97	0.004563
2835.61	0.006153
2845.26	0.008323
2854.9	0.011623
2864.55	0.016743
2874.19	0.024973
2883.84	0.032503
2893.48	0.029623
2903.12	0.028273
2912.77	0.033613
2922.41	0.040653
2932.06	0.048303
2941.7	0.056603
2951.35	0.056683
2960.99	0.058853
2970.64	0.062603
2980.28	0.040113
2989.93	0.021003
2999.57	0.013313
3009.22	0.010513
3018.86	0.009393
3028.51	0.010623
3038.15	0.014943
3047.8	0.010283
3057.44	0.006153
3067.09	0.006023
3076.73	0.006613
3086.38	0.005123
3096.02	0.004443
3105.67	0.003993
3115.31	0.002973
3124.95	0.002423
3134.6	0.001853
3144.24	0.001463
3153.89	0.001036
3163.53	0.0011355
3173.18	0.0011294
3182.82	0.0011261
3192.47	0.0012142
3202.11	0.0010106
3211.76	0.0009132
3221.4	0.000718
3231.05	0.0006223
3240.69	0.000358
3250.34	0.0003769
3259.98	0.0004713
3269.63	0.000433
3279.27	0.000123
3288.92	0.00026798
3298.56	0.00028059
3308.21	0.000234076
3317.85	0.00030549
3327.49	0.00022596
3337.14	0.0004129
3346.78	0.000366
3356.43	0.00028693
3366.07	0.000242231
3375.72	0.00032733
3385.36	0.0001938
3395.01	0.0001676
3404.65	0.0003047
3414.3	0.0001456
3423.94	0.0003767
3433.59	0.0002116
3443.23	0.0003475
3452.88	0.00025338
3462.52	0.0001508
3472.17	9.9e-05
3481.81	0.00025653
3491.46	0.000107
3501.1	0.0004132
3510.75	0.0003575
3520.39	0.0001546
3530.04	0.0002237
3539.68	0.000237465
3549.32	0.000123
3558.97	0.00029343
3568.61	0.0001575
3578.26	0.00032042
3587.9	0.00018
3597.55	0.0001399
3607.19	0.000121
3616.84	0.0003613
3626.48	9.8e-05
3636.13	0.0002318
3645.77	0.00027921
3655.42	0.00032759
3665.06	0.00027719
3674.71	0.0004767
3684.35	0.0003458
3694	0.0004619
3703.64	0.000386
3713.29	0.00033199
3722.93	0.00032064
3732.58	0.0001546
3742.22	0.0003984
3751.86	9e-06
3761.51	0.00028202
3771.15	0.0003621
3780.8	0.0003767
3790.44	0.00032597
3800.09	0.000236488
3809.73	0.0001911
3819.38	0.0003405
3829.02	0.0003442
3838.67	0.000451
3848.31	0.0004439
3857.96	0.0004555
3867.6	0.0003455
3877.25	0.0004262
3886.89	0.0004773
3896.54	0.0004045
3906.18	0.0004956
3915.83	0.0003875
3925.47	0.0003725
3935.12	0.00024339
3944.76	0.0004443
3954.41	0.00029773
3964.05	0.00030568
3973.69	0.0003499
3983.34	0.00028977
3992.98	0.0004817
