Infrared Spectrum: 1-Hexadecanesulphonyl chloride
Formula: C 16 H 33 Cl O 2 S
CAS: 38775-38-1
State: gas
Origin: EPA-IR VAPOR PHASE LIBRARY
1/CM	ABSORBANCE
549.9	0.000207
559.547	0.000212
569.193	0.000273
578.84	0.000345
588.486	0.000256
598.133	0.000419
607.779	0.000348
617.426	0.000515
627.072	0.000544
636.719	0.00083818
646.365	0.0011346
656.012	0.0017808
665.658	0.001875
675.305	0.0011305
684.951	0.0009337
694.598	0.0011455
704.245	0.0015339
713.891	0.002095
723.538	0.002725
733.184	0.002945
742.831	0.002695
752.477	0.002065
762.124	0.0017143
771.77	0.0013483
781.417	0.0011209
791.063	0.0010376
800.71	0.00087852
810.356	0.0009328
820.003	0.00079661
829.649	0.00080764
839.296	0.000755
848.943	0.000735
858.589	0.000786351
868.236	0.0007008
877.882	0.0007715
887.529	0.00083417
897.175	0.00083685
906.822	0.00082402
916.468	0.00077609
926.115	0.0007503
935.761	0.00077767
945.408	0.0007748
955.054	0.0007355
964.701	0.0007204
974.347	0.000784603
983.994	0.000788083
993.64	0.0007173
1003.29	0.0007301
1012.93	0.0006965
1022.58	0.0007225
1032.23	0.0007737
1041.87	0.0007726
1051.52	0.000787275
1061.17	0.0007398
1070.81	0.0007478
1080.46	0.0007027
1090.11	0.0006855
1099.75	0.000572
1109.4	0.000504
1119.05	0.000591
1128.69	0.000388
1138.34	0.000551
1147.99	0.000584
1157.63	0.000437
1167.28	0.000621
1176.92	0.000622
1186.57	0.000484
1196.22	0.000314
1205.86	0.00041
1215.51	0.000451
1225.16	0.000574
1234.8	0.0009521
1244.45	0.0010443
1254.1	0.0013924
1263.74	0.0016045
1273.39	0.001985
1283.04	0.002485
1292.68	0.002905
1302.33	0.002985
1311.98	0.002815
1321.62	0.002345
1331.27	0.002045
1340.92	0.002285
1350.56	0.002645
1360.21	0.002425
1369.86	0.002015
1379.5	0.0016638
1389.15	0.0013677
1398.79	0.0011671
1408.44	0.0011077
1418.09	0.001222
1427.73	0.001578
1437.38	0.002605
1447.03	0.004475
1456.67	0.005975
1466.32	0.005485
1475.97	0.003135
1485.61	0.0016735
1495.26	0.0012035
1504.91	0.0009663
1514.55	0.0008248
1524.2	0.0007311
1533.85	0.0007055
1543.49	0.000648
1553.14	0.000628
1562.79	0.000653
1572.43	0.000599
1582.08	0.000618
1591.73	0.000584
1601.37	0.00054
1611.02	0.000596
1620.67	0.000609
1630.31	0.000522
1639.96	0.000604
1649.6	0.000574
1659.25	0.000554
1668.9	0.000597
1678.54	0.000563
1688.19	0.00056
1697.84	0.000594
1707.48	0.000607
1717.13	0.000608
1726.78	0.000573
1736.42	0.000536
1746.07	0.00057
1755.72	0.000551
1765.36	0.000516
1775.01	0.000579
1784.66	0.000602
1794.3	0.000544
1803.95	0.000538
1813.6	0.000554
1823.24	0.000601
1832.89	0.000583
1842.54	0.000612
1852.18	0.000571
1861.83	0.00052
1871.47	0.000589
1881.12	0.00056
1890.77	0.000564
1900.41	0.000525
1910.06	0.000567
1919.71	0.000577
1929.35	0.000555
1939	0.000577
1948.65	0.000566
1958.29	0.000567
1967.94	0.000558
1977.59	0.000568
1987.23	0.000584
1996.88	0.000562
2006.53	0.000608
2016.17	0.000614
2025.82	0.000634
2035.47	0.000639
2045.11	0.000571
2054.76	0.000633
2064.41	0.000596
2074.05	0.000614
2083.7	0.00062
2093.35	0.0006
2102.99	0.000616
2112.64	0.000576
2122.28	0.000569
2131.93	0.000607
2141.58	0.000641
2151.22	0.000634
2160.87	0.000606
2170.52	0.000604
2180.16	0.000641
2189.81	0.000627
2199.46	0.000595
2209.1	0.000623
2218.75	0.000629
2228.4	0.000636
2238.04	0.000653
2247.69	0.000629
2257.34	0.00062
2266.98	0.00066
2276.63	0.000678
2286.28	0.000662
2295.92	0.000631
2305.57	0.000646
2315.22	0.000635
2324.86	0.00063
2334.51	0.000657
2344.16	0.000676
2353.8	0.000622
2363.45	0.000682
2373.09	0.000662
2382.74	0.000625
2392.39	0.0006984
2402.03	0.000653
2411.68	0.000644
2421.33	0.000645
2430.97	0.000617
2440.62	0.00067
2450.27	0.000605
2459.91	0.000622
2469.56	0.000657
2479.21	0.000654
2488.85	0.000684
2498.5	0.000613
2508.15	0.000664
2517.79	0.0007249
2527.44	0.000704
2537.09	0.0007279
2546.73	0.0007589
2556.38	0.0006969
2566.03	0.0007454
2575.67	0.0007575
2585.32	0.00080715
2594.96	0.00085262
2604.61	0.00085544
2614.26	0.00087356
2623.9	0.0009379
2633.55	0.0009325
2643.2	0.0010421
2652.84	0.0010319
2662.49	0.0010985
2672.14	0.0011847
2681.78	0.0011917
2691.43	0.0012629
2701.08	0.0011746
2710.72	0.0011156
2720.37	0.001137
2730.02	0.0011483
2739.66	0.0011987
2749.31	0.0012663
2758.96	0.0012999
2768.6	0.0014208
2778.25	0.0015629
2787.9	0.0017373
2797.54	0.002105
2807.19	0.002475
2816.84	0.002995
2826.48	0.003875
2836.13	0.005455
2845.77	0.009345
2855.42	0.020705
2865.07	0.028495
2874.71	0.019845
2884.36	0.015195
2894.01	0.014735
2903.65	0.020085
2913.3	0.030535
2922.95	0.053495
2932.59	0.078035
2942.24	0.057065
2951.89	0.031265
2961.53	0.022825
2971.18	0.017795
2980.83	0.009845
2990.47	0.006795
3000.12	0.005645
3009.77	0.003665
3019.41	0.002605
3029.06	0.002065
3038.71	0.0017164
3048.35	0.0013682
3058	0.0011924
3067.64	0.0010938
3077.29	0.0010033
3086.94	0.0010601
3096.58	0.0009591
3106.23	0.00083676
3115.88	0.00081691
3125.52	0.0007152
3135.17	0.000682
3144.82	0.00083433
3154.46	0.0006933
3164.11	0.000618
3173.76	0.0007251
3183.4	0.000513
3193.05	0.000665
3202.7	0.000661
3212.34	0.000521
3221.99	0.000462
3231.64	0.000435
3241.28	0.000505
3250.93	0.00045
3260.58	0.000499
3270.22	0.000497
3279.87	0.000484
3289.52	0.000515
3299.16	0.000442
3308.81	0.000594
3318.45	0.000347
3328.1	0.000258
3337.75	0.000425
3347.39	0.000478
3357.04	0.0005
3366.69	0.000507
3376.33	0.000403
3385.98	0.00053
3395.63	0.000476
3405.27	0.000526
3414.92	0.000294
3424.57	0.000393
3434.21	0.000428
3443.86	0.000458
3453.51	0.000388
3463.15	0.000298
3472.8	0.000468
3482.45	0.000344
3492.09	0.000329
3501.74	0.000356
3511.39	0.000449
3521.03	0.000325
3530.68	0.000419
3540.33	0.000414
3549.97	0.000448
3559.62	0.000395
3569.26	0.000505
3578.91	0.000281
3588.56	0.000389
3598.2	0.000499
3607.85	0.000498
3617.5	0.000473
3627.14	0.000542
3636.79	0.000531
3646.44	0.000452
3656.08	0.000511
3665.73	0.000491
3675.38	0.000454
3685.02	0.00043
3694.67	0.000369
3704.32	0.000474
3713.96	0.000467
3723.61	0.000457
3733.26	0.000389
3742.9	0.000427
3752.55	0.000568
3762.2	0.000497
3771.84	0.000492
3781.49	0.0005
3791.13	0.000546
3800.78	0.000564
3810.43	0.000488
3820.07	0.000568
3829.72	0.000522
3839.37	0.000527
3849.01	0.000623
3858.66	0.000495
3868.31	0.000523
3877.95	0.000581
3887.6	0.000597
3897.25	0.000534
3906.89	0.00057
3916.54	0.000567
3926.19	0.000519
3935.83	0.00055
3945.48	0.00063
3955.13	0.000535
3964.77	0.000606
3974.42	0.000506
3984.07	0.000604
3993.71	0.000603
