Infrared Spectrum: Triphenylphosphine selenide
Formula: C 18 H 15 P Se
CAS: 3878-44-2
State: gas
Origin: EPA-IR VAPOR PHASE LIBRARY
1/CM	ABSORBANCE
549.9	0.002099
559.547	0.003949
569.193	0.020899
578.84	0.008059
588.486	0.001369
598.133	0.0009967
607.779	0.0007181
617.426	0.00109
627.072	0.0008416
636.719	0.0007636
646.365	0.0007709
656.012	0.001209
665.658	0.002309
675.305	0.004169
684.951	0.009529
694.598	0.018429
704.245	0.014799
713.891	0.008759
723.538	0.002279
733.184	0.002749
742.831	0.006499
752.477	0.003219
762.124	0.001309
771.77	0.0008261
781.417	0.0006922
791.063	0.0007998
800.71	0.0005498
810.356	0.0005699
820.003	0.0003353
829.649	0.0003374
839.296	0.0004385
848.943	0.0004749
858.589	0.0003734
868.236	0.0003043
877.882	0.0003142
887.529	0.0003244
897.175	0.0003702
906.822	0.0003005
916.468	0.0003321
926.115	0.0003714
935.761	0.0003832
945.408	0.0004127
955.054	0.0004629
964.701	0.0005387
974.347	0.0005125
983.994	0.000542
993.64	0.001239
1003.29	0.001071
1012.93	0.0006252
1022.58	0.001219
1032.23	0.001359
1041.87	0.0004049
1051.52	0.000579
1061.17	0.0007965
1070.81	0.001169
1080.46	0.002459
1090.11	0.011539
1099.75	0.013539
1109.4	0.002519
1119.05	0.001229
1128.69	0.0010185
1138.34	0.0008397
1147.99	0.0007601
1157.63	0.0005914
1167.28	0.0006504
1176.92	0.001389
1186.57	0.003299
1196.22	0.001249
1205.86	0.000661
1215.51	0.0004469
1225.16	0.0003197
1234.8	0.0002497
1244.45	0.0003098
1254.1	0.0004691
1263.74	0.000576
1273.39	0.0005571
1283.04	0.0006505
1292.68	0.0009001
1302.33	0.001269
1311.98	0.0010574
1321.62	0.0008507
1331.27	0.0010326
1340.92	0.000638
1350.56	0.0005463
1360.21	0.0004161
1369.86	0.0006447
1379.5	0.0006
1389.15	0.0004486
1398.79	0.0004815
1408.44	0.0006404
1418.09	0.001169
1427.73	0.003179
1437.38	0.008269
1447.03	0.002269
1456.67	0.0008674
1466.32	0.0008519
1475.97	0.002249
1485.61	0.002999
1495.26	0.0007877
1504.91	0.0003948
1514.55	0.0002671
1524.2	0.0003175
1533.85	0.0003349
1543.49	0.0002743
1553.14	0.000324
1562.79	0.0003483
1572.43	0.0005268
1582.08	0.0006002
1591.73	0.0005337
1601.37	0.0003926
1611.02	0.000307
1620.67	0.0002347
1630.31	0.00018712
1639.96	0.0002714
1649.6	0.0003931
1659.25	0.0005949
1668.9	0.0005152
1678.54	0.0003021
1688.19	0.0002619
1697.84	0.000126332
1707.48	0.00017695
1717.13	0.0001834
1726.78	0.00019713
1736.42	0.00020913
1746.07	0.0002396
1755.72	0.0003803
1765.36	0.0004107
1775.01	0.0004267
1784.66	0.0003689
1794.3	0.0005761
1803.95	0.0010316
1813.6	0.0011075
1823.24	0.0005484
1832.89	0.0004637
1842.54	0.0003696
1852.18	0.0002682
1861.83	0.000291
1871.47	0.0003373
1881.12	0.0005556
1890.77	0.0007525
1900.41	0.0008115
1910.06	0.000569
1919.71	0.0002803
1929.35	0.0003373
1939	0.0003844
1948.65	0.0007266
1958.29	0.000795
1967.94	0.0008015
1977.59	0.0004069
1987.23	0.00018427
1996.88	0.00017316
2006.53	0.00018155
2016.17	0.00020822
2025.82	0.00018664
2035.47	0.00015018
2045.11	0.00013711
2054.76	0.00016887
2064.41	0.000224
2074.05	0.00017299
2083.7	0.00016265
2093.35	0.00015522
2102.99	0.00013993
2112.64	0.000126848
2122.28	0.0001708
2131.93	0.00015733
2141.58	0.000122057
2151.22	0.00014398
2160.87	0.00014494
2170.52	0.0002283
2180.16	0.0002304
2189.81	0.0002948
2199.46	0.0001807
2209.1	0.00015255
2218.75	0.00014904
2228.4	0.00015597
2238.04	0.00018721
2247.69	0.00016264
2257.34	0.00020405
2266.98	0.00017557
2276.63	0.00019768
2286.28	0.0002103
2295.92	0.00020156
2305.57	0.0001606
2315.22	0.0002888
2324.86	0.0002246
2334.51	0.00014137
2344.16	0.00016232
2353.8	8.93e-05
2363.45	1.93e-05
2373.09	0.00015316
2382.74	0.00014441
2392.39	0.00017997
2402.03	0.0002482
2411.68	0.00019097
2421.33	0.00014905
2430.97	0.00019172
2440.62	0.00016208
2450.27	0.00014672
2459.91	0.00017611
2469.56	0.00018088
2479.21	9.89e-05
2488.85	0.00018048
2498.5	0.00015668
2508.15	0.00019081
2517.79	0.0002306
2527.44	0.00014535
2537.09	0.00021637
2546.73	0.0002515
2556.38	0.0002389
2566.03	0.0002647
2575.67	0.000257
2585.32	0.0002897
2594.96	0.0002233
2604.61	0.0002715
2614.26	0.0002846
2623.9	0.00020593
2633.55	0.0002512
2643.2	0.0003095
2652.84	0.0002544
2662.49	0.0003478
2672.14	0.0003298
2681.78	0.000374
2691.43	0.0003178
2701.08	0.000262
2710.72	0.0003281
2720.37	0.0002459
2730.02	0.0002223
2739.66	0.00013963
2749.31	0.0002412
2758.96	0.00018173
2768.6	0.00020113
2778.25	0.000256
2787.9	0.00017805
2797.54	0.00015903
2807.19	0.0002295
2816.84	0.0003536
2826.48	0.0004301
2836.13	0.00015772
2845.77	0.0002264
2855.42	0.000231
2865.07	0.000388
2874.71	0.0002917
2884.36	0.0002997
2894.01	0.0003538
2903.65	0.000409
2913.3	0.0004547
2922.95	0.0003137
2932.59	0.0004196
2942.24	0.0003124
2951.89	0.00056
2961.53	0.0005202
2971.18	0.0004332
2980.83	0.0005677
2990.47	0.0009064
3000.12	0.0008937
3009.77	0.001569
3019.41	0.001649
3029.06	0.001709
3038.71	0.002019
3048.35	0.003259
3058	0.008319
3067.64	0.012579
3077.29	0.006689
3086.94	0.005009
3096.58	0.002509
3106.23	0.0011072
3115.88	0.0007802
3125.52	0.0007392
3135.17	0.0008467
3144.82	0.0009854
3154.46	0.0006608
3164.11	0.000479
3173.76	0.0004158
3183.4	0.0005207
3193.05	0.0002729
3202.7	0.0003664
3212.34	0.0003352
3221.99	0.0006158
3231.64	0.0002648
3241.28	0.0004564
3250.93	0.0004381
3260.58	0.0002354
3270.22	0.0003662
3279.87	0.00019271
3289.52	0.0003319
3299.16	0.0003536
3308.81	0.0004165
3318.45	0.0004936
3328.1	0.0003866
3337.75	0.0003913
3347.39	0.0004017
3357.04	0.0004015
3366.69	0.0003294
3376.33	0.0003061
3385.98	0.0004252
3395.63	0.0003702
3405.27	0.0002938
3414.92	0.0002431
3424.57	0.0003728
3434.21	0.0003026
3443.86	0.0004075
3453.51	0.0004007
3463.15	0.0003432
3472.8	0.0003655
3482.45	0.0004393
3492.09	0.0002771
3501.74	0.0002946
3511.39	0.0002787
3521.03	0.0002225
3530.68	0.0004868
3540.33	0.0003211
3549.97	0.0003784
3559.62	0.000302
3569.26	0.0003546
3578.91	0.0004916
3588.56	0.0002739
3598.2	0.0002843
3607.85	0.0002919
3617.5	0.0002817
3627.14	0.0003294
3636.79	0.0003412
3646.44	0.000255
3656.08	0.0002864
3665.73	0.000433
3675.38	0.0003218
3685.02	0.0004011
3694.67	0.0003579
3704.32	0.0003779
3713.96	0.0004266
3723.61	0.000318
3733.26	0.0002202
3742.9	0.0002748
3752.55	0.0003035
3762.2	0.0002716
3771.84	0.0003952
3781.49	0.0002677
3791.13	0.0003624
3800.78	0.0002969
3810.43	0.0002821
3820.07	0.000275
3829.72	0.000253
3839.37	9.83e-05
3849.01	0.00017215
3858.66	8.55e-05
3868.31	0.000275
3877.95	0.0002406
3887.6	0.0001805
3897.25	0.0002388
3906.89	0.0003199
3916.54	0.0003875
3926.19	0.0002696
3935.83	0.0002387
3945.48	0.0002714
3955.13	0.0002922
3964.77	0.00020415
3974.42	0.00021779
3984.07	0.0003409
3993.71	0.000317
