Infrared Spectrum: o,o'-BIPHENOL, 4,4',6,6'-TETRAFLUORO-
Formula: C12 H6 F4 O2
CAS: 388-14-7
State: SOLID (OIL MULL)
Class: COBLENTZ III
Instrument: BAIRD NaCl PRISM
Sampling: TRANSMISSION
Resolution: 4
Origin: WYANDOTTE CHEMICALS CORP.
MICROMETERS	TRANSMITTANCE
2.008	0.381
2.0471	0.393
2.0862	0.406
2.12531	0.421
2.16441	0.435
2.20351	0.45
2.24261	0.453
2.28171	0.458
2.32082	0.474
2.35992	0.493
2.39902	0.502
2.43812	0.515
2.47723	0.524
2.51633	0.524
2.55543	0.526
2.59453	0.546
2.63363	0.566
2.67274	0.587
2.71184	0.604
2.75094	0.605
2.79004	0.589
2.82914	0.259
2.86825	0.189
2.90735	0.294
2.94645	0.289
2.98555	0.235
3.02465	0.183
3.06376	0.199
3.10286	0.258
3.14196	0.349
3.18106	0.421
3.22017	0.47
3.25927	0.356
3.29837	0.459
3.33747	0.439
3.37657	0.234
3.41568	0.023
3.45478	0.022
3.49388	0.047
3.53298	0.061
3.57208	0.24
3.61119	0.577
3.65029	0.639
3.68939	0.647
3.72849	0.642
3.76759	0.653
3.8067	0.674
3.8458	0.686
3.8849	0.702
3.924	0.714
3.9631	0.724
4.00221	0.734
4.04131	0.75
4.08041	0.741
4.11951	0.737
4.15862	0.74
4.19772	0.758
4.23682	0.765
4.27592	0.769
4.31502	0.769
4.35413	0.775
4.39323	0.792
4.43233	0.81
4.47143	0.816
4.51053	0.818
4.54964	0.833
4.58874	0.837
4.62784	0.84
4.66694	0.85
4.70604	0.86
4.74515	0.868
4.78425	0.867
4.82335	0.861
4.86245	0.861
4.90156	0.868
4.94066	0.887
4.97976	0.895
5.01886	0.895
5.05796	0.895
5.09707	0.899
5.13617	0.908
5.17527	0.91
5.21437	0.911
5.25347	0.925
5.29258	0.924
5.33168	0.925
5.37078	0.925
5.40988	0.926
5.44898	0.925
5.48809	0.921
5.52719	0.931
5.56629	0.938
5.60539	0.938
5.6445	0.939
5.6836	0.935
5.7227	0.924
5.7618	0.905
5.8009	0.856
5.84001	0.824
5.87911	0.797
5.91821	0.801
5.95731	0.8
5.99641	0.811
6.03552	0.752
6.07462	0.634
6.11372	0.319
6.15282	0.419
6.19192	0.272
6.23103	0.17
6.27013	0.149
6.30923	0.389
6.34833	0.604
6.38743	0.704
6.42654	0.759
6.46564	0.74
6.50474	0.7
6.54384	0.626
6.58295	0.433
6.62205	0.181
6.66115	0.041
6.70025	0.041
6.73935	0.075
6.77846	0.058
6.81756	0.051
6.85666	0.079
6.89576	0.066
6.93486	0.039
6.97397	0.035
7.01307	0.066
7.05217	0.273
7.09127	0.485
7.13037	0.523
7.16948	0.458
7.20858	0.27
7.24768	0.069
7.28678	0.063
7.32589	0.079
7.36499	0.064
7.40409	0.088
7.44319	0.139
7.48229	0.182
7.5214	0.202
7.5605	0.259
7.5996	0.341
7.6387	0.4
7.6778	0.363
7.71691	0.248
7.75601	0.248
7.79511	0.289
7.83421	0.384
7.87331	0.349
7.91242	0.333
7.95152	0.372
7.99062	0.401
8.02972	0.33
8.06883	0.252
8.10793	0.162
8.14703	0.064
8.18613	0.05
8.22523	0.05
8.26434	0.051
8.30344	0.1
8.34254	0.131
8.38164	0.158
8.42074	0.241
8.45985	0.4
8.49895	0.475
8.53805	0.411
8.57715	0.23
8.61625	0.198
8.65536	0.301
8.69446	0.417
8.73356	0.506
8.77266	0.544
8.81177	0.412
8.85087	0.115
8.88997	0.09
8.92907	0.161
8.96817	0.248
9.00728	0.237
9.04638	0.148
9.08548	0.111
9.12458	0.107
9.16368	0.291
9.20279	0.503
9.24189	0.601
9.28099	0.653
9.32009	0.676
9.35919	0.686
9.3983	0.693
9.4374	0.686
9.4765	0.697
9.5156	0.72
9.5547	0.734
9.59381	0.742
9.63291	0.751
9.67201	0.751
9.71111	0.753
9.75022	0.747
9.78932	0.735
9.82842	0.714
9.86752	0.691
9.90662	0.642
9.94573	0.552
9.98483	0.363
10.0239	0.182
10.063	0.082
10.1021	0.044
10.1412	0.039
10.1803	0.044
10.2194	0.037
10.2585	0.066
10.2976	0.162
10.3367	0.292
10.3758	0.404
10.415	0.502
10.4541	0.566
10.4932	0.622
10.5323	0.662
10.5714	0.7
10.6105	0.729
10.6496	0.743
10.6887	0.752
10.7278	0.753
10.7669	0.754
10.806	0.754
10.8451	0.764
10.8842	0.776
10.9233	0.786
10.9624	0.791
11.0015	0.8
11.0406	0.807
11.0797	0.807
11.1188	0.807
11.1579	0.803
11.197	0.803
11.2361	0.78
11.2752	0.748
11.3143	0.715
11.3534	0.665
11.3925	0.613
11.4316	0.539
11.4707	0.46
11.5098	0.439
11.5489	0.432
11.588	0.319
11.6271	0.183
11.6662	0.101
11.7053	0.069
11.7444	0.098
11.7835	0.09
11.8226	0.118
11.8617	0.188
11.9008	0.292
11.9399	0.453
11.979	0.609
12.0181	0.729
12.0572	0.791
12.0963	0.821
12.1354	0.835
12.1745	0.83
12.2136	0.807
12.2527	0.765
12.2919	0.654
12.331	0.511
12.3701	0.425
12.4092	0.357
12.4483	0.311
12.4874	0.259
12.5265	0.186
12.5656	0.149
12.6047	0.15
12.6438	0.214
12.6829	0.241
12.722	0.235
12.7611	0.214
12.8002	0.213
12.8393	0.279
12.8784	0.361
12.9175	0.45
12.9566	0.498
12.9957	0.552
13.0348	0.611
13.0739	0.666
13.113	0.71
13.1521	0.737
13.1912	0.757
13.2303	0.768
13.2694	0.774
13.3085	0.774
13.3476	0.754
13.3867	0.71
13.4258	0.66
13.4649	0.604
13.504	0.512
13.5431	0.412
13.5822	0.344
13.6213	0.306
13.6604	0.299
13.6995	0.325
13.7386	0.351
13.7777	0.383
13.8168	0.416
13.8559	0.438
13.895	0.497
13.9341	0.591
13.9732	0.692
14.0123	0.745
14.0514	0.77
14.0905	0.79
14.1297	0.805
14.1688	0.821
14.2079	0.825
14.247	0.834
14.2861	0.838
14.3252	0.844
14.3643	0.843
14.4034	0.844
14.4425	0.845
14.4816	0.845
14.5207	0.84
14.5598	0.834
14.5989	0.828
14.638	0.828
14.6771	0.827
14.7162	0.816
14.7553	0.816
14.7944	0.806
14.8335	0.803
14.8726	0.795
14.9117	0.784
14.9508	0.779
14.9899	0.767
15.029	0.732
15.0681	0.689
15.1072	0.653
15.1463	0.649
15.1854	0.65
15.2245	0.644
15.2636	0.644
15.3027	0.648
15.3418	0.66
15.3809	0.669
15.42	0.672
15.4591	0.67
15.4982	0.662
15.5373	0.655
15.5764	0.651
15.6155	0.645
15.6546	0.64
15.6937	0.632
15.7328	0.615
15.7719	0.611
15.811	0.602
15.8501	0.593
15.8892	0.583
15.9283	0.569
15.9674	0.562
