Infrared Spectrum: o,o'-BIPHENOL, 4,4'-DIFLUORO-
Formula: C12 H8 F2 O2
CAS: 388-69-2
State: SOLID (OIL MULL)
Class: COBLENTZ III
Instrument: BAIRD NaCl PRISM
Sampling: TRANSMISSION
Resolution: 4
Origin: WYANDOTTE CHEMICALS CORP.
MICROMETERS	TRANSMITTANCE
2.025	0.5
2.0642	0.512
2.1034	0.529
2.1426	0.539
2.1818	0.557
2.221	0.561
2.2602	0.562
2.2994	0.577
2.3386	0.59
2.3778	0.601
2.417	0.609
2.4562	0.613
2.4954	0.618
2.5346	0.632
2.5738	0.644
2.613	0.659
2.6522	0.664
2.6914	0.67
2.7306	0.677
2.7698	0.676
2.809	0.674
2.8482	0.66
2.8874	0.643
2.9266	0.636
2.9658	0.613
3.005	0.584
3.0442	0.523
3.0834	0.401
3.1226	0.289
3.1618	0.209
3.201	0.18
3.2402	0.171
3.2794	0.166
3.3186	0.18
3.3578	0.151
3.397	0.051
3.4362	0.045
3.4754	0.1
3.5146	0.102
3.5538	0.283
3.593	0.43
3.6322	0.498
3.6714	0.507
3.7106	0.508
3.7498	0.519
3.789	0.55
3.8282	0.6
3.8674	0.623
3.9066	0.649
3.9458	0.664
3.985	0.698
4.0242	0.727
4.0634	0.74
4.1026	0.753
4.1418	0.762
4.181	0.774
4.2202	0.784
4.2594	0.792
4.2986	0.8
4.3378	0.812
4.377	0.828
4.4162	0.848
4.4554	0.852
4.4946	0.861
4.5338	0.862
4.573	0.865
4.6122	0.87
4.6514	0.87
4.6906	0.872
4.7298	0.876
4.769	0.879
4.8082	0.882
4.8474	0.888
4.8866	0.894
4.9258	0.898
4.965	0.9
5.0042	0.899
5.0434	0.893
5.0826	0.898
5.1218	0.909
5.161	0.912
5.2002	0.914
5.2394	0.915
5.2786	0.921
5.3178	0.926
5.357	0.92
5.3962	0.884
5.4354	0.878
5.4746	0.91
5.5138	0.926
5.553	0.925
5.5922	0.93
5.6314	0.927
5.6706	0.925
5.7098	0.903
5.749	0.883
5.7882	0.871
5.8274	0.877
5.8666	0.878
5.9058	0.863
5.945	0.852
5.9842	0.845
6.0234	0.81
6.0626	0.811
6.1018	0.726
6.141	0.693
6.1802	0.751
6.2194	0.723
6.2586	0.54
6.2978	0.588
6.337	0.781
6.3762	0.801
6.4154	0.824
6.4546	0.812
6.4938	0.802
6.533	0.762
6.5722	0.509
6.6114	0.279
6.6506	0.111
6.6898	0.112
6.729	0.292
6.7682	0.289
6.8074	0.164
6.8466	0.18
6.8858	0.268
6.925	0.333
6.9642	0.202
7.0034	0.093
7.0426	0.243
7.0818	0.488
7.121	0.59
7.1602	0.551
7.1994	0.363
7.2386	0.223
7.2778	0.269
7.317	0.35
7.3562	0.406
7.3954	0.442
7.4346	0.475
7.4738	0.534
7.513	0.615
7.5522	0.686
7.5914	0.719
7.6306	0.726
7.6698	0.741
7.709	0.758
7.7482	0.773
7.7874	0.735
7.8266	0.474
7.8658	0.549
7.905	0.203
7.9442	0.078
7.9834	0.221
8.0226	0.388
8.0618	0.392
8.101	0.318
8.1402	0.344
8.1794	0.393
8.2186	0.449
8.2578	0.47
8.297	0.377
8.3362	0.267
8.3754	0.234
8.4146	0.238
8.4538	0.273
8.493	0.382
8.5322	0.473
8.5714	0.452
8.6106	0.191
8.6498	0.431
8.689	0.601
8.7282	0.672
8.7674	0.694
8.8066	0.7
8.8458	0.602
8.885	0.651
8.9242	0.708
8.9634	0.726
9.0026	0.737
9.0418	0.745
9.081	0.754
9.1202	0.762
9.1594	0.776
9.1986	0.784
9.2378	0.791
9.277	0.795
9.3162	0.811
9.3554	0.811
9.3946	0.816
9.4338	0.817
9.473	0.818
9.5122	0.817
9.5514	0.806
9.5906	0.77
9.6298	0.752
9.669	0.813
9.7082	0.822
9.7474	0.821
9.7866	0.817
9.8258	0.819
9.865	0.83
9.9042	0.835
9.9434	0.845
9.9826	0.849
10.0218	0.859
10.061	0.857
10.1002	0.859
10.1394	0.859
10.1786	0.856
10.2178	0.854
10.257	0.854
10.2962	0.846
10.3354	0.84
10.3746	0.819
10.4138	0.786
10.453	0.709
10.4922	0.571
10.5314	0.529
10.5706	0.713
10.6098	0.811
10.649	0.835
10.6882	0.843
10.7274	0.83
10.7666	0.812
10.8058	0.808
10.845	0.819
10.8842	0.841
10.9234	0.849
10.9626	0.851
11.0018	0.854
11.041	0.852
11.0802	0.849
11.1194	0.844
11.1586	0.839
11.1978	0.83
11.237	0.812
11.2762	0.778
11.3154	0.625
11.3546	0.58
11.3938	0.738
11.433	0.769
11.4722	0.737
11.5114	0.571
11.5506	0.428
11.5898	0.379
11.629	0.138
11.6682	0.341
11.7074	0.632
11.7466	0.726
11.7858	0.716
11.825	0.591
11.8642	0.62
11.9034	0.725
11.9426	0.748
11.9818	0.75
12.021	0.745
12.0602	0.73
12.0994	0.709
12.1386	0.671
12.1778	0.618
12.217	0.512
12.2562	0.343
12.2954	0.137
12.3346	0.127
12.3738	0.182
12.413	0.187
12.4522	0.262
12.4914	0.463
12.5306	0.577
12.5698	0.613
12.609	0.61
12.6482	0.598
12.6874	0.562
12.7266	0.513
12.7658	0.422
12.805	0.341
12.8442	0.303
12.8834	0.334
12.9226	0.311
12.9618	0.169
13.001	0.125
13.0402	0.289
13.0794	0.469
13.1186	0.553
13.1578	0.61
13.197	0.654
13.2362	0.685
13.2754	0.7
13.3146	0.712
13.3538	0.716
13.393	0.719
13.4322	0.718
13.4714	0.716
13.5106	0.716
13.5498	0.709
13.589	0.704
13.6282	0.68
13.6674	0.649
13.7066	0.632
13.7458	0.642
13.785	0.653
13.8242	0.67
13.8634	0.671
13.9026	0.674
13.9418	0.681
13.981	0.685
14.0202	0.697
14.0594	0.703
14.0986	0.713
14.1378	0.719
14.177	0.719
14.2162	0.698
14.2554	0.672
14.2946	0.643
14.3338	0.604
14.373	0.53
14.4122	0.471
14.4514	0.512
14.4906	0.6
14.5298	0.658
14.569	0.677
14.6082	0.699
14.6474	0.707
14.6866	0.716
14.7258	0.723
14.765	0.723
14.8042	0.732
14.8434	0.729
14.8826	0.73
14.9218	0.732
14.961	0.734
15.0002	0.73
15.0394	0.715
15.0786	0.708
15.1178	0.707
15.157	0.724
15.1962	0.73
15.2354	0.729
15.2746	0.724
15.3138	0.72
15.353	0.714
15.3922	0.704
15.4314	0.683
15.4706	0.675
15.5098	0.669
15.549	0.662
15.5882	0.66
15.6274	0.661
15.6666	0.66
15.7058	0.656
15.745	0.653
15.7842	0.644
15.8234	0.638
15.8626	0.629
15.9018	0.625
15.941	0.62
15.9802	0.615
