Infrared Spectrum: 2-NITRO-3,4,6-TRIFLUOROACETANILIDE
Formula: C8 H5 F3 N2 O3
CAS: 388-11-4
State: SOLID (0.8 mg / 650 KBr DISC)
Class: COBLENTZ III
Instrument: PERKIN-ELMER 21 (GRATING)
Instrument parameters: FILTER CHANGE AT ABOUT 1090 CM^-^1.
Sampling: TRANSMISSION
Resolution: 2
Origin: SOUTHERN RESEARCH INSTITUTE
1/CM	TRANSMITTANCE
608.05	0.901
616.659	0.8919
625.268	0.8913
633.876	0.8634
642.485	0.803
651.094	0.745
659.703	0.7593
668.311	0.7388
676.92	0.8095
685.529	0.8585
694.138	0.8845
702.746	0.8752
711.355	0.8105
719.964	0.5999
728.573	0.8553
737.182	0.7799
745.79	0.647
754.399	0.7602
763.008	0.5569
771.617	0.8044
780.225	0.7954
788.834	0.585
797.443	0.9169
806.052	0.9267
814.66	0.936
823.269	0.9302
831.878	0.9248
840.487	0.9043
849.095	0.8654
857.704	0.798
866.313	0.5546
874.922	0.8355
883.531	0.9054
892.139	0.906
900.748	0.9013
909.357	0.8984
917.966	0.888
926.574	0.8668
935.183	0.8399
943.792	0.7781
952.401	0.6695
961.009	0.5236
969.618	0.4329
978.227	0.764
986.836	0.816
995.445	0.8008
1004.05	0.7721
1012.66	0.683
1021.27	0.5636
1029.88	0.6123
1038.49	0.752
1047.1	0.819
1055.71	0.8469
1064.31	0.8597
1072.92	0.869
1081.53	0.869
1090.14	0.8654
1098.75	0.8608
1107.36	0.8531
1115.97	0.8279
1124.58	0.7801
1133.18	0.7003
1141.79	0.5898
1150.4	0.809
1159.01	0.8042
1167.62	0.7685
1176.23	0.7262
1184.84	0.6355
1193.45	0.5858
1202.05	0.789
1210.66	0.7604
1219.27	0.7198
1227.88	0.6678
1236.49	0.5644
1245.1	0.3614
1253.71	0.4467
1262.32	0.386
1270.93	0.4093
1279.53	0.5613
1288.14	0.594
1296.75	0.559
1305.36	0.5662
1313.97	0.6453
1322.58	0.665
1331.19	0.6446
1339.8	0.5663
1348.4	0.4777
1357.01	0.312
1365.62	0.2899
1374.23	0.3051
1382.84	0.3736
1391.45	0.4171
1400.06	0.5553
1408.67	0.614
1417.27	0.599
1425.88	0.56
1434.49	0.5222
1443.1	0.4089
1451.71	0.3868
1460.32	0.6762
1468.93	0.6532
1477.54	0.5908
1486.14	0.5177
1494.75	0.3889
1503.36	0.2295
1511.97	0.1821
1520.58	0.165
1529.19	0.1929
1537.8	0.2596
1546.41	0.2043
1555.01	0.1077
1563.62	0.1411
1572.23	0.1859
1580.84	0.3977
1589.45	0.4987
1598.06	0.5943
1606.67	0.6235
1615.28	0.6297
1623.88	0.5967
1632.49	0.5458
1641.1	0.601
1649.71	0.6026
1658.32	0.5971
1666.93	0.5317
1675.54	0.3672
1684.15	0.2261
1692.75	0.2661
1701.36	0.4349
1709.97	0.4896
1718.58	0.5565
1727.19	0.6072
1735.8	0.6542
1744.41	0.6926
1753.02	0.7321
1761.62	0.754
1770.23	0.77
1778.84	0.7824
1787.45	0.7954
1796.06	0.8069
1804.67	0.8163
1813.28	0.835
1821.89	0.8352
1830.49	0.838
1839.1	0.8549
1847.71	0.854
1856.32	0.855
1864.93	0.858
1873.54	0.8598
1882.15	0.861
1890.76	0.863
1899.37	0.866
1907.97	0.868
1916.58	0.8716
1925.19	0.879
1933.8	0.879
1942.41	0.876
1951.02	0.8703
1959.63	0.8788
1968.24	0.8737
1976.84	0.885
1985.45	0.881
1994.06	0.8866
2002.67	0.894
2011.28	0.8937
2019.89	0.891
2028.5	0.89
2037.11	0.89
2045.71	0.889
2054.32	0.89
2062.93	0.8975
2071.54	0.903
2080.15	0.9
2088.76	0.894
2097.37	0.894
2105.98	0.895
2114.58	0.897
2123.19	0.899
2131.8	0.901
2140.41	0.902
2149.02	0.903
2157.63	0.905
2166.24	0.8998
2174.85	0.897
2183.45	0.902
2192.06	0.905
2200.67	0.9033
2209.28	0.905
2217.89	0.905
2226.5	0.906
2235.11	0.906
2243.72	0.906
2252.32	0.907
2260.93	0.9062
2269.54	0.901
2278.15	0.905
2286.76	0.905
2295.37	0.9022
2303.98	0.902
2312.59	0.8995
2321.19	0.9
2329.8	0.9018
2338.41	0.899
2347.02	0.8987
2355.63	0.8958
2364.24	0.881
2372.85	0.8895
2381.46	0.892
2390.06	0.892
2398.67	0.895
2407.28	0.894
2415.89	0.8957
2424.5	0.8918
2433.11	0.8973
2441.72	0.9
2450.33	0.8942
2458.93	0.8908
2467.54	0.885
2476.15	0.885
2484.76	0.884
2493.37	0.8843
2501.98	0.8902
2510.59	0.892
2519.2	0.892
2527.81	0.8918
2536.41	0.8847
2545.02	0.881
2553.63	0.8775
2562.24	0.871
2570.85	0.8707
2579.46	0.8713
2588.07	0.8732
2596.68	0.877
2605.28	0.8728
2613.89	0.869
2622.5	0.875
2631.11	0.8738
2639.72	0.871
2648.33	0.8728
2656.94	0.869
2665.55	0.867
2674.15	0.871
2682.76	0.875
2691.37	0.8688
2699.98	0.8605
2708.59	0.8597
2717.2	0.861
2725.81	0.861
2734.42	0.86
2743.02	0.8455
2751.63	0.8348
2760.24	0.8432
2768.85	0.8452
2777.46	0.85
2786.07	0.8562
2794.68	0.8542
2803.29	0.8512
2811.89	0.851
2820.5	0.845
2829.11	0.8458
2837.72	0.8398
2846.33	0.835
2854.94	0.833
2863.55	0.83
2872.16	0.832
2880.76	0.8268
2889.37	0.8143
2897.98	0.7981
2906.59	0.7865
2915.2	0.7795
2923.81	0.7853
2932.42	0.791
2941.03	0.791
2949.63	0.7952
2958.24	0.7948
2966.85	0.7888
2975.46	0.7828
2984.07	0.7693
2992.68	0.7568
3001.29	0.7447
3009.9	0.7332
3018.5	0.729
3027.11	0.731
3035.72	0.7272
3044.33	0.7322
3052.94	0.7332
3061.55	0.729
3070.16	0.7191
3078.77	0.6923
3087.37	0.6537
3095.98	0.6497
3104.59	0.6983
3113.2	0.711
3121.81	0.7008
3130.42	0.6865
3139.03	0.6762
3147.64	0.687
3156.25	0.6825
3164.85	0.6592
3173.46	0.6343
3182.07	0.6045
3190.68	0.585
3199.29	0.5683
3207.9	0.5527
3216.51	0.5325
3225.12	0.5013
3233.72	0.4728
3242.33	0.4288
3250.94	0.3787
3259.55	0.3443
3268.16	0.3282
3276.77	0.3435
3285.38	0.3647
3293.99	0.4085
3302.59	0.434
3311.2	0.482
3319.81	0.5108
3328.42	0.5515
3337.03	0.5783
3345.64	0.6022
3354.25	0.6253
3362.86	0.6387
3371.46	0.6445
3380.07	0.6592
3388.68	0.6632
3397.29	0.67
3405.9	0.6712
3414.51	0.6812
3423.12	0.6862
3431.73	0.6923
3440.33	0.697
3448.94	0.697
3457.55	0.7085
3466.16	0.7167
3474.77	0.7153
3483.38	0.7218
3491.99	0.7293
3500.6	0.7403
3509.2	0.7465
3517.81	0.7525
3526.42	0.7552
3535.03	0.7625
3543.64	0.772
3552.25	0.773
3560.86	0.7782
3569.47	0.7872
3578.07	0.795
3586.68	0.8002
3595.29	0.8062
3603.9	0.813
3612.51	0.827
3621.12	0.8295
3629.73	0.845
3638.34	0.8458
3646.94	0.846
3655.55	0.85
3664.16	0.8547
3672.77	0.8608
3681.38	0.86
3689.99	0.8608
3698.6	0.8558
3707.21	0.8542
3715.81	0.8635
3724.42	0.867
3733.03	0.872
3741.64	0.8792
3750.25	0.88
3758.86	0.8748
3767.47	0.868
3776.08	0.8712
3784.69	0.8785
3793.29	0.8863
3801.9	0.8827
3810.51	0.8858
3819.12	0.881
