Infrared Spectrum: 2,3,3-TRICHLOROACRYLIC ACID, PENTACHLOROPHENYL ESTER
Formula: C9 Cl8 O2
CAS: 3881-57-0
State: SOLUTION (10% IN CCl4 FOR 5000-1350 CM^-^1, 10% IN CS2 FOR 1350-625 CM^-^1)
Class: COBLENTZ
Instrument: Not specified, most likely a prism, grating, or hybrid spectrometer.
Sampling: TRANSMISSION
Path length: 0.01 CM, 0.01 CM
Resolution: 4
Origin: DOW CHEMICAL COMPANY
MICROMETERS	TRANSMITTANCE
2.026	0.857
2.06522	0.858
2.10443	0.86
2.14365	0.862
2.18287	0.863
2.22208	0.863
2.2613	0.867
2.30052	0.868
2.33973	0.87
2.37895	0.87
2.41817	0.871
2.45739	0.873
2.4966	0.876
2.53582	0.878
2.57504	0.873
2.61425	0.873
2.65347	0.876
2.69269	0.878
2.7319	0.875
2.77112	0.873
2.81034	0.86
2.84955	0.85
2.88877	0.837
2.92799	0.828
2.9672	0.824
3.00642	0.829
3.04564	0.837
3.08485	0.846
3.12407	0.855
3.16329	0.865
3.2025	0.867
3.24172	0.868
3.28094	0.868
3.32016	0.871
3.35937	0.875
3.39859	0.87
3.43781	0.876
3.47702	0.881
3.51624	0.881
3.55546	0.886
3.59467	0.883
3.63389	0.878
3.67311	0.883
3.71232	0.889
3.75154	0.893
3.79076	0.894
3.82997	0.897
3.86919	0.899
3.90841	0.899
3.94762	0.897
3.98684	0.897
4.02606	0.901
4.06528	0.901
4.10449	0.899
4.14371	0.899
4.18293	0.897
4.22214	0.888
4.26136	0.88
4.30058	0.878
4.33979	0.88
4.37901	0.883
4.41823	0.889
4.45744	0.891
4.49666	0.896
4.53588	0.902
4.57509	0.904
4.61431	0.902
4.65353	0.904
4.69274	0.901
4.73196	0.897
4.77118	0.897
4.81039	0.901
4.84961	0.899
4.88883	0.896
4.92805	0.899
4.96726	0.897
5.00648	0.896
5.0457	0.897
5.08491	0.894
5.12413	0.888
5.16335	0.896
5.20256	0.899
5.24178	0.897
5.281	0.893
5.32021	0.896
5.35943	0.894
5.39865	0.889
5.43786	0.878
5.47708	0.871
5.5163	0.858
5.55551	0.786
5.59473	0.512
5.63395	0.275
5.67317	0.282
5.71238	0.562
5.7516	0.786
5.79082	0.828
5.83003	0.842
5.86925	0.855
5.90847	0.858
5.94768	0.86
5.9869	0.865
6.02612	0.858
6.06533	0.839
6.10455	0.816
6.14377	0.789
6.18298	0.695
6.2222	0.508
6.26142	0.366
6.30063	0.44
6.33985	0.471
6.37907	0.416
6.41828	0.296
6.4575	0.299
6.49672	0.406
6.53594	0.499
6.57515	0.612
6.61437	0.687
6.65359	0.76
6.6928	0.799
6.73202	0.811
6.77124	0.828
6.81045	0.837
6.84967	0.839
6.88889	0.834
6.9281	0.826
6.96732	0.813
7.00654	0.787
7.04575	0.742
7.08497	0.67
7.12419	0.521
7.1634	0.205
7.20262	0.047
7.24184	0.141
7.28106	0.233
7.32027	0.123
7.35949	0.486
7.39871	0.705
7.43792	0.753
7.47714	0.752
7.51636	0.742
7.55557	0.748
7.59479	0.745
7.63401	0.73
7.67322	0.729
7.71244	0.721
7.75166	0.719
7.79087	0.717
7.83009	0.675
7.86931	0.615
7.90852	0.583
7.94774	0.594
7.98696	0.551
8.02618	0.478
8.06539	0.487
8.10461	0.44
8.14383	0.265
8.18304	0.197
8.22226	0.213
8.26148	0.196
8.30069	0.085
8.33991	0.034
8.37913	0.076
8.41834	0.265
8.45756	0.44
8.49678	0.568
8.53599	0.625
8.57521	0.648
8.61443	0.638
8.65364	0.611
8.69286	0.565
8.73208	0.487
8.77129	0.393
8.81051	0.27
8.84973	0.202
8.88895	0.251
8.92816	0.329
8.96738	0.439
9.0066	0.573
9.04581	0.654
9.08503	0.711
9.12425	0.745
9.16346	0.76
9.20268	0.771
9.2419	0.777
9.28111	0.781
9.32033	0.782
9.35955	0.781
9.39876	0.777
9.43798	0.763
9.4772	0.735
9.51641	0.661
9.55563	0.528
9.59485	0.359
9.63407	0.241
9.67328	0.319
9.7125	0.398
9.75172	0.437
9.79093	0.499
9.83015	0.638
9.86937	0.721
9.90858	0.766
9.9478	0.786
9.98702	0.797
10.0262	0.797
10.0655	0.753
10.1047	0.685
10.1439	0.661
10.1831	0.641
10.2223	0.609
10.2615	0.695
10.3008	0.782
10.34	0.813
10.3792	0.821
10.4184	0.81
10.4576	0.776
10.4968	0.76
10.5361	0.797
10.5753	0.802
10.6145	0.766
10.6537	0.737
10.6929	0.753
10.7321	0.763
10.7714	0.75
10.8106	0.687
10.8498	0.517
10.889	0.306
10.9282	0.205
10.9674	0.388
11.0067	0.617
11.0459	0.701
11.0851	0.74
11.1243	0.752
11.1635	0.75
11.2027	0.745
11.242	0.726
11.2812	0.698
11.3204	0.654
11.3596	0.593
11.3988	0.531
11.438	0.517
11.4773	0.508
11.5165	0.512
11.5557	0.541
11.5949	0.544
11.6341	0.504
11.6733	0.435
11.7126	0.34
11.7518	0.356
11.791	0.497
11.8302	0.623
11.8694	0.67
11.9086	0.687
11.9479	0.698
11.9871	0.711
12.0263	0.717
12.0655	0.717
12.1047	0.709
12.1439	0.685
12.1832	0.633
12.2224	0.529
12.2616	0.487
12.3008	0.482
12.34	0.47
12.3792	0.388
12.4185	0.319
12.4577	0.39
12.4969	0.523
12.5361	0.58
12.5753	0.589
12.6145	0.586
12.6538	0.601
12.693	0.63
12.7322	0.656
12.7714	0.67
12.8106	0.675
12.8498	0.677
12.8891	0.664
12.9283	0.658
12.9675	0.666
13.0067	0.679
13.0459	0.688
13.0851	0.696
13.1244	0.7
13.1636	0.698
13.2028	0.683
13.242	0.661
13.2812	0.63
13.3204	0.594
13.3597	0.549
13.3989	0.508
13.4381	0.479
13.4773	0.468
13.5165	0.471
13.5557	0.486
13.595	0.492
13.6342	0.502
13.6734	0.5
13.7126	0.489
13.7518	0.46
13.791	0.427
13.8303	0.397
13.8695	0.379
13.9087	0.359
13.9479	0.341
13.9871	0.337
14.0264	0.374
14.0656	0.429
14.1048	0.478
14.144	0.512
14.1832	0.52
14.2224	0.523
14.2617	0.526
14.3009	0.541
14.3401	0.562
14.3793	0.578
14.4185	0.588
14.4577	0.598
14.497	0.599
14.5362	0.601
14.5754	0.601
14.6146	0.594
14.6538	0.586
14.693	0.572
14.7323	0.551
14.7715	0.538
14.8107	0.531
14.8499	0.531
14.8891	0.531
14.9283	0.533
14.9676	0.538
15.0068	0.536
15.046	0.528
15.0852	0.52
15.1244	0.51
15.1636	0.502
15.2029	0.495
15.2421	0.489
15.2813	0.481
15.3205	0.471
15.3597	0.46
15.3989	0.452
15.4382	0.442
15.4774	0.434
15.5166	0.432
15.5558	0.432
15.595	0.431
15.6342	0.429
15.6735	0.426
15.7127	0.418
15.7519	0.413
15.7911	0.41
15.8303	0.405
15.8695	0.405
15.9088	0.411
15.948	0.421
15.9872	0.447
