Infrared Spectrum: 2-thiazoline, 2-amino-, hydrochloride
Formula: C3 H7 Cl N2 S
CAS: 3882-98-2
State: SOLID (1 mg / 650 mg KBr DISC)
Class: COBLENTZ III
Instrument: PERKIN-ELMER 21 (GRATING)
Instrument parameters: FILTER CHANGE ABOUT 1020 CM^-^1
Resolution: 2
Origin: SOUTHERN RESEARCH INSTITUTE
1/CM	TRANSMITTANCE
602.663	0.5992
611.68	0.5906
620.698	0.5734
629.715	0.5496
638.732	0.517
647.749	0.4845
656.767	0.4345
665.784	0.3822
674.801	0.3429
683.818	0.3369
692.836	0.3395
701.853	0.3688
710.87	0.4329
719.888	0.5253
728.905	0.6024
737.922	0.67
746.939	0.6879
755.957	0.6983
764.974	0.7045
773.991	0.7102
783.009	0.7216
792.026	0.7376
801.043	0.7506
810.06	0.7607
819.078	0.7625
828.095	0.7598
837.112	0.7524
846.129	0.7396
855.147	0.7214
864.164	0.7037
873.181	0.714
882.199	0.753
891.216	0.7755
900.233	0.7809
909.25	0.7791
918.268	0.7695
927.285	0.7494
936.302	0.7247
945.32	0.7909
954.337	0.7879
963.354	0.7784
972.371	0.7668
981.389	0.7528
990.406	0.7411
999.423	0.731
1008.44	0.7003
1017.46	0.6007
1026.48	0.6673
1035.49	0.6946
1044.51	0.7437
1053.53	0.741
1062.54	0.7333
1071.56	0.7272
1080.58	0.7241
1089.6	0.7218
1098.61	0.7191
1107.63	0.7148
1116.65	0.7124
1125.67	0.7132
1134.68	0.7118
1143.7	0.7054
1152.72	0.6972
1161.73	0.6826
1170.75	0.6656
1179.77	0.6469
1188.79	0.64
1197.8	0.6223
1206.82	0.5958
1215.84	0.5902
1224.86	0.623
1233.87	0.6103
1242.89	0.5875
1251.91	0.5557
1260.92	0.4985
1269.94	0.4852
1278.96	0.5537
1287.98	0.5095
1296.99	0.4293
1306.01	0.4576
1315.03	0.6347
1324.05	0.6507
1333.06	0.6405
1342.08	0.623
1351.1	0.61
1360.11	0.5979
1369.13	0.5889
1378.15	0.5823
1387.17	0.572
1396.18	0.5597
1405.2	0.5429
1414.22	0.5215
1423.24	0.4797
1432.25	0.4493
1441.27	0.4525
1450.29	0.5536
1459.3	0.6745
1468.32	0.6995
1477.34	0.6356
1486.36	0.6242
1495.37	0.7209
1504.39	0.7154
1513.41	0.7084
1522.43	0.7009
1531.44	0.6934
1540.46	0.6862
1549.48	0.6658
1558.49	0.6329
1567.51	0.6167
1576.53	0.5476
1585.55	0.4806
1594.56	0.5056
1603.58	0.5795
1612.6	0.5254
1621.62	0.454
1630.63	0.3741
1639.65	0.2568
1648.67	0.1509
1657.68	0.1313
1666.7	0.1853
1675.72	0.4227
1684.74	0.6397
1693.75	0.7171
1702.77	0.8004
1711.79	0.8262
1720.81	0.8373
1729.82	0.8438
1738.84	0.8484
1747.86	0.8507
1756.87	0.8511
1765.89	0.8502
1774.91	0.8485
1783.93	0.847
1792.94	0.8457
1801.96	0.8436
1810.98	0.8413
1820	0.8391
1829.01	0.8377
1838.03	0.836
1847.05	0.8334
1856.06	0.8302
1865.08	0.8263
1874.1	0.8234
1883.12	0.8209
1892.13	0.8187
1901.15	0.8164
1910.17	0.8144
1919.19	0.8116
1928.2	0.808
1937.22	0.8042
1946.24	0.8007
1955.25	0.7974
1964.27	0.7913
1973.29	0.7829
1982.31	0.7837
1991.32	0.7867
2000.34	0.7869
2009.36	0.7821
2018.38	0.7761
2027.39	0.7702
2036.41	0.7644
2045.43	0.7598
2054.44	0.7585
2063.46	0.7593
2072.48	0.7596
2081.5	0.7578
2090.51	0.7525
2099.53	0.7471
2108.55	0.744
2117.57	0.7414
2126.58	0.7389
2135.6	0.7365
2144.62	0.7359
2153.63	0.7374
2162.65	0.7375
2171.67	0.7368
2180.69	0.7357
2189.7	0.7345
2198.72	0.7331
2207.74	0.7308
2216.76	0.7285
2225.77	0.725
2234.79	0.7213
2243.81	0.7162
2252.82	0.7118
2261.84	0.7082
2270.86	0.7064
2279.88	0.7049
2288.89	0.7029
2297.91	0.7029
2306.93	0.7025
2315.95	0.7022
2324.96	0.7023
2333.98	0.703
2343	0.703
2352.01	0.6969
2361.03	0.6928
2370.05	0.6924
2379.07	0.6919
2388.08	0.6894
2397.1	0.6854
2406.12	0.6812
2415.14	0.6766
2424.15	0.6708
2433.17	0.665
2442.19	0.6586
2451.2	0.6521
2460.22	0.6455
2469.24	0.6395
2478.26	0.6336
2487.27	0.6273
2496.29	0.6206
2505.31	0.6145
2514.33	0.6113
2523.34	0.6095
2532.36	0.606
2541.38	0.6034
2550.39	0.5994
2559.41	0.595
2568.43	0.5896
2577.45	0.5835
2586.46	0.5808
2595.48	0.5801
2604.5	0.579
2613.52	0.5767
2622.53	0.5708
2631.55	0.5634
2640.57	0.556
2649.58	0.5486
2658.6	0.5419
2667.62	0.5359
2676.64	0.5279
2685.65	0.5248
2694.67	0.5226
2703.69	0.5171
2712.71	0.5033
2721.72	0.4887
2730.74	0.4794
2739.76	0.472
2748.78	0.4646
2757.79	0.4586
2766.81	0.4551
2775.83	0.4511
2784.84	0.445
2793.86	0.4353
2802.88	0.4238
2811.9	0.4125
2820.91	0.4014
2829.93	0.3893
2838.95	0.377
2847.97	0.3655
2856.98	0.3574
2866	0.3491
2875.02	0.3407
2884.03	0.3327
2893.05	0.324
2902.07	0.3137
2911.09	0.3024
2920.1	0.2907
2929.12	0.2797
2938.14	0.2695
2947.16	0.2649
2956.17	0.2626
2965.19	0.2568
2974.21	0.2484
2983.22	0.2404
2992.24	0.2312
3001.26	0.227
3010.28	0.2275
3019.29	0.2294
3028.31	0.2323
3037.33	0.2373
3046.35	0.2428
3055.36	0.2492
3064.38	0.2577
3073.4	0.2668
3082.41	0.2763
3091.43	0.2867
3100.45	0.2968
3109.47	0.309
3118.48	0.3216
3127.5	0.3343
3136.52	0.3439
3145.54	0.3572
3154.55	0.3647
3163.57	0.3669
3172.59	0.3666
3181.6	0.362
3190.62	0.353
3199.64	0.3398
3208.66	0.3245
3217.67	0.3108
3226.69	0.2989
3235.71	0.2878
3244.73	0.2772
3253.74	0.2686
3262.76	0.2621
3271.78	0.2598
3280.79	0.263
3289.81	0.2788
3298.83	0.2924
3307.85	0.3154
3316.86	0.3565
3325.88	0.419
3334.9	0.506
3343.92	0.5394
3352.93	0.5655
3361.95	0.594
3370.97	0.6175
3379.98	0.6509
3389	0.6738
3398.02	0.6829
3407.04	0.6875
3416.05	0.6908
3425.07	0.694
3434.09	0.6963
3443.11	0.697
3452.12	0.697
3461.14	0.6981
3470.16	0.701
3479.17	0.704
3488.19	0.7061
3497.21	0.7082
3506.23	0.7104
3515.24	0.7123
3524.26	0.7142
3533.28	0.716
3542.3	0.7181
3551.31	0.7204
3560.33	0.7231
3569.35	0.7259
3578.36	0.727
3587.38	0.7299
3596.4	0.7347
3605.42	0.735
3614.43	0.7337
3623.45	0.7332
3632.47	0.7345
3641.49	0.7359
3650.5	0.7372
3659.52	0.7381
3668.54	0.7389
3677.55	0.7388
3686.57	0.7382
3695.59	0.7375
3704.61	0.7367
3713.62	0.736
3722.64	0.7357
3731.66	0.7357
3740.68	0.7351
3749.69	0.7343
3758.71	0.7334
3767.73	0.7325
3776.74	0.7327
3785.76	0.7331
3794.78	0.7339
3803.8	0.7345
3812.81	0.735
3821.83	0.7347
3830.85	0.7338
3839.87	0.7309
3848.88	0.7254
3857.9	0.7205
3866.92	0.7198
3875.93	0.7187
3884.95	0.7177
3893.97	0.7164
3902.99	0.7145
