Infrared Spectrum: 1H-3-Benzazepine, 4-acetamido-3-acetyl-2,3-dihydro-
Formula: C14 H16 N2 O2
CAS: 3884-08-0
State: SOLID (SPLIT MULL), FLUOROLUBE FOR 3800-1330 CM^-^1, NUJOL FOR 1330-450 CM^-^1
Class: COBLENTZ III
Instrument: DOW KBr FOREPRISM-GRATING
Instrument parameters: BLAZED AT 3.5, 12.0, 20.0 MICRON AND CHANGED AT 5.0, 7.5, 14.9 MICRON
Sampling: TRANSMISSION
Resolution: 2
Origin: DOW CHEMICAL COMPANY
1/CM	TRANSMITTANCE
469	0.7948
478	0.8309
487	0.8425
496	0.8405
505	0.8371
514	0.8325
523	0.8268
532	0.8093
541	0.7951
550	0.6792
559	0.7868
568	0.4867
577	0.8114
586	0.8224
595	0.7898
604	0.5731
613	0.7658
622	0.7512
631	0.8501
640	0.8678
649	0.8713
658	0.8577
667	0.7606
676	0.8348
685	0.861
694	0.8571
703	0.8461
712	0.8168
721	0.7495
730	0.6787
739	0.5524
748	0.3709
757	0.5208
766	0.6404
775	0.6765
784	0.7976
793	0.8621
802	0.8784
811	0.8894
820	0.8925
829	0.8777
838	0.8315
847	0.7782
856	0.8777
865	0.8601
874	0.7941
883	0.7839
892	0.8657
901	0.8566
910	0.8778
919	0.8739
928	0.8686
937	0.8578
946	0.7964
955	0.7494
964	0.8268
973	0.8435
982	0.8255
991	0.7918
1000	0.7357
1009	0.6331
1018	0.6807
1027	0.7837
1036	0.6806
1045	0.7903
1054	0.8407
1063	0.8497
1072	0.852
1081	0.8538
1090	0.8612
1099	0.8535
1108	0.7924
1117	0.739
1126	0.8361
1135	0.8408
1144	0.8299
1153	0.8043
1162	0.7928
1171	0.6521
1180	0.6341
1189	0.6745
1198	0.5876
1207	0.5823
1216	0.7022
1225	0.6567
1234	0.4696
1243	0.2842
1252	0.4756
1261	0.5662
1270	0.265
1279	0.137
1288	0.4708
1297	0.6475
1306	0.6037
1315	0.4534
1324	0.4266
1333	0.378
1342	0.4386
1351	0.5092
1360	0.4592
1369	0.382
1378	0.4229
1387	0.4209
1396	0.4165
1405	0.5316
1414	0.6258
1423	0.6026
1432	0.5738
1441	0.574
1450	0.5555
1459	0.605
1468	0.5814
1477	0.579
1486	0.5345
1495	0.5357
1504	0.489
1513	0.4429
1522	0.3666
1531	0.2276
1540	0.2197
1549	0.3133
1558	0.6565
1567	0.7249
1576	0.7395
1585	0.7554
1594	0.7228
1603	0.6838
1612	0.6454
1621	0.5666
1630	0.4714
1639	0.2969
1648	0.3777
1657	0.3541
1666	0.4756
1675	0.3893
1684	0.2449
1693	0.5323
1702	0.5876
1711	0.837
1720	0.8664
1729	0.8734
1738	0.8753
1747	0.8754
1756	0.8724
1765	0.8665
1774	0.8593
1783	0.8502
1792	0.8458
1801	0.8461
1810	0.8442
1819	0.8398
1828	0.8353
1837	0.832
1846	0.8278
1855	0.8268
1864	0.8239
1873	0.8209
1882	0.8189
1891	0.8168
1900	0.8135
1909	0.81
1918	0.8064
1927	0.8058
1936	0.8057
1945	0.8058
1954	0.8026
1963	0.8075
1972	0.7958
1981	0.7947
1990	0.7919
1999	0.7875
2008	0.7815
2017	0.7812
2026	0.7776
2035	0.7736
2044	0.7697
2053	0.7657
2062	0.7618
2071	0.7582
2080	0.7546
2089	0.7511
2098	0.7481
2107	0.7451
2116	0.7421
2125	0.7387
2134	0.7351
2143	0.7311
2152	0.7271
2161	0.723
2170	0.719
2179	0.7149
2188	0.7108
2197	0.7071
2206	0.7034
2215	0.6997
2224	0.6958
2233	0.6919
2242	0.6881
2251	0.6841
2260	0.6795
2269	0.6737
2278	0.6678
2287	0.6634
2296	0.6614
2305	0.6601
2314	0.6593
2323	0.6594
2332	0.6591
2341	0.6587
2350	0.6584
2359	0.6581
2368	0.6586
2377	0.659
2386	0.6592
2395	0.6591
2404	0.6591
2413	0.659
2422	0.6585
2431	0.6578
2440	0.6572
2449	0.6565
2458	0.6555
2467	0.6543
2476	0.6531
2485	0.6519
2494	0.6512
2503	0.6506
2512	0.65
2521	0.6493
2530	0.6486
2539	0.6478
2548	0.6471
2557	0.6458
2566	0.6442
2575	0.6425
2584	0.6408
2593	0.6392
2602	0.638
2611	0.6366
2620	0.6353
2629	0.634
2638	0.6324
2647	0.6301
2656	0.6279
2665	0.6256
2674	0.6234
2683	0.621
2692	0.6187
2701	0.616
2710	0.6133
2719	0.6106
2728	0.6078
2737	0.6049
2746	0.6017
2755	0.5968
2764	0.5919
2773	0.5875
2782	0.5853
2791	0.5841
2800	0.583
2809	0.5817
2818	0.5805
2827	0.5777
2836	0.5745
2845	0.5692
2854	0.5632
2863	0.5551
2872	0.545
2881	0.5229
2890	0.5049
2899	0.5485
2908	0.5457
2917	0.5366
2926	0.5244
2935	0.512
2944	0.5028
2953	0.5405
2962	0.5398
2971	0.5349
2980	0.5268
2989	0.5197
2998	0.5131
3007	0.5065
3016	0.4994
3025	0.4887
3034	0.4784
3043	0.4779
3052	0.4878
3061	0.4999
3070	0.5086
3079	0.5041
3088	0.5142
3097	0.5046
3106	0.5138
3115	0.5064
3124	0.495
3133	0.4828
3142	0.4691
3151	0.4539
3160	0.4372
3169	0.421
3178	0.4194
3187	0.4396
3196	0.4602
3205	0.463
3214	0.4442
3223	0.4264
3232	0.409
3241	0.3854
3250	0.3598
3259	0.3399
3268	0.3709
3277	0.4477
3286	0.4862
3295	0.5424
3304	0.5652
3313	0.5716
3322	0.5701
3331	0.5662
3340	0.5606
3349	0.5601
3358	0.5606
3367	0.5607
3376	0.5593
3385	0.5569
3394	0.5537
3403	0.5498
3412	0.5466
3421	0.5434
3430	0.5404
3439	0.5377
3448	0.5352
3457	0.5327
3466	0.5308
3475	0.529
3484	0.5272
3493	0.5254
3502	0.5238
3511	0.5224
3520	0.521
3529	0.5195
3538	0.5182
3547	0.5172
3556	0.5165
3565	0.5158
3574	0.5151
3583	0.5144
3592	0.514
3601	0.5135
3610	0.5131
3619	0.512
3628	0.5109
3637	0.5098
3646	0.5087
3655	0.5074
3664	0.5062
3673	0.5049
3682	0.5035
3691	0.5017
3700	0.5
3709	0.4983
3718	0.4966
3727	0.4951
3736	0.4937
3745	0.4921
3754	0.4899
3763	0.4876
3772	0.4855
3781	0.4848
3790	0.4842
3799	0.4835
