Infrared Spectrum: p-Isobutylacetophenone
Formula: C 12 H 16 O
CAS: 38861-78-8
State: gas
Origin: EPA-IR VAPOR PHASE LIBRARY
1/CM	ABSORBANCE
549.8	0.001247
559.445	0.001317
569.09	0.002517
578.734	0.008547
588.379	0.011577
598.024	0.009487
607.669	0.004477
617.313	0.001437
626.958	0.0011647
636.603	0.0010957
646.248	0.0007402
655.893	0.0006526
665.537	0.0011614
675.182	0.002357
684.827	0.003997
694.472	0.002927
704.116	0.0010923
713.761	0.0005948
723.406	0.0006639
733.051	0.0009672
742.695	0.000671
752.34	0.0007189
761.985	0.0009079
771.63	0.001617
781.275	0.003977
790.919	0.006877
800.564	0.006167
810.209	0.003217
819.854	0.003067
829.498	0.004227
839.143	0.005817
848.788	0.006667
858.433	0.004297
868.078	0.002057
877.722	0.002007
887.367	0.001727
897.012	0.0011001
906.657	0.0009816
916.301	0.001437
925.946	0.001927
935.591	0.003267
945.236	0.008307
954.88	0.011077
964.525	0.005307
974.17	0.002707
983.815	0.001897
993.46	0.001727
1003.1	0.002497
1012.75	0.005387
1022.39	0.004297
1032.04	0.001427
1041.68	0.001427
1051.33	0.001737
1060.97	0.002087
1070.62	0.003247
1080.26	0.003487
1089.91	0.002377
1099.55	0.001657
1109.2	0.002137
1118.84	0.003747
1128.49	0.002997
1138.13	0.002137
1147.78	0.002547
1157.42	0.003707
1167.07	0.005137
1176.71	0.009217
1186.36	0.013377
1196	0.006037
1205.64	0.004267
1215.29	0.004727
1224.93	0.008707
1234.58	0.013467
1244.22	0.018737
1253.87	0.046817
1263.51	0.065587
1273.16	0.023777
1282.8	0.010597
1292.45	0.007587
1302.09	0.005617
1311.74	0.003927
1321.38	0.003127
1331.03	0.003937
1340.67	0.006257
1350.32	0.012827
1359.96	0.023247
1369.61	0.015447
1379.25	0.008997
1388.9	0.008687
1398.54	0.007927
1408.18	0.009817
1417.83	0.009507
1427.47	0.006377
1437.12	0.005597
1446.76	0.005567
1456.41	0.006067
1466.05	0.006567
1475.7	0.005457
1485.34	0.003287
1494.99	0.002357
1504.63	0.002077
1514.28	0.001997
1523.92	0.001917
1533.57	0.002157
1543.21	0.002227
1552.86	0.002557
1562.5	0.003947
1572.15	0.004517
1581.79	0.003937
1591.44	0.007377
1601.08	0.017067
1610.73	0.018437
1620.37	0.007557
1630.01	0.004137
1639.66	0.003527
1649.3	0.003607
1658.95	0.004607
1668.59	0.006007
1678.24	0.009107
1687.88	0.022407
1697.53	0.063347
1707.17	0.062857
1716.82	0.018837
1726.46	0.007127
1736.11	0.004927
1745.75	0.003617
1755.4	0.002707
1765.04	0.001927
1774.69	0.001377
1784.33	0.001141
1793.98	0.0011782
1803.62	0.0011919
1813.27	0.0008593
1822.91	0.0007587
1832.55	0.0006526
1842.2	0.0005731
1851.84	0.0007173
1861.49	0.0006238
1871.13	0.0006174
1880.78	0.0008207
1890.42	0.0009784
1900.07	0.0010577
1909.71	0.0010648
1919.36	0.0009916
1929	0.0009009
1938.65	0.0009441
1948.29	0.0009315
1957.94	0.0007357
1967.58	0.0004814
1977.23	0.0004283
1986.87	0.0004061
1996.52	0.0004127
2006.16	0.0003961
2015.81	0.0003912
2025.45	0.0004373
2035.1	0.0004837
2044.74	0.0005311
2054.38	0.0003526
2064.03	0.0002973
2073.67	0.0003187
2083.32	0.0003581
2092.96	0.00030634
2102.61	0.000395
2112.25	0.00032063
2121.9	0.0003844
2131.54	0.0003431
2141.19	0.00028156
2150.83	0.0003564
2160.48	0.00033225
2170.12	0.0003653
2179.77	0.00027909
2189.41	0.0003351
2199.06	0.000399
2208.7	0.000404
2218.35	0.0005417
2227.99	0.0004279
2237.64	0.00032052
2247.28	0.00034
2256.92	0.0003491
2266.57	0.0003827
2276.21	0.0004434
2285.86	0.0003627
2295.5	0.0005455
2305.15	0.0006091
2314.79	0.0005906
2324.44	0.0004795
2334.08	0.0005523
2343.73	0.0004511
2353.37	0.0004397
2363.02	0.0003627
2372.66	0.0004669
2382.31	0.0003978
2391.95	0.0004438
2401.6	0.0004443
2411.24	0.0004104
2420.89	0.0005023
2430.53	0.0004322
2440.18	0.0004331
2449.82	0.0004796
2459.47	0.000493
2469.11	0.0003582
2478.75	0.0004394
2488.4	0.0004836
2498.04	0.0006773
2507.69	0.0006056
2517.33	0.000679
2526.98	0.0006794
2536.62	0.0004687
2546.27	0.0006003
2555.91	0.0005703
2565.56	0.0006371
2575.2	0.0007009
2584.85	0.0005931
2594.49	0.0006941
2604.14	0.0008138
2613.78	0.0007502
2623.43	0.0006656
2633.07	0.0005979
2642.72	0.0007192
2652.36	0.0007931
2662.01	0.0006807
2671.65	0.0006404
2681.29	0.0005629
2690.94	0.0005768
2700.58	0.0005691
2710.23	0.0005835
2719.87	0.0007282
2729.52	0.0011203
2739.16	0.0009464
2748.81	0.0009819
2758.45	0.0009215
2768.1	0.0010591
2777.74	0.0009945
2787.39	0.0011064
2797.03	0.001267
2806.68	0.001377
2816.32	0.001717
2825.97	0.002167
2835.61	0.002827
2845.26	0.004537
2854.9	0.006597
2864.55	0.008147
2874.19	0.012587
2883.84	0.014237
2893.48	0.012677
2903.12	0.014487
2912.77	0.018727
2922.41	0.023587
2932.06	0.024587
2941.7	0.022377
2951.35	0.023107
2960.99	0.036367
2970.64	0.042527
2980.28	0.021607
2989.93	0.007777
2999.57	0.006327
3009.22	0.006757
3018.86	0.007077
3028.51	0.008207
3038.15	0.008357
3047.8	0.005697
3057.44	0.004837
3067.09	0.004617
3076.73	0.004827
3086.38	0.004977
3096.02	0.003887
3105.67	0.002617
3115.31	0.002077
3124.95	0.001617
3134.6	0.001307
3144.24	0.000986
3153.89	0.0008897
3163.53	0.0010125
3173.18	0.000741
3182.82	0.0008222
3192.47	0.0005959
3202.11	0.0006843
3211.76	0.0006738
3221.4	0.0006135
3231.05	0.0005141
3240.69	0.0004117
3250.34	0.000254
3259.98	0.00032179
3269.63	0.000133
3279.27	0.00024714
3288.92	0.0003481
3298.56	0.00031788
3308.21	0.0003925
3317.85	0.0004504
3327.49	0.0004576
3337.14	0.0004195
3346.78	0.0004097
3356.43	0.0001738
3366.07	0.0007313
3375.72	0.001193
3385.36	0.001607
3395.01	0.0010317
3404.65	0.0005646
3414.3	0.0005075
3423.94	0.0003809
3433.59	0.0001888
3443.23	0.0002226
3452.88	0.00031153
3462.52	0.0003564
3472.17	0.0002217
3481.81	8.4e-05
3491.46	4.1e-05
3501.1	0.00027737
3510.75	0.000133
3520.39	0.00031224
3530.04	0.000121
3539.68	0.0001441
3549.32	6.3e-05
3558.97	0.0001767
3568.61	0.000119
3578.26	0.0002226
3587.9	0.0001659
3597.55	0.00012
3607.19	0.0001972
3616.84	0.000101
3626.48	0.00030823
3636.13	0.0002077
3645.77	0.000109
3655.42	0.0002347
3665.06	0.0004546
3674.71	0.000182
3684.35	0.0004352
3694	0.00031728
3703.64	0.0001693
3713.29	0.00028439
3722.93	0.00035
3732.58	0.0001527
3742.22	0.00027735
3751.86	0.00027827
3761.51	0.00028235
3771.15	0.000378
3780.8	0.000119
3790.44	0.00028044
3800.09	0.0003431
3809.73	0.00029203
3819.38	0.0003467
3829.02	0.000237489
3838.67	0.00024289
3848.31	0.0001736
3857.96	0.0003751
3867.6	0.00025176
3877.25	0.0001965
3886.89	0.000239485
3896.54	0.00023372
3906.18	0.000202
3915.83	0.00023039
3925.47	0.0004708
3935.12	0.00028042
3944.76	0.00028309
3954.41	0.00028971
3964.05	0.0002166
3973.69	0.0003157
3983.34	0.0001957
3992.98	0.0001699
