Infrared Spectrum: Methoxyacetyl chloride
Formula: C 3 H 5 Cl O 2
CAS: 38870-89-2
State: gas
Origin: EPA-IR VAPOR PHASE LIBRARY
1/CM	ABSORBANCE
549.8	0.020654
559.445	0.028264
569.09	0.031944
578.734	0.030034
588.379	0.022534
598.024	0.016714
607.669	0.014174
617.313	0.012954
626.958	0.011964
636.603	0.010854
646.248	0.009224
655.893	0.007984
665.537	0.007284
675.182	0.006584
684.827	0.006894
694.472	0.007854
704.116	0.010034
713.761	0.014434
723.406	0.026794
733.051	0.057694
742.695	0.110364
752.34	0.147784
761.985	0.136634
771.63	0.078534
781.275	0.035474
790.919	0.014324
800.564	0.007834
810.209	0.005814
819.854	0.004764
829.498	0.004434
839.143	0.004784
848.788	0.005574
858.433	0.007294
868.078	0.010564
877.722	0.016834
887.367	0.029254
897.012	0.048144
906.657	0.069904
916.301	0.080364
925.946	0.080494
935.591	0.089744
945.236	0.124224
954.88	0.119674
964.525	0.085534
974.17	0.047514
983.815	0.040734
993.46	0.040624
1003.1	0.040524
1012.75	0.035844
1022.39	0.030114
1032.04	0.029514
1041.68	0.034954
1051.33	0.040604
1060.97	0.040694
1070.62	0.035004
1080.26	0.026864
1089.91	0.020634
1099.55	0.020194
1109.2	0.025714
1118.84	0.043084
1128.49	0.073224
1138.13	0.094364
1147.78	0.089734
1157.42	0.062294
1167.07	0.040984
1176.71	0.035644
1186.36	0.044474
1196	0.064104
1205.64	0.071144
1215.29	0.060244
1224.93	0.035834
1234.58	0.022554
1244.22	0.017134
1253.87	0.014114
1263.51	0.012224
1273.16	0.011024
1282.8	0.009274
1292.45	0.007164
1302.09	0.005144
1311.74	0.004204
1321.38	0.004224
1331.03	0.005454
1340.67	0.007064
1350.32	0.007514
1359.96	0.006584
1369.61	0.005204
1379.25	0.004974
1388.9	0.006284
1398.54	0.009294
1408.18	0.012594
1417.83	0.013994
1427.47	0.014174
1437.12	0.013204
1446.76	0.014484
1456.41	0.015924
1466.05	0.014724
1475.7	0.010464
1485.34	0.007404
1494.99	0.005164
1504.63	0.003804
1514.28	0.003054
1523.92	0.002684
1533.57	0.002524
1543.21	0.002334
1552.86	0.002414
1562.5	0.002544
1572.15	0.002474
1581.79	0.002444
1591.44	0.002194
1601.08	0.002144
1610.73	0.001874
1620.37	0.001894
1630.01	0.001894
1639.66	0.001894
1649.3	0.001914
1658.95	0.002104
1668.59	0.002144
1678.24	0.002324
1687.88	0.002404
1697.53	0.002654
1707.17	0.002884
1716.82	0.003444
1726.46	0.004354
1736.11	0.006104
1745.75	0.009564
1755.4	0.015344
1765.04	0.027754
1774.69	0.055764
1784.33	0.107264
1793.98	0.151354
1803.62	0.193414
1813.27	0.189044
1822.91	0.164924
1832.55	0.133044
1842.2	0.103184
1851.84	0.075704
1861.49	0.055984
1871.13	0.043394
1880.78	0.033604
1890.42	0.025304
1900.07	0.020184
1909.71	0.015904
1919.36	0.011284
1929	0.007694
1938.65	0.005764
1948.29	0.004654
1957.94	0.003834
1967.58	0.003074
1977.23	0.002424
1986.87	0.002054
1996.52	0.001844
2006.16	0.001884
2015.81	0.001944
2025.45	0.002184
2035.1	0.002454
2044.74	0.002834
2054.38	0.002934
2064.03	0.002834
2073.67	0.002564
2083.32	0.002324
2092.96	0.002364
2102.61	0.002454
2112.25	0.002604
2121.9	0.002724
2131.54	0.002554
2141.19	0.002284
2150.83	0.001894
2160.48	0.001514
2170.12	0.0012238
2179.77	0.0010924
2189.41	0.0011416
2199.06	0.0011233
2208.7	0.0011584
2218.35	0.0010739
2227.99	0.0010541
2237.64	0.0010752
2247.28	0.0011525
2256.92	0.0010449
2266.57	0.0010575
2276.21	0.0009396
2285.86	0.0011075
2295.5	0.0009496
2305.15	0.0009858
2314.79	0.0010887
2324.44	0.0011865
2334.08	0.001284
2343.73	0.0011761
2353.37	0.0011131
2363.02	0.00099
2372.66	0.0009706
2382.31	0.0009453
2391.95	0.0010647
2401.6	0.0010736
2411.24	0.0010736
2420.89	0.0010599
2430.53	0.0006776
2440.18	0.000537
2449.82	0.0005462
2459.47	0.0004001
2469.11	0.0005343
2478.75	0.0005608
2488.4	0.0006322
2498.04	0.0005701
2507.69	0.0004768
2517.33	0.0004572
2526.98	0.00030829
2536.62	0.0004382
2546.27	0.0005428
2555.91	0.0005709
2565.56	0.0005755
2575.2	0.0005616
2584.85	0.000657
2594.49	0.0008012
2604.14	0.0006915
2613.78	0.0007184
2623.43	0.0006483
2633.07	0.0005772
2642.72	0.0007269
2652.36	0.0008034
2662.01	0.0009251
2671.65	0.0009962
2681.29	0.0011683
2690.94	0.0012069
2700.58	0.001304
2710.23	0.001304
2719.87	0.001304
2729.52	0.001544
2739.16	0.001634
2748.81	0.001834
2758.45	0.002424
2768.1	0.002684
2777.74	0.003554
2787.39	0.004474
2797.03	0.006344
2806.68	0.009504
2816.32	0.014644
2825.97	0.023104
2835.61	0.030394
2845.26	0.030484
2854.9	0.025104
2864.55	0.021894
2874.19	0.024004
2883.84	0.028494
2893.48	0.032354
2903.12	0.032974
2912.77	0.033504
2922.41	0.036924
2932.06	0.043304
2941.7	0.045684
2951.35	0.041714
2960.99	0.033234
2970.64	0.025384
2980.28	0.019804
2989.93	0.018684
2999.57	0.023184
3009.22	0.023984
3018.86	0.020924
3028.51	0.012694
3038.15	0.008274
3047.8	0.006534
3057.44	0.005494
3067.09	0.004824
3076.73	0.004304
3086.38	0.003744
3096.02	0.003324
3105.67	0.002524
3115.31	0.002014
3124.95	0.001644
3134.6	0.001394
3144.24	0.001294
3153.89	0.0010303
3163.53	0.0009373
3173.18	0.0006138
3182.82	0.0004868
3192.47	0.0005469
3202.11	0.0005473
3211.76	0.0004838
3221.4	0.000408
3231.05	0.00037855
3240.69	0.0004379
3250.34	0.0003621
3259.98	0.0002378
3269.63	0.000292577
3279.27	0.0004251
3288.92	0.0002092
3298.56	9.5e-05
3308.21	0.00025
3317.85	0.00031906
3327.49	0.0004246
3337.14	0.000163
3346.78	0.0003873
3356.43	0.00031878
3366.07	0.0001951
3375.72	0.0003841
3385.36	0.0002156
3395.01	0.0002299
3404.65	0.00038254
3414.3	0.0002553
3423.94	0.00030521
3433.59	0.000137
3443.23	0.0004775
3452.88	4e-05
3462.52	0.0002229
3472.17	0.000541
3481.81	0.00030173
3491.46	0.0002482
3501.1	0.0004257
3510.75	0.0005076
3520.39	0.0006542
3530.04	0.0008807
3539.68	0.00086
3549.32	0.001464
3558.97	0.002214
3568.61	0.002684
3578.26	0.002714
3587.9	0.002604
3597.55	0.002534
3607.19	0.002634
3616.84	0.002634
3626.48	0.002814
3636.13	0.003164
3645.77	0.002854
3655.42	0.002444
3665.06	0.001904
3674.71	0.001524
3684.35	0.0012273
3694	0.0008978
3703.64	0.000765
3713.29	0.000834
3722.93	0.000912
3732.58	0.0008211
3742.22	0.0008232
3751.86	0.0007367
3761.51	0.0007113
3771.15	0.0006156
3780.8	0.0005433
3790.44	0.0005061
3800.09	0.0005827
3809.73	0.0006506
3819.38	0.000445
3829.02	0.0005437
3838.67	0.00022
3848.31	0.000556
3857.96	0.0005861
3867.6	0.0008776
3877.25	0.0009705
3886.89	0.0006763
3896.54	0.0008575
3906.18	0.0009438
3915.83	0.0007462
3925.47	0.0004359
3935.12	0.0010054
3944.76	0.0007356
3954.41	0.0008423
3964.05	0.0010293
3973.69	0.0006485
3983.34	0.0008809
3992.98	0.0004814
