Infrared Spectrum: Acetanilide, 2,4-di-tert-butyl-
Formula: C16 H25 N O
CAS: 38896-23-0
State: SOLID (NUJOL MULL)
Class: COBLENTZ III
Instrument: BECKMAN IR-4 (HYBRID PRISM-GRATING)
Instrument parameters: NaCl PRISM
Sampling: TRANSMISSION
Resolution: 2
Origin: MONSANTO (J. FREEMAN)
1/CM	TRANSMITTANCE
626	0.922
635	0.9633
644	0.9755
653	0.8597
662	0.8942
671	0.8048
680	0.6566
689	0.5958
698	0.6722
707	0.7645
716	0.7682
725	0.7535
734	0.6704
743	0.8696
752	0.9013
761	0.8942
770	0.9109
779	0.9288
788	0.9387
797	0.9372
806	0.917
815	0.6002
824	0.7887
833	0.9145
842	0.9095
851	0.7917
860	0.9375
869	0.9383
878	0.9261
887	0.6618
896	0.8843
905	0.7188
914	0.8831
923	0.8448
932	0.8597
941	0.8696
950	0.8556
959	0.8968
968	0.8777
977	0.6527
986	0.8712
995	0.88
1004	0.8547
1013	0.6578
1022	0.6408
1031	0.8395
1040	0.7743
1049	0.8836
1058	0.906
1067	0.908
1076	0.8983
1085	0.8542
1094	0.584
1103	0.8925
1112	0.8982
1121	0.7745
1130	0.6865
1139	0.8868
1148	0.8785
1157	0.8575
1166	0.8771
1175	0.868
1184	0.867
1193	0.8312
1202	0.7258
1211	0.6851
1220	0.7959
1229	0.7327
1238	0.6594
1247	0.4291
1256	0.4718
1265	0.6597
1274	0.5802
1283	0.4723
1292	0.271
1301	0.1228
1310	0.3769
1319	0.6058
1328	0.6506
1337	0.6608
1346	0.6383
1355	0.5835
1364	0.4819
1373	0.0996
1382	0.1127
1391	0.3793
1400	0.4086
1409	0.3224
1418	0.5528
1427	0.5802
1436	0.4803
1445	0.3194
1454	0.2013
1463	0.1155
1472	0.0752
1481	0.152
1490	0.3231
1499	0.3338
1508	0.269
1517	0.1934
1526	0.0891
1535	0.0057
1544	0.1045
1553	0.3789
1562	0.5998
1571	0.6922
1580	0.7576
1589	0.7525
1598	0.7181
1607	0.6539
1616	0.4814
1625	0.6373
1634	0.6089
1643	0.5255
1652	0.086
1661	0.0228
1670	0.0003
1679	0.2043
1688	0.5894
1697	0.8378
1706	0.8563
1715	0.8886
1724	0.9186
1733	0.9328
1742	0.9302
1751	0.9275
1760	0.9281
1769	0.9197
1778	0.9117
1787	0.9156
1796	0.9289
1805	0.9366
1814	0.938
1823	0.9393
1832	0.9416
1841	0.9447
1850	0.9478
1859	0.9501
1868	0.9506
1877	0.9494
1886	0.9421
1895	0.9268
1904	0.9244
1913	0.9405
1922	0.9421
1931	0.9417
1940	0.9424
1949	0.9456
1958	0.9478
1967	0.9484
1976	0.9482
1985	0.9479
1994	0.9474
2003	0.9469
2012	0.947
2021	0.9472
2030	0.9472
2039	0.9471
2048	0.9467
2057	0.9467
2066	0.9469
2075	0.9473
2084	0.9479
2093	0.9483
2102	0.9487
2111	0.9488
2120	0.9485
2129	0.9481
2138	0.9474
2147	0.9466
2156	0.9459
2165	0.9444
2174	0.9428
2183	0.9413
2192	0.9398
2201	0.9382
2210	0.9371
2219	0.9384
2228	0.939
2237	0.9394
2246	0.9396
2255	0.9396
2264	0.9393
2273	0.9386
2282	0.9372
2291	0.9356
2300	0.9315
2309	0.9264
2318	0.9265
2327	0.9267
2336	0.9269
2345	0.9273
2354	0.9277
2363	0.9279
2372	0.9276
2381	0.9274
2390	0.9263
2399	0.9242
2408	0.9214
2417	0.9183
2426	0.9189
2435	0.9206
2444	0.9223
2453	0.9239
2462	0.9246
2471	0.9248
2480	0.924
2489	0.9231
2498	0.9222
2507	0.9209
2516	0.9196
2525	0.9171
2534	0.9146
2543	0.9115
2552	0.9077
2561	0.9039
2570	0.9003
2579	0.8966
2588	0.8924
2597	0.8867
2606	0.8811
2615	0.876
2624	0.871
2633	0.866
2642	0.8612
2651	0.8564
2660	0.8516
2669	0.8461
2678	0.8408
2687	0.8361
2696	0.8325
2705	0.8291
2714	0.8271
2723	0.8252
2732	0.8192
2741	0.8054
2750	0.7988
2759	0.7956
2768	0.7931
2777	0.7909
2786	0.7889
2795	0.7851
2804	0.7547
2813	0.7118
2822	0.6805
2831	0.6343
2840	0.5389
2849	0.4622
2858	0.4221
2867	0.3771
2876	0.2542
2885	0.1317
2894	0.014
2903	0.0001
2912	0.0001
2921	0
2930	0
2939	0
2948	0
2957	0.0001
2966	0.0001
2975	0.0002
2984	0.0002
2993	0.0003
3002	0.0555
3011	0.1221
3020	0.1883
3029	0.2541
3038	0.3195
3047	0.3844
3056	0.4491
3065	0.5133
3074	0.5772
3083	0.6409
3092	0.6879
3101	0.7093
3110	0.7221
3119	0.7338
3128	0.7373
3137	0.7369
3146	0.7355
3155	0.7327
3164	0.7271
3173	0.7064
3182	0.6781
3191	0.6499
3200	0.6219
3209	0.6071
3218	0.5986
3227	0.5909
3236	0.5818
3245	0.5692
3254	0.4171
3263	0.3084
3272	0.2003
3281	0.094
3290	0.076
3299	0.0842
3308	0.1761
3317	0.2677
3326	0.3588
3335	0.4495
3344	0.5397
3353	0.6294
3362	0.7183
3371	0.7608
3380	0.7789
3389	0.7983
3398	0.8122
3407	0.8314
3416	0.8443
3425	0.8567
3434	0.8678
3443	0.8774
3452	0.8832
3461	0.888
3470	0.8914
3479	0.8946
3488	0.8973
3497	0.8997
3506	0.9021
3515	0.9036
3524	0.9047
3533	0.9058
3542	0.907
3551	0.9079
3560	0.9087
3569	0.9096
3578	0.9104
3587	0.9112
3596	0.912
3605	0.9127
3614	0.9133
3623	0.914
3632	0.9147
3641	0.9152
3650	0.9156
3659	0.916
3668	0.9164
3677	0.9168
3686	0.9172
3695	0.9175
3704	0.9177
3713	0.9178
3722	0.918
3731	0.9181
3740	0.9183
3749	0.9184
3758	0.9185
3767	0.9186
3776	0.9186
3785	0.9184
3794	0.9183
3803	0.9178
3812	0.9173
3821	0.9167
3830	0.9161
3839	0.9155
3848	0.9149
3857	0.9137
3866	0.9125
3875	0.9114
3884	0.9102
3893	0.909
3902	0.9078
3911	0.9066
3920	0.9054
3929	0.9041
3938	0.9034
3947	0.9029
3956	0.9024
3965	0.9021
3974	0.902
3983	0.902
3992	0.902
