Infrared Spectrum: Pentafluoroanisole
Formula: C 7 H 3 F 5 O
CAS: 389-40-2
State: gas
Instrument: HP-GC/MS/IRD
Origin: NIST Mass Spectrometry Data Center
1/CM	ABSORBANCE
550	0.0002601
562	0.0001989
574	3.06e-05
586	0.0001377
598	0.0002142
610	0.000153
622	0.000153
634	7.65e-05
646	7.65e-05
658	6.12e-05
670	9.18e-05
682	9.18e-05
694	0.0001224
706	4.59e-05
718	6.12e-05
730	0.0001989
742	0.0002601
754	0.0002142
766	0.0001071
778	0.0001377
790	0.0001683
802	0.0001683
814	0.0002142
826	0.000306
838	0.000459
850	0.0005049
862	0.0006732
874	0.0007956
886	0.0008721
898	0.001071
910	0.002448
922	0.0083232
934	0.0140148
946	0.0064107
958	0.0051561
970	0.0069156
982	0.0143973
994	0.0522036
1006	0.058905
1018	0.0249543
1030	0.0407898
1042	0.0826812
1054	0.0534123
1066	0.0200124
1078	0.0104958
1090	0.005049
1102	0.0034272
1114	0.0029376
1126	0.0027846
1138	0.0034425
1150	0.0054927
1162	0.0065178
1174	0.0047124
1186	0.0049266
1198	0.0056304
1210	0.0038556
1222	0.0024174
1234	0.0018666
1246	0.0014229
1258	0.0011781
1270	0.0012393
1282	0.0012546
1294	0.0013464
1306	0.0027693
1318	0.0040545
1330	0.0021726
1342	0.0017136
1354	0.0017136
1366	0.0022797
1378	0.0028305
1390	0.0028764
1402	0.0033507
1414	0.0045747
1426	0.0109242
1438	0.0146574
1450	0.0081702
1462	0.00918
1474	0.0126837
1486	0.0233172
1498	0.0714663
1510	0.144126
1522	0.129928
1534	0.0421362
1546	0.0081549
1558	0.0043146
1570	0.0026163
1582	0.0023715
1594	0.0023715
1606	0.0017136
1618	0.00153
1630	0.0018972
1642	0.0015147
1654	0.0009945
1666	0.0009333
1678	0.0009486
1690	0.0007803
1702	0.0007038
1714	0.0007038
1726	0.0009333
1738	0.0015606
1750	0.001836
1762	0.001377
1774	0.0010404
1786	0.0009639
1798	0.0008568
1810	0.0005661
1822	0.0004131
1834	0.0003825
1846	0.0003672
1858	0.0004437
1870	0.0004284
1882	0.0002601
1894	0.0002448
1906	0.0002142
1918	0.0002448
1930	0.0002142
1942	0.0002601
1954	0.0003672
1966	0.0004743
1978	0.0004437
1990	0.0002601
2002	0.0001683
2014	0.0001683
2026	0.0002295
2038	0.000306
2050	0.0005661
2062	0.0009486
2074	0.0010557
2086	0.000765
2098	0.0004284
2110	0.0002754
2122	0.0002448
2134	0.000306
2146	0.0003366
2158	0.0002295
2170	0.0001989
2182	0.0001989
2194	0.0001836
2206	0.0001377
2218	0.0001224
2230	0.0002295
2242	0.0002142
2254	0.0001377
2266	6.12e-05
2278	1.53e-05
2290	3.06e-05
2302	1.53e-05
2314	3.06e-05
2326	4.59e-05
2338	7.65e-05
2350	0.0001377
2362	0.0002601
2374	0.0003519
2386	0.0005049
2398	0.0006885
2410	0.0006273
2422	0.0004437
2434	0.0005049
2446	0.0007803
2458	0.0011016
2470	0.0009792
2482	0.0005967
2494	0.0003519
2506	0.0003825
2518	0.0003213
2530	0.0001989
2542	0.000153
2554	0.0002142
2566	0.0002142
2578	0.0002295
2590	0.0001836
2602	0.000153
2614	0.0001683
2626	0.0002448
2638	0.0004896
2650	0.0007956
2662	0.001071
2674	0.0008109
2686	0.0003978
2698	0.0002448
2710	0.0001836
2722	7.65e-05
2734	3.06e-05
2746	6.12e-05
2758	3.06e-05
2770	3.06e-05
2782	3.06e-05
2794	9.18e-05
2806	0.0002448
2818	0.0004131
2830	0.0008874
2842	0.0021114
2854	0.0020808
2866	0.0012087
2878	0.0013158
2890	0.0017442
2902	0.0017442
2914	0.0017595
2926	0.0021573
2938	0.0036414
2950	0.0060282
2962	0.0063495
2974	0.0041157
2986	0.0030447
2998	0.002907
3010	0.0031365
3022	0.0035343
3034	0.0023103
3046	0.0013158
3058	0.0009027
3070	0.0007191
3082	0.0006579
3094	0.0005814
3106	0.0004743
3118	0.0003978
3130	0.0003213
3142	0.0002754
3154	0.0002295
3166	0.000153
3178	6.12e-05
3190	6.12e-05
3202	9.18e-05
3214	3.06e-05
3226	4.59e-05
3238	4.59e-05
3250	6.12e-05
3262	7.65e-05
3274	1.53e-05
3286	3.06e-05
3298	7.65e-05
3310	4.59e-05
3322	6.12e-05
3334	0.0001071
3346	0.0001224
3358	7.65e-05
3370	9.18e-05
3382	7.65e-05
3394	0.0001071
3406	7.65e-05
3418	0.0001224
3430	0.0001377
3442	0.0001071
3454	0.0001683
3466	0.0001989
3478	0.0002295
3490	0.0001683
3502	0.0002142
3514	0.0002142
3526	0.000153
3538	0.0002295
3550	0.0001836
3562	0.0001989
3574	0.0001683
3586	0.0002142
3598	0.0001989
3610	0.0001683
3622	0.000153
3634	0.0001683
3646	0.0001836
3658	0.0001683
3670	0.0001989
3682	0.0001683
3694	0.000153
3706	0.0001836
3718	0.0002142
3730	0.0001683
3742	0.0002142
3754	0.0001989
3766	0.000153
3778	0.0001683
3790	0.0001836
3802	0.0001224
3814	0.0001989
3826	0.0002448
3838	0.0001989
