Infrared Spectrum: 2,6,10-Trimethyldodecane
Formula: C 15 H 32
CAS: 3891-98-3
State: gas
Instrument: HP-GC/MS/IRD
Origin: NIST Mass Spectrometry Data Center
1/CM	ABSORBANCE
550	0.0008056
562	0.0001855
574	0.0001219
586	0.0001537
598	7.95e-05
610	8.48e-05
622	4.24e-05
634	0.0001272
646	0.0001855
658	0.0001802
670	0.000159
682	0.0002385
694	0.0002703
706	0.000318
718	0.0004717
730	0.0006413
742	0.0005618
754	0.0005141
766	0.0004876
778	0.0005353
790	0.0004717
802	0.0004187
814	0.0003286
826	0.0003975
838	0.0004134
850	0.000371
862	0.0003604
874	0.0003021
886	0.0003286
898	0.000371
910	0.0005141
922	0.0005936
934	0.000636
946	0.0006519
958	0.0006996
970	0.0008692
982	0.000848
994	0.0007367
1006	0.0008321
1018	0.0008321
1030	0.0007155
1042	0.0005406
1054	0.0004505
1066	0.000318
1078	0.0002544
1090	0.0002173
1102	0.0003074
1114	0.0003498
1126	0.0004293
1138	0.000795
1150	0.0011448
1162	0.0013621
1174	0.0010388
1186	0.0006572
1198	0.0005883
1210	0.0006201
1222	0.0005618
1234	0.0004717
1246	0.0005194
1258	0.0005406
1270	0.0007314
1282	0.0008056
1294	0.0008904
1306	0.0010017
1318	0.0011819
1330	0.0014522
1342	0.0019133
1354	0.0023797
1366	0.0036411
1378	0.0055862
1390	0.0046004
1402	0.0017755
1414	0.0012084
1426	0.0013091
1438	0.0023797
1450	0.0045474
1462	0.0075101
1474	0.0058512
1486	0.0024062
1498	0.0012667
1510	0.0010494
1522	0.0007526
1534	0.0004664
1546	0.000477
1558	0.0006042
1570	0.0003074
1582	0.000212
1594	0.0002014
1606	0.0001961
1618	0.0003021
1630	0.0002332
1642	0.0002809
1654	0.0004876
1666	0.0002862
1678	0.000318
1690	0.000265
1702	0.0004028
1714	0.0003127
1726	0.0001431
1738	0.0002385
1750	0.0002968
1762	0.0001696
1774	0.0001802
1786	0.0001749
1798	0.0001643
1810	0.000106
1822	0.0001113
1834	0.0001113
1846	0.0001431
1858	7.42e-05
1870	0.000106
1882	5.83e-05
1894	5.3e-05
1906	4.77e-05
1918	9.01e-05
1930	2.12e-05
1942	5.3e-05
1954	1.06e-05
1966	2.12e-05
1978	1.06e-05
1990	4.24e-05
2002	1.59e-05
2014	1.59e-05
2026	4.24e-05
2038	3.71e-05
2050	5.83e-05
2062	4.77e-05
2074	1.06e-05
2086	2.12e-05
2098	3.18e-05
2110	2.12e-05
2122	1.59e-05
2134	2.12e-05
2146	3.18e-05
2158	5.3e-05
2170	3.71e-05
2182	3.71e-05
2194	3.18e-05
2206	2.65e-05
2218	2.12e-05
2230	3.18e-05
2242	2.65e-05
2254	4.24e-05
2266	6.36e-05
2278	7.42e-05
2290	9.01e-05
2302	0.000106
2314	0.000106
2326	0.0001643
2338	0.0001537
2350	0.0001272
2362	0.0001484
2374	0.0001431
2386	0.0001378
2398	0.0001219
2410	0.0001325
2422	0.0001272
2434	0.0001378
2446	0.0001007
2458	0.0001166
2470	0.0001219
2482	0.0001272
2494	0.0001431
2506	0.0001908
2518	0.0001961
2530	0.0002014
2542	0.0002438
2554	0.0003021
2566	0.0003392
2578	0.000424
2590	0.0005088
2602	0.0005194
2614	0.0005777
2626	0.000583
2638	0.000583
2650	0.0005989
2662	0.0006201
2674	0.0006625
2686	0.000742
2698	0.000742
2710	0.000848
2722	0.0010123
2734	0.0011554
2746	0.0011289
2758	0.0011236
2770	0.001219
2782	0.0013886
2794	0.0017702
2806	0.0022366
2818	0.002968
2830	0.0041181
2842	0.0073352
2854	0.0148612
2866	0.0195941
2878	0.0250054
2890	0.0237175
2902	0.028143
2914	0.0371795
2926	0.0461047
2938	0.0476364
2950	0.0388119
2962	0.0521997
2974	0.0359393
2986	0.0119621
2998	0.0054325
3010	0.0032171
3022	0.0022419
3034	0.0017596
3046	0.0015317
3058	0.0013462
3070	0.0012349
3082	0.0011289
3094	0.0010494
3106	0.0009169
3118	0.0008533
3130	0.0007685
3142	0.0007314
3154	0.0007314
3166	0.0006837
3178	0.0006519
3190	0.0005724
3202	0.0005035
3214	0.0003445
3226	0.0002809
3238	0.0002332
3250	0.0001908
3262	0.000212
3274	0.0001855
3286	0.0001908
3298	0.0001908
3310	0.0001378
3322	0.0001537
3334	0.0001855
3346	0.0001643
3358	0.0001537
3370	0.000159
3382	0.0001484
3394	0.000106
3406	7.95e-05
3418	6.36e-05
3430	5.3e-05
3442	3.18e-05
3454	3.71e-05
3466	2.12e-05
3478	7.42e-05
3490	4.77e-05
3502	6.89e-05
3514	1.59e-05
3526	9.54e-05
3538	1.06e-05
3550	9.54e-05
3562	6.89e-05
3574	5.3e-06
3586	0.0001696
3598	4.24e-05
3610	0.0001749
3622	0.0001007
3634	0.000106
3646	0.000159
3658	7.42e-05
3670	0.0001855
3682	7.42e-05
3694	0.0001007
3706	5.3e-05
3718	8.48e-05
3730	0.0001537
3742	0.0002703
3754	0.0001537
3766	0.000106
3778	6.89e-05
3790	1.59e-05
3802	0.0001431
3814	0.0001484
3826	0.0001272
3838	0.0002279
