Infrared Spectrum: .alpha.-Cyclohexylphenylacetonitrile
Formula: C 14 H 17 N
CAS: 3893-23-0
State: gas
Origin: EPA-IR VAPOR PHASE LIBRARY
1/CM	ABSORBANCE
549.9	0.0016057
559.547	0.0012301
569.193	0.0011316
578.84	0.0011824
588.486	0.002283
598.133	0.004473
607.779	0.002953
617.426	0.002553
627.072	0.002853
636.719	0.006053
646.365	0.004553
656.012	0.004503
665.658	0.008643
675.305	0.014613
684.951	0.023103
694.598	0.063343
704.245	0.056203
713.891	0.017263
723.538	0.008153
733.184	0.011093
742.831	0.026043
752.477	0.028223
762.124	0.012013
771.77	0.008683
781.417	0.005993
791.063	0.003503
800.71	0.002783
810.356	0.002963
820.003	0.002343
829.649	0.0016579
839.296	0.002523
848.943	0.003183
858.589	0.002193
868.236	0.002583
877.882	0.003123
887.529	0.005143
897.175	0.005593
906.822	0.004973
916.468	0.004313
926.115	0.003493
935.761	0.002713
945.408	0.002773
955.054	0.002083
964.701	0.002343
974.347	0.003043
983.994	0.002903
993.64	0.002143
1003.29	0.002683
1012.93	0.002913
1022.58	0.006143
1032.23	0.010083
1041.87	0.005043
1051.52	0.004063
1061.17	0.005733
1070.81	0.005453
1080.46	0.005283
1090.11	0.003813
1099.75	0.002143
1109.4	0.0017753
1119.05	0.002053
1128.69	0.001983
1138.34	0.0010385
1147.99	0.000401
1157.63	0.000697
1167.28	0.0012403
1176.92	0.0014001
1186.57	0.0016792
1196.22	0.001206
1205.86	0.0010591
1215.51	0.0014445
1225.16	0.0016029
1234.8	0.002243
1244.45	0.002313
1254.1	0.003833
1263.74	0.006433
1273.39	0.008483
1283.04	0.006653
1292.68	0.003573
1302.33	0.004183
1311.98	0.005513
1321.62	0.006253
1331.27	0.006593
1340.92	0.007883
1350.56	0.009273
1360.21	0.006803
1369.86	0.006553
1379.5	0.004483
1389.15	0.002793
1398.79	0.002453
1408.44	0.002993
1418.09	0.003463
1427.73	0.003913
1437.38	0.008493
1447.03	0.032423
1456.67	0.043873
1466.32	0.016813
1475.97	0.007883
1485.61	0.013263
1495.26	0.022143
1504.91	0.013563
1514.55	0.004013
1524.2	0.002303
1533.85	0.002193
1543.49	0.001697
1553.14	0.0013145
1562.79	0.001365
1572.43	0.002213
1582.08	0.004303
1591.73	0.008183
1601.37	0.010713
1611.02	0.005713
1620.67	0.002203
1630.31	0.0014461
1639.96	0.0012298
1649.6	0.0012374
1659.25	0.0015579
1668.9	0.001213
1678.54	0.0011004
1688.19	0.0010122
1697.84	0.00090106
1707.48	0.00092953
1717.13	0.00093928
1726.78	0.0012055
1736.42	0.0016293
1746.07	0.001883
1755.72	0.0014106
1765.36	0.0010514
1775.01	0.0013638
1784.66	0.002083
1794.3	0.003853
1803.95	0.003223
1813.6	0.001893
1823.24	0.0013255
1832.89	0.0008665
1842.54	0.0008584
1852.18	0.0012475
1861.83	0.002013
1871.47	0.002773
1881.12	0.002583
1890.77	0.002323
1900.41	0.0014262
1910.06	0.0009971
1919.71	0.0010369
1929.35	0.0017073
1939	0.003263
1948.65	0.003453
1958.29	0.002913
1967.94	0.001913
1977.59	0.00096041
1987.23	0.00087832
1996.88	0.000563
2006.53	0.000524
2016.17	0.000524
2025.82	0.000503
2035.47	0.000495
2045.11	0.000511
2054.76	0.000543
2064.41	0.000614
2074.05	0.000613
2083.7	0.000544
2093.35	0.000585
2102.99	0.000581
2112.64	0.000629
2122.28	0.000668
2131.93	0.000616
2141.58	0.00063
2151.22	0.000649
2160.87	0.000687
2170.52	0.000717
2180.16	0.00078
2189.81	0.00091489
2199.46	0.0008674
2209.1	0.00094584
2218.75	0.0011273
2228.4	0.001963
2238.04	0.003743
2247.69	0.003273
2257.34	0.0017065
2266.98	0.0011493
2276.63	0.0008959
2286.28	0.000888624
2295.92	0.00094666
2305.57	0.0010903
2315.22	0.0013219
2324.86	0.0011208
2334.51	0.0010761
2344.16	0.0012982
2353.8	0.0011844
2363.45	0.0011947
2373.09	0.0012607
2382.74	0.0012654
2392.39	0.0012834
2402.03	0.0012333
2411.68	0.001203
2421.33	0.0011586
2430.97	0.0010483
2440.62	0.0009847
2450.27	0.00088079
2459.91	0.0008334
2469.56	0.00089702
2479.21	0.0010305
2488.85	0.0012423
2498.5	0.0011531
2508.15	0.0010981
2517.79	0.0011478
2527.44	0.0011511
2537.09	0.0012092
2546.73	0.00097358
2556.38	0.0010367
2566.03	0.0011983
2575.67	0.0014069
2585.32	0.0016983
2594.96	0.0018739
2604.61	0.002053
2614.26	0.002063
2623.9	0.002083
2633.55	0.002113
2643.2	0.002203
2652.84	0.002763
2662.49	0.003743
2672.14	0.004163
2681.78	0.003313
2691.43	0.002383
2701.08	0.002163
2710.72	0.002063
2720.37	0.001913
2730.02	0.0016484
2739.66	0.0015163
2749.31	0.0015205
2758.96	0.001973
2768.6	0.002193
2778.25	0.002773
2787.9	0.003623
2797.54	0.004983
2807.19	0.005413
2816.84	0.005893
2826.48	0.007283
2836.13	0.009393
2845.77	0.018833
2855.42	0.061583
2865.07	0.113503
2874.71	0.064513
2884.36	0.033423
2894.01	0.034413
2903.65	0.050913
2913.3	0.078723
2922.95	0.132573
2932.59	0.251393
2942.24	0.325843
2951.89	0.156843
2961.53	0.035803
2971.18	0.013753
2980.83	0.009613
2990.47	0.007123
3000.12	0.006243
3009.77	0.007063
3019.41	0.010573
3029.06	0.023133
3038.71	0.030273
3048.35	0.017313
3058	0.015413
3067.64	0.029763
3077.29	0.033613
3086.94	0.020133
3096.58	0.015233
3106.23	0.009263
3115.88	0.005603
3125.52	0.002863
3135.17	0.001983
3144.82	0.001656
3154.46	0.0016547
3164.11	0.0017085
3173.76	0.001399
3183.4	0.00090565
3193.05	0.000773
3202.7	0.00069
3212.34	0.000891693
3221.99	0.00090972
3231.64	0.0007986
3241.28	0.00072
3250.93	0.000629
3260.58	0.000527
3270.22	0.000454
3279.87	0.000436
3289.52	0.000569
3299.16	0.000405
3308.81	0.000402
3318.45	0.000259
3328.1	0.000365
3337.75	0.000328
3347.39	0.000266
3357.04	0.000288
3366.69	0.000368
3376.33	0.000407
3385.98	0.000445
3395.63	0.000396
3405.27	0.000273
3414.92	0.000209
3424.57	0.000269
3434.21	0.000566
3443.86	0.000668
3453.51	0.000368
3463.15	0.000436
3472.8	0.000164
3482.45	0.000297
3492.09	0.000287
3501.74	0.000201
3511.39	0.000159
3521.03	2.3e-05
3530.68	0.000238
3540.33	0.000239
3549.97	0.000239
3559.62	9e-05
3569.26	0.000145
3578.91	0.0003
3588.56	0.000134
3598.2	0.000319
3607.85	0.000141
3617.5	0.000208
3627.14	0.000391
3636.79	0.000514
3646.44	0.000625
3656.08	0.000686
3665.73	0.000512
3675.38	0.000328
3685.02	0.000456
3694.67	0.000567
3704.32	0.000624
3713.96	0.0008059
3723.61	0.000669
3733.26	0.000556
3742.9	0.000506
3752.55	0.000553
3762.2	0.000501
3771.84	0.000537
3781.49	0.0006
3791.13	0.000651
3800.78	0.000451
3810.43	0.000608
3820.07	0.000582
3829.72	0.000713
3839.37	0.000578
3849.01	0.000611
3858.66	0.000519
3868.31	0.000507
3877.95	0.000527
3887.6	0.000589
3897.25	0.000716
3906.89	0.000598
3916.54	0.000715
3926.19	0.000569
3935.83	0.000601
3945.48	0.000685
3955.13	0.000652
3964.77	0.000651
3974.42	0.0008272
3984.07	0.0008549
3993.71	0.00091882
