Infrared Spectrum: Cyclohexylphenylacetic acid
Formula: C 14 H 18 O 2
CAS: 3894-09-5
State: gas
Instrument: HP-GC/MS/IRD
Origin: NIST Mass Spectrometry Data Center
1/CM	ABSORBANCE
550	0.0021312
562	0.0015207
574	0.002072
586	0.0045917
598	0.0096533
610	0.0101528
622	0.0066156
634	0.0047064
646	0.0042365
658	0.0033559
670	0.0022237
682	0.0024827
694	0.0078292
706	0.0068931
718	0.0023014
730	0.0025641
742	0.0020868
754	0.0026233
766	0.0012913
778	0.000703
790	0.000518
802	0.0005032
814	0.0003108
826	0.0002405
838	0.0002294
850	0.0003774
862	0.000592
874	0.0006549
886	0.0005994
898	0.0007548
910	0.0007252
922	0.0005809
934	0.0005291
946	0.000407
958	0.0004107
970	0.0007992
982	0.0007178
994	0.0006512
1006	0.0009361
1018	0.0011988
1030	0.0020017
1042	0.0018685
1054	0.0023162
1066	0.0037296
1078	0.0053354
1090	0.0104118
1102	0.0207015
1114	0.0175972
1126	0.0103933
1138	0.0108003
1150	0.0082251
1162	0.004403
1174	0.0028342
1186	0.0026788
1198	0.0020757
1210	0.0019351
1222	0.0019499
1234	0.0014726
1246	0.0017501
1258	0.0021423
1270	0.0025308
1282	0.0024494
1294	0.0023162
1306	0.0023606
1318	0.0021275
1330	0.002257
1342	0.0026714
1354	0.003145
1366	0.003219
1378	0.0025049
1390	0.0015244
1402	0.0011174
1414	0.0008621
1426	0.0007178
1438	0.0013061
1450	0.0045547
1462	0.0031487
1474	0.0012802
1486	0.0015466
1498	0.002775
1510	0.0008029
1522	0.0002923
1534	0.0003441
1546	0.0003182
1558	0.0002405
1570	0.0004107
1582	0.0007807
1594	0.0014023
1606	0.0011544
1618	0.0004551
1630	0.0002923
1642	0.0003071
1654	0.000333
1666	0.0004366
1678	0.0004699
1690	0.000592
1702	0.0009065
1714	0.0019203
1726	0.0034077
1738	0.0042143
1750	0.0088356
1762	0.0271913
1774	0.0243756
1786	0.0070152
1798	0.0045066
1810	0.0032597
1822	0.0017427
1834	0.0009509
1846	0.0006845
1858	0.0006512
1870	0.0006364
1882	0.000518
1894	0.0004366
1906	0.0003108
1918	0.0002849
1930	0.0004033
1942	0.0005883
1954	0.0005106
1966	0.000333
1978	0.0002331
1990	0.0001998
2002	0.0002109
2014	0.0002294
2026	0.0001776
2038	0.0001739
2050	0.0002257
2062	0.0001998
2074	0.0002072
2086	0.0002405
2098	0.0001813
2110	0.0002035
2122	0.0001887
2134	0.0001887
2146	0.0001887
2158	0.0002331
2170	0.0002812
2182	0.0003145
2194	0.0003145
2206	0.0003404
2218	0.0003219
2230	0.0003182
2242	0.000296
2254	0.0002923
2266	0.0002553
2278	0.000259
2290	0.0002812
2302	0.0002997
2314	0.0003404
2326	0.0003108
2338	0.0003182
2350	0.0003515
2362	0.0003071
2374	0.0003182
2386	0.0003071
2398	0.0002516
2410	0.0002627
2422	0.0002368
2434	0.0002479
2446	0.000222
2458	0.0002368
2470	0.0002183
2482	0.0002405
2494	0.0002516
2506	0.0002146
2518	0.0001998
2530	0.0002331
2542	0.0001887
2554	0.0001887
2566	0.0002294
2578	0.0002331
2590	0.0003034
2602	0.0002997
2614	0.0002701
2626	0.000296
2638	0.000333
2650	0.0004181
2662	0.000481
2674	0.0005032
2686	0.0003367
2698	0.000333
2710	0.0002627
2722	0.000259
2734	0.0002294
2746	0.0001776
2758	0.0002701
2770	0.0003182
2782	0.0004514
2794	0.0006253
2806	0.0008177
2818	0.0008806
2830	0.0011988
2842	0.0022052
2854	0.0076072
2866	0.0122914
2878	0.0051171
2890	0.0035631
2902	0.0055019
2914	0.0095238
2926	0.0224664
2938	0.037
2950	0.0198394
2962	0.0050468
2974	0.0018685
2986	0.0011988
2998	0.0009694
3010	0.0010434
3022	0.0018981
3034	0.0037074
3046	0.0025197
3058	0.0022607
3070	0.0042809
3082	0.0029082
3094	0.0020498
3106	0.001073
3118	0.000629
3130	0.000333
3142	0.000259
3154	0.0002035
3166	0.0002109
3178	0.0001147
3190	0.0001036
3202	5.92e-05
3214	4.07e-05
3226	9.25e-05
3238	0.0001184
3250	0.0001073
3262	5.55e-05
3274	1.85e-05
3286	9.62e-05
3298	6.29e-05
3310	0
3322	7.4e-06
3334	4.07e-05
3346	0.0001406
3358	5.92e-05
3370	8.88e-05
3382	0.0001702
3394	6.29e-05
3406	7.77e-05
3418	0.0001369
3430	7.4e-05
3442	0.0001369
3454	0.0001776
3466	0.0001369
3478	0.0002035
3490	0.0001998
3502	0.0003626
3514	0.0004958
3526	0.0005846
3538	0.0006142
3550	0.0013098
3562	0.0087579
3574	0.0104673
3586	0.0014985
3598	0.0004884
3610	0.0004033
3622	0.0003552
3634	0.0002331
3646	0.0002738
3658	0.0003034
3670	0.0002294
3682	0.0002849
3694	0.0001961
3706	0.0002812
3718	0.0003293
3730	0.0003071
3742	0.0002479
3754	0.0002442
3766	0.0002479
3778	0.0002257
3790	0.0003071
3802	0.0002664
3814	0.0002553
3826	0.0002331
3838	0.0002738
