Infrared Spectrum: 2-Acetamido-5-bromobenzoic acid
Formula: C 9 H 8 Br N O 3
CAS: 38985-79-4
State: gas
Origin: EPA-IR VAPOR PHASE LIBRARY
1/CM	ABSORBANCE
549.8	0.00275
559.445	0.00229
569.09	0.0021708
578.734	0.00263
588.379	0.01164
598.024	0.01894
607.669	0.00265
617.313	0.00123737
626.958	0.0013444
636.603	0.00237
646.248	0.0022193
655.893	0.0017598
665.537	0.00312
675.182	0.00682
684.827	0.00566
694.472	0.00571
704.116	0.00358
713.761	0.0016083
723.406	0.0018273
733.051	0.0021479
742.695	0.00249
752.34	0.00563
761.985	0.00942
771.63	0.01793
781.275	0.03588
790.919	0.01786
800.564	0.00713
810.209	0.00386
819.854	0.00976
829.498	0.0251
839.143	0.03287
848.788	0.01474
858.433	0.00842
868.078	0.01441
877.722	0.00526
887.367	0.00302
897.012	0.00632
906.657	0.00642
916.301	0.0045
925.946	0.0052
935.591	0.00829
945.236	0.02062
954.88	0.03939
964.525	0.03163
974.17	0.01149
983.815	0.00649
993.46	0.01006
1003.1	0.01387
1012.75	0.01234
1022.39	0.01546
1032.04	0.02734
1041.68	0.04331
1051.33	0.02521
1060.97	0.01322
1070.62	0.01605
1080.26	0.00497
1089.91	0.00565
1099.55	0.00849
1109.2	0.00882
1118.84	0.01584
1128.49	0.01552
1138.13	0.00764
1147.78	0.00574
1157.42	0.00808
1167.07	0.01575
1176.71	0.04604
1186.36	0.06979
1196	0.03124
1205.64	0.01503
1215.29	0.01377
1224.93	0.01265
1234.58	0.01496
1244.22	0.0373
1253.87	0.07606
1263.51	0.07348
1273.16	0.04483
1282.8	0.02345
1292.45	0.03675
1302.09	0.03332
1311.74	0.02481
1321.38	0.01082
1331.03	0.00535
1340.67	0.00345
1350.32	0.00366
1359.96	0.00444
1369.61	0.00768
1379.25	0.0159
1388.9	0.01252
1398.54	0.00681
1408.18	0.00865
1417.83	0.01148
1427.47	0.01121
1437.12	0.01389
1446.76	0.0169
1456.41	0.03669
1466.05	0.10461
1475.7	0.064
1485.34	0.02149
1494.99	0.00877
1504.63	0.00555
1514.28	0.00446
1523.92	0.00493
1533.57	0.00542
1543.21	0.00546
1552.86	0.00631
1562.5	0.0075
1572.15	0.00794
1581.79	0.00955
1591.44	0.01798
1601.08	0.02357
1610.73	0.01704
1620.37	0.01805
1630.01	0.0377
1639.66	0.10274
1649.3	0.19112
1658.95	0.13234
1668.59	0.03321
1678.24	0.01085
1687.88	0.00638
1697.53	0.0059
1707.17	0.00546
1716.82	0.00557
1726.46	0.00659
1736.11	0.01003
1745.75	0.01208
1755.4	0.0152
1765.04	0.02898
1774.69	0.07495
1784.33	0.18338
1793.98	0.26949
1803.62	0.16028
1813.27	0.04551
1822.91	0.01761
1832.55	0.00869
1842.2	0.00628
1851.84	0.00592
1861.49	0.00487
1871.13	0.00383
1880.78	0.00316
1890.42	0.0036
1900.07	0.00406
1909.71	0.00464
1919.36	0.00492
1929	0.00422
1938.65	0.00335
1948.29	0.00368
1957.94	0.00365
1967.58	0.00321
1977.23	0.00295
1986.87	0.00272
1996.52	0.00291
2006.16	0.00257
2015.81	0.0020686
2025.45	0.0018423
2035.1	0.00253
2044.74	0.0024
2054.38	0.00234
2064.03	0.0018968
2073.67	0.0016516
2083.32	0.0017585
2092.96	0.0014475
2102.61	0.0011824
2112.25	0.00127943
2121.9	0.0018739
2131.54	0.0019461
2141.19	0.0019774
2150.83	0.0019658
2160.48	0.0017986
2170.12	0.0018968
2179.77	0.0018146
2189.41	0.0020107
2199.06	0.0021586
2208.7	0.00234
2218.35	0.00263
2227.99	0.0027
2237.64	0.0020972
2247.28	0.0015386
2256.92	0.0013845
2266.57	0.001721
2276.21	0.0018359
2285.86	0.0013399
2295.5	0.0015363
2305.15	0.0015486
2314.79	0.0013923
2324.44	0.0016833
2334.08	0.0015381
2343.73	0.0018438
2353.37	0.0017544
2363.02	0.0020242
2372.66	0.0020147
2382.31	0.0017132
2391.95	0.0016226
2401.6	0.0013511
2411.24	0.0015795
2420.89	0.0016144
2430.53	0.0015136
2440.18	0.0013545
2449.82	0.001964
2459.47	0.0016231
2469.11	0.0013543
2478.75	0.0016761
2488.4	0.0016626
2498.04	0.0013412
2507.69	0.0021648
2517.33	0.0017023
2526.98	0.001483
2536.62	0.0013669
2546.27	0.001526
2555.91	0.0017949
2565.56	0.0019134
2575.2	0.0020004
2584.85	0.002202
2594.49	0.00288
2604.14	0.00288
2613.78	0.00234
2623.43	0.0017467
2633.07	0.001419
2642.72	0.001117
2652.36	0.00121187
2662.01	0.0015693
2671.65	0.001042
2681.29	0.0012078
2690.94	0.00127534
2700.58	0.0014929
2710.23	0.0016094
2719.87	0.0013454
2729.52	0.0014097
2739.16	0.0015375
2748.81	0.0013421
2758.45	0.0017252
2768.1	0.0016783
2777.74	0.00122338
2787.39	0.001546
2797.03	0.0013221
2806.68	0.0018589
2816.32	0.00088
2825.97	0.0015154
2835.61	0.0017723
2845.26	0.0016093
2854.9	0.0020019
2864.55	0.0020926
2874.19	0.0016484
2883.84	0.00125225
2893.48	0.0014813
2903.12	0.0016297
2912.77	0.0014332
2922.41	0.0017944
2932.06	0.0021191
2941.7	0.00517
2951.35	0.00429
2960.99	0.00239
2970.64	0.00294
2980.28	0.00333
2989.93	0.00315
2999.57	0.001824
3009.22	0.002152
3018.86	0.0014474
3028.51	0.0020367
3038.15	0.0015318
3047.8	0.00125755
3057.44	0.0014765
3067.09	0.00299
3076.73	0.00463
3086.38	0.00416
3096.02	0.00279
3105.67	0.0021944
3115.31	0.0014381
3124.95	0.00128718
3134.6	0.001104
3144.24	0.0011605
3153.89	0.0008
3163.53	0.000836
3173.18	0.001038
3182.82	0.00088
3192.47	0.000856
3202.11	0.0014343
3211.76	0.001015
3221.4	0.000657
3231.05	0.001457
3240.69	0.0014753
3250.34	0.000734
3259.98	0.00129645
3269.63	0.0019368
3279.27	0.00258
3288.92	0.0020587
3298.56	0.0019978
3308.21	0.0015344
3317.85	0.000969
3327.49	0.0012006
3337.14	7e-05
3346.78	0.0013635
3356.43	0.001095
3366.07	0.000579
3375.72	0.000924
3385.36	0.0011447
3395.01	0.000476
3404.65	0.00021
3414.3	0.000537
3423.94	0.000226
3433.59	0.000931
3443.23	0.00048
3452.88	0.000453
3462.52	0.00087
3472.17	0.0015015
3481.81	0.000592
3491.46	0.00092
3501.1	0.0011225
3510.75	0.000602
3520.39	0.00019
3530.04	0.0015069
3539.68	0.0016539
3549.32	0.00277
3558.97	0.00325
3568.61	0.00346
3578.26	0.00307
3587.9	0.00130839
3597.55	0.0014768
3607.19	0.001003
3616.84	0.001014
3626.48	0.000921
3636.13	0.0011223
3645.77	0.0013288
3655.42	0.000844
3665.06	0.000927
3674.71	0.000707
3684.35	0.000865
3694	0.001007
3703.64	0.0013483
3713.29	0.000642
3722.93	0.000508
3732.58	0.000644
3742.22	0.000511
3751.86	0.001052
3761.51	0.000794
3771.15	0.000771
3780.8	0.000766
3790.44	0.0013522
3800.09	0.00016
3809.73	0.000951
3819.38	0.0017856
3829.02	0.000439
3838.67	0.000371
3848.31	0.000913
3857.96	0.000644
3867.6	0.00126423
3877.25	0.000975
3886.89	0.00124478
3896.54	0.000684
3906.18	0.000389
3915.83	0.000763
3925.47	0.000765
3935.12	0.000872
3944.76	0.001038
3954.41	0.000918
3964.05	0.000767
3973.69	0.000878
3983.34	0.0019085
3992.98	0.0011739
