Infrared Spectrum: 2-Fluorophenyl isothiocyanate
Formula: C 7 H 4 F N S
CAS: 38985-64-7
State: gas
Origin: EPA-IR VAPOR PHASE LIBRARY
1/CM	ABSORBANCE
549.8	0.021216
559.445	0.025056
569.09	0.014836
578.734	0.010786
588.379	0.011526
598.024	0.010736
607.669	0.007866
617.313	0.005786
626.958	0.005946
636.603	0.006456
646.248	0.005506
655.893	0.005076
665.537	0.006356
675.182	0.012876
684.827	0.018306
694.472	0.008176
704.116	0.003846
713.761	0.003246
723.406	0.006856
733.051	0.025756
742.695	0.062916
752.34	0.103646
761.985	0.050366
771.63	0.013996
781.275	0.004536
790.919	0.007906
800.564	0.018126
810.209	0.021496
819.854	0.015776
829.498	0.006516
839.143	0.003796
848.788	0.001866
858.433	0.0011662
868.078	0.0009523
877.722	0.001576
887.367	0.003596
897.012	0.005476
906.657	0.005806
916.301	0.007046
925.946	0.011196
935.591	0.022666
945.236	0.042826
954.88	0.040376
964.525	0.015676
974.17	0.006326
983.815	0.004406
993.46	0.003926
1003.1	0.003006
1012.75	0.003166
1022.39	0.004926
1032.04	0.004936
1041.68	0.001936
1051.33	0.0008582
1060.97	0.0003844
1070.62	0.0012371
1080.26	0.002326
1089.91	0.006886
1099.55	0.017546
1109.2	0.017456
1118.84	0.007906
1128.49	0.002796
1138.13	0.0013795
1147.78	0.002276
1157.42	0.001706
1167.07	0.0012738
1176.71	0.0012332
1186.36	0.002336
1196	0.005826
1205.64	0.017146
1215.29	0.031766
1224.93	0.032466
1234.58	0.015696
1244.22	0.009876
1253.87	0.017546
1263.51	0.035136
1273.16	0.035936
1282.8	0.021076
1292.45	0.013696
1302.09	0.006646
1311.74	0.004146
1321.38	0.002656
1331.03	0.001986
1340.67	0.001616
1350.32	0.001436
1359.96	0.001333
1369.61	0.0014064
1379.25	0.001576
1388.9	0.002696
1398.54	0.003396
1408.18	0.003046
1417.83	0.002876
1427.47	0.002746
1437.12	0.004456
1446.76	0.011436
1456.41	0.018576
1466.05	0.017356
1475.7	0.017316
1485.34	0.044956
1494.99	0.087986
1504.63	0.076696
1514.28	0.033906
1523.92	0.017576
1533.57	0.009286
1543.21	0.006996
1552.86	0.006266
1562.5	0.007226
1572.15	0.011066
1581.79	0.018456
1591.44	0.023096
1601.08	0.026876
1610.73	0.024616
1620.37	0.010016
1630.01	0.004096
1639.66	0.003286
1649.3	0.002826
1658.95	0.002606
1668.59	0.002906
1678.24	0.004016
1687.88	0.003796
1697.53	0.003016
1707.17	0.002826
1716.82	0.002246
1726.46	0.002056
1736.11	0.002216
1745.75	0.002606
1755.4	0.003356
1765.04	0.004216
1774.69	0.005496
1784.33	0.005586
1793.98	0.004366
1803.62	0.003716
1813.27	0.004166
1822.91	0.004606
1832.55	0.004806
1842.2	0.005936
1851.84	0.007606
1861.49	0.009896
1871.13	0.011136
1880.78	0.012816
1890.42	0.017306
1900.07	0.020966
1909.71	0.021406
1919.36	0.023906
1929	0.032536
1938.65	0.043856
1948.29	0.056446
1957.94	0.073196
1967.58	0.096026
1977.23	0.128946
1986.87	0.171086
1996.52	0.218776
2006.16	0.275156
2015.81	0.364586
2025.45	0.507576
2035.1	0.622106
2044.74	0.587326
2054.38	0.440696
2064.03	0.276896
2073.67	0.193146
2083.32	0.194406
2092.96	0.245826
2102.61	0.300136
2112.25	0.286466
2121.9	0.200896
2131.54	0.120246
2141.19	0.079476
2150.83	0.064976
2160.48	0.062616
2170.12	0.060776
2179.77	0.049036
2189.41	0.034316
2199.06	0.024576
2208.7	0.020026
2218.35	0.018656
2227.99	0.017696
2237.64	0.014936
2247.28	0.010206
2256.92	0.006626
2266.57	0.004816
2276.21	0.004126
2285.86	0.003866
2295.5	0.003786
2305.15	0.003546
2314.79	0.003276
2324.44	0.002586
2334.08	0.002056
2343.73	0.002056
2353.37	0.002306
2363.02	0.003146
2372.66	0.004376
2382.31	0.005156
2391.95	0.005206
2401.6	0.004586
2411.24	0.003906
2420.89	0.003786
2430.53	0.004326
2440.18	0.004396
2449.82	0.003826
2459.47	0.003296
2469.11	0.003426
2478.75	0.004036
2488.4	0.005126
2498.04	0.005866
2507.69	0.005446
2517.33	0.004726
2526.98	0.004626
2536.62	0.004916
2546.27	0.005596
2555.91	0.007166
2565.56	0.008086
2575.2	0.007526
2584.85	0.006616
2594.49	0.006456
2604.14	0.005626
2613.78	0.004236
2623.43	0.003086
2633.07	0.002496
2642.72	0.002316
2652.36	0.002356
2662.01	0.002566
2671.65	0.002866
2681.29	0.003046
2690.94	0.003256
2700.58	0.003976
2710.23	0.005186
2719.87	0.006816
2729.52	0.007346
2739.16	0.006086
2748.81	0.004176
2758.45	0.002906
2768.1	0.002566
2777.74	0.002446
2787.39	0.002396
2797.03	0.002176
2806.68	0.001756
2816.32	0.001506
2825.97	0.001546
2835.61	0.001796
2845.26	0.001926
2854.9	0.001916
2864.55	0.001676
2874.19	0.001476
2883.84	0.0012525
2893.48	0.0012816
2903.12	0.001546
2912.77	0.001416
2922.41	0.001626
2932.06	0.001676
2941.7	0.001686
2951.35	0.001876
2960.99	0.002216
2970.64	0.002406
2980.28	0.002936
2989.93	0.003056
2999.57	0.002356
3009.22	0.001866
3018.86	0.001956
3028.51	0.002586
3038.15	0.003946
3047.8	0.005916
3057.44	0.006766
3067.09	0.008666
3076.73	0.011006
3086.38	0.010866
3096.02	0.008176
3105.67	0.004186
3115.31	0.002126
3124.95	0.001056
3134.6	0.000658
3144.24	0.0005465
3153.89	0.00047104
3163.53	0.0003266
3173.18	0.0003258
3182.82	0.0003952
3192.47	0.000225
3202.11	0.000316
3211.76	0.00028
3221.4	0.000276
3231.05	0.000276
3240.69	0.000119
3250.34	0.000296
3259.98	0.000181
3269.63	0.000238
3279.27	4.8e-05
3288.92	9.2e-05
3298.56	0.00027
3308.21	0.000266
3317.85	0.0003361
3327.49	0.000203
3337.14	0.0003194
3346.78	0.000307
3356.43	0.000228
3366.07	0.000172
3375.72	0.0003389
3385.36	0.000227
3395.01	0.000312
3404.65	0.0004041
3414.3	0.000314
3423.94	0.000289
3433.59	0.0004019
3443.23	0.000304
3452.88	0.0003451
3462.52	0.000415355
3472.17	0.000211
3481.81	0.00040993
3491.46	0.0003627
3501.1	0.000275
3510.75	0.00047044
3520.39	0.0003592
3530.04	0.00050183
3539.68	0.00045642
3549.32	0.00049398
3558.97	0.00047975
3568.61	0.00045494
3578.26	0.0003826
3587.9	0.00051286
3597.55	0.00049252
3607.19	0.0003285
3616.84	0.000423261
3626.48	0.0004953
3636.13	0.0006843
3645.77	0.0005852
3655.42	0.00043163
3665.06	0.00047806
3674.71	0.000608
3684.35	0.0006753
3694	0.0004906
3703.64	0.00051076
3713.29	0.000417419
3722.93	0.0006385
3732.58	0.0005932
3742.22	0.0007109
3751.86	0.000297
3761.51	0.0005315
3771.15	0.0005981
3780.8	0.0004055
3790.44	0.000841
3800.09	0.0007019
3809.73	0.0007057
3819.38	0.0007211
3829.02	0.0008141
3838.67	0.000961
3848.31	0.0007523
3857.96	0.0008529
3867.6	0.0012272
3877.25	0.0010754
3886.89	0.0012397
3896.54	0.0013125
3906.18	0.001308
3915.83	0.0011246
3925.47	0.0012367
3935.12	0.0014149
3944.76	0.001536
3954.41	0.001596
3964.05	0.001666
3973.69	0.001976
3983.34	0.002036
3992.98	0.002256
