Infrared Spectrum: BENZYL ALCOHOL, Alpha-(1-AMINOETHYL)-2,5-DIMETHOXY-
Formula: C11 H17 N O3
CAS: 390-28-3
State: LIQUID (NEAT)
Class: COBLENTZ III
Instrument: PERKIN-ELMER 21 (GRATING)
Instrument parameters: NaCl PRISM
Sampling: TRANSMISSION
Path length: CAPILLARY
Resolution: 2
Origin: SMITH KLINE & FRENCH LABS.
MICROMETERS	TRANSMITTANCE
2.011	1
2.04527	0.996
2.07954	0.995
2.11381	0.997
2.14809	0.997
2.18236	0.998
2.21663	0.997
2.2509	0.991
2.28517	0.979
2.31944	0.979
2.35372	0.982
2.38799	0.989
2.42226	0.99
2.45653	0.984
2.4908	0.98
2.52507	0.982
2.55935	0.989
2.59362	0.993
2.62789	0.992
2.66216	0.996
2.69643	0.997
2.7307	0.981
2.76498	0.965
2.79925	0.93
2.83352	0.889
2.86779	0.833
2.90206	0.794
2.93633	0.752
2.97061	0.71
3.00488	0.655
3.03915	0.658
3.07342	0.661
3.10769	0.669
3.14196	0.668
3.17624	0.662
3.21051	0.662
3.24478	0.662
3.27905	0.663
3.31332	0.676
3.34759	0.655
3.38186	0.589
3.41614	0.549
3.45041	0.552
3.48468	0.589
3.51895	0.641
3.55322	0.624
3.58749	0.69
3.62177	0.723
3.65604	0.742
3.69031	0.75
3.72458	0.762
3.75885	0.778
3.79312	0.785
3.8274	0.801
3.86167	0.818
3.89594	0.822
3.93021	0.831
3.96448	0.839
3.99875	0.842
4.03303	0.848
4.0673	0.856
4.10157	0.866
4.13584	0.872
4.17011	0.883
4.20438	0.889
4.23866	0.894
4.27293	0.902
4.3072	0.908
4.34147	0.906
4.37574	0.902
4.41001	0.902
4.44428	0.902
4.47856	0.902
4.51283	0.901
4.5471	0.901
4.58137	0.9
4.61564	0.898
4.64991	0.897
4.68419	0.895
4.71846	0.9
4.75273	0.9
4.787	0.898
4.82127	0.892
4.85554	0.881
4.88982	0.883
4.92409	0.886
4.95836	0.89
4.99263	0.891
5.0269	0.891
5.06117	0.89
5.09545	0.89
5.12972	0.891
5.16399	0.898
5.19826	0.9
5.23253	0.902
5.2668	0.902
5.30108	0.902
5.33535	0.9
5.36962	0.896
5.40389	0.896
5.43816	0.895
5.47243	0.892
5.50671	0.892
5.54098	0.892
5.57525	0.892
5.60952	0.892
5.64379	0.892
5.67806	0.892
5.71233	0.892
5.74661	0.89
5.78088	0.89
5.81515	0.889
5.84942	0.887
5.88369	0.89
5.91796	0.879
5.95224	0.872
5.98651	0.857
6.02078	0.842
6.05505	0.834
6.08932	0.817
6.12359	0.805
6.15787	0.788
6.19214	0.741
6.22641	0.707
6.26068	0.654
6.29495	0.615
6.32922	0.646
6.3635	0.688
6.39777	0.734
6.43204	0.758
6.46631	0.777
6.50058	0.786
6.53485	0.778
6.56913	0.758
6.6034	0.656
6.63767	0.507
6.67194	0.219
6.70621	0.207
6.74048	0.393
6.77475	0.484
6.80903	0.419
6.8433	0.395
6.87757	0.44
6.91184	0.473
6.94611	0.5
6.98038	0.52
7.01466	0.51
7.04893	0.562
7.0832	0.64
7.11747	0.689
7.15174	0.7
7.18601	0.691
7.22029	0.688
7.25456	0.672
7.28883	0.666
7.3231	0.672
7.35737	0.699
7.39164	0.714
7.42592	0.716
7.46019	0.725
7.49446	0.728
7.52873	0.718
7.563	0.712
7.59727	0.7
7.63155	0.678
7.66582	0.645
7.70009	0.617
7.73436	0.585
7.76863	0.574
7.8029	0.549
7.83718	0.42
7.87145	0.388
7.90572	0.483
7.93999	0.557
7.97426	0.563
8.00853	0.578
8.0428	0.529
8.07708	0.524
8.11135	0.528
8.14562	0.451
8.17989	0.349
8.21416	0.211
8.24843	0.171
8.28271	0.249
8.31698	0.438
8.35125	0.574
8.38552	0.617
8.41979	0.601
8.45406	0.58
8.48834	0.506
8.52261	0.478
8.55688	0.605
8.59115	0.637
8.62542	0.577
8.65969	0.514
8.69397	0.54
8.72824	0.63
8.76251	0.678
8.79678	0.699
8.83105	0.716
8.86532	0.728
8.8996	0.741
8.93387	0.739
8.96814	0.728
9.00241	0.724
9.03668	0.725
9.07095	0.71
9.10522	0.668
9.1395	0.638
9.17377	0.637
9.20804	0.646
9.24231	0.657
9.27658	0.656
9.31085	0.655
9.34513	0.666
9.3794	0.65
9.41367	0.621
9.44794	0.557
9.48221	0.462
9.51648	0.358
9.55076	0.258
9.58503	0.243
9.6193	0.287
9.65357	0.369
9.68784	0.432
9.72211	0.454
9.75639	0.439
9.79066	0.439
9.82493	0.481
9.8592	0.538
9.89347	0.571
9.92774	0.598
9.96202	0.6
9.99629	0.613
10.0306	0.621
10.0648	0.617
10.0991	0.61
10.1334	0.606
10.1676	0.616
10.2019	0.63
10.2362	0.635
10.2705	0.637
10.3047	0.633
10.339	0.629
10.3733	0.626
10.4075	0.624
10.4418	0.623
10.4761	0.624
10.5104	0.622
10.5446	0.623
10.5789	0.63
10.6132	0.639
10.6474	0.647
10.6817	0.651
10.716	0.662
10.7503	0.669
10.7845	0.669
10.8188	0.663
10.8531	0.657
10.8873	0.651
10.9216	0.656
10.9559	0.667
10.9902	0.671
11.0244	0.678
11.0587	0.691
11.093	0.697
11.1273	0.7
11.1615	0.699
11.1958	0.689
11.2301	0.678
11.2643	0.657
11.2986	0.65
11.3329	0.66
11.3672	0.666
11.4014	0.668
11.4357	0.669
11.47	0.68
11.5042	0.697
11.5385	0.701
11.5728	0.713
11.6071	0.717
11.6413	0.712
11.6756	0.704
11.7099	0.701
11.7441	0.707
11.7784	0.717
11.8127	0.729
11.847	0.734
11.8812	0.738
11.9155	0.738
11.9498	0.729
11.984	0.713
12.0183	0.674
12.0526	0.638
12.0869	0.613
12.1211	0.582
12.1554	0.571
12.1897	0.572
12.2239	0.583
12.2582	0.594
12.2925	0.596
12.3268	0.585
12.361	0.57
12.3953	0.561
12.4296	0.559
12.4638	0.565
12.4981	0.582
12.5324	0.599
12.5667	0.612
12.6009	0.621
12.6352	0.629
12.6695	0.644
12.7037	0.661
12.738	0.686
12.7723	0.712
12.8066	0.73
12.8408	0.74
12.8751	0.75
12.9094	0.753
12.9436	0.756
12.9779	0.757
13.0122	0.761
13.0465	0.76
13.0807	0.76
13.115	0.76
13.1493	0.76
13.1835	0.76
13.2178	0.762
13.2521	0.764
13.2864	0.764
13.3206	0.762
13.3549	0.762
13.3892	0.761
13.4234	0.755
13.4577	0.749
13.492	0.741
13.5263	0.733
13.5605	0.725
13.5948	0.719
13.6291	0.708
13.6634	0.683
13.6976	0.662
13.7319	0.651
13.7662	0.66
13.8004	0.679
13.8347	0.694
13.869	0.699
13.9033	0.694
13.9375	0.668
13.9718	0.63
14.0061	0.596
14.0403	0.572
14.0746	0.567
14.1089	0.58
14.1432	0.599
14.1774	0.6
14.2117	0.589
14.246	0.578
14.2802	0.587
14.3145	0.623
14.3488	0.646
14.3831	0.68
14.4173	0.701
14.4516	0.722
14.4859	0.735
14.5201	0.741
14.5544	0.749
14.5887	0.753
14.623	0.751
14.6572	0.753
14.6915	0.755
14.7258	0.757
14.76	0.755
14.7943	0.756
14.8286	0.75
14.8629	0.753
14.8971	0.751
14.9314	0.749
14.9657	0.744
14.9999	0.735
15.0342	0.734
15.0685	0.736
15.1028	0.742
15.137	0.735
15.1713	0.738
15.2056	0.741
15.2398	0.742
15.2741	0.747
