Infrared Spectrum: 2-ACETYLAMINO-6-METHOXY-NAPHTHALENE
Formula: C13 H13 N O2
CAS: 3900-46-7
State: SOLID (1.0% IN KBr PELLET)
Class: COBLENTZ
Instrument: Not specified, most likely a prism, grating, or hybrid spectrometer.
Sampling: TRANSMISSION
Path length: 0.0355 CM
Resolution: 4
Origin: ANDERSON PHYSICAL LABORATORY
1/CM	TRANSMITTANCE
663.96	0.754
672.392	0.755
680.825	0.751
689.257	0.732
697.689	0.726
706.121	0.738
714.554	0.726
722.986	0.72
731.418	0.718
739.85	0.721
748.283	0.723
756.715	0.733
765.147	0.755
773.579	0.779
782.012	0.788
790.444	0.782
798.876	0.744
807.308	0.624
815.741	0.579
824.173	0.582
832.605	0.785
841.038	0.766
849.47	0.6492
857.902	0.401
866.334	0.6418
874.767	0.76
883.199	0.696
891.631	0.6059
900.063	0.799
908.496	0.839
916.928	0.83
925.36	0.829
933.792	0.802
942.225	0.764
950.657	0.766
959.089	0.739
967.521	0.727
975.954	0.77
984.386	0.77
992.818	0.752
1001.25	0.721
1009.68	0.6311
1018.12	0.511
1026.55	0.561
1034.98	0.479
1043.41	0.624
1051.84	0.806
1060.28	0.809
1068.71	0.802
1077.14	0.793
1085.57	0.781
1094.01	0.77
1102.44	0.758
1110.87	0.727
1119.3	0.6241
1127.73	0.6509
1136.17	0.735
1144.6	0.715
1153.03	0.645
1161.46	0.537
1169.9	0.4671
1178.33	0.586
1186.76	0.66
1195.19	0.649
1203.62	0.622
1212.06	0.663
1220.49	0.573
1228.92	0.429
1237.35	0.27
1245.79	0.4921
1254.22	0.63
1262.65	0.4351
1271.08	0.276
1279.52	0.4019
1287.95	0.544
1296.38	0.754
1304.81	0.782
1313.24	0.767
1321.68	0.739
1330.11	0.684
1338.54	0.5529
1346.97	0.441
1355.41	0.673
1363.84	0.642
1372.27	0.549
1380.7	0.419
1389.13	0.357
1397.57	0.29
1406	0.458
1414.43	0.426
1422.86	0.3151
1431.3	0.5219
1439.73	0.573
1448.16	0.574
1456.59	0.576
1465.02	0.564
1473.46	0.579
1481.89	0.585
1490.32	0.55
1498.75	0.519
1507.19	0.531
1515.62	0.511
1524.05	0.452
1532.48	0.374
1540.92	0.305
1549.35	0.208
1557.78	0.17
1566.21	0.149
1574.64	0.203
1583.08	0.32
1591.51	0.223
1599.94	0.335
1608.37	0.449
1616.81	0.511
1625.24	0.604
1633.67	0.604
1642.1	0.507
1650.53	0.431
1658.97	0.302
1667.4	0.25
1675.83	0.3992
1684.26	0.6299
1692.7	0.738
1701.13	0.841
1709.56	0.869
1717.99	0.881
1726.43	0.893
1734.86	0.89
1743.29	0.892
1751.72	0.892
1760.15	0.895
1768.59	0.895
1777.02	0.913
1785.45	0.925
1793.88	0.934
1802.32	0.955
1810.75	0.964
1819.18	0.956
1827.61	0.955
1836.04	0.953
1844.48	0.95
1852.91	0.95
1861.34	0.949
1869.77	0.947
1878.21	0.941
1886.64	0.932
1895.07	0.931
1903.5	0.92
1911.93	0.913
1920.37	0.913
1928.8	0.926
1937.23	0.932
1945.66	0.934
1954.1	0.934
1962.53	0.932
1970.96	0.929
1979.39	0.928
1987.83	0.932
1996.26	0.946
2004.69	0.946
2013.12	0.944
2021.55	0.9415
2029.99	0.938
2038.42	0.9334
2046.85	0.9299
2055.28	0.929
2063.72	0.935
2072.15	0.937
2080.58	0.938
2089.01	0.938
2097.44	0.9369
2105.88	0.9347
2114.31	0.9328
2122.74	0.932
2131.17	0.931
2139.61	0.931
2148.04	0.9316
2156.47	0.9349
2164.9	0.938
2173.34	0.937
2181.77	0.9358
2190.2	0.935
2198.63	0.9371
2207.06	0.9404
2215.5	0.9423
2223.93	0.943
2232.36	0.943
2240.79	0.943
2249.23	0.943
2257.66	0.941
2266.09	0.9345
2274.52	0.931
2282.95	0.931
2291.39	0.931
2299.82	0.9288
2308.25	0.926
2316.68	0.925
2325.12	0.926
2333.55	0.9294
2341.98	0.9315
2350.41	0.932
2358.84	0.932
2367.28	0.932
2375.71	0.932
2384.14	0.932
2392.57	0.931
2401.01	0.9287
2409.44	0.927
2417.87	0.926
2426.3	0.9249
2434.74	0.9227
2443.17	0.922
2451.6	0.922
2460.03	0.922
2468.46	0.922
2476.9	0.9209
2485.33	0.92
2493.76	0.9188
2502.19	0.913
2510.63	0.9093
2519.06	0.9072
2527.49	0.907
2535.92	0.907
2544.35	0.9058
2552.79	0.9023
2561.22	0.901
2569.65	0.8986
2578.08	0.8954
2586.52	0.893
2594.95	0.8929
2603.38	0.892
2611.81	0.8907
2620.24	0.89
2628.68	0.889
2637.11	0.8866
2645.54	0.8833
2653.97	0.883
2662.41	0.883
2670.84	0.883
2679.27	0.8803
2687.7	0.877
2696.14	0.8736
2704.57	0.8715
2713	0.8615
2721.43	0.853
2729.86	0.8508
2738.3	0.8446
2746.73	0.8353
2755.16	0.832
2763.59	0.827
2772.03	0.825
2780.46	0.8207
2788.89	0.8048
2797.32	0.7943
2805.75	0.7875
2814.19	0.7847
2822.62	0.7839
2831.05	0.781
2839.48	0.7799
2847.92	0.779
2856.35	0.7749
2864.78	0.769
2873.21	0.7613
2881.65	0.757
2890.08	0.7538
2898.51	0.751
2906.94	0.7488
2915.37	0.7367
2923.81	0.7348
2932.24	0.7313
2940.67	0.7277
2949.1	0.7212
2957.54	0.717
2965.97	0.715
2974.4	0.714
2982.83	0.7122
2991.26	0.712
2999.7	0.712
3008.13	0.7097
3016.56	0.7052
3024.99	0.6976
3033.43	0.6746
3041.86	0.6576
3050.29	0.6481
3058.72	0.6394
3067.15	0.6326
3075.59	0.6228
3084.02	0.6161
3092.45	0.615
3100.88	0.6174
3109.32	0.6247
3117.75	0.625
3126.18	0.6205
3134.61	0.608
3143.05	0.6015
3151.48	0.598
3159.91	0.5947
3168.34	0.5915
3176.77	0.5894
3185.21	0.583
3193.64	0.5743
3202.07	0.5579
3210.5	0.5426
3218.94	0.5335
3227.37	0.5113
3235.8	0.4893
3244.23	0.4551
3252.66	0.4306
3261.1	0.4243
3269.53	0.4256
3277.96	0.4361
3286.39	0.4509
3294.83	0.4721
3303.26	0.4923
3311.69	0.5175
3320.12	0.5694
3328.56	0.6097
3336.99	0.6544
3345.42	0.6724
3353.85	0.6793
3362.28	0.6828
3370.72	0.684
3379.15	0.684
3387.58	0.682
3396.01	0.6816
3404.45	0.6763
3412.88	0.6663
3421.31	0.664
3429.74	0.666
3438.17	0.666
3446.61	0.667
3455.04	0.669
3463.47	0.671
3471.9	0.6782
3480.34	0.681
3488.77	0.6842
3497.2	0.6895
3505.63	0.697
3514.06	0.702
3522.5	0.705
3530.93	0.7085
3539.36	0.711
3547.79	0.7151
3556.23	0.7255
3564.66	0.7376
3573.09	0.749
3581.52	0.7583
3589.96	0.7672
3598.39	0.773
3606.82	0.7776
3615.25	0.778
3623.68	0.78
3632.12	0.7867
3640.55	0.79
3648.98	0.7931
3657.41	0.794
3665.85	0.794
3674.28	0.794
3682.71	0.794
3691.14	0.794
3699.57	0.794
3708.01	0.794
3716.44	0.794
3724.87	0.793
3733.3	0.7917
3741.74	0.791
3750.17	0.787
3758.6	0.7846
3767.03	0.782
3775.46	0.7734
3783.9	0.7698
3792.33	0.767
3800.76	0.767
3809.19	0.767
3817.63	0.769
3826.06	0.77
3834.49	0.77
3842.92	0.77
3851.36	0.772
3859.79	0.772
3868.22	0.772
3876.65	0.772
3885.08	0.77
3893.52	0.769
3901.95	0.767
3910.38	0.767
3918.81	0.766
3927.25	0.764
3935.68	0.7632
3944.11	0.7599
3952.54	0.7564
3960.97	0.7544
3969.41	0.752
3977.84	0.7542
