Infrared Spectrum: 1,3,5-TRIMETHYL-1,3,5-TRIVINYLCYCLOTRISILOXANE
Formula: C9 H18 O3 Si3
CAS: 3901-77-7
State: SOLUTION (10% IN CCl4 FOR 3800-1300, 2% IN CS2 FOR 1300-630, AND 10% IN CCl4 FOR 630-260 CM^-^1) VS. SOLVENT
Boiling point: 80 C AT 20 mmHg
Class: COBLENTZ III
Instrument: PERKIN-ELMER 521 (GRATING)
Instrument parameters: FILTERS AT 3150, 2500, 2000, 1150, 700, 410. GRATING CHANGES: 2000, 630 CM^-^1
Sampling: TRANSMISSION
Path length: 0.012 CM, 0.012 CM, AND 0.009 CM
Resolution: 2
Origin: DOW CORNING CORP.
1/CM	TRANSMITTANCE
265.538	0.716
274.769	0.703
284	0.685
293.23	0.628
302.461	0.599
311.692	0.643
320.923	0.696
330.154	0.682
339.384	0.665
348.615	0.661
357.846	0.661
367.077	0.661
376.308	0.657
385.538	0.631
394.769	0.618
404	0.603
413.231	0.508
422.462	0.5
431.692	0.589
440.923	0.69
450.154	0.705
459.385	0.732
468.615	0.726
477.846	0.75
487.077	0.772
496.308	0.776
505.539	0.757
514.769	0.69
524	0.582
533.231	0.414
542.462	0.355
551.693	0.633
560.923	0.788
570.154	0.815
579.385	0.822
588.616	0.797
597.847	0.743
607.077	0.572
616.308	0.261
625.539	0.202
634.77	0.8051
644.001	0.957
653.231	0.961
662.462	0.961
671.693	0.951
680.924	0.92
690.155	0.909
699.385	0.921
708.616	0.941
717.847	0.929
727.078	0.905
736.309	0.798
745.539	0.547
754.77	0.662
764.001	0.796
773.232	0.694
782.462	0.48
791.693	0.481
800.924	0.353
810.155	0.3831
819.386	0.696
828.616	0.652
837.847	0.599
847.078	0.722
856.309	0.822
865.54	0.858
874.77	0.878
884.001	0.89
893.232	0.904
902.463	0.906
911.694	0.907
920.924	0.904
930.155	0.89
939.386	0.878
948.617	0.833
957.848	0.687
967.078	0.625
976.309	0.772
985.54	0.717
994.771	0.57
1004	0.195
1013.23	0.014
1022.46	0.012
1031.69	0.1991
1040.92	0.4931
1050.16	0.676
1059.39	0.748
1068.62	0.782
1077.85	0.812
1087.08	0.834
1096.31	0.859
1105.54	0.885
1114.77	0.894
1124	0.904
1133.23	0.907
1142.46	0.911
1151.69	0.915
1160.93	0.917
1170.16	0.921
1179.39	0.922
1188.62	0.922
1197.85	0.92
1207.08	0.919
1216.31	0.916
1225.54	0.906
1234.77	0.89
1244	0.848
1253.23	0.6239
1262.46	0.5891
1271.69	0.787
1280.93	0.851
1290.16	0.853
1299.39	0.853
1308.62	0.853
1317.85	0.853
1327.08	0.853
1336.31	0.851
1345.54	0.848
1354.77	0.838
1364	0.818
1373.23	0.793
1382.46	0.753
1391.69	0.68
1400.93	0.4149
1410.16	0.1591
1419.39	0.5191
1428.62	0.736
1437.85	0.798
1447.08	0.822
1456.31	0.818
1465.54	0.825
1474.77	0.858
1484	0.86
1493.23	0.861
1502.46	0.864
1511.7	0.855
1520.93	0.848
1530.16	0.829
1539.39	0.814
1548.62	0.812
1557.85	0.814
1567.08	0.813
1576.31	0.81
1585.54	0.798
1594.77	0.6439
1604	0.6211
1613.23	0.786
1622.46	0.833
1631.7	0.832
1640.93	0.838
1650.16	0.863
1659.39	0.886
1668.62	0.894
1677.85	0.891
1687.08	0.888
1696.31	0.881
1705.54	0.879
1714.77	0.884
1724	0.894
1733.23	0.905
1742.47	0.907
1751.7	0.906
1760.93	0.904
1770.16	0.896
1779.39	0.889
1788.62	0.881
1797.85	0.889
1807.08	0.9
1816.31	0.904
1825.54	0.904
1834.77	0.9
1844	0.896
1853.23	0.894
1862.47	0.893
1871.7	0.895
1880.93	0.898
1890.16	0.898
1899.39	0.898
1908.62	0.891
1917.85	0.86
1927.08	0.81
1936.31	0.83
1945.54	0.884
1954.77	0.898
1964	0.904
1973.23	0.904
1982.47	0.905
1991.7	0.898
2000.93	0.8855
2010.16	0.8948
2019.39	0.907
2028.62	0.9106
2037.85	0.911
2047.08	0.9184
2056.31	0.922
2065.54	0.9258
2074.77	0.926
2084	0.927
2093.24	0.926
2102.47	0.925
2111.7	0.927
2120.93	0.932
2130.16	0.934
2139.39	0.9319
2148.62	0.9299
2157.85	0.93
2167.08	0.93
2176.31	0.93
2185.54	0.93
2194.77	0.93
2204	0.927
2213.24	0.9256
2222.47	0.9244
2231.7	0.929
2240.93	0.9255
2250.16	0.92
2259.39	0.9178
2268.62	0.9104
2277.85	0.9113
2287.08	0.9217
2296.31	0.926
2305.54	0.9335
2314.77	0.935
2324.01	0.937
2333.24	0.937
2342.47	0.937
2351.7	0.937
2360.93	0.936
2370.16	0.936
2379.39	0.936
2388.62	0.935
2397.85	0.9352
2407.08	0.937
2416.31	0.937
2425.54	0.9363
2434.77	0.94
2444.01	0.939
2453.24	0.937
2462.47	0.9364
2471.7	0.936
2480.93	0.936
2490.16	0.935
2499.39	0.9328
2508.62	0.932
2517.85	0.935
2527.08	0.931
2536.31	0.934
2545.54	0.9312
2554.78	0.929
2564.01	0.9212
2573.24	0.9151
2582.47	0.912
2591.7	0.911
2600.93	0.91
2610.16	0.914
2619.39	0.9211
2628.62	0.9311
2637.85	0.936
2647.08	0.9402
2656.31	0.9408
2665.54	0.941
2674.78	0.942
2684.01	0.944
2693.24	0.945
2702.47	0.946
2711.7	0.946
2720.93	0.9455
2730.16	0.9429
2739.39	0.942
2748.62	0.941
2757.85	0.94
2767.08	0.9353
2776.31	0.9303
2785.54	0.9202
2794.78	0.9124
2804.01	0.91
2813.24	0.909
2822.47	0.909
2831.7	0.907
2840.93	0.902
2850.16	0.895
2859.39	0.891
2868.62	0.8824
2877.85	0.8413
2887.08	0.8198
2896.31	0.8135
2905.55	0.7995
2914.78	0.7973
2924.01	0.7997
2933.24	0.7952
2942.47	0.6228
2951.7	0.4142
2960.93	0.3695
2970.16	0.3495
2979.39	0.4561
2988.62	0.6899
2997.85	0.7611
3007.08	0.7598
3016.31	0.673
3025.55	0.7087
3034.78	0.7885
3044.01	0.7711
3053.24	0.6937
3062.47	0.4729
3071.7	0.6702
3080.93	0.8002
3090.16	0.8802
3099.39	0.8913
3108.62	0.8991
3117.85	0.9023
3127.08	0.9062
3136.32	0.911
3145.55	0.9169
3154.78	0.9091
3164.01	0.91
3173.24	0.911
3182.47	0.9073
3191.7	0.8874
3200.93	0.9175
3210.16	0.9272
3219.39	0.9332
3228.62	0.9356
3237.85	0.935
3247.08	0.935
3256.32	0.934
3265.55	0.9358
3274.78	0.937
3284.01	0.9387
3293.24	0.936
3302.47	0.935
3311.7	0.935
3320.93	0.935
3330.16	0.935
3339.39	0.935
3348.62	0.932
3357.85	0.932
3367.08	0.932
3376.32	0.932
3385.55	0.932
3394.78	0.932
3404.01	0.931
3413.24	0.931
3422.47	0.9314
3431.7	0.93
3440.93	0.93
3450.16	0.93
3459.39	0.934
3468.62	0.935
3477.85	0.9317
3487.09	0.934
3496.32	0.932
3505.55	0.9358
3514.78	0.934
3524.01	0.934
3533.24	0.936
3542.47	0.936
3551.7	0.936
3560.93	0.937
3570.16	0.936
3579.39	0.935
3588.62	0.935
3597.85	0.935
3607.09	0.935
3616.32	0.937
3625.55	0.937
3634.78	0.9357
3644.01	0.934
3653.24	0.932
3662.47	0.932
3671.7	0.931
3680.93	0.932
3690.16	0.9315
3699.39	0.929
3708.62	0.927
3717.86	0.93
3727.09	0.927
3736.32	0.927
3745.55	0.9298
3754.78	0.9356
3764.01	0.9417
3773.24	0.9401
3782.47	0.937
3791.7	0.9389
3800.93	0.942
