Infrared Spectrum: ANILINE, 3,4-DIETHOXY-
Formula: C10 H15 N O2
CAS: 39052-12-5
State: SOLUTION (10% CCl4 FOR 3800-1330, 10% CS2 FOR 1330-400 CM^-^1) VS SOLVENT
Class: COBLENTZ III
Instrument: DOW KBr FOREPRISM-GRATING
Instrument parameters: BLAZED AT 3.5, 12.0, 20.0 MICRON AND CHANGED AT 5.0, 7.5, 14.9 MICRON
Sampling: TRANSMISSION
Path length: 0.011 CM, 0.011 CM
Resolution: 2
Origin: DOW CHEMICAL COMPANY
1/CM	TRANSMITTANCE
457	0.5987
466	0.6041
475	0.6067
484	0.6032
493	0.5853
502	0.5623
511	0.5598
520	0.5659
529	0.5527
538	0.5456
547	0.5374
556	0.5422
565	0.5331
574	0.5221
583	0.4772
592	0.4049
601	0.4343
610	0.4396
619	0.4699
628	0.5643
637	0.571
646	0.5523
655	0.564
664	0.5831
673	0.5991
682	0.5993
691	0.5972
700	0.6041
709	0.6192
718	0.6344
727	0.6369
736	0.6525
745	0.6376
754	0.6044
763	0.5595
772	0.5518
781	0.471
790	0.2889
799	0.3538
808	0.427
817	0.2829
826	0.3132
835	0.4551
844	0.4764
853	0.4885
862	0.5912
871	0.5862
880	0.5452
889	0.5241
898	0.4633
907	0.5733
916	0.5562
925	0.4883
934	0.6908
943	0.7011
952	0.6754
961	0.631
970	0.5821
979	0.4933
988	0.4587
997	0.5935
1006	0.5415
1015	0.4976
1024	0.3187
1033	0.1062
1042	0.0318
1051	0.0496
1060	0.3574
1069	0.6093
1078	0.5893
1087	0.3997
1096	0.4757
1105	0.3321
1114	0.2318
1123	0.1719
1132	0.0687
1141	0.1419
1150	0.3382
1159	0.3455
1168	0.3342
1177	0.1307
1186	0.0725
1195	0.2651
1204	0.2716
1213	0.0961
1222	0.0098
1231	0.0093
1240	0.0679
1249	0.1532
1258	0.0837
1267	0.0682
1276	0.0922
1285	0.1574
1294	0.1325
1303	0.2723
1312	0.3038
1321	0.2625
1330	0.3858
1339	0.6183
1348	0.7207
1357	0.7142
1366	0.6706
1375	0.5919
1384	0.3053
1393	0.1528
1402	0.4224
1411	0.6785
1420	0.6539
1429	0.5917
1438	0.3662
1447	0.1301
1456	0.403
1465	0.5041
1474	0.2954
1483	0.2882
1492	0.3627
1501	0.0738
1510	0.0001
1519	0.0149
1528	0.2859
1537	0.5509
1546	0.6757
1555	0.6761
1564	0.6487
1573	0.5809
1582	0.4598
1591	0.2644
1600	0.3282
1609	0.2497
1618	0.1126
1627	0.1676
1636	0.4405
1645	0.5919
1654	0.6995
1663	0.7511
1672	0.7684
1681	0.7795
1690	0.7881
1699	0.7944
1708	0.8032
1717	0.8185
1726	0.8268
1735	0.8321
1744	0.8368
1753	0.8401
1762	0.8408
1771	0.8399
1780	0.8378
1789	0.8314
1798	0.8313
1807	0.8366
1816	0.8383
1825	0.8377
1834	0.8314
1843	0.8245
1852	0.8297
1861	0.8402
1870	0.8438
1879	0.8436
1888	0.8404
1897	0.8356
1906	0.8287
1915	0.8178
1924	0.8134
1933	0.8197
1942	0.8217
1951	0.8336
1960	0.8378
1969	0.8377
1978	0.8411
1987	0.843
1996	0.8712
2005	0.881
2014	0.884
2023	0.8878
2032	0.8893
2041	0.8903
2050	0.891
2059	0.8905
2068	0.8893
2077	0.8942
2086	0.8989
2095	0.9025
2104	0.9062
2113	0.9067
2122	0.9066
2131	0.9061
2140	0.9035
2149	0.8981
2158	0.8982
2167	0.8988
2176	0.8995
2185	0.9014
2194	0.9034
2203	0.9057
2212	0.9067
2221	0.906
2230	0.905
2239	0.9028
2248	0.8996
2257	0.8971
2266	0.8962
2275	0.8956
2284	0.8958
2293	0.8978
2302	0.9021
2311	0.9056
2320	0.9068
2329	0.9067
2338	0.9058
2347	0.9042
2356	0.9028
2365	0.9017
2374	0.9003
2383	0.8985
2392	0.8948
2401	0.8896
2410	0.887
2419	0.8853
2428	0.8841
2437	0.8833
2446	0.8828
2455	0.8806
2464	0.8782
2473	0.8763
2482	0.8748
2491	0.872
2500	0.8751
2509	0.8798
2518	0.8789
2527	0.8778
2536	0.877
2545	0.8742
2554	0.8721
2563	0.8707
2572	0.8708
2581	0.8696
2590	0.8678
2599	0.8618
2608	0.8567
2617	0.8586
2626	0.8642
2635	0.8743
2644	0.8773
2653	0.8771
2662	0.8756
2671	0.8724
2680	0.8673
2689	0.861
2698	0.8527
2707	0.8414
2716	0.8255
2725	0.8171
2734	0.813
2743	0.8266
2752	0.834
2761	0.8187
2770	0.8117
2779	0.8325
2788	0.8315
2797	0.8204
2806	0.801
2815	0.776
2824	0.7734
2833	0.7284
2842	0.6871
2851	0.6646
2860	0.4938
2869	0.3472
2878	0.3392
2887	0.3782
2896	0.3386
2905	0.3512
2914	0.4072
2923	0.3534
2932	0.3017
2941	0.3998
2950	0.5148
2959	0.4191
2968	0.3409
2977	0.1317
2986	0.0975
2995	0.3546
3004	0.6117
3013	0.695
3022	0.6872
3031	0.6828
3040	0.683
3049	0.714
3058	0.7475
3067	0.779
3076	0.8125
3085	0.8307
3094	0.8406
3103	0.8461
3112	0.8487
3121	0.8514
3130	0.8607
3139	0.8616
3148	0.8611
3157	0.8567
3166	0.8488
3175	0.8398
3184	0.8271
3193	0.8126
3202	0.7975
3211	0.7934
3220	0.7953
3229	0.809
3238	0.8253
3247	0.8378
3256	0.8423
3265	0.8412
3274	0.8391
3283	0.8342
3292	0.8263
3301	0.814
3310	0.799
3319	0.7706
3328	0.7332
3337	0.6881
3346	0.6224
3355	0.5574
3364	0.509
3373	0.511
3382	0.5584
3391	0.6447
3400	0.7619
3409	0.7651
3418	0.7528
3427	0.7275
3436	0.6988
3445	0.6478
3454	0.6049
3463	0.6123
3472	0.6481
3481	0.7821
3490	0.8381
3499	0.8505
3508	0.8588
3517	0.8652
3526	0.8695
3535	0.8727
3544	0.8754
3553	0.8774
3562	0.8799
3571	0.8813
3580	0.882
3589	0.8817
3598	0.8813
3607	0.8807
3616	0.8801
3625	0.8793
3634	0.8785
3643	0.8782
3652	0.8778
3661	0.8775
3670	0.8764
3679	0.8754
3688	0.8751
3697	0.877
3706	0.8789
3715	0.8807
3724	0.8818
3733	0.8803
3742	0.8775
3751	0.8774
3760	0.8781
3769	0.8789
3778	0.8799
3787	0.8807
3796	0.8813
