Infrared Spectrum: Alpha-CHLOROPROPIONIC ACID ANHYDRIDE
Formula: C6 H8 Cl2 O3
CAS: 39060-20-3
State: SOLUTION (10% CCl4 FOR 5000-1330, 10% CS2 FOR 1330-625 CM^-^1)
Class: COBLENTZ
Instrument: Not specified, most likely a prism, grating, or hybrid spectrometer.
Sampling: TRANSMISSION
Path length: 0.0126 CM, 0.0126 CM
Resolution: 4
Origin: DOW CHEMICAL COMPANY
MICROMETERS	TRANSMITTANCE
2.034	0.897
2.07506	0.894
2.11611	0.899
2.15717	0.897
2.19823	0.892
2.23928	0.88
2.28034	0.887
2.3214	0.887
2.36245	0.892
2.40351	0.892
2.44457	0.899
2.48563	0.902
2.52668	0.904
2.56774	0.908
2.6088	0.902
2.64985	0.899
2.69091	0.894
2.73197	0.88
2.77302	0.872
2.81408	0.868
2.85514	0.875
2.89619	0.88
2.93725	0.877
2.97831	0.872
3.01936	0.872
3.06042	0.873
3.10148	0.872
3.14253	0.88
3.18359	0.882
3.22465	0.879
3.26571	0.867
3.30676	0.785
3.34782	0.693
3.38888	0.751
3.42993	0.851
3.47099	0.858
3.51205	0.882
3.5531	0.894
3.59416	0.901
3.63522	0.89
3.67627	0.897
3.71733	0.894
3.75839	0.897
3.79944	0.899
3.8405	0.897
3.88156	0.897
3.92261	0.896
3.96367	0.89
4.00473	0.89
4.04579	0.885
4.08684	0.89
4.1279	0.892
4.16896	0.887
4.21001	0.882
4.25107	0.884
4.29213	0.882
4.33318	0.879
4.37424	0.885
4.4153	0.89
4.45635	0.889
4.49741	0.892
4.53847	0.889
4.57952	0.89
4.62058	0.889
4.66164	0.889
4.70269	0.887
4.74375	0.884
4.78481	0.882
4.82587	0.879
4.86692	0.879
4.90798	0.88
4.94904	0.875
4.99009	0.875
5.03115	0.873
5.07221	0.873
5.11326	0.863
5.15432	0.853
5.19538	0.833
5.23643	0.809
5.27749	0.771
5.31855	0.724
5.3596	0.546
5.40066	0.265
5.44172	0.052
5.48278	0.086
5.52383	0.301
5.56489	0.383
5.60595	0.267
5.647	0.146
5.68806	0.197
5.72912	0.592
5.77017	0.715
5.81123	0.77
5.85229	0.79
5.89334	0.814
5.9344	0.829
5.97546	0.838
6.01651	0.839
6.05757	0.839
6.09863	0.836
6.13968	0.821
6.18074	0.78
6.2218	0.722
6.26286	0.65
6.30391	0.609
6.34497	0.572
6.38603	0.528
6.42708	0.471
6.46814	0.49
6.5092	0.58
6.55025	0.621
6.59131	0.66
6.63237	0.735
6.67342	0.773
6.71448	0.787
6.75554	0.768
6.79659	0.713
6.83765	0.502
6.87871	0.284
6.91976	0.647
6.96082	0.758
7.00188	0.766
7.04294	0.778
7.08399	0.771
7.12505	0.749
7.16611	0.669
7.20716	0.453
7.24822	0.698
7.28928	0.752
7.33033	0.749
7.37139	0.684
7.41245	0.606
7.4535	0.5
7.49456	0.451
7.53562	0.483
7.57667	0.54
7.61773	0.558
7.65879	0.611
7.69984	0.684
7.7409	0.715
7.78196	0.718
7.82302	0.706
7.86407	0.679
7.90513	0.632
7.94619	0.57
7.98724	0.482
8.0283	0.425
8.06936	0.386
8.11041	0.327
8.15147	0.328
8.19253	0.362
8.23358	0.354
8.27464	0.361
8.3157	0.441
8.35675	0.514
8.39781	0.543
8.43887	0.538
8.47992	0.483
8.52098	0.419
8.56204	0.339
8.6031	0.289
8.64415	0.318
8.68521	0.354
8.72627	0.378
8.76732	0.379
8.80838	0.366
8.84944	0.32
8.89049	0.245
8.93155	0.18
8.97261	0.141
9.01366	0.131
9.05472	0.144
9.09578	0.172
9.13683	0.143
9.17789	0.073
9.21895	0.039
9.26	0.073
9.30106	0.11
9.34212	0.105
9.38318	0.056
9.42423	0.028
9.46529	0.02
9.50635	0.015
9.5474	0.013
9.58846	0.01
9.62952	0.006
9.67057	0.005
9.71163	0.008
9.75269	0.008
9.79374	0.003
9.8348	0.01
9.87586	0.022
9.91691	0.047
9.95797	0.069
9.99903	0.083
10.0401	0.09
10.0811	0.114
10.1222	0.137
10.1633	0.165
10.2043	0.192
10.2454	0.209
10.2864	0.211
10.3275	0.26
10.3685	0.373
10.4096	0.495
10.4507	0.57
10.4917	0.62
10.5328	0.654
10.5738	0.676
10.6149	0.696
10.6559	0.703
10.697	0.713
10.7381	0.72
10.7791	0.724
10.8202	0.727
10.8612	0.722
10.9023	0.718
10.9433	0.701
10.9844	0.679
11.0254	0.654
11.0665	0.632
11.1076	0.632
11.1486	0.642
11.1897	0.65
11.2307	0.649
11.2718	0.637
11.3128	0.62
11.3539	0.599
11.395	0.572
11.436	0.528
11.4771	0.48
11.5181	0.434
11.5592	0.4
11.6002	0.376
11.6413	0.366
11.6824	0.361
11.7234	0.362
11.7645	0.379
11.8055	0.415
11.8466	0.461
11.8876	0.509
11.9287	0.558
11.9698	0.592
12.0108	0.623
12.0519	0.643
12.0929	0.659
12.134	0.666
12.175	0.671
12.2161	0.676
12.2572	0.678
12.2982	0.678
12.3393	0.679
12.3803	0.679
12.4214	0.681
12.4624	0.686
12.5035	0.686
12.5446	0.688
12.5856	0.688
12.6267	0.688
12.6677	0.686
12.7088	0.684
12.7498	0.681
12.7909	0.674
12.832	0.674
12.873	0.664
12.9141	0.659
12.9551	0.647
12.9962	0.632
13.0372	0.608
13.0783	0.584
13.1193	0.558
13.1604	0.528
13.2015	0.507
13.2425	0.497
13.2836	0.502
13.3246	0.517
13.3657	0.524
13.4067	0.533
13.4478	0.536
13.4889	0.538
13.5299	0.54
13.571	0.54
13.612	0.54
13.6531	0.538
13.6941	0.536
13.7352	0.531
13.7763	0.526
13.8173	0.522
13.8584	0.521
13.8994	0.514
13.9405	0.514
13.9815	0.514
14.0226	0.511
14.0637	0.507
14.1047	0.505
14.1458	0.5
14.1868	0.5
14.2279	0.495
14.2689	0.488
14.31	0.483
14.3511	0.48
14.3921	0.48
14.4332	0.473
14.4742	0.465
14.5153	0.458
14.5563	0.453
14.5974	0.448
14.6385	0.439
14.6795	0.432
14.7206	0.427
14.7616	0.419
14.8027	0.412
14.8437	0.402
14.8848	0.396
14.9258	0.388
14.9669	0.379
15.008	0.371
15.049	0.361
15.0901	0.352
15.1311	0.339
15.1722	0.323
15.2132	0.315
15.2543	0.308
15.2954	0.303
15.3364	0.296
15.3775	0.293
15.4185	0.293
15.4596	0.294
15.5006	0.296
15.5417	0.298
15.5828	0.301
15.6238	0.303
15.6649	0.298
15.7059	0.291
15.747	0.287
15.788	0.287
15.8291	0.281
