Infrared Spectrum: Chromone-3-carboxylic acid
Formula: C 10 H 6 O 4
CAS: 39079-62-4
State: gas
Origin: EPA-IR VAPOR PHASE LIBRARY
1/CM	ABSORBANCE
549.8	0.0017147
559.445	0.0020434
569.09	0.000484
578.734	0.00147331
588.379	0.000535
598.024	0.000958
607.669	0.000964
617.313	0.001137
626.958	0.0014482
636.603	0.00334
646.248	0.0041
655.893	0.0018904
665.537	0.000762
675.182	0.0016536
684.827	0.0018464
694.472	0.00149881
704.116	0.0019341
713.761	0.0022051
723.406	0.002248
733.051	0.0023532
742.695	0.00361
752.34	0.00695
761.985	0.01215
771.63	0.0072
781.275	0.00353
790.919	0.00249
800.564	0.00321
810.209	0.00347
819.854	0.00353
829.498	0.0020714
839.143	0.002063
848.788	0.00275
858.433	0.0022544
868.078	0.0017484
877.722	0.001218
887.367	0.001275
897.012	0.000988
906.657	0.001356
916.301	0.0020759
925.946	0.00288
935.591	0.001227
945.236	0.0017307
954.88	0.0022627
964.525	0.0015936
974.17	0.0016246
983.815	0.000695
993.46	0.001287
1003.1	0.00155295
1012.75	0.001057
1022.39	0.0017011
1032.04	0.00153317
1041.68	0.001344
1051.33	0.000864
1060.97	0.0019323
1070.62	0.0016214
1080.26	0.00034
1089.91	0.00308
1099.55	0.00508
1109.2	0.00887
1118.84	0.01004
1128.49	0.0022567
1138.13	0.0019247
1147.78	0.000484
1157.42	0.0016624
1167.07	0.00264
1176.71	0.0023396
1186.36	0.0021704
1196	0.0022211
1205.64	0.0022787
1215.29	0.00422
1224.93	0.0024156
1234.58	0.00312
1244.22	0.00475
1253.87	0.00337
1263.51	0.0022288
1273.16	0.0024658
1282.8	0.00316
1292.45	0.0043
1302.09	0.01122
1311.74	0.01129
1321.38	0.00863
1331.03	0.00991
1340.67	0.00843
1350.32	0.00531
1359.96	0.00509
1369.61	0.00628
1379.25	0.01011
1388.9	0.01755
1398.54	0.02304
1408.18	0.02063
1417.83	0.01734
1427.47	0.01288
1437.12	0.00845
1446.76	0.00664
1456.41	0.01028
1466.05	0.017
1475.7	0.01046
1485.34	0.0058
1494.99	0.00393
1504.63	0.00293
1514.28	0.00282
1523.92	0.00284
1533.57	0.00301
1543.21	0.00345
1552.86	0.00474
1562.5	0.00677
1572.15	0.00909
1581.79	0.00619
1591.44	0.00435
1601.08	0.00511
1610.73	0.01127
1620.37	0.0143
1630.01	0.01039
1639.66	0.0171
1649.3	0.03433
1658.95	0.02692
1668.59	0.00795
1678.24	0.0042
1687.88	0.00376
1697.53	0.00327
1707.17	0.00256
1716.82	0.002167
1726.46	0.00276
1736.11	0.00318
1745.75	0.00392
1755.4	0.0057
1765.04	0.01254
1774.69	0.03211
1784.33	0.03283
1793.98	0.01029
1803.62	0.00368
1813.27	0.00258
1822.91	0.0025
1832.55	0.0024396
1842.2	0.0022192
1851.84	0.002084
1861.49	0.0020668
1871.13	0.0018649
1880.78	0.0019155
1890.42	0.0017053
1900.07	0.0018388
1909.71	0.0019607
1919.36	0.0016913
1929	0.0017115
1938.65	0.0019494
1948.29	0.0018716
1957.94	0.0016935
1967.58	0.0016861
1977.23	0.0017519
1986.87	0.00153116
1996.52	0.0016697
2006.16	0.00151763
2015.81	0.0016044
2025.45	0.0016009
2035.1	0.0016957
2044.74	0.0013887
2054.38	0.0016874
2064.03	0.0015874
2073.67	0.0016394
2083.32	0.0015973
2092.96	0.00152851
2102.61	0.0015451
2112.25	0.0016172
2121.9	0.00148371
2131.54	0.0018616
2141.19	0.0016615
2150.83	0.00151926
2160.48	0.00154218
2170.12	0.00151445
2179.77	0.0018691
2189.41	0.0015971
2199.06	0.0017305
2208.7	0.001708
2218.35	0.00148854
2227.99	0.0017513
2237.64	0.0013997
2247.28	0.00154146
2256.92	0.0016958
2266.57	0.00154666
2276.21	0.0017547
2285.86	0.002013
2295.5	0.0019319
2305.15	0.0017667
2314.79	0.002007
2324.44	0.0020557
2334.08	0.002142
2343.73	0.0021996
2353.37	0.0023234
2363.02	0.00276
2372.66	0.0023027
2382.31	0.0016685
2391.95	0.0018904
2401.6	0.0018498
2411.24	0.0018057
2420.89	0.0018594
2430.53	0.0016236
2440.18	0.00147891
2449.82	0.0018195
2459.47	0.0019339
2469.11	0.0017844
2478.75	0.00156882
2488.4	0.0019864
2498.04	0.0018172
2507.69	0.0018185
2517.33	0.0016717
2526.98	0.0019274
2536.62	0.0016682
2546.27	0.0016612
2555.91	0.0020595
2565.56	0.0018291
2575.2	0.0019366
2584.85	0.001639
2594.49	0.0018227
2604.14	0.0018042
2613.78	0.0019496
2623.43	0.0017887
2633.07	0.0018934
2642.72	0.0019708
2652.36	0.0019123
2662.01	0.0018187
2671.65	0.0018882
2681.29	0.0020559
2690.94	0.0020001
2700.58	0.0018494
2710.23	0.0021685
2719.87	0.0023293
2729.52	0.0020183
2739.16	0.0021364
2748.81	0.0024108
2758.45	0.00255
2768.1	0.0023608
2777.74	0.00287
2787.39	0.0024437
2797.03	0.0024514
2806.68	0.0024056
2816.32	0.0024484
2825.97	0.0020768
2835.61	0.0022281
2845.26	0.0023413
2854.9	0.0020726
2864.55	0.0021227
2874.19	0.0024172
2883.84	0.0024572
2893.48	0.00269
2903.12	0.0024537
2912.77	0.00267
2922.41	0.00281
2932.06	0.00277
2941.7	0.00274
2951.35	0.0024277
2960.99	0.00255
2970.64	0.00297
2980.28	0.00283
2989.93	0.00262
2999.57	0.0024058
3009.22	0.0029
3018.86	0.00297
3028.51	0.00318
3038.15	0.00344
3047.8	0.00362
3057.44	0.00415
3067.09	0.0046
3076.73	0.00554
3086.38	0.00618
3096.02	0.00599
3105.67	0.00535
3115.31	0.00523
3124.95	0.0047
3134.6	0.00462
3144.24	0.00486
3153.89	0.00464
3163.53	0.00402
3173.18	0.0045
3182.82	0.00382
3192.47	0.00348
3202.11	0.0035
3211.76	0.00304
3221.4	0.00345
3231.05	0.00341
3240.69	0.00329
3250.34	0.00311
3259.98	0.00322
3269.63	0.00256
3279.27	0.00304
3288.92	0.00267
3298.56	0.00274
3308.21	0.00253
3317.85	0.0021616
3327.49	0.0020203
3337.14	0.0016884
3346.78	0.0017726
3356.43	0.0021996
3366.07	0.00151521
3375.72	0.0019244
3385.36	0.0016614
3395.01	0.001332
3404.65	0.0017401
3414.3	0.0019277
3423.94	0.002061
3433.59	0.0018659
3443.23	0.0019283
3452.88	0.0016148
3462.52	0.00126
3472.17	0.001295
3481.81	0.001165
3491.46	0.001148
3501.1	0.000909
3510.75	0.0014218
3520.39	0.00112
3530.04	0.00148142
3539.68	0.00149586
3549.32	0.001238
3558.97	0.0014112
3568.61	0.00155486
3578.26	0.0014618
3587.9	0.001184
3597.55	0.001091
3607.19	0.001074
3616.84	0.0014438
3626.48	0.00111
3636.13	0.00137
3645.77	0.001253
3655.42	0.001195
3665.06	0.001232
3674.71	0.001016
3684.35	0.00084
3694	0.001091
3703.64	0.001151
3713.29	0.001003
3722.93	0.000734
3732.58	0.000673
3742.22	0.001312
3751.86	0.001258
3761.51	0.001036
3771.15	0.001083
3780.8	0.000506
3790.44	0.000815
3800.09	0.001166
3809.73	0.001309
3819.38	0.0014396
3829.02	0.000931
3838.67	0.000738
3848.31	0.000649
3857.96	0.000653
3867.6	0.000988
3877.25	0.000796
3886.89	0.000931
3896.54	0.001182
3906.18	0.0012
3915.83	0.001059
3925.47	0.0011
3935.12	0.00151331
3944.76	0.000968
3954.41	0.000816
3964.05	0.000681
3973.69	0.0015462
3983.34	0.000828
3992.98	0.000988
