Infrared Spectrum: Alpha-CHLORO-N-ETHYL ACETANILIDE
Formula: C10 H12 Cl N O
CAS: 39086-61-8
State: SOLUTION (10% CCl4 FOR 5000-1300, 10% CS2 FOR 1300-625 CM^-^1)
Class: COBLENTZ
Instrument: Not specified, most likely a prism, grating, or hybrid spectrometer.
Sampling: TRANSMISSION
Path length: 0.01 CM, 0.01 CM
Resolution: 4
Origin: DOW CHEMICAL COMPANY
MICROMETERS	TRANSMITTANCE
2.02	0.857
2.06066	0.859
2.10132	0.857
2.14198	0.851
2.18264	0.862
2.2233	0.851
2.26396	0.839
2.30462	0.851
2.34528	0.857
2.38594	0.859
2.4266	0.856
2.46726	0.844
2.50792	0.862
2.54858	0.868
2.58924	0.868
2.6299	0.862
2.67057	0.869
2.71123	0.862
2.75189	0.868
2.79255	0.862
2.83321	0.857
2.87387	0.861
2.91453	0.857
2.95519	0.852
2.99585	0.825
3.03651	0.84
3.07717	0.851
3.11783	0.846
3.15849	0.839
3.19915	0.832
3.23981	0.783
3.28047	0.697
3.32113	0.688
3.36179	0.536
3.40245	0.561
3.44311	0.734
3.48377	0.732
3.52443	0.829
3.56509	0.83
3.60575	0.852
3.64641	0.859
3.68707	0.861
3.72773	0.861
3.76839	0.861
3.80905	0.864
3.84971	0.868
3.89038	0.864
3.93104	0.874
3.9717	0.869
4.01236	0.873
4.05302	0.871
4.09368	0.874
4.13434	0.873
4.175	0.878
4.21566	0.873
4.25632	0.859
4.29698	0.851
4.33764	0.869
4.3783	0.869
4.41896	0.878
4.45962	0.874
4.50028	0.876
4.54094	0.884
4.5816	0.883
4.62226	0.89
4.66292	0.891
4.70358	0.888
4.74424	0.883
4.7849	0.891
4.82556	0.89
4.86622	0.881
4.90688	0.89
4.94754	0.883
4.9882	0.876
5.02886	0.869
5.06952	0.861
5.11019	0.847
5.15085	0.857
5.19151	0.881
5.23217	0.873
5.27283	0.862
5.31349	0.847
5.35415	0.854
5.39481	0.871
5.43547	0.869
5.47613	0.862
5.51679	0.847
5.55745	0.825
5.59811	0.849
5.63877	0.84
5.67943	0.822
5.72009	0.79
5.76075	0.764
5.80141	0.736
5.84207	0.644
5.88273	0.446
5.92339	0.096
5.96405	0.035
6.00471	0.033
6.04537	0.086
6.08603	0.465
6.12669	0.59
6.16735	0.637
6.20801	0.558
6.24867	0.223
6.28933	0.252
6.32999	0.458
6.37066	0.492
6.41132	0.463
6.45198	0.419
6.49264	0.446
6.5333	0.516
6.57396	0.56
6.61462	0.58
6.65528	0.419
6.69594	0.175
6.7366	0.597
6.77726	0.604
6.81792	0.505
6.85858	0.367
6.89924	0.284
6.9399	0.313
6.98056	0.291
7.02122	0.419
7.06188	0.294
7.10254	0.123
7.1432	0.082
7.18386	0.143
7.22452	0.28
7.26518	0.368
7.30584	0.634
7.3465	0.653
7.38716	0.663
7.42782	0.705
7.46848	0.676
7.50914	0.58
7.5498	0.409
7.59047	0.26
7.63113	0.233
7.67179	0.326
7.71245	0.49
7.75311	0.58
7.79377	0.598
7.83443	0.631
7.87509	0.582
7.91575	0.404
7.95641	0.225
7.99707	0.184
8.03773	0.118
8.07839	0.258
8.11905	0.526
8.15971	0.632
8.20037	0.688
8.24103	0.727
8.28169	0.746
8.32235	0.754
8.36301	0.756
8.40367	0.752
8.44433	0.719
8.48499	0.695
8.52565	0.634
8.56631	0.604
8.60697	0.588
8.64763	0.627
8.68829	0.664
8.72895	0.661
8.76961	0.598
8.81028	0.416
8.85094	0.199
8.8916	0.186
8.93226	0.478
8.97292	0.624
9.01358	0.67
9.05424	0.703
9.0949	0.707
9.13556	0.654
9.17622	0.548
9.21688	0.561
9.25754	0.654
9.2982	0.62
9.33886	0.565
9.37952	0.661
9.42018	0.648
9.46084	0.583
9.5015	0.598
9.54216	0.688
9.58282	0.752
9.62348	0.771
9.66414	0.769
9.7048	0.732
9.74546	0.648
9.78612	0.685
9.82678	0.783
9.86744	0.805
9.9081	0.813
9.94876	0.771
9.98942	0.773
10.0301	0.829
10.0707	0.825
10.1114	0.83
10.1521	0.834
10.1927	0.834
10.2334	0.84
10.274	0.839
10.3147	0.837
10.3554	0.832
10.396	0.832
10.4367	0.815
10.4773	0.79
10.518	0.78
10.5587	0.805
10.5993	0.815
10.64	0.813
10.6807	0.81
10.7213	0.795
10.762	0.781
10.8026	0.766
10.8433	0.752
10.884	0.744
10.9246	0.741
10.9653	0.73
11.0059	0.746
11.0466	0.759
11.0873	0.751
11.1279	0.763
11.1686	0.769
11.2092	0.774
11.2499	0.769
11.2906	0.761
11.3312	0.751
11.3719	0.734
11.4125	0.72
11.4532	0.705
11.4939	0.695
11.5345	0.685
11.5752	0.671
11.6158	0.653
11.6565	0.644
11.6972	0.641
11.7378	0.641
11.7785	0.653
11.8191	0.673
11.8598	0.697
11.9005	0.714
11.9411	0.722
11.9818	0.73
12.0224	0.736
12.0631	0.742
12.1038	0.742
12.1444	0.747
12.1851	0.739
12.2257	0.742
12.2664	0.734
12.3071	0.715
12.3477	0.7
12.3884	0.671
12.429	0.644
12.4697	0.629
12.5104	0.6
12.551	0.543
12.5917	0.47
12.6323	0.357
12.673	0.27
12.7137	0.241
12.7543	0.27
12.795	0.353
12.8356	0.451
12.8763	0.497
12.917	0.489
12.9576	0.407
12.9983	0.27
13.0389	0.142
13.0796	0.181
13.1203	0.346
13.1609	0.487
13.2016	0.561
13.2423	0.602
13.2829	0.624
13.3236	0.634
13.3642	0.642
13.4049	0.648
13.4456	0.646
13.4862	0.624
13.5269	0.6
13.5675	0.58
13.6082	0.59
13.6489	0.607
13.6895	0.61
13.7302	0.604
13.7708	0.595
13.8115	0.583
13.8522	0.578
13.8928	0.576
13.9335	0.585
13.9741	0.588
14.0148	0.588
14.0555	0.57
14.0961	0.532
14.1368	0.458
14.1774	0.335
14.2181	0.162
14.2588	0.057
14.2994	0.021
14.3401	0.065
14.3807	0.174
14.4214	0.306
14.4621	0.395
14.5027	0.46
14.5434	0.5
14.584	0.519
14.6247	0.529
14.6654	0.522
14.706	0.512
14.7467	0.497
14.7873	0.47
14.828	0.428
14.8687	0.385
14.9093	0.341
14.95	0.309
14.9906	0.302
15.0313	0.319
15.072	0.329
15.1126	0.343
15.1533	0.355
15.1939	0.36
15.2346	0.362
15.2753	0.353
15.3159	0.348
15.3566	0.35
15.3972	0.351
15.4379	0.357
15.4786	0.357
15.5192	0.358
15.5599	0.362
15.6006	0.365
15.6412	0.368
15.6819	0.368
15.7225	0.365
15.7632	0.36
15.8039	0.362
15.8445	0.36
15.8852	0.358
15.9258	0.363
15.9665	0.365
