Infrared Spectrum: Trimethylsilyl methyl sulfide
Formula: C 4 H 12 S Si
CAS: 3908-55-2
State: gas
Origin: EPA-IR VAPOR PHASE LIBRARY
1/CM	ABSORBANCE
549.8	0.0015907
559.445	0.0007435
569.09	0.0009276
578.734	0.0009648
588.379	0.0015679
598.024	0.001764
607.669	0.003144
617.313	0.007204
626.958	0.010614
636.603	0.009964
646.248	0.005434
655.893	0.002754
665.537	0.003184
675.182	0.004604
684.827	0.007194
694.472	0.009474
704.116	0.009494
713.761	0.007444
723.406	0.006104
733.051	0.006194
742.695	0.007694
752.34	0.009794
761.985	0.009864
771.63	0.008074
781.275	0.006084
790.919	0.005714
800.564	0.007324
810.209	0.012014
819.854	0.021534
829.498	0.039454
839.143	0.062014
848.788	0.063924
858.433	0.043694
868.078	0.025434
877.722	0.016334
887.367	0.011554
897.012	0.008844
906.657	0.006794
916.301	0.005414
925.946	0.004324
935.591	0.003534
945.236	0.002674
954.88	0.002314
964.525	0.002064
974.17	0.001654
983.815	0.0015954
993.46	0.0013687
1003.1	0.0013674
1012.75	0.0010836
1022.39	0.0009684
1032.04	0.0007798
1041.68	0.0011708
1051.33	0.0011317
1060.97	0.0008789
1070.62	0.0008688
1080.26	0.0008968
1089.91	0.000813
1099.55	0.0010696
1109.2	0.0009671
1118.84	0.0009093
1128.49	0.0010055
1138.13	0.0007402
1147.78	0.0014444
1157.42	0.0012468
1167.07	0.0011081
1176.71	0.0015125
1186.36	0.001804
1196	0.002484
1205.64	0.002664
1215.29	0.003394
1224.93	0.004524
1234.58	0.008654
1244.22	0.017184
1253.87	0.025424
1263.51	0.020194
1273.16	0.011414
1282.8	0.005414
1292.45	0.003294
1302.09	0.003454
1311.74	0.004144
1321.38	0.004374
1331.03	0.003574
1340.67	0.002494
1350.32	0.001924
1359.96	0.001824
1369.61	0.001884
1379.25	0.002134
1388.9	0.002534
1398.54	0.002934
1408.18	0.003164
1417.83	0.002934
1427.47	0.002894
1437.12	0.003004
1446.76	0.003054
1456.41	0.002604
1466.05	0.001914
1475.7	0.0014535
1485.34	0.0011708
1494.99	0.0011594
1504.63	0.0010865
1514.28	0.0010784
1523.92	0.0011876
1533.57	0.0010232
1543.21	0.0010578
1552.86	0.0010777
1562.5	0.0009504
1572.15	0.0008426
1581.79	0.0008434
1591.44	0.0008011
1601.08	0.0009008
1610.73	0.0008142
1620.37	0.0007853
1630.01	0.000794
1639.66	0.0008965
1649.3	0.0008034
1658.95	0.0007996
1668.59	0.0007319
1678.24	0.0007809
1687.88	0.0007568
1697.53	0.0007585
1707.17	0.0008473
1716.82	0.0008048
1726.46	0.0008
1736.11	0.0007579
1745.75	0.0007288
1755.4	0.00070329
1765.04	0.0008282
1774.69	0.0007272
1784.33	0.0007596
1793.98	0.00068049
1803.62	0.00068524
1813.27	0.00068466
1822.91	0.00067114
1832.55	0.00071245
1842.2	0.0006638
1851.84	0.0007301
1861.49	0.000749
1871.13	0.0009322
1880.78	0.0009897
1890.42	0.0009221
1900.07	0.0007679
1909.71	0.0007347
1919.36	0.00069053
1929	0.0007368
1938.65	0.0007961
1948.29	0.0008177
1957.94	0.0007689
1967.58	0.0008063
1977.23	0.0007311
1986.87	0.0007271
1996.52	0.0007274
2006.16	0.00069872
2015.81	0.0007678
2025.45	0.00070873
2035.1	0.00064089
2044.74	0.00067005
2054.38	0.00063778
2064.03	0.0006099
2073.67	0.0005353
2083.32	0.00067291
2092.96	0.0005935
2102.61	0.00064504
2112.25	0.00066673
2121.9	0.00069588
2131.54	0.000628865
2141.19	0.0005563
2150.83	0.000506
2160.48	0.000457
2170.12	0.000474
2179.77	0.000448
2189.41	0.000392
2199.06	0.000438
2208.7	0.00051
2218.35	0.000508
2227.99	0.000474
2237.64	0.0005356
2247.28	0.0005459
2256.92	0.000483
2266.57	0.000397
2276.21	0.00045
2285.86	0.000441
2295.5	0.000422
2305.15	0.000349
2314.79	0.000357
2324.44	0.000294
2334.08	0.000337
2343.73	0.000336
2353.37	0.000376
2363.02	0.000278
2372.66	0.000272
2382.31	0.000356
2391.95	0.00038
2401.6	0.000388
2411.24	0.000335
2420.89	0.000334
2430.53	0.000347
2440.18	0.000344
2449.82	0.000285
2459.47	0.000341
2469.11	0.000407
2478.75	0.000406
2488.4	0.000394
2498.04	0.000353
2507.69	0.00031
2517.33	0.000348
2526.98	0.000226
2536.62	0.000273
2546.27	0.000284
2555.91	0.000244
2565.56	0.00026
2575.2	0.000204
2584.85	0.000282
2594.49	0.000227
2604.14	0.000197
2613.78	0.000209
2623.43	0.000274
2633.07	0.000297
2642.72	0.000242
2652.36	0.000396
2662.01	0.000288
2671.65	0.000251
2681.29	0.000368
2690.94	0.000353
2700.58	0.000327
2710.23	0.000266
2719.87	0.000329
2729.52	0.000244
2739.16	0.00034
2748.81	0.000459
2758.45	0.000452
2768.1	0.0005463
2777.74	0.0007866
2787.39	0.0007661
2797.03	0.0010313
2806.68	0.0012126
2816.32	0.0013835
2825.97	0.0016176
2835.61	0.001824
2845.26	0.002674
2854.9	0.003304
2864.55	0.003524
2874.19	0.003484
2883.84	0.003834
2893.48	0.005084
2903.12	0.006284
2912.77	0.006404
2922.41	0.007704
2932.06	0.010064
2941.7	0.011704
2951.35	0.013884
2960.99	0.015344
2970.64	0.014764
2980.28	0.010034
2989.93	0.006304
2999.57	0.004394
3009.22	0.003184
3018.86	0.002454
3028.51	0.001994
3038.15	0.001974
3047.8	0.001814
3057.44	0.002234
3067.09	0.002024
3076.73	0.002124
3086.38	0.001994
3096.02	0.001754
3105.67	0.001581
3115.31	0.0013899
3124.95	0.001282
3134.6	0.0009857
3144.24	0.0008903
3153.89	0.00068531
3163.53	0.000577
3173.18	0.0005917
3182.82	0.0007018
3192.47	0.000494
3202.11	0.0007596
3211.76	0.000456
3221.4	0.000362
3231.05	0.000502
3240.69	0.000421
3250.34	0.000274
3259.98	0.000442
3269.63	0.000428
3279.27	0.000223
3288.92	0.000374
3298.56	0.000286
3308.21	0.000247
3317.85	0.00034
3327.49	0.000423
3337.14	0.000328
3346.78	0.000337
3356.43	0.000301
3366.07	0.000343
3375.72	0.000368
3385.36	0.000414
3395.01	0.000239
3404.65	0.000229
3414.3	0.00021
3423.94	0.000327
3433.59	0.000387
3443.23	0.000404
3452.88	0.000311
3462.52	0.000295
3472.17	0.000509
3481.81	0.000438
3491.46	0.0004
3501.1	0.00064182
3510.75	0.000388
3520.39	0.0005993
3530.04	0.000441
3539.68	0.00065977
3549.32	0.000446
3558.97	0.000451
3568.61	0.00065392
3578.26	0.00067807
3587.9	0.00066662
3597.55	0.0005521
3607.19	0.000524
3616.84	0.000393
3626.48	0.000415
3636.13	0.0005571
3645.77	0.000572
3655.42	0.000463
3665.06	0.0005895
3674.71	0.000331
3684.35	0.00051
3694	0.000395
3703.64	0.0005993
3713.29	0.000516
3722.93	0.00072006
3732.58	0.0008008
3742.22	0.0005953
3751.86	0.00046
3761.51	0.00063493
3771.15	0.0005971
3780.8	0.0005864
3790.44	0.000183
3800.09	0.0007803
3809.73	0.000514
3819.38	0.0005271
3829.02	0.000204
3838.67	0.000375
3848.31	0.000306
3857.96	0.000291
3867.6	0.00026
3877.25	0.000339
3886.89	0.000147
3896.54	0.000265
3906.18	0.000398
3915.83	0.000398
3925.47	0.000357
3935.12	0.00028
3944.76	0.000327
3954.41	0.000496
3964.05	0.000285
3973.69	0.000444
3983.34	8.3e-05
3992.98	0.000217
