Infrared Spectrum: P-PHTHALALDEHYDIC ACID 2,4-DINITRO-PHENYLHYDRAZONE
Formula: C14 H10 N4 O6
CAS: 39101-77-4
State: SSOLID (MINERAL OIL MULL)
Class: COBLENTZ
Instrument: PERKIN-ELMER
Sampling: TRANSMISSION
Resolution: 4
Origin: STANDARD OIL OF OHIO
MICROMETERS	TRANSMITTANCE
2.02	0.086
2.05386	0.09
2.08771	0.093
2.12157	0.098
2.15542	0.107
2.18928	0.112
2.22313	0.117
2.25699	0.119
2.29084	0.119
2.3247	0.12
2.35855	0.12
2.39241	0.122
2.42626	0.125
2.46012	0.129
2.49397	0.132
2.52783	0.136
2.56168	0.137
2.59554	0.142
2.62939	0.144
2.66325	0.146
2.6971	0.146
2.73096	0.146
2.76481	0.146
2.79867	0.147
2.83253	0.151
2.86638	0.156
2.90024	0.159
2.93409	0.164
2.96795	0.168
3.0018	0.137
3.03566	0.12
3.06951	0.142
3.10337	0.149
3.13722	0.147
3.17108	0.137
3.20493	0.122
3.23879	0.12
3.27264	0.11
3.3065	0.062
3.34035	0.017
3.37421	0.003
3.40806	0.001
3.44192	0.003
3.47577	0.011
3.50963	0.091
3.54349	0.154
3.57734	0.183
3.6112	0.197
3.64505	0.202
3.67891	0.204
3.71276	0.193
3.74662	0.188
3.78047	0.188
3.81433	0.198
3.84818	0.209
3.88204	0.21
3.91589	0.204
3.94975	0.207
3.9836	0.221
4.01746	0.232
4.05131	0.241
4.08517	0.253
4.11902	0.263
4.15288	0.277
4.18673	0.29
4.22059	0.299
4.25444	0.306
4.2883	0.316
4.32216	0.329
4.35601	0.345
4.38987	0.35
4.42372	0.36
4.45758	0.372
4.49143	0.382
4.52529	0.392
4.55914	0.401
4.593	0.411
4.62685	0.42
4.66071	0.428
4.69456	0.438
4.72842	0.45
4.76227	0.459
4.79613	0.464
4.82998	0.471
4.86384	0.481
4.89769	0.5
4.93155	0.517
4.9654	0.528
4.99926	0.539
5.03311	0.542
5.06697	0.542
5.10083	0.549
5.13468	0.552
5.16854	0.573
5.20239	0.586
5.23625	0.596
5.2701	0.603
5.30396	0.612
5.33781	0.615
5.37167	0.646
5.40552	0.659
5.43938	0.668
5.47323	0.68
5.50709	0.702
5.54094	0.714
5.5748	0.748
5.60865	0.778
5.64251	0.809
5.67636	0.838
5.71022	0.835
5.74407	0.741
5.77793	0.588
5.81178	0.404
5.84564	0.282
5.8795	0.119
5.91335	0.215
5.94721	0.399
5.98106	0.503
6.01492	0.605
6.04877	0.61
6.08263	0.391
6.11648	0.147
6.15034	0.03
6.18419	0.034
6.21805	0.119
6.2519	0.051
6.28576	0.022
6.31961	0.132
6.35347	0.204
6.38732	0.302
6.42118	0.42
6.45503	0.459
6.48889	0.477
6.52274	0.301
6.5566	0.096
6.59046	0.051
6.62431	0.056
6.65817	0.076
6.69202	0.146
6.72588	0.19
6.75973	0.151
6.79359	0.112
6.82744	0.119
6.8613	0.164
6.89515	0.221
6.92901	0.226
6.96286	0.147
6.99672	0.115
7.03057	0.156
7.06443	0.234
7.09828	0.365
7.13214	0.467
7.16599	0.472
7.19985	0.306
7.2337	0.221
7.26756	0.323
7.30141	0.362
7.33527	0.312
7.36913	0.18
7.40298	0.059
7.43684	0.022
7.47069	0.008
7.50455	0.008
7.5384	0.018
7.57226	0.015
7.60611	0.018
7.63997	0.039
7.67382	0.052
7.70768	0.062
7.74153	0.068
7.77539	0.061
7.80924	0.051
7.8431	0.052
7.87695	0.068
7.91081	0.093
7.94466	0.117
7.97852	0.141
8.01237	0.175
8.04623	0.21
8.08008	0.214
8.11394	0.164
8.1478	0.142
8.18165	0.141
8.21551	0.153
8.24936	0.176
8.28322	0.202
8.31707	0.244
8.35093	0.28
8.38478	0.329
8.41864	0.37
8.45249	0.401
8.48635	0.38
8.5202	0.358
8.55406	0.428
8.58791	0.481
8.62177	0.569
8.65562	0.59
8.68948	0.491
8.72333	0.239
8.75719	0.088
8.79104	0.066
8.8249	0.1
8.85876	0.137
8.89261	0.178
8.92647	0.227
8.96032	0.255
8.99418	0.282
9.02803	0.314
9.06189	0.323
9.09574	0.318
9.1296	0.256
9.16345	0.139
9.19731	0.086
9.23116	0.093
9.26502	0.141
9.29887	0.197
9.33273	0.25
9.36658	0.309
9.40044	0.287
9.43429	0.232
9.46815	0.241
9.502	0.278
9.53586	0.329
9.56971	0.37
9.60357	0.403
9.63743	0.43
9.67128	0.45
9.70514	0.474
9.73899	0.489
9.77285	0.5
9.8067	0.377
9.84056	0.372
9.87441	0.455
9.90827	0.496
9.94212	0.518
9.97598	0.534
10.0098	0.545
10.0437	0.551
10.0775	0.556
10.1114	0.556
10.1453	0.545
10.1791	0.532
10.213	0.523
10.2468	0.515
10.2807	0.513
10.3145	0.534
10.3484	0.551
10.3822	0.559
10.4161	0.554
10.45	0.544
10.4838	0.491
10.5177	0.369
10.5515	0.346
10.5854	0.362
10.6192	0.35
10.6531	0.341
10.6869	0.365
10.7208	0.379
10.7546	0.374
10.7885	0.401
10.8224	0.448
10.8562	0.477
10.8901	0.5
10.9239	0.528
10.9578	0.549
10.9916	0.559
11.0255	0.568
11.0593	0.5
11.0932	0.447
11.1271	0.465
11.1609	0.52
11.1948	0.559
11.2286	0.585
11.2625	0.608
11.2963	0.624
11.3302	0.639
11.364	0.658
11.3979	0.668
11.4318	0.681
11.4656	0.695
11.4995	0.704
11.5333	0.704
11.5672	0.651
11.601	0.568
11.6349	0.491
11.6687	0.513
11.7026	0.581
11.7364	0.619
11.7703	0.62
11.8042	0.596
11.838	0.573
11.8719	0.542
11.9057	0.482
11.9396	0.391
11.9734	0.309
12.0073	0.314
12.0411	0.328
12.075	0.389
12.1089	0.474
12.1427	0.545
12.1766	0.591
12.2104	0.629
12.2443	0.647
12.2781	0.67
12.312	0.681
12.3458	0.675
12.3797	0.654
12.4136	0.637
12.4474	0.637
12.4813	0.646
12.5151	0.636
12.549	0.556
12.5828	0.505
12.6167	0.498
12.6505	0.547
12.6844	0.583
12.7183	0.619
12.7521	0.642
12.786	0.654
12.8198	0.647
12.8537	0.622
12.8875	0.525
12.9214	0.421
12.9552	0.338
12.9891	0.355
13.0229	0.5
13.0568	0.562
13.0907	0.596
13.1245	0.637
13.1584	0.678
13.1922	0.707
13.2261	0.727
13.2599	0.741
13.2938	0.743
13.3276	0.729
13.3615	0.646
13.3954	0.545
13.4292	0.289
13.4631	0.26
13.4969	0.353
13.5308	0.51
13.5646	0.574
13.5985	0.61
13.6323	0.63
13.6662	0.646
13.7001	0.641
13.7339	0.595
13.7678	0.481
13.8016	0.391
13.8355	0.375
13.8693	0.426
13.9032	0.479
13.937	0.535
13.9709	0.588
14.0047	0.634
14.0386	0.659
14.0725	0.68
14.1063	0.698
14.1402	0.712
14.174	0.719
14.2079	0.727
14.2417	0.727
14.2756	0.714
14.3094	0.668
14.3433	0.615
14.3772	0.557
14.411	0.551
14.4449	0.579
14.4787	0.619
14.5126	0.647
14.5464	0.642
14.5803	0.608
14.6141	0.596
14.648	0.607
14.6819	0.642
14.7157	0.67
14.7496	0.687
14.7834	0.698
14.8173	0.704
14.8511	0.704
14.885	0.7
14.9188	0.69
14.9527	0.661
14.9866	0.639
15.0204	0.629
15.0543	0.637
15.0881	0.649
15.122	0.653
15.1558	0.653
15.1897	0.651
15.2235	0.651
15.2574	0.649
15.2912	0.649
15.3251	0.651
15.359	0.653
