Infrared Spectrum: STYRENE, Alpha-METHYL-, DIMER
Formula: C18 H20
CAS: 3910-35-8
State: SOLUTION (10% IN CCl4 FOR 3800-1300, 10% IN CS2 FOR 1300-650, AND 10% IN CCl4 FOR 650-240 CM^-^1) VERSUS SOLVENT
Class: COBLENTZ II
Instrument: PERKIN-ELMER 521 (GRATING)
Instrument parameters: GRATING CHANGES AT 2000, 630 CM^-^1
Sampling: TRANSMISSION
Path length: 0.010, 0.010, AND 0.010 CM
Resolution: 4
Origin: DOW CORNING CORP.
1/CM	TRANSMITTANCE
231.175	0.935
240.128	0.934
249.081	0.934
258.034	0.941
266.986	0.948
275.939	0.942
284.892	0.942
293.845	0.946
302.798	0.939
311.751	0.937
320.704	0.937
329.656	0.937
338.609	0.934
347.562	0.937
356.515	0.935
365.468	0.937
374.421	0.939
383.373	0.934
392.326	0.925
401.279	0.935
410.232	0.939
419.185	0.939
428.138	0.935
437.091	0.935
446.043	0.932
454.996	0.93
463.949	0.932
472.902	0.913
481.855	0.896
490.808	0.828
499.761	0.899
508.713	0.904
517.666	0.873
526.619	0.668
535.572	0.5891
544.525	0.6459
553.478	0.866
562.431	0.892
571.383	0.8241
580.336	0.833
589.289	0.653
598.242	0.902
607.195	0.873
616.148	0.875
625.1	0.861
634.053	0.902
643.006	0.89
651.959	0.866
660.912	0.861
669.865	0.838
678.818	0.84
687.77	0.7741
696.723	0.4193
705.676	0.412
714.629	0.8209
723.582	0.838
732.535	0.849
741.488	0.804
750.44	0.4246
759.393	0.036
768.346	0.4871
777.299	0.8239
786.252	0.871
795.205	0.87
804.158	0.852
813.11	0.883
822.063	0.897
831.016	0.894
839.969	0.883
848.922	0.89
857.875	0.866
866.827	0.873
875.78	0.889
884.733	0.89
893.686	0.89
902.639	0.861
911.592	0.861
920.545	0.849
929.497	0.87
938.45	0.757
947.403	0.875
956.356	0.857
965.309	0.854
974.262	0.868
983.215	0.878
992.167	0.876
1001.12	0.87
1010.07	0.859
1019.03	0.7601
1027.98	0.459
1036.93	0.798
1045.88	0.807
1054.84	0.738
1063.79	0.857
1072.74	0.7741
1081.7	0.847
1090.65	0.838
1099.6	0.805
1108.55	0.826
1117.51	0.835
1126.46	0.804
1135.41	0.842
1144.37	0.837
1153.32	0.783
1162.27	0.837
1171.22	0.819
1180.18	0.802
1189.13	0.795
1198.08	0.776
1207.04	0.753
1215.99	0.844
1224.94	0.856
1233.89	0.883
1242.85	0.863
1251.8	0.854
1260.75	0.833
1269.71	0.809
1278.66	0.7779
1287.61	0.8069
1296.56	0.84
1305.52	0.693
1314.47	0.568
1323.42	0.828
1332.38	0.875
1341.33	0.873
1350.28	0.871
1359.23	0.797
1368.19	0.7452
1377.14	0.7771
1386.09	0.705
1395.05	0.85
1404	0.838
1412.95	0.847
1421.9	0.845
1430.86	0.7691
1439.81	0.4742
1448.76	0.313
1457.72	0.4259
1466.67	0.573
1475.62	0.426
1484.57	0.4283
1493.53	0.3843
1502.48	0.7898
1511.43	0.842
1520.39	0.863
1529.34	0.863
1538.29	0.863
1547.24	0.885
1556.2	0.885
1565.15	0.88
1574.1	0.852
1583.06	0.785
1592.01	0.734
1600.96	0.596
1609.91	0.823
1618.87	0.842
1627.82	0.864
1636.77	0.88
1645.73	0.882
1654.68	0.883
1663.63	0.875
1672.58	0.871
1681.54	0.873
1690.49	0.863
1699.44	0.878
1708.4	0.887
1717.35	0.885
1726.3	0.882
1735.25	0.878
1744.21	0.873
1753.16	0.88
1762.11	0.887
1771.07	0.892
1780.02	0.887
1788.97	0.883
1797.92	0.856
1806.88	0.802
1815.83	0.875
1824.78	0.885
1833.74	0.88
1842.69	0.883
1851.64	0.892
1860.59	0.885
1869.55	0.864
1878.5	0.852
1887.45	0.864
1896.41	0.88
1905.36	0.863
1914.31	0.84
1923.26	0.89
1932.22	0.887
1941.17	0.833
1950.12	0.83
1959.08	0.864
1968.03	0.894
1976.98	0.902
1985.93	0.904
1994.89	0.908
2003.84	0.909
2012.79	0.909
2021.75	0.909
2030.7	0.909
2039.65	0.909
2048.6	0.911
2057.56	0.911
2066.51	0.911
2075.46	0.9101
2084.42	0.9091
2093.37	0.9085
2102.32	0.908
2111.27	0.908
2120.23	0.908
2129.18	0.906
2138.13	0.908
2147.09	0.908
2156.04	0.906
2164.99	0.906
2173.94	0.906
2182.9	0.904
2191.85	0.902
2200.8	0.904
2209.76	0.904
2218.71	0.9016
2227.66	0.901
2236.61	0.901
2245.57	0.901
2254.52	0.9002
2263.47	0.899
2272.43	0.901
2281.38	0.899
2290.33	0.8964
2299.28	0.8943
2308.24	0.894
2317.19	0.892
2326.14	0.9014
2335.1	0.901
2344.05	0.901
2353	0.902
2361.95	0.9032
2370.91	0.9022
2379.86	0.9003
2388.81	0.896
2397.77	0.894
2406.72	0.896
2415.67	0.8964
2424.62	0.9007
2433.58	0.9003
2442.53	0.897
2451.48	0.896
2460.44	0.894
2469.39	0.8953
2478.34	0.894
2487.29	0.894
2496.25	0.892
2505.2	0.89
2514.15	0.89
2523.11	0.894
2532.06	0.894
2541.01	0.8913
2549.96	0.89
2558.92	0.889
2567.87	0.889
2576.82	0.887
2585.78	0.887
2594.73	0.889
2603.68	0.89
2612.63	0.889
2621.59	0.889
2630.54	0.889
2639.49	0.889
2648.44	0.89
2657.4	0.8916
2666.35	0.89
2675.3	0.8874
2684.26	0.885
2693.21	0.8822
2702.16	0.8757
2711.11	0.87
2720.07	0.8685
2729.02	0.8723
2737.97	0.8795
2746.93	0.876
2755.88	0.868
2764.83	0.8725
2773.78	0.8785
2782.74	0.882
2791.69	0.871
2800.64	0.8645
2809.6	0.8578
2818.55	0.8433
2827.5	0.835
2836.45	0.831
2845.41	0.7905
2854.36	0.6916
2863.31	0.3744
2872.27	0.3489
2881.22	0.5037
2890.17	0.5392
2899.12	0.487
2908.08	0.4663
2917.03	0.4131
2925.98	0.2515
2934.94	0.2514
2943.89	0.2973
2952.84	0.18
2961.79	0.0741
2970.75	0.0914
2979.7	0.2446
2988.65	0.549
2997.61	0.653
3006.56	0.6774
3015.51	0.6231
3024.46	0.37
3033.42	0.4584
3042.37	0.5802
3051.32	0.5603
3060.28	0.4715
3069.23	0.442
3078.18	0.5262
3087.13	0.5584
3096.09	0.6373
3105.04	0.793
3113.99	0.8293
3122.95	0.8509
3131.9	0.859
3140.85	0.8547
3149.8	0.854
3158.76	0.8527
3167.71	0.8544
3176.66	0.863
3185.62	0.8663
3194.57	0.868
3203.52	0.8701
3212.47	0.8742
3221.43	0.8784
3230.38	0.8862
3239.33	0.89
3248.29	0.89
3257.24	0.892
3266.19	0.8952
3275.14	0.897
3284.1	0.8964
3293.05	0.896
3302	0.896
3310.96	0.896
3319.91	0.897
3328.86	0.897
3337.81	0.899
3346.77	0.899
3355.72	0.899
3364.67	0.901
3373.63	0.902
3382.58	0.901
3391.53	0.901
3400.48	0.901
3409.44	0.902
3418.39	0.902
3427.34	0.902
3436.3	0.902
3445.25	0.9015
3454.2	0.901
3463.15	0.902
3472.11	0.902
3481.06	0.902
3490.01	0.902
3498.97	0.902
3507.92	0.904
3516.87	0.903
3525.82	0.906
3534.78	0.905
3543.73	0.906
3552.68	0.906
3561.64	0.906
3570.59	0.908
3579.54	0.913
3588.49	0.908
3597.45	0.906
3606.4	0.907
3615.35	0.908
3624.31	0.9085
3633.26	0.906
3642.21	0.906
3651.16	0.908
3660.12	0.909
3669.07	0.908
3678.02	0.9085
3686.98	0.915
3695.93	0.9059
3704.88	0.9109
3713.83	0.9101
3722.79	0.9061
3731.74	0.9139
3740.69	0.918
3749.65	0.9155
3758.6	0.9111
3767.55	0.9086
3776.5	0.9061
3785.46	0.906
3794.41	0.906
