Infrared Spectrum: 3,5-Dimethylphenylacetonitrile
Formula: C 10 H 11 N
CAS: 39101-54-7
State: gas
Origin: EPA-IR VAPOR PHASE LIBRARY
1/CM	ABSORBANCE
549.8	0.0007985
559.445	8.4e-05
569.09	0.0004847
578.734	0.00027859
588.379	0.0003042
598.024	0.000201081
607.669	0.0004218
617.313	0.0003424
626.958	0.0005473
636.603	0.001417
646.248	0.003137
655.893	0.004367
665.537	0.004217
675.182	0.006397
684.827	0.009617
694.472	0.013057
704.116	0.012487
713.761	0.006807
723.406	0.002807
733.051	0.001307
742.695	0.0009796
752.34	0.0005407
761.985	0.000335
771.63	0.000449
781.275	0.0004639
790.919	0.0009159
800.564	0.001427
810.209	0.003397
819.854	0.011687
829.498	0.027447
839.143	0.027937
848.788	0.013527
858.433	0.005017
868.078	0.003217
877.722	0.003377
887.367	0.004007
897.012	0.003637
906.657	0.002737
916.301	0.002337
925.946	0.002437
935.591	0.002727
945.236	0.002707
954.88	0.002337
964.525	0.002057
974.17	0.001487
983.815	0.002037
993.46	0.002867
1003.1	0.002897
1012.75	0.002517
1022.39	0.001557
1032.04	0.002237
1041.68	0.003167
1051.33	0.003417
1060.97	0.003167
1070.62	0.002397
1080.26	0.001587
1089.91	0.0007111
1099.55	0.0007606
1109.2	0.0011338
1118.84	0.0009596
1128.49	0.0011267
1138.13	0.0011672
1147.78	0.001497
1157.42	0.001327
1167.07	0.001227
1176.71	0.0008912
1186.36	0.001143
1196	0.001257
1205.64	0.001104
1215.29	0.0011765
1224.93	0.001617
1234.58	0.001707
1244.22	0.002437
1253.87	0.002907
1263.51	0.002677
1273.16	0.002807
1282.8	0.002717
1292.45	0.003027
1302.09	0.003907
1311.74	0.003807
1321.38	0.002757
1331.03	0.002347
1340.67	0.002787
1350.32	0.003367
1359.96	0.004097
1369.61	0.004977
1379.25	0.007107
1388.9	0.008247
1398.54	0.007017
1408.18	0.008277
1417.83	0.012447
1427.47	0.015857
1437.12	0.014197
1446.76	0.017847
1456.41	0.021417
1466.05	0.017957
1475.7	0.014127
1485.34	0.013287
1494.99	0.012707
1504.63	0.012217
1514.28	0.011157
1523.92	0.010997
1533.57	0.011147
1543.21	0.010527
1552.86	0.009397
1562.5	0.009007
1572.15	0.010087
1581.79	0.012527
1591.44	0.020977
1601.08	0.045047
1610.73	0.054777
1620.37	0.021677
1630.01	0.006497
1639.66	0.002597
1649.3	0.001937
1658.95	0.001457
1668.59	0.001247
1678.24	0.001297
1687.88	0.001517
1697.53	0.002397
1707.17	0.003207
1716.82	0.002867
1726.46	0.002137
1736.11	0.002217
1745.75	0.003447
1755.4	0.003997
1765.04	0.002927
1774.69	0.001667
1784.33	0.001307
1793.98	0.001337
1803.62	0.001477
1813.27	0.001337
1822.91	0.0011512
1832.55	0.0009722
1842.2	0.0008426
1851.84	0.0009186
1861.49	0.0009185
1871.13	0.001015
1880.78	0.0010854
1890.42	0.0011086
1900.07	0.0009857
1909.71	0.00098
1919.36	0.0010608
1929	0.0010427
1938.65	0.0008615
1948.29	0.0006598
1957.94	0.0005997
1967.58	0.0005072
1977.23	0.0005232
1986.87	0.0004205
1996.52	0.0004792
2006.16	0.0003369
2015.81	0.0003771
2025.45	0.0004309
2035.1	0.0005064
2044.74	0.000407
2054.38	0.000386
2064.03	0.000485
2073.67	0.0005318
2083.32	0.0004544
2092.96	0.0005666
2102.61	0.0005175
2112.25	0.0005629
2121.9	0.0005876
2131.54	0.0005711
2141.19	0.000622
2150.83	0.0005702
2160.48	0.0005701
2170.12	0.000435
2179.77	0.0004364
2189.41	0.000399
2199.06	0.0004044
2208.7	0.0004824
2218.35	0.000552
2227.99	0.0007542
2237.64	0.001297
2247.28	0.002477
2256.92	0.002827
2266.57	0.001977
2276.21	0.0011179
2285.86	0.0007839
2295.5	0.0006986
2305.15	0.0006992
2314.79	0.0008079
2324.44	0.0008718
2334.08	0.0009465
2343.73	0.0008152
2353.37	0.0009666
2363.02	0.0007564
2372.66	0.0007463
2382.31	0.0007452
2391.95	0.0008107
2401.6	0.0008026
2411.24	0.0007758
2420.89	0.0008927
2430.53	0.0007951
2440.18	0.0008969
2449.82	0.000972
2459.47	0.000937
2469.11	0.000861
2478.75	0.0007833
2488.4	0.0007817
2498.04	0.0007236
2507.69	0.0007347
2517.33	0.0006939
2526.98	0.0007136
2536.62	0.0007593
2546.27	0.0007898
2555.91	0.0007858
2565.56	0.0007696
2575.2	0.0006872
2584.85	0.0007607
2594.49	0.0008238
2604.14	0.0007685
2613.78	0.0007073
2623.43	0.0006207
2633.07	0.0004683
2642.72	0.0004981
2652.36	0.0005916
2662.01	0.0006792
2671.65	0.0006699
2681.29	0.0007058
2690.94	0.0006918
2700.58	0.0009465
2710.23	0.0008877
2719.87	0.0010325
2729.52	0.001527
2739.16	0.002497
2748.81	0.002857
2758.45	0.001927
2768.1	0.001267
2777.74	0.0010904
2787.39	0.001287
2797.03	0.001537
2806.68	0.001797
2816.32	0.002537
2825.97	0.003807
2835.61	0.005087
2845.26	0.006797
2854.9	0.009817
2864.55	0.014737
2874.19	0.019087
2883.84	0.018947
2893.48	0.017357
2903.12	0.020107
2912.77	0.027517
2922.41	0.041837
2932.06	0.051777
2941.7	0.042287
2951.35	0.025527
2960.99	0.017567
2970.64	0.013817
2980.28	0.013127
2989.93	0.015667
2999.57	0.019137
3009.22	0.024917
3018.86	0.037697
3028.51	0.045287
3038.15	0.033057
3047.8	0.018437
3057.44	0.012037
3067.09	0.008747
3076.73	0.006207
3086.38	0.004817
3096.02	0.003797
3105.67	0.002987
3115.31	0.002187
3124.95	0.001527
3134.6	0.0011756
3144.24	0.001195
3153.89	0.0010951
3163.53	0.0008698
3173.18	0.0008875
3182.82	0.0008125
3192.47	0.000734
3202.11	0.0010912
3211.76	0.0008948
3221.4	0.0007016
3231.05	0.0006643
3240.69	0.0008152
3250.34	0.0007
3259.98	0.000697
3269.63	0.0005089
3279.27	0.0006198
3288.92	0.0003813
3298.56	0.0005554
3308.21	0.0004787
3317.85	0.00029002
3327.49	0.0004619
3337.14	0.00036
3346.78	0.00031
3356.43	0.0003534
3366.07	0.0003605
3375.72	0.0003508
3385.36	0.0003326
3395.01	0.0002598
3404.65	0.0003964
3414.3	0.00028657
3423.94	0.0004031
3433.59	0.0004563
3443.23	0.000413
3452.88	0.0005091
3462.52	0.0003995
3472.17	0.0004914
3481.81	0.0003629
3491.46	0.0005266
3501.1	0.000151
3510.75	0.0003822
3520.39	0.0004542
3530.04	0.0004196
3539.68	0.0005006
3549.32	0.0005843
3558.97	0.00025047
3568.61	0.0005478
3578.26	0.00029374
3587.9	0.00024782
3597.55	0.0003795
3607.19	9.3e-05
3616.84	0.00023389
3626.48	0.00028889
3636.13	0.000324
3645.77	0.000329
3655.42	0.000613
3665.06	0.0004064
3674.71	0.00025999
3684.35	0.0004307
3694	0.0004159
3703.64	0.0004212
3713.29	0.00027823
3722.93	0.0004017
3732.58	0.0004015
3742.22	0.0004117
3751.86	0.0001577
3761.51	0.000296
3771.15	0.00026408
3780.8	0.0004816
3790.44	0.0004344
3800.09	0.00021828
3809.73	0.0003482
3819.38	0.0004572
3829.02	0.0005252
3838.67	0.0005869
3848.31	0.0003406
3857.96	0.00049
3867.6	0.0005361
3877.25	0.0006156
3886.89	0.0005202
3896.54	0.0005142
3906.18	0.000629
3915.83	0.0004652
3925.47	0.0007649
3935.12	0.0006563
3944.76	0.0007705
3954.41	0.0004814
3964.05	0.0004714
3973.69	0.0006805
3983.34	0.000621
3992.98	0.0006943
