Infrared Spectrum: 3-Bromobenzhydrazide
Formula: C 7 H 7 Br N 2 O
CAS: 39115-96-3
State: gas
Origin: EPA-IR VAPOR PHASE LIBRARY
1/CM	ABSORBANCE
551.7	0.00183
563.274	0.00167
574.848	0.00169
586.421	0.00169
597.995	0.00166
609.569	0.00164
621.143	0.00157
632.717	0.00174
644.291	0.00178
655.864	0.00187
667.438	0.00205
679.012	0.00225
690.586	0.00207
702.16	0.00214
713.734	0.00318
725.307	0.00468
736.881	0.00402
748.455	0.00319
760.029	0.00227
771.603	0.00198
783.177	0.002
794.75	0.00229
806.324	0.00201
817.898	0.00164
829.472	0.00165
841.046	0.00169
852.619	0.00173
864.193	0.00198
875.767	0.00226
887.341	0.00229
898.915	0.00225
910.489	0.00246
922.062	0.00294
933.636	0.00409
945.21	0.00446
956.784	0.00286
968.358	0.00187
979.932	0.00153
991.505	0.00159
1003.08	0.00156
1014.65	0.00138
1026.23	0.00135
1037.8	0.00125
1049.37	0.00144
1060.95	0.00186
1072.52	0.00228
1084.1	0.00204
1095.67	0.00156
1107.24	0.00139
1118.82	0.00124
1130.39	0.00116
1141.97	0.00118
1153.54	0.00119
1165.11	0.00135
1176.69	0.00134
1188.26	0.00119
1199.83	0.00113
1211.41	0.00111
1222.98	0.0012
1234.56	0.00156
1246.13	0.00238
1257.7	0.00397
1269.28	0.0051
1280.85	0.00614
1292.42	0.00496
1304	0.00269
1315.57	0.0017
1327.15	0.00149
1338.72	0.00146
1350.29	0.00141
1361.87	0.00136
1373.44	0.00139
1385.02	0.00157
1396.59	0.0019
1408.16	0.0025
1419.74	0.00325
1431.31	0.00524
1442.88	0.00787
1454.46	0.00724
1466.03	0.00512
1477.61	0.00431
1489.18	0.00402
1500.75	0.00301
1512.33	0.00231
1523.9	0.00198
1535.48	0.00191
1547.05	0.00219
1558.62	0.00347
1570.2	0.00386
1581.77	0.00239
1593.34	0.00207
1604.92	0.00207
1616.49	0.00236
1628.07	0.00303
1639.64	0.00333
1651.21	0.00259
1662.79	0.00244
1674.36	0.00297
1685.93	0.00418
1697.51	0.00913
1709.08	0.00999
1720.66	0.00412
1732.23	0.00298
1743.8	0.002
1755.38	0.00147
1766.95	0.00135
1778.53	0.00129
1790.1	0.00127
1801.67	0.00125
1813.25	0.00121
1824.82	0.00115
1836.39	0.00112
1847.97	0.00108
1859.54	0.0011
1871.12	0.0011
1882.69	0.00111
1894.26	0.00109
1905.84	0.00104
1917.41	0.0009922
1928.99	0.00104
1940.56	0.00103
1952.13	0.0009997
1963.71	0.0009557
1975.28	0.0009431
1986.85	0.0009082
1998.43	0.0008896
2010	0.0008829
2021.58	0.0008558
2033.15	0.0008356
2044.72	0.0007859
2056.3	0.0007199
2067.87	0.0006996
2079.44	0.0006763
2091.02	0.0006558
2102.59	0.0006405
2114.17	0.0006189
2125.74	0.0006097
2137.31	0.0006056
2148.89	0.0006003
2160.46	0.0006064
2172.04	0.0006198
2183.61	0.0006236
2195.18	0.0006397
2206.76	0.00062
2218.33	0.0006187
2229.9	0.0006387
2241.48	0.0006115
2253.05	0.0006025
2264.63	0.0006186
2276.2	0.000644
2287.77	0.0006307
2299.35	0.0006202
2310.92	0.0006243
2322.5	0.0005915
2334.07	0.0006289
2345.64	0.0006352
2357.22	0.0006202
2368.79	0.0006348
2380.36	0.0006191
2391.94	0.0006392
2403.51	0.0006171
2415.09	0.0006341
2426.66	0.0006399
2438.23	0.0006489
2449.81	0.0006273
2461.38	0.0006381
2472.96	0.0006302
2484.53	0.0006364
2496.1	0.0006638
2507.68	0.0006475
2519.25	0.0006387
2530.82	0.0006339
2542.4	0.00064
2553.97	0.0006317
2565.55	0.0006693
2577.12	0.0006225
2588.69	0.0006238
2600.27	0.0006182
2611.84	0.0006289
2623.41	0.0006128
2634.99	0.0006181
2646.56	0.000646
2658.14	0.0006441
2669.71	0.0006154
2681.28	0.0006397
2692.86	0.0006634
2704.43	0.0006937
2716.01	0.0007363
2727.58	0.0006536
2739.15	0.0006469
2750.73	0.0006605
2762.3	0.0006504
2773.87	0.0006492
2785.45	0.0006794
2797.02	0.0006596
2808.6	0.000681
2820.17	0.0006944
2831.74	0.000696
2843.32	0.0006891
2854.89	0.0007056
2866.47	0.0007327
2878.04	0.0007355
2889.61	0.0007269
2901.19	0.0007865
2912.76	0.0007938
2924.33	0.0007407
2935.91	0.000735
2947.48	0.0006773
2959.06	0.0007548
2970.63	0.0007281
2982.2	0.0007211
2993.78	0.0007445
3005.35	0.0008031
3016.92	0.0008454
3028.5	0.0009709
3040.07	0.00101
3051.65	0.00104
3063.22	0.00127
3074.79	0.00146
3086.37	0.00126
3097.94	0.00104
3109.52	0.000839
3121.09	0.0007912
3132.66	0.0007272
3144.24	0.0007162
3155.81	0.0007095
3167.38	0.0006958
3178.96	0.0007441
3190.53	0.0007323
3202.11	0.0007927
3213.68	0.0007332
3225.25	0.000757
3236.83	0.0008123
3248.4	0.000673
3259.98	0.0007028
3271.55	0.0007201
3283.12	0.0007323
3294.7	0.0007055
3306.27	0.0007441
3317.84	0.0007602
3329.42	0.0007954
3340.99	0.0008305
3352.57	0.0008061
3364.14	0.000843
3375.71	0.0008064
3387.29	0.0008222
3398.86	0.0008494
3410.43	0.0008363
3422.01	0.0008731
3433.58	0.00103
3445.16	0.0012
3456.73	0.00146
3468.3	0.00214
3479.88	0.002
3491.45	0.00134
3503.03	0.00102
3514.6	0.0008393
3526.17	0.0007978
3537.75	0.0007407
3549.32	0.0006933
3560.89	0.0007973
3572.47	0.0007003
3584.04	0.0007261
3595.62	0.000743
3607.19	0.0006789
3618.76	0.0007649
3630.34	0.0007221
3641.91	0.0006449
3653.49	0.0006866
3665.06	0.0007235
3676.63	0.0007535
3688.21	0.0007184
3699.78	0.0007059
3711.35	0.0007383
3722.93	0.0007339
3734.5	0.0006959
3746.08	0.000623
3757.65	0.000674
3769.22	0.0006476
3780.8	0.0007309
3792.37	0.0006939
3803.94	0.0006808
3815.52	0.0006197
3827.09	0.0006963
3838.67	0.0006501
3850.24	0.0007023
3861.81	0.0006156
3873.39	0.0005755
3884.96	0.0006703
3896.54	0.0006508
3908.11	0.000678
3919.68	0.0006788
3931.26	0.0006606
3942.83	0.0007209
3954.4	0.0006092
3965.98	0.0006586
3977.55	0.0007052
3989.13	0.000672
4000.7	0.0006588
