Infrared Spectrum: 2-Butyl-1-octanol
Formula: C 12 H 26 O
CAS: 3913-02-8
State: gas
Instrument: HP-GC/MS/IRD
Origin: NIST Mass Spectrometry Data Center
1/CM	ABSORBANCE
550	0.0002115
562	0.0001845
574	4.05e-05
586	0.0001395
598	0.0001485
610	0.000135
622	7.65e-05
634	0.000135
646	0.0001395
658	0.000126
670	4.95e-05
682	0.000153
694	0.0002655
706	0.000423
718	0.0007695
730	0.0008955
742	0.0008415
754	0.000612
766	0.0005445
778	0.000504
790	0.00045
802	0.000405
814	0.0004365
826	0.00036
838	0.000405
850	0.0004545
862	0.0004725
874	0.0005445
886	0.000666
898	0.0007785
910	0.000927
922	0.000954
934	0.001044
946	0.0011475
958	0.0013185
970	0.001566
982	0.0019935
994	0.0024705
1006	0.00333
1018	0.005049
1030	0.006768
1042	0.0069795
1054	0.005193
1066	0.002988
1078	0.001953
1090	0.0015075
1102	0.0012915
1114	0.0012105
1126	0.001134
1138	0.001044
1150	0.0010035
1162	0.0009675
1174	0.001035
1186	0.001161
1198	0.0011565
1210	0.0012195
1222	0.0012465
1234	0.00126
1246	0.00126
1258	0.0013005
1270	0.001323
1282	0.0013545
1294	0.001449
1306	0.001485
1318	0.0014625
1330	0.001575
1342	0.0019125
1354	0.002016
1366	0.002079
1378	0.0024615
1390	0.002133
1402	0.0013725
1414	0.00108
1426	0.0011475
1438	0.0016875
1450	0.003132
1462	0.0044415
1474	0.003627
1486	0.001728
1498	0.000864
1510	0.000585
1522	0.0004275
1534	0.0003285
1546	0.0002925
1558	0.0002025
1570	0.0001935
1582	0.000162
1594	0.000153
1606	0.000144
1618	0.0001125
1630	0.0001305
1642	9.45e-05
1654	4.5e-05
1666	7.2e-05
1678	6.75e-05
1690	6.3e-05
1702	5.85e-05
1714	4.95e-05
1726	6.3e-05
1738	5.4e-05
1750	4.5e-05
1762	5.85e-05
1774	4.95e-05
1786	4.05e-05
1798	2.7e-05
1810	2.7e-05
1822	0
1834	4.05e-05
1846	1.8e-05
1858	2.7e-05
1870	1.8e-05
1882	4.5e-05
1894	1.8e-05
1906	2.25e-05
1918	1.8e-05
1930	4.05e-05
1942	1.8e-05
1954	3.6e-05
1966	4.95e-05
1978	5.85e-05
1990	5.4e-05
2002	6.3e-05
2014	7.2e-05
2026	0.000108
2038	0.0001305
2050	9.45e-05
2062	0.0001035
2074	9.45e-05
2086	8.1e-05
2098	8.1e-05
2110	7.65e-05
2122	5.85e-05
2134	5.4e-05
2146	6.75e-05
2158	4.5e-05
2170	6.75e-05
2182	8.1e-05
2194	6.75e-05
2206	8.1e-05
2218	5.85e-05
2230	7.2e-05
2242	9.9e-05
2254	9.9e-05
2266	9e-05
2278	8.55e-05
2290	9.45e-05
2302	0.0001035
2314	0.000117
2326	0.000135
2338	0.0001035
2350	0.000117
2362	0.0001665
2374	0.000144
2386	0.000153
2398	0.0001395
2410	0.0001665
2422	0.0001395
2434	0.0001665
2446	0.0001305
2458	0.0001395
2470	0.0001485
2482	0.000135
2494	0.000153
2506	0.0001935
2518	0.0001755
2530	0.0002025
2542	0.000243
2554	0.00027
2566	0.000279
2578	0.000297
2590	0.000351
2602	0.0003465
2614	0.000369
2626	0.0004365
2638	0.0004635
2650	0.000522
2662	0.0005895
2674	0.0006165
2686	0.0006525
2698	0.000648
2710	0.0007245
2722	0.000819
2734	0.0009315
2746	0.001044
2758	0.0010755
2770	0.0012105
2782	0.001359
2794	0.0016155
2806	0.0019665
2818	0.00252
2830	0.003465
2842	0.005535
2854	0.0115875
2866	0.0189765
2878	0.019341
2890	0.017136
2902	0.0179325
2914	0.0259875
2926	0.0402795
2938	0.0428175
2950	0.0277065
2962	0.025029
2974	0.019629
2986	0.007911
2998	0.004293
3010	0.0028035
3022	0.0020835
3034	0.0015975
3046	0.0012105
3058	0.0010215
3070	0.0008415
3082	0.000765
3094	0.0006795
3106	0.000585
3118	0.0005085
3130	0.0004455
3142	0.000441
3154	0.000405
3166	0.0003645
3178	0.000315
3190	0.000333
3202	0.000279
3214	0.0002565
3226	0.0001575
3238	0.0001575
3250	0.000108
3262	0.0001575
3274	0.000126
3286	0.0001215
3298	0.0001035
3310	9.45e-05
3322	9.9e-05
3334	4.5e-05
3346	0.000117
3358	0.0001395
3370	7.65e-05
3382	0.000117
3394	8.1e-05
3406	8.55e-05
3418	0.0001035
3430	0.0001215
3442	0.000144
3454	5.85e-05
3466	0.0001215
3478	0.0001485
3490	0.000135
3502	0.000144
3514	9.45e-05
3526	7.65e-05
3538	0.0001125
3550	9e-05
3562	9.9e-05
3574	8.1e-05
3586	8.55e-05
3598	0.0001485
3610	0.0002115
3622	0.0002655
3634	0.0003465
3646	0.0006525
3658	0.001575
3670	0.001998
3682	0.0010485
3694	0.0004185
3706	0.000234
3718	0.000216
3730	0.000144
3742	0.0001035
3754	7.65e-05
3766	9e-05
3778	0.0001125
3790	0.0001485
3802	0.000108
3814	0.0001395
3826	0.00018
3838	0.0001575
