Infrared Spectrum: 3,5-Dibromosulphanilamide
Formula: C 6 H 6 Br 2 N 2 O 2 S
CAS: 39150-45-3
State: gas
Origin: EPA-IR VAPOR PHASE LIBRARY
1/CM	ABSORBANCE
549.9	0.001705
559.547	0.002625
569.193	0.005525
578.84	0.004655
588.486	0.002475
598.133	0.002375
607.779	0.0012492
617.426	0.0010685
627.072	0.0010798
636.719	0.0009544
646.365	0.000948
656.012	0.0008789
665.658	0.0009059
675.305	0.0010277
684.951	0.0011039
694.598	0.0011997
704.245	0.0012206
713.891	0.001685
723.538	0.002395
733.184	0.003405
742.831	0.002315
752.477	0.001595
762.124	0.001372
771.77	0.0011902
781.417	0.0012103
791.063	0.0012336
800.71	0.0012347
810.356	0.0014108
820.003	0.001615
829.649	0.002025
839.296	0.002435
848.943	0.001945
858.589	0.001725
868.236	0.002285
877.882	0.002885
887.529	0.002355
897.175	0.0013539
906.822	0.00101
916.468	0.0008033
926.115	0.0006805
935.761	0.000637
945.408	0.0005923
955.054	0.0005656
964.701	0.0006008
974.347	0.0005592
983.994	0.00051717
993.64	0.0004923
1003.29	0.00048436
1012.93	0.00048909
1022.58	0.00052655
1032.23	0.00053813
1041.87	0.000598
1051.52	0.0009719
1061.17	0.001525
1070.81	0.0013681
1080.46	0.0010183
1090.11	0.0009219
1099.75	0.0011422
1109.4	0.002235
1119.05	0.002855
1128.69	0.0012396
1138.34	0.0009726
1147.99	0.0011375
1157.63	0.002205
1167.28	0.006325
1176.92	0.011325
1186.57	0.004095
1196.22	0.001895
1205.86	0.0009999
1215.51	0.0007994
1225.16	0.0009087
1234.8	0.0010344
1244.45	0.0006303
1254.1	0.00052074
1263.74	0.00054907
1273.39	0.000631
1283.04	0.0008168
1292.68	0.000953
1302.33	0.0007023
1311.98	0.0005663
1321.62	0.0005117
1331.27	0.0005856
1340.92	0.0008019
1350.56	0.0012419
1360.21	0.002205
1369.86	0.002785
1379.5	0.005235
1389.15	0.005475
1398.79	0.003635
1408.44	0.0014092
1418.09	0.0008699
1427.73	0.000718
1437.38	0.0008051
1447.03	0.0011955
1456.67	0.002955
1466.32	0.003225
1475.97	0.0013512
1485.61	0.0008992
1495.26	0.000585
1504.91	0.0005888
1514.55	0.0006387
1524.2	0.0007463
1533.85	0.0010557
1543.49	0.001495
1553.14	0.001545
1562.79	0.0010219
1572.43	0.0008584
1582.08	0.0010357
1591.73	0.0014529
1601.37	0.002395
1611.02	0.004235
1620.67	0.004265
1630.31	0.001915
1639.96	0.0009668
1649.6	0.0006022
1659.25	0.00051189
1668.9	0.000427
1678.54	0.0004308
1688.19	0.0004064
1697.84	0.00052806
1707.48	0.0004435
1717.13	0.0003908
1726.78	0.0003785
1736.42	0.0004107
1746.07	0.0003942
1755.72	0.0004265
1765.36	0.00047953
1775.01	0.00051129
1784.66	0.0004443
1794.3	0.000464136
1803.95	0.00044882
1813.6	0.0003836
1823.24	0.0003776
1832.89	0.0003695
1842.54	0.000336
1852.18	0.0003672
1861.83	0.000319
1871.47	0.000353
1881.12	0.000312
1890.77	0.00033
1900.41	0.000324
1910.06	0.000343
1919.71	0.000315
1929.35	0.000331
1939	0.000352
1948.65	0.000322
1958.29	0.000345
1967.94	0.0003766
1977.59	0.000353
1987.23	0.000406
1996.88	0.000349
2006.53	0.000341
2016.17	0.00035
2025.82	0.00032
2035.47	0.000345
2045.11	0.000331
2054.76	0.000319
2064.41	0.00031
2074.05	0.0003843
2083.7	0.000343
2093.35	0.0003644
2102.99	0.0003592
2112.64	0.000372
2122.28	0.000346
2131.93	0.000371
2141.58	0.0003786
2151.22	0.0003832
2160.87	0.000334
2170.52	0.0003713
2180.16	0.000328
2189.81	0.0003563
2199.46	0.000324
2209.1	0.000348
2218.75	0.0003641
2228.4	0.000326
2238.04	0.00035
2247.69	0.000346
2257.34	0.000305
2266.98	0.0003562
2276.63	0.000313
2286.28	0.0003688
2295.92	0.0003654
2305.57	0.000329
2315.22	0.0003814
2324.86	0.000319
2334.51	0.0003565
2344.16	0.000351
2353.8	0.0003625
2363.45	0.0003633
2373.09	0.000343
2382.74	0.00033
2392.39	0.000319
2402.03	0.000307
2411.68	0.000329
2421.33	0.000359
2430.97	0.000286
2440.62	0.000344
2450.27	0.000339
2459.91	0.000324
2469.56	0.0003
2479.21	0.000315
2488.85	0.000347
2498.5	0.000317
2508.15	0.0003618
2517.79	0.0003791
2527.44	0.0003634
2537.09	0.0003747
2546.73	0.000335
2556.38	0.000325
2566.03	0.00035
2575.67	0.000336
2585.32	0.000334
2594.96	0.0004226
2604.61	0.0004351
2614.26	0.0003617
2623.9	0.000346
2633.55	0.000318
2643.2	0.000346
2652.84	0.00029
2662.49	0.000255
2672.14	0.00035
2681.78	0.000246
2691.43	0.000282
2701.08	0.000293
2710.72	0.000331
2720.37	0.00028
2730.02	0.000246
2739.66	0.0003669
2749.31	0.00023
2758.96	0.0003798
2768.6	0.00028
2778.25	0.000289
2787.9	0.000298
2797.54	0.000318
2807.19	0.000213
2816.84	0.000224
2826.48	0.000259
2836.13	0.000186
2845.77	0.000284
2855.42	0.000304
2865.07	0.000233
2874.71	0.000202
2884.36	0.000207
2894.01	0.000193
2903.65	0.00023
2913.3	0.000305
2922.95	0.000171
2932.59	0.000181
2942.24	0.000306
2951.89	0.000247
2961.53	0.00019
2971.18	0.000224
2980.83	0.000273
2990.47	0.000233
3000.12	0.000262
3009.77	0.000204
3019.41	0.000226
3029.06	0.000247
3038.71	0.00017
3048.35	0.000125
3058	0.000264
3067.64	0.000105
3077.29	0.000269
3086.94	0.000455715
3096.58	0.0003868
3106.23	0.00028
3115.88	0.00019
3125.52	0.000278
3135.17	0.000214
3144.82	0.000209
3154.46	0.000271
3164.11	0.000247
3173.76	0.000229
3183.4	0.000254
3193.05	0.00012
3202.7	0.000227
3212.34	3e-05
3221.99	0.000182
3231.64	0.000171
3241.28	0.000225
3250.93	0.000179
3260.58	0.000227
3270.22	0.000204
3279.87	0.000246
3289.52	0.000131
3299.16	0.000246
3308.81	7e-05
3318.45	0.000204
3328.1	0.000198
3337.75	0.000321
3347.39	0.000437
3357.04	0.0006432
3366.69	0.0011083
3376.33	0.0011757
3385.98	0.0010701
3395.63	0.0010256
3405.27	0.0012101
3414.92	0.0011514
3424.57	0.0011534
3434.21	0.00052628
3443.86	0.0003976
3453.51	0.0005882
3463.15	0.0008403
3472.8	0.0010762
3482.45	0.0011363
3492.09	0.0011988
3501.74	0.0009974
3511.39	0.0008288
3521.03	0.0010576
3530.68	0.0011311
3540.33	0.00052573
3549.97	0.000272
3559.62	0.000184
3569.26	0.000214
3578.91	0.00026
3588.56	0.000243
3598.2	0.000156
3607.85	0.000269
3617.5	0.000274
3627.14	0.000318
3636.79	0.000242
3646.44	0.000178
3656.08	0.000195
3665.73	0.000248
3675.38	0.000276
3685.02	0.000289
3694.67	0.000279
3704.32	0.000149
3713.96	0.00011
3723.61	0.000254
3733.26	0.000179
3742.9	0.00021
3752.55	0.000203
3762.2	0.00015
3771.84	0.000234
3781.49	0.000229
3791.13	0.000244
3800.78	0.000187
3810.43	0.000292
3820.07	0.00023
3829.72	0.000269
3839.37	0.000223
3849.01	0.00017
3858.66	0.000235
3868.31	0.00026
3877.95	0.000169
3887.6	0.000321
3897.25	0.000177
3906.89	0.000241
3916.54	0.000308
3926.19	0.000291
3935.83	0.000295
3945.48	0.000319
3955.13	0.000239
3964.77	0.000303
3974.42	0.000195
3984.07	0.000175
3993.71	0.00044855
