Infrared Spectrum: 4-Hydroxy-4'-nitrobiphenyl
Formula: C 12 H 9 N O 3
CAS: 3916-44-7
State: gas
Origin: EPA-IR VAPOR PHASE LIBRARY
1/CM	ABSORBANCE
549.8	0.00604918
559.445	0.00324918
569.09	0.00239918
578.734	0.00240918
588.379	0.00291918
598.024	0.00592918
607.669	0.00361918
617.313	0.00167918
626.958	0.00143918
636.603	0.00180918
646.248	0.00201918
655.893	0.00173918
665.537	0.00185918
675.182	0.00285918
684.827	0.00526918
694.472	0.00793918
704.116	0.00832918
713.761	0.00816918
723.406	0.0142492
733.051	0.0212992
742.695	0.00791918
752.34	0.0131292
761.985	0.0102392
771.63	0.00501918
781.275	0.00392918
790.919	0.00637918
800.564	0.0113692
810.209	0.0167292
819.854	0.0312892
829.498	0.0428092
839.143	0.0306892
848.788	0.0529692
858.433	0.0496192
868.078	0.0149192
877.722	0.00623918
887.367	0.00252918
897.012	0.00239918
906.657	0.00231918
916.301	0.00160918
925.946	0.00187918
935.591	0.00188918
945.236	0.00175918
954.88	0.00217918
964.525	0.00157918
974.17	0.00144918
983.815	0.00169918
993.46	0.00252918
1003.1	0.00796918
1012.75	0.00713918
1022.39	0.00383918
1032.04	0.00262918
1041.68	0.00276918
1051.33	0.00209918
1060.97	0.00259918
1070.62	0.00353918
1080.26	0.00540918
1089.91	0.00848918
1099.55	0.0177592
1109.2	0.0233592
1118.84	0.0146492
1128.49	0.0103892
1138.13	0.0174092
1147.78	0.0166292
1157.42	0.0211192
1167.07	0.0856092
1176.71	0.162709
1186.36	0.0682592
1196	0.0233392
1205.64	0.0131292
1215.29	0.0122492
1224.93	0.0138892
1234.58	0.0161992
1244.22	0.0241992
1253.87	0.0554292
1263.51	0.0904892
1273.16	0.0444192
1282.8	0.0176292
1292.45	0.0174592
1302.09	0.0130992
1311.74	0.0144192
1321.38	0.0277692
1331.03	0.0517992
1340.67	0.0847492
1350.32	0.179779
1359.96	0.109879
1369.61	0.0249892
1379.25	0.0135692
1388.9	0.0125992
1398.54	0.0108792
1408.18	0.00761918
1417.83	0.00647918
1427.47	0.0105092
1437.12	0.0155592
1446.76	0.00866918
1456.41	0.0109992
1466.05	0.0142292
1475.7	0.0232192
1485.34	0.0606192
1494.99	0.0597092
1504.63	0.0426292
1514.28	0.0533692
1523.92	0.0987992
1533.57	0.118649
1543.21	0.0862992
1552.86	0.0429192
1562.5	0.0234892
1572.15	0.0208792
1581.79	0.0317392
1591.44	0.0557792
1601.08	0.0870992
1610.73	0.0663992
1620.37	0.0303792
1630.01	0.0151292
1639.66	0.00841918
1649.3	0.00604918
1658.95	0.00473918
1668.59	0.00379918
1678.24	0.00379918
1687.88	0.00342918
1697.53	0.00235918
1707.17	0.00192918
1716.82	0.00187918
1726.46	0.00172918
1736.11	0.00172918
1745.75	0.00190918
1755.4	0.00216918
1765.04	0.00174918
1774.69	0.00218918
1784.33	0.00298918
1793.98	0.00270918
1803.62	0.00135918
1813.27	0.00113918
1822.91	0.00120918
1832.55	0.00132918
1842.2	0.00133918
1851.84	0.00137918
1861.49	0.00175918
1871.13	0.00201918
1880.78	0.00213918
1890.42	0.00196918
1900.07	0.00194918
1909.71	0.00226918
1919.36	0.00240918
1929	0.00190918
1938.65	0.00108918
1948.29	0.00074818
1957.94	0.00078128
1967.58	0.00078688
1977.23	0.00078458
1986.87	0.00102918
1996.52	0.00112918
2006.16	0.00122918
2015.81	0.00093308
2025.45	0.00081018
2035.1	0.00069498
2044.74	0.00064608
2054.38	0.00061908
2064.03	0.00081118
2073.67	0.00099078
2083.32	0.00115918
2092.96	0.00128918
2102.61	0.00097388
2112.25	0.00076338
2121.9	0.00066928
2131.54	0.00052908
2141.19	0.00045928
2150.83	0.00034728
2160.48	0.00036668
2170.12	0.00037048
2179.77	0.00042588
2189.41	0.00048548
2199.06	0.00062968
2208.7	0.00076078
2218.35	0.00077758
2227.99	0.00066988
2237.64	0.00053418
2247.28	0.00055408
2256.92	0.00058618
2266.57	0.00070838
2276.21	0.00090628
2285.86	0.00094348
2295.5	0.00092318
2305.15	0.00088608
2314.79	0.00090658
2324.44	0.00101918
2334.08	0.00110918
2343.73	0.00105918
2353.37	0.00119918
2363.02	0.00111918
2372.66	0.00101918
2382.31	0.00093758
2391.95	0.00090738
2401.6	0.00110918
2411.24	0.00134918
2420.89	0.00179918
2430.53	0.00254918
2440.18	0.00289918
2449.82	0.00226918
2459.47	0.00187918
2469.11	0.00175918
2478.75	0.00124918
2488.4	0.00093968
2498.04	0.00108918
2507.69	0.00135918
2517.33	0.00156918
2526.98	0.00155918
2536.62	0.00131918
2546.27	0.00094358
2555.91	0.00080478
2565.56	0.00102918
2575.2	0.00113918
2584.85	0.00134918
2594.49	0.00138918
2604.14	0.00139918
2613.78	0.00114918
2623.43	0.00080978
2633.07	0.00074838
2642.72	0.00084488
2652.36	0.00076388
2662.01	0.00077448
2671.65	0.00077628
2681.29	0.00081088
2690.94	0.00102918
2700.58	0.00119918
2710.23	0.00119918
2719.87	0.00085678
2729.52	0.00071108
2739.16	0.00062528
2748.81	0.00060698
2758.45	0.00067648
2768.1	0.00070318
2777.74	0.00082278
2787.39	0.00076848
2797.03	0.00071948
2806.68	0.00078278
2816.32	0.00082708
2825.97	0.00083178
2835.61	0.00108918
2845.26	0.00138918
2854.9	0.00166918
2864.55	0.00222918
2874.19	0.00256918
2883.84	0.00235918
2893.48	0.00194918
2903.12	0.00160918
2912.77	0.00139918
2922.41	0.00130918
2932.06	0.00133918
2941.7	0.00175918
2951.35	0.00202918
2960.99	0.00147918
2970.64	0.00109918
2980.28	0.00122918
2989.93	0.00152918
2999.57	0.00225918
3009.22	0.00396918
3018.86	0.00618918
3028.51	0.00916918
3038.15	0.0147592
3047.8	0.00891918
3057.44	0.00774918
3067.09	0.00859918
3076.73	0.00821918
3086.38	0.00675918
3096.02	0.00331918
3105.67	0.00232918
3115.31	0.00176918
3124.95	0.00136918
3134.6	0.00120918
3144.24	0.00101918
3153.89	0.00073418
3163.53	0.00055698
3173.18	0.00065558
3182.82	0.00070208
3192.47	0.00070498
3202.11	0.00096848
3211.76	0.00072628
3221.4	0.00051698
3231.05	0.00032128
3240.69	0.00032968
3250.34	0.00020028
3259.98	0.00026228
3269.63	0.00028798
3279.27	0.00030368
3288.92	0.00025258
3298.56	0.00031278
3308.21	0.00056108
3317.85	0.00050538
3327.49	0.00053678
3337.14	0.00081008
3346.78	0.00066898
3356.43	0.00082008
3366.07	0.00062738
3375.72	0.00069458
3385.36	0.00069758
3395.01	0.00060238
3404.65	0.00045028
3414.3	0.00047338
3423.94	0.00044688
3433.59	0.00053868
3443.23	0.00047008
3452.88	0.00049868
3462.52	0.00044498
3472.17	0.00049058
3481.81	0.00057418
3491.46	0.00045468
3501.1	0.00037778
3510.75	0.00048428
3520.39	0.00045478
3530.04	0.00032678
3539.68	0.00030608
3549.32	0.00040918
3558.97	0.00038608
3568.61	0.00046368
3578.26	0.00068238
3587.9	0.00063908
3597.55	0.00104918
3607.19	0.00119918
3616.84	0.00191918
3626.48	0.00436918
3636.13	0.0157592
3645.77	0.0615892
3655.42	0.0473292
3665.06	0.00648918
3674.71	0.00211918
3684.35	0.00126918
3694	0.00100918
3703.64	0.00088168
3713.29	0.00046968
3722.93	0.00040608
3732.58	0.00045638
3742.22	0.00051038
3751.86	0.00024948
3761.51	0.00040008
3771.15	0.00040748
3780.8	0.00033588
3790.44	0.00040248
3800.09	0.00026588
3809.73	0.00049768
3819.38	0.00055058
3829.02	0.00027278
3838.67	0.00040788
3848.31	0.00055868
3857.96	0.00042788
3867.6	0.00045968
3877.25	0.00045158
3886.89	0.00063098
3896.54	0.00048308
3906.18	0.00057778
3915.83	0.00038968
3925.47	0.00063588
3935.12	0.00059638
3944.76	0.00053068
3954.41	0.00045238
3964.05	0.00049278
3973.69	0.00049108
3983.34	0.00026298
3992.98	0.00027698
