Infrared Spectrum: Benzoic acid, 4'-nitro-4-biphenyl ester
Formula: C19 H13 N O4
CAS: 3916-45-8
State: SOLID (SPLIT MULL), FLUOROLUBE FOR 3800-1330 CM^-^1, NUJOL FOR 1330-400 CM^-^1
Class: COBLENTZ III
Instrument: BECKMAN IR-9 (GRATING)
Instrument parameters: ORDER CHANGES: 670, 1200, 2000 CM^-^1
Sampling: TRANSMISSION
Resolution: 2
Origin: DOW CHEMICAL COMPANY
1/CM	TRANSMITTANCE
402	0.6077
411	0.5964
420	0.6249
429	0.6642
438	0.7087
447	0.702
456	0.7556
465	0.7763
474	0.7971
483	0.8004
492	0.763
501	0.8045
510	0.8292
519	0.837
528	0.8271
537	0.7995
546	0.8255
555	0.8231
564	0.8547
573	0.859
582	0.8544
591	0.8613
600	0.8624
609	0.8656
618	0.8075
627	0.8598
636	0.8585
645	0.8582
654	0.86
663	0.836
672	0.8531
681	0.7105
690	0.7939
699	0.8041
708	0.4999
717	0.2515
726	0.6876
735	0.774
744	0.7317
753	0.67
762	0.7501
771	0.8201
780	0.8169
789	0.7111
798	0.8032
807	0.7465
816	0.6725
825	0.774
834	0.7816
843	0.7727
852	0.6836
861	0.277
870	0.7783
879	0.7042
888	0.7652
897	0.7964
906	0.8033
915	0.8048
924	0.7962
933	0.789
942	0.7558
951	0.7707
960	0.768
969	0.7421
978	0.7469
987	0.7485
996	0.731
1005	0.5728
1014	0.6983
1023	0.6939
1032	0.6195
1041	0.7348
1050	0.6899
1059	0.4181
1068	0.3884
1077	0.5563
1086	0.406
1095	0.6927
1104	0.6778
1113	0.6131
1122	0.671
1131	0.6659
1140	0.6804
1149	0.6441
1158	0.5501
1167	0.2038
1176	0.3155
1185	0.4447
1194	0.2339
1203	0.5018
1212	0.2598
1221	0.2178
1230	0.5021
1239	0.5012
1248	0.2969
1257	0.2218
1266	0.1593
1275	0.4161
1284	0.5425
1293	0.607
1302	0.6009
1311	0.5945
1320	0.5989
1329	0.56
1338	0.2763
1347	0.1697
1356	0.4282
1365	0.6571
1374	0.7749
1383	0.7822
1392	0.7581
1401	0.7499
1410	0.7798
1419	0.7816
1428	0.7552
1437	0.7522
1446	0.6536
1455	0.7305
1464	0.7254
1473	0.5791
1482	0.394
1491	0.6083
1500	0.6155
1509	0.2159
1518	0.2172
1527	0.4817
1536	0.8219
1545	0.8787
1554	0.8622
1563	0.8138
1572	0.7713
1581	0.6668
1590	0.5581
1599	0.3888
1608	0.8393
1617	0.8724
1626	0.8583
1635	0.8424
1644	0.8211
1653	0.8028
1662	0.7864
1671	0.7699
1680	0.7496
1689	0.7204
1698	0.6812
1707	0.6612
1716	0.5648
1725	0.3963
1734	0.0613
1743	0.4137
1752	0.8417
1761	0.8805
1770	0.8863
1779	0.8619
1788	0.8445
1797	0.8304
1806	0.8193
1815	0.8125
1824	0.8058
1833	0.7999
1842	0.7967
1851	0.7949
1860	0.7867
1869	0.7775
1878	0.7733
1887	0.769
1896	0.7618
1905	0.748
1914	0.7491
1923	0.7399
1932	0.745
1941	0.7339
1950	0.7334
1959	0.7399
1968	0.7351
1977	0.7292
1986	0.7238
1995	0.7162
2004	0.7142
2013	0.7132
2022	0.7111
2031	0.7085
2040	0.7061
2049	0.7031
2058	0.6998
2067	0.6962
2076	0.6924
2085	0.6884
2094	0.6842
2103	0.6791
2112	0.6734
2121	0.6676
2130	0.6627
2139	0.6577
2148	0.6537
2157	0.6498
2166	0.646
2175	0.6422
2184	0.6384
2193	0.6346
2202	0.6305
2211	0.6261
2220	0.6202
2229	0.6128
2238	0.6054
2247	0.5981
2256	0.5918
2265	0.5856
2274	0.581
2283	0.5772
2292	0.5746
2301	0.5729
2310	0.571
2319	0.5715
2328	0.5723
2337	0.5738
2346	0.5755
2355	0.577
2364	0.5797
2373	0.5743
2382	0.5616
2391	0.5587
2400	0.5558
2409	0.5535
2418	0.5514
2427	0.5493
2436	0.5478
2445	0.5455
2454	0.5425
2463	0.5407
2472	0.5402
2481	0.5406
2490	0.5405
2499	0.5402
2508	0.5397
2517	0.5384
2526	0.5372
2535	0.5354
2544	0.5337
2553	0.5315
2562	0.5287
2571	0.5259
2580	0.5231
2589	0.5202
2598	0.5174
2607	0.515
2616	0.5127
2625	0.5103
2634	0.508
2643	0.5056
2652	0.5032
2661	0.5007
2670	0.4983
2679	0.4957
2688	0.493
2697	0.4904
2706	0.4876
2715	0.4847
2724	0.4819
2733	0.4791
2742	0.4767
2751	0.4746
2760	0.4727
2769	0.4704
2778	0.4681
2787	0.4659
2796	0.4637
2805	0.4615
2814	0.4593
2823	0.4568
2832	0.4541
2841	0.4512
2850	0.448
2859	0.4463
2868	0.4461
2877	0.4458
2886	0.4448
2895	0.4438
2904	0.4424
2913	0.4407
2922	0.4353
2931	0.4326
2940	0.4307
2949	0.4298
2958	0.4292
2967	0.4285
2976	0.4271
2985	0.425
2994	0.4224
3003	0.4192
3012	0.416
3021	0.4119
3030	0.4076
3039	0.4033
3048	0.3982
3057	0.3928
3066	0.3858
3075	0.3767
3084	0.3801
3093	0.3891
3102	0.3974
3111	0.4017
3120	0.4028
3129	0.402
3138	0.4013
3147	0.4
3156	0.3986
3165	0.3962
3174	0.3941
3183	0.3926
3192	0.3911
3201	0.3895
3210	0.3877
3219	0.3858
3228	0.3839
3237	0.3821
3246	0.3802
3255	0.3784
3264	0.3765
3273	0.3746
3282	0.3728
3291	0.3708
3300	0.369
3309	0.3671
3318	0.3652
3327	0.3631
3336	0.3606
3345	0.358
3354	0.3555
3363	0.353
3372	0.351
3381	0.3491
3390	0.3472
3399	0.3453
3408	0.3434
3417	0.3416
3426	0.3399
3435	0.3381
3444	0.3368
3453	0.3355
3462	0.3343
3471	0.333
3480	0.3319
3489	0.3307
3498	0.3296
3507	0.3284
3516	0.3273
3525	0.326
3534	0.3248
3543	0.3236
3552	0.3222
3561	0.3206
3570	0.3191
3579	0.3177
3588	0.317
3597	0.3163
3606	0.3159
3615	0.3154
3624	0.3151
3633	0.3147
3642	0.3145
3651	0.3142
3660	0.3127
3669	0.3109
3678	0.3091
3687	0.3075
3696	0.3059
3705	0.3043
3714	0.3028
3723	0.3012
3732	0.2996
3741	0.298
3750	0.2965
3759	0.295
3768	0.2935
3777	0.2923
3786	0.2911
3795	0.2898
