Infrared Spectrum: N-METHYL-m-CHLOROBENZYLAMINE
Formula: C8 H10 Cl N
CAS: 39191-07-6
Class: COBLENTZ
Instrument: PERKIN-ELMER
Sampling: TRANSMISSION
Path length: CAPILLARY
Resolution: 4
Origin: ABBOTT LABORATORIES - WASHBURN
MICROMETERS	TRANSMITTANCE
2.005	0.823
2.0451	0.8349
2.08521	0.8299
2.12531	0.83
2.16542	0.83
2.20552	0.825
2.24562	0.83
2.28573	0.8301
2.32583	0.821
2.36594	0.821
2.40604	0.826
2.44615	0.826
2.48625	0.8231
2.52635	0.821
2.56646	0.8299
2.60656	0.8359
2.64667	0.835
2.68677	0.8348
2.72687	0.8332
2.76698	0.8251
2.80708	0.813
2.84719	0.808
2.88729	0.795
2.9274	0.78
2.9675	0.7513
3.0076	0.6639
3.04771	0.6559
3.08781	0.71
3.12792	0.7507
3.16802	0.7698
3.20812	0.78
3.24823	0.7133
3.28833	0.6759
3.32844	0.695
3.36854	0.4835
3.40864	0.3811
3.44875	0.401
3.48885	0.3805
3.52896	0.3437
3.56906	0.3206
3.60917	0.5072
3.64927	0.7132
3.68937	0.773
3.72948	0.781
3.76958	0.7848
3.80969	0.8159
3.84979	0.828
3.88989	0.826
3.93	0.8298
3.9701	0.835
4.01021	0.836
4.05031	0.836
4.09041	0.836
4.13052	0.835
4.17062	0.833
4.21073	0.831
4.25083	0.833
4.29094	0.831
4.33104	0.831
4.37114	0.831
4.41125	0.8215
4.45135	0.818
4.49146	0.8197
4.53156	0.818
4.57166	0.813
4.61177	0.811
4.65187	0.808
4.69198	0.81
4.73208	0.81
4.77219	0.81
4.81229	0.81
4.85239	0.806
4.8925	0.7983
4.9326	0.8
4.97271	0.801
5.01281	0.801
5.05291	0.793
5.09302	0.795
5.13312	0.7865
5.17323	0.7663
5.21333	0.7742
5.25343	0.785
5.29354	0.785
5.33364	0.7761
5.37375	0.7538
5.41385	0.7692
5.45396	0.7742
5.49406	0.7806
5.53416	0.78
5.57427	0.773
5.61437	0.766
5.65448	0.764
5.69458	0.7593
5.73468	0.755
5.77479	0.761
5.81489	0.7666
5.855	0.773
5.8951	0.768
5.9352	0.744
5.97531	0.7322
6.01541	0.725
6.05552	0.725
6.09562	0.726
6.13573	0.7261
6.17583	0.73
6.21593	0.7024
6.25604	0.5003
6.29614	0.3359
6.33625	0.432
6.37635	0.2618
6.41645	0.4856
6.45656	0.6393
6.49666	0.6908
6.53677	0.7107
6.57687	0.721
6.61698	0.7185
6.65708	0.6954
6.69718	0.6416
6.73729	0.5679
6.77739	0.3569
6.8175	0.1797
6.8576	0.3143
6.8977	0.3394
6.93781	0.2912
6.97791	0.2386
7.01802	0.2633
7.05812	0.3558
7.09822	0.4139
7.13833	0.5287
7.17843	0.6263
7.21854	0.6749
7.25864	0.6997
7.29875	0.706
7.33885	0.7044
7.37895	0.6751
7.41906	0.453
7.45916	0.396
7.49927	0.5171
7.53937	0.6307
7.57947	0.677
7.61958	0.7162
7.65968	0.7301
7.69979	0.7301
7.73989	0.7101
7.77999	0.7
7.8201	0.698
7.8602	0.6947
7.90031	0.6947
7.94041	0.7
7.98052	0.6902
8.02062	0.6669
8.06072	0.6397
8.10083	0.6322
8.14093	0.6489
8.18104	0.6591
8.22114	0.6463
8.26124	0.6002
8.30135	0.5199
8.34145	0.421
8.38156	0.373
8.42166	0.4491
8.46177	0.558
8.50187	0.6332
8.54197	0.653
8.58208	0.6407
8.62218	0.5397
8.66229	0.525
8.70239	0.5542
8.74249	0.5496
8.7826	0.536
8.8227	0.5051
8.86281	0.4248
8.90291	0.3649
8.94301	0.365
8.98312	0.4279
9.02322	0.451
9.06333	0.4314
9.10343	0.3731
9.14354	0.3824
9.18364	0.3613
9.22374	0.3459
9.26385	0.4304
9.30395	0.3933
9.34406	0.2871
9.38416	0.4585
9.42426	0.5613
9.46437	0.646
9.50447	0.6913
9.54458	0.7073
9.58468	0.718
9.62478	0.7272
9.66489	0.733
9.70499	0.735
9.7451	0.735
9.7852	0.733
9.82531	0.735
9.86541	0.7323
9.90551	0.73
9.94562	0.7307
9.98572	0.7237
10.0258	0.6368
10.0659	0.5819
10.106	0.6659
10.1461	0.6637
10.1862	0.6445
10.2263	0.6348
10.2665	0.6309
10.3066	0.623
10.3467	0.6129
10.3868	0.6099
10.4269	0.61
10.467	0.625
10.5071	0.6511
10.5472	0.6729
10.5873	0.6905
10.6274	0.705
10.6675	0.7052
10.7076	0.6834
10.7477	0.6715
10.7878	0.666
10.8279	0.665
10.868	0.6694
10.9081	0.6707
10.9482	0.6736
10.9883	0.67
11.0284	0.66
11.0685	0.6305
11.1086	0.6036
11.1487	0.5643
11.1888	0.5277
11.229	0.4934
11.2691	0.4484
11.3092	0.4084
11.3493	0.3956
11.3894	0.398
11.4295	0.398
11.4696	0.3824
11.5097	0.3596
11.5498	0.3552
11.5899	0.3727
11.63	0.4083
11.6701	0.4265
11.7102	0.446
11.7503	0.4717
11.7904	0.4976
11.8305	0.508
11.8706	0.5
11.9107	0.4815
11.9508	0.4715
11.9909	0.4726
12.031	0.4989
12.0711	0.5244
12.1112	0.5354
12.1513	0.541
12.1914	0.5417
12.2316	0.541
12.2717	0.5338
12.3118	0.5268
12.3519	0.5162
12.392	0.5021
12.4321	0.4802
12.4722	0.4628
12.5123	0.4394
12.5524	0.4048
12.5925	0.3631
12.6326	0.3193
12.6727	0.2577
12.7128	0.1985
12.7529	0.1429
12.793	0.1221
12.8331	0.11
12.8732	0.105
12.9133	0.1
12.9534	0.1019
12.9935	0.1214
13.0336	0.1381
13.0737	0.1581
13.1138	0.181
13.1539	0.206
13.1941	0.218
13.2342	0.2279
13.2743	0.2379
13.3144	0.2479
13.3545	0.2549
13.3946	0.2692
13.4347	0.2775
13.4748	0.286
13.5149	0.2974
13.555	0.3051
13.5951	0.3157
13.6352	0.328
13.6753	0.3374
13.7154	0.3443
13.7555	0.3536
13.7956	0.363
13.8357	0.3705
13.8758	0.3744
13.9159	0.386
13.956	0.396
13.9961	0.4004
14.0362	0.4054
14.0763	0.408
14.1164	0.4069
14.1566	0.3925
14.1967	0.3621
14.2368	0.3105
14.2769	0.2693
14.317	0.2476
14.3571	0.236
14.3972	0.235
14.4373	0.236
14.4774	0.236
14.5175	0.236
14.5576	0.2309
14.5977	0.2199
14.6378	0.2059
14.6779	0.1813
14.718	0.1555
14.7581	0.1731
14.7982	0.2131
14.8383	0.2875
14.8784	0.3554
14.9185	0.4196
14.9586	0.443
14.9987	0.4602
15.0388	0.4757
15.0789	0.485
15.1191	0.493
15.1592	0.498
15.1993	0.501
15.2394	0.505
15.2795	0.506
15.3196	0.508
15.3597	0.508
15.3998	0.506
