Infrared Spectrum: 2-Fluoromesitylene
Formula: C 9 H 11 F
CAS: 392-69-8
State: gas
Origin: EPA-IR VAPOR PHASE LIBRARY
1/CM	ABSORBANCE
549.8	0.0009122
559.445	0.001836
569.09	0.002146
578.734	0.001606
588.379	0.0011448
598.024	0.00056971
607.669	0.000321
617.313	0.00034
626.958	0.000332
636.603	0.000271
646.248	0.000106
655.893	0.000301
665.537	0.000346
675.182	0.000485406
684.827	0.0004384
694.472	0.0011926
704.116	0.003616
713.761	0.007966
723.406	0.004476
733.051	0.005256
742.695	0.014956
752.34	0.019146
761.985	0.011186
771.63	0.002316
781.275	0.0011165
790.919	0.0008216
800.564	0.0006608
810.209	0.0008056
819.854	0.0010574
829.498	0.003396
839.143	0.011496
848.788	0.025326
858.433	0.013796
868.078	0.006556
877.722	0.001886
887.367	0.0012344
897.012	0.0010067
906.657	0.0012657
916.301	0.001856
925.946	0.002426
935.591	0.003236
945.236	0.003476
954.88	0.002666
964.525	0.001716
974.17	0.001566
983.815	0.002336
993.46	0.003486
1003.1	0.004916
1012.75	0.005176
1022.39	0.004046
1032.04	0.003456
1041.68	0.002896
1051.33	0.003086
1060.97	0.002776
1070.62	0.002086
1080.26	0.001766
1089.91	0.001486
1099.55	0.001178
1109.2	0.002286
1118.84	0.004016
1128.49	0.008476
1138.13	0.020576
1147.78	0.028286
1157.42	0.020056
1167.07	0.005846
1176.71	0.004706
1186.36	0.013866
1196	0.022996
1205.64	0.031276
1215.29	0.054826
1224.93	0.055936
1234.58	0.018546
1244.22	0.004866
1253.87	0.004056
1263.51	0.003796
1273.16	0.004036
1282.8	0.003896
1292.45	0.004296
1302.09	0.007396
1311.74	0.009286
1321.38	0.006936
1331.03	0.003636
1340.67	0.003256
1350.32	0.003256
1359.96	0.003486
1369.61	0.004256
1379.25	0.005876
1388.9	0.006346
1398.54	0.005026
1408.18	0.005946
1417.83	0.008066
1427.47	0.010326
1437.12	0.013486
1446.76	0.017276
1456.41	0.021056
1466.05	0.032506
1475.7	0.057556
1485.34	0.071136
1494.99	0.053836
1504.63	0.027466
1514.28	0.018566
1523.92	0.015946
1533.57	0.013686
1543.21	0.011246
1552.86	0.009046
1562.5	0.007516
1572.15	0.006216
1581.79	0.005306
1591.44	0.004526
1601.08	0.004206
1610.73	0.003966
1620.37	0.003286
1630.01	0.002156
1639.66	0.001586
1649.3	0.0013831
1658.95	0.001167
1668.59	0.0012674
1678.24	0.0010852
1687.88	0.0012265
1697.53	0.001596
1707.17	0.002626
1716.82	0.004176
1726.46	0.003936
1736.11	0.002666
1745.75	0.002036
1755.4	0.001646
1765.04	0.0011875
1774.69	0.0008136
1784.33	0.0007701
1793.98	0.0007516
1803.62	0.0007765
1813.27	0.0006551
1822.91	0.000637
1832.55	0.0006568
1842.2	0.0007394
1851.84	0.0007232
1861.49	0.000786
1871.13	0.0008907
1880.78	0.0011073
1890.42	0.0013986
1900.07	0.0014069
1909.71	0.0012285
1919.36	0.001026
1929	0.0009368
1938.65	0.0009482
1948.29	0.0010556
1957.94	0.0011058
1967.58	0.0010774
1977.23	0.0009957
1986.87	0.0006392
1996.52	0.00051487
2006.16	0.00056211
2015.81	0.0004013
2025.45	0.000428
2035.1	0.00049795
2044.74	0.0006181
2054.38	0.0007152
2064.03	0.0007522
2073.67	0.00056125
2083.32	0.0005349
2092.96	0.00051189
2102.61	0.00057361
2112.25	0.00050425
2121.9	0.00057459
2131.54	0.0005893
2141.19	0.000551
2150.83	0.0004738
2160.48	0.0006575
2170.12	0.0006909
2179.77	0.0007027
2189.41	0.0006742
2199.06	0.0007211
2208.7	0.000662
2218.35	0.0008437
2227.99	0.0009486
2237.64	0.000746
2247.28	0.0006188
2256.92	0.00055256
2266.57	0.00056968
2276.21	0.00052502
2285.86	0.0004289
2295.5	0.0006146
2305.15	0.0006265
2314.79	0.0008203
2324.44	0.0009489
2334.08	0.0009107
2343.73	0.0009053
2353.37	0.0009664
2363.02	0.0010644
2372.66	0.000964
2382.31	0.0009892
2391.95	0.0010684
2401.6	0.001175
2411.24	0.0012226
2420.89	0.0011323
2430.53	0.0011049
2440.18	0.0011135
2449.82	0.0009747
2459.47	0.0008838
2469.11	0.000818
2478.75	0.0010218
2488.4	0.000864
2498.04	0.0007834
2507.69	0.0008928
2517.33	0.0008114
2526.98	0.0008756
2536.62	0.0009783
2546.27	0.0008346
2555.91	0.0009393
2565.56	0.0008572
2575.2	0.000855
2584.85	0.0007634
2594.49	0.0006356
2604.14	0.0007677
2613.78	0.0007005
2623.43	0.0006536
2633.07	0.0007628
2642.72	0.0007238
2652.36	0.000697
2662.01	0.0007602
2671.65	0.0007579
2681.29	0.0009413
2690.94	0.0010451
2700.58	0.0009303
2710.23	0.0011498
2719.87	0.0012246
2729.52	0.001646
2739.16	0.002536
2748.81	0.003166
2758.45	0.002216
2768.1	0.0014103
2777.74	0.001277
2787.39	0.001427
2797.03	0.001786
2806.68	0.002216
2816.32	0.002576
2825.97	0.003316
2835.61	0.004496
2845.26	0.006606
2854.9	0.011066
2864.55	0.018556
2874.19	0.024456
2883.84	0.023556
2893.48	0.020096
2903.12	0.020436
2912.77	0.025726
2922.41	0.040706
2932.06	0.056706
2941.7	0.051966
2951.35	0.033846
2960.99	0.023916
2970.64	0.021376
2980.28	0.021866
2989.93	0.021886
2999.57	0.020916
3009.22	0.023756
3018.86	0.027666
3028.51	0.027286
3038.15	0.023746
3047.8	0.019296
3057.44	0.013826
3067.09	0.009446
3076.73	0.006256
3086.38	0.004266
3096.02	0.003336
3105.67	0.002706
3115.31	0.002466
3124.95	0.002066
3134.6	0.001596
3144.24	0.0012319
3153.89	0.0012273
3163.53	0.0008976
3173.18	0.0007838
3182.82	0.0008399
3192.47	0.0006988
3202.11	0.000593
3211.76	0.0005396
3221.4	0.0007723
3231.05	0.0007314
3240.69	0.0006472
3250.34	0.0006058
3259.98	0.0006241
3269.63	0.0007129
3279.27	0.0006652
3288.92	0.0006397
3298.56	0.0007854
3308.21	0.00050848
3317.85	0.00050109
3327.49	0.00050432
3337.14	0.0004735
3346.78	0.00053396
3356.43	0.00051411
3366.07	0.000371
3375.72	0.000490083
3385.36	0.00047691
3395.01	0.0004406
3404.65	0.000679
3414.3	0.000445
3423.94	0.0004016
3433.59	0.0004511
3443.23	0.00057209
3452.88	0.0004217
3462.52	0.0004181
3472.17	0.0005287
3481.81	0.00056614
3491.46	0.000319
3501.1	0.00035
3510.75	0.0006298
3520.39	0.0003881
3530.04	0.0004226
3539.68	0.0004467
3549.32	0.0006567
3558.97	0.00055747
3568.61	0.0006119
3578.26	0.00056904
3587.9	0.000231
3597.55	0.00050394
3607.19	0.000372
3616.84	0.00051548
3626.48	0.00053828
3636.13	0.00051371
3645.77	0.0004485
3655.42	0.000326
3665.06	0.00057639
3674.71	0.000443
3684.35	0.0004265
3694	0.000486919
3703.64	0.000471
3713.29	0.0006025
3722.93	0.000342
3732.58	0.0006526
3742.22	0.000327
3751.86	0.000296
3761.51	0.000367
3771.15	0.00057047
3780.8	0.00053967
3790.44	0.000363
3800.09	0.00049926
3809.73	0.00051862
3819.38	0.000485101
3829.02	0.0004764
3838.67	0.000646
3848.31	0.0004289
3857.96	0.0005878
3867.6	0.0004246
3877.25	0.0007376
3886.89	0.00051514
3896.54	0.0007396
3906.18	0.0005693
3915.83	0.0010133
3925.47	0.0008301
3935.12	0.0008371
3944.76	0.0008848
3954.41	0.0010285
3964.05	0.0011188
3973.69	0.0010076
3983.34	0.0009185
3992.98	0.001073
