Infrared Spectrum: 2,6-Dichloro-4-fluorophenol
Formula: C 6 H 3 Cl 2 F O
CAS: 392-71-2
State: gas
Origin: EPA-IR VAPOR PHASE LIBRARY
1/CM	ABSORBANCE
549.8	0.005305
559.445	0.005605
569.09	0.010235
578.734	0.026205
588.379	0.034145
598.024	0.017655
607.669	0.006085
617.313	0.005735
626.958	0.005355
636.603	0.005595
646.248	0.007855
655.893	0.006745
665.537	0.003695
675.182	0.003735
684.827	0.004285
694.472	0.009195
704.116	0.019555
713.761	0.016785
723.406	0.012995
733.051	0.011805
742.695	0.009075
752.34	0.011185
761.985	0.014445
771.63	0.034315
781.275	0.178725
790.919	0.250055
800.564	0.192665
810.209	0.163655
819.854	0.056275
829.498	0.047875
839.143	0.043405
848.788	0.093845
858.433	0.133285
868.078	0.049255
877.722	0.011275
887.367	0.006145
897.012	0.005345
906.657	0.005945
916.301	0.008655
925.946	0.012205
935.591	0.051175
945.236	0.131495
954.88	0.129655
964.525	0.046805
974.17	0.014455
983.815	0.006265
993.46	0.004075
1003.1	0.004035
1012.75	0.003665
1022.39	0.004245
1032.04	0.005375
1041.68	0.008485
1051.33	0.016595
1060.97	0.041575
1070.62	0.040035
1080.26	0.014975
1089.91	0.016025
1099.55	0.014235
1109.2	0.006995
1118.84	0.007245
1128.49	0.007875
1138.13	0.025615
1147.78	0.132285
1157.42	0.171435
1167.07	0.063175
1176.71	0.030765
1186.36	0.084875
1196	0.243075
1205.64	0.281785
1215.29	0.190815
1224.93	0.126635
1234.58	0.057035
1244.22	0.018645
1253.87	0.015275
1263.51	0.017225
1273.16	0.019465
1282.8	0.026725
1292.45	0.035605
1302.09	0.033375
1311.74	0.064135
1321.38	0.160675
1331.03	0.148225
1340.67	0.041885
1350.32	0.021625
1359.96	0.021965
1369.61	0.014415
1379.25	0.011355
1388.9	0.018875
1398.54	0.044295
1408.18	0.133875
1417.83	0.163795
1427.47	0.078255
1437.12	0.064085
1446.76	0.058355
1456.41	0.053495
1466.05	0.183525
1475.7	0.557595
1485.34	0.608405
1494.99	0.205425
1504.63	0.040695
1514.28	0.013655
1523.92	0.009365
1533.57	0.009415
1543.21	0.009075
1552.86	0.009035
1562.5	0.017425
1572.15	0.042605
1581.79	0.104775
1591.44	0.183955
1601.08	0.149685
1610.73	0.068905
1620.37	0.030425
1630.01	0.012355
1639.66	0.009365
1649.3	0.006515
1658.95	0.004775
1668.59	0.006535
1678.24	0.009935
1687.88	0.013215
1697.53	0.013995
1707.17	0.012055
1716.82	0.008485
1726.46	0.004365
1736.11	0.002705
1745.75	0.002735
1755.4	0.002465
1765.04	0.001885
1774.69	0.001595
1784.33	0.001555
1793.98	0.001675
1803.62	0.0013475
1813.27	0.0008988
1822.91	0.0010218
1832.55	0.0011411
1842.2	0.001665
1851.84	0.002365
1861.49	0.002315
1871.13	0.001925
1880.78	0.001445
1890.42	0.001226
1900.07	0.0010746
1909.71	0.0011195
1919.36	0.0010829
1929	0.0011586
1938.65	0.001795
1948.29	0.002125
1957.94	0.002385
1967.58	0.001905
1977.23	0.001465
1986.87	0.001465
1996.52	0.001865
2006.16	0.002385
2015.81	0.002395
2025.45	0.001775
2035.1	0.001395
2044.74	0.0013047
2054.38	0.001625
2064.03	0.002765
2073.67	0.004385
2083.32	0.004455
2092.96	0.002165
2102.61	0.0009238
2112.25	0.0009267
2121.9	0.0007905
2131.54	0.0010504
2141.19	0.001605
2150.83	0.002305
2160.48	0.002055
2170.12	0.0012821
2179.77	0.0008018
2189.41	0.000711
2199.06	0.0010031
2208.7	0.001485
2218.35	0.001895
2227.99	0.001635
2237.64	0.001695
2247.28	0.002095
2256.92	0.002395
2266.57	0.002655
2276.21	0.002025
2285.86	0.0012753
2295.5	0.0008003
2305.15	0.0007794
2314.79	0.0006257
2324.44	0.0006687
2334.08	0.0005093
2343.73	0.0010899
2353.37	0.001605
2363.02	0.002155
2372.66	0.002275
2382.31	0.002445
2391.95	0.002435
2401.6	0.002125
2411.24	0.002295
2420.89	0.003095
2430.53	0.003195
2440.18	0.002335
2449.82	0.001615
2459.47	0.001545
2469.11	0.002425
2478.75	0.003825
2488.4	0.004835
2498.04	0.004655
2507.69	0.003195
2517.33	0.002345
2526.98	0.001755
2536.62	0.001655
2546.27	0.001675
2555.91	0.0012394
2565.56	0.0007326
2575.2	0.0006615
2584.85	0.0006773
2594.49	0.0008046
2604.14	0.0008236
2613.78	0.0009748
2623.43	0.001415
2633.07	0.001535
2642.72	0.002075
2652.36	0.001595
2662.01	0.0010282
2671.65	0.0006605
2681.29	0.0006503
2690.94	0.0008525
2700.58	0.0011108
2710.23	0.0011241
2719.87	0.00089
2729.52	0.0007894
2739.16	0.0011887
2748.81	0.001515
2758.45	0.001945
2768.1	0.002425
2777.74	0.002525
2787.39	0.002185
2797.03	0.002055
2806.68	0.001895
2816.32	0.001465
2825.97	0.0010193
2835.61	0.000845
2845.26	0.000601
2854.9	0.0005667
2864.55	0.0006716
2874.19	0.0010265
2883.84	0.0013222
2893.48	0.001495
2903.12	0.001595
2912.77	0.0012855
2922.41	0.0010733
2932.06	0.0006605
2941.7	0.0005655
2951.35	0.0006484
2960.99	0.0007012
2970.64	0.0006434
2980.28	0.0005572
2989.93	0.0006974
2999.57	0.000205
3009.22	0.0005789
3018.86	0.0006371
3028.51	0.0004832
3038.15	0.00039716
3047.8	0.0008312
3057.44	0.0013121
3067.09	0.001535
3076.73	0.001895
3086.38	0.002945
3096.02	0.006205
3105.67	0.004415
3115.31	0.0008088
3124.95	0.0003049
3134.6	0.00044626
3144.24	0.000122
3153.89	0.0002978
3163.53	0.0005129
3173.18	0.0008846
3182.82	0.001575
3192.47	0.001795
3202.11	0.001301
3211.76	0.0010782
3221.4	0.0008684
3231.05	0.0007486
3240.69	0.001535
3250.34	0.001585
3259.98	0.002075
3269.63	0.001805
3279.27	0.001425
3288.92	0.0009159
3298.56	0.0006071
3308.21	0.0004574
3317.85	0.0007983
3327.49	0.001365
3337.14	0.001022
3346.78	0.0007035
3356.43	0.0005422
3366.07	0.000171
3375.72	0.0003196
3385.36	0.0004365
3395.01	0.0007379
3404.65	0.0007389
3414.3	0.00037421
3423.94	0.00038734
3433.59	0.000196
3443.23	8.1e-05
3452.88	9.3e-05
3462.52	0.0004171
3472.17	0.0003096
3481.81	0.00037922
3491.46	0.0008438
3501.1	0.0006945
3510.75	0.0010082
3520.39	0.001675
3530.04	0.001605
3539.68	0.003045
3549.32	0.007215
3558.97	0.029665
3568.61	0.168265
3578.26	0.259365
3587.9	0.128185
3597.55	0.025875
3607.19	0.007555
3616.84	0.004025
3626.48	0.002445
3636.13	0.001385
3645.77	0.0010383
3655.42	0.0008046
3665.06	0.0010217
3674.71	0.0007158
3684.35	0.0007984
3694	0.0006674
3703.64	0.00038659
3713.29	0.0006387
3722.93	0.0007461
3732.58	0.00041662
3742.22	0.000524
3751.86	0.00040561
3761.51	0.0005302
3771.15	0.0006568
3780.8	0.0005101
3790.44	0.0006858
3800.09	0.0005105
3809.73	0.0007569
3819.38	0.0013183
3829.02	0.001635
3838.67	0.00081
3848.31	0.0007073
3857.96	0.0007542
3867.6	0.0010665
3877.25	0.001795
3886.89	0.003025
3896.54	0.003445
3906.18	0.0013481
3915.83	0.0011273
3925.47	0.001545
3935.12	0.001047
3944.76	0.0011784
3954.41	0.000916
3964.05	0.001595
3973.69	0.0011236
3983.34	0.000459
3992.98	0.0003473
