Infrared Spectrum: Indole-3-pyruvic acid
Formula: C 11 H 9 N O 3
CAS: 392-12-1
State: gas
Origin: EPA-IR VAPOR PHASE LIBRARY
1/CM	ABSORBANCE
549.8	0.0020232
559.445	0.0018862
569.09	0.0021843
578.734	0.0020346
588.379	0.0019779
598.024	0.0021096
607.669	0.0021286
617.313	0.0024088
626.958	0.0018127
636.603	0.001331
646.248	0.002093
655.893	0.0014805
665.537	0.0017447
675.182	0.0019541
684.827	0.0014461
694.472	0.0018135
704.116	0.00156735
713.761	0.0021379
723.406	0.0045
733.051	0.00824
742.695	0.0071
752.34	0.00405
761.985	0.00338
771.63	0.00295
781.275	0.00291
790.919	0.00329
800.564	0.0031
810.209	0.00344
819.854	0.00304
829.498	0.00311
839.143	0.00278
848.788	0.0022046
858.433	0.0018755
868.078	0.0017286
877.722	0.001667
887.367	0.0016984
897.012	0.00261
906.657	0.0022711
916.301	0.00287
925.946	0.0022697
935.591	0.0017532
945.236	0.0019347
954.88	0.001928
964.525	0.0021618
974.17	0.0020349
983.815	0.0020293
993.46	0.0019012
1003.1	0.001973
1012.75	0.00275
1022.39	0.00266
1032.04	0.00375
1041.68	0.00391
1051.33	0.00311
1060.97	0.00266
1070.62	0.00302
1080.26	0.00504
1089.91	0.00444
1099.55	0.002488
1109.2	0.00131
1118.84	0.0016606
1128.49	0.0016254
1138.13	0.0016523
1147.78	0.0023502
1157.42	0.0017269
1167.07	0.0021956
1176.71	0.0016259
1186.36	0.0018346
1196	0.00056
1205.64	0.00093
1215.29	0.0015046
1224.93	0.001043
1234.58	0.00037
1244.22	0.0023024
1253.87	0.0022618
1263.51	0.001389
1273.16	0.0019073
1282.8	0.0020066
1292.45	0.001645
1302.09	0.0022012
1311.74	0.0022274
1321.38	0.00279
1331.03	0.00318
1340.67	0.00359
1350.32	0.0034
1359.96	0.0023516
1369.61	0.0019542
1379.25	0.0019655
1388.9	0.0024303
1398.54	0.00269
1408.18	0.00358
1417.83	0.00332
1427.47	0.0025187
1437.12	0.0024983
1446.76	0.00343
1456.41	0.00377
1466.05	0.00305
1475.7	0.0022042
1485.34	0.0022443
1494.99	0.0021273
1504.63	0.0018442
1514.28	0.0017594
1523.92	0.0018808
1533.57	0.0019228
1543.21	0.0019327
1552.86	0.0020831
1562.5	0.0023116
1572.15	0.00258
1581.79	0.00262
1591.44	0.0020695
1601.08	0.0020742
1610.73	0.0023091
1620.37	0.0022062
1630.01	0.0019197
1639.66	0.0019056
1649.3	0.001889
1658.95	0.0022366
1668.59	0.0019965
1678.24	0.0022504
1687.88	0.0023618
1697.53	0.00312
1707.17	0.00314
1716.82	0.00388
1726.46	0.00572
1736.11	0.01167
1745.75	0.0125
1755.4	0.00609
1765.04	0.00405
1774.69	0.00312
1784.33	0.0023879
1793.98	0.0022763
1803.62	0.0021217
1813.27	0.0019508
1822.91	0.0019063
1832.55	0.0019115
1842.2	0.0019907
1851.84	0.00189
1861.49	0.0018105
1871.13	0.0018371
1880.78	0.0018263
1890.42	0.0019324
1900.07	0.0016307
1909.71	0.001857
1919.36	0.0019531
1929	0.0018324
1938.65	0.00159094
1948.29	0.0017103
1957.94	0.0017179
1967.58	0.0016868
1977.23	0.0015901
1986.87	0.0017117
1996.52	0.0016712
2006.16	0.00160609
2015.81	0.0017892
2025.45	0.0017255
2035.1	0.00159109
2044.74	0.0017142
2054.38	0.0018703
2064.03	0.0016441
2073.67	0.0017309
2083.32	0.0017348
2092.96	0.00160419
2102.61	0.0016545
2112.25	0.0016661
2121.9	0.0018499
2131.54	0.0018008
2141.19	0.0016976
2150.83	0.0016959
2160.48	0.0018577
2170.12	0.0017997
2179.77	0.0016214
2189.41	0.00159498
2199.06	0.00161163
2208.7	0.0018357
2218.35	0.0017978
2227.99	0.0017023
2237.64	0.0017629
2247.28	0.0019193
2256.92	0.0018782
2266.57	0.0019713
2276.21	0.0017649
2285.86	0.00158486
2295.5	0.0016931
2305.15	0.0017177
2314.79	0.0016454
2324.44	0.00158962
2334.08	0.0016784
2343.73	0.0017171
2353.37	0.0019377
2363.02	0.001737
2372.66	0.0018041
2382.31	0.0017141
2391.95	0.0018042
2401.6	0.00169
2411.24	0.0018272
2420.89	0.0017236
2430.53	0.001418
2440.18	0.0018306
2449.82	0.0020023
2459.47	0.0017321
2469.11	0.001695
2478.75	0.0017318
2488.4	0.0017083
2498.04	0.0020036
2507.69	0.0018466
2517.33	0.0017855
2526.98	0.0019202
2536.62	0.0018958
2546.27	0.0018513
2555.91	0.0017469
2565.56	0.0020249
2575.2	0.00157652
2584.85	0.0016252
2594.49	0.0017931
2604.14	0.0019627
2613.78	0.0017916
2623.43	0.0020044
2633.07	0.0020095
2642.72	0.0021112
2652.36	0.0022747
2662.01	0.0020997
2671.65	0.0022249
2681.29	0.0024551
2690.94	0.00288
2700.58	0.00306
2710.23	0.00351
2719.87	0.00361
2729.52	0.0031
2739.16	0.00283
2748.81	0.0024447
2758.45	0.00258
2768.1	0.0023856
2777.74	0.00265
2787.39	0.00286
2797.03	0.00366
2806.68	0.00364
2816.32	0.00376
2825.97	0.00282
2835.61	0.00261
2845.26	0.002433
2854.9	0.0023571
2864.55	0.0023505
2874.19	0.00261
2883.84	0.00266
2893.48	0.00261
2903.12	0.00314
2912.77	0.0032
2922.41	0.00265
2932.06	0.0024392
2941.7	0.0023081
2951.35	0.0020793
2960.99	0.0020819
2970.64	0.0021612
2980.28	0.0020282
2989.93	0.0019553
2999.57	0.0018493
3009.22	0.001984
3018.86	0.0021966
3028.51	0.00257
3038.15	0.00287
3047.8	0.00307
3057.44	0.00339
3067.09	0.00409
3076.73	0.00393
3086.38	0.00324
3096.02	0.0023657
3105.67	0.0020157
3115.31	0.0019661
3124.95	0.0019019
3134.6	0.0017669
3144.24	0.00156419
3153.89	0.0017548
3163.53	0.0018159
3173.18	0.0016718
3182.82	0.0014619
3192.47	0.00161219
3202.11	0.0017733
3211.76	0.0019007
3221.4	0.00161333
3231.05	0.00153063
3240.69	0.0016747
3250.34	0.0016235
3259.98	0.0016389
3269.63	0.0016603
3279.27	0.001407
3288.92	0.0018659
3298.56	0.0016474
3308.21	0.0014772
3317.85	0.0019673
3327.49	0.0017589
3337.14	0.001765
3346.78	0.001255
3356.43	0.0016392
3366.07	0.00155211
3375.72	0.0017235
3385.36	0.00156643
3395.01	0.0016969
3404.65	0.0017367
3414.3	0.00152822
3423.94	0.0018726
3433.59	0.0018157
3443.23	0.0019865
3452.88	0.0017092
3462.52	0.00256
3472.17	0.0022294
3481.81	0.0024763
3491.46	0.00306
3501.1	0.00407
3510.75	0.0056
3520.39	0.00493
3530.04	0.00295
3539.68	0.0017738
3549.32	0.00161488
3558.97	0.0019956
3568.61	0.001377
3578.26	0.0016996
3587.9	0.001801
3597.55	0.0016125
3607.19	0.00157529
3616.84	0.0017873
3626.48	0.0016273
3636.13	0.001919
3645.77	0.001344
3655.42	0.001335
3665.06	0.0018655
3674.71	0.00161113
3684.35	0.0017468
3694	0.00155028
3703.64	0.0017416
3713.29	0.0016682
3722.93	0.0018942
3732.58	0.0017048
3742.22	0.0020176
3751.86	0.0015968
3761.51	0.0016485
3771.15	0.0017933
3780.8	0.0016754
3790.44	0.0017159
3800.09	0.0018688
3809.73	0.0018153
3819.38	0.0016446
3829.02	0.0014701
3838.67	0.0017237
3848.31	0.002054
3857.96	0.0017443
3867.6	0.0017517
3877.25	0.0016365
3886.89	0.0014225
3896.54	0.0022471
3906.18	0.0018005
3915.83	0.001414
3925.47	0.0019078
3935.12	0.0017031
3944.76	0.00158763
3954.41	0.0016566
3964.05	0.0020401
3973.69	0.0014759
3983.34	0.0019403
3992.98	0.0017288
