Infrared Spectrum: Ethane, 2-(p-bromophenyl)-1,1,1-trichloro-2-phenyl-,
Formula: C14 H10 Br Cl3
CAS: 39211-93-3
State: SOLUTION (10% CCl4 FOR 3800-1335, 10% CS2 FOR 1335-400 CM^-^1)
Melting point: 98 C
Class: COBLENTZ III
Instrument: DOW KBr FOREPRISM-GRATING
Instrument parameters: BLAZED AT 3.5, 12.0, 20.0 MICRON AND CHANGED AT 5.0, 7.5, 14.9 MICRON
Sampling: TRANSMISSION
Path length: 0.011 CM, 0.011 CM
Resolution: 2
Origin: DOW CHEMICAL COMPANY
1/CM	TRANSMITTANCE
3806	0.9181
3797	0.9174
3788	0.9199
3779	0.9194
3770	0.9224
3761	0.9236
3752	0.9246
3743	0.9239
3734	0.9226
3725	0.9206
3716	0.9197
3707	0.9226
3698	0.9243
3689	0.9237
3680	0.923
3671	0.9204
3662	0.9188
3653	0.919
3644	0.9193
3635	0.9196
3626	0.9217
3617	0.9217
3608	0.92
3599	0.9198
3590	0.9214
3581	0.9212
3572	0.9203
3563	0.9191
3554	0.9189
3545	0.9195
3536	0.9201
3527	0.918
3518	0.9178
3509	0.9177
3500	0.9176
3491	0.9176
3482	0.9175
3473	0.9175
3464	0.9174
3455	0.9174
3446	0.9175
3437	0.9172
3428	0.9166
3419	0.9159
3410	0.9153
3401	0.9146
3392	0.9137
3383	0.913
3374	0.9131
3365	0.9141
3356	0.9142
3347	0.9144
3338	0.9167
3329	0.9154
3320	0.9155
3311	0.9171
3302	0.9152
3293	0.9149
3284	0.9148
3275	0.9162
3266	0.9161
3257	0.9164
3248	0.9171
3239	0.9169
3230	0.9169
3221	0.9166
3212	0.9165
3203	0.9148
3194	0.9154
3185	0.912
3176	0.9117
3167	0.9114
3158	0.9118
3149	0.9121
3140	0.9103
3131	0.9073
3122	0.8948
3113	0.8836
3104	0.8494
3095	0.8429
3086	0.8481
3077	0.7921
3068	0.7862
3059	0.8377
3050	0.8383
3041	0.7447
3032	0.8437
3023	0.8801
3014	0.8909
3005	0.9009
2996	0.9061
2987	0.9102
2978	0.9125
2969	0.9171
2960	0.9211
2951	0.9251
2942	0.9184
2933	0.9107
2924	0.9048
2915	0.9022
2906	0.9077
2897	0.9162
2888	0.922
2879	0.9242
2870	0.9257
2861	0.9286
2852	0.9294
2843	0.9321
2834	0.9303
2825	0.9288
2816	0.9284
2807	0.9309
2798	0.9319
2789	0.9313
2780	0.9336
2771	0.9342
2762	0.9349
2753	0.9354
2744	0.936
2735	0.9365
2726	0.9371
2717	0.9375
2708	0.9377
2699	0.938
2690	0.9393
2681	0.9404
2672	0.941
2663	0.9411
2654	0.9428
2645	0.9409
2636	0.94
2627	0.9421
2618	0.943
2609	0.9423
2600	0.9397
2591	0.9381
2582	0.9414
2573	0.9438
2564	0.9444
2555	0.9448
2546	0.9452
2537	0.9456
2528	0.9453
2519	0.9449
2510	0.9445
2501	0.9442
2492	0.9442
2483	0.9442
2474	0.946
2465	0.9461
2456	0.9453
2447	0.9466
2438	0.947
2429	0.9475
2420	0.948
2411	0.9479
2402	0.9496
2393	0.9496
2384	0.952
2375	0.9561
2366	0.9607
2357	0.9612
2348	0.9629
2339	0.9568
2330	0.9388
2321	0.951
2312	0.9517
2303	0.9428
2294	0.9481
2285	0.9514
2276	0.951
2267	0.9487
2258	0.9467
2249	0.9454
2240	0.9457
2231	0.945
2222	0.9451
2213	0.9438
2204	0.9441
2195	0.9429
2186	0.9431
2177	0.9454
2168	0.9439
2159	0.9447
2150	0.9453
2141	0.9459
2132	0.9462
2123	0.9461
2114	0.946
2105	0.946
2096	0.9455
2087	0.9457
2078	0.9453
2069	0.9448
2060	0.9447
2051	0.9448
2042	0.9429
2033	0.9416
2024	0.9418
2015	0.9409
2006	0.9378
1997	0.9291
1988	0.9236
1979	0.9328
1970	0.9209
1961	0.9491
1952	0.9159
1943	0.9298
1934	0.9403
1925	0.9441
1916	0.9431
1907	0.9123
1898	0.8835
1889	0.9216
1880	0.9231
1871	0.9362
1862	0.9454
1853	0.9437
1844	0.9463
1835	0.9466
1826	0.9463
1817	0.9464
1808	0.9362
1799	0.9264
1790	0.942
1781	0.9361
1772	0.9396
1763	0.9439
1754	0.9413
1745	0.9424
1736	0.9443
1727	0.9471
1718	0.9504
1709	0.9553
1700	0.9579
1691	0.9573
1682	0.955
1673	0.9524
1664	0.9503
1655	0.9461
1646	0.9351
1637	0.9424
1628	0.9488
1619	0.9557
1610	0.9412
1601	0.8212
1592	0.7691
1583	0.8495
1574	0.9179
1565	0.9197
1556	0.9194
1547	0.9509
1538	0.967
1529	0.959
1520	0.9541
1511	0.9506
1502	0.7298
1493	0.1619
1484	0.7051
1475	0.8899
1466	0.9253
1457	0.6937
1448	0.8817
1439	0.9368
1430	0.9458
1421	0.9513
1412	0.8807
1403	0.759
1394	0.9317
1385	0.9482
1376	0.9456
1367	0.954
1358	0.9552
1349	0.9243
1340	0.9395
1331	0.9508
1322	0.9169
1313	0.9274
1304	0.9273
1295	0.9228
1286	0.9273
1277	0.8983
1268	0.8564
1259	0.8986
1250	0.9261
1241	0.9138
1232	0.9247
1223	0.9348
1214	0.9427
1205	0.9413
1196	0.9231
1187	0.8994
1178	0.8922
1169	0.9283
1160	0.9411
1151	0.9398
1142	0.9503
1133	0.9589
1124	0.911
1115	0.9041
1106	0.8598
1097	0.9182
1088	0.9013
1079	0.3775
1070	0.7955
1061	0.9284
1052	0.9401
1043	0.9349
1034	0.7525
1025	0.8772
1016	0.7686
1007	0.4311
998	0.7757
989	0.8808
980	0.9186
971	0.9387
962	0.9368
953	0.9465
944	0.951
935	0.9555
926	0.965
917	0.7888
908	0.9528
899	0.9523
890	0.7376
881	0.9231
872	0.9651
863	0.9236
854	0.7323
845	0.4211
836	0.6695
827	0.7212
818	0.6677
809	0.8653
800	0.882
791	0.8247
782	0.3106
773	0.049
764	0.4705
755	0.7929
746	0.3033
737	0.7433
728	0.8798
719	0.8452
710	0.5897
701	0.6311
692	0.4694
683	0.8203
674	0.5871
665	0.635
656	0.8753
647	0.6772
638	0.8823
629	0.8805
620	0.7455
611	0.8201
602	0.4132
593	0.9088
584	0.94
575	0.9428
566	0.9454
557	0.9452
548	0.9399
539	0.9294
530	0.9257
521	0.9188
512	0.8588
503	0.7477
494	0.6554
485	0.7622
476	0.8363
467	0.84
458	0.8297
449	0.8166
440	0.8003
431	0.7677
422	0.7297
413	0.6707
404	0.4889
395	0.3849
386	0.3302
