Infrared Spectrum: Diethyl 4-chlorobenzylphosphonate
Formula: C 11 H 16 Cl O 3 P
CAS: 39225-17-7
State: gas
Origin: EPA-IR VAPOR PHASE LIBRARY
1/CM	ABSORBANCE
549.8	0.04665
559.445	0.02483
569.09	0.00944
578.734	0.00429
588.379	0.00344
598.024	0.00283
607.669	0.003
617.313	0.00301
626.958	0.00343
636.603	0.00365
646.248	0.00656
655.893	0.00977
665.537	0.0045
675.182	0.00502
684.827	0.00539
694.472	0.00875
704.116	0.01407
713.761	0.01139
723.406	0.01067
733.051	0.00933
742.695	0.00981
752.34	0.01541
761.985	0.03196
771.63	0.04088
781.275	0.02305
790.919	0.01588
800.564	0.01505
810.209	0.01728
819.854	0.02224
829.498	0.02971
839.143	0.03191
848.788	0.03654
858.433	0.02636
868.078	0.01329
877.722	0.00951
887.367	0.00861
897.012	0.00952
906.657	0.01261
916.301	0.01821
925.946	0.02934
935.591	0.05687
945.236	0.09056
954.88	0.0967
964.525	0.07444
974.17	0.04399
983.815	0.02842
993.46	0.02563
1003.1	0.03406
1012.75	0.07324
1022.39	0.11634
1032.04	0.16617
1041.68	0.16264
1051.33	0.13916
1060.97	0.13345
1070.62	0.09387
1080.26	0.06056
1089.91	0.06686
1099.55	0.07461
1109.2	0.03811
1118.84	0.02543
1128.49	0.0213
1138.13	0.01817
1147.78	0.01863
1157.42	0.01658
1167.07	0.0167
1176.71	0.01619
1186.36	0.01642
1196	0.0122
1205.64	0.009
1215.29	0.01023
1224.93	0.01427
1234.58	0.01909
1244.22	0.02679
1253.87	0.03037
1263.51	0.05385
1273.16	0.06738
1282.8	0.05607
1292.45	0.03833
1302.09	0.02029
1311.74	0.01189
1321.38	0.00809
1331.03	0.00572
1340.67	0.00532
1350.32	0.00509
1359.96	0.00601
1369.61	0.00894
1379.25	0.01009
1388.9	0.01529
1398.54	0.01893
1408.18	0.01661
1417.83	0.01303
1427.47	0.0083
1437.12	0.00711
1446.76	0.0074
1456.41	0.00744
1466.05	0.00839
1475.7	0.01389
1485.34	0.03326
1494.99	0.05126
1504.63	0.01744
1514.28	0.00716
1523.92	0.00454
1533.57	0.00312
1543.21	0.00294
1552.86	0.00244
1562.5	0.00219
1572.15	0.00238
1581.79	0.00252
1591.44	0.00334
1601.08	0.00325
1610.73	0.00289
1620.37	0.00232
1630.01	0.0026
1639.66	0.00279
1649.3	0.00283
1658.95	0.00304
1668.59	0.00287
1678.24	0.0025
1687.88	0.00268
1697.53	0.00254
1707.17	0.00237
1716.82	0.00253
1726.46	0.00275
1736.11	0.00328
1745.75	0.00326
1755.4	0.00322
1765.04	0.00343
1774.69	0.00364
1784.33	0.00311
1793.98	0.00313
1803.62	0.00302
1813.27	0.00292
1822.91	0.00286
1832.55	0.00292
1842.2	0.00276
1851.84	0.00262
1861.49	0.00281
1871.13	0.00275
1880.78	0.00336
1890.42	0.00368
1900.07	0.00296
1909.71	0.00239
1919.36	0.00199
1929	0.0016177
1938.65	0.00165
1948.29	0.0013796
1957.94	0.0014808
1967.58	0.0015784
1977.23	0.0014701
1986.87	0.00169
1996.52	0.0015581
2006.16	0.0014134
2015.81	0.0014534
2025.45	0.0012981
2035.1	0.0012776
2044.74	0.0012743
2054.38	0.001195
2064.03	0.0012222
2073.67	0.0014038
2083.32	0.0013659
2092.96	0.0014385
2102.61	0.0011929
2112.25	0.0014126
2121.9	0.0011493
2131.54	0.001274
2141.19	0.0012464
2150.83	0.0008966
2160.48	0.0014007
2170.12	0.0012233
2179.77	0.0011118
2189.41	0.0011809
2199.06	0.0013275
2208.7	0.0012403
2218.35	0.0010195
2227.99	0.0013116
2237.64	0.0009223
2247.28	0.0010518
2256.92	0.0012225
2266.57	0.0014725
2276.21	0.00168
2285.86	0.0013019
2295.5	0.0012813
2305.15	0.0014018
2314.79	0.0014198
2324.44	0.0014215
2334.08	0.0012123
2343.73	0.0009609
2353.37	0.0010191
2363.02	0.0010926
2372.66	0.0010727
2382.31	0.0010007
2391.95	0.0011203
2401.6	0.0011192
2411.24	0.0011754
2420.89	0.0012912
2430.53	0.0012505
2440.18	0.0012542
2449.82	0.0014796
2459.47	0.0011434
2469.11	0.0009576
2478.75	0.0007652
2488.4	0.0010495
2498.04	0.0010135
2507.69	0.0010562
2517.33	0.0010203
2526.98	0.0011913
2536.62	0.0013241
2546.27	0.0010978
2555.91	0.0007428
2565.56	0.0009348
2575.2	0.0010411
2584.85	0.0011482
2594.49	0.0010501
2604.14	0.0013386
2613.78	0.000861
2623.43	0.0009162
2633.07	0.00142
2642.72	0.00066913
2652.36	0.0011943
2662.01	0.0012881
2671.65	0.0011525
2681.29	0.0012516
2690.94	0.0008981
2700.58	0.0015897
2710.23	0.0013327
2719.87	0.00204
2729.52	0.0015105
2739.16	0.00175
2748.81	0.00168
2758.45	0.0016062
2768.1	0.00166
2777.74	0.00196
2787.39	0.00212
2797.03	0.00169
2806.68	0.00193
2816.32	0.00205
2825.97	0.00236
2835.61	0.0026
2845.26	0.00341
2854.9	0.00379
2864.55	0.00457
2874.19	0.00674
2883.84	0.00867
2893.48	0.00981
2903.12	0.01347
2912.77	0.01789
2922.41	0.01988
2932.06	0.02224
2941.7	0.02609
2951.35	0.02094
2960.99	0.0205
2970.64	0.0242
2980.28	0.03529
2989.93	0.03665
2999.57	0.02517
3009.22	0.01654
3018.86	0.01137
3028.51	0.0096
3038.15	0.00841
3047.8	0.00641
3057.44	0.00478
3067.09	0.00318
3076.73	0.00382
3086.38	0.00467
3096.02	0.0046
3105.67	0.00317
3115.31	0.00233
3124.95	0.00177
3134.6	0.00206
3144.24	0.0013237
3153.89	0.00175
3163.53	0.0017
3173.18	0.0008336
3182.82	0.0014301
3192.47	0.0015522
3202.11	0.0013389
3211.76	0.0011375
3221.4	0.0010668
3231.05	0.0012321
3240.69	0.0015541
3250.34	0.0008777
3259.98	0.00073485
3269.63	0.0009835
3279.27	0.0009308
3288.92	0.0010328
3298.56	0.0011654
3308.21	0.000361
3317.85	0.0010472
3327.49	0.00063743
3337.14	0.00070798
3346.78	0.0011397
3356.43	0.0007745
3366.07	0.0008417
3375.72	0.0008671
3385.36	0.0014609
3395.01	0.0010906
3404.65	0.0013745
3414.3	0.00067635
3423.94	0.0010917
3433.59	0.0008997
3443.23	0.000387
3452.88	0.0005516
3462.52	0.0014654
3472.17	0.0009002
3481.81	0.0010259
3491.46	0.0005846
3501.1	0.000808
3510.75	0.000648332
3520.39	0.0009773
3530.04	0.0013006
3539.68	0.000524
3549.32	0.000945
3558.97	0.0007747
3568.61	0.0008715
3578.26	0.0014659
3587.9	0.0012228
3597.55	0.0007631
3607.19	0.0009175
3616.84	0.000707
3626.48	0.001019
3636.13	0.0012039
3645.77	0.0008234
3655.42	0.0014548
3665.06	0.000451
3674.71	0.0010899
3684.35	0.00067649
3694	0.0009227
3703.64	0.0011089
3713.29	0.0008928
3722.93	0.00072468
3732.58	0.0011787
3742.22	0.0008518
3751.86	0.0010644
3761.51	0.000368
3771.15	0
3780.8	0.0012233
3790.44	0.0012987
3800.09	0.0014977
3809.73	0.0011416
3819.38	0.000323
3829.02	0.0015678
3838.67	0.0009461
3848.31	0.0008621
3857.96	0.0009957
3867.6	0.0011483
3877.25	0.0012872
3886.89	0.0007896
3896.54	0.0012953
3906.18	0.0008699
3915.83	0.0007638
3925.47	0.0012752
3935.12	0.0007668
3944.76	0.0014943
3954.41	0.001079
3964.05	0.0012942
3973.69	0.0011943
3983.34	0.0008872
3992.98	0.000659
