Infrared Spectrum: 2-Amino-5-tert-butyl-1,3,4-thiadiazole
Formula: C 6 H 11 N 3 S
CAS: 39222-73-6
State: gas
Origin: EPA-IR VAPOR PHASE LIBRARY
1/CM	ABSORBANCE
549.8	0.001661
559.445	0.001661
569.09	0.001601
578.734	0.001821
588.379	0.001611
598.024	0.0013969
607.669	0.001901
617.313	0.002341
626.958	0.003401
636.603	0.003411
646.248	0.003121
655.893	0.002971
665.537	0.002511
675.182	0.002501
684.827	0.001951
694.472	0.001841
704.116	0.0014404
713.761	0.0013075
723.406	0.002171
733.051	0.001911
742.695	0.001821
752.34	0.002791
761.985	0.002511
771.63	0.001971
781.275	0.0006652
790.919	0.001851
800.564	0.0014883
810.209	0.001591
819.854	0.0013801
829.498	0.0006626
839.143	0.0011105
848.788	0.0014611
858.433	0.0009367
868.078	0.000478
877.722	0.000397
887.367	0.00057853
897.012	0.0007304
906.657	0.0009421
916.301	0.00060855
925.946	0.0008068
935.591	0.000733
945.236	0.0010813
954.88	0.000419
964.525	0.0011578
974.17	0.0007992
983.815	0.0008899
993.46	0.001861
1003.1	0.002121
1012.75	0.002071
1022.39	0.002731
1032.04	0.003931
1041.68	0.004581
1051.33	0.004491
1060.97	0.004121
1070.62	0.004811
1080.26	0.004201
1089.91	0.003041
1099.55	0.001631
1109.2	0.0009502
1118.84	0.002021
1128.49	0.000538
1138.13	0.001561
1147.78	0.000341
1157.42	0.00060329
1167.07	0.0006671
1176.71	0.0008497
1186.36	0.0007709
1196	0.001771
1205.64	0.001981
1215.29	0.002251
1224.93	0.0013207
1234.58	0.0011119
1244.22	0.001581
1253.87	0.0015187
1263.51	0.001901
1273.16	0.002101
1282.8	0.003201
1292.45	0.005751
1302.09	0.007201
1311.74	0.006141
1321.38	0.003511
1331.03	0.003021
1340.67	0.003391
1350.32	0.003631
1359.96	0.003161
1369.61	0.003101
1379.25	0.002511
1388.9	0.001681
1398.54	0.001308
1408.18	0.0011665
1417.83	0.000844
1427.47	0.0009587
1437.12	0.0011938
1446.76	0.001601
1456.41	0.002291
1466.05	0.003071
1475.7	0.004561
1485.34	0.008751
1494.99	0.014891
1504.63	0.015141
1514.28	0.008451
1523.92	0.002341
1533.57	0.0012445
1543.21	0.0011839
1552.86	0.0010631
1562.5	0.0012926
1572.15	0.001641
1581.79	0.002861
1591.44	0.005521
1601.08	0.009151
1610.73	0.007611
1620.37	0.003881
1630.01	0.002041
1639.66	0.0014744
1649.3	0.001044
1658.95	0.0007546
1668.59	0.0007116
1678.24	0.0006828
1687.88	0.0005108
1697.53	0.0007485
1707.17	0.0006522
1716.82	0.000424
1726.46	0.0005322
1736.11	0.00052
1745.75	0.0007275
1755.4	0.0004932
1765.04	0.00059064
1774.69	0.00062957
1784.33	0.0007603
1793.98	0.00062081
1803.62	0.0007179
1813.27	0.000448
1822.91	0.0005149
1832.55	0.000554634
1842.2	0.00054415
1851.84	0.000425
1861.49	0.00064629
1871.13	0.000489
1880.78	0.0004806
1890.42	0.0006029
1900.07	0.00059113
1909.71	0.00057433
1919.36	0.0005091
1929	0.000393
1938.65	0.000457
1948.29	0.00060874
1957.94	0.0004584
1967.58	0.00061838
1977.23	0.0004737
1986.87	0.0004689
1996.52	0.0004797
2006.16	0.0004727
2015.81	0.0005238
2025.45	0.0005205
2035.1	0.0007084
2044.74	0.000477
2054.38	0.0005273
2064.03	0.000433
2073.67	0.00054944
2083.32	0.000445
2092.96	0.000511
2102.61	0.000414
2112.25	0.0004742
2121.9	0.00054477
2131.54	0.0004967
2141.19	0.000466
2150.83	0.0004692
2160.48	0.000357
2170.12	0.000554442
2179.77	0.0004844
2189.41	0.0004739
2199.06	0.00061419
2208.7	0.00059757
2218.35	0.000372
2227.99	0.00057374
2237.64	0.000493
2247.28	0.00058899
2256.92	0.0005649
2266.57	0.00062287
2276.21	0.000402
2285.86	0.00054349
2295.5	0.0005034
2305.15	0.000528
2314.79	0.0004621
2324.44	0.00057579
2334.08	0.00064951
2343.73	0.0004775
2353.37	0.000375
2363.02	0.000659
2372.66	0.0004831
2382.31	0.000425
2391.95	0.0004905
2401.6	0.000416
2411.24	0.000374
2420.89	0.0007139
2430.53	0.000226
2440.18	0.000266
2449.82	0.0005284
2459.47	0.000278
2469.11	0.000342
2478.75	0.000401
2488.4	0.000332
2498.04	0.0007182
2507.69	0.0004868
2517.33	0.000462
2526.98	0.000401
2536.62	0.0005406
2546.27	0.00054552
2555.91	0.0005092
2565.56	0.000395
2575.2	0.000406
2584.85	0.000426
2594.49	0.0004952
2604.14	0.0004621
2613.78	0.000368
2623.43	0.00056497
2633.07	0.0004954
2642.72	0.000447
2652.36	0.000307
2662.01	0.00044
2671.65	0.00054179
2681.29	0.0004
2690.94	0.000422
2700.58	0.000234
2710.23	0.000489
2719.87	0.0004861
2729.52	0.00063588
2739.16	0.0006615
2748.81	0.0005256
2758.45	0.000624
2768.1	0.0007223
2777.74	0.0004993
2787.39	0.0004564
2797.03	0.00061915
2806.68	0.0005362
2816.32	0.000351
2825.97	0.00057114
2835.61	0.0006904
2845.26	0.0008261
2854.9	0.0011461
2864.55	0.001671
2874.19	0.002471
2883.84	0.002521
2893.48	0.002831
2903.12	0.003171
2912.77	0.003271
2922.41	0.003871
2932.06	0.004271
2941.7	0.004781
2951.35	0.005591
2960.99	0.008991
2970.64	0.012391
2980.28	0.009371
2989.93	0.005261
2999.57	0.002501
3009.22	0.0010312
3018.86	0.0008943
3028.51	0.0009059
3038.15	0.0004634
3047.8	0.000451
3057.44	0.0004987
3067.09	0.0005068
3076.73	0.0006739
3086.38	0.00059428
3096.02	0.00060941
3105.67	0.0009564
3115.31	0.0006534
3124.95	0.0007632
3134.6	0.0009145
3144.24	0.000416
3153.89	0.0003
3163.53	0.0009725
3173.18	0.0007493
3182.82	0.0008345
3192.47	0.00064942
3202.11	0.0008646
3211.76	0.000164
3221.4	0.00057598
3231.05	0.00061392
3240.69	0.00058541
3250.34	0.000351
3259.98	0.0007141
3269.63	0.000282
3279.27	0.0006955
3288.92	0.000228
3298.56	0.0005296
3308.21	0.00059434
3317.85	0.0005328
3327.49	0.0006656
3337.14	0.000389
3346.78	0.00059759
3356.43	0.0005138
3366.07	0.000834
3375.72	0.0008819
3385.36	0.0012393
3395.01	0.003261
3404.65	0.004641
3414.3	0.002831
3423.94	0.0012242
3433.59	0.0005406
3443.23	0.0005391
3452.88	0.00057664
3462.52	0.0008961
3472.17	0.0008535
3481.81	0.001425
3491.46	0.002361
3501.1	0.002471
3510.75	0.002181
3520.39	0.0014938
3530.04	0.0009056
3539.68	0.0005099
3549.32	0.00059451
3558.97	0.00059755
3568.61	0.0008374
3578.26	0.0004603
3587.9	0.000301
3597.55	0.0004558
3607.19	0.0009431
3616.84	0.00061934
3626.48	0.0006653
3636.13	0.0007543
3645.77	0.0004708
3655.42	0.0007464
3665.06	0.0007592
3674.71	0.000197
3684.35	0.000354
3694	0.0006001
3703.64	0.0006577
3713.29	0.00065049
3722.93	0.0004876
3732.58	0.00058304
3742.22	0.0007703
3751.86	0.0007678
3761.51	0.0004773
3771.15	0.0007436
3780.8	0.0007183
3790.44	0.00061975
3800.09	0.000292
3809.73	0.0007081
3819.38	0.0009015
3829.02	0.000382
3838.67	0.000241
3848.31	0.00054259
3857.96	0.0002
3867.6	0.00056949
3877.25	0.0004744
3886.89	0.0007545
3896.54	0.00060624
3906.18	0.00057761
3915.83	0.0005342
3925.47	0.0005706
3935.12	0.0007573
3944.76	0.000786
3954.41	0.0005073
3964.05	0.0005363
3973.69	0.0006523
3983.34	0.0007267
3992.98	0.0008143
