Infrared Spectrum: 1,1,1-Tris(chloromethyl)ethane
Formula: C 5 H 9 Cl 3
CAS: 3922-27-8
State: gas
Instrument: HP-GC/MS/IRD
Origin: NIST Mass Spectrometry Data Center
1/CM	ABSORBANCE
550	0.0004884
562	0.0001332
574	2.22e-05
586	3.33e-05
598	0.0001887
610	0.0002331
622	0.0003552
634	0.0005217
646	0.0008103
658	0.0013653
670	0.0023199
682	0.004884
694	0.0152403
706	0.0367965
718	0.0300366
730	0.021756
742	0.0502275
754	0.0960927
766	0.104862
778	0.0360084
790	0.0163281
802	0.0110334
814	0.0067821
826	0.0054723
838	0.0130092
850	0.0306027
862	0.0407259
874	0.0433788
886	0.0384615
898	0.0226107
910	0.0060162
922	0.003441
934	0.0038073
946	0.0076923
958	0.0128205
970	0.0111333
982	0.0055833
994	0.0021645
1006	0.0011544
1018	0.0007326
1030	0.0005217
1042	0.0005106
1054	0.0004662
1066	0.0006993
1078	0.0010656
1090	0.0015984
1102	0.0019203
1114	0.0021645
1126	0.0014985
1138	0.0010767
1150	0.0013431
1162	0.0010101
1174	0.001332
1186	0.0022866
1198	0.003441
1210	0.0062271
1222	0.0112221
1234	0.010767
1246	0.0077145
1258	0.0109668
1270	0.0168165
1282	0.0178488
1294	0.0429015
1306	0.0577644
1318	0.0201465
1330	0.0051837
1342	0.0025419
1354	0.0028083
1366	0.0061272
1378	0.0196248
1390	0.0256188
1402	0.0086136
1414	0.0067488
1426	0.0245088
1438	0.057054
1450	0.0478854
1462	0.0345987
1474	0.0204795
1486	0.0074148
1498	0.0030081
1510	0.0020091
1522	0.0017982
1534	0.0014985
1546	0.001221
1558	0.0009879
1570	0.0008658
1582	0.000666
1594	0.0005217
1606	0.0005328
1618	0.000555
1630	0.0005439
1642	0.0005661
1654	0.0005772
1666	0.0004884
1678	0.0003552
1690	0.0002886
1702	0.000222
1714	0.0001887
1726	0.0001887
1738	0.0002553
1750	0.0002997
1762	0.0002331
1774	0.0001221
1786	8.88e-05
1798	3.33e-05
1810	0.0001332
1822	0.0001665
1834	0.0001665
1846	7.77e-05
1858	1.11e-05
1870	2.22e-05
1882	6.66e-05
1894	8.88e-05
1906	7.77e-05
1918	6.66e-05
1930	1.11e-05
1942	3.33e-05
1954	3.33e-05
1966	2.22e-05
1978	2.22e-05
1990	4.44e-05
2002	6.66e-05
2014	0.0001332
2026	0.0001776
2038	0.0002997
2050	0.0004107
2062	0.0004662
2074	0.0004218
2086	0.0004884
2098	0.0004329
2110	0.0003552
2122	0.0003219
2134	0.0002442
2146	0.0003108
2158	0.0003219
2170	0.0003552
2182	0.0002664
2194	0.0001998
2206	0.0001443
2218	0.000111
2230	0.0001665
2242	0.0002442
2254	0.0002886
2266	0.0003219
2278	0.0002442
2290	0.0003552
2302	0.0004773
2314	0.0005661
2326	0.0003663
2338	0.0002775
2350	0.0002553
2362	0.0001554
2374	0.0001665
2386	0.0001887
2398	0.0001776
2410	0.0001998
2422	9.99e-05
2434	9.99e-05
2446	0.0001221
2458	0.0001665
2470	0.0001887
2482	8.88e-05
2494	7.77e-05
2506	3.33e-05
2518	6.66e-05
2530	8.88e-05
2542	9.99e-05
2554	0.000111
2566	8.88e-05
2578	9.99e-05
2590	1.11e-05
2602	2.22e-05
2614	2.22e-05
2626	7.77e-05
2638	0.0001332
2650	0.0001998
2662	0.0002997
2674	0.0004218
2686	0.0004773
2698	0.000555
2710	0.0006771
2722	0.0008769
2734	0.0014097
2746	0.0015984
2758	0.0011877
2770	0.0007881
2782	0.0007215
2794	0.0007326
2806	0.0009435
2818	0.0014208
2830	0.0021867
2842	0.0033633
2854	0.006216
2866	0.009213
2878	0.0095904
2890	0.0099234
2902	0.0095793
2914	0.0095904
2926	0.0111
2938	0.0186036
2950	0.039627
2962	0.0699411
2974	0.0579864
2986	0.0451548
2998	0.0327228
3010	0.019092
3022	0.007881
3034	0.0025308
3046	0.0017094
3058	0.001554
3070	0.0013542
3082	0.0010878
3094	0.0010212
3106	0.0009546
3118	0.0009768
3130	0.0009102
3142	0.0007881
3154	0.0008436
3166	0.0007104
3178	0.0007548
3190	0.0006771
3202	0.0006327
3214	0.0005772
3226	0.0004218
3238	0.0003441
3250	0.0002442
3262	0.0002442
3274	0.0002109
3286	0.0002664
3298	0.0003441
3310	0.0003885
3322	0.0004218
3334	0.0003774
3346	0.0002664
3358	0.0002442
3370	0.000222
3382	0.000222
3394	0.0001665
3406	0.0001554
3418	0.0001665
3430	0.000111
3442	0.0001221
3454	0.0001554
3466	0.0001332
3478	0.0001887
3490	9.99e-05
3502	0.0001221
3514	9.99e-05
3526	1.11e-05
3538	6.66e-05
3550	5.55e-05
3562	7.77e-05
3574	4.44e-05
3586	0.0001221
3598	7.77e-05
3610	0.0001776
3622	0.000111
3634	0.0001332
3646	0.0001776
3658	0.0001998
3670	0.0002775
3682	0.0001887
3694	0.0002886
3706	0.0003885
3718	0.0005328
3730	0.0004107
3742	0.0003774
3754	0.0003996
3766	0.0004662
3778	0.000444
3790	0.0003219
3802	0.0003663
3814	0.0004995
3826	0.0005328
3838	0.0005328
