Infrared Spectrum: BICYCLO[2.2.1]HEPT-5-ENE-2-CARBOXALDEHYDE, 1,4,5,6,7,7-HEXACHLORO-
Formula: C8 H4 Cl6 O
CAS: 39234-24-7
Class: COBLENTZ
Instrument: Not specified, most likely a prism, grating, or hybrid spectrometer.
Sampling: TRANSMISSION
Resolution: 4
Origin: TENNESSEE EASTMAN COMPANY, RESEARCH LABORATORIES
MICROMETERS	TRANSMITTANCE
2.013	0.847
2.05285	0.847
2.09269	0.847
2.13254	0.849
2.17239	0.849
2.21223	0.85
2.25208	0.852
2.29193	0.852
2.33178	0.852
2.37162	0.854
2.41147	0.855
2.45132	0.855
2.49116	0.859
2.53101	0.86
2.57086	0.86
2.6107	0.86
2.65055	0.862
2.6904	0.862
2.73025	0.864
2.77009	0.864
2.80994	0.862
2.84979	0.849
2.88963	0.832
2.92948	0.84
2.96933	0.842
3.00917	0.842
3.04902	0.842
3.08887	0.842
3.12872	0.842
3.16856	0.84
3.20841	0.842
3.24826	0.842
3.2881	0.822
3.32795	0.799
3.3678	0.799
3.40764	0.807
3.44749	0.671
3.48734	0.771
3.52719	0.842
3.56703	0.852
3.60688	0.766
3.64673	0.849
3.68657	0.878
3.72642	0.89
3.76627	0.895
3.80611	0.898
3.84596	0.898
3.88581	0.9
3.92565	0.902
3.9655	0.902
4.00535	0.912
4.0452	0.912
4.08504	0.917
4.12489	0.922
4.16474	0.927
4.20458	0.925
4.24443	0.925
4.28428	0.925
4.32412	0.928
4.36397	0.933
4.40382	0.938
4.44367	0.938
4.48351	0.94
4.52336	0.941
4.56321	0.941
4.60305	0.943
4.6429	0.945
4.68275	0.948
4.72259	0.946
4.76244	0.946
4.80229	0.948
4.84214	0.95
4.88198	0.951
4.92183	0.953
4.96168	0.955
5.00152	0.96
5.04137	0.96
5.08122	0.96
5.12106	0.96
5.16091	0.96
5.20076	0.96
5.2406	0.96
5.28045	0.958
5.3203	0.956
5.36015	0.956
5.39999	0.95
5.43984	0.94
5.47969	0.928
5.51953	0.907
5.55938	0.888
5.59923	0.844
5.63907	0.742
5.67892	0.512
5.71877	0.131
5.75862	0.063
5.79846	0.424
5.83831	0.65
5.87816	0.716
5.918	0.8
5.95785	0.854
5.9977	0.887
6.03754	0.9
6.07739	0.912
6.11724	0.913
6.15709	0.805
6.19693	0.228
6.23678	0.608
6.27663	0.892
6.31647	0.888
6.35632	0.92
6.39617	0.938
6.43601	0.941
6.47586	0.948
6.51571	0.951
6.55556	0.951
6.5954	0.951
6.63525	0.953
6.6751	0.953
6.71494	0.948
6.75479	0.918
6.79464	0.832
6.83448	0.618
6.87433	0.721
6.91418	0.849
6.95402	0.872
6.99387	0.873
7.03372	0.885
7.07357	0.887
7.11341	0.847
7.15326	0.779
7.19311	0.779
7.23295	0.849
7.2728	0.859
7.31265	0.859
7.35249	0.859
7.39234	0.882
7.43219	0.893
7.47204	0.89
7.51188	0.865
7.55173	0.809
7.59158	0.751
7.63142	0.742
7.67127	0.799
7.71112	0.832
7.75096	0.794
7.79081	0.601
7.83066	0.311
7.87051	0.504
7.91035	0.689
7.9502	0.689
7.99005	0.53
8.02989	0.384
8.06974	0.371
8.10959	0.636
8.14943	0.693
8.18928	0.626
8.22913	0.51
8.26898	0.563
8.30882	0.648
8.34867	0.733
8.38852	0.757
8.42836	0.766
8.46821	0.749
8.50806	0.651
8.5479	0.533
8.58775	0.351
8.6276	0.262
8.66744	0.57
8.70729	0.703
8.74714	0.747
8.78699	0.756
8.82683	0.713
8.86668	0.628
8.90653	0.535
8.94637	0.341
8.98622	0.217
9.02607	0.326
9.06591	0.532
9.10576	0.583
9.14561	0.578
9.18546	0.567
9.2253	0.543
9.26515	0.555
9.305	0.545
9.34484	0.472
9.38469	0.467
9.42454	0.56
9.46438	0.597
9.50423	0.553
9.54408	0.421
9.58393	0.323
9.62377	0.3
9.66362	0.321
9.70347	0.323
9.74331	0.371
9.78316	0.464
9.82301	0.49
9.86285	0.479
9.9027	0.432
9.94255	0.409
9.98239	0.472
10.0222	0.568
10.0621	0.658
10.1019	0.724
10.1418	0.762
10.1816	0.792
10.2215	0.809
10.2613	0.825
10.3012	0.832
10.341	0.837
10.3809	0.835
10.4207	0.834
10.4606	0.814
10.5004	0.794
10.5403	0.774
10.5801	0.757
10.6199	0.723
10.6598	0.645
10.6996	0.553
10.7395	0.532
10.7793	0.601
10.8192	0.656
10.859	0.628
10.8989	0.519
10.9387	0.426
10.9786	0.398
11.0184	0.447
11.0583	0.548
11.0981	0.6
11.138	0.606
11.1778	0.565
11.2177	0.499
11.2575	0.402
11.2973	0.339
11.3372	0.333
11.377	0.432
11.4169	0.563
11.4567	0.643
11.4966	0.669
11.5364	0.674
11.5763	0.679
11.6161	0.711
11.656	0.726
11.6958	0.728
11.7357	0.704
11.7755	0.655
11.8154	0.597
11.8552	0.487
11.895	0.344
11.9349	0.213
11.9747	0.184
12.0146	0.296
12.0544	0.444
12.0943	0.598
12.1341	0.693
12.174	0.762
12.2138	0.805
12.2537	0.824
12.2935	0.827
12.3334	0.829
12.3732	0.83
12.4131	0.839
12.4529	0.85
12.4928	0.859
12.5326	0.859
12.5724	0.854
12.6123	0.844
12.6521	0.837
12.692	0.829
12.7318	0.825
12.7717	0.824
12.8115	0.827
12.8514	0.835
12.8912	0.84
12.9311	0.839
12.9709	0.839
13.0108	0.825
13.0506	0.802
13.0905	0.767
13.1303	0.714
13.1702	0.669
13.21	0.62
13.2498	0.58
13.2897	0.558
13.3295	0.548
13.3694	0.55
13.4092	0.585
13.4491	0.638
13.4889	0.683
13.5288	0.728
13.5686	0.762
13.6085	0.789
13.6483	0.81
13.6882	0.834
13.728	0.849
13.7679	0.862
13.8077	0.882
13.8476	0.897
13.8874	0.907
13.9272	0.91
13.9671	0.912
14.0069	0.91
14.0468	0.91
14.0866	0.9
14.1265	0.893
14.1663	0.883
14.2062	0.865
14.246	0.855
14.2859	0.835
14.3257	0.824
14.3656	0.804
14.4054	0.782
14.4453	0.764
14.4851	0.739
14.525	0.711
14.5648	0.679
14.6046	0.653
14.6445	0.641
14.6843	0.638
14.7242	0.64
14.764	0.655
14.8039	0.656
14.8437	0.661
14.8836	0.661
14.9234	0.661
14.9633	0.673
15.0031	0.723
15.043	0.754
15.0828	0.771
15.1227	0.791
15.1625	0.812
15.2023	0.824
15.2422	0.83
15.282	0.832
15.3219	0.832
15.3617	0.832
15.4016	0.832
15.4414	0.832
15.4813	0.832
15.5211	0.829
15.561	0.817
15.6008	0.782
15.6407	0.747
15.6805	0.713
15.7204	0.704
15.7602	0.703
15.8001	0.706
15.8399	0.714
15.8797	0.724
15.9196	0.736
