Infrared Spectrum: 3,5-Bis(trifluoromethyl)benzenesulfonyl chloride
Formula: C 8 H 3 Cl F 6 O 2 S
CAS: 39234-86-1
State: gas
Origin: EPA-IR VAPOR PHASE LIBRARY
1/CM	ABSORBANCE
501.5	0.003327
513.074	0.002387
524.648	0.001647
536.222	0.003607
547.796	0.015787
559.37	0.033047
570.944	0.027637
582.518	0.010677
594.092	0.004477
605.666	0.005107
617.24	0.009087
628.814	0.024657
640.388	0.007547
651.962	0.002077
663.536	0.001247
675.11	0.006217
686.684	0.013847
698.258	0.007567
709.832	0.001407
721.406	0.0011218
732.98	0.0004505
744.554	0.0004636
756.128	0.0004767
767.702	0.00024443
779.276	0.0003022
790.85	0.0003899
802.423	0.0005668
813.997	0.001167
825.571	0.002307
837.145	0.003217
848.719	0.004067
860.293	0.0007194
871.867	0.0004782
883.441	0.0005126
895.015	0.001887
906.589	0.007777
918.163	0.002297
929.737	0.001777
941.311	0.00075
952.885	0.0004383
964.459	0.0003639
976.033	0.0003784
987.607	0.0004486
999.181	0.0006407
1010.76	0.0007889
1022.33	0.0010506
1033.9	0.0011268
1045.48	0.0010427
1057.05	0.001467
1068.63	0.002177
1080.2	0.004047
1091.77	0.009237
1103.35	0.023187
1114.92	0.018497
1126.49	0.011117
1138.07	0.013387
1149.64	0.033037
1161.22	0.105037
1172.79	0.069137
1184.36	0.095937
1195.94	0.088497
1207.51	0.031357
1219.09	0.013707
1230.66	0.007637
1242.23	0.008427
1253.81	0.013047
1265.38	0.026577
1276.96	0.122387
1288.53	0.060267
1300.1	0.007897
1311.68	0.004817
1323.25	0.004427
1334.83	0.007557
1346.4	0.024237
1357.97	0.028987
1369.55	0.008417
1381.12	0.007387
1392.7	0.010397
1404.27	0.031207
1415.84	0.014197
1427.42	0.004307
1438.99	0.001837
1450.57	0.001577
1462.14	0.0010545
1473.71	0.000654
1485.29	0.0006133
1496.86	0.0006877
1508.44	0.0007891
1520.01	0.0006218
1531.58	0.0005798
1543.16	0.0005829
1554.73	0.0005303
1566.31	0.0005964
1577.88	0.0007548
1589.45	0.0010379
1601.03	0.001927
1612.6	0.001967
1624.18	0.002547
1635.75	0.0009258
1647.32	0.0005279
1658.9	0.0004158
1670.47	0.0003152
1682.05	0.0002959
1693.62	0.0002733
1705.19	0.00017925
1716.77	0.0001492
1728.34	0.0001288
1739.92	0.0001086
1751.49	0.0001258
1763.06	0.00021376
1774.64	0.00022753
1786.21	0.00024051
1797.79	0.0003
1809.36	0.0004025
1820.93	0.0007787
1832.51	0.0010589
1844.08	0.0007933
1855.66	0.0008546
1867.23	0.0003863
1878.8	0.00022951
1890.38	0.00017509
1901.95	0.000166387
1913.53	0.0001462
1925.1	0.00015306
1936.67	0.000160456
1948.25	0.00016952
1959.82	0.0001239
1971.4	9.41e-05
1982.97	0.000157889
1994.54	0.0002495
2006.12	0.0002728
2017.69	0.00022803
2029.27	0.00022181
2040.84	0.00017473
2052.41	0.0001117
2063.99	0.0001074
2075.56	0.0001135
2087.14	0.0001274
2098.71	0.000163333
2110.28	0.0001717
2121.86	0.00014925
2133.43	0.000122
2145.01	8.25e-05
2156.58	0.0001434
2168.15	0.00019431
2179.73	0.0002809
2191.3	0.000315
2202.88	0.0002857
2214.45	0.00022485
2226.02	0.00018459
2237.6	0.00020017
2249.17	0.0002585
2260.74	0.0003476
2272.32	0.0003875
2283.89	0.0004547
2295.47	0.000537
2307.04	0.0005098
2318.61	0.0004987
2330.19	0.0003986
2341.76	0.000372
2353.34	0.0004112
2364.91	0.0004824
2376.48	0.0004504
2388.06	0.0003252
2399.63	0.00023107
2411.21	0.00019424
2422.78	0.00019159
2434.35	0.00018305
2445.93	0.00018208
2457.5	0.000165123
2469.08	0.00017265
2480.65	0.000116
2492.22	0.0001191
2503.8	0.0001352
2515.37	0.00017456
2526.95	0.00018285
2538.52	0.00020071
2550.09	0.00021853
2561.67	0.00023232
2573.24	0.00019776
2584.82	0.0002851
2596.39	0.00020757
2607.96	0.0001462
2619.54	0.00017313
2631.11	0.000164833
2642.69	0.0001118
2654.26	8.03e-05
2665.83	6.24e-05
2677.41	6.32e-05
2688.98	4.6e-05
2700.56	5.1e-05
2712.13	5.4e-05
2723.7	9.07e-05
2735.28	7.76e-05
2746.85	8.11e-05
2758.43	0.0001251
2770	0.0001269
2781.57	0.0001092
2793.15	0.0001108
2804.72	0.0001422
2816.3	0.0001096
2827.87	3.9e-05
2839.44	0.0001056
2851.02	7.34e-05
2862.59	9.04e-05
2874.17	7.38e-05
2885.74	0.0001353
2897.31	0.00017877
2908.89	0.00018867
2920.46	0.00015081
2932.04	0.00015537
2943.61	0.00014809
2955.18	0.00017716
2966.76	0.00017722
2978.33	0.000159196
2989.91	9.58e-05
3001.48	6.05e-05
3013.05	9.74e-05
3024.63	6.03e-05
3036.2	0.000135
3047.78	0.00021365
3059.35	0.0003333
3070.92	0.0005059
3082.5	0.001287
3094.07	0.002547
3105.65	0.0007108
3117.22	0.00022957
3128.79	0.0001017
3140.37	9.87e-05
3151.94	5.76e-05
3163.52	6.62e-05
3175.09	3.6e-05
3186.66	7.9e-05
3198.24	8.17e-05
3209.81	6.76e-05
3221.39	1.7e-05
3232.96	4.2e-05
3244.53	6.69e-05
3256.11	4.1e-05
3267.68	2.2e-05
3279.26	6.84e-05
3290.83	4e-05
3302.4	3.7e-05
3313.98	6.51e-05
3325.55	6.12e-05
3337.13	6.47e-05
3348.7	3.2e-05
3360.27	5.6e-05
3371.85	8.78e-05
3383.42	6.8e-05
3395	8.08e-05
3406.57	2e-06
3418.14	6.41e-05
3429.72	6.23e-05
3441.29	4.8e-05
3452.86	8.27e-05
3464.44	8.09e-05
3476.01	7.81e-05
3487.59	5.3e-05
3499.16	7.35e-05
3510.73	0.0001009
3522.31	5.83e-05
3533.88	3.7e-05
3545.46	6.93e-05
3557.03	4.4e-05
3568.6	8.37e-05
3580.18	6.15e-05
3591.75	5.3e-05
3603.33	9.71e-05
3614.9	6e-06
3626.47	0.0001406
3638.05	8.53e-05
3649.62	0.000158848
3661.2	0.00016849
3672.77	8.39e-05
3684.34	5.8e-05
3695.92	5.71e-05
3707.49	7.63e-05
3719.07	6.12e-05
3730.64	8.22e-05
3742.21	4.6e-05
3753.79	2.3e-05
3765.36	9.58e-05
3776.94	0.0001227
3788.51	7.84e-05
3800.08	0.0001041
3811.66	8.9e-05
3823.23	7.23e-05
3834.81	4.4e-05
3846.38	6.95e-05
3857.95	8.47e-05
3869.53	3.9e-05
3881.1	5.71e-05
3892.68	8.04e-05
3904.25	6.13e-05
3915.82	0.0001115
3927.4	0.0001011
3938.97	4.7e-05
3950.55	8.8e-05
3962.12	6.35e-05
3973.69	8.02e-05
3985.27	7.05e-05
3996.84	3.1e-05
