Infrared Spectrum: 3-(3-Furyl)acrylic acid
Formula: C 7 H 6 O 3
CAS: 39244-10-5
State: gas
Origin: EPA-IR VAPOR PHASE LIBRARY
1/CM	ABSORBANCE
549.8	0.0006474
559.445	0.0011244
569.09	0.0006056
578.735	0.0008166
588.38	0.0010477
598.025	0.001868
607.67	0.002658
617.315	0.002498
626.96	0.0006952
636.605	0.000528
646.251	0.0003762
655.896	0.00032233
665.541	0.00014
675.186	0.000142
684.831	0.0002503
694.476	0.0002553
704.121	0.00029753
713.766	0.00035187
723.411	0.0006287
733.056	0.0005987
742.701	0.0004674
752.346	0.0004502
761.991	0.000445
771.636	0.0006154
781.281	0.0009287
790.926	0.001458
800.571	0.0010648
810.216	0.0006115
819.861	0.0004084
829.507	0.00028863
839.152	0.000248
848.797	0.0003801
858.442	0.0006232
868.087	0.0012515
877.732	0.0011065
887.377	0.0006065
897.022	0.0004562
906.667	0.0003988
916.312	0.00028729
925.957	0.0003757
935.602	0.0003724
945.247	0.0004154
954.892	0.0006241
964.537	0.0008208
974.182	0.0010523
983.827	0.000953
993.472	0.0006722
1003.12	0.0004949
1012.76	0.0005493
1022.41	0.0012028
1032.05	0.0010481
1041.7	0.0003874
1051.34	0.0003803
1060.99	0.0004875
1070.63	0.0006633
1080.28	0.0011395
1089.92	0.001328
1099.57	0.002018
1109.21	0.004708
1118.86	0.006178
1128.5	0.003868
1138.15	0.002478
1147.79	0.002918
1157.44	0.003338
1167.08	0.002828
1176.73	0.001678
1186.37	0.0008836
1196.02	0.0006954
1205.66	0.0007561
1215.31	0.0007284
1224.95	0.0006601
1234.6	0.0004605
1244.24	0.0006307
1253.89	0.0007576
1263.53	0.001016
1273.18	0.0009789
1282.82	0.0008857
1292.47	0.0008584
1302.11	0.0009612
1311.76	0.0008345
1321.4	0.0007073
1331.05	0.0008665
1340.69	0.001328
1350.34	0.001598
1359.98	0.001398
1369.63	0.0012029
1379.27	0.0011689
1388.92	0.0009034
1398.56	0.0005903
1408.21	0.000403
1417.85	0.0003702
1427.5	0.00031598
1437.14	0.0003815
1446.79	0.00035756
1456.43	0.0003689
1466.08	0.0003899
1475.73	0.00034863
1485.37	0.0003837
1495.02	0.000537
1504.66	0.000662
1514.31	0.0007026
1523.95	0.0005967
1533.6	0.000441
1543.24	0.0004336
1552.89	0.0004477
1562.53	0.000566
1572.18	0.00078
1581.82	0.0007532
1591.47	0.000505
1601.11	0.0004876
1610.76	0.0004952
1620.4	0.0006371
1630.05	0.0011768
1639.69	0.002388
1649.34	0.003398
1658.98	0.002188
1668.63	0.0008177
1678.27	0.0005709
1687.92	0.0005622
1697.56	0.0006489
1707.21	0.0007859
1716.85	0.0009733
1726.5	0.001458
1736.14	0.002748
1745.79	0.005358
1755.43	0.006718
1765.08	0.004858
1774.72	0.002548
1784.37	0.001608
1794.01	0.0011241
1803.66	0.0007703
1813.3	0.0005783
1822.95	0.0004788
1832.59	0.0004364
1842.24	0.0004369
1851.88	0.0004438
1861.53	0.0004488
1871.17	0.0004687
1880.82	0.0004359
1890.46	0.0004041
1900.11	0.00034638
1909.75	0.0003803
1919.4	0.0003489
1929.04	0.00033558
1938.69	0.00035714
1948.33	0.00035575
1957.98	0.0003967
1967.62	0.000374
1977.27	0.0003825
1986.91	0.0003979
1996.56	0.0004097
2006.2	0.0003744
2015.85	0.0003702
2025.49	0.0004423
2035.14	0.00033887
2044.78	0.0004072
2054.43	0.0004062
2064.07	0.0003817
2073.72	0.0003816
2083.36	0.00035815
2093.01	0.000369
2102.65	0.00035693
2112.3	0.0004156
2121.94	0.00035765
2131.59	0.00036047
2141.23	0.0004149
2150.88	0.0003895
2160.52	0.0003811
2170.17	0.0004122
2179.81	0.0004284
2189.46	0.0003959
2199.1	0.0004031
2208.75	0.0004008
2218.39	0.0004181
2228.04	0.0004059
2237.68	0.0004354
2247.33	0.0004093
2256.97	0.0004144
2266.62	0.0004279
2276.26	0.0004089
2285.91	0.0004233
2295.55	0.0004071
2305.2	0.000456
2314.84	0.0005444
2324.49	0.0005378
2334.13	0.0004806
2343.78	0.0004623
2353.42	0.0004388
2363.07	0.0004741
2372.72	0.0004571
2382.36	0.0003722
2392.01	0.000378
2401.65	0.0003691
2411.3	0.0003727
2420.94	0.0004551
2430.59	0.0003778
2440.23	0.00035938
2449.88	0.0004395
2459.52	0.0003762
2469.17	0.000385
2478.81	0.00036215
2488.46	0.0003887
2498.1	0.0003996
2507.75	0.0004269
2517.39	0.0003634
2527.04	0.0004206
2536.68	0.0003932
2546.33	0.0003737
2555.97	0.0004045
2565.62	0.0004807
2575.26	0.0003765
2584.91	0.00035418
2594.55	0.0004232
2604.2	0.000392
2613.84	0.000385
2623.49	0.00034402
2633.13	0.0004147
2642.78	0.0003716
2652.42	0.00033663
2662.07	0.0003524
2671.71	0.0003785
2681.36	0.00033682
2691	0.0003831
2700.65	0.00033153
2710.29	0.0003947
2719.94	0.0004234
2729.58	0.00043
2739.23	0.00034217
2748.87	0.0003915
2758.52	0.0004085
2768.16	0.00032934
2777.81	0.00032945
2787.45	0.00030848
2797.1	0.0003718
2806.74	0.0004501
2816.39	0.0003962
2826.03	0.00034669
2835.68	0.00030407
2845.32	0.00032103
2854.97	0.000435
2864.61	0.00028893
2874.26	0.0004258
2883.9	0.00032361
2893.55	0.000387
2903.19	0.00027881
2912.84	0.000446
2922.48	0.00028886
2932.13	0.000381
2941.77	0.00028085
2951.42	0.0002342
2961.06	0.00031254
2970.71	0.0003788
2980.35	0.00032591
2990	0.00032884
2999.64	0.00034574
3009.29	0.00030489
3018.93	0.0001943
3028.58	0.0004321
3038.22	0.0003444
3047.87	0.00031861
3057.51	0.000243
3067.16	0.00029264
3076.8	0.0003722
3086.45	0.0003712
3096.09	0.000272427
3105.74	0.000275418
3115.38	0.0002007
3125.03	0.000251
3134.67	0.000275602
3144.32	0.00027939
3153.96	0.000367
3163.61	0.0002522
3173.25	0.00019
3182.9	0.0002504
3192.54	0.0002264
3202.19	0.0002394
3211.83	0.0002044
3221.48	0.0002278
3231.12	0.000102
3240.77	0.000271325
3250.41	9e-05
3260.06	0.0002287
3269.7	0.0001868
3279.35	0.00026582
3289	0.00029624
3298.64	0.0001797
3308.29	0.00012
3317.93	0.000138
3327.58	0.00015
3337.22	0.000139
3346.87	0.0002577
3356.51	0.0002004
3366.16	8.4e-05
3375.8	3.7e-05
3385.45	0.00026318
3395.09	6.3e-05
3404.74	0.000198
3414.38	0.00030235
3424.03	0.0002564
3433.67	0.0002133
3443.32	0.000129
3452.96	0.000156
3462.61	0.000171
3472.25	0.000163
3481.9	0.000122
3491.54	0.000233
3501.19	0.0002056
3510.83	0.0002012
3520.48	3.7e-05
3530.12	0.000112
3539.77	0.0001877
3549.41	0.000135
3559.06	7e-05
3568.7	0.0006937
3578.35	0.002228
3587.99	0.002348
3597.64	0.0007161
3607.28	0.0002129
3616.93	2e-05
3626.57	0.0002328
3636.22	0.0001693
3645.86	0.0001997
3655.51	0.000144
3665.15	0.000134
3674.8	0.0002375
3684.44	0.0001851
3694.09	9.2e-05
3703.73	0.000124
3713.38	0.0001941
3723.02	0.000157
3732.67	0.0002083
3742.31	0.0001743
3751.96	0.0002091
3761.6	0.000223
3771.25	0.000139
3780.89	0.000164
3790.54	0.000144
3800.18	0.000153
3809.83	0.000149
3819.47	0.000127
3829.12	0.0001946
3838.76	0.0002529
3848.41	0.000112
3858.05	0.0001801
3867.7	0.000168
3877.34	0.000141
3886.99	0.0002446
3896.63	0.0002013
3906.28	0.00030018
3915.92	7.5e-05
3925.57	0.0002014
3935.21	0.000121
3944.86	0.000159
3954.5	0.0002376
3964.15	0.00026808
3973.79	0.0002219
3983.44	0.000132
3993.08	0.000123
