Infrared Spectrum: 11-Undecanolide
Formula: C 11 H 20 O 2
CAS: 39282-36-5
State: gas
Origin: EPA-IR VAPOR PHASE LIBRARY
1/CM	ABSORBANCE
549.8	0.001747
559.445	0.0011935
569.09	0.0013107
578.734	0.001787
588.379	0.002477
598.024	0.004297
607.669	0.002977
617.313	0.002067
626.958	0.0015495
636.603	0.0008873
646.248	0.0014282
655.893	0.0015758
665.537	0.001481
675.182	0.002197
684.827	0.003087
694.472	0.004697
704.116	0.006777
713.761	0.006157
723.406	0.006217
733.051	0.006167
742.695	0.006017
752.34	0.004047
761.985	0.004217
771.63	0.004957
781.275	0.004777
790.919	0.006057
800.564	0.005467
810.209	0.005847
819.854	0.004627
829.498	0.004087
839.143	0.004177
848.788	0.005357
858.433	0.005437
868.078	0.005797
877.722	0.005267
887.367	0.005107
897.012	0.006217
906.657	0.005987
916.301	0.006097
925.946	0.007197
935.591	0.008437
945.236	0.009427
954.88	0.011927
964.525	0.014657
974.17	0.014657
983.815	0.012497
993.46	0.013457
1003.1	0.016157
1012.75	0.022517
1022.39	0.026577
1032.04	0.025437
1041.68	0.022807
1051.33	0.023517
1060.97	0.020547
1070.62	0.021217
1080.26	0.029457
1089.91	0.037657
1099.55	0.033857
1109.2	0.027787
1118.84	0.024357
1128.49	0.034117
1138.13	0.065997
1147.78	0.074497
1157.42	0.056927
1167.07	0.050537
1176.71	0.055147
1186.36	0.048977
1196	0.043477
1205.64	0.043387
1215.29	0.059517
1224.93	0.077967
1234.58	0.086807
1244.22	0.078237
1253.87	0.055947
1263.51	0.038897
1273.16	0.030467
1282.8	0.024757
1292.45	0.020797
1302.09	0.017657
1311.74	0.016027
1321.38	0.018757
1331.03	0.022697
1340.67	0.026007
1350.32	0.027347
1359.96	0.019567
1369.61	0.013637
1379.25	0.013227
1388.9	0.010617
1398.54	0.006727
1408.18	0.006007
1417.83	0.007667
1427.47	0.013557
1437.12	0.023777
1446.76	0.034157
1456.41	0.038047
1466.05	0.035007
1475.7	0.022097
1485.34	0.010717
1494.99	0.005567
1504.63	0.004237
1514.28	0.003467
1523.92	0.003147
1533.57	0.003127
1543.21	0.002707
1552.86	0.002717
1562.5	0.002047
1572.15	0.002407
1581.79	0.002167
1591.44	0.002197
1601.08	0.002017
1610.73	0.002027
1620.37	0.002407
1630.01	0.001927
1639.66	0.002257
1649.3	0.002487
1658.95	0.003037
1668.59	0.003547
1678.24	0.004747
1687.88	0.006337
1697.53	0.009907
1707.17	0.015017
1716.82	0.019527
1726.46	0.031207
1736.11	0.078777
1745.75	0.193747
1755.4	0.183427
1765.04	0.062427
1774.69	0.024397
1784.33	0.016257
1793.98	0.012547
1803.62	0.008457
1813.27	0.005987
1822.91	0.004587
1832.55	0.003607
1842.2	0.003227
1851.84	0.003007
1861.49	0.002787
1871.13	0.002517
1880.78	0.002647
1890.42	0.002247
1900.07	0.002307
1909.71	0.002187
1919.36	0.002147
1929	0.002137
1938.65	0.002187
1948.29	0.001957
1957.94	0.002157
1967.58	0.002227
1977.23	0.002177
1986.87	0.001947
1996.52	0.002117
2006.16	0.001657
2015.81	0.001817
2025.45	0.001917
2035.1	0.002077
2044.74	0.001747
2054.38	0.001967
2064.03	0.001717
2073.67	0.001697
2083.32	0.001857
2092.96	0.0015772
2102.61	0.001647
2112.25	0.001637
2121.9	0.001807
2131.54	0.0015831
2141.19	0.001707
2150.83	0.0015943
2160.48	0.001717
2170.12	0.001617
2179.77	0.0014365
2189.41	0.001436
2199.06	0.0015356
2208.7	0.0013119
2218.35	0.0013226
2227.99	0.0015049
2237.64	0.0011911
2247.28	0.0013243
2256.92	0.0015071
2266.57	0.0013986
2276.21	0.0015971
2285.86	0.0013143
2295.5	0.0014798
2305.15	0.0015976
2314.79	0.0015216
2324.44	0.0015211
2334.08	0.001417
2343.73	0.0012662
2353.37	0.0011292
2363.02	0.0012624
2372.66	0.001295
2382.31	0.0013683
2391.95	0.0014627
2401.6	0.0014877
2411.24	0.0013194
2420.89	0.0013444
2430.53	0.0013334
2440.18	0.0015942
2449.82	0.0012124
2459.47	0.0013368
2469.11	0.0015909
2478.75	0.0014225
2488.4	0.001396
2498.04	0.0013935
2507.69	0.0013274
2517.33	0.0012474
2526.98	0.001617
2536.62	0.0013646
2546.27	0.001717
2555.91	0.001737
2565.56	0.0014096
2575.2	0.001617
2584.85	0.0014935
2594.49	0.001887
2604.14	0.001637
2613.78	0.002127
2623.43	0.002487
2633.07	0.002387
2642.72	0.002407
2652.36	0.002727
2662.01	0.002947
2671.65	0.003757
2681.29	0.003817
2690.94	0.004217
2700.58	0.003797
2710.23	0.003197
2719.87	0.002897
2729.52	0.002897
2739.16	0.003307
2748.81	0.003197
2758.45	0.002887
2768.1	0.003617
2777.74	0.003757
2787.39	0.004137
2797.03	0.004917
2806.68	0.005297
2816.32	0.006987
2825.97	0.008617
2835.61	0.012067
2845.26	0.022317
2854.9	0.054847
2864.55	0.080927
2874.19	0.081677
2883.84	0.065497
2893.48	0.054747
2903.12	0.079877
2912.77	0.132307
2922.41	0.172927
2932.06	0.225187
2941.7	0.212247
2951.35	0.155427
2960.99	0.121047
2970.64	0.087017
2980.28	0.055257
2989.93	0.032367
2999.57	0.015917
3009.22	0.009537
3018.86	0.006467
3028.51	0.004977
3038.15	0.003717
3047.8	0.003467
3057.44	0.002737
3067.09	0.002267
3076.73	0.002017
3086.38	0.002297
3096.02	0.002257
3105.67	0.002157
3115.31	0.001927
3124.95	0.001817
3134.6	0.001737
3144.24	0.001807
3153.89	0.0014441
3163.53	0.0012485
3173.18	0.0012001
3182.82	0.0007507
3192.47	0.0015091
3202.11	0.0012175
3211.76	0.0013202
3221.4	0.0013527
3231.05	0.0011604
3240.69	0.0009578
3250.34	0.0010064
3259.98	0.0013274
3269.63	0.000819
3279.27	0.0008901
3288.92	0.0012771
3298.56	0.0008682
3308.21	0.0010556
3317.85	0.0012863
3327.49	0.001211
3337.14	0.0009858
3346.78	0.0009366
3356.43	0.00070135
3366.07	0.0007834
3375.72	0.0008372
3385.36	0.0008428
3395.01	0.0011871
3404.65	0.00033
3414.3	0.0014219
3423.94	0.0013178
3433.59	0.0013405
3443.23	0.0011434
3452.88	0.0015366
3462.52	0.001717
3472.17	0.002067
3481.81	0.002347
3491.46	0.001917
3501.1	0.0014856
3510.75	0.002157
3520.39	0.0013495
3530.04	0.0008696
3539.68	0.0009587
3549.32	0.0007307
3558.97	0.00069188
3568.61	0.0010508
3578.26	0.0005483
3587.9	0.000138
3597.55	0.0008356
3607.19	0.0011642
3616.84	0.0013275
3626.48	0.0011868
3636.13	0.0005466
3645.77	0.000305
3655.42	0.0009729
3665.06	0.00065567
3674.71	0.0009548
3684.35	0.0013159
3694	0.0011712
3703.64	0.00047
3713.29	0.0011888
3722.93	0.0013207
3732.58	0.0008226
3742.22	0.0014323
3751.86	0.00065919
3761.51	0.0011444
3771.15	0.000624066
3780.8	0.0010856
3790.44	0.000865
3800.09	0.00070823
3809.73	0.000823
3819.38	0.0013387
3829.02	0.0006029
3838.67	0
3848.31	0.0012346
3857.96	0.0008306
3867.6	0.0011123
3877.25	0.0010405
3886.89	0.0005375
3896.54	0.0009087
3906.18	0.001298
3915.83	0.0008407
3925.47	0.00070551
3935.12	0.00061432
3944.76	0.0008358
3954.41	0.0007748
3964.05	0.0012382
3973.69	0.0009217
3983.34	0.0009645
3992.98	0.0009869
