Infrared Spectrum: 5-Amino-2-bromobenzotrifluoride
Formula: C 7 H 5 Br F 3 N
CAS: 393-36-2
State: gas
Origin: EPA-IR VAPOR PHASE LIBRARY
1/CM	ABSORBANCE
549.8	0.03431
559.445	0.03787
569.09	0.03624
578.734	0.034
588.379	0.02945
598.024	0.02751
607.669	0.03242
617.313	0.05674
626.958	0.1197
636.603	0.09765
646.248	0.04356
655.893	0.06017
665.537	0.1092
675.182	0.13751
684.827	0.11809
694.472	0.07661
704.116	0.06732
713.761	0.05546
723.406	0.04303
733.051	0.03959
742.695	0.05536
752.34	0.05465
761.985	0.02674
771.63	0.02147
781.275	0.024
790.919	0.03347
800.564	0.06044
810.209	0.10337
819.854	0.09061
829.498	0.041
839.143	0.02466
848.788	0.02411
858.433	0.04588
868.078	0.09543
877.722	0.06858
887.367	0.048
897.012	0.06072
906.657	0.05362
916.301	0.03345
925.946	0.01893
935.591	0.01485
945.236	0.01581
954.88	0.01756
964.525	0.01617
974.17	0.0143
983.815	0.01335
993.46	0.01542
1003.1	0.02337
1012.75	0.07279
1022.39	0.13696
1032.04	0.06176
1041.68	0.02114
1051.33	0.02176
1060.97	0.03028
1070.62	0.05045
1080.26	0.07715
1089.91	0.12355
1099.55	0.1694
1109.2	0.14232
1118.84	0.1077
1128.49	0.16002
1138.13	0.28908
1147.78	0.44485
1157.42	0.72899
1167.07	0.81452
1176.71	0.7885
1186.36	0.44806
1196	0.1824
1205.64	0.10914
1215.29	0.07594
1224.93	0.09178
1234.58	0.16796
1244.22	0.37093
1253.87	0.45644
1263.51	0.246
1273.16	0.10543
1282.8	0.06426
1292.45	0.06587
1302.09	0.0741
1311.74	0.14985
1321.38	0.52323
1331.03	0.77552
1340.67	0.30322
1350.32	0.06683
1359.96	0.03356
1369.61	0.02326
1379.25	0.02327
1388.9	0.03226
1398.54	0.03498
1408.18	0.0355
1417.83	0.07209
1427.47	0.19494
1437.12	0.2804
1446.76	0.1482
1456.41	0.06797
1466.05	0.1136
1475.7	0.22326
1485.34	0.23621
1494.99	0.09429
1504.63	0.05254
1514.28	0.03372
1523.92	0.01878
1533.57	0.01451
1543.21	0.01439
1552.86	0.01784
1562.5	0.0262
1572.15	0.0434
1581.79	0.06447
1591.44	0.05669
1601.08	0.06455
1610.73	0.1057
1620.37	0.21724
1630.01	0.24254
1639.66	0.13073
1649.3	0.05519
1658.95	0.02898
1668.59	0.02305
1678.24	0.01961
1687.88	0.01611
1697.53	0.01521
1707.17	0.01276
1716.82	0.01067
1726.46	0.01207
1736.11	0.01394
1745.75	0.01254
1755.4	0.00988
1765.04	0.00761
1774.69	0.00631
1784.33	0.00511
1793.98	0.00499
1803.62	0.00583
1813.27	0.00601
1822.91	0.00478
1832.55	0.00426
1842.2	0.00425
1851.84	0.00499
1861.49	0.00645
1871.13	0.0098
1880.78	0.01125
1890.42	0.00795
1900.07	0.00629
1909.71	0.00608
1919.36	0.00639
1929	0.00599
1938.65	0.00469
1948.29	0.00397
1957.94	0.00394
1967.58	0.00373
1977.23	0.0034
1986.87	0.00351
1996.52	0.00408
2006.16	0.00423
2015.81	0.00381
2025.45	0.00376
2035.1	0.0038
2044.74	0.00386
2054.38	0.00431
2064.03	0.00478
2073.67	0.0049
2083.32	0.00395
2092.96	0.00272
2102.61	0.00235
2112.25	0.00238
2121.9	0.00279
2131.54	0.00356
2141.19	0.00418
2150.83	0.00463
2160.48	0.00447
2170.12	0.00387
2179.77	0.00345
2189.41	0.00341
2199.06	0.00334
2208.7	0.00286
2218.35	0.00271
2227.99	0.0026
2237.64	0.00272
2247.28	0.00283
2256.92	0.00317
2266.57	0.00362
2276.21	0.00398
2285.86	0.00435
2295.5	0.00424
2305.15	0.00425
2314.79	0.00418
2324.44	0.00387
2334.08	0.00398
2343.73	0.00394
2353.37	0.00339
2363.02	0.00279
2372.66	0.00246
2382.31	0.00254
2391.95	0.00239
2401.6	0.00206
2411.24	0.00231
2420.89	0.00221
2430.53	0.00212
2440.18	0.00203
2449.82	0.00154
2459.47	0.00126
2469.11	0.0015
2478.75	0.0015
2488.4	0.00214
2498.04	0.00246
2507.69	0.0026
2517.33	0.00248
2526.98	0.00251
2536.62	0.00282
2546.27	0.00258
2555.91	0.00216
2565.56	0.00241
2575.2	0.00286
2584.85	0.00329
2594.49	0.00269
2604.14	0.00195
2613.78	0.00128
2623.43	0.00123
2633.07	0.00128
2642.72	0.0013
2652.36	0.00189
2662.01	0.00216
2671.65	0.0019
2681.29	0.00197
2690.94	0.00198
2700.58	0.00162
2710.23	0.00159
2719.87	0.00174
2729.52	0.00191
2739.16	0.00173
2748.81	0.00142
2758.45	0.00113
2768.1	0.0008685
2777.74	0.0008422
2787.39	0.000582
2797.03	0.0005944
2806.68	0.0008133
2816.32	0.00101
2825.97	0.00143
2835.61	0.00176
2845.26	0.00181
2854.9	0.00243
2864.55	0.00312
2874.19	0.00337
2883.84	0.00311
2893.48	0.00231
2903.12	0.00183
2912.77	0.00146
2922.41	0.00151
2932.06	0.00162
2941.7	0.00108
2951.35	0.00103
2960.99	0.00104
2970.64	0.0009261
2980.28	0.00192
2989.93	0.00303
2999.57	0.00543
3009.22	0.00746
3018.86	0.00687
3028.51	0.00744
3038.15	0.01615
3047.8	0.0279
3057.44	0.02301
3067.09	0.01659
3076.73	0.01387
3086.38	0.00768
3096.02	0.00505
3105.67	0.00439
3115.31	0.00263
3124.95	0.00169
3134.6	0.00124
3144.24	0.00167
3153.89	0.00143
3163.53	0.00164
3173.18	0.00143
3182.82	0.00146
3192.47	0.00194
3202.11	0.00269
3211.76	0.00465
3221.4	0.00619
3231.05	0.00675
3240.69	0.00426
3250.34	0.00284
3259.98	0.00189
3269.63	0.00114
3279.27	0.00108
3288.92	0.0008466
3298.56	0.000353
3308.21	0.0004214
3317.85	0.0002773
3327.49	0.0003506
3337.14	0.0002614
3346.78	0.0009304
3356.43	0.00136
3366.07	0.00238
3375.72	0.00419
3385.36	0.00692
3395.01	0.01584
3404.65	0.03383
3414.3	0.04986
3423.94	0.04886
3433.59	0.0446
3443.23	0.0143
3452.88	0.00489
3462.52	0.00442
3472.17	0.0073
3481.81	0.01329
3491.46	0.0229
3501.1	0.0255
3510.75	0.0209
3520.39	0.02432
3530.04	0.0143
3539.68	0.00282
3549.32	0.00125
3558.97	0.0005228
3568.61	0.0007374
3578.26	0.0004871
3587.9	0.0004357
3597.55	0.0004481
3607.19	0.0007116
3616.84	0.0003426
3626.48	0.0003113
3636.13	0.0006156
3645.77	0.0004464
3655.42	0.0002881
3665.06	0.0003781
3674.71	0.0003161
3684.35	0.0006733
3694	0.0006601
3703.64	0.000707
3713.29	0.0009733
3722.93	0.0006342
3732.58	0.0007719
3742.22	0.0009954
3751.86	0.0011
3761.51	0.00115
3771.15	0.00112
3780.8	0.0007454
3790.44	0.0007573
3800.09	0.0006956
3809.73	0.000989
3819.38	0.0006722
3829.02	0.00141
3838.67	0.00261
3848.31	0.00533
3857.96	0.00528
3867.6	0.0026
3877.25	0.00138
3886.89	0.0008334
3896.54	0.001
3906.18	0.0006903
3915.83	0.00127
3925.47	0.00151
3935.12	0.00223
3944.76	0.00245
3954.41	0.00179
3964.05	0.00116
3973.69	0.00107
3983.34	0.0008365
3992.98	0.0009156
