Infrared Spectrum: Dinocap
Formula: C 18 H 24 N 2 O 6
CAS: 39300-45-3
State: gas
Instrument: HP-GC/MS/IRD
Origin: NIST Mass Spectrometry Data Center
1/CM	ABSORBANCE
550	0.0007695
562	0.000133
574	0.000247
586	0
598	0.0001045
610	3.8e-05
622	0.0001235
634	0.0003705
646	0.000893
658	0.0018525
670	0.0028405
682	0.0020045
694	0.0027835
706	0.0045885
718	0.0096235
730	0.008721
742	0.00798
754	0.005396
766	0.0049115
778	0.0063555
790	0.007961
802	0.006745
814	0.004636
826	0.005738
838	0.0040565
850	0.003686
862	0.0043225
874	0.006593
886	0.0079325
898	0.007562
910	0.0095665
922	0.0103455
934	0.012008
946	0.023313
958	0.037088
970	0.0176415
982	0.005548
994	0.002888
1006	0.0020235
1018	0.0020615
1030	0.0025745
1042	0.0037525
1054	0.005187
1066	0.008968
1078	0.021641
1090	0.0488205
1102	0.0323665
1114	0.0284905
1126	0.0433675
1138	0.0303715
1150	0.015466
1162	0.0163495
1174	0.0263245
1186	0.0388835
1198	0.0418095
1210	0.0269895
1222	0.018373
1234	0.0126635
1246	0.013756
1258	0.011875
1270	0.0114095
1282	0.0136325
1294	0.021565
1306	0.0174135
1318	0.0165015
1330	0.0250325
1342	0.0619875
1354	0.058482
1366	0.022553
1378	0.0125685
1390	0.0092815
1402	0.006384
1414	0.0062985
1426	0.006878
1438	0.0086165
1450	0.013661
1462	0.013756
1474	0.0108395
1486	0.0080085
1498	0.009557
1510	0.012331
1522	0.015542
1534	0.027075
1546	0.074328
1558	0.0795815
1570	0.031179
1582	0.0195035
1594	0.018354
1606	0.0123215
1618	0.0117515
1630	0.008132
1642	0.0087305
1654	0.0160645
1666	0.0091105
1678	0.0033915
1690	0.002527
1702	0.0022705
1714	0.0024415
1726	0.00323
1738	0.0045695
1750	0.007771
1762	0.018069
1774	0.0450205
1786	0.022895
1798	0.007942
1810	0.004427
1822	0.0027265
1834	0.0017575
1846	0.001197
1858	0.0008645
1870	0.000722
1882	0.000532
1894	0.000399
1906	0.000323
1918	0.000266
1930	0.000247
1942	0.0002375
1954	0.0001615
1966	0.000152
1978	9.5e-05
1990	0.0002375
2002	0.0003705
2014	0.0003515
2026	0.0003325
2038	0.000304
2050	0.0002375
2062	0.0002565
2074	0.000247
2086	0.000266
2098	0.000342
2110	0.0005985
2122	0.000779
2134	0.0007885
2146	0.0004085
2158	0.0001045
2170	3.8e-05
2182	9.5e-06
2194	0
2206	1.9e-05
2218	2.85e-05
2230	9.5e-06
2242	3.8e-05
2254	8.55e-05
2266	0.0001235
2278	0.00019
2290	0.0002185
2302	0.000285
2314	0.000361
2326	0.000437
2338	0.0004845
2350	0.0004275
2362	0.000684
2374	0.0005225
2386	0.0002755
2398	0.000228
2410	0.0002185
2422	0.000228
2434	0.0001995
2446	0.000209
2458	0.0002375
2470	0.000228
2482	0.000247
2494	0.000171
2506	0.0001615
2518	0.000152
2530	0.000209
2542	0.0002375
2554	0.0002565
2566	0.0003325
2578	0.000361
2590	0.000361
2602	0.000285
2614	0.0002755
2626	0.0003325
2638	0.0004085
2650	0.0003895
2662	0.0004655
2674	0.000589
2686	0.0007315
2698	0.000627
2710	0.000589
2722	0.00057
2734	0.0006745
2746	0.0009215
2758	0.000798
2770	0.000798
2782	0.0009405
2794	0.0012445
2806	0.001539
2818	0.0020995
2830	0.002983
2842	0.004446
2854	0.0091865
2866	0.017594
2878	0.015903
2890	0.015276
2902	0.01425
2914	0.0196175
2926	0.0356345
2938	0.0458375
2950	0.028215
2962	0.0250135
2974	0.0304
2986	0.01444
2998	0.00608
3010	0.003591
3022	0.0025935
3034	0.002337
3046	0.0020425
3058	0.001938
3070	0.0020615
3082	0.001672
3094	0.002128
3106	0.0040185
3118	0.0017955
3130	0.0009405
3142	0.0007885
3154	0.000684
3166	0.0005035
3178	0.0005035
3190	0.0004275
3202	0.000418
3214	0.0003325
3226	0.0003325
3238	0.0002185
3250	0.000171
3262	0.0001235
3274	0.0001425
3286	8.55e-05
3298	0.000133
3310	9.5e-05
3322	7.6e-05
3334	0
3346	1.9e-05
3358	2.85e-05
3370	4.75e-05
3382	5.7e-05
3394	0.0001045
3406	0.0001615
3418	8.55e-05
3430	0.000152
3442	5.7e-05
3454	0.0001425
3466	8.55e-05
3478	9.5e-05
3490	0.000114
3502	0.000209
3514	0.0002565
3526	0.0004085
3538	0.00038
3550	0.0003325
3562	0.0002565
3574	0.0003325
3586	0.000247
3598	0.0002565
3610	7.6e-05
3622	9.5e-05
3634	0.000133
3646	0.0001045
3658	9.5e-05
3670	0.0001425
3682	9.5e-05
3694	0.000114
3706	3.8e-05
3718	3.8e-05
3730	4.75e-05
3742	0.0001045
3754	3.8e-05
3766	0.0001425
3778	3.8e-05
3790	9.5e-06
3802	0.0001045
3814	0.000171
3826	5.7e-05
3838	2.85e-05
