Infrared Spectrum: 4,6-Di-t-butylpyrogallol
Formula: C 14 H 22 O 3
CAS: 3934-77-8
State: gas
Origin: EPA-IR VAPOR PHASE LIBRARY
1/CM	ABSORBANCE
549.8	0.00256
559.445	0.00294
569.09	0.00352
578.734	0.00353
588.379	0.00449
598.024	0.00484
607.669	0.00338
617.313	0.00254
626.958	0.00256
636.603	0.00285
646.248	0.00312
655.893	0.00459
665.537	0.00806
675.182	0.01055
684.827	0.00621
694.472	0.0037
704.116	0.00469
713.761	0.00793
723.406	0.0095
733.051	0.00821
742.695	0.00646
752.34	0.00499
761.985	0.00364
771.63	0.00241
781.275	0.00217
790.919	0.00197
800.564	0.00207
810.209	0.00231
819.854	0.00241
829.498	0.00261
839.143	0.00305
848.788	0.0054
858.433	0.01379
868.078	0.02297
877.722	0.01403
887.367	0.00602
897.012	0.00411
906.657	0.00391
916.301	0.00445
925.946	0.00615
935.591	0.00809
945.236	0.01386
954.88	0.02741
964.525	0.03308
974.17	0.01767
983.815	0.00909
993.46	0.00662
1003.1	0.00683
1012.75	0.00995
1022.39	0.01437
1032.04	0.0233
1041.68	0.03918
1051.33	0.02718
1060.97	0.01199
1070.62	0.00708
1080.26	0.00562
1089.91	0.0048
1099.55	0.00514
1109.2	0.00428
1118.84	0.00474
1128.49	0.00585
1138.13	0.00737
1147.78	0.01037
1157.42	0.01596
1167.07	0.01996
1176.71	0.02291
1186.36	0.02846
1196	0.03438
1205.64	0.03774
1215.29	0.04793
1224.93	0.072
1234.58	0.08307
1244.22	0.08223
1253.87	0.08551
1263.51	0.06263
1273.16	0.04592
1282.8	0.06824
1292.45	0.09799
1302.09	0.06664
1311.74	0.03649
1321.38	0.03065
1331.03	0.02143
1340.67	0.0198
1350.32	0.0285
1359.96	0.03726
1369.61	0.04827
1379.25	0.02542
1388.9	0.01613
1398.54	0.0169
1408.18	0.01302
1417.83	0.01702
1427.47	0.03153
1437.12	0.05602
1446.76	0.05937
1456.41	0.03908
1466.05	0.02812
1475.7	0.02762
1485.34	0.03052
1494.99	0.02842
1504.63	0.03003
1514.28	0.01995
1523.92	0.00999
1533.57	0.00615
1543.21	0.00536
1552.86	0.00495
1562.5	0.00387
1572.15	0.00381
1581.79	0.00453
1591.44	0.0064
1601.08	0.00786
1610.73	0.00863
1620.37	0.01058
1630.01	0.01009
1639.66	0.00574
1649.3	0.00321
1658.95	0.00234
1668.59	0.00225
1678.24	0.00238
1687.88	0.00206
1697.53	0.00174
1707.17	0.00177
1716.82	0.00187
1726.46	0.00172
1736.11	0.00136
1745.75	0.00125
1755.4	0.00132
1765.04	0.00138
1774.69	0.00117
1784.33	0.0009377
1793.98	0.0007194
1803.62	0.0006952
1813.27	0.0006247
1822.91	0.000599
1832.55	0.0005937
1842.2	0.0005507
1851.84	0.0005837
1861.49	0.0004511
1871.13	0.0005199
1880.78	0.0005225
1890.42	0.0005911
1900.07	0.0006592
1909.71	0.000644
1919.36	0.0007041
1929	0.0007567
1938.65	0.0007587
1948.29	0.0007723
1957.94	0.0007886
1967.58	0.0007452
1977.23	0.0007398
1986.87	0.0005987
1996.52	0.0005805
2006.16	0.0004965
2015.81	0.0005178
2025.45	0.0004497
2035.1	0.0005435
2044.74	0.0005715
2054.38	0.000541
2064.03	0.0005408
2073.67	0.0004753
2083.32	0.00048
2092.96	0.0005399
2102.61	0.0006544
2112.25	0.0005951
2121.9	0.0005559
2131.54	0.0006555
2141.19	0.0005312
2150.83	0.0006413
2160.48	0.0006753
2170.12	0.0007639
2179.77	0.0007221
2189.41	0.0007141
2199.06	0.0007967
2208.7	0.0006934
2218.35	0.0007221
2227.99	0.0006466
2237.64	0.0005908
2247.28	0.0007497
2256.92	0.000723
2266.57	0.0008284
2276.21	0.0009451
2285.86	0.00104
2295.5	0.00106
2305.15	0.0009611
2314.79	0.0009017
2324.44	0.0008974
2334.08	0.0008649
2343.73	0.0008006
2353.37	0.0007615
2363.02	0.0008722
2372.66	0.0008968
2382.31	0.0009993
2391.95	0.00111
2401.6	0.00121
2411.24	0.00115
2420.89	0.00114
2430.53	0.0009388
2440.18	0.0009108
2449.82	0.000943
2459.47	0.0009476
2469.11	0.00109
2478.75	0.00113
2488.4	0.00123
2498.04	0.0011
2507.69	0.00113
2517.33	0.00109
2526.98	0.00114
2536.62	0.00104
2546.27	0.0011
2555.91	0.00115
2565.56	0.00106
2575.2	0.00102
2584.85	0.0009508
2594.49	0.0009219
2604.14	0.0009247
2613.78	0.0009233
2623.43	0.0009034
2633.07	0.00103
2642.72	0.00109
2652.36	0.00117
2662.01	0.00127
2671.65	0.00124
2681.29	0.00122
2690.94	0.00131
2700.58	0.00154
2710.23	0.00168
2719.87	0.00212
2729.52	0.00221
2739.16	0.00191
2748.81	0.00201
2758.45	0.00219
2768.1	0.00189
2777.74	0.00199
2787.39	0.0024
2797.03	0.00256
2806.68	0.00268
2816.32	0.00309
2825.97	0.00369
2835.61	0.0045
2845.26	0.00589
2854.9	0.0096
2864.55	0.01827
2874.19	0.03265
2883.84	0.03813
2893.48	0.03396
2903.12	0.03496
2912.77	0.04474
2922.41	0.04946
2932.06	0.0456
2941.7	0.05221
2951.35	0.07916
2960.99	0.12291
2970.64	0.12333
2980.28	0.05805
2989.93	0.02544
2999.57	0.01991
3009.22	0.01296
3018.86	0.00646
3028.51	0.00425
3038.15	0.00333
3047.8	0.00279
3057.44	0.00246
3067.09	0.00229
3076.73	0.00224
3086.38	0.0022
3096.02	0.00215
3105.67	0.00229
3115.31	0.0021
3124.95	0.00204
3134.6	0.00223
3144.24	0.00207
3153.89	0.00207
3163.53	0.00198
3173.18	0.00182
3182.82	0.0017
3192.47	0.00183
3202.11	0.00182
3211.76	0.0017
3221.4	0.00174
3231.05	0.00172
3240.69	0.0017
3250.34	0.00185
3259.98	0.00178
3269.63	0.00175
3279.27	0.00166
3288.92	0.00157
3298.56	0.00129
3308.21	0.00152
3317.85	0.00128
3327.49	0.00125
3337.14	0.00102
3346.78	0.00109
3356.43	0.00109
3366.07	0.0011
3375.72	0.00129
3385.36	0.00134
3395.01	0.00121
3404.65	0.00127
3414.3	0.0011
3423.94	0.00125
3433.59	0.00168
3443.23	0.00155
3452.88	0.00153
3462.52	0.00175
3472.17	0.00161
3481.81	0.00199
3491.46	0.00196
3501.1	0.00196
3510.75	0.00216
3520.39	0.00258
3530.04	0.003
3539.68	0.00374
3549.32	0.00559
3558.97	0.01074
3568.61	0.02878
3578.26	0.0783
3587.9	0.08466
3597.55	0.05259
3607.19	0.02107
3616.84	0.00933
3626.48	0.00738
3636.13	0.00929
3645.77	0.0159
3655.42	0.02732
3665.06	0.02825
3674.71	0.01824
3684.35	0.00993
3694	0.0054
3703.64	0.00369
3713.29	0.00252
3722.93	0.00208
3732.58	0.00181
3742.22	0.00166
3751.86	0.00151
3761.51	0.00145
3771.15	0.00121
3780.8	0.00146
3790.44	0.0015
3800.09	0.00147
3809.73	0.00148
3819.38	0.0013
3829.02	0.00128
3838.67	0.00117
3848.31	0.0009594
3857.96	0.001
3867.6	0.00102
3877.25	0.00126
3886.89	0.00114
3896.54	0.00148
3906.18	0.00144
3915.83	0.00127
3925.47	0.00135
3935.12	0.00142
3944.76	0.00122
3954.41	0.00101
3964.05	0.00105
3973.69	0.00106
3983.34	0.00117
3992.98	0.00102
