Infrared Spectrum: 3,4-dihydroxy-5-methoxybenzladehyde
Formula: C 8 H 8 O 4
CAS: 3934-87-0
State: gas
Origin: EPA-IR VAPOR PHASE LIBRARY
1/CM	ABSORBANCE
501.5	0.00182
513.074	0.00172
524.648	0.00177
536.222	0.00176
547.796	0.00137
559.37	0.00148
570.944	0.00192
582.518	0.00423
594.092	0.00452
605.666	0.00227
617.24	0.00221
628.814	0.00194
640.388	0.00167
651.962	0.00177
663.536	0.00202
675.11	0.00219
686.684	0.00296
698.258	0.00728
709.832	0.01178
721.406	0.00869
732.98	0.00607
744.554	0.00397
756.128	0.00259
767.702	0.00202
779.276	0.00178
790.85	0.00215
802.423	0.00239
813.997	0.00269
825.571	0.00305
837.145	0.00458
848.719	0.0055
860.293	0.00352
871.867	0.00249
883.441	0.00252
895.015	0.00372
906.589	0.00328
918.163	0.00183
929.737	0.00189
941.311	0.00203
952.885	0.0018
964.459	0.00155
976.033	0.0024
987.607	0.00432
999.181	0.00446
1010.76	0.00245
1022.33	0.00194
1033.9	0.00241
1045.48	0.00339
1057.05	0.00602
1068.63	0.01169
1080.2	0.02017
1091.77	0.0261
1103.35	0.02029
1114.92	0.01682
1126.49	0.02174
1138.07	0.01443
1149.64	0.00885
1161.22	0.01059
1172.79	0.0198
1184.36	0.02656
1195.94	0.03012
1207.51	0.02613
1219.09	0.01989
1230.66	0.01574
1242.23	0.01106
1253.81	0.00675
1265.38	0.00678
1276.96	0.01
1288.53	0.02578
1300.1	0.04758
1311.68	0.03538
1323.25	0.02117
1334.83	0.02829
1346.4	0.03992
1357.97	0.0363
1369.55	0.01865
1381.12	0.01031
1392.7	0.01058
1404.27	0.00655
1415.84	0.00422
1427.42	0.00508
1438.99	0.00522
1450.57	0.00664
1462.14	0.01203
1473.71	0.01329
1485.29	0.00932
1496.86	0.0137
1508.44	0.02242
1520.01	0.01397
1531.58	0.00509
1543.16	0.00265
1554.73	0.0023
1566.31	0.00289
1577.88	0.00487
1589.45	0.01032
1601.03	0.01978
1612.6	0.02477
1624.18	0.01758
1635.75	0.00801
1647.32	0.00437
1658.9	0.0036
1670.47	0.00362
1682.05	0.00461
1693.62	0.00927
1705.19	0.03059
1716.77	0.04805
1728.34	0.01799
1739.92	0.0055
1751.49	0.00434
1763.06	0.00291
1774.64	0.00125
1786.21	0.0009969
1797.79	0.00108
1809.36	0.0009257
1820.93	0.0006315
1832.51	0.0005455
1844.08	0.0005725
1855.66	0.0005501
1867.23	0.0006591
1878.8	0.000638
1890.38	0.0005522
1901.95	0.0005322
1913.53	0.0004747
1925.1	0.0004975
1936.67	0.0004339
1948.25	0.0003793
1959.82	0.0003354
1971.4	0.0004221
1982.97	0.0004392
1994.54	0.000464
2006.12	0.0004989
2017.69	0.0005665
2029.27	0.0005841
2040.84	0.000562
2052.41	0.0005732
2063.99	0.0005303
2075.56	0.0005205
2087.14	0.0004913
2098.71	0.0004905
2110.28	0.0005077
2121.86	0.0005084
2133.43	0.0004903
2145.01	0.0004254
2156.58	0.0004057
2168.15	0.0003758
2179.73	0.0003914
2191.3	0.0003623
2202.88	0.0003705
2214.45	0.0003718
2226.02	0.0003985
2237.6	0.0004674
2249.17	0.0004913
2260.74	0.000443
2272.32	0.0003488
2283.89	0.0003954
2295.47	0.0004097
2307.04	0.0005342
2318.61	0.0004447
2330.19	0.0003494
2341.76	0.0003155
2353.34	0.0003516
2364.91	0.0003589
2376.48	0.0003862
2388.06	0.00051
2399.63	0.0005661
2411.21	0.000561
2422.78	0.0005059
2434.35	0.0004781
2445.93	0.0004748
2457.5	0.0004586
2469.08	0.0004883
2480.65	0.0004861
2492.22	0.0003982
2503.8	0.0004471
2515.37	0.000403
2526.95	0.0004538
2538.52	0.0004964
2550.09	0.0005168
2561.67	0.0005261
2573.24	0.0006041
2584.82	0.00058
2596.39	0.0005932
2607.96	0.0006049
2619.54	0.0005691
2631.11	0.0006207
2642.69	0.0008557
2654.26	0.0008403
2665.83	0.000966
2677.41	0.00143
2688.98	0.00222
2700.56	0.00396
2712.13	0.00594
2723.7	0.00563
2735.28	0.00431
2746.85	0.00393
2758.43	0.00357
2770	0.00291
2781.57	0.00261
2793.15	0.00396
2804.72	0.00898
2816.3	0.00839
2827.87	0.00348
2839.44	0.00266
2851.02	0.00337
2862.59	0.00346
2874.17	0.00222
2885.74	0.00165
2897.31	0.00162
2908.89	0.00191
2920.46	0.00229
2932.04	0.00238
2943.61	0.00398
2955.18	0.00548
2966.76	0.00459
2978.33	0.00368
2989.91	0.00244
3001.48	0.0027
3013.05	0.00388
3024.63	0.00267
3036.2	0.00135
3047.78	0.00125
3059.35	0.00119
3070.92	0.00112
3082.5	0.00122
3094.07	0.0009571
3105.65	0.0008242
3117.22	0.0005709
3128.79	0.0005415
3140.37	0.0005224
3151.94	0.0004924
3163.52	0.0003606
3175.09	0.000426
3186.66	0.0005316
3198.24	0.000584
3209.81	0.0005765
3221.39	0.0005607
3232.96	0.0006044
3244.53	0.0005252
3256.11	0.0004151
3267.68	0.0004183
3279.26	0.0005482
3290.83	0.0005818
3302.4	0.0004772
3313.98	0.0004131
3325.55	0.0004193
3337.13	0.0004861
3348.7	0.0004082
3360.27	0.0005025
3371.85	0.0004656
3383.42	0.0005267
3395	0.0007171
3406.57	0.00105
3418.14	0.0009218
3429.72	0.0005637
3441.29	0.0003972
3452.86	0.0003942
3464.44	0.0003407
3476.01	0.0004074
3487.59	0.0004091
3499.16	0.0004601
3510.73	0.0004459
3522.31	0.0006075
3533.88	0.0006796
3545.46	0.00125
3557.03	0.00311
3568.6	0.01039
3580.18	0.02416
3591.75	0.02668
3603.33	0.02263
3614.9	0.0083
3626.47	0.00166
3638.05	0.00117
3649.62	0.00139
3661.2	0.00141
3672.77	0.000882
3684.34	0.0004399
3695.92	0.0003203
3707.49	0.0002917
3719.07	0.0003507
3730.64	0.0003356
3742.21	0.0003643
3753.79	0.0002118
3765.36	0.0001877
3776.94	0.0001629
3788.51	0.000241
3800.08	0.0002807
3811.66	0.0003942
3823.23	0.0002422
3834.81	0.000299
3846.38	0.0003242
3857.95	0.0003516
3869.53	0.0004488
3881.1	0.0004934
3892.68	0.000301
3904.25	0.0003972
3915.82	0.0004151
3927.4	0.0002947
3938.97	0.0002122
3950.55	0.0002789
3962.12	0.0003982
3973.69	0.0003445
3985.27	0.0001724
3996.84	0.0002522
