Infrared Spectrum: p-Toluenesulphonylacetic acid
Formula: C 9 H 10 O 4 S
CAS: 3937-96-0
State: gas
Origin: EPA-IR VAPOR PHASE LIBRARY
1/CM	ABSORBANCE
549.9	0.01087
559.547	0.0044
569.193	0.0027741
578.84	0.00210345
588.486	0.00213937
598.133	0.0027836
607.779	0.00619
617.426	0.01546
627.072	0.02495
636.719	0.01419
646.365	0.00423
656.012	0.0030427
665.658	0.0024471
675.305	0.0022426
684.951	0.002284
694.598	0.00373
704.245	0.00433
713.891	0.00438
723.538	0.00939
733.184	0.03182
742.831	0.073
752.477	0.06803
762.124	0.02485
771.77	0.00864
781.417	0.00848
791.063	0.01126
800.71	0.01416
810.356	0.02254
820.003	0.02127
829.649	0.00865
839.296	0.00365
848.943	0.0029876
858.589	0.0029613
868.236	0.0029531
877.882	0.0030637
887.529	0.0035
897.175	0.00372
906.822	0.00321
916.468	0.0029333
926.115	0.00389
935.761	0.00847
945.408	0.02851
955.054	0.0481
964.701	0.02369
974.347	0.00636
983.994	0.00389
993.64	0.0030808
1003.29	0.0029972
1012.93	0.00519
1022.58	0.00599
1032.23	0.00391
1041.87	0.00402
1051.52	0.00468
1061.17	0.00574
1070.81	0.00769
1080.46	0.0139
1090.11	0.02341
1099.75	0.0209
1109.4	0.01124
1119.05	0.00798
1128.69	0.00974
1138.34	0.0237
1147.99	0.07132
1157.63	0.17398
1167.28	0.16297
1176.92	0.04559
1186.57	0.01478
1196.22	0.0074
1205.86	0.00591
1215.51	0.00475
1225.16	0.00376
1234.8	0.00371
1244.45	0.00383
1254.1	0.00455
1263.74	0.00572
1273.39	0.00731
1283.04	0.0085
1292.68	0.01123
1302.33	0.01856
1311.98	0.02826
1321.62	0.03989
1331.27	0.06629
1340.92	0.11933
1350.56	0.12196
1360.21	0.06089
1369.86	0.01867
1379.5	0.01136
1389.15	0.01115
1398.79	0.01083
1408.44	0.01125
1418.09	0.01034
1427.73	0.00809
1437.38	0.00612
1447.03	0.00523
1456.67	0.00489
1466.32	0.00507
1475.97	0.00541
1485.61	0.00713
1495.26	0.01015
1504.91	0.00824
1514.55	0.00446
1524.2	0.00382
1533.85	0.00344
1543.49	0.00323
1553.14	0.00335
1562.79	0.00388
1572.43	0.00477
1582.08	0.00617
1591.73	0.01082
1601.37	0.01447
1611.02	0.00939
1620.67	0.00479
1630.31	0.00366
1639.96	0.00339
1649.6	0.00336
1659.25	0.0028297
1668.9	0.0022134
1678.54	0.001847
1688.19	0.001713
1697.84	0.001729
1707.48	0.001695
1717.13	0.001875
1726.78	0.00186
1736.42	0.00172
1746.07	0.001829
1755.72	0.001977
1765.36	0.00208405
1775.01	0.0020955
1784.66	0.0022806
1794.3	0.0029552
1803.95	0.0029574
1813.6	0.002052
1823.24	0.00172
1832.89	0.001724
1842.54	0.001757
1852.18	0.001785
1861.83	0.001843
1871.47	0.00193
1881.12	0.0020737
1890.77	0.0024578
1900.41	0.0030896
1910.06	0.00375
1919.71	0.00344
1929.35	0.0025305
1939	0.001971
1948.65	0.001728
1958.29	0.001638
1967.94	0.001581
1977.59	0.001567
1987.23	0.001513
1996.88	0.00157
2006.53	0.001564
2016.17	0.001616
2025.82	0.001537
2035.47	0.0016
2045.11	0.001698
2054.76	0.001843
2064.41	0.001836
2074.05	0.001727
2083.7	0.001611
2093.35	0.001588
2102.99	0.00164
2112.64	0.001683
2122.28	0.001595
2131.93	0.001523
2141.58	0.001463
2151.22	0.001436
2160.87	0.001452
2170.52	0.001584
2180.16	0.001695
2189.81	0.00167
2199.46	0.001562
2209.1	0.001542
2218.75	0.001476
2228.4	0.001627
2238.04	0.001896
2247.69	0.00215878
2257.34	0.0021997
2266.98	0.00212659
2276.63	0.001956
2286.28	0.001858
2295.92	0.0019968
2305.57	0.0020244
2315.22	0.001831
2324.86	0.001741
2334.51	0.001626
2344.16	0.001555
2353.8	0.001609
2363.45	0.001649
2373.09	0.001623
2382.74	0.001657
2392.39	0.001738
2402.03	0.001781
2411.68	0.001778
2421.33	0.001821
2430.97	0.001772
2440.62	0.001782
2450.27	0.001662
2459.91	0.001658
2469.56	0.001702
2479.21	0.001765
2488.85	0.001967
2498.5	0.00212752
2508.15	0.0020278
2517.79	0.001783
2527.44	0.001571
2537.09	0.001548
2546.73	0.001592
2556.38	0.001629
2566.03	0.001712
2575.67	0.001788
2585.32	0.001887
2594.96	0.001856
2604.61	0.001638
2614.26	0.001717
2623.9	0.001642
2633.55	0.00133
2643.2	0.00132
2652.84	0.001308
2662.49	0.001401
2672.14	0.001457
2681.78	0.001628
2691.43	0.001645
2701.08	0.001403
2710.72	0.001299
2720.37	0.001355
2730.02	0.001431
2739.66	0.001723
2749.31	0.0018
2758.96	0.001534
2768.6	0.001367
2778.25	0.001333
2787.9	0.001396
2797.54	0.001551
2807.19	0.001542
2816.84	0.001611
2826.48	0.001597
2836.13	0.001814
2845.77	0.0022855
2855.42	0.0030082
2865.07	0.00443
2874.71	0.00603
2884.36	0.00629
2894.01	0.00571
2903.65	0.00547
2913.3	0.00611
2922.95	0.00881
2932.59	0.01314
2942.24	0.01253
2951.89	0.00763
2961.53	0.00507
2971.18	0.00457
2980.83	0.00447
2990.47	0.0053
3000.12	0.00599
3009.77	0.00693
3019.41	0.00853
3029.06	0.01122
3038.71	0.0127
3048.35	0.01086
3058	0.01015
3067.64	0.00939
3077.29	0.00621
3086.94	0.00433
3096.58	0.00347
3106.23	0.00224
3115.88	0.001556
3125.52	0.001209
3135.17	0.00094
3144.82	0.00073
3154.46	0.00056
3164.11	0.00051
3173.76	0.00038
3183.4	0.00034
3193.05	0.00047
3202.7	0.00038
3212.34	0.00035
3221.99	0.00034
3231.64	0.00037
3241.28	0.00012
3250.93	0.00011
3260.58	0.00017
3270.22	4e-05
3279.87	0.00014
3289.52	2e-05
3299.16	7e-05
3308.81	5e-05
3318.45	0.0002
3328.1	0.00014
3337.75	0.00016
3347.39	0.00033
3357.04	0.00026
3366.69	0.00024
3376.33	0.00026
3385.98	0.00026
3395.63	0.00012
3405.27	9e-05
3414.92	0.00024
3424.57	0.00011
3434.21	0.00021
3443.86	0.00023
3453.51	0.00011
3463.15	0.00021
3472.8	0.00026
3482.45	0.00042
3492.09	0.00034
3501.74	0.00033
3511.39	0.00031
3521.03	0.00037
3530.68	0.00042
3540.33	0.00049
3549.97	0.00054
3559.62	0.00054
3569.26	0.0005
3578.91	0.00048
3588.56	0.00052
3598.2	0.00067
3607.85	0.00063
3617.5	0.00058
3627.14	0.00065
3636.79	0.00063
3646.44	0.00067
3656.08	0.00076
3665.73	0.00087
3675.38	0.00092
3685.02	0.00086
3694.67	0.00093
3704.32	0.00082
3713.96	0.00085
3723.61	0.00081
3733.26	0.00084
3742.9	0.0008
3752.55	0.00076
3762.2	0.00081
3771.84	0.00093
3781.49	0.00086
3791.13	0.00088
3800.78	0.00093
3810.43	0.00088
3820.07	0.00092
3829.72	0.00092
3839.37	0.00097
3849.01	0.00089
3858.66	0.001
3868.31	0.001
3877.95	0.001305
3887.6	0.001238
3897.25	0.001245
3906.89	0.001168
3916.54	0.00105
3926.19	0.00091
3935.83	0.00092
3945.48	0.001106
3955.13	0.001164
3964.77	0.001237
3974.42	0.001367
3984.07	0.001211
3993.71	0.00108
