Infrared Spectrum: 1,9-Nonanediol
Formula: C 9 H 20 O 2
CAS: 3937-56-2
State: gas
Instrument: HP-GC/MS/IRD
Origin: NIST Mass Spectrometry Data Center
1/CM	ABSORBANCE
550	0.000345
562	0.0002024
574	8.28e-05
586	5.06e-05
598	0.000138
610	0.0001012
622	0.0001334
634	9.2e-05
646	0.0001656
658	7.82e-05
670	8.28e-05
682	0.0001702
694	0.0003036
706	0.000483
718	0.0006854
730	0.0006164
742	0.0004462
754	0.0004094
766	0.0003542
778	0.0002944
790	0.000414
802	0.0004232
814	0.0004232
826	0.0005428
838	0.000667
850	0.0008188
862	0.0009936
874	0.0011316
886	0.0012604
898	0.0014214
910	0.0015778
922	0.0016284
934	0.0017342
946	0.001932
958	0.0024472
970	0.0031832
982	0.0041952
994	0.0053544
1006	0.0068494
1018	0.0092782
1030	0.0121532
1042	0.0143244
1054	0.014099
1066	0.010235
1078	0.0074244
1090	0.005244
1102	0.0035282
1114	0.0024196
1126	0.0019734
1138	0.0017802
1150	0.001748
1162	0.0017618
1174	0.001863
1186	0.0019872
1198	0.002116
1210	0.0022954
1222	0.0024518
1234	0.0024518
1246	0.0025254
1258	0.0025116
1270	0.00253
1282	0.0024748
1294	0.0023736
1306	0.0023
1318	0.0022586
1330	0.0022862
1342	0.002622
1354	0.0029762
1366	0.0031234
1378	0.0037398
1390	0.0038134
1402	0.0026726
1414	0.0018538
1426	0.0016652
1438	0.0021068
1450	0.0028336
1462	0.0031602
1474	0.0024518
1486	0.0014582
1498	0.0007222
1510	0.0004646
1522	0.0003358
1534	0.0002438
1546	0.0002116
1558	0.0002024
1570	0.000138
1582	0.0001058
1594	8.74e-05
1606	4.14e-05
1618	7.36e-05
1630	2.76e-05
1642	3.22e-05
1654	6.9e-05
1666	4.6e-06
1678	3.22e-05
1690	1.84e-05
1702	5.06e-05
1714	2.3e-05
1726	1.38e-05
1738	4.6e-05
1750	3.68e-05
1762	9.2e-06
1774	2.76e-05
1786	2.3e-05
1798	2.3e-05
1810	3.22e-05
1822	2.3e-05
1834	1.84e-05
1846	2.3e-05
1858	3.68e-05
1870	1.38e-05
1882	3.22e-05
1894	2.3e-05
1906	4.14e-05
1918	1.38e-05
1930	3.22e-05
1942	4.14e-05
1954	3.22e-05
1966	5.06e-05
1978	5.06e-05
1990	5.52e-05
2002	8.28e-05
2014	9.2e-05
2026	0.0001242
2038	0.0001426
2050	0.0001196
2062	0.0001058
2074	6.9e-05
2086	6.9e-05
2098	5.52e-05
2110	5.06e-05
2122	4.6e-06
2134	9.2e-06
2146	2.3e-05
2158	1.84e-05
2170	2.3e-05
2182	1.84e-05
2194	1.84e-05
2206	1.38e-05
2218	3.68e-05
2230	2.3e-05
2242	1.84e-05
2254	9.2e-06
2266	3.22e-05
2278	8.28e-05
2290	5.52e-05
2302	4.14e-05
2314	5.98e-05
2326	4.6e-05
2338	5.98e-05
2350	7.36e-05
2362	0
2374	5.98e-05
2386	6.44e-05
2398	7.82e-05
2410	9.66e-05
2422	0.0001058
2434	0.0001058
2446	9.66e-05
2458	9.2e-05
2470	6.44e-05
2482	0.0001012
2494	0.0001058
2506	0.0001058
2518	0.0001472
2530	0.0001702
2542	0.000161
2554	0.0001564
2566	0.0001656
2578	0.0001748
2590	0.0002162
2602	0.0002254
2614	0.0002668
2626	0.0003358
2638	0.0004094
2650	0.0004324
2662	0.000529
2674	0.0005934
2686	0.0006578
2698	0.0006946
2710	0.0007452
2722	0.000828
2734	0.0009292
2746	0.0010534
2758	0.00115
2770	0.0013018
2782	0.0014812
2794	0.0017572
2806	0.0020976
2818	0.002714
2830	0.0037812
2842	0.0062836
2854	0.01242
2866	0.018607
2878	0.0178066
2890	0.0154238
2902	0.0170982
2914	0.0245226
2926	0.0386446
2938	0.0456458
2950	0.0297574
2962	0.0149638
2974	0.0075486
2986	0.003979
2998	0.0023828
3010	0.0015456
3022	0.0011408
3034	0.0008142
3046	0.0006486
3058	0.0005106
3070	0.0004094
3082	0.0003082
3094	0.000276
3106	0.0002392
3118	0.0001978
3130	0.0001886
3142	0.0001242
3154	0.0001472
3166	0.0001288
3178	0.0001104
3190	5.52e-05
3202	7.36e-05
3214	8.28e-05
3226	4.14e-05
3238	1.38e-05
3250	7.82e-05
3262	3.22e-05
3274	4.6e-05
3286	3.22e-05
3298	1.38e-05
3310	4.6e-05
3322	3.22e-05
3334	0
3346	5.52e-05
3358	8.28e-05
3370	8.28e-05
3382	6.9e-05
3394	0.0001288
3406	5.98e-05
3418	6.44e-05
3430	0.0001426
3442	0.0001656
3454	0.0001748
3466	0.0001886
3478	0.0001656
3490	0.0001656
3502	0.0001288
3514	0.0001104
3526	0.0001426
3538	0.0001472
3550	0.0001058
3562	0.0001196
3574	0.0001334
3586	0.0002346
3598	0.000253
3610	0.0003036
3622	0.0005198
3634	0.0008602
3646	0.0016698
3658	0.0032384
3670	0.0039376
3682	0.0024104
3694	0.0010074
3706	0.000552
3718	0.0003266
3730	0.0002714
3742	0.0002392
3754	0.0001702
3766	0.0001794
3778	0.0001426
3790	0.0001058
3802	0.0001748
3814	0.0001794
3826	0.0002208
3838	0.0002484
