Infrared Spectrum: Ethyl pivalate
Formula: C 7 H 14 O 2
CAS: 3938-95-2
State: gas
Instrument: HP-GC/MS/IRD
Origin: NIST Mass Spectrometry Data Center
1/CM	ABSORBANCE
550	6.32e-05
562	2.37e-05
574	0.0002291
586	0.0006715
598	0.000553
610	0.0002923
622	0.000237
634	0.0001185
646	0.0001817
658	0.0001422
670	0.0001422
682	0.0002449
694	0.0002212
706	0.0002212
718	0.0002765
730	0.0003002
742	0.000474
754	0.000948
766	0.0015563
778	0.0017775
790	0.0013351
802	0.0008137
814	0.0008532
826	0.0009164
838	0.0013351
850	0.0019434
862	0.0026544
874	0.0021014
886	0.0013509
898	0.0011376
910	0.0009006
922	0.000948
934	0.0011613
946	0.001264
958	0.0010428
970	0.0009243
982	0.0010902
994	0.0015721
1006	0.0026939
1018	0.0051508
1030	0.0083029
1042	0.0084214
1054	0.0051903
1066	0.0033496
1078	0.0034049
1090	0.0046294
1102	0.006162
1114	0.0086426
1126	0.0191891
1138	0.0503783
1150	0.079
1162	0.0619992
1174	0.0327534
1186	0.0173563
1198	0.0098118
1210	0.0070073
1222	0.0053483
1234	0.0043134
1246	0.004661
1258	0.0075761
1270	0.015089
1282	0.0194498
1294	0.0125136
1306	0.0056169
1318	0.0029783
1330	0.0018407
1342	0.001738
1354	0.0029941
1366	0.0052851
1378	0.0064938
1390	0.0068414
1402	0.0060198
1414	0.0034918
1426	0.0025596
1438	0.0033733
1450	0.0049296
1462	0.0064227
1474	0.0090929
1486	0.0095274
1498	0.004503
1510	0.0016985
1522	0.0013035
1534	0.0011929
1546	0.0010665
1558	0.0008374
1570	0.0006952
1582	0.0006715
1594	0.0006399
1606	0.0005767
1618	0.0005609
1630	0.0005767
1642	0.000632
1654	0.0007584
1666	0.000948
1678	0.0012798
1690	0.0020145
1702	0.0036735
1714	0.0079869
1726	0.0191891
1738	0.0360951
1750	0.039342
1762	0.0205084
1774	0.0065333
1786	0.002923
1798	0.0018091
1810	0.0011534
1822	0.0006873
1834	0.0004819
1846	0.0003871
1858	0.0004582
1870	0.0004898
1882	0.0004424
1894	0.0004503
1906	0.0004503
1918	0.000395
1930	0.000316
1942	0.0002686
1954	0.0002844
1966	0.0002449
1978	0.0002686
1990	0.0003318
2002	0.0004108
2014	0.0004345
2026	0.000395
2038	0.0002923
2050	0.0002291
2062	0.0001975
2074	0.000158
2086	0.0001106
2098	0.0001027
2110	0.0001027
2122	0.0001738
2134	0.0001975
2146	0.0001896
2158	0.0001659
2170	0.0001501
2182	0.0001343
2194	7.9e-05
2206	6.32e-05
2218	5.53e-05
2230	3.16e-05
2242	3.16e-05
2254	7.9e-06
2266	7.11e-05
2278	0.0001027
2290	0.0001343
2302	0.0001817
2314	0.0001264
2326	0.0001027
2338	7.9e-05
2350	5.53e-05
2362	2.37e-05
2374	3.95e-05
2386	5.53e-05
2398	9.48e-05
2410	0.0001343
2422	0.0001422
2434	0.0001106
2446	0.0001264
2458	0.0001027
2470	7.9e-05
2482	6.32e-05
2494	7.11e-05
2506	9.48e-05
2518	0.0001027
2530	0.0001185
2542	0.0001106
2554	7.11e-05
2566	0.0001027
2578	7.9e-05
2590	0.0001501
2602	0.0001817
2614	0.0001896
2626	0.0001738
2638	0.0001659
2650	0.0001738
2662	0.0001975
2674	0.0001896
2686	0.0001896
2698	0.0002212
2710	0.000316
2722	0.0003792
2734	0.0005135
2746	0.0005293
2758	0.0005056
2770	0.0005925
2782	0.000632
2794	0.0007505
2806	0.0009085
2818	0.0009875
2830	0.0011613
2842	0.0015247
2854	0.0022199
2866	0.0042897
2878	0.0072127
2890	0.0082002
2902	0.0088006
2914	0.0103727
2926	0.0120396
2938	0.0147967
2950	0.0172536
2962	0.0228784
2974	0.0314183
2986	0.0308258
2998	0.0178856
3010	0.0077815
3022	0.0035392
3034	0.0018644
3046	0.0012561
3058	0.0009796
3070	0.0008374
3082	0.0007742
3094	0.0007742
3106	0.0007189
3118	0.0007347
3130	0.0006715
3142	0.0006478
3154	0.0006083
3166	0.0006004
3178	0.0006083
3190	0.0005372
3202	0.0005372
3214	0.0005214
3226	0.0004424
3238	0.0004266
3250	0.0003634
3262	0.0002923
3274	0.0002765
3286	0.0002686
3298	0.0001975
3310	0.0002291
3322	0.0001659
3334	0.0002686
3346	0.000158
3358	0.0002291
3370	0.0002449
3382	0.0002291
3394	0.0002133
3406	0.0001422
3418	0.0002054
3430	0.0003239
3442	0.0003634
3454	0.0004503
3466	0.0006162
3478	0.000632
3490	0.0004029
3502	0.0002449
3514	0.000237
3526	0.0001896
3538	0.0001027
3550	0.0001343
3562	0.0001106
3574	7.9e-05
3586	5.53e-05
3598	8.69e-05
3610	0.0001343
3622	0.000158
3634	0.0001501
3646	9.48e-05
3658	0.0001738
3670	8.69e-05
3682	0.0001975
3694	0.000237
3706	0.0002212
3718	0.0002291
3730	0.0001738
3742	0.0001343
3754	0.0001896
3766	0.0002212
3778	0.0002133
3790	0.0001975
3802	0.0001896
3814	0.0002765
3826	0.0002054
3838	0.0003318
