Infrared Spectrum: 4-(Trifluoroacetyl)toluene
Formula: C 9 H 7 F 3 O
CAS: 394-59-2
State: gas
Origin: EPA-IR VAPOR PHASE LIBRARY
1/CM	ABSORBANCE
549.8	0.001952
559.445	0.00267296
569.09	0.00132
578.734	0.002331
588.379	0.002267
598.024	0.002406
607.669	0.00376
617.313	0.00584
626.958	0.00569
636.603	0.00207
646.248	0.001692
655.893	0.0029347
665.537	0.002333
675.182	0.001999
684.827	0.00233
694.472	0.002993
704.116	0.00274746
713.761	0.00303
723.406	0.00436
733.051	0.00935
742.695	0.0111
752.34	0.0106
761.985	0.00601
771.63	0.0032315
781.275	0.002523
790.919	0.0030646
800.564	0.0029973
810.209	0.00413
819.854	0.00091
829.498	0.00422
839.143	0.00397
848.788	0.00405
858.433	0.0028624
868.078	0.0027695
877.722	0.003638
887.367	0.0035359
897.012	0.0033649
906.657	0.00411
916.301	0.00577
925.946	0.01048
935.591	0.02251
945.236	0.02226
954.88	0.01083
964.525	0.0056
974.17	0.00435
983.815	0.00506
993.46	0.0045
1003.1	0.00462
1012.75	0.00384
1022.39	0.0033701
1032.04	0.0034077
1041.68	0.0033302
1051.33	0.0029268
1060.97	0.0036361
1070.62	0.0027757
1080.26	0.0029995
1089.91	0.00383
1099.55	0.002066
1109.2	0.00131
1118.84	0.0048
1128.49	0.00642
1138.13	0.01225
1147.78	0.02617
1157.42	0.04227
1167.07	0.0568
1176.71	0.06261
1186.36	0.02451
1196	0.02315
1205.64	0.03305
1215.29	0.02699
1224.93	0.01374
1234.58	0.0062
1244.22	0.0028074
1253.87	0.00047
1263.51	0.002029
1273.16	0.001769
1282.8	0.002285
1292.45	0.002279
1302.09	0.002907
1311.74	0.00448
1321.38	0.00481
1331.03	0.00471
1340.67	0.00377
1350.32	0.0029002
1359.96	0.0028335
1369.61	0.0030633
1379.25	0.0028789
1388.9	0.0029988
1398.54	0.0031375
1408.18	0.003528
1417.83	0.00385
1427.47	0.0035719
1437.12	0.0033463
1446.76	0.0032505
1456.41	0.0027839
1466.05	0.0032703
1475.7	0.0032355
1485.34	0.0031009
1494.99	0.0031844
1504.63	0.0034348
1514.28	0.003234
1523.92	0.0033751
1533.57	0.00393
1543.21	0.0035984
1552.86	0.0035863
1562.5	0.0035139
1572.15	0.0041
1581.79	0.00407
1591.44	0.00546
1601.08	0.01091
1610.73	0.01491
1620.37	0.00702
1630.01	0.00399
1639.66	0.0035052
1649.3	0.0033858
1658.95	0.0030108
1668.59	0.0029489
1678.24	0.0030943
1687.88	0.0033112
1697.53	0.00398
1707.17	0.00604
1716.82	0.01399
1726.46	0.02933
1736.11	0.02314
1745.75	0.00885
1755.4	0.00495
1765.04	0.00401
1774.69	0.00371
1784.33	0.003309
1793.98	0.0029448
1803.62	0.0029658
1813.27	0.00267015
1822.91	0.002771
1832.55	0.0026059
1842.2	0.00234
1851.84	0.002437
1861.49	0.0025775
1871.13	0.0029175
1880.78	0.0026392
1890.42	0.0029342
1900.07	0.0029991
1909.71	0.0028328
1919.36	0.0030427
1929	0.0028673
1938.65	0.0029482
1948.29	0.0029451
1957.94	0.0027516
1967.58	0.0028061
1977.23	0.0030086
1986.87	0.00266377
1996.52	0.0030331
2006.16	0.0028322
2015.81	0.0030247
2025.45	0.0028571
2035.1	0.00271561
2044.74	0.002766
2054.38	0.0031531
2064.03	0.00268309
2073.67	0.0028139
2083.32	0.0025612
2092.96	0.0029901
2102.61	0.0028559
2112.25	0.0029089
2121.9	0.0031894
2131.54	0.0028633
2141.19	0.0028388
2150.83	0.0027482
2160.48	0.0028963
2170.12	0.0030887
2179.77	0.0033864
2189.41	0.0030965
2199.06	0.002943
2208.7	0.0031309
2218.35	0.0032169
2227.99	0.0027654
2237.64	0.0033663
2247.28	0.0029495
2256.92	0.0030595
2266.57	0.0030533
2276.21	0.0029587
2285.86	0.0029735
2295.5	0.0035901
2305.15	0.0030514
2314.79	0.0030707
2324.44	0.0029947
2334.08	0.0034159
2343.73	0.0033577
2353.37	0.0034463
2363.02	0.0033867
2372.66	0.00326
2382.31	0.0027878
2391.95	0.0032742
2401.6	0.0031156
2411.24	0.0030854
2420.89	0.0031782
2430.53	0.0030849
2440.18	0.002896
2449.82	0.0032997
2459.47	0.0033221
2469.11	0.0030649
2478.75	0.0031552
2488.4	0.003479
2498.04	0.0033702
2507.69	0.0032611
2517.33	0.0033173
2526.98	0.003592
2536.62	0.0032541
2546.27	0.0031089
2555.91	0.003004
2565.56	0.0031966
2575.2	0.0037
2584.85	0.0033435
2594.49	0.0031064
2604.14	0.0030866
2613.78	0.0032796
2623.43	0.0032699
2633.07	0.0032733
2642.72	0.0029166
2652.36	0.0032762
2662.01	0.0038
2671.65	0.0035824
2681.29	0.0031062
2690.94	0.0036197
2700.58	0.0033374
2710.23	0.00379
2719.87	0.0031832
2729.52	0.0035175
2739.16	0.0031788
2748.81	0.0035967
2758.45	0.0033011
2768.1	0.0038
2777.74	0.0034724
2787.39	0.0033476
2797.03	0.0028546
2806.68	0.0030402
2816.32	0.003063
2825.97	0.0029922
2835.61	0.00404
2845.26	0.00388
2854.9	0.003628
2864.55	0.0036065
2874.19	0.00394
2883.84	0.00411
2893.48	0.00439
2903.12	0.0042
2912.77	0.00409
2922.41	0.00512
2932.06	0.00556
2941.7	0.00551
2951.35	0.0047
2960.99	0.00394
2970.64	0.00376
2980.28	0.00392
2989.93	0.00393
2999.57	0.00423
3009.22	0.00467
3018.86	0.00466
3028.51	0.00513
3038.15	0.00551
3047.8	0.00549
3057.44	0.00446
3067.09	0.00393
3076.73	0.00518
3086.38	0.0036475
3096.02	0.00387
3105.67	0.0033246
3115.31	0.003191
3124.95	0.0035231
3134.6	0.0032451
3144.24	0.00372
3153.89	0.002212
3163.53	0.0027737
3173.18	0.00387
3182.82	0.003052
3192.47	0.0035981
3202.11	0.00336
3211.76	0.0034404
3221.4	0.003046
3231.05	0.00270785
3240.69	0.0031884
3250.34	0.002455
3259.98	0.0032214
3269.63	0.00267004
3279.27	0.002471
3288.92	0.0033378
3298.56	0.0033576
3308.21	0.00274851
3317.85	0.0032191
3327.49	0.0029795
3337.14	0.002522
3346.78	0.00373
3356.43	0.002076
3366.07	0.0029994
3375.72	0.0027524
3385.36	0.0028094
3395.01	0.002508
3404.65	0.00274992
3414.3	0.0029852
3423.94	0.0025753
3433.59	0.0034743
3443.23	0.0028036
3452.88	0.003087
3462.52	0.00264177
3472.17	0.0032919
3481.81	0.0029359
3491.46	0.0033781
3501.1	0.00274661
3510.75	0.0028842
3520.39	0.00233
3530.04	0.0025514
3539.68	0.001885
3549.32	0.0026207
3558.97	0.0035824
3568.61	0.002464
3578.26	0.0030563
3587.9	0.002543
3597.55	0.003284
3607.19	0.00274228
3616.84	0.001926
3626.48	0.0028185
3636.13	0.0025914
3645.77	0.0032729
3655.42	0.002323
3665.06	0.002912
3674.71	0.0028825
3684.35	0.002256
3694	0.00272501
3703.64	0.0025807
3713.29	0.0028336
3722.93	0.0031087
3732.58	0.0028072
3742.22	0.002452
3751.86	0.0031448
3761.51	0.0032525
3771.15	0.0032375
3780.8	0.00271897
3790.44	0.0034608
3800.09	0.0025946
3809.73	0.00274119
3819.38	0.0031608
3829.02	0.002504
3838.67	0.0027789
3848.31	0.0026019
3857.96	0.002398
3867.6	0.002053
3877.25	0.0027589
3886.89	0.002094
3896.54	0.0032223
3906.18	0.0031465
3915.83	0.00269648
3925.47	0.003322
3935.12	0.003
3944.76	0.002529
3954.41	0.002188
3964.05	0.002265
3973.69	0.0031172
3983.34	0.002391
3992.98	0.0027989
