Infrared Spectrum: PHENOL, 4-FLUORO-2-NITRO-
Formula: C6 H4 F N O3
CAS: 394-33-2
State: SOLUTION (CCl4 FOR 2-9.6, CS2 FOR 9.3-16 MICRON) VS SOLVENT
Class: COBLENTZ III
Instrument: BAIRD (GRATING)
Instrument parameters: NaCl PRISM
Sampling: TRANSMISSION
Path length: 0.01 CM, AND 0.01 CM , REFERENCE CELLS : 0.005 CM
Resolution: 2
Origin: WYANDOTTE CHEMICALS CORP.
1/CM	TRANSMITTANCE
4000	0.955
3991	0.9557
3982	0.9565
3973	0.9571
3964	0.9581
3955	0.9589
3946	0.9597
3937	0.9605
3928	0.9608
3919	0.961
3910	0.9597
3901	0.9568
3892	0.9547
3883	0.9542
3874	0.9548
3865	0.9559
3856	0.9573
3847	0.9586
3838	0.96
3829	0.9614
3820	0.9628
3811	0.9631
3802	0.9623
3793	0.9602
3784	0.9578
3775	0.957
3766	0.9566
3757	0.9561
3748	0.9556
3739	0.9551
3730	0.9546
3721	0.9536
3712	0.9521
3703	0.9505
3694	0.949
3685	0.947
3676	0.9435
3667	0.9397
3658	0.9358
3649	0.9318
3640	0.9282
3631	0.9257
3622	0.9234
3613	0.9218
3604	0.9217
3595	0.9216
3586	0.9214
3577	0.9209
3568	0.9199
3559	0.919
3550	0.9171
3541	0.9146
3532	0.9121
3523	0.9092
3514	0.9047
3505	0.9002
3496	0.8973
3487	0.8955
3478	0.8946
3469	0.8939
3460	0.893
3451	0.8921
3442	0.8897
3433	0.8868
3424	0.8834
3415	0.8793
3406	0.8752
3397	0.8707
3388	0.866
3379	0.8613
3370	0.8556
3361	0.8482
3352	0.84
3343	0.8261
3334	0.8083
3325	0.7575
3316	0.7151
3307	0.6724
3298	0.6296
3289	0.5866
3280	0.5433
3271	0.5017
3262	0.491
3253	0.4929
3244	0.5065
3235	0.5397
3226	0.5743
3217	0.6091
3208	0.6441
3199	0.6793
3190	0.7146
3181	0.7503
3172	0.7844
3163	0.799
3154	0.8075
3145	0.8082
3136	0.8042
3127	0.7681
3118	0.7311
3109	0.723
3100	0.7462
3091	0.7886
3082	0.823
3073	0.8371
3064	0.8503
3055	0.857
3046	0.86
3037	0.8594
3028	0.8565
3019	0.8504
3010	0.8395
3001	0.83
2992	0.828
2983	0.8271
2974	0.8263
2965	0.8246
2956	0.8184
2947	0.8137
2938	0.8135
2929	0.8165
2920	0.8201
2911	0.8258
2902	0.8292
2893	0.8295
2884	0.8294
2875	0.8295
2866	0.831
2857	0.8347
2848	0.8395
2839	0.8451
2830	0.8507
2821	0.8563
2812	0.861
2803	0.8654
2794	0.869
2785	0.8707
2776	0.8725
2767	0.8743
2758	0.8756
2749	0.8768
2740	0.8781
2731	0.8792
2722	0.8805
2713	0.8846
2704	0.8895
2695	0.8954
2686	0.9025
2677	0.9068
2668	0.9041
2659	0.9014
2650	0.899
2641	0.9023
2632	0.9047
2623	0.9058
2614	0.9068
2605	0.9078
2596	0.9089
2587	0.9106
2578	0.9118
2569	0.9118
2560	0.9104
2551	0.9096
2542	0.9108
2533	0.9137
2524	0.9168
2515	0.9183
2506	0.9186
2497	0.9173
2488	0.9158
2479	0.9145
2470	0.9146
2461	0.9156
2452	0.9167
2443	0.9183
2434	0.9188
2425	0.9187
2416	0.9187
2407	0.9195
2398	0.9206
2389	0.9228
2380	0.9252
2371	0.922
2362	0.9187
2353	0.9227
2344	0.9316
2335	0.9358
2326	0.9417
2317	0.9515
2308	0.961
2299	0.9628
2290	0.9628
2281	0.9614
2272	0.9574
2263	0.9541
2254	0.9521
2245	0.954
2236	0.9559
2227	0.9578
2218	0.9598
2209	0.9615
2200	0.9632
2191	0.9646
2182	0.9658
2173	0.9653
2164	0.9636
2155	0.9628
2146	0.9637
2137	0.966
2128	0.9685
2119	0.971
2110	0.9728
2101	0.967
2092	0.9578
2083	0.9563
2074	0.9585
2065	0.9607
2056	0.9621
2047	0.9632
2038	0.9643
2029	0.9648
2020	0.9636
2011	0.9616
2002	0.9602
1993	0.9597
1984	0.9628
1975	0.9667
1966	0.9697
1957	0.9711
1948	0.9699
1939	0.9671
1930	0.9665
1921	0.9665
1912	0.9657
1903	0.944
1894	0.9121
1885	0.9311
1876	0.9587
1867	0.9651
1858	0.9612
1849	0.9552
1840	0.9598
1831	0.9633
1822	0.9654
1813	0.9654
1804	0.9556
1795	0.9374
1786	0.922
1777	0.9248
1768	0.9306
1759	0.8927
1750	0.8788
1741	0.8937
1732	0.8955
1723	0.8857
1714	0.8795
1705	0.8732
1696	0.8644
1687	0.848
1678	0.8351
1669	0.8022
1660	0.7817
1651	0.6888
1642	0.6514
1633	0.7058
1624	0.6026
1615	0.3134
1606	0.3434
1597	0.4969
1588	0.5016
1579	0.3375
1570	0.1714
1561	0.0427
1552	0.0535
1543	0.1714
1534	0.3391
1525	0.5087
1516	0.4271
1507	0.262
1498	0.0458
1489	0.192
1480	0.4132
1471	0.5589
1462	0.4273
1453	0.2052
1444	0.0441
1435	0.2954
1426	0.5846
1417	0.6974
1408	0.7315
1399	0.7481
1390	0.7367
1381	0.67
1372	0.4988
1363	0.4934
1354	0.5419
1345	0.3447
1336	0.0788
1327	0.028
1318	0.1112
1309	0.2207
1300	0.3605
1291	0.4627
1282	0.6026
1273	0.4727
1264	0.1592
1255	0.0182
1246	0.0238
1237	0.0225
1228	0.0808
1219	0.2173
1210	0.398
1201	0.4826
1192	0.6575
1183	0.5897
1174	0.249
1165	0.3864
1156	0.6333
1147	0.7094
1138	0.6926
1129	0.585
1120	0.4543
1111	0.7193
1102	0.7508
1093	0.8118
1084	0.8217
1075	0.7969
1066	0.4171
1057	0.7819
1048	0.8097
1039	0.8181
1030	0.8157
1021	0.8225
1012	0.8418
1003	0.8585
994	0.8645
985	0.866
976	0.8655
967	0.8578
958	0.8356
949	0.7415
940	0.3752
931	0.7941
922	0.8496
913	0.8571
904	0.8703
895	0.8568
886	0.783
877	0.4234
868	0.6914
859	0.8318
850	0.8354
841	0.8391
832	0.6818
823	0.1516
814	0.7621
805	0.7984
796	0.5603
787	0.3582
778	0.5572
769	0.7605
760	0.4634
751	0.8404
742	0.852
733	0.8521
724	0.8596
715	0.8555
706	0.8391
697	0.7975
688	0.7321
679	0.5796
670	0.595
661	0.4946
652	0.4736
643	0.5666
634	0.6601
