Infrared Spectrum: Benzyl alcohol, p-fluoro-Alpha-(trichloromethyl)-
Formula: C8 H6 Cl3 F O
CAS: 394-56-9
State: SOLUTION (10% CCl4 FOR 3800-1330, 10% CS2 FOR 1330-470 CM^-^1) VS SOLVENT
Class: COBLENTZ III
Instrument: DOW KBr FOREPRISM-GRATING
Instrument parameters: BLAZED AT 3.5, 12.0, 20.0 MICRON AND CHANGED AT 5.0, 7.5, 14.9 MICRON
Sampling: TRANSMISSION
Path length: 0.011 CM, 0.011 CM
Resolution: 2
Origin: DOW CHEMICAL COMPANY
1/CM	TRANSMITTANCE
3802	0.8413
3793	0.8413
3784	0.8415
3775	0.8412
3766	0.8403
3757	0.8401
3748	0.8406
3739	0.8416
3730	0.8424
3721	0.8415
3712	0.837
3703	0.8309
3694	0.8278
3685	0.8271
3676	0.8283
3667	0.8297
3658	0.8305
3649	0.8291
3640	0.8225
3631	0.8101
3622	0.7882
3613	0.6782
3604	0.6008
3595	0.4233
3586	0.3459
3577	0.4426
3568	0.6102
3559	0.6883
3550	0.7157
3541	0.7312
3532	0.7401
3523	0.7424
3514	0.7411
3505	0.7376
3496	0.7348
3487	0.7331
3478	0.7339
3469	0.7378
3460	0.7419
3451	0.7464
3442	0.7511
3433	0.7558
3424	0.7606
3415	0.7653
3406	0.7699
3397	0.7736
3388	0.7772
3379	0.781
3370	0.7854
3361	0.7898
3352	0.7942
3343	0.7986
3334	0.8022
3325	0.8051
3316	0.8078
3307	0.8107
3298	0.8134
3289	0.8149
3280	0.8165
3271	0.8181
3262	0.8196
3253	0.8209
3244	0.8221
3235	0.8234
3226	0.8243
3217	0.8251
3208	0.826
3199	0.8271
3190	0.8283
3181	0.8294
3172	0.8309
3163	0.8325
3154	0.8341
3145	0.8338
3136	0.8301
3127	0.8274
3118	0.8295
3109	0.8305
3100	0.8268
3091	0.8198
3082	0.8178
3073	0.8164
3064	0.8098
3055	0.7955
3046	0.8032
3037	0.8254
3028	0.8291
3019	0.8274
3010	0.8318
3001	0.836
2992	0.8374
2983	0.8364
2974	0.8354
2965	0.8341
2956	0.8323
2947	0.8278
2938	0.8211
2929	0.8132
2920	0.8008
2911	0.7838
2902	0.7561
2893	0.7611
2884	0.7998
2875	0.8154
2866	0.8295
2857	0.8335
2848	0.8383
2839	0.843
2830	0.8461
2821	0.8463
2812	0.8439
2803	0.8428
2794	0.8452
2785	0.8468
2776	0.8471
2767	0.8471
2758	0.8474
2749	0.8475
2740	0.8478
2731	0.848
2722	0.8482
2713	0.8484
2704	0.8486
2695	0.8488
2686	0.849
2677	0.8492
2668	0.8494
2659	0.8496
2650	0.8498
2641	0.85
2632	0.8502
2623	0.8504
2614	0.8506
2605	0.8512
2596	0.8466
2587	0.8464
2578	0.8483
2569	0.8495
2560	0.8504
2551	0.8513
2542	0.8525
2533	0.8537
2524	0.855
2515	0.8561
2506	0.8565
2497	0.8566
2488	0.8549
2479	0.8516
2470	0.8494
2461	0.8486
2452	0.8498
2443	0.851
2434	0.8524
2425	0.8537
2416	0.8551
2407	0.8565
2398	0.8578
2389	0.8592
2380	0.8601
2371	0.8609
2362	0.8618
2353	0.8627
2344	0.8635
2335	0.8641
2326	0.8656
2317	0.8675
2308	0.8703
2299	0.8733
2290	0.8752
2281	0.8739
2272	0.8703
2263	0.8728
2254	0.8749
2245	0.8762
2236	0.8777
2227	0.8789
2218	0.88
2209	0.8807
2200	0.8815
2191	0.8823
2182	0.8839
2173	0.8884
2164	0.8877
2155	0.8843
2146	0.8808
2137	0.8802
2128	0.8812
2119	0.8825
2110	0.8842
2101	0.886
2092	0.8867
2083	0.8873
2074	0.8871
2065	0.8844
2056	0.8808
2047	0.8804
2038	0.8818
2029	0.8852
2020	0.8881
2011	0.8915
2002	0.8942
1993	0.8918
1984	0.8866
1975	0.8821
1966	0.8839
1957	0.886
1948	0.888
1939	0.8899
1930	0.8916
1921	0.8821
1912	0.878
1903	0.8249
1894	0.8538
1885	0.8728
1876	0.8801
1867	0.8846
1858	0.8875
1849	0.8901
1840	0.8916
1831	0.8917
1822	0.8906
1813	0.8885
1804	0.8863
1795	0.8787
1786	0.8649
1777	0.8512
1768	0.856
1759	0.8674
1750	0.8701
1741	0.874
1732	0.8711
1723	0.8697
1714	0.8709
1705	0.8693
1696	0.8637
1687	0.8575
1678	0.8631
1669	0.8583
1660	0.8409
1651	0.8328
1642	0.8221
1633	0.8004
1624	0.7578
1615	0.3437
1606	0.3508
1597	0.7389
1588	0.837
1579	0.8618
1570	0.8778
1561	0.8818
1552	0.8835
1543	0.8786
1534	0.8142
1525	0.3984
1516	0.0267
1507	0.4596
1498	0.7487
1489	0.8065
1480	0.8327
1471	0.8474
1462	0.8237
1453	0.8484
1444	0.8538
1435	0.8435
1426	0.7701
1417	0.7828
1408	0.793
1399	0.7022
1390	0.5447
1381	0.5888
1372	0.7374
1363	0.7871
1354	0.8135
1345	0.8143
1336	0.7915
1327	0.7855
1318	0.7621
1309	0.6212
1300	0.5481
1291	0.6918
1282	0.7621
1273	0.7632
1264	0.7337
1255	0.7115
1246	0.522
1237	0.0792
1228	0.0967
1219	0.3862
1210	0.5207
1201	0.6706
1192	0.5054
1183	0.3037
1174	0.5035
1165	0.6395
1156	0.6188
1147	0.7837
1138	0.8118
1129	0.8259
1120	0.8271
1111	0.8015
1102	0.6418
1093	0.7605
1084	0.5428
1075	0.2743
1066	0.4394
1057	0.7158
1048	0.7922
1039	0.8289
1030	0.8465
1021	0.8347
1012	0.7956
1003	0.7892
994	0.7214
985	0.8
976	0.8361
967	0.8471
958	0.8435
949	0.845
940	0.8335
931	0.8393
922	0.8484
913	0.8481
904	0.8473
895	0.842
886	0.8161
877	0.6887
868	0.3582
859	0.6154
850	0.6259
841	0.2149
832	0.0937
823	0.0417
814	0.1094
805	0.1487
796	0.6828
787	0.7814
778	0.8111
769	0.8101
760	0.7796
751	0.6464
742	0.4942
733	0.5572
724	0.7241
715	0.2889
706	0.7551
697	0.7936
688	0.8133
679	0.824
670	0.8256
661	0.784
652	0.4736
643	0.6505
634	0.7921
625	0.2696
616	0.6458
607	0.8089
598	0.829
589	0.8332
580	0.8274
571	0.7578
562	0.1693
553	0.7786
544	0.8245
535	0.8061
526	0.3629
517	0.6768
508	0.8074
499	0.8321
490	0.8418
481	0.8473
472	0.8483
