Infrared Spectrum: 5'-Fluoro-2'-hydroxyacetophenone
Formula: C 8 H 7 F O 2
CAS: 394-32-1
State: gas
Origin: EPA-IR VAPOR PHASE LIBRARY
1/CM	ABSORBANCE
549.8	0.0049
559.445	0.00519
569.09	0.00519
578.734	0.00596
588.379	0.00698
598.024	0.00863
607.669	0.01084
617.313	0.01708
626.958	0.04901
636.603	0.06209
646.248	0.03783
655.893	0.01671
665.537	0.01295
675.182	0.01273
684.827	0.0174
694.472	0.03001
704.116	0.03415
713.761	0.02674
723.406	0.02668
733.051	0.02748
742.695	0.03624
752.34	0.04318
761.985	0.0467
771.63	0.05883
781.275	0.09287
790.919	0.07585
800.564	0.02077
810.209	0.01617
819.854	0.03178
829.498	0.05283
839.143	0.02834
848.788	0.02157
858.433	0.03519
868.078	0.04238
877.722	0.02149
887.367	0.00868
897.012	0.00993
906.657	0.03227
916.301	0.04639
925.946	0.02429
935.591	0.00994
945.236	0.01585
954.88	0.03298
964.525	0.03558
974.17	0.01865
983.815	0.00863
993.46	0.00579
1003.1	0.00499
1012.75	0.00584
1022.39	0.0071
1032.04	0.00591
1041.68	0.00455
1051.33	0.00424
1060.97	0.0048
1070.62	0.00431
1080.26	0.00468
1089.91	0.00442
1099.55	0.00596
1109.2	0.00932
1118.84	0.01232
1128.49	0.01313
1138.13	0.01426
1147.78	0.01723
1157.42	0.02312
1167.07	0.04942
1176.71	0.13593
1186.36	0.19714
1196	0.23014
1205.64	0.21017
1215.29	0.13705
1224.93	0.05711
1234.58	0.05916
1244.22	0.1012
1253.87	0.1183
1263.51	0.07856
1273.16	0.08797
1282.8	0.15165
1292.45	0.1495
1302.09	0.10304
1311.74	0.1326
1321.38	0.14495
1331.03	0.0933
1340.67	0.05444
1350.32	0.05859
1359.96	0.08409
1369.61	0.11229
1379.25	0.1009
1388.9	0.06931
1398.54	0.05946
1408.18	0.06286
1417.83	0.07338
1427.47	0.07489
1437.12	0.05496
1446.76	0.04048
1456.41	0.06492
1466.05	0.13201
1475.7	0.2423
1485.34	0.3088
1494.99	0.22953
1504.63	0.08687
1514.28	0.04212
1523.92	0.02967
1533.57	0.02555
1543.21	0.02542
1552.86	0.02642
1562.5	0.02803
1572.15	0.03685
1581.79	0.05622
1591.44	0.05811
1601.08	0.03763
1610.73	0.03171
1620.37	0.04798
1630.01	0.06438
1639.66	0.07497
1649.3	0.13619
1658.95	0.25945
1668.59	0.23503
1678.24	0.08631
1687.88	0.02906
1697.53	0.01726
1707.17	0.01328
1716.82	0.01352
1726.46	0.01455
1736.11	0.01345
1745.75	0.00992
1755.4	0.00791
1765.04	0.00708
1774.69	0.00588
1784.33	0.00403
1793.98	0.00309
1803.62	0.00277
1813.27	0.00279
1822.91	0.00307
1832.55	0.00289
1842.2	0.00236
1851.84	0.00209
1861.49	0.00246
1871.13	0.00377
1880.78	0.00653
1890.42	0.00711
1900.07	0.00442
1909.71	0.00216
1919.36	0.00166
1929	0.00173
1938.65	0.00222
1948.29	0.00243
1957.94	0.00237
1967.58	0.00219
1977.23	0.00213
1986.87	0.00187
1996.52	0.00194
2006.16	0.00225
2015.81	0.00237
2025.45	0.00241
2035.1	0.00219
2044.74	0.00197
2054.38	0.00209
2064.03	0.00261
2073.67	0.00266
2083.32	0.00191
2092.96	0.00183
2102.61	0.00189
2112.25	0.00152
2121.9	0.00129
2131.54	0.00104
2141.19	0.0009742
2150.83	0.00103
2160.48	0.00107
2170.12	0.00123
2179.77	0.00103
2189.41	0.00103
2199.06	0.0008997
2208.7	0.0008901
2218.35	0.00104
2227.99	0.00126
2237.64	0.00133
2247.28	0.00123
2256.92	0.00143
2266.57	0.00176
2276.21	0.00193
2285.86	0.0019
2295.5	0.00176
2305.15	0.00162
2314.79	0.00162
2324.44	0.00161
2334.08	0.0016
2343.73	0.00172
2353.37	0.00186
2363.02	0.00224
2372.66	0.00251
2382.31	0.00253
2391.95	0.00273
2401.6	0.003
2411.24	0.00271
2420.89	0.0026
2430.53	0.00287
2440.18	0.0028
2449.82	0.00231
2459.47	0.00193
2469.11	0.00194
2478.75	0.00196
2488.4	0.00203
2498.04	0.00212
2507.69	0.00245
2517.33	0.0028
2526.98	0.00328
2536.62	0.00352
2546.27	0.00365
2555.91	0.00429
2565.56	0.00501
2575.2	0.00516
2584.85	0.00456
2594.49	0.004
2604.14	0.00383
2613.78	0.00379
2623.43	0.00385
2633.07	0.00393
2642.72	0.00421
2652.36	0.00489
2662.01	0.00538
2671.65	0.00602
2681.29	0.00644
2690.94	0.00626
2700.58	0.00586
2710.23	0.00563
2719.87	0.00575
2729.52	0.00575
2739.16	0.00572
2748.81	0.00582
2758.45	0.00584
2768.1	0.00622
2777.74	0.00633
2787.39	0.00646
2797.03	0.00623
2806.68	0.00592
2816.32	0.00612
2825.97	0.00646
2835.61	0.00691
2845.26	0.00721
2854.9	0.00698
2864.55	0.00718
2874.19	0.00706
2883.84	0.0071
2893.48	0.00711
2903.12	0.00765
2912.77	0.00812
2922.41	0.00864
2932.06	0.00988
2941.7	0.01093
2951.35	0.01086
2960.99	0.01098
2970.64	0.0121
2980.28	0.01395
2989.93	0.01413
2999.57	0.01479
3009.22	0.01715
3018.86	0.01929
3028.51	0.01962
3038.15	0.02023
3047.8	0.02219
3057.44	0.02488
3067.09	0.02573
3076.73	0.02669
3086.38	0.0281
3096.02	0.02702
3105.67	0.0261
3115.31	0.02633
3124.95	0.02651
3134.6	0.0259
3144.24	0.02535
3153.89	0.0247
3163.53	0.02405
3173.18	0.02406
3182.82	0.02382
3192.47	0.02363
3202.11	0.02345
3211.76	0.02342
3221.4	0.02295
3231.05	0.02237
3240.69	0.02147
3250.34	0.02112
3259.98	0.02048
3269.63	0.02051
3279.27	0.02035
3288.92	0.02024
3298.56	0.01986
3308.21	0.01962
3317.85	0.01947
3327.49	0.01805
3337.14	0.01668
3346.78	0.01523
3356.43	0.01421
3366.07	0.01316
3375.72	0.01234
3385.36	0.01147
3395.01	0.01097
3404.65	0.01039
3414.3	0.00977
3423.94	0.00909
3433.59	0.00848
3443.23	0.00789
3452.88	0.00714
3462.52	0.00656
3472.17	0.00603
3481.81	0.00572
3491.46	0.00507
3501.1	0.00465
3510.75	0.00434
3520.39	0.00402
3530.04	0.00355
3539.68	0.00329
3549.32	0.00296
3558.97	0.00253
3568.61	0.00265
3578.26	0.00235
3587.9	0.00203
3597.55	0.00197
3607.19	0.00164
3616.84	0.00159
3626.48	0.00137
3636.13	0.00155
3645.77	0.00158
3655.42	0.00134
3665.06	0.0009401
3674.71	0.00112
3684.35	0.0007033
3694	0.0008706
3703.64	0.0007547
3713.29	0.00107
3722.93	0.0006974
3732.58	0.0006811
3742.22	0.000728
3751.86	0.0005523
3761.51	0.0006422
3771.15	0.0006545
3780.8	0.0007561
3790.44	0.0005027
3800.09	0.0004955
3809.73	0.0004555
3819.38	0.0003445
3829.02	0.0006592
3838.67	0.0005472
3848.31	0.0004784
3857.96	0.0006718
3867.6	0.0005586
3877.25	0.0006617
3886.89	0.0006962
3896.54	0.000532
3906.18	0.0005847
3915.83	0.0004668
3925.47	0.0006688
3935.12	0.0004991
3944.76	0.0006347
3954.41	0.0006718
3964.05	0.0007864
3973.69	0.0007772
3983.34	0.00101
3992.98	0.0009691
