Infrared Spectrum: Methyl 2-fluorobenzoate
Formula: C 8 H 7 F O 2
CAS: 394-35-4
State: gas
Origin: EPA-IR VAPOR PHASE LIBRARY
1/CM	ABSORBANCE
549.8	0.008022
559.445	0.004872
569.09	0.003062
578.734	0.001452
588.379	0.0008565
598.024	0.0007252
607.669	0.0008332
617.313	0.0010342
626.958	0.0007785
636.603	0.001612
646.248	0.007432
655.893	0.013172
665.537	0.008232
675.182	0.005152
684.827	0.008822
694.472	0.013032
704.116	0.008862
713.761	0.004662
723.406	0.003722
733.051	0.010562
742.695	0.039582
752.34	0.085072
761.985	0.060252
771.63	0.027642
781.275	0.011312
790.919	0.013832
800.564	0.013612
810.209	0.008602
819.854	0.005952
829.498	0.010212
839.143	0.016252
848.788	0.016502
858.433	0.009172
868.078	0.005752
877.722	0.004622
887.367	0.003392
897.012	0.002092
906.657	0.001592
916.301	0.001762
925.946	0.002562
935.591	0.003392
945.236	0.005672
954.88	0.007432
964.525	0.008842
974.17	0.007572
983.815	0.003732
993.46	0.002632
1003.1	0.002932
1012.75	0.004802
1022.39	0.013402
1032.04	0.023182
1041.68	0.018912
1051.33	0.010602
1060.97	0.014732
1070.62	0.034112
1080.26	0.071542
1089.91	0.082242
1099.55	0.051542
1109.2	0.041952
1118.84	0.087542
1128.49	0.107552
1138.13	0.056952
1147.78	0.037722
1157.42	0.042172
1167.07	0.027492
1176.71	0.017442
1186.36	0.021552
1196	0.025582
1205.64	0.025702
1215.29	0.034252
1224.93	0.063202
1234.58	0.102782
1244.22	0.154282
1253.87	0.170042
1263.51	0.114512
1273.16	0.092142
1282.8	0.133152
1292.45	0.220402
1302.09	0.262652
1311.74	0.144552
1321.38	0.037502
1331.03	0.018502
1340.67	0.012002
1350.32	0.010002
1359.96	0.009032
1369.61	0.007972
1379.25	0.007442
1388.9	0.006982
1398.54	0.007072
1408.18	0.008562
1417.83	0.011492
1427.47	0.023352
1437.12	0.045022
1446.76	0.061272
1456.41	0.079382
1466.05	0.066582
1475.7	0.036762
1485.34	0.051522
1494.99	0.052282
1504.63	0.030802
1514.28	0.013862
1523.92	0.007952
1533.57	0.006282
1543.21	0.006542
1552.86	0.008312
1562.5	0.011952
1572.15	0.017252
1581.79	0.022022
1591.44	0.024682
1601.08	0.035872
1610.73	0.052642
1620.37	0.041282
1630.01	0.018702
1639.66	0.009292
1649.3	0.006102
1658.95	0.005052
1668.59	0.005432
1678.24	0.007182
1687.88	0.010002
1697.53	0.014232
1707.17	0.021722
1716.82	0.038582
1726.46	0.080772
1736.11	0.150102
1745.75	0.185122
1755.4	0.157702
1765.04	0.118922
1774.69	0.059272
1784.33	0.032882
1793.98	0.016552
1803.62	0.009282
1813.27	0.006462
1822.91	0.004712
1832.55	0.003732
1842.2	0.003102
1851.84	0.002382
1861.49	0.002082
1871.13	0.002182
1880.78	0.002452
1890.42	0.002632
1900.07	0.003042
1909.71	0.004202
1919.36	0.005712
1929	0.005572
1938.65	0.004522
1948.29	0.003662
1957.94	0.002812
1967.58	0.001792
1977.23	0.001582
1986.87	0.001592
1996.52	0.001612
2006.16	0.001732
2015.81	0.001432
2025.45	0.001732
2035.1	0.002212
2044.74	0.002592
2054.38	0.002542
2064.03	0.002372
2073.67	0.002502
2083.32	0.003102
2092.96	0.003702
2102.61	0.003122
2112.25	0.001932
2121.9	0.001482
2131.54	0.0012826
2141.19	0.0012722
2150.83	0.00127
2160.48	0.0010673
2170.12	0.0009363
2179.77	0.0008646
2189.41	0.0008432
2199.06	0.0008424
2208.7	0.0010917
2218.35	0.0012172
2227.99	0.0011898
2237.64	0.0010128
2247.28	0.0011346
2256.92	0.0011728
2266.57	0.0013226
2276.21	0.001377
2285.86	0.001422
2295.5	0.0011783
2305.15	0.0011878
2314.79	0.0012223
2324.44	0.0011969
2334.08	0.0012272
2343.73	0.0012499
2353.37	0.001018
2363.02	0.0010778
2372.66	0.0010738
2382.31	0.001229
2391.95	0.0013236
2401.6	0.0013566
2411.24	0.0011849
2420.89	0.0011479
2430.53	0.0011483
2440.18	0.0011044
2449.82	0.0012151
2459.47	0.001402
2469.11	0.001462
2478.75	0.0012936
2488.4	0.0011043
2498.04	0.0010364
2507.69	0.0010207
2517.33	0.000943
2526.98	0.0012323
2536.62	0.0013064
2546.27	0.001111
2555.91	0.001066
2565.56	0.000998
2575.2	0.001327
2584.85	0.0012151
2594.49	0.001412
2604.14	0.0010862
2613.78	0.0010104
2623.43	0.0007858
2633.07	0.0006597
2642.72	0.000722
2652.36	0.0006081
2662.01	0.000543
2671.65	0.0005048
2681.29	0.000566
2690.94	0.0005807
2700.58	0.0006728
2710.23	0.00073
2719.87	0.00076
2729.52	0.000818
2739.16	0.0011102
2748.81	0.0009692
2758.45	0.0009259
2768.1	0.0007836
2777.74	0.0007734
2787.39	0.0008701
2797.03	0.0007572
2806.68	0.0008726
2816.32	0.0011507
2825.97	0.001762
2835.61	0.003262
2845.26	0.006502
2854.9	0.006712
2864.55	0.003532
2874.19	0.003022
2883.84	0.003762
2893.48	0.005292
2903.12	0.006412
2912.77	0.007112
2922.41	0.006742
2932.06	0.006522
2941.7	0.009352
2951.35	0.024082
2960.99	0.039512
2970.64	0.027622
2980.28	0.009712
2989.93	0.008722
2999.57	0.010332
3009.22	0.010842
3018.86	0.010462
3028.51	0.010442
3038.15	0.010412
3047.8	0.009912
3057.44	0.009872
3067.09	0.010542
3076.73	0.013372
3086.38	0.015172
3096.02	0.011692
3105.67	0.005862
3115.31	0.003332
3124.95	0.002272
3134.6	0.001602
3144.24	0.001532
3153.89	0.001412
3163.53	0.0012475
3173.18	0.0013073
3182.82	0.0009359
3192.47	0.000987
3202.11	0.0006651
3211.76	0.0006038
3221.4	0.0004892
3231.05	0.0003379
3240.69	0.000222
3250.34	0.0002945
3259.98	0.0002
3269.63	0.00043012
3279.27	0.00043844
3288.92	0.000276
3298.56	0.0003565
3308.21	0.000126
3317.85	0.000158
3327.49	0.000473
3337.14	0.0003692
3346.78	0.0002987
3356.43	0.000558
3366.07	0.0005535
3375.72	0.0005345
3385.36	0.0004868
3395.01	0.0003132
3404.65	0.0003098
3414.3	0.000263
3423.94	0.0006134
3433.59	0.0006749
3443.23	0.0007923
3452.88	0.0012919
3462.52	0.001632
3472.17	0.0012417
3481.81	0.0013252
3491.46	0.001602
3501.1	0.001552
3510.75	0.0011318
3520.39	0.0008283
3530.04	0.0005518
3539.68	0.0003467
3549.32	0.00044987
3558.97	0
3568.61	0.00028
3578.26	0.000383844
3587.9	0.000169
3597.55	0.0002875
3607.19	0.000261
3616.84	0.00043968
3626.48	0.000256
3636.13	0.000219
3645.77	0.0003445
3655.42	0.00041816
3665.06	0.0003349
3674.71	0.000204
3684.35	0.0003716
3694	0.0003245
3703.64	0.000256
3713.29	0.00042441
3722.93	0.000259
3732.58	0.00039594
3742.22	0.000202
3751.86	0.000255
3761.51	0.0003707
3771.15	0.000104
3780.8	0.0003605
3790.44	0.000116
3800.09	0.000154
3809.73	0.00025
3819.38	0.0003036
3829.02	0.00047635
3838.67	0.000162
3848.31	0.00047076
3857.96	0.000194
3867.6	0.00018
3877.25	0.00040909
3886.89	0.00042775
3896.54	0.0006435
3906.18	0.0003757
3915.83	0.0008215
3925.47	0.0007353
3935.12	0.0005405
3944.76	0.00042759
3954.41	0.00037866
3964.05	0.0003327
3973.69	0.0003428
3983.34	0.0004935
3992.98	0.00047433
