Infrared Spectrum: 3-Fluoro-4-nitrophenol
Formula: C 6 H 4 F N O 3
CAS: 394-41-2
State: gas
Origin: EPA-IR VAPOR PHASE LIBRARY
1/CM	ABSORBANCE
549.8	0.004879
559.445	0.005699
569.09	0.007539
578.734	0.010019
588.379	0.010359
598.024	0.010749
607.669	0.024159
617.313	0.049509
626.958	0.039359
636.603	0.011679
646.248	0.007489
655.893	0.006169
665.537	0.007479
675.182	0.008459
684.827	0.006989
694.472	0.004559
704.116	0.003009
713.761	0.002789
723.406	0.005149
733.051	0.010969
742.695	0.017219
752.34	0.013929
761.985	0.007219
771.63	0.003849
781.275	0.003219
790.919	0.004809
800.564	0.008459
810.209	0.014069
819.854	0.017999
829.498	0.037749
839.143	0.067739
848.788	0.050749
858.433	0.032569
868.078	0.017829
877.722	0.009109
887.367	0.005139
897.012	0.003509
906.657	0.003799
916.301	0.003559
925.946	0.004449
935.591	0.006379
945.236	0.008549
954.88	0.016899
964.525	0.045839
974.17	0.049489
983.815	0.019229
993.46	0.004399
1003.1	0.003019
1012.75	0.002499
1022.39	0.003929
1032.04	0.003519
1041.68	0.004399
1051.33	0.004079
1060.97	0.006359
1070.62	0.011909
1080.26	0.042479
1089.91	0.073149
1099.55	0.052609
1109.2	0.017359
1118.84	0.016789
1128.49	0.030759
1138.13	0.068099
1147.78	0.096819
1157.42	0.086299
1167.07	0.069009
1176.71	0.075229
1186.36	0.099269
1196	0.083149
1205.64	0.038619
1215.29	0.023759
1224.93	0.019999
1234.58	0.020729
1244.22	0.039579
1253.87	0.049819
1263.51	0.036159
1273.16	0.030049
1282.8	0.051829
1292.45	0.107209
1302.09	0.142989
1311.74	0.101479
1321.38	0.061799
1331.03	0.071189
1340.67	0.115079
1350.32	0.170399
1359.96	0.132849
1369.61	0.045449
1379.25	0.013589
1388.9	0.009019
1398.54	0.009859
1408.18	0.010369
1417.83	0.010519
1427.47	0.012799
1437.12	0.020819
1446.76	0.032629
1456.41	0.036439
1466.05	0.030549
1475.7	0.030919
1485.34	0.044829
1494.99	0.074109
1504.63	0.079709
1514.28	0.063869
1523.92	0.070429
1533.57	0.103539
1543.21	0.143979
1552.86	0.146849
1562.5	0.109649
1572.15	0.086819
1581.79	0.081199
1591.44	0.110369
1601.08	0.199169
1610.73	0.269869
1620.37	0.192089
1630.01	0.105049
1639.66	0.058939
1649.3	0.033709
1658.95	0.020609
1668.59	0.014849
1678.24	0.010949
1687.88	0.007679
1697.53	0.005949
1707.17	0.005239
1716.82	0.004239
1726.46	0.003199
1736.11	0.002689
1745.75	0.002669
1755.4	0.002919
1765.04	0.003239
1774.69	0.002839
1784.33	0.002259
1793.98	0.001769
1803.62	0.001829
1813.27	0.001749
1822.91	0.001929
1832.55	0.001829
1842.2	0.001469
1851.84	0.001289
1861.49	0.001749
1871.13	0.001969
1880.78	0.002579
1890.42	0.002659
1900.07	0.002259
1909.71	0.002219
1919.36	0.001819
1929	0.001599
1938.65	0.001719
1948.29	0.001309
1957.94	0.001369
1967.58	0.001389
1977.23	0.0011806
1986.87	0.0009376
1996.52	0.000794
2006.16	0.000774
2015.81	0.0007242
2025.45	0.0008851
2035.1	0.000933
2044.74	0.0010115
2054.38	0.0012352
2064.03	0.001469
2073.67	0.0012047
2083.32	0.0006861
2092.96	0.0007878
2102.61	0.000829
2112.25	0.0010414
2121.9	0.0011281
2131.54	0.0011356
2141.19	0.0012049
2150.83	0.0008539
2160.48	0.0009202
2170.12	0.0007633
2179.77	0.0009249
2189.41	0.0007944
2199.06	0.0008292
2208.7	0.0005813
2218.35	0.0010238
2227.99	0.0009883
2237.64	0.0012136
2247.28	0.0012093
2256.92	0.0009131
2266.57	0.0010955
2276.21	0.001419
2285.86	0.001499
2295.5	0.001589
2305.15	0.001469
2314.79	0.001259
2324.44	0.001579
2334.08	0.002089
2343.73	0.002719
2353.37	0.002789
2363.02	0.002329
2372.66	0.002119
2382.31	0.002319
2391.95	0.002239
2401.6	0.002519
2411.24	0.002479
2420.89	0.002509
2430.53	0.002659
2440.18	0.002879
2449.82	0.002709
2459.47	0.002279
2469.11	0.001859
2478.75	0.002099
2488.4	0.002319
2498.04	0.002739
2507.69	0.003039
2517.33	0.002359
2526.98	0.001839
2536.62	0.001439
2546.27	0.001399
2555.91	0.0012129
2565.56	0.001339
2575.2	0.001389
2584.85	0.001509
2594.49	0.001749
2604.14	0.001659
2613.78	0.001929
2623.43	0.002229
2633.07	0.002229
2642.72	0.001999
2652.36	0.001669
2662.01	0.001629
2671.65	0.001329
2681.29	0.001529
2690.94	0.001919
2700.58	0.001919
2710.23	0.001779
2719.87	0.0010627
2729.52	0.0010751
2739.16	0.001449
2748.81	0.001419
2758.45	0.001879
2768.1	0.001849
2777.74	0.001779
2787.39	0.002249
2797.03	0.001849
2806.68	0.002009
2816.32	0.002179
2825.97	0.002179
2835.61	0.001919
2845.26	0.001869
2854.9	0.002399
2864.55	0.002659
2874.19	0.002869
2883.84	0.003189
2893.48	0.003039
2903.12	0.002989
2912.77	0.002739
2922.41	0.002049
2932.06	0.001889
2941.7	0.001749
2951.35	0.001639
2960.99	0.001399
2970.64	0.0011366
2980.28	0.0010808
2989.93	0.0008878
2999.57	0.0007891
3009.22	0.0008751
3018.86	0.0008187
3028.51	0.0012336
3038.15	0.002289
3047.8	0.003179
3057.44	0.002659
3067.09	0.002669
3076.73	0.003319
3086.38	0.003849
3096.02	0.003359
3105.67	0.002139
3115.31	0.001399
3124.95	0.001389
3134.6	0.0010506
3144.24	0.0009101
3153.89	0.000462
3163.53	0.0001681
3173.18	0.000251836
3182.82	0.0004105
3192.47	0.0004493
3202.11	0.0007331
3211.76	0.0009662
3221.4	0.0010176
3231.05	0.0012068
3240.69	0.0012255
3250.34	0.0006629
3259.98	0.0008271
3269.63	0.0009139
3279.27	0.0005015
3288.92	0.0006727
3298.56	0.0011376
3308.21	0.001349
3317.85	0.0009391
3327.49	0.001379
3337.14	0.001399
3346.78	0.001429
3356.43	0.0010571
3366.07	0.0007687
3375.72	0.0006602
3385.36	0.0009209
3395.01	0.000557
3404.65	0.0004856
3414.3	0.000504
3423.94	0.0004871
3433.59	0.0008905
3443.23	0.0004726
3452.88	0.00027484
3462.52	4e-06
3472.17	0.0003974
3481.81	0.0005168
3491.46	0.000431
3501.1	0.0001529
3510.75	0.000122
3520.39	0.0003636
3530.04	0.0003641
3539.68	0.0010145
3549.32	0.0009033
3558.97	0.0009905
3568.61	0.0009366
3578.26	0.0010198
3587.9	0.0010055
3597.55	0.0011366
3607.19	0.001959
3616.84	0.004229
3626.48	0.014689
3636.13	0.057629
3645.77	0.109879
3655.42	0.078229
3665.06	0.012599
3674.71	0.002969
3684.35	0.0011518
3694	0.000842
3703.64	0.0004909
3713.29	0.0002064
3722.93	0.0003334
3732.58	0.0004748
3742.22	0.0004333
3751.86	0.0006739
3761.51	0.0008337
3771.15	0.0005087
3780.8	0.0005896
3790.44	0.0007131
3800.09	0.00027852
3809.73	0.0005573
3819.38	0.0007339
3829.02	0.0005025
3838.67	0.000879
3848.31	0.000157
3857.96	0.0008127
3867.6	0.000824
3877.25	0.0005666
3886.89	0.0008764
3896.54	0.000592
3906.18	0.0008033
3915.83	0.0005073
3925.47	0.0006991
3935.12	0.0007077
3944.76	0.0008984
3954.41	0.0008307
3964.05	0.0006453
3973.69	0.0007012
3983.34	0.001529
3992.98	0.0010095
