Infrared Spectrum: Ethyl 3,4-dimethoxybenzoate
Formula: C 11 H 14 O 4
CAS: 3943-77-9
State: gas
Origin: EPA-IR VAPOR PHASE LIBRARY
1/CM	ABSORBANCE
549.9	0.002649
559.547	0.002474
569.193	0.002435
578.84	0.002418
588.486	0.002507
598.133	0.002738
607.779	0.0029805
617.426	0.0040337
627.072	0.00881
636.719	0.0097
646.365	0.0048
656.012	0.002827
665.658	0.002274
675.305	0.002066
684.951	0.002172
694.598	0.002392
704.245	0.002721
713.891	0.0035656
723.538	0.00544
733.184	0.00837
742.831	0.01218
752.477	0.02165
762.124	0.03148
771.77	0.02346
781.417	0.01064
791.063	0.0063
800.71	0.00598
810.356	0.00707
820.003	0.0082
829.649	0.0078
839.296	0.00661
848.943	0.00557
858.589	0.00616
868.236	0.00758
877.882	0.00799
887.529	0.00758
897.175	0.007
906.822	0.00821
916.468	0.01251
926.115	0.01312
935.761	0.00782
945.408	0.00558
955.054	0.00536
964.701	0.00584
974.347	0.00696
983.994	0.00879
993.64	0.01267
1003.29	0.02124
1012.93	0.03965
1022.58	0.06568
1032.23	0.07989
1041.87	0.05809
1051.52	0.02661
1061.17	0.01541
1070.81	0.0156
1080.46	0.02624
1090.11	0.05752
1099.75	0.09207
1109.4	0.07537
1119.05	0.05939
1128.69	0.06331
1138.34	0.05322
1147.99	0.03318
1157.63	0.03041
1167.28	0.05251
1176.92	0.07347
1186.57	0.05492
1196.22	0.05295
1205.86	0.08856
1215.51	0.13781
1225.16	0.13251
1234.8	0.0916
1244.45	0.0725
1254.1	0.07644
1263.74	0.12123
1273.39	0.17152
1283.04	0.22849
1292.68	0.18723
1302.33	0.09211
1311.98	0.05424
1321.62	0.03484
1331.27	0.02531
1340.92	0.01898
1350.56	0.01428
1360.21	0.01732
1369.86	0.02651
1379.5	0.01654
1389.15	0.01818
1398.79	0.02862
1408.44	0.04557
1418.09	0.04162
1427.73	0.02264
1437.38	0.02128
1447.03	0.02731
1456.67	0.03228
1466.32	0.03653
1475.97	0.03218
1485.61	0.02668
1495.26	0.0404
1504.91	0.07322
1514.55	0.06318
1524.2	0.02813
1533.85	0.01477
1543.49	0.01072
1553.14	0.01015
1562.79	0.01225
1572.43	0.01839
1582.08	0.0254
1591.73	0.03117
1601.37	0.03903
1611.02	0.0265
1620.67	0.01174
1630.31	0.00752
1639.96	0.00633
1649.6	0.0059
1659.25	0.00608
1668.9	0.00641
1678.54	0.00724
1688.19	0.00911
1697.84	0.01128
1707.48	0.01439
1717.13	0.02708
1726.78	0.08154
1736.42	0.15065
1746.07	0.07408
1755.72	0.01915
1765.36	0.01106
1775.01	0.00921
1784.66	0.00763
1794.3	0.00611
1803.95	0.00509
1813.6	0.00441
1823.24	0.0039743
1832.89	0.0036613
1842.54	0.0035971
1852.18	0.0036691
1861.83	0.0037503
1871.47	0.0038868
1881.12	0.0039522
1890.77	0.0038495
1900.41	0.0035699
1910.06	0.0032922
1919.71	0.0030231
1929.35	0.0029693
1939	0.00309902
1948.65	0.0032251
1958.29	0.0033637
1967.94	0.0033823
1977.59	0.0033142
1987.23	0.0032906
1996.88	0.0034872
2006.53	0.0038079
2016.17	0.0043
2025.82	0.00474
2035.47	0.00474
2045.11	0.0045
2054.76	0.00423
2064.41	0.0039569
2074.05	0.0036723
2083.7	0.0033368
2093.35	0.00303738
2102.99	0.002851
2112.64	0.002793
2122.28	0.002806
2131.93	0.002812
2141.58	0.002792
2151.22	0.002646
2160.87	0.002445
2170.52	0.002338
2180.16	0.002303
2189.81	0.00229
2199.46	0.002349
2209.1	0.002405
2218.75	0.002435
2228.4	0.002449
2238.04	0.00237
2247.69	0.002461
2257.34	0.002505
2266.98	0.002578
2276.63	0.002536
2286.28	0.002421
2295.92	0.002335
2305.57	0.002342
2315.22	0.002343
2324.86	0.002225
2334.51	0.002093
2344.16	0.002092
2353.8	0.002046
2363.45	0.00204
2373.09	0.002171
2382.74	0.002191
2392.39	0.002152
2402.03	0.002159
2411.68	0.002155
2421.33	0.002093
2430.97	0.002152
2440.62	0.002116
2450.27	0.002132
2459.91	0.002095
2469.56	0.002117
2479.21	0.002155
2488.85	0.002308
2498.5	0.002377
2508.15	0.002443
2517.79	0.002528
2527.44	0.002591
2537.09	0.002638
2546.73	0.002554
2556.38	0.002602
2566.03	0.002744
2575.67	0.0030197
2585.32	0.0031548
2594.96	0.0031818
2604.61	0.00303666
2614.26	0.002757
2623.9	0.002391
2633.55	0.002193
2643.2	0.002121
2652.84	0.00195
2662.49	0.00189
2672.14	0.00187
2681.78	0.00179
2691.43	0.00171
2701.08	0.00169
2710.72	0.0017
2720.37	0.00168
2730.02	0.00192
2739.66	0.00191
2749.31	0.00195
2758.96	0.002122
2768.6	0.00237
2778.25	0.002482
2787.9	0.00271
2797.54	0.0031692
2807.19	0.00419
2816.84	0.00584
2826.48	0.00877
2836.13	0.01432
2845.77	0.01912
2855.42	0.01511
2865.07	0.01219
2874.71	0.01208
2884.36	0.01335
2894.01	0.01416
2903.65	0.01672
2913.3	0.02086
2922.95	0.02261
2932.59	0.0285
2942.24	0.0421
2951.89	0.04132
2961.53	0.03632
2971.18	0.03401
2980.83	0.03752
2990.47	0.03619
3000.12	0.03199
3009.77	0.03059
3019.41	0.01743
3029.06	0.00957
3038.71	0.00689
3048.35	0.00582
3058	0.00554
3067.64	0.00568
3077.29	0.00645
3086.94	0.0059
3096.58	0.0040079
3106.23	0.002862
3115.88	0.002179
3125.52	0.0016
3135.17	0.00131
3144.82	0.0012
3154.46	0.00099
3164.11	0.00091
3173.76	0.00099
3183.4	0.00074
3193.05	0.00068
3202.7	0.00039
3212.34	0.0005
3221.99	0.00026
3231.64	0.00023
3241.28	0.0002
3250.93	0.00017
3260.58	6e-05
3270.22	0.00024
3279.87	0.00027
3289.52	0.00021
3299.16	0.00024
3308.81	0.00036
3318.45	0.00039
3328.1	0.00053
3337.75	0.00056
3347.39	0.00052
3357.04	0.00046
3366.69	0.00059
3376.33	0.0005
3385.98	0.00056
3395.63	0.00071
3405.27	0.00063
3414.92	0.00065
3424.57	0.00074
3434.21	0.0011
3443.86	0.00153
3453.51	0.00162
3463.15	0.00139
3472.8	0.001
3482.45	0.00095
3492.09	0.00084
3501.74	0.00085
3511.39	0.0009
3521.03	0.00095
3530.68	0.00075
3540.33	0.00087
3549.97	0.00095
3559.62	0.00096
3569.26	0.00106
3578.91	0.00108
3588.56	0.00118
3598.2	0.00112
3607.85	0.00112
3617.5	0.00098
3627.14	0.00108
3636.79	0.00111
3646.44	0.00119
3656.08	0.00124
3665.73	0.00128
3675.38	0.00113
3685.02	0.00128
3694.67	0.00131
3704.32	0.00136
3713.96	0.00135
3723.61	0.00117
3733.26	0.00134
3742.9	0.00126
3752.55	0.00124
3762.2	0.00137
3771.84	0.00126
3781.49	0.00133
3791.13	0.00141
3800.78	0.0015
3810.43	0.00142
3820.07	0.0014
3829.72	0.00131
3839.37	0.00137
3849.01	0.00142
3858.66	0.00143
3868.31	0.00152
3877.95	0.00152
3887.6	0.00156
3897.25	0.0014
3906.89	0.00143
3916.54	0.0014
3926.19	0.00139
3935.83	0.00147
3945.48	0.00153
3955.13	0.0016
3964.77	0.00166
3974.42	0.0016
3984.07	0.00173
3993.71	0.00165
