Infrared Spectrum: 3-Acetylcoumarine
Formula: C 11 H 8 O 3
CAS: 3949-36-8
State: gas
Instrument: HP-GC/MS/IRD
Origin: NIST Mass Spectrometry Data Center
1/CM	ABSORBANCE
550	0.00342
562	0.0024168
574	0.0038304
586	0.002432
598	0.0015656
610	0.0009272
622	0.0014896
634	0.0052592
646	0.0033288
658	0.0005928
670	4.56e-05
682	4.56e-05
694	7.6e-05
706	0.0001976
718	0.0007904
730	0.003192
742	0.0123728
754	0.024396
766	0.0091656
778	0.003116
790	0.0011552
802	0.0005168
814	0.0004712
826	0.000456
838	0.0004104
850	0.0010944
862	0.0010184
874	0.000456
886	0.0006688
898	0.0015048
910	0.0032832
922	0.0067792
934	0.007524
946	0.0152912
958	0.0246848
970	0.0154432
982	0.0069008
994	0.0036176
1006	0.002204
1018	0.0025536
1030	0.0027816
1042	0.0011856
1054	0.0008664
1066	0.000836
1078	0.0015656
1090	0.0049704
1102	0.009348
1114	0.0075392
1126	0.0054872
1138	0.0029184
1150	0.0059128
1162	0.005928
1174	0.0056392
1186	0.0153216
1198	0.049476
1210	0.0445664
1222	0.02508
1234	0.0357048
1246	0.0117496
1258	0.0058368
1270	0.0038304
1282	0.0064144
1294	0.0070376
1306	0.0036328
1318	0.00266
1330	0.0026144
1342	0.00342
1354	0.0095
1366	0.0158384
1378	0.008968
1390	0.003724
1402	0.003116
1414	0.0037392
1426	0.0043928
1438	0.0047728
1450	0.0088464
1462	0.0072808
1474	0.0031616
1486	0.0037848
1498	0.0030704
1510	0.0023864
1522	0.0024472
1534	0.0031464
1546	0.0075088
1558	0.0223592
1570	0.0285152
1582	0.009424
1594	0.0145312
1606	0.0429248
1618	0.0428184
1630	0.0105032
1642	0.00532
1654	0.004788
1666	0.0057152
1678	0.0075544
1690	0.0122512
1702	0.0293816
1714	0.0284544
1726	0.0161728
1738	0.0219944
1750	0.056392
1762	0.148945
1774	0.08626
1786	0.0169936
1798	0.006992
1810	0.0043472
1822	0.0032984
1834	0.0028576
1846	0.0024168
1858	0.002584
1870	0.0024472
1882	0.0023256
1894	0.0025536
1906	0.002964
1918	0.0026296
1930	0.0019152
1942	0.0017328
1954	0.0012312
1966	0.0005016
1978	0.00038
1990	0.0003192
2002	0.0003952
2014	0.0004864
2026	0.000532
2038	0.000608
2050	0.0007144
2062	0.0006232
2074	0.0004864
2086	0.00038
2098	0.0003192
2110	0.0002736
2122	0.000152
2134	0.000152
2146	0.0001976
2158	0.0001824
2170	0.0002432
2182	0.00038
2194	0.0004408
2206	0.0004104
2218	0.0003344
2230	0.0001976
2242	0.0001824
2254	0.0001672
2266	0.000152
2278	0.0001672
2290	7.6e-05
2302	0.0001216
2314	0.000228
2326	0.000304
2338	0.0004408
2350	0.0004712
2362	0.0003648
2374	0.000228
2386	0.0002736
2398	0.0001976
2410	0.0001672
2422	0.0001368
2434	0.0001064
2446	0.0002584
2458	0.0003192
2470	0.0002888
2482	0.0003192
2494	0.0002888
2506	0.0002736
2518	0.0003192
2530	0.0002888
2542	0.0002584
2554	0.0002432
2566	0.0002736
2578	0.000304
2590	0.000228
2602	0.000152
2614	4.56e-05
2626	3.04e-05
2638	7.6e-05
2650	0.0001672
2662	0.0001368
2674	0.0001672
2686	0.000228
2698	0.000152
2710	0.0002888
2722	0.0002736
2734	0.0001824
2746	0.0001064
2758	9.12e-05
2770	0.000152
2782	7.6e-05
2794	1.52e-05
2806	6.08e-05
2818	4.56e-05
2830	4.56e-05
2842	0.0001216
2854	0.000228
2866	0.0003192
2878	0.0002736
2890	0.0002432
2902	0.0002736
2914	0.0002432
2926	0.0004712
2938	0.0009272
2950	0.0007904
2962	0.000684
2974	0.0006688
2986	0.0009424
2998	0.0011552
3010	0.001824
3022	0.001824
3034	0.0015048
3046	0.002052
3058	0.002584
3070	0.0035568
3082	0.0041496
3094	0.002204
3106	0.0010184
3118	0.0005168
3130	0.00038
3142	0.0002888
3154	0.0001216
3166	0.0001976
3178	0.000152
3190	0.0001064
3202	0.000152
3214	0.000228
3226	0.0001672
3238	0.0001824
3250	0
3262	9.12e-05
3274	6.08e-05
3286	9.12e-05
3298	7.6e-05
3310	0.0001064
3322	0.0001672
3334	0.0001672
3346	0.0001368
3358	0.0001976
3370	0.0002432
3382	0.0004864
3394	0.0007448
3406	0.0006536
3418	0.0003952
3430	0.0003192
3442	0.0002584
3454	0.0002584
3466	0.000304
3478	0.0004256
3490	0.0008208
3502	0.0015352
3514	0.0017024
3526	0.0010184
3538	0.0006688
3550	0.0004408
3562	0.0003496
3574	0.0002128
3586	0.0002432
3598	0.0001368
3610	0.0001824
3622	0.0001976
3634	0.0001824
3646	0.0001672
3658	0.0001368
3670	0.0002128
3682	0.000152
3694	0.0002128
3706	0.0001216
3718	0.0001672
3730	0.0001216
3742	0.0002128
3754	0.0002584
3766	0.0001672
3778	0.000228
3790	0.0001672
3802	0.0001824
3814	0.0001672
3826	0.0001672
3838	0.0002128
