Infrared Spectrum: Hexabutylthiophosphoramide
Formula: C 24 H 54 N 3 P S
CAS: 3949-47-1
State: gas
Origin: EPA-IR VAPOR PHASE LIBRARY
1/CM	ABSORBANCE
549.8	0.002437
559.445	0.001377
569.09	0.001016
578.734	0.0007984
588.379	0.000655
598.024	0.000798
607.669	0.001747
617.313	0.003167
626.958	0.004957
636.603	0.003787
646.248	0.002137
655.893	0.001607
665.537	0.002007
675.182	0.002797
684.827	0.003897
694.472	0.006667
704.116	0.010107
713.761	0.014847
723.406	0.022647
733.051	0.024987
742.695	0.020127
752.34	0.018417
761.985	0.015127
771.63	0.011667
781.275	0.008627
790.919	0.005927
800.564	0.004807
810.209	0.003747
819.854	0.002937
829.498	0.002617
839.143	0.002607
848.788	0.003127
858.433	0.004807
868.078	0.006617
877.722	0.007837
887.367	0.008457
897.012	0.014267
906.657	0.021847
916.301	0.034697
925.946	0.035157
935.591	0.019217
945.236	0.011407
954.88	0.008727
964.525	0.008877
974.17	0.009487
983.815	0.010737
993.46	0.010497
1003.1	0.011097
1012.75	0.021047
1022.39	0.037917
1032.04	0.030637
1041.68	0.016847
1051.33	0.014947
1060.97	0.013057
1070.62	0.010627
1080.26	0.011397
1089.91	0.016197
1099.55	0.014397
1109.2	0.011267
1118.84	0.011477
1128.49	0.010207
1138.13	0.013697
1147.78	0.022087
1157.42	0.032327
1167.07	0.028637
1176.71	0.018487
1186.36	0.008897
1196	0.004757
1205.64	0.003607
1215.29	0.004367
1224.93	0.007047
1234.58	0.007577
1244.22	0.007877
1253.87	0.007947
1263.51	0.006267
1273.16	0.005537
1282.8	0.004287
1292.45	0.003837
1302.09	0.004697
1311.74	0.004327
1321.38	0.003897
1331.03	0.004847
1340.67	0.006817
1350.32	0.006457
1359.96	0.007567
1369.61	0.009877
1379.25	0.011367
1388.9	0.007727
1398.54	0.004327
1408.18	0.003577
1417.83	0.003587
1427.47	0.004187
1437.12	0.006207
1446.76	0.009007
1456.41	0.013587
1466.05	0.017197
1475.7	0.010197
1485.34	0.004617
1494.99	0.003067
1504.63	0.002417
1514.28	0.001987
1523.92	0.001757
1533.57	0.001467
1543.21	0.001267
1552.86	0.0011774
1562.5	0.0010463
1572.15	0.0009203
1581.79	0.0008534
1591.44	0.0008739
1601.08	0.00083
1610.73	0.0008327
1620.37	0.0008257
1630.01	0.0008369
1639.66	0.0007153
1649.3	0.0007537
1658.95	0.0007607
1668.59	0.0006993
1678.24	0.0007563
1687.88	0.0006487
1697.53	0.0006582
1707.17	0.0006114
1716.82	0.0005633
1726.46	0.0005612
1736.11	0.0005274
1745.75	0.0005046
1755.4	0.0005435
1765.04	0.000556
1774.69	0.0004778
1784.33	0.0004948
1793.98	0.0004577
1803.62	0.0004671
1813.27	0.0004488
1822.91	0.0004102
1832.55	0.0004418
1842.2	0.000422
1851.84	0.0003834
1861.49	0.0004329
1871.13	0.0003236
1880.78	0.0004104
1890.42	0.0004194
1900.07	0.0004455
1909.71	0.0003491
1919.36	0.0003866
1929	0.0004511
1938.65	0.0003838
1948.29	0.00039
1957.94	0.0003374
1967.58	0.0003556
1977.23	0.0003623
1986.87	0.0003717
1996.52	0.0004197
2006.16	0.0003654
2015.81	0.0004384
2025.45	0.0004829
2035.1	0.0005252
2044.74	0.0005289
2054.38	0.0005779
2064.03	0.0004836
2073.67	0.0005789
2083.32	0.0004927
2092.96	0.0005115
2102.61	0.0005524
2112.25	0.0005087
2121.9	0.000516
2131.54	0.0004841
2141.19	0.0004059
2150.83	0.0005371
2160.48	0.0005864
2170.12	0.0005303
2179.77	0.0005622
2189.41	0.0005135
2199.06	0.0005065
2208.7	0.0004907
2218.35	0.0005258
2227.99	0.0004675
2237.64	0.0005392
2247.28	0.0005655
2256.92	0.0006158
2266.57	0.0005006
2276.21	0.0005349
2285.86	0.0004482
2295.5	0.0004834
2305.15	0.0004161
2314.79	0.0004144
2324.44	0.0005165
2334.08	0.0004429
2343.73	0.0005328
2353.37	0.0005688
2363.02	0.0003952
2372.66	0.0005127
2382.31	0.0005073
2391.95	0.0005255
2401.6	0.0005747
2411.24	0.0005502
2420.89	0.0003931
2430.53	0.0004721
2440.18	0.0004323
2449.82	0.0003884
2459.47	0.0004339
2469.11	0.0004022
2478.75	0.00030853
2488.4	0.0003328
2498.04	0.0004403
2507.69	0.0004746
2517.33	0.0005164
2526.98	0.000458
2536.62	0.0005802
2546.27	0.0005562
2555.91	0.0005703
2565.56	0.0006608
2575.2	0.0007187
2584.85	0.000745
2594.49	0.0008578
2604.14	0.000861
2613.78	0.0010058
2623.43	0.0010292
2633.07	0.0011452
2642.72	0.001227
2652.36	0.0011823
2662.01	0.001437
2671.65	0.001587
2681.29	0.001667
2690.94	0.001887
2700.58	0.001937
2710.23	0.002177
2719.87	0.002487
2729.52	0.002607
2739.16	0.002837
2748.81	0.002807
2758.45	0.002707
2768.1	0.002737
2777.74	0.002877
2787.39	0.003367
2797.03	0.004117
2806.68	0.004837
2816.32	0.006157
2825.97	0.007907
2835.61	0.011287
2845.26	0.016597
2854.9	0.024667
2864.55	0.040517
2874.19	0.047407
2883.84	0.048127
2893.48	0.035247
2903.12	0.035837
2912.77	0.041397
2922.41	0.048637
2932.06	0.064847
2941.7	0.079407
2951.35	0.062797
2960.99	0.082667
2970.64	0.094327
2980.28	0.036997
2989.93	0.019847
2999.57	0.012967
3009.22	0.009257
3018.86	0.007067
3028.51	0.005497
3038.15	0.004527
3047.8	0.003537
3057.44	0.002827
3067.09	0.002507
3076.73	0.002237
3086.38	0.001977
3096.02	0.002007
3105.67	0.001707
3115.31	0.001627
3124.95	0.001527
3134.6	0.001337
3144.24	0.001377
3153.89	0.0011343
3163.53	0.0008646
3173.18	0.0010069
3182.82	0.0008708
3192.47	0.0007039
3202.11	0.0006685
3211.76	0.0006188
3221.4	0.0006348
3231.05	0.0004054
3240.69	0.0005173
3250.34	0.0003863
3259.98	0.0001918
3269.63	0.0004225
3279.27	0.0003568
3288.92	0.000217313
3298.56	0.00029722
3308.21	0.0004727
3317.85	0.0003238
3327.49	0.0003603
3337.14	0.0002276
3346.78	0.000186
3356.43	0.0003437
3366.07	0.0004622
3375.72	0.0003604
3385.36	0.00027504
3395.01	0.0003565
3404.65	0.0003454
3414.3	0.00026522
3423.94	8.5e-05
3433.59	0.0002638
3443.23	0.00023944
3452.88	0.0001457
3462.52	8.6e-05
3472.17	0.000109
3481.81	0.0001659
3491.46	0.0001904
3501.1	0.0001714
3510.75	0.000189
3520.39	0.0003312
3530.04	0.00011
3539.68	0.0001942
3549.32	0.00025361
3558.97	0.000101
3568.61	0.00024123
3578.26	0.0001192
3587.9	0.0001326
3597.55	8.7e-05
3607.19	0.0001212
3616.84	0.00024647
3626.48	0.0004292
3636.13	0.00023951
3645.77	0.0001816
3655.42	0.00023147
3665.06	0.00029908
3674.71	0.00023091
3684.35	0.0001739
3694	0.0004103
3703.64	0.00027505
3713.29	0.00029284
3722.93	0.00029095
3732.58	0.00024063
3742.22	0.0003764
3751.86	0.000417
3761.51	0.0003072
3771.15	0.00029666
3780.8	0.0005276
3790.44	0.0003947
3800.09	0.0005573
3809.73	0.0004374
3819.38	0.00031524
3829.02	0.000318
3838.67	0.0003405
3848.31	0.0005156
3857.96	0.0004701
3867.6	0.0003612
3877.25	0.0003632
3886.89	0.00030648
3896.54	0.000218165
3906.18	0.0005115
3915.83	0.00021137
3925.47	0.0003776
3935.12	0.0003278
3944.76	0.0003736
3954.41	0.0004371
3964.05	0.0002679
3973.69	0.0003805
3983.34	0.0006925
3992.98	0.0006078
