Infrared Spectrum: 2-(Trifluoromethyl)benzyl bromide
Formula: C 8 H 6 Br F 3
CAS: 395-44-8
State: gas
Origin: EPA-IR VAPOR PHASE LIBRARY
1/CM	ABSORBANCE
549.8	0.002988
559.445	0.005228
569.09	0.005348
578.734	0.003858
588.379	0.004468
598.024	0.007188
607.669	0.011008
617.313	0.021988
626.958	0.024128
636.603	0.014268
646.248	0.017568
655.893	0.023088
665.537	0.012928
675.182	0.008518
684.827	0.005628
694.472	0.004418
704.116	0.003718
713.761	0.003318
723.406	0.003018
733.051	0.004738
742.695	0.010538
752.34	0.030878
761.985	0.068588
771.63	0.030768
781.275	0.005878
790.919	0.003078
800.564	0.002488
810.209	0.003298
819.854	0.005858
829.498	0.005998
839.143	0.003578
848.788	0.003068
858.433	0.002898
868.078	0.004808
877.722	0.003918
887.367	0.002598
897.012	0.002038
906.657	0.0017666
916.301	0.0014662
925.946	0.000806
935.591	0.002208
945.236	0.004268
954.88	0.005208
964.525	0.003148
974.17	0.002298
983.815	0.002538
993.46	0.003378
1003.1	0.003158
1012.75	0.004808
1022.39	0.012348
1032.04	0.051188
1041.68	0.062598
1051.33	0.032668
1060.97	0.045588
1070.62	0.023288
1080.26	0.011228
1089.91	0.019468
1099.55	0.036758
1109.2	0.040858
1118.84	0.060018
1128.49	0.155798
1138.13	0.283128
1147.78	0.202808
1157.42	0.090858
1167.07	0.080128
1176.71	0.132008
1186.36	0.113048
1196	0.045418
1205.64	0.027158
1215.29	0.028888
1224.93	0.033018
1234.58	0.023888
1244.22	0.016298
1253.87	0.014198
1263.51	0.015118
1273.16	0.023148
1282.8	0.054858
1292.45	0.119898
1302.09	0.137688
1311.74	0.225588
1321.38	0.177548
1331.03	0.035678
1340.67	0.012678
1350.32	0.008848
1359.96	0.007658
1369.61	0.005508
1379.25	0.004088
1388.9	0.003508
1398.54	0.003508
1408.18	0.004048
1417.83	0.004128
1427.47	0.005448
1437.12	0.006868
1446.76	0.012098
1456.41	0.018018
1466.05	0.009718
1475.7	0.005648
1485.34	0.006648
1494.99	0.008268
1504.63	0.005118
1514.28	0.002918
1523.92	0.002428
1533.57	0.002428
1543.21	0.0018147
1552.86	0.0019282
1562.5	0.002048
1572.15	0.004038
1581.79	0.006978
1591.44	0.006548
1601.08	0.008038
1610.73	0.007988
1620.37	0.005208
1630.01	0.004698
1639.66	0.004478
1649.3	0.003398
1658.95	0.002258
1668.59	0.0016299
1678.24	0.0012996
1687.88	0.0015991
1697.53	0.0017844
1707.17	0.002488
1716.82	0.002598
1726.46	0.002148
1736.11	0.001948
1745.75	0.0019157
1755.4	0.0018495
1765.04	0.0016924
1774.69	0.001303
1784.33	0.0015156
1793.98	0.0017114
1803.62	0.002068
1813.27	0.002608
1822.91	0.003118
1832.55	0.002518
1842.2	0.002088
1851.84	0.002028
1861.49	0.002008
1871.13	0.0016749
1880.78	0.001988
1890.42	0.002008
1900.07	0.002148
1909.71	0.002048
1919.36	0.002208
1929	0.003288
1938.65	0.003168
1948.29	0.002148
1957.94	0.002638
1967.58	0.002658
1977.23	0.0017354
1986.87	0.0014571
1996.52	0.0013172
2006.16	0.0013335
2015.81	0.0012448
2025.45	0.0012936
2035.1	0.0013906
2044.74	0.0012837
2054.38	0.0013349
2064.03	0.001603
2073.67	0.0013781
2083.32	0.0010973
2092.96	0.0011499
2102.61	0.0012129
2112.25	0.0011382
2121.9	0.0013168
2131.54	0.0012967
2141.19	0.00126
2150.83	0.0013228
2160.48	0.0012136
2170.12	0.0014403
2179.77	0.0017629
2189.41	0.0014822
2199.06	0.0014723
2208.7	0.0016936
2218.35	0.0014973
2227.99	0.0018273
2237.64	0.002078
2247.28	0.0018982
2256.92	0.002008
2266.57	0.002028
2276.21	0.0018315
2285.86	0.0017401
2295.5	0.001684
2305.15	0.0017002
2314.79	0.0018902
2324.44	0.002198
2334.08	0.002228
2343.73	0.0017528
2353.37	0.0013279
2363.02	0.00163
2372.66	0.0013816
2382.31	0.0015081
2391.95	0.0016048
2401.6	0.0013825
2411.24	0.001285
2420.89	0.00101427
2430.53	0.0017007
2440.18	0.0013008
2449.82	0.0015969
2459.47	0.0013923
2469.11	0.0014967
2478.75	0.0014707
2488.4	0.0009041
2498.04	0.00101896
2507.69	0.0011036
2517.33	0.0012692
2526.98	0.0012521
2536.62	0.0010937
2546.27	0.0013268
2555.91	0.0010649
2565.56	0.0011107
2575.2	0.0009161
2584.85	0.0012211
2594.49	0.0014025
2604.14	0.0019003
2613.78	0.0014759
2623.43	0.0015083
2633.07	0.0013925
2642.72	0.0012657
2652.36	0.000941169
2662.01	0.001258
2671.65	0.0013239
2681.29	0.0012454
2690.94	0.0010418
2700.58	0.000839
2710.23	0.0012672
2719.87	0.0008
2729.52	0.000655
2739.16	0.000765
2748.81	0.0008515
2758.45	0.00102432
2768.1	0.0012499
2777.74	0.0014147
2787.39	0.0011922
2797.03	0.0012106
2806.68	0.0011975
2816.32	0.0013408
2825.97	0.0013715
2835.61	0.0010879
2845.26	0.0013028
2854.9	0.0014084
2864.55	0.0015341
2874.19	0.0015784
2883.84	0.0013888
2893.48	0.0018418
2903.12	0.002038
2912.77	0.0017428
2922.41	0.0017643
2932.06	0.0015966
2941.7	0.001424
2951.35	0.001513
2960.99	0.0015804
2970.64	0.0016629
2980.28	0.003168
2989.93	0.004438
2999.57	0.005118
3009.22	0.003268
3018.86	0.003008
3028.51	0.003228
3038.15	0.005868
3047.8	0.006658
3057.44	0.006468
3067.09	0.008548
3076.73	0.012678
3086.38	0.012278
3096.02	0.007288
3105.67	0.003698
3115.31	0.002718
3124.95	0.002738
3134.6	0.001998
3144.24	0.00099737
3153.89	0.0013153
3163.53	0.002108
3173.18	0.0012051
3182.82	0.0012199
3192.47	0.0014127
3202.11	0.00101893
3211.76	0.000699
3221.4	0.001264
3231.05	0.0011685
3240.69	0.000377
3250.34	0.0014142
3259.98	0.0008698
3269.63	0.0011599
3279.27	0.0011452
3288.92	0.0014936
3298.56	0.0013239
3308.21	0.0014512
3317.85	0.00097605
3327.49	0.0011751
3337.14	0.0015217
3346.78	0.00101999
3356.43	0.0011874
3366.07	0.001345
3375.72	0.0012638
3385.36	0.0010932
3395.01	0.0008423
3404.65	0.0014059
3414.3	0.0011467
3423.94	0.0010973
3433.59	0.0012754
3443.23	0.0013089
3452.88	0.0014419
3462.52	0.00101347
3472.17	0.000829
3481.81	0.000465
3491.46	0.000813
3501.1	0.0014076
3510.75	0.000698
3520.39	0.000717
3530.04	0.001138
3539.68	0.00074
3549.32	0.0011548
3558.97	0.000771
3568.61	0.00094103
3578.26	0.0018084
3587.9	0.00093109
3597.55	0.0009181
3607.19	0.0013004
3616.84	0.000685
3626.48	0.0010884
3636.13	0.0014509
3645.77	0.0008514
3655.42	0.0013081
3665.06	0.000848
3674.71	0.0008763
3684.35	0.0015642
3694	0.0014439
3703.64	0.0009313
3713.29	0.000702
3722.93	0.0010999
3732.58	0.0012685
3742.22	0.0011752
3751.86	0.00099481
3761.51	0.0011886
3771.15	0.0012576
3780.8	0.0011885
3790.44	0.0010872
3800.09	0.000789
3809.73	0.0008542
3819.38	0.0011481
3829.02	0.0011151
3838.67	0.000744
3848.31	0.0015668
3857.96	0.00097294
3867.6	0
3877.25	0.0008876
3886.89	0.001447
3896.54	0.0017238
3906.18	0.0012289
3915.83	0.0015197
3925.47	0.000801
3935.12	0.0012688
3944.76	0.0014843
3954.41	0.0012889
3964.05	0.0012355
3973.69	0.00097239
3983.34	0.0008927
3992.98	0.0014229
