Infrared Spectrum: Benzhydrol, 4-trifluoromethyl-,
Formula: C14 H11 F3 O
CAS: 395-23-3
State: SOLID (SPLIT MULL), FLUOROLUBE FOR 3800-1330 CM^-^1, NUJOL FOR 1330-400 CM^-^1
Class: COBLENTZ II
Instrument: DOW KBr FOREPRISM-GRATING
Instrument parameters: BLAZED AT 3.5, 12.0, 20.0 MICRON AND CHANGED AT 5.0, 7.5, 14.9 MICRON
Sampling: TRANSMISSION
Resolution: 2
Origin: DOW CHEMICAL COMPANY
1/CM	TRANSMITTANCE
403	0.6948
412	0.7043
421	0.7791
430	0.7911
439	0.7925
448	0.7861
457	0.7426
466	0.7978
475	0.8144
484	0.8261
493	0.8328
502	0.8323
511	0.8288
520	0.8238
529	0.8098
538	0.7645
547	0.8133
556	0.8118
565	0.7996
574	0.7822
583	0.7621
592	0.7356
601	0.6989
610	0.6675
619	0.5709
628	0.6624
637	0.6975
646	0.8294
655	0.8334
664	0.7645
673	0.7336
682	0.7997
691	0.5991
700	0.6152
709	0.8058
718	0.7751
727	0.194
736	0.648
745	0.7939
754	0.8288
763	0.8035
772	0.831
781	0.8441
790	0.8341
799	0.8007
808	0.6906
817	0.4341
826	0.8071
835	0.7786
844	0.4869
853	0.7712
862	0.4697
871	0.8248
880	0.829
889	0.8285
898	0.8243
907	0.8118
916	0.7353
925	0.8128
934	0.8137
943	0.8032
952	0.7982
961	0.7878
970	0.7851
979	0.7268
988	0.6225
997	0.6039
1006	0.3171
1015	0.3378
1024	0.4929
1033	0.7128
1042	0.6865
1051	0.4665
1060	0.3252
1069	0.565
1078	0.5531
1087	0.4471
1096	0.1144
1105	0.1553
1114	0.0549
1123	0.2383
1132	0.4385
1141	0.342
1150	0.3015
1159	0.3113
1168	0.4955
1177	0.5802
1186	0.5898
1195	0.7162
1204	0.7251
1213	0.7143
1222	0.6633
1231	0.6448
1240	0.6128
1249	0.5876
1258	0.5706
1267	0.6584
1276	0.6526
1285	0.6506
1294	0.5192
1303	0.4572
1312	0.1584
1321	0.1567
1330	0.4873
1339	0.6242
1348	0.6294
1357	0.6594
1366	0.6878
1375	0.6837
1384	0.6256
1393	0.6749
1402	0.5819
1411	0.4104
1420	0.7307
1429	0.7521
1438	0.4427
1447	0.6882
1456	0.7883
1465	0.8075
1474	0.7984
1483	0.5033
1492	0.8144
1501	0.8311
1510	0.8374
1519	0.8407
1528	0.839
1537	0.8386
1546	0.8451
1555	0.8456
1564	0.8299
1573	0.8117
1582	0.8147
1591	0.7174
1600	0.8074
1609	0.6808
1618	0.8464
1627	0.8457
1636	0.8391
1645	0.8308
1654	0.8278
1663	0.8365
1672	0.8401
1681	0.8275
1690	0.8252
1699	0.8289
1708	0.8366
1717	0.8375
1726	0.8374
1735	0.8428
1744	0.8428
1753	0.8364
1762	0.8425
1771	0.8457
1780	0.8442
1789	0.8382
1798	0.8212
1807	0.8414
1816	0.849
1825	0.8523
1834	0.8548
1843	0.8543
1852	0.852
1861	0.8495
1870	0.8464
1879	0.8351
1888	0.841
1897	0.8388
1906	0.8368
1915	0.7949
1924	0.8428
1933	0.8397
1942	0.8357
1951	0.8421
1960	0.8377
1969	0.8477
1978	0.8402
1987	0.8445
1996	0.8438
2005	0.8439
2014	0.8464
2023	0.8503
2032	0.8496
2041	0.8487
2050	0.8478
2059	0.8468
2068	0.846
2077	0.8457
2086	0.8421
2095	0.8394
2104	0.8408
2113	0.8425
2122	0.8432
2131	0.8392
2140	0.8371
2149	0.837
2158	0.8371
2167	0.8327
2176	0.8298
2185	0.8284
2194	0.8285
2203	0.8288
2212	0.827
2221	0.8241
2230	0.8195
2239	0.8153
2248	0.8134
2257	0.8126
2266	0.8111
2275	0.8093
2284	0.8074
2293	0.8053
2302	0.8055
2311	0.8122
2320	0.8168
2329	0.8168
2338	0.8165
2347	0.8154
2356	0.8165
2365	0.8178
2374	0.8202
2383	0.8214
2392	0.821
2401	0.8201
2410	0.8191
2419	0.8183
2428	0.8194
2437	0.8216
2446	0.8214
2455	0.8201
2464	0.8185
2473	0.8176
2482	0.8175
2491	0.8187
2500	0.8212
2509	0.8221
2518	0.8223
2527	0.8247
2536	0.8263
2545	0.8264
2554	0.8261
2563	0.8225
2572	0.8187
2581	0.8175
2590	0.8168
2599	0.8171
2608	0.8174
2617	0.8134
2626	0.805
2635	0.7983
2644	0.8012
2653	0.8065
2662	0.8101
2671	0.8115
2680	0.814
2689	0.8168
2698	0.8183
2707	0.8197
2716	0.82
2725	0.819
2734	0.8168
2743	0.8155
2752	0.8149
2761	0.8131
2770	0.8099
2779	0.8045
2788	0.7994
2797	0.7957
2806	0.7943
2815	0.7932
2824	0.7922
2833	0.7903
2842	0.7888
2851	0.7892
2860	0.7896
2869	0.7903
2878	0.7906
2887	0.7898
2896	0.7801
2905	0.7822
2914	0.7862
2923	0.7878
2932	0.7876
2941	0.7878
2950	0.7928
2959	0.7965
2968	0.7951
2977	0.7914
2986	0.7878
2995	0.7858
3004	0.7833
3013	0.7753
3022	0.7625
3031	0.7148
3040	0.7524
3049	0.7507
3058	0.7392
3067	0.7003
3076	0.738
3085	0.7442
3094	0.7491
3103	0.7565
3112	0.758
3121	0.7574
3130	0.7549
3139	0.7475
3148	0.7381
3157	0.7234
3166	0.7085
3175	0.6917
3184	0.6767
3193	0.6575
3202	0.6348
3211	0.6079
3220	0.5821
3229	0.555
3238	0.5245
3247	0.4925
3256	0.4626
3265	0.4383
3274	0.4166
3283	0.3952
3292	0.3764
3301	0.3622
3310	0.3575
3319	0.3586
3328	0.3657
3337	0.3739
3346	0.3807
3355	0.3802
3364	0.3766
3373	0.3694
3382	0.3676
3391	0.387
3400	0.4151
3409	0.4455
3418	0.5003
3427	0.5436
3436	0.6062
3445	0.6393
3454	0.6672
3463	0.6932
3472	0.7145
3481	0.731
3490	0.7454
3499	0.7578
3508	0.7678
3517	0.7762
3526	0.7826
3535	0.7868
3544	0.7904
3553	0.794
3562	0.7971
3571	0.7997
3580	0.8007
3589	0.7983
3598	0.8012
3607	0.8064
3616	0.8061
3625	0.8031
3634	0.7978
3643	0.7953
3652	0.8015
3661	0.8026
3670	0.8024
3679	0.7988
3688	0.7932
3697	0.7941
3706	0.7946
3715	0.795
3724	0.7956
3733	0.7961
3742	0.7951
3751	0.7938
3760	0.7925
3769	0.7918
3778	0.7921
3787	0.7932
3796	0.7937
3805	0.7939
