Infrared Spectrum: NONADECANEDIOL-1,2
Formula: C19 H40 O2
CAS: 39516-65-9
State: SOLID (KBr PELLET)
Melting point: 80-82 C
Class: COBLENTZ
Instrument: PERKIN-ELMER
Sampling: TRANSMISSION
Resolution: 4
Origin: HORMEL INSTITUTE
MICROMETERS	TRANSMITTANCE
2.034	0.878
2.06782	0.876
2.10164	0.873
2.13546	0.874
2.16928	0.881
2.20309	0.881
2.23691	0.884
2.27073	0.878
2.30455	0.844
2.33837	0.854
2.37219	0.852
2.40601	0.852
2.43983	0.854
2.47364	0.859
2.50746	0.861
2.54128	0.866
2.5751	0.869
2.60892	0.871
2.64274	0.871
2.67656	0.871
2.71038	0.866
2.74419	0.849
2.77801	0.78
2.81183	0.68
2.84565	0.521
2.87947	0.379
2.91329	0.28
2.94711	0.243
2.98093	0.248
3.01474	0.289
3.04856	0.358
3.08238	0.429
3.1162	0.5
3.15002	0.587
3.18384	0.654
3.21766	0.71
3.25148	0.737
3.28529	0.744
3.31911	0.727
3.35293	0.49
3.38675	0.162
3.42057	0.035
3.45439	0.159
3.48821	0.108
3.52203	0.423
3.55584	0.631
3.58966	0.73
3.62348	0.768
3.6573	0.788
3.69112	0.805
3.72494	0.818
3.75876	0.82
3.79258	0.827
3.82639	0.832
3.86021	0.851
3.89403	0.861
3.92785	0.871
3.96167	0.874
3.99549	0.879
4.02931	0.883
4.06313	0.888
4.09694	0.893
4.13076	0.895
4.16458	0.9
4.1984	0.901
4.23222	0.903
4.26604	0.903
4.29986	0.9
4.33368	0.898
4.3675	0.9
4.40131	0.903
4.43513	0.905
4.46895	0.908
4.50277	0.91
4.53659	0.912
4.57041	0.912
4.60423	0.912
4.63805	0.908
4.67186	0.91
4.70568	0.912
4.7395	0.912
4.77332	0.908
4.80714	0.91
4.84096	0.905
4.87478	0.903
4.9086	0.903
4.94241	0.901
4.97623	0.903
5.01005	0.91
5.04387	0.91
5.07769	0.912
5.11151	0.91
5.14533	0.91
5.17915	0.91
5.21296	0.91
5.24678	0.908
5.2806	0.912
5.31442	0.913
5.34824	0.915
5.38206	0.915
5.41588	0.917
5.4497	0.915
5.48351	0.915
5.51733	0.913
5.55115	0.913
5.58497	0.915
5.61879	0.915
5.65261	0.915
5.68643	0.913
5.72025	0.915
5.75406	0.915
5.78788	0.913
5.8217	0.915
5.85552	0.913
5.88934	0.912
5.92316	0.908
5.95698	0.901
5.9908	0.895
6.02461	0.883
6.05843	0.861
6.09225	0.854
6.12607	0.849
6.15989	0.854
6.19371	0.862
6.22753	0.874
6.26135	0.883
6.29516	0.888
6.32898	0.89
6.3628	0.89
6.39662	0.89
6.43044	0.888
6.46426	0.888
6.49808	0.884
6.5319	0.881
6.56572	0.874
6.59953	0.864
6.63335	0.842
6.66717	0.825
6.70099	0.793
6.73481	0.722
6.76863	0.341
6.80245	0.304
6.83627	0.504
6.87008	0.624
6.9039	0.685
6.93772	0.702
6.97154	0.702
7.00536	0.703
7.03918	0.703
7.073	0.703
7.10682	0.708
7.14063	0.72
7.17445	0.73
7.20827	0.71
7.24209	0.686
7.27591	0.727
7.30973	0.739
7.34355	0.722
7.37737	0.712
7.41118	0.719
7.445	0.725
7.47882	0.725
7.51264	0.727
7.54646	0.727
7.58028	0.73
7.6141	0.737
7.64792	0.741
7.68173	0.744
7.71555	0.746
7.74937	0.744
7.78319	0.756
7.81701	0.759
7.85083	0.759
7.88465	0.766
7.91847	0.749
7.95228	0.761
7.9861	0.768
8.01992	0.763
8.05374	0.766
8.08756	0.766
8.12138	0.763
8.1552	0.761
8.18902	0.758
8.22283	0.759
8.25665	0.763
8.29047	0.759
8.32429	0.759
8.35811	0.773
8.39193	0.773
8.42575	0.773
8.45957	0.781
8.49338	0.793
8.5272	0.802
8.56102	0.802
8.59484	0.803
8.62866	0.8
8.66248	0.79
8.6963	0.764
8.73012	0.705
8.76394	0.646
8.79775	0.609
8.83157	0.617
8.86539	0.644
8.89921	0.646
8.93303	0.614
8.96685	0.595
9.00067	0.617
9.03449	0.644
9.0683	0.627
9.10212	0.517
9.13594	0.426
9.16976	0.404
9.20358	0.407
9.2374	0.412
9.27122	0.387
9.30504	0.348
9.33885	0.36
9.37267	0.411
9.40649	0.446
9.44031	0.461
9.47413	0.482
9.50795	0.527
9.54177	0.548
9.57559	0.544
9.6094	0.546
9.64322	0.556
9.67704	0.575
9.71086	0.607
9.74468	0.615
9.7785	0.629
9.81232	0.636
9.84614	0.627
9.87995	0.624
9.91377	0.651
9.94759	0.68
9.98141	0.692
10.0152	0.703
10.049	0.717
10.0829	0.72
10.1167	0.722
10.1505	0.722
10.1843	0.729
10.2181	0.736
10.252	0.741
10.2858	0.739
10.3196	0.737
10.3534	0.742
10.3872	0.771
10.4211	0.798
10.4549	0.812
10.4887	0.817
10.5225	0.818
10.5563	0.818
10.5901	0.813
10.624	0.813
10.6578	0.815
10.6916	0.818
10.7254	0.817
10.7592	0.817
10.7931	0.815
10.8269	0.813
10.8607	0.817
10.8945	0.817
10.9283	0.815
10.9622	0.813
10.996	0.812
11.0298	0.813
11.0636	0.822
11.0974	0.829
11.1312	0.83
11.1651	0.827
11.1989	0.815
11.2327	0.791
11.2665	0.768
11.3003	0.742
11.3342	0.712
11.368	0.683
11.4018	0.688
11.4356	0.72
11.4694	0.741
11.5033	0.729
11.5371	0.678
11.5709	0.646
11.6047	0.651
11.6385	0.675
11.6723	0.714
11.7062	0.746
11.74	0.769
11.7738	0.793
11.8076	0.805
11.8414	0.812
11.8753	0.813
11.9091	0.802
11.9429	0.778
11.9767	0.771
12.0105	0.788
12.0444	0.805
12.0782	0.815
12.112	0.824
12.1458	0.827
12.1796	0.827
12.2134	0.827
12.2473	0.829
12.2811	0.829
12.3149	0.827
12.3487	0.824
12.3825	0.817
12.4164	0.813
12.4502	0.813
12.484	0.813
12.5178	0.818
12.5516	0.824
12.5855	0.825
12.6193	0.827
12.6531	0.827
12.6869	0.827
12.7207	0.827
12.7545	0.825
12.7884	0.818
12.8222	0.815
12.856	0.812
12.8898	0.813
12.9236	0.815
12.9575	0.817
12.9913	0.817
13.0251	0.815
13.0589	0.81
13.0927	0.808
13.1266	0.805
13.1604	0.802
13.1942	0.798
13.228	0.8
13.2618	0.802
13.2957	0.802
13.3295	0.802
13.3633	0.796
13.3971	0.793
13.4309	0.788
13.4647	0.783
13.4986	0.78
13.5324	0.773
13.5662	0.764
13.6	0.752
13.6338	0.737
13.6677	0.72
13.7015	0.68
13.7353	0.646
13.7691	0.592
13.8029	0.551
13.8368	0.499
13.8706	0.46
13.9044	0.439
13.9382	0.494
13.972	0.602
14.0058	0.675
14.0397	0.707
14.0735	0.724
14.1073	0.739
14.1411	0.746
14.1749	0.751
14.2088	0.754
14.2426	0.756
14.2764	0.756
14.3102	0.756
14.344	0.756
14.3779	0.756
14.4117	0.754
14.4455	0.752
14.4793	0.749
14.5131	0.742
14.5469	0.742
14.5808	0.742
14.6146	0.742
14.6484	0.742
14.6822	0.742
14.716	0.739
14.7499	0.742
14.7837	0.741
14.8175	0.741
14.8513	0.741
14.8851	0.741
14.919	0.736
14.9528	0.732
14.9866	0.732
15.0204	0.752
15.0542	0.746
15.088	0.737
