Infrared Spectrum: Danitol
Formula: C 22 H 23 N O 3
CAS: 39515-41-8
State: gas
Instrument: HP-GC/MS/IRD
Origin: NIST Mass Spectrometry Data Center
1/CM	ABSORBANCE
550	0.0004725
562	7.56e-05
574	6.48e-05
586	5.4e-06
598	5.13e-05
610	0.0001728
622	0.0002619
634	0.0003861
646	0.0006858
658	0.0013176
670	0.0009369
682	0.0025839
694	0.0061587
706	0.001836
718	0.0010233
730	0.0012825
742	0.0022086
754	0.0033939
766	0.0031455
778	0.0036234
790	0.0037611
802	0.0027405
814	0.0023031
826	0.002862
838	0.0043551
850	0.0059859
862	0.0033048
874	0.0029187
886	0.0027756
898	0.0022626
910	0.0022923
922	0.0029241
934	0.0029565
946	0.0034587
958	0.003321
970	0.0030618
982	0.0035262
994	0.0050382
1006	0.0064152
1018	0.0071496
1030	0.0100224
1042	0.0173205
1054	0.0160515
1066	0.0085185
1078	0.0055809
1090	0.0058482
1102	0.0094554
1114	0.0184032
1126	0.027
1138	0.0159813
1150	0.0090585
1162	0.0103086
1174	0.012663
1186	0.0083889
1198	0.0077598
1210	0.0112077
1222	0.0116046
1234	0.0202365
1246	0.022518
1258	0.0163431
1270	0.0136458
1282	0.0086994
1294	0.0058347
1306	0.0055971
1318	0.0057618
1330	0.0057159
1342	0.0041904
1354	0.0022383
1366	0.00216
1378	0.0038502
1390	0.007641
1402	0.0061884
1414	0.0064422
1426	0.0056754
1438	0.006804
1450	0.0096417
1462	0.0065097
1474	0.0090018
1486	0.0213084
1498	0.0094851
1510	0.002754
1522	0.0015957
1534	0.0013122
1546	0.0015552
1558	0.0027
1570	0.0059184
1582	0.0127008
1594	0.0119124
1606	0.0056916
1618	0.0025083
1630	0.0010854
1642	0.000702
1654	0.0005616
1666	0.0005103
1678	0.0005697
1690	0.000729
1702	0.0011232
1714	0.0018009
1726	0.0035505
1738	0.0073251
1750	0.013608
1762	0.0107676
1774	0.0037314
1786	0.0018414
1798	0.000999
1810	0.0005805
1822	0.0004158
1834	0.0003429
1846	0.0003861
1858	0.000405
1870	0.0003294
1882	0.0002457
1894	0.0002106
1906	0.0002511
1918	0.0003726
1930	0.0005535
1942	0.0004401
1954	0.0003321
1966	0.0002646
1978	0.0003024
1990	0.0003348
2002	0.0002997
2014	0.0002916
2026	0.0003213
2038	0.000351
2050	0.0003618
2062	0.0003267
2074	0.0002781
2086	0.0001971
2098	0.0001539
2110	0.0001026
2122	0.0001242
2134	7.83e-05
2146	7.29e-05
2158	7.02e-05
2170	6.48e-05
2182	2.7e-05
2194	5.4e-06
2206	8.1e-06
2218	7.29e-05
2230	7.02e-05
2242	0.0001215
2254	0.0001269
2266	6.21e-05
2278	5.13e-05
2290	8.37e-05
2302	7.56e-05
2314	0.0001242
2326	0.0001161
2338	0.0001026
2350	5.67e-05
2362	0.0001053
2374	0.0001566
2386	0.0001971
2398	0.0002187
2410	0.0001836
2422	0.0002403
2434	0.0002133
2446	0.0001674
2458	0.0001647
2470	0.0001323
2482	0.000108
2494	9.45e-05
2506	0.0001026
2518	0.000108
2530	0.0001053
2542	0.000135
2554	0.000135
2566	0.0001512
2578	0.0001647
2590	0.0001593
2602	8.64e-05
2614	0.0001296
2626	8.37e-05
2638	7.29e-05
2650	5.67e-05
2662	3.51e-05
2674	6.48e-05
2686	3.24e-05
2698	7.02e-05
2710	7.29e-05
2722	8.64e-05
2734	0.0002322
2746	0.0003996
2758	0.0003348
2770	0.0002322
2782	0.0002457
2794	0.000243
2806	0.0003078
2818	0.0003483
2830	0.0004725
2842	0.0006345
2854	0.000918
2866	0.0017361
2878	0.0035721
2890	0.0041445
2902	0.0040527
2914	0.0047412
2926	0.0068256
2938	0.0083943
2950	0.0082053
2962	0.0073413
2974	0.0036126
2986	0.0034101
2998	0.0035019
3010	0.0021519
3022	0.0020898
3034	0.0024651
3046	0.0026784
3058	0.0022275
3070	0.0026136
3082	0.0032076
3094	0.0019899
3106	0.001242
3118	0.0006237
3130	0.0004995
3142	0.0003807
3154	0.0002835
3166	0.0002187
3178	0.0001998
3190	0.0002025
3202	0.0001566
3214	4.59e-05
3226	9.72e-05
3238	5.13e-05
3250	5.13e-05
3262	2.43e-05
3274	0.0001215
3286	5.4e-05
3298	7.56e-05
3310	5.4e-05
3322	8.64e-05
3334	7.29e-05
3346	4.86e-05
3358	7.29e-05
3370	4.86e-05
3382	9.45e-05
3394	8.37e-05
3406	8.91e-05
3418	0.0001296
3430	6.48e-05
3442	0.0001539
3454	8.91e-05
3466	0.0001323
3478	0.0002403
3490	0.0001836
3502	0.0001863
3514	0.0001134
3526	9.99e-05
3538	0.0001296
3550	6.75e-05
3562	9.99e-05
3574	0.0001215
3586	0.0001161
3598	0.0001161
3610	0.0001647
3622	8.64e-05
3634	0.0001404
3646	6.75e-05
3658	0.0001053
3670	9.99e-05
3682	0.0001701
3694	0.0001215
3706	0.0001215
3718	0.0001107
3730	0.0001431
3742	0.0001404
3754	0.0001296
3766	0.0001296
3778	0.0001566
3790	0.000135
3802	0.000135
3814	0.0001566
3826	0.0001404
3838	0.0001593
