Infrared Spectrum: 4-(4-Chlorophenyl)-4-hydroxypiperidine
Formula: C 11 H 14 Cl N O
CAS: 39512-49-7
State: gas
Origin: EPA-IR VAPOR PHASE LIBRARY
1/CM	ABSORBANCE
549.8	0.0150232
559.445	0.0069532
569.09	0.0042132
578.734	0.0045432
588.379	0.0037232
598.024	0.0037232
607.669	0.0026532
617.313	0.0026332
626.958	0.0031632
636.603	0.0036132
646.248	0.0038732
655.893	0.0052232
665.537	0.0079832
675.182	0.0091132
684.827	0.0077932
694.472	0.0059832
704.116	0.0068132
713.761	0.0097132
723.406	0.0156332
733.051	0.0268132
742.695	0.0238132
752.34	0.0242932
761.985	0.0224632
771.63	0.0155832
781.275	0.0106332
790.919	0.0094832
800.564	0.0113932
810.209	0.0166732
819.854	0.0263132
829.498	0.0253732
839.143	0.0131032
848.788	0.0080032
858.433	0.0069732
868.078	0.0043732
877.722	0.0039332
887.367	0.0045132
897.012	0.0058232
906.657	0.0065132
916.301	0.0065432
925.946	0.0053832
935.591	0.0058432
945.236	0.0095532
954.88	0.0132832
964.525	0.0135732
974.17	0.0134132
983.815	0.0090232
993.46	0.0088132
1003.1	0.0155632
1012.75	0.0392232
1022.39	0.0160032
1032.04	0.0126032
1041.68	0.0121432
1051.33	0.0090132
1060.97	0.0089432
1070.62	0.0099532
1080.26	0.0133332
1089.91	0.0320632
1099.55	0.0563932
1109.2	0.0241732
1118.84	0.0216232
1128.49	0.0258332
1138.13	0.0270232
1147.78	0.0199732
1157.42	0.0133032
1167.07	0.0112432
1176.71	0.0110332
1186.36	0.0113032
1196	0.0112032
1205.64	0.0118732
1215.29	0.0150632
1224.93	0.0119132
1234.58	0.0092732
1244.22	0.0102332
1253.87	0.0095032
1263.51	0.0081432
1273.16	0.0094032
1282.8	0.0104332
1292.45	0.0119332
1302.09	0.0131432
1311.74	0.0168532
1321.38	0.0217932
1331.03	0.0186432
1340.67	0.0140632
1350.32	0.0155732
1359.96	0.0178032
1369.61	0.0141832
1379.25	0.0122732
1388.9	0.0157132
1398.54	0.0131632
1408.18	0.0102632
1417.83	0.0101432
1427.47	0.0108432
1437.12	0.0120032
1446.76	0.0113232
1456.41	0.0115332
1466.05	0.0144432
1475.7	0.0197232
1485.34	0.0250232
1494.99	0.0418732
1504.63	0.0164232
1514.28	0.0043732
1523.92	0.0025832
1533.57	0.0020432
1543.21	0.0019932
1552.86	0.0020932
1562.5	0.0023732
1572.15	0.0026532
1581.79	0.0035632
1591.44	0.0064832
1601.08	0.0052732
1610.73	0.0027732
1620.37	0.0022232
1630.01	0.0024532
1639.66	0.0027532
1649.3	0.0022732
1658.95	0.0017232
1668.59	0.0013632
1678.24	0.0012032
1687.88	0.000933
1697.53	0.0009261
1707.17	0.0006521
1716.82	0.0007774
1726.46	0.0009825
1736.11	0.0011532
1745.75	0.0011832
1755.4	0.0015232
1765.04	0.0017332
1774.69	0.0018232
1784.33	0.0014532
1793.98	0.0009425
1803.62	0.0008887
1813.27	0.000773
1822.91	0.0008296
1832.55	0.0009592
1842.2	0.000822
1851.84	0.0006463
1861.49	0.0011132
1871.13	0.0013332
1880.78	0.0015632
1890.42	0.0020232
1900.07	0.0019732
1909.71	0.0016132
1919.36	0.0010904
1929	0.000808
1938.65	0.0007739
1948.29	0.0005824
1957.94	0.0004667
1967.58	0.0005697
1977.23	0.0005275
1986.87	0.0005751
1996.52	0.0006767
2006.16	0.000583
2015.81	0.0005054
2025.45	0.0006594
2035.1	0.0006082
2044.74	0.0006486
2054.38	0.0005981
2064.03	0.0005342
2073.67	0.0005427
2083.32	0.0005666
2092.96	0.0005601
2102.61	0.0005133
2112.25	0.0004545
2121.9	0.0005248
2131.54	0.0004763
2141.19	0.000481
2150.83	0.0005477
2160.48	0.0004036
2170.12	0.0002772
2179.77	0.0005838
2189.41	0.0005257
2199.06	0.0005489
2208.7	0.0004588
2218.35	0.0006006
2227.99	0.0007448
2237.64	0.0005414
2247.28	0.0006691
2256.92	0.0006709
2266.57	0.0007111
2276.21	0.0006719
2285.86	0.0007022
2295.5	0.0006339
2305.15	0.000581
2314.79	0.0007353
2324.44	0.0008268
2334.08	0.0007649
2343.73	0.0009274
2353.37	0.0006245
2363.02	0.000747
2372.66	0.0009459
2382.31	0.0007173
2391.95	0.0006183
2401.6	0.000593
2411.24	0.0006424
2420.89	0.0005385
2430.53	0.000724
2440.18	0.0006703
2449.82	0.0008013
2459.47	0.0009238
2469.11	0.0006934
2478.75	0.000583
2488.4	0.0006966
2498.04	0.0007963
2507.69	0.0009221
2517.33	0.0006671
2526.98	0.0007648
2536.62	0.0008596
2546.27	0.0006099
2555.91	0.00084
2565.56	0.0008809
2575.2	0.0008517
2584.85	0.0012632
2594.49	0.0009187
2604.14	0.0011232
2613.78	0.0013632
2623.43	0.0014332
2633.07	0.0017032
2642.72	0.0018332
2652.36	0.0016332
2662.01	0.0017932
2671.65	0.0018532
2681.29	0.0021132
2690.94	0.0025532
2700.58	0.0024832
2710.23	0.0025032
2719.87	0.0032932
2729.52	0.0046432
2739.16	0.0066832
2748.81	0.0071632
2758.45	0.0053432
2768.1	0.0048832
2777.74	0.0056132
2787.39	0.0064432
2797.03	0.0086532
2806.68	0.0117332
2816.32	0.0154632
2825.97	0.0208632
2835.61	0.0260432
2845.26	0.0221332
2854.9	0.0156532
2864.55	0.0133832
2874.19	0.0135832
2883.84	0.0116932
2893.48	0.0115432
2903.12	0.0157632
2912.77	0.0243532
2922.41	0.0337932
2932.06	0.0405032
2941.7	0.0518732
2951.35	0.0689932
2960.99	0.0543332
2970.64	0.0216232
2980.28	0.0073732
2989.93	0.0036832
2999.57	0.0024532
3009.22	0.0017532
3018.86	0.0020332
3028.51	0.0030432
3038.15	0.0043832
3047.8	0.0037332
3057.44	0.0032432
3067.09	0.0030032
3076.73	0.0036932
3086.38	0.0053432
3096.02	0.0056132
3105.67	0.0034832
3115.31	0.0017832
3124.95	0.0007121
3134.6	0.000835
3144.24	0.0004685
3153.89	0.0006327
3163.53	0.00061
3173.18	0.0009775
3182.82	0.0004306
3192.47	0.0005251
3202.11	0.00014524
3211.76	0.00046
3221.4	0.0002521
3231.05	9.4711e-05
3240.69	0.0004871
3250.34	0.0003572
3259.98	0.0003905
3269.63	0.000712
3279.27	0.0005637
3288.92	0.0006397
3298.56	0.0003336
3308.21	0.000598
3317.85	0.0004107
3327.49	0.0004615
3337.14	0.0006727
3346.78	0.0009214
3356.43	0.0009277
3366.07	0.0007832
3375.72	0.0007331
3385.36	0.0006117
3395.01	0.0010389
3404.65	0.0010748
3414.3	0.0006428
3423.94	0.0010192
3433.59	0.0008361
3443.23	0.0011532
3452.88	0.0015532
3462.52	0.0014032
3472.17	0.0008527
3481.81	0.001063
3491.46	0.0009538
3501.1	0.000881
3510.75	0.0005828
3520.39	0.0006578
3530.04	0.0008568
3539.68	0.0006269
3549.32	0.000888
3558.97	0.0004544
3568.61	0.0007944
3578.26	0.0007146
3587.9	0.0007987
3597.55	0.0010796
3607.19	0.0014632
3616.84	0.0033832
3626.48	0.0061032
3636.13	0.0073832
3645.77	0.0044632
3655.42	0.0021532
3665.06	0.0015332
3674.71	0.0009782
3684.35	0.0007973
3694	0.0006039
3703.64	0.000532
3713.29	0.0004687
3722.93	0.0006324
3732.58	0.0002286
3742.22	0.0007654
3751.86	0.0007336
3761.51	0.0004884
3771.15	0.0005834
3780.8	0.0005711
3790.44	0.0005959
3800.09	0.0009454
3809.73	0.0005482
3819.38	0.0004586
3829.02	0.0011432
3838.67	0.0008639
3848.31	0.000526
3857.96	0.0005693
3867.6	0.0005548
3877.25	0.0005363
3886.89	0.0007394
3896.54	0.0007401
3906.18	0.0007126
3915.83	0.0006407
3925.47	0.00016411
3935.12	0.0005512
3944.76	0.0004742
3954.41	0.0004366
3964.05	0.00014631
3973.69	0.0005314
3983.34	0.0007214
3992.98	0.0005981
