Infrared Spectrum: Phenothiazine, 2-chloro-10-[3-(methylamino)propyl]-, hydrochloride
Formula: C16 H18 Cl2 N2 S
CAS: 3953-65-9
State: SOLID (KBr DISC)
Class: COBLENTZ III
Instrument: PERKIN-ELMER 21 (GRATING)
Instrument parameters: NaCl PRISM
Sampling: TRANSMISSION
Resolution: 2
Origin: SMITH, KLINE & FRENCH LABS.
1/CM	TRANSMITTANCE
676	0.6953
685	0.7205
694	0.6901
703	0.7047
712	0.6666
721	0.5026
730	0.4905
739	0.2663
748	0.22
757	0.5506
766	0.7278
775	0.7326
784	0.6438
793	0.4895
802	0.2733
811	0.7111
820	0.7207
829	0.6279
838	0.5678
847	0.4021
856	0.5791
865	0.6597
874	0.6492
883	0.6092
892	0.4446
901	0.356
910	0.552
919	0.626
928	0.5737
937	0.5891
946	0.7316
955	0.7237
964	0.7011
973	0.6665
982	0.6822
991	0.7005
1000	0.6895
1009	0.6585
1018	0.6238
1027	0.5271
1036	0.4732
1045	0.4847
1054	0.4209
1063	0.546
1072	0.5725
1081	0.5168
1090	0.3061
1099	0.3929
1108	0.4727
1117	0.5434
1126	0.4666
1135	0.5066
1144	0.5204
1153	0.5704
1162	0.5644
1171	0.6421
1180	0.6394
1189	0.6241
1198	0.5954
1207	0.5335
1216	0.3996
1225	0.2774
1234	0.3236
1243	0.2127
1252	0.3619
1261	0.4314
1270	0.4482
1279	0.3587
1288	0.4569
1297	0.467
1306	0.3207
1315	0.3895
1324	0.4053
1333	0.5397
1342	0.5657
1351	0.5402
1360	0.4763
1369	0.4429
1378	0.4227
1387	0.3902
1396	0.2576
1405	0.192
1414	0.3218
1423	0.3189
1432	0.2622
1441	0.1984
1450	0.0707
1459	0.0655
1468	0.208
1477	0.3494
1486	0.4199
1495	0.6555
1504	0.6771
1513	0.657
1522	0.6475
1531	0.626
1540	0.5369
1549	0.457
1558	0.2285
1567	0.2034
1576	0.3792
1585	0.3734
1594	0.3419
1603	0.6521
1612	0.6962
1621	0.6968
1630	0.6899
1639	0.6857
1648	0.6834
1657	0.677
1666	0.6724
1675	0.6681
1684	0.6657
1693	0.6633
1702	0.6608
1711	0.6585
1720	0.6561
1729	0.653
1738	0.6508
1747	0.6495
1756	0.648
1765	0.6467
1774	0.6457
1783	0.6448
1792	0.6439
1801	0.6418
1810	0.6386
1819	0.6322
1828	0.6242
1837	0.6158
1846	0.6083
1855	0.6027
1864	0.6
1873	0.5974
1882	0.5927
1891	0.5897
1900	0.5924
1909	0.5945
1918	0.5936
1927	0.593
1936	0.5956
1945	0.5969
1954	0.5929
1963	0.5864
1972	0.5818
1981	0.5772
1990	0.5714
1999	0.5667
2008	0.5635
2017	0.5604
2026	0.5572
2035	0.5542
2044	0.5517
2053	0.5493
2062	0.5469
2071	0.5444
2080	0.542
2089	0.5393
2098	0.5364
2107	0.5335
2116	0.5313
2125	0.5292
2134	0.5239
2143	0.5184
2152	0.5168
2161	0.5162
2170	0.5152
2179	0.5051
2188	0.4979
2197	0.4937
2206	0.4898
2215	0.4853
2224	0.4801
2233	0.4749
2242	0.4686
2251	0.4612
2260	0.4539
2269	0.4455
2278	0.4376
2287	0.4307
2296	0.4186
2305	0.4016
2314	0.3785
2323	0.3475
2332	0.3317
2341	0.3243
2350	0.3188
2359	0.3152
2368	0.3109
2377	0.3047
2386	0.2855
2395	0.2728
2404	0.2781
2413	0.2861
2422	0.2834
2431	0.2581
2440	0.23
2449	0.2217
2458	0.2318
2467	0.2804
2476	0.3125
2485	0.3124
2494	0.3117
2503	0.3108
2512	0.3089
2521	0.3074
2530	0.3027
2539	0.2915
2548	0.2732
2557	0.2531
2566	0.2379
2575	0.2248
2584	0.2121
2593	0.1996
2602	0.1872
2611	0.1787
2620	0.1722
2629	0.1678
2638	0.1657
2647	0.1643
2656	0.1631
2665	0.1631
2674	0.1632
2683	0.1646
2692	0.166
2701	0.1675
2710	0.1692
2719	0.171
2728	0.1721
2737	0.1731
2746	0.174
2755	0.1755
2764	0.1811
2773	0.194
2782	0.2049
2791	0.2118
2800	0.2168
2809	0.2187
2818	0.2197
2827	0.2193
2836	0.2187
2845	0.2174
2854	0.2161
2863	0.2146
2872	0.2131
2881	0.2117
2890	0.2104
2899	0.209
2908	0.2076
2917	0.2066
2926	0.2066
2935	0.2095
2944	0.2166
2953	0.2475
2962	0.2862
2971	0.3246
2980	0.3629
2989	0.4009
2998	0.4309
3007	0.4408
3016	0.444
3025	0.4463
3034	0.4486
3043	0.4528
3052	0.4636
3061	0.49
3070	0.5002
3079	0.5012
3088	0.5017
3097	0.502
3106	0.5021
3115	0.5017
3124	0.5013
3133	0.5007
3142	0.5001
3151	0.4995
3160	0.4989
3169	0.4978
3178	0.4966
3187	0.4955
3196	0.4941
3205	0.4916
3214	0.4892
3223	0.4863
3232	0.4832
3241	0.48
3250	0.4768
3259	0.4736
3268	0.4693
3277	0.4639
3286	0.4574
3295	0.4522
3304	0.4505
3313	0.4487
3322	0.4469
3331	0.4451
3340	0.4432
3349	0.4409
3358	0.4386
3367	0.4364
3376	0.4346
3385	0.4329
3394	0.4312
3403	0.429
3412	0.4266
3421	0.4243
3430	0.422
3439	0.4207
3448	0.4195
3457	0.4183
3466	0.4177
3475	0.4175
3484	0.4173
3493	0.4171
3502	0.4169
3511	0.4169
3520	0.417
3529	0.4172
3538	0.4173
3547	0.4175
3556	0.4176
3565	0.4177
3574	0.4179
3583	0.4182
3592	0.4184
3601	0.4185
3610	0.4187
3619	0.419
3628	0.4188
3637	0.4183
3646	0.418
3655	0.4175
3664	0.4169
3673	0.4153
3682	0.4135
3691	0.4118
3700	0.4101
3709	0.4084
3718	0.4067
3727	0.405
3736	0.4031
3745	0.4012
3754	0.3976
3763	0.3941
3772	0.3917
3781	0.3894
3790	0.3884
3799	0.3876
3808	0.387
3817	0.3863
3826	0.3847
3835	0.3805
3844	0.3766
3853	0.3737
3862	0.3725
3871	0.3713
3880	0.3702
3889	0.3689
3898	0.3677
3907	0.3664
3916	0.3652
3925	0.3637
3934	0.3621
3943	0.3604
3952	0.3588
3961	0.3571
3970	0.3562
3979	0.3557
3988	0.3551
3997	0.3545
