Infrared Spectrum: 2-Ethylbutyl acrylate
Formula: C 9 H 16 O 2
CAS: 3953-10-4
State: gas
Origin: EPA-IR VAPOR PHASE LIBRARY
1/CM	ABSORBANCE
501.5	0.0013292
513.074	0.0011092
524.648	0.0011492
536.222	0.0010792
547.796	0.0008809
559.37	0.0008909
570.944	0.0008662
582.518	0.0006637
594.092	0.0009867
605.666	0.0011492
617.24	0.0011692
628.814	0.0013192
640.388	0.0012192
651.962	0.0016392
663.536	0.0029292
675.11	0.0023592
686.684	0.0010792
698.258	0.0007388
709.832	0.0007233
721.406	0.0007989
732.98	0.0011592
744.554	0.0020492
756.128	0.0032692
767.702	0.0052592
779.276	0.0076792
790.85	0.0099992
802.423	0.0169692
813.997	0.0180892
825.571	0.0114092
837.145	0.0075192
848.719	0.0064892
860.293	0.0065292
871.867	0.0070192
883.441	0.0075092
895.015	0.0077692
906.589	0.0079592
918.163	0.0075892
929.737	0.0091292
941.311	0.0138692
952.885	0.0245292
964.459	0.0333792
976.033	0.0325892
987.607	0.0351992
999.181	0.0314892
1010.76	0.0245092
1022.33	0.0187192
1033.9	0.0242792
1045.48	0.0482092
1057.05	0.0760792
1068.63	0.0483292
1080.2	0.0200392
1091.77	0.0133392
1103.35	0.0126392
1114.92	0.0126092
1126.49	0.0137192
1138.07	0.0188992
1149.64	0.0320492
1161.22	0.0616992
1172.79	0.149409
1184.36	0.265359
1195.94	0.181099
1207.51	0.0654792
1219.09	0.0359192
1230.66	0.0352592
1242.23	0.0587492
1253.81	0.107829
1265.38	0.118239
1276.96	0.0718992
1288.53	0.0562692
1300.1	0.0523692
1311.68	0.0238692
1323.25	0.0133392
1334.83	0.0101292
1346.4	0.0086592
1357.97	0.0087192
1369.55	0.0108992
1381.12	0.0176792
1392.7	0.0271792
1404.27	0.0669092
1415.84	0.0606392
1427.42	0.0197392
1438.99	0.0143992
1450.57	0.0195892
1462.14	0.0281092
1473.71	0.0243592
1485.29	0.0132092
1496.86	0.0073992
1508.44	0.0052892
1520.01	0.0041892
1531.58	0.0035492
1543.16	0.0031192
1554.73	0.0028692
1566.31	0.0027892
1577.88	0.0030792
1589.45	0.0039092
1601.03	0.0056592
1612.6	0.0087492
1624.18	0.0128492
1635.75	0.0155492
1647.32	0.0097492
1658.9	0.0052092
1670.47	0.0051192
1682.05	0.0065392
1693.62	0.0100792
1705.19	0.0170892
1716.77	0.0326092
1728.34	0.0751692
1739.92	0.157829
1751.49	0.144879
1763.06	0.0567092
1774.64	0.0222892
1786.21	0.0111792
1797.79	0.0070692
1809.36	0.0047892
1820.93	0.0034092
1832.51	0.0026292
1844.08	0.0022492
1855.66	0.0020492
1867.23	0.0019292
1878.8	0.0017592
1890.38	0.0017492
1901.95	0.0021092
1913.53	0.0030992
1925.1	0.0041092
1936.67	0.0033092
1948.25	0.0021892
1959.82	0.0016192
1971.4	0.0013192
1982.97	0.0011792
1994.54	0.0012692
2006.12	0.0013692
2017.69	0.0014392
2029.27	0.0015092
2040.84	0.0016292
2052.41	0.0015292
2063.99	0.0014992
2075.56	0.0014892
2087.14	0.0014292
2098.71	0.0012892
2110.28	0.0011592
2121.86	0.000987
2133.43	0.0009554
2145.01	0.0008816
2156.58	0.0008628
2168.15	0.0007386
2179.73	0.0006125
2191.3	0.0005197
2202.88	0.0004862
2214.45	0.0004172
2226.02	0.0004373
2237.6	0.0004321
2249.17	0.0004429
2260.74	0.0004688
2272.32	0.0005042
2283.89	0.0005314
2295.47	0.0005935
2307.04	0.0006557
2318.61	0.0007137
2330.19	0.0007892
2341.76	0.0009673
2353.34	0.0011892
2364.91	0.0012392
2376.48	0.0010992
2388.06	0.0008169
2399.63	0.0006424
2411.21	0.0005586
2422.78	0.0005078
2434.35	0.0004359
2445.93	0.0004194
2457.5	0.0004388
2469.08	0.0005154
2480.65	0.0005817
2492.22	0.0005163
2503.8	0.0004489
2515.37	0.0004445
2526.95	0.0003905
2538.52	0.0004255
2550.09	0.0005128
2561.67	0.000514
2573.24	0.0006416
2584.82	0.0007993
2596.39	0.0009344
2607.96	0.0009205
2619.54	0.0009085
2631.11	0.0009377
2642.69	0.0009416
2654.26	0.0010592
2665.83	0.0011392
2677.41	0.0012192
2688.98	0.0012892
2700.56	0.0015392
2712.13	0.0016392
2723.7	0.0017492
2735.28	0.0020792
2746.85	0.0026492
2758.43	0.0026692
2770	0.0024992
2781.57	0.0026992
2793.15	0.0031392
2804.72	0.0036792
2816.3	0.0043392
2827.87	0.0055992
2839.44	0.0076792
2851.02	0.0118992
2862.59	0.0240092
2874.17	0.0420992
2885.74	0.0528392
2897.31	0.0495292
2908.89	0.0467492
2920.46	0.0576292
2932.04	0.0781192
2943.61	0.0895892
2955.18	0.0871292
2966.76	0.116439
2978.33	0.104719
2989.91	0.0471492
3001.48	0.0221792
3013.05	0.0127692
3024.63	0.0099792
3036.2	0.0099992
3047.78	0.0092192
3059.35	0.0061892
3070.92	0.0054792
3082.5	0.0050692
3094.07	0.0049192
3105.65	0.0072492
3117.22	0.0058292
3128.79	0.0025492
3140.37	0.0020192
3151.94	0.0018792
3163.52	0.0016092
3175.09	0.0014092
3186.66	0.0012092
3198.24	0.0008471
3209.81	0.0006624
3221.39	0.0005929
3232.96	0.0005036
3244.53	0.0003892
3256.11	0.0003589
3267.68	0.0002678
3279.26	0.0002139
3290.83	0.0001413
3302.4	8.811e-05
3313.98	0.0001454
3325.55	0.0002302
3337.13	0.0002146
3348.7	0.0002044
3360.27	0.0002423
3371.85	0.0002958
3383.42	0.0002562
3395	0.0002022
3406.57	0.0001988
3418.14	0.0002578
3429.72	0.0003715
3441.29	0.0006647
3452.86	0.0010492
3464.44	0.0017092
3476.01	0.0019092
3487.59	0.0011592
3499.16	0.0006662
3510.73	0.0003647
3522.31	0.0001833
3533.88	0.00012135
3545.46	0.0001514
3557.03	9.633e-05
3568.6	7.907e-05
3580.18	3.2423e-05
3591.75	0
3603.33	3.00606e-05
3614.9	3.4299e-05
3626.47	8.222e-05
3638.05	0.0001003
3649.62	8.47e-05
3661.2	7.45e-05
3672.77	6.029e-05
3684.34	0.00010447
3695.92	0.0001397
3707.49	0.0001648
3719.07	7.932e-05
3730.64	8.683e-05
3742.21	0.00011135
3753.79	4.273e-05
3765.36	7.701e-05
3776.94	0.0001198
3788.51	0.0001244
3800.08	8.246e-05
3811.66	3.7434e-05
3823.23	0.00010427
3834.81	0.0001433
3846.38	7.931e-05
3857.95	0.0001768
3869.53	0.0002578
3881.1	0.0003066
3892.68	0.0002838
3904.25	0.0002868
3915.82	0.0003635
3927.4	0.0003438
3938.97	0.0002319
3950.55	0.0003543
3962.12	0.000293
3973.69	0.0002896
3985.27	0.0003458
3996.84	0.0004322
