Infrared Spectrum: N-Amyl-N-butylamine
Formula: C 9 H 21 N
CAS: 39536-61-3
State: gas
Instrument: HP-GC/MS/IRD
Origin: NIST Mass Spectrometry Data Center
1/CM	ABSORBANCE
550	0.0006251
562	0.0005546
574	0.0004606
586	0.0005875
598	0.000517
610	0.0005546
622	0.0009212
634	0.0012079
646	0.0015557
658	0.0021432
670	0.0025897
682	0.0028059
694	0.0029093
706	0.0027918
718	0.0026179
730	0.0023265
742	0.0019881
754	0.0015228
766	0.0010716
778	0.0008366
790	0.0006298
802	0.0004324
814	0.0004136
826	0.0003196
838	0.0003008
850	0.0003149
862	0.0002632
874	0.0001927
886	0.0002303
898	0.0002679
910	0.0001739
922	6.11e-05
934	0.0001504
946	0.0002444
958	0.0003478
970	0.0003666
982	0.0003478
994	0.0004183
1006	0.0004747
1018	0.0004371
1030	0.0003901
1042	0.00047
1054	0.0007473
1066	0.0009259
1078	0.001269
1090	0.0020727
1102	0.003008
1114	0.0040608
1126	0.0069325
1138	0.0086245
1150	0.0052405
1162	0.0026931
1174	0.0015228
1186	0.0012267
1198	0.0013066
1210	0.0012643
1222	0.0012596
1234	0.0012314
1246	0.0011374
1258	0.0011139
1270	0.0011327
1282	0.0012126
1294	0.0014523
1306	0.001645
1318	0.0017155
1330	0.0022513
1342	0.0029986
1354	0.0034921
1366	0.0035626
1378	0.003149
1390	0.0023641
1402	0.0015463
1414	0.0014805
1426	0.002256
1438	0.0042347
1450	0.0067633
1462	0.0084741
1474	0.00611
1486	0.0027683
1498	0.0013019
1510	0.0007144
1522	0.0004418
1534	0.000282
1546	0.0002256
1558	0.0001504
1570	0.0001081
1582	0.0001081
1594	0.0001034
1606	9.4e-05
1618	7.52e-05
1630	7.52e-05
1642	8.46e-05
1654	8.46e-05
1666	0.0001269
1678	0.0001269
1690	0.0001222
1702	7.99e-05
1714	9.87e-05
1726	8.93e-05
1738	8.93e-05
1750	8.93e-05
1762	0.0001034
1774	9.87e-05
1786	7.52e-05
1798	8.46e-05
1810	0.0001034
1822	0.0001269
1834	9.4e-05
1846	0.0001175
1858	6.58e-05
1870	5.64e-05
1882	4.7e-05
1894	4.7e-05
1906	9.4e-06
1918	0
1930	9.4e-06
1942	1.41e-05
1954	4.7e-06
1966	9.4e-06
1978	1.41e-05
1990	1.88e-05
2002	2.82e-05
2014	4.7e-05
2026	5.64e-05
2038	7.52e-05
2050	6.11e-05
2062	6.11e-05
2074	7.99e-05
2086	6.58e-05
2098	7.05e-05
2110	6.11e-05
2122	7.05e-05
2134	7.05e-05
2146	7.52e-05
2158	7.52e-05
2170	5.64e-05
2182	7.99e-05
2194	6.11e-05
2206	8.93e-05
2218	7.99e-05
2230	5.64e-05
2242	8.46e-05
2254	8.46e-05
2266	8.46e-05
2278	8.93e-05
2290	9.87e-05
2302	0.0001034
2314	0.0001081
2326	0.0001034
2338	0.0001175
2350	0.0001081
2362	0.0001551
2374	0.0001504
2386	0.0001316
2398	0.0001316
2410	0.0001457
2422	0.000141
2434	0.0001269
2446	0.0001457
2458	0.0001081
2470	0.000141
2482	0.0001269
2494	0.0001833
2506	0.000141
2518	0.0001551
2530	0.0002256
2542	0.0002397
2554	0.0002914
2566	0.0003854
2578	0.000423
2590	0.00047
2602	0.0005405
2614	0.0005734
2626	0.0006627
2638	0.0007661
2650	0.0009306
2662	0.0010951
2674	0.0012972
2686	0.0014382
2698	0.0015745
2710	0.0017766
2722	0.0019552
2734	0.0022607
2746	0.0027166
2758	0.0030033
2770	0.0034169
2782	0.0045543
2794	0.0068573
2806	0.0102366
2818	0.0124174
2830	0.0120038
2842	0.0119239
2854	0.0152421
2866	0.0193452
2878	0.0215072
2890	0.0210278
2902	0.0218127
2914	0.0298497
2926	0.0422154
2938	0.0465535
2950	0.0362746
2962	0.0336661
2974	0.0278381
2986	0.0123234
2998	0.0062134
3010	0.0038869
3022	0.0027119
3034	0.0020492
3046	0.0016027
3058	0.0012737
3070	0.0010528
3082	0.0009823
3094	0.0008507
3106	0.0007332
3118	0.0006157
3130	0.0005123
3142	0.0004888
3154	0.0004089
3166	0.0004653
3178	0.0003619
3190	0.0003337
3202	0.0002209
3214	0.0002021
3226	0.0001692
3238	0.0001551
3250	0.0001222
3262	7.05e-05
3274	6.58e-05
3286	0.0001081
3298	0.0001034
3310	0.0001128
3322	9.4e-05
3334	0.0001175
3346	0.0001692
3358	0.0001034
3370	0.0001269
3382	0.0001034
3394	0.0001222
3406	0.0001363
3418	0.0001081
3430	9.87e-05
3442	0.0001692
3454	0.0001316
3466	0.000141
3478	8.46e-05
3490	0.0001081
3502	0.0001081
3514	0.0001692
3526	0.0001551
3538	0.0001551
3550	0.0001833
3562	0.0001739
3574	8.46e-05
3586	0.0002021
3598	0.0002256
3610	0.0002303
3622	0.0001457
3634	0.0001786
3646	0.0002162
3658	0.0002021
3670	0.0001598
3682	0.0002209
3694	0.0001692
3706	0.0001974
3718	0.0002021
3730	0.0002021
3742	0.000188
3754	0.0001645
3766	0.0002115
3778	0.0001598
3790	0.0001833
3802	0.0002068
3814	0.0001739
3826	0.0001645
3838	0.000141
