Infrared Spectrum: Neopentylidenecyclohexane
Formula: C 11 H 20
CAS: 39546-80-0
State: gas
Instrument: HP-GC/MS/IRD
Origin: NIST Mass Spectrometry Data Center
1/CM	ABSORBANCE
550	0.0001242
562	0.0001656
574	0.0001196
586	0.0001058
598	7.36e-05
610	0.000161
622	0.000253
634	0.0005428
646	0.0005796
658	0.0002484
670	0.0001472
682	9.2e-06
694	5.06e-05
706	6.9e-05
718	2.76e-05
730	0.0001012
742	0.0001564
754	0.0001104
766	0.0001104
778	0.000138
790	0.000207
802	0.0002392
814	0.0004784
826	0.00138
838	0.002001
850	0.0013754
862	0.0008602
874	0.0004508
886	0.0005152
898	0.0006394
910	0.0006808
922	0.0008924
934	0.0008924
946	0.0005474
958	0.000322
970	0.0003956
982	0.000782
994	0.0017342
1006	0.0014122
1018	0.0007406
1030	0.0006072
1042	0.0003496
1054	0.0002116
1066	0.000207
1078	0.0003082
1090	0.0003818
1102	0.0004646
1114	0.000345
1126	0.0002898
1138	0.0002484
1150	0.0003588
1162	0.0008418
1174	0.001081
1186	0.0011592
1198	0.0022586
1210	0.0032752
1222	0.0014766
1234	0.0010258
1246	0.0010718
1258	0.0009016
1270	0.000575
1282	0.0003312
1294	0.0002576
1306	0.0003082
1318	0.0004692
1330	0.000644
1342	0.0012834
1354	0.0021942
1366	0.0035098
1378	0.0023046
1390	0.001242
1402	0.0013018
1414	0.0008372
1426	0.001104
1438	0.0026726
1450	0.0043516
1462	0.0039238
1474	0.0033856
1486	0.0021574
1498	0.000851
1510	0.0004416
1522	0.0002898
1534	0.0001932
1546	0.0001242
1558	0.0001242
1570	0.0001012
1582	0.0001104
1594	0.0001012
1606	0.0001058
1618	0.0001518
1630	0.0002392
1642	0.0005612
1654	0.0006808
1666	0.0003542
1678	0.0001886
1690	0.000138
1702	0.000115
1714	8.74e-05
1726	8.28e-05
1738	7.82e-05
1750	7.82e-05
1762	7.36e-05
1774	5.52e-05
1786	6.44e-05
1798	5.06e-05
1810	4.6e-05
1822	4.6e-06
1834	3.22e-05
1846	2.76e-05
1858	5.06e-05
1870	4.14e-05
1882	3.22e-05
1894	2.76e-05
1906	2.3e-05
1918	2.3e-05
1930	3.22e-05
1942	5.52e-05
1954	3.68e-05
1966	4.14e-05
1978	3.22e-05
1990	1.38e-05
2002	3.22e-05
2014	9.2e-06
2026	9.2e-06
2038	1.84e-05
2050	1.38e-05
2062	0
2074	1.38e-05
2086	1.84e-05
2098	3.22e-05
2110	3.22e-05
2122	1.38e-05
2134	1.84e-05
2146	2.76e-05
2158	4.6e-05
2170	4.6e-05
2182	4.14e-05
2194	4.14e-05
2206	2.3e-05
2218	4.6e-05
2230	2.76e-05
2242	1.38e-05
2254	1.38e-05
2266	4.14e-05
2278	5.06e-05
2290	5.52e-05
2302	5.06e-05
2314	5.06e-05
2326	3.68e-05
2338	4.6e-05
2350	4.6e-05
2362	5.52e-05
2374	6.9e-05
2386	5.52e-05
2398	5.52e-05
2410	6.9e-05
2422	6.9e-05
2434	4.6e-05
2446	3.22e-05
2458	5.52e-05
2470	7.82e-05
2482	5.98e-05
2494	8.28e-05
2506	7.36e-05
2518	8.74e-05
2530	0.0001058
2542	0.000115
2554	0.0001334
2566	0.0001518
2578	0.0001886
2590	0.000207
2602	0.0002346
2614	0.0002714
2626	0.0002806
2638	0.0003082
2650	0.0004232
2662	0.0005382
2674	0.0005152
2686	0.0003956
2698	0.0003542
2710	0.0004554
2722	0.000483
2734	0.000437
2746	0.0004462
2758	0.0005474
2770	0.0006578
2782	0.0008648
2794	0.001104
2806	0.001288
2818	0.0017526
2830	0.0034132
2842	0.007199
2854	0.0125534
2866	0.0160954
2878	0.0130962
2890	0.0113068
2902	0.0124338
2914	0.0183724
2926	0.0349646
2938	0.046
2950	0.0344034
2962	0.02944
2974	0.0205942
2986	0.0102718
2998	0.005681
3010	0.003611
3022	0.0023322
3034	0.0016882
3046	0.0012926
3058	0.0009614
3070	0.000736
3082	0.0005796
3094	0.0005198
3106	0.0004784
3118	0.0004416
3130	0.0004048
3142	0.0003772
3154	0.0003726
3166	0.0003726
3178	0.0003864
3190	0.0003726
3202	0.0003588
3214	0.0003312
3226	0.000345
3238	0.0002944
3250	0.000253
3262	0.0002024
3274	0.0001656
3286	0.0001104
3298	0.0001104
3310	0.0001518
3322	0.0001196
3334	0.000138
3346	0.0001564
3358	0.0001104
3370	0.0001426
3382	0.0001288
3394	0.000115
3406	0.0001196
3418	0.0001058
3430	0.0001334
3442	0.0001196
3454	0.0001012
3466	7.82e-05
3478	8.74e-05
3490	8.74e-05
3502	9.66e-05
3514	8.74e-05
3526	2.76e-05
3538	8.74e-05
3550	2.76e-05
3562	5.06e-05
3574	6.9e-05
3586	5.98e-05
3598	3.68e-05
3610	7.82e-05
3622	0.0001012
3634	6.9e-05
3646	6.9e-05
3658	8.74e-05
3670	9.66e-05
3682	9.2e-05
3694	0.0001518
3706	0.0001058
3718	0.000138
3730	0.0001426
3742	0.0001288
3754	9.66e-05
3766	0.0001426
3778	0.0001058
3790	0.0001288
3802	0.0001472
3814	0.0001288
3826	0.0001288
3838	0.0001518
