Infrared Spectrum: 2-THIOUREA, 1-ETHYL-1-PHENYL-
Formula: C9 H12 N2 S
CAS: 3955-58-6
State: SOLID (SPLIT MULL)
Class: COBLENTZ III
Instrument: DOW KBr FOREPRISM-GRATING
Instrument parameters: BLAZED AT 3.5, 12.0, 20.0 MICRON AND CHANGED AT 5.0, 7.5, 14.9 MICRON
Sampling: TRANSMISSION
Resolution: 2
Origin: DOW CHEMICAL COMPANY
1/CM	TRANSMITTANCE
455	0.633
464	0.6133
473	0.5847
482	0.5485
491	0.4487
500	0.3796
509	0.4814
518	0.621
527	0.6393
536	0.6034
545	0.4279
554	0.6821
563	0.7155
572	0.7293
581	0.674
590	0.7622
599	0.7697
608	0.7657
617	0.7703
626	0.7655
635	0.6654
644	0.7461
653	0.766
662	0.7458
671	0.6519
680	0.6675
689	0.67
698	0.388
707	0.5743
716	0.7574
725	0.7578
734	0.7828
743	0.7943
752	0.8015
761	0.7641
770	0.4326
779	0.7751
788	0.8278
797	0.8131
806	0.77
815	0.5558
824	0.6042
833	0.7831
842	0.76
851	0.8365
860	0.8371
869	0.8331
878	0.8293
887	0.8209
896	0.8154
905	0.8112
914	0.7965
923	0.7678
932	0.736
941	0.7124
950	0.7851
959	0.7745
968	0.7351
977	0.7522
986	0.7237
995	0.5689
1004	0.6833
1013	0.5302
1022	0.6292
1031	0.6349
1040	0.6975
1049	0.7311
1058	0.7464
1067	0.7118
1076	0.6621
1085	0.7317
1094	0.7358
1103	0.701
1112	0.5238
1121	0.5805
1130	0.7381
1139	0.7397
1148	0.7441
1157	0.731
1166	0.7378
1175	0.6654
1184	0.5925
1193	0.6591
1202	0.6965
1211	0.699
1220	0.6795
1229	0.653
1238	0.6798
1247	0.6458
1256	0.6129
1265	0.5844
1274	0.5627
1283	0.5425
1292	0.3992
1301	0.5323
1310	0.6071
1319	0.6438
1328	0.605
1337	0.5464
1346	0.4919
1355	0.4638
1364	0.5028
1373	0.2313
1382	0.1767
1391	0.1466
1400	0.4603
1409	0.5571
1418	0.4183
1427	0.5422
1436	0.6114
1445	0.3549
1454	0.3874
1463	0.2026
1472	0.0771
1481	0.3206
1490	0.1022
1499	0.7065
1508	0.7898
1517	0.8236
1526	0.8058
1535	0.7867
1544	0.7928
1553	0.783
1562	0.759
1571	0.705
1580	0.5965
1589	0.4239
1598	0.1109
1607	0.648
1616	0.5228
1625	0.1238
1634	0.5153
1643	0.7551
1652	0.8314
1661	0.8527
1670	0.8597
1679	0.8574
1688	0.8581
1697	0.8641
1706	0.862
1715	0.8586
1724	0.8559
1733	0.851
1742	0.8468
1751	0.8355
1760	0.8393
1769	0.8395
1778	0.836
1787	0.8325
1796	0.8298
1805	0.8239
1814	0.8126
1823	0.8231
1832	0.8223
1841	0.8223
1850	0.8198
1859	0.8168
1868	0.8138
1877	0.8055
1886	0.7954
1895	0.8021
1904	0.7988
1913	0.8031
1922	0.8012
1931	0.7964
1940	0.7911
1949	0.79
1958	0.7928
1967	0.7808
1976	0.7815
1985	0.7748
1994	0.7765
2003	0.7821
2012	0.7819
2021	0.7817
2030	0.7757
2039	0.7688
2048	0.7633
2057	0.7586
2066	0.7612
2075	0.766
2084	0.7635
2093	0.7605
2102	0.7571
2111	0.7536
2120	0.7504
2129	0.7471
2138	0.7443
2147	0.7415
2156	0.739
2165	0.7354
2174	0.7311
2183	0.7261
2192	0.724
2201	0.7247
2210	0.7241
2219	0.7204
2228	0.7155
2237	0.7105
2246	0.7058
2255	0.7014
2264	0.6969
2273	0.6925
2282	0.6885
2291	0.6842
2300	0.6805
2309	0.6788
2318	0.6775
2327	0.6762
2336	0.6751
2345	0.6736
2354	0.6721
2363	0.6706
2372	0.669
2381	0.6672
2390	0.6651
2399	0.6628
2408	0.661
2417	0.6592
2426	0.6576
2435	0.6567
2444	0.6557
2453	0.6548
2462	0.654
2471	0.653
2480	0.6519
2489	0.6508
2498	0.6496
2507	0.6475
2516	0.6454
2525	0.6432
2534	0.6411
2543	0.6391
2552	0.6372
2561	0.6351
2570	0.6319
2579	0.6286
2588	0.6252
2597	0.6216
2606	0.6188
2615	0.6186
2624	0.6185
2633	0.6178
2642	0.6168
2651	0.6156
2660	0.613
2669	0.61
2678	0.6062
2687	0.6027
2696	0.6
2705	0.5974
2714	0.5942
2723	0.591
2732	0.5868
2741	0.5823
2750	0.5787
2759	0.5751
2768	0.5715
2777	0.5679
2786	0.5651
2795	0.5625
2804	0.5615
2813	0.5598
2822	0.5567
2831	0.5514
2840	0.5444
2849	0.5343
2858	0.5179
2867	0.515
2876	0.5198
2885	0.5189
2894	0.5155
2903	0.5057
2912	0.4921
2921	0.446
2930	0.4281
2939	0.4462
2948	0.4608
2957	0.4562
2966	0.4381
2975	0.3955
2984	0.4277
2993	0.471
3002	0.5092
3011	0.5041
3020	0.4925
3029	0.4791
3038	0.4746
3047	0.4684
3056	0.4536
3065	0.4451
3074	0.442
3083	0.4406
3092	0.4378
3101	0.4322
3110	0.4218
3119	0.4086
3128	0.3924
3137	0.3708
3146	0.3459
3155	0.2888
3164	0.1928
3173	0.1518
3182	0.2176
3191	0.3706
3200	0.3744
3209	0.3488
3218	0.2931
3227	0.2815
3236	0.3138
3245	0.282
3254	0.2407
3263	0.2019
3272	0.1721
3281	0.1723
3290	0.1921
3299	0.2449
3308	0.2951
3317	0.3574
3326	0.3692
3335	0.3682
3344	0.3575
3353	0.3337
3362	0.2947
3371	0.2467
3380	0.1685
3389	0.1333
3398	0.2328
3407	0.3632
3416	0.5001
3425	0.5367
3434	0.5394
3443	0.539
3452	0.5385
3461	0.5356
3470	0.5322
3479	0.5288
3488	0.5255
3497	0.5218
3506	0.518
3515	0.5143
3524	0.5108
3533	0.5074
3542	0.5041
3551	0.5014
3560	0.5
3569	0.4977
3578	0.4918
3587	0.491
3596	0.491
3605	0.4889
3614	0.4868
3623	0.4847
3632	0.4826
3641	0.4802
3650	0.4779
3659	0.4755
3668	0.4727
3677	0.4694
3686	0.4662
3695	0.4629
3704	0.4601
3713	0.4573
3722	0.4545
3731	0.452
3740	0.45
3749	0.4479
3758	0.4458
3767	0.4437
3776	0.4416
3785	0.4393
3794	0.4371
