Infrared Spectrum: 2-Acetyl-5-nitrothiophene
Formula: C 6 H 5 N O 3 S
CAS: 39565-00-9
State: gas
Origin: EPA-IR VAPOR PHASE LIBRARY
1/CM	ABSORBANCE
549.8	0.0014637
559.445	0.000845
569.09	0.0007
578.734	0.0019598
588.379	0.00524
598.024	0.01047
607.669	0.00939
617.313	0.00384
626.958	0.00263
636.603	0.0013833
646.248	0.0011949
655.893	0.0012055
665.537	0.0012767
675.182	0.00214
684.827	0.00503
694.472	0.00399
704.116	0.00229
713.761	0.00401
723.406	0.00712
733.051	0.00712
742.695	0.00444
752.34	0.00361
761.985	0.00371
771.63	0.0015283
781.275	0.0013308
790.919	0.00309
800.564	0.00765
810.209	0.02123
819.854	0.02765
829.498	0.01254
839.143	0.00447
848.788	0.00218
858.433	0.0012321
868.078	0.001109
877.722	0.0011098
887.367	0.0015098
897.012	0.0013327
906.657	0.0018105
916.301	0.00434
925.946	0.00672
935.591	0.00448
945.236	0.00321
954.88	0.0045
964.525	0.00474
974.17	0.00353
983.815	0.00242
993.46	0.00258
1003.1	0.00343
1012.75	0.00348
1022.39	0.00464
1032.04	0.00524
1041.68	0.00581
1051.33	0.00378
1060.97	0.00251
1070.62	0.0018813
1080.26	0.00256
1089.91	0.0012604
1099.55	0.0019052
1109.2	0.00607
1118.84	0.00644
1128.49	0.00421
1138.13	0.0027
1147.78	0.0019189
1157.42	0.00345
1167.07	0.00248
1176.71	0.00328
1186.36	0.00663
1196	0.00954
1205.64	0.00796
1215.29	0.0127
1224.93	0.03255
1234.58	0.05313
1244.22	0.05627
1253.87	0.06448
1263.51	0.0344
1273.16	0.00767
1282.8	0.00552
1292.45	0.00541
1302.09	0.00778
1311.74	0.01365
1321.38	0.02661
1331.03	0.04393
1340.67	0.05991
1350.32	0.07244
1359.96	0.03934
1369.61	0.01599
1379.25	0.01012
1388.9	0.00652
1398.54	0.00594
1408.18	0.00746
1417.83	0.00887
1427.47	0.00873
1437.12	0.00758
1446.76	0.00637
1456.41	0.0057
1466.05	0.00545
1475.7	0.00585
1485.34	0.00592
1494.99	0.00781
1504.63	0.01513
1514.28	0.03003
1523.92	0.04269
1533.57	0.04416
1543.21	0.04623
1552.86	0.04146
1562.5	0.0245
1572.15	0.01507
1581.79	0.01098
1591.44	0.00703
1601.08	0.0049
1610.73	0.00485
1620.37	0.00433
1630.01	0.00396
1639.66	0.00397
1649.3	0.00469
1658.95	0.00474
1668.59	0.00541
1678.24	0.00998
1687.88	0.02471
1697.53	0.04696
1707.17	0.04851
1716.82	0.02041
1726.46	0.00563
1736.11	0.00342
1745.75	0.00321
1755.4	0.00312
1765.04	0.00256
1774.69	0.0019435
1784.33	0.0019325
1793.98	0.00237
1803.62	0.00222
1813.27	0.0019491
1822.91	0.0018859
1832.55	0.00198
1842.2	0.0019771
1851.84	0.0016375
1861.49	0.001662
1871.13	0.0014513
1880.78	0.0013752
1890.42	0.0011396
1900.07	0.0014448
1909.71	0.001224
1919.36	0.0012455
1929	0.0015007
1938.65	0.0015722
1948.29	0.0016182
1957.94	0.0014757
1967.58	0.0014231
1977.23	0.0013021
1986.87	0.0011015
1996.52	0.0011213
2006.16	0.00108155
2015.81	0.001259
2025.45	0.0013584
2035.1	0.0013266
2044.74	0.0011487
2054.38	0.0012605
2064.03	0.0011806
2073.67	0.0011808
2083.32	0.001172
2092.96	0.0012199
2102.61	0.001257
2112.25	0.00102035
2121.9	0.0011279
2131.54	0.000957
2141.19	0.0011648
2150.83	0.0011098
2160.48	0.0011013
2170.12	0.00108838
2179.77	0.0013245
2189.41	0.0009893
2199.06	0.0011766
2208.7	0.0013166
2218.35	0.00109676
2227.99	0.0012865
2237.64	0.0009435
2247.28	0.00106265
2256.92	0.0011588
2266.57	0.0011226
2276.21	0.00106967
2285.86	0.001102
2295.5	0.0011692
2305.15	0.00124
2314.79	0.0011915
2324.44	0.00105796
2334.08	0.001592
2343.73	0.0013111
2353.37	0.0014178
2363.02	0.0013626
2372.66	0.001514
2382.31	0.0014325
2391.95	0.0012956
2401.6	0.0014177
2411.24	0.0013351
2420.89	0.0013171
2430.53	0.0011888
2440.18	0.0013804
2449.82	0.0013699
2459.47	0.0014966
2469.11	0.0015318
2478.75	0.0012494
2488.4	0.0010901
2498.04	0.0012471
2507.69	0.0013234
2517.33	0.00102092
2526.98	0.0014849
2536.62	0.0014616
2546.27	0.0017942
2555.91	0.0013974
2565.56	0.0012983
2575.2	0.001159
2584.85	0.0012127
2594.49	0.0013296
2604.14	0.0013026
2613.78	0.0017017
2623.43	0.0014461
2633.07	0.0014009
2642.72	0.0014438
2652.36	0.0016612
2662.01	0.0015352
2671.65	0.001853
2681.29	0.0015883
2690.94	0.0016607
2700.58	0.0013368
2710.23	0.0013408
2719.87	0.0013083
2729.52	0.0012248
2739.16	0.0012935
2748.81	0.0011915
2758.45	0.0016323
2768.1	0.0012929
2777.74	0.0015967
2787.39	0.0011581
2797.03	0.0015885
2806.68	0.0013073
2816.32	0.0014576
2825.97	0.0013825
2835.61	0.0016269
2845.26	0.0016915
2854.9	0.0019392
2864.55	0.0019019
2874.19	0.001706
2883.84	0.0018778
2893.48	0.0019628
2903.12	0.0016528
2912.77	0.0018537
2922.41	0.0018016
2932.06	0.00211
2941.7	0.00206
2951.35	0.00209
2960.99	0.0014248
2970.64	0.0014626
2980.28	0.0014423
2989.93	0.0015387
2999.57	0.0017667
3009.22	0.0023
3018.86	0.00219
3028.51	0.00225
3038.15	0.0016275
3047.8	0.0019858
3057.44	0.0014741
3067.09	0.0014486
3076.73	0.0016827
3086.38	0.0017492
3096.02	0.00233
3105.67	0.0016044
3115.31	0.001951
3124.95	0.0016761
3134.6	0.0016117
3144.24	0.0013631
3153.89	0.00104399
3163.53	0.00088
3173.18	0.00106698
3182.82	0.00104968
3192.47	0.0012327
3202.11	0.0012109
3211.76	0.00100021
3221.4	0.0009419
3231.05	0.000878
3240.69	0.0013722
3250.34	0.0018114
3259.98	0.00100845
3269.63	0.00105448
3279.27	0.0009678
3288.92	0.0012249
3298.56	0.0017071
3308.21	0.0011006
3317.85	0.0015925
3327.49	0.0017945
3337.14	0.0011286
3346.78	0.0015658
3356.43	0.0011507
3366.07	0.0017307
3375.72	0.0017351
3385.36	0.00233
3395.01	0.0025
3404.65	0.0013911
3414.3	0.0017675
3423.94	0.0015195
3433.59	0.0015488
3443.23	0.0014057
3452.88	0.0012861
3462.52	0.000886
3472.17	0.00105033
3481.81	0.001145
3491.46	0.0012185
3501.1	0.0011235
3510.75	0.0011384
3520.39	0.0014147
3530.04	0.0018876
3539.68	0.0014045
3549.32	0.00101885
3558.97	0.000869
3568.61	0.0014414
3578.26	0.000936
3587.9	0.0015496
3597.55	0.00099362
3607.19	0.0018148
3616.84	0.0013932
3626.48	0.0013308
3636.13	0.0014748
3645.77	0.0013445
3655.42	0.001305
3665.06	0.0013553
3674.71	0.0013498
3684.35	0.0013521
3694	0.00107453
3703.64	0.0013616
3713.29	0.00112
3722.93	0.000781
3732.58	0.0014088
3742.22	0.0014576
3751.86	0.0013446
3761.51	0.0011668
3771.15	0.0009227
3780.8	0.0011213
3790.44	0.0011778
3800.09	0.00081
3809.73	0.0015062
3819.38	0.000733
3829.02	0.0013184
3838.67	0.000813
3848.31	0.0016254
3857.96	0.0009622
3867.6	0.001388
3877.25	0.0009491
3886.89	0.0012396
3896.54	0.000859
3906.18	0.0009404
3915.83	0.000746
3925.47	0.0011353
3935.12	0.0019469
3944.76	0.0013293
3954.41	0.000715
3964.05	0.0013716
3973.69	0.0015399
3983.34	0.001432
3992.98	0.0010015
