Infrared Spectrum: 2,4-Dichlorophenoxyacetonitrile
Formula: C 8 H 5 Cl 2 N O
CAS: 3956-63-6
State: gas
Origin: EPA-IR VAPOR PHASE LIBRARY
1/CM	ABSORBANCE
549.8	0.004077
559.445	0.005467
569.09	0.004527
578.735	0.003287
588.38	0.003207
598.025	0.003157
607.67	0.002567
617.315	0.002357
626.96	0.003237
636.605	0.008687
646.251	0.014157
655.896	0.006777
665.541	0.003307
675.186	0.002477
684.831	0.003337
694.476	0.008437
704.121	0.016607
713.766	0.014057
723.411	0.013247
733.056	0.014107
742.701	0.010397
752.346	0.008127
761.991	0.004657
771.636	0.003537
781.281	0.004407
790.926	0.008247
800.571	0.013537
810.216	0.015867
819.861	0.020607
829.507	0.025037
839.152	0.029237
848.797	0.015637
858.442	0.011037
868.087	0.018477
877.732	0.013337
887.377	0.006527
897.022	0.006857
906.667	0.008557
916.312	0.006947
925.957	0.004657
935.602	0.003717
945.247	0.003587
954.892	0.003327
964.537	0.003057
974.182	0.003117
983.827	0.003987
993.472	0.006587
1003.12	0.013867
1012.76	0.031637
1022.41	0.049727
1032.05	0.039687
1041.7	0.021907
1051.34	0.021587
1060.99	0.043767
1070.63	0.044057
1080.28	0.025947
1089.92	0.021507
1099.57	0.047477
1109.21	0.043427
1118.86	0.018737
1128.5	0.010857
1138.15	0.008797
1147.79	0.006227
1157.44	0.004167
1167.08	0.004057
1176.73	0.005017
1186.37	0.006907
1196.02	0.008957
1205.66	0.016297
1215.31	0.044677
1224.95	0.071387
1234.6	0.054557
1244.24	0.049887
1253.89	0.047587
1263.53	0.038157
1273.18	0.039367
1282.82	0.035787
1292.47	0.030177
1302.11	0.015117
1311.76	0.006367
1321.4	0.004887
1331.05	0.004837
1340.69	0.005757
1350.34	0.007597
1359.98	0.010857
1369.63	0.015307
1379.27	0.016157
1388.92	0.013377
1398.56	0.007737
1408.21	0.005787
1417.85	0.008147
1427.5	0.013117
1437.14	0.015887
1446.79	0.021007
1456.43	0.032797
1466.08	0.072117
1475.73	0.151347
1485.37	0.114097
1495.02	0.043747
1504.66	0.018627
1514.31	0.008907
1523.95	0.005057
1533.6	0.003697
1543.24	0.003467
1552.89	0.004367
1562.53	0.007117
1572.18	0.010287
1581.82	0.010847
1591.47	0.007537
1601.11	0.003637
1610.76	0.002117
1620.4	0.001837
1630.05	0.001737
1639.69	0.001777
1649.34	0.001647
1658.98	0.001427
1668.63	0.0013607
1678.27	0.0012488
1687.92	0.0012016
1697.56	0.0011568
1707.21	0.001587
1716.85	0.001727
1726.5	0.002477
1736.14	0.003037
1745.79	0.002497
1755.43	0.001817
1765.08	0.001547
1774.72	0.001214
1784.37	0.0011493
1794.01	0.0010791
1803.66	0.0011187
1813.3	0.0010635
1822.95	0.0010059
1832.59	0.0011537
1842.24	0.001477
1851.88	0.001707
1861.53	0.001907
1871.17	0.001967
1880.82	0.001917
1890.46	0.001577
1900.11	0.0011418
1909.75	0.00107
1919.4	0.0012046
1929.04	0.0013397
1938.69	0.001397
1948.33	0.001323
1957.98	0.0011777
1967.62	0.0011149
1977.27	0.001129
1986.91	0.0011821
1996.56	0.0012858
2006.2	0.001427
2015.85	0.001597
2025.49	0.001907
2035.14	0.002167
2044.78	0.001957
2054.43	0.001767
2064.07	0.001617
2073.72	0.001517
2083.36	0.001457
2093.01	0.001457
2102.65	0.0013789
2112.3	0.0012581
2121.94	0.0010442
2131.59	0.0008605
2141.23	0.0007697
2150.88	0.0005992
2160.52	0.0006105
2170.17	0.0006525
2179.81	0.0007455
2189.46	0.0006729
2199.1	0.0007549
2208.75	0.0008169
2218.39	0.000976
2228.04	0.0013678
2237.68	0.002087
2247.33	0.002767
2256.97	0.002217
2266.62	0.001607
2276.26	0.0011056
2285.91	0.0010237
2295.55	0.0009081
2305.2	0.0009819
2314.84	0.0010505
2324.49	0.0008769
2334.13	0.0005607
2343.78	0.00045909
2353.42	0.00042206
2363.07	0.0003015
2372.72	0.00038812
2382.36	0.00039051
2392.01	0.00043424
2401.65	0.00045969
2411.3	0.0005129
2420.94	0.0005146
2430.59	0.000576
2440.23	0.0007115
2449.88	0.0006524
2459.52	0.0006874
2469.17	0.0006666
2478.81	0.0006367
2488.46	0.0007561
2498.1	0.0007232
2507.75	0.0007725
2517.39	0.0007665
2527.04	0.0006986
2536.68	0.0005674
2546.33	0.00045758
2555.97	0.0003737
2565.62	0.0003635
2575.26	0.0003302
2584.91	0.0003183
2594.55	0.0003732
2604.2	0.0003294
2613.84	0.0003062
2623.49	0.000238
2633.13	0.000191
2642.78	0.000167
2652.42	0.000155
2662.07	0.000237
2671.71	0.000212
2681.36	0.000271
2691	0.000211
2700.65	0.000176
2710.29	0.000267
2719.94	0.0003611
2729.58	0.00038719
2739.23	0.000281
2748.87	0.000121
2758.52	0.000189
2768.16	0.00015
2777.81	0.000152
2787.45	0.000405752
2797.1	0.0006045
2806.74	0.0008964
2816.39	0.0008657
2826.03	0.0007454
2835.68	0.0005912
2845.32	0.0006967
2854.97	0.000778
2864.61	0.0012376
2874.26	0.002077
2883.9	0.002177
2893.55	0.001447
2903.19	0.001224
2912.84	0.001547
2922.48	0.002707
2932.13	0.005867
2941.77	0.009137
2951.42	0.005847
2961.06	0.002537
2970.71	0.001747
2980.35	0.002547
2990	0.003067
2999.64	0.0009316
3009.29	0.00044353
3018.93	0.0003767
3028.58	0.00047699
3038.22	0.0005382
3047.87	0.0005426
3057.51	0.0006974
3067.16	0.0012562
3076.8	0.001847
3086.45	0.0011133
3096.09	0.0007299
3105.74	0.0003868
3115.38	9.8e-05
3125.03	0.000172
3134.67	0.000285
3144.32	0.000167
3153.96	0.000271
3163.61	0.000206
3173.25	7.5e-05
3182.9	0.000184
3192.54	7e-05
3202.19	0.000167
3211.83	0.000187
3221.48	6.8e-05
3231.12	5.3e-05
3240.77	0.000192
3250.41	0.000284
3260.06	0.000217
3269.7	0.000212
3279.35	0.0003176
3289	0.000212
3298.64	0.000286
3308.29	0.000244
3317.93	0.000358
3327.58	0.0003501
3337.22	0.0003287
3346.87	0.00027
3356.51	0.000262
3366.16	0.000293
3375.8	0.000236
3385.45	0.00041473
3395.09	0.00042852
3404.74	0.00046756
3414.38	0.00042326
3424.03	0.0003589
3433.67	0.000244
3443.32	0.00040591
3452.96	0.0003137
3462.61	0.00041019
3472.25	0.00043367
3481.9	0.000403312
3491.54	0.0004347
3501.19	0.00043789
3510.83	0.0003834
3520.48	0.0005094
3530.12	0.00042686
3539.77	0.0005081
3549.41	0.00039877
3559.06	0.0005568
3568.7	0.00043138
3578.35	0.0005216
3587.99	0.00041125
3597.64	0.0005934
3607.28	0.0005352
3616.93	0.0004927
3626.57	0.0003754
3636.22	0.0005218
3645.86	0.0003801
3655.51	0.000567
3665.15	0.0005491
3674.8	0.00048092
3684.44	0.0003367
3694.09	0.00049413
3703.73	0.000523
3713.38	0.0005417
3723.02	0.00047414
3732.67	0.0006189
3742.31	0.00046018
3751.96	0.0006393
3761.6	0.0006343
3771.25	0.0005512
3780.89	0.00045695
3790.54	0.0005528
3800.18	0.000446
3809.83	0.0003742
3819.47	0.00048543
3829.12	0.0005231
3838.76	0.0003602
3848.41	0.000282
3858.05	0.0003468
3867.7	0.0005155
3877.34	0.00044518
3886.99	0.0003203
3896.63	0.00047934
3906.28	0.0004982
3915.92	0.0005503
3925.57	0.0006433
3935.21	0.0005086
3944.86	0.0006059
3954.5	0.00046286
3964.15	0.000565
3973.79	0.0005479
3983.44	0.00048515
3993.08	0.00042932
