Infrared Spectrum: Ethyl 2-isothiocyanatopropionate
Formula: C 6 H 9 N O 2 S
CAS: 39574-16-8
State: gas
Origin: EPA-IR VAPOR PHASE LIBRARY
1/CM	ABSORBANCE
549.8	0.01428
559.445	0.01302
569.09	0.01136
578.734	0.00911
588.379	0.00775
598.024	0.00719
607.669	0.00675
617.313	0.00728
626.958	0.00733
636.603	0.00751
646.248	0.00779
655.893	0.00776
665.537	0.00802
675.182	0.00792
684.827	0.00868
694.472	0.01103
704.116	0.01361
713.761	0.01259
723.406	0.00903
733.051	0.00687
742.695	0.00684
752.34	0.00764
761.985	0.00671
771.63	0.00565
781.275	0.00447
790.919	0.00352
800.564	0.00322
810.209	0.00326
819.854	0.00286
829.498	0.00314
839.143	0.00415
848.788	0.00724
858.433	0.01001
868.078	0.00952
877.722	0.00851
887.367	0.00772
897.012	0.00559
906.657	0.00375
916.301	0.00293
925.946	0.00279
935.591	0.00408
945.236	0.00627
954.88	0.01189
964.525	0.01792
974.17	0.01591
983.815	0.01068
993.46	0.00948
1003.1	0.0136
1012.75	0.02318
1022.39	0.03062
1032.04	0.03136
1041.68	0.03753
1051.33	0.05714
1060.97	0.06052
1070.62	0.04052
1080.26	0.03054
1089.91	0.03241
1099.55	0.03478
1109.2	0.03372
1118.84	0.03082
1128.49	0.03428
1138.13	0.04827
1147.78	0.06716
1157.42	0.08176
1167.07	0.08098
1176.71	0.08966
1186.36	0.11219
1196	0.10834
1205.64	0.0826
1215.29	0.06313
1224.93	0.05405
1234.58	0.05423
1244.22	0.06241
1253.87	0.07126
1263.51	0.06972
1273.16	0.05732
1282.8	0.04725
1292.45	0.0495
1302.09	0.05684
1311.74	0.0607
1321.38	0.05285
1331.03	0.03597
1340.67	0.02175
1350.32	0.01416
1359.96	0.01315
1369.61	0.01865
1379.25	0.02429
1388.9	0.02097
1398.54	0.01317
1408.18	0.00941
1417.83	0.00826
1427.47	0.00882
1437.12	0.01074
1446.76	0.01513
1456.41	0.01845
1466.05	0.01702
1475.7	0.01293
1485.34	0.00863
1494.99	0.00577
1504.63	0.00443
1514.28	0.00341
1523.92	0.00303
1533.57	0.00276
1543.21	0.00259
1552.86	0.00264
1562.5	0.00251
1572.15	0.00236
1581.79	0.00216
1591.44	0.0021
1601.08	0.00216
1610.73	0.00203
1620.37	0.00203
1630.01	0.00214
1639.66	0.00216
1649.3	0.00234
1658.95	0.00249
1668.59	0.00295
1678.24	0.00349
1687.88	0.00429
1697.53	0.00567
1707.17	0.00816
1716.82	0.0123
1726.46	0.02016
1736.11	0.03828
1745.75	0.08083
1755.4	0.13464
1765.04	0.1284
1774.69	0.08739
1784.33	0.05336
1793.98	0.02605
1803.62	0.01408
1813.27	0.00874
1822.91	0.00598
1832.55	0.00484
1842.2	0.00456
1851.84	0.00455
1861.49	0.00493
1871.13	0.00552
1880.78	0.0065
1890.42	0.00767
1900.07	0.00965
1909.71	0.01204
1919.36	0.01538
1929	0.0197
1938.65	0.02523
1948.29	0.03263
1957.94	0.04296
1967.58	0.05767
1977.23	0.07819
1986.87	0.10654
1996.52	0.14507
2006.16	0.19352
2015.81	0.24604
2025.45	0.29938
2035.1	0.35209
2044.74	0.37447
2054.38	0.33803
2064.03	0.25887
2073.67	0.18221
2083.32	0.13192
2092.96	0.1032
2102.61	0.08852
2112.25	0.08273
2121.9	0.08393
2131.54	0.08582
2141.19	0.07798
2150.83	0.05996
2160.48	0.04311
2170.12	0.03226
2179.77	0.02556
2189.41	0.02157
2199.06	0.0187
2208.7	0.01585
2218.35	0.01318
2227.99	0.01135
2237.64	0.00993
2247.28	0.00879
2256.92	0.00776
2266.57	0.00713
2276.21	0.00657
2285.86	0.0063
2295.5	0.0058
2305.15	0.00525
2314.79	0.00465
2324.44	0.0041
2334.08	0.00363
2343.73	0.00326
2353.37	0.0028
2363.02	0.00256
2372.66	0.00214
2382.31	0.00201
2391.95	0.00168
2401.6	0.00183
2411.24	0.00173
2420.89	0.00165
2430.53	0.00149
2440.18	0.00153
2449.82	0.00158
2459.47	0.00145
2469.11	0.00163
2478.75	0.00162
2488.4	0.00163
2498.04	0.00173
2507.69	0.00169
2517.33	0.00185
2526.98	0.00212
2536.62	0.00214
2546.27	0.00245
2555.91	0.00268
2565.56	0.00323
2575.2	0.00329
2584.85	0.00347
2594.49	0.00327
2604.14	0.00287
2613.78	0.00254
2623.43	0.00224
2633.07	0.00197
2642.72	0.00192
2652.36	0.00167
2662.01	0.00165
2671.65	0.00158
2681.29	0.00188
2690.94	0.00194
2700.58	0.00217
2710.23	0.00272
2719.87	0.00304
2729.52	0.00371
2739.16	0.0043
2748.81	0.00481
2758.45	0.00443
2768.1	0.00403
2777.74	0.00362
2787.39	0.00322
2797.03	0.00296
2806.68	0.00276
2816.32	0.0028
2825.97	0.00279
2835.61	0.00273
2845.26	0.00273
2854.9	0.00311
2864.55	0.00418
2874.19	0.00602
2883.84	0.00874
2893.48	0.00997
2903.12	0.01071
2912.77	0.01238
2922.41	0.0137
2932.06	0.0175
2941.7	0.02542
2951.35	0.02672
2960.99	0.02162
2970.64	0.02245
2980.28	0.03292
2989.93	0.04457
2999.57	0.04639
3009.22	0.03277
3018.86	0.01539
3028.51	0.00825
3038.15	0.00521
3047.8	0.00365
3057.44	0.00271
3067.09	0.00211
3076.73	0.00182
3086.38	0.00171
3096.02	0.00157
3105.67	0.00145
3115.31	0.00159
3124.95	0.0012767
3134.6	0.0012793
3144.24	0.0011412
3153.89	0.0009742
3163.53	0.0010679
3173.18	0.0008627
3182.82	0.0007932
3192.47	0.0008075
3202.11	0.0007389
3211.76	0.000669
3221.4	0.000658
3231.05	0.000742
3240.69	0.0006123
3250.34	0.0006249
3259.98	0.00045961
3269.63	0.000175
3279.27	0.000235
3288.92	0.000267
3298.56	3.2e-05
3308.21	0.000239
3317.85	0.000293
3327.49	0.0003682
3337.14	0.0003916
3346.78	0.000143
3356.43	0.0003315
3366.07	0.0004738
3375.72	0.00022
3385.36	0.00049716
3395.01	0.0003604
3404.65	0.0003223
3414.3	0.0003198
3423.94	0.0005612
3433.59	0.00043294
3443.23	0.00048144
3452.88	0.00043334
3462.52	0.000552
3472.17	0.0007029
3481.81	0.0011481
3491.46	0.00171
3501.1	0.00171
3510.75	0.00159
3520.39	0.0011642
3530.04	0.001079
3539.68	0.0009786
3549.32	0.0007828
3558.97	0.0007402
3568.61	0.0005587
3578.26	0.00022
3587.9	0.0004234
3597.55	0.00044461
3607.19	0.000215
3616.84	0.0003142
3626.48	0.0003553
3636.13	0.0003298
3645.77	0.000277
3655.42	0.000204
3665.06	0.000282
3674.71	0.000236
3684.35	0.000153
3694	0
3703.64	0.0003017
3713.29	0.0003033
3722.93	0.000142
3732.58	0.000247
3742.22	0.00042926
3751.86	0.000288
3761.51	0.00049318
3771.15	0.00039562
3780.8	8.6e-05
3790.44	0.00023
3800.09	0.00043684
3809.73	0.0005667
3819.38	0.00046182
3829.02	0.0005437
3838.67	0.0005689
3848.31	0.0006599
3857.96	0.0006539
3867.6	0.0006709
3877.25	0.0005567
3886.89	0.0006518
3896.54	0.000703
3906.18	0.0008549
3915.83	0.0007792
3925.47	0.0008375
3935.12	0.0012698
3944.76	0.0012909
3954.41	0.0011697
3964.05	0.0013561
3973.69	0.00153
3983.34	0.00153
3992.98	0.00163
