Infrared Spectrum: o-Nitrobenzylbromide
Formula: C 7 H 6 Br N O 2
CAS: 3958-60-9
State: gas
Instrument: HP-GC/MS/IRD
Origin: NIST Mass Spectrometry Data Center
1/CM	ABSORBANCE
550	0.0009316
562	0.0015504
574	0.0013804
586	0.0008908
598	0.0016728
610	0.0043724
622	0.0089012
634	0.0056848
646	0.0033388
658	0.0047464
670	0.0068476
682	0.0046716
694	0.0060452
706	0.0078064
718	0.0057528
730	0.0059636
742	0.0082144
754	0.0075276
766	0.0059092
778	0.0094724
790	0.0053652
802	0.0066368
814	0.00357
826	0.0014552
838	0.0025364
850	0.0091868
862	0.0085748
874	0.0025772
886	0.0006868
898	0.0003264
910	0.0002448
922	6.8e-05
934	9.52e-05
946	0.0004556
958	0.0005644
970	0.0001836
982	0.0002176
994	0.0002788
1006	0.0005032
1018	0.0008228
1030	0.00119
1042	0.0015232
1054	0.0007616
1066	0.0006188
1078	0.0007888
1090	0.0005576
1102	0.00051
1114	0.000884
1126	0.0010744
1138	0.0010404
1150	0.001768
1162	0.0022916
1174	0.0017748
1186	0.002142
1198	0.00323
1210	0.0046784
1222	0.0097308
1234	0.0074868
1246	0.0026316
1258	0.001904
1270	0.0021896
1282	0.0034408
1294	0.0062832
1306	0.0064124
1318	0.005372
1330	0.0090984
1342	0.0248948
1354	0.0431732
1366	0.0198288
1378	0.0052088
1390	0.0032572
1402	0.0030872
1414	0.0032096
1426	0.0041072
1438	0.0074936
1450	0.0077928
1462	0.0046784
1474	0.0050252
1486	0.0069564
1498	0.008398
1510	0.013226
1522	0.0236436
1534	0.0469608
1546	0.068
1558	0.0373116
1570	0.01887
1582	0.0123692
1594	0.0085884
1606	0.0076976
1618	0.0051884
1630	0.0025772
1642	0.001564
1654	0.0010472
1666	0.0006936
1678	0.0005236
1690	0.0005712
1702	0.0006664
1714	0.0008296
1726	0.0008908
1738	0.0006188
1750	0.0003808
1762	0.0004012
1774	0.0004556
1786	0.0007548
1798	0.0019856
1810	0.0032912
1822	0.0025432
1834	0.0008364
1846	0.0004828
1858	0.0002992
1870	0.0001836
1882	0.00017
1894	0.0002924
1906	0.0003876
1918	0.000476
1930	0.00085
1942	0.0005712
1954	0.0006256
1966	0.000646
1978	0.00017
1990	8.16e-05
2002	9.52e-05
2014	7.48e-05
2026	4.76e-05
2038	3.4e-05
2050	1.36e-05
2062	2.04e-05
2074	0
2086	2.04e-05
2098	2.72e-05
2110	2.04e-05
2122	2.04e-05
2134	2.72e-05
2146	6.8e-06
2158	3.4e-05
2170	5.44e-05
2182	4.76e-05
2194	6.8e-05
2206	7.48e-05
2218	6.12e-05
2230	0.0001088
2242	9.52e-05
2254	6.8e-05
2266	8.84e-05
2278	9.52e-05
2290	0.0001836
2302	0.0002992
2314	0.0004896
2326	0.0006188
2338	0.0005032
2350	0.0003468
2362	0.0004896
2374	0.0004012
2386	0.0002312
2398	0.0002312
2410	0.0002244
2422	0.0002652
2434	0.0002108
2446	0.0001768
2458	0.0001224
2470	9.52e-05
2482	9.52e-05
2494	6.12e-05
2506	6.8e-05
2518	5.44e-05
2530	2.72e-05
2542	0
2554	2.04e-05
2566	4.08e-05
2578	8.16e-05
2590	8.16e-05
2602	9.52e-05
2614	9.52e-05
2626	0.0001224
2638	0.0001904
2650	0.0002448
2662	0.0002584
2674	0.000306
2686	0.00034
2698	0.0003808
2710	0.0002652
2722	0.00017
2734	0.00017
2746	0.000204
2758	0.0001564
2770	0.000136
2782	0.000136
2794	0.0001768
2806	0.0002176
2818	0.0002584
2830	0.000374
2842	0.0004692
2854	0.0006528
2866	0.0010336
2878	0.0014144
2890	0.001428
2902	0.0009656
2914	0.0006256
2926	0.00051
2938	0.0004896
2950	0.0004964
2962	0.0005712
2974	0.0008704
2986	0.001598
2998	0.0017612
3010	0.0010404
3022	0.0008636
3034	0.0011084
3046	0.0013464
3058	0.0020604
3070	0.0042568
3082	0.005338
3094	0.0025228
3106	0.0008568
3118	0.00051
3130	0.0003536
3142	0.0002856
3154	0.0002856
3166	0.0002108
3178	0.000136
3190	0.0001632
3202	9.52e-05
3214	7.48e-05
3226	2.04e-05
3238	4.08e-05
3250	0
3262	4.76e-05
3274	0
3286	3.4e-05
3298	2.04e-05
3310	4.08e-05
3322	0.000102
3334	0.0001428
3346	8.16e-05
3358	2.72e-05
3370	5.44e-05
3382	6.8e-05
3394	4.76e-05
3406	7.48e-05
3418	2.04e-05
3430	0.000102
3442	4.76e-05
3454	7.48e-05
3466	4.76e-05
3478	8.16e-05
3490	6.8e-05
3502	8.16e-05
3514	0.000102
3526	0.0001088
3538	0.0001156
3550	6.12e-05
3562	0.0001156
3574	0.0001088
3586	0.0001768
3598	0.00017
3610	0.0001224
3622	0.0001496
3634	0.0001768
3646	0.0001904
3658	0.000136
3670	0.0001564
3682	0.0001428
3694	0.0001428
3706	0.000136
3718	0.0001768
3730	0.0001428
3742	0.0001428
3754	0.0001428
3766	0.000102
3778	0.0001156
3790	0.0001292
3802	0.00017
3814	0.0001428
3826	0.0001836
3838	0.000136
