Infrared Spectrum: 2-Ethoxyphenethylamine
Formula: C 10 H 15 N O
CAS: 39590-27-7
State: gas
Origin: EPA-IR VAPOR PHASE LIBRARY
1/CM	ABSORBANCE
549.8	0.00323
559.445	0.00334
569.09	0.00378
578.734	0.00463
588.379	0.00497
598.024	0.00534
607.669	0.00498
617.313	0.00402
626.958	0.00368
636.603	0.00402
646.248	0.00437
655.893	0.0046
665.537	0.00502
675.182	0.00563
684.827	0.00648
694.472	0.00737
704.116	0.00989
713.761	0.0148
723.406	0.02346
733.051	0.03451
742.695	0.05062
752.34	0.05468
761.985	0.04036
771.63	0.03361
781.275	0.03007
790.919	0.02549
800.564	0.02121
810.209	0.01767
819.854	0.01414
829.498	0.01161
839.143	0.00898
848.788	0.00743
858.433	0.00662
868.078	0.0062
877.722	0.0062
887.367	0.00668
897.012	0.00858
906.657	0.01021
916.301	0.01101
925.946	0.01047
935.591	0.00782
945.236	0.00524
954.88	0.00468
964.525	0.00468
974.17	0.00508
983.815	0.00608
993.46	0.00678
1003.1	0.00823
1012.75	0.01148
1022.39	0.01779
1032.04	0.02944
1041.68	0.04435
1051.33	0.04509
1060.97	0.03005
1070.62	0.01995
1080.26	0.01645
1089.91	0.01843
1099.55	0.02504
1109.2	0.03187
1118.84	0.03337
1128.49	0.02855
1138.13	0.02159
1147.78	0.01422
1157.42	0.01089
1167.07	0.01047
1176.71	0.01334
1186.36	0.01736
1196	0.01557
1205.64	0.0182
1215.29	0.03846
1224.93	0.08315
1234.58	0.11905
1244.22	0.09725
1253.87	0.04549
1263.51	0.02103
1273.16	0.01617
1282.8	0.01715
1292.45	0.01742
1302.09	0.0151
1311.74	0.01267
1321.38	0.01057
1331.03	0.00896
1340.67	0.00824
1350.32	0.00859
1359.96	0.00929
1369.61	0.01072
1379.25	0.0152
1388.9	0.02102
1398.54	0.0185
1408.18	0.01073
1417.83	0.00756
1427.47	0.00855
1437.12	0.01436
1446.76	0.02758
1456.41	0.02988
1466.05	0.0224
1475.7	0.03759
1485.34	0.06
1494.99	0.05411
1504.63	0.0258
1514.28	0.01069
1523.92	0.00646
1533.57	0.00514
1543.21	0.00479
1552.86	0.00527
1562.5	0.00691
1572.15	0.01171
1581.79	0.01918
1591.44	0.02282
1601.08	0.02013
1610.73	0.01423
1620.37	0.01089
1630.01	0.00881
1639.66	0.00587
1649.3	0.00409
1658.95	0.00329
1668.59	0.0028
1678.24	0.00254
1687.88	0.00218
1697.53	0.00188
1707.17	0.00179
1716.82	0.00162
1726.46	0.0016
1736.11	0.00148
1745.75	0.00162
1755.4	0.0018
1765.04	0.00194
1774.69	0.00185
1784.33	0.00169
1793.98	0.0017
1803.62	0.00167
1813.27	0.00156
1822.91	0.00141
1832.55	0.00145
1842.2	0.00155
1851.84	0.00166
1861.49	0.00155
1871.13	0.0017
1880.78	0.00244
1890.42	0.00251
1900.07	0.00194
1909.71	0.00176
1919.36	0.00229
1929	0.00236
1938.65	0.00163
1948.29	0.00138
1957.94	0.00127
1967.58	0.00123
1977.23	0.00123
1986.87	0.00109
1996.52	0.00109
2006.16	0.00108
2015.81	0.00115
2025.45	0.00117
2035.1	0.0013
2044.74	0.00142
2054.38	0.00132
2064.03	0.00112
2073.67	0.00104
2083.32	0.0008575
2092.96	0.0008303
2102.61	0.0006723
2112.25	0.0006693
2121.9	0.0006531
2131.54	0.0006277
2141.19	0.0006987
2150.83	0.0005486
2160.48	0.0005814
2170.12	0.0005446
2179.77	0.0005408
2189.41	0.0004955
2199.06	0.0006453
2208.7	0.0006414
2218.35	0.0005667
2227.99	0.0006787
2237.64	0.00068
2247.28	0.0006356
2256.92	0.000534
2266.57	0.0006653
2276.21	0.0005958
2285.86	0.0006742
2295.5	0.0006471
2305.15	0.0006098
2314.79	0.0007009
2324.44	0.0007421
2334.08	0.0006026
2343.73	0.0005274
2353.37	0.0004338
2363.02	0.0005024
2372.66	0.0006411
2382.31	0.0006662
2391.95	0.0006202
2401.6	0.0008065
2411.24	0.0008443
2420.89	0.00102
2430.53	0.00101
2440.18	0.00102
2449.82	0.00115
2459.47	0.00134
2469.11	0.00127
2478.75	0.00121
2488.4	0.0009856
2498.04	0.0009096
2507.69	0.0009388
2517.33	0.00105
2526.98	0.0011
2536.62	0.0009711
2546.27	0.0009519
2555.91	0.00101
2565.56	0.00102
2575.2	0.0009554
2584.85	0.00111
2594.49	0.00108
2604.14	0.001
2613.78	0.00114
2623.43	0.00108
2633.07	0.00106
2642.72	0.00115
2652.36	0.00126
2662.01	0.00118
2671.65	0.00137
2681.29	0.00131
2690.94	0.00147
2700.58	0.0017
2710.23	0.00177
2719.87	0.00225
2729.52	0.0026
2739.16	0.00281
2748.81	0.00279
2758.45	0.00289
2768.1	0.0029
2777.74	0.00298
2787.39	0.00289
2797.03	0.00343
2806.68	0.00392
2816.32	0.00492
2825.97	0.00633
2835.61	0.00879
2845.26	0.01309
2854.9	0.01862
2864.55	0.02301
2874.19	0.02738
2883.84	0.03033
2893.48	0.02939
2903.12	0.03066
2912.77	0.037
2922.41	0.04172
2932.06	0.04522
2941.7	0.04634
2951.35	0.04052
2960.99	0.03302
2970.64	0.02862
2980.28	0.03475
2989.93	0.03543
2999.57	0.01936
3009.22	0.0125
3018.86	0.01465
3028.51	0.01827
3038.15	0.01595
3047.8	0.0122
3057.44	0.01326
3067.09	0.01849
3076.73	0.02053
3086.38	0.01335
3096.02	0.00694
3105.67	0.00505
3115.31	0.00339
3124.95	0.00189
3134.6	0.00147
3144.24	0.00124
3153.89	0.00131
3163.53	0.00125
3173.18	0.00103
3182.82	0.000894
3192.47	0.0007481
3202.11	0.0007319
3211.76	0.0006563
3221.4	0.000465
3231.05	0.0006751
3240.69	0.000393
3250.34	0.0002764
3259.98	0.0004194
3269.63	0.0002488
3279.27	0.0004232
3288.92	0.000372
3298.56	0.0003554
3308.21	0.0005332
3317.85	0.0007041
3327.49	0.0006125
3337.14	0.0009952
3346.78	0.0009308
3356.43	0.0005261
3366.07	0.0005125
3375.72	0.0003544
3385.36	0.0006506
3395.01	0.0006089
3404.65	0.0007438
3414.3	0.0005508
3423.94	0.0006198
3433.59	0.0006316
3443.23	0.0003439
3452.88	0.0004104
3462.52	0.0003427
3472.17	0.0003401
3481.81	0.0004981
3491.46	0.0001879
3501.1	0.0002043
3510.75	0.0001262
3520.39	9.457e-05
3530.04	0.0002592
3539.68	0.0002212
3549.32	0.0001218
3558.97	0.0002287
3568.61	0.0001571
3578.26	0.0003485
3587.9	0.0001945
3597.55	0.0003114
3607.19	0.0003347
3616.84	0.0003727
3626.48	0.0003642
3636.13	0.0003655
3645.77	0.0003782
3655.42	0.0004466
3665.06	0.0003931
3674.71	0.0002702
3684.35	0.0003055
3694	0.0002766
3703.64	0.000293
3713.29	0.0004462
3722.93	0.0001854
3732.58	0.0002826
3742.22	0.0004217
3751.86	0.0002011
3761.51	0.0002565
3771.15	0.0003758
3780.8	0.0003361
3790.44	0.0003601
3800.09	0.0003255
3809.73	0.0004894
3819.38	0.0002815
3829.02	0.0002742
3838.67	0.0002746
3848.31	0.0005919
3857.96	0.0005026
3867.6	0.0005864
3877.25	0.0004715
3886.89	0.0007567
3896.54	0.0006638
3906.18	0.0004351
3915.83	0.0004677
3925.47	0.0004469
3935.12	0.0005797
3944.76	0.0004959
3954.41	0.0005735
3964.05	0.0005311
3973.69	0.0005757
3983.34	0.0005452
3992.98	0.0006385
