Infrared Spectrum: p,p'-BIPHENOL, 2,2'-DIFLUORO-
Formula: C12 H8 F2 O2
CAS: 396-86-1
State: SOLID (OIL MULL)
Class: COBLENTZ III
Instrument: BAIRD NaCl PRISM
Sampling: TRANSMISSION
Resolution: 4
Origin: WYANDOTTE CHEMICALS CORP.
MICROMETERS	TRANSMITTANCE
2.076	0.256
2.11512	0.259
2.15424	0.269
2.19335	0.287
2.23247	0.296
2.27159	0.299
2.31071	0.308
2.34983	0.318
2.38895	0.337
2.42806	0.352
2.46718	0.366
2.5063	0.38
2.54542	0.398
2.58454	0.417
2.62365	0.447
2.66277	0.452
2.70189	0.485
2.74101	0.497
2.78013	0.519
2.81925	0.55
2.85836	0.522
2.89748	0.399
2.9366	0.262
2.97572	0.14
3.01484	0.061
3.05396	0.041
3.09307	0.045
3.13219	0.077
3.17131	0.138
3.21043	0.203
3.24955	0.251
3.28866	0.275
3.32778	0.271
3.3669	0.19
3.40602	0.029
3.44514	0.017
3.48426	0.019
3.52337	0.036
3.56249	0.085
3.60161	0.449
3.64073	0.49
3.67985	0.5
3.71896	0.486
3.75808	0.518
3.7972	0.527
3.83632	0.544
3.87544	0.552
3.91456	0.555
3.95367	0.568
3.99279	0.593
4.03191	0.603
4.07103	0.62
4.11015	0.615
4.14926	0.626
4.18838	0.648
4.2275	0.653
4.26662	0.659
4.30574	0.663
4.34486	0.679
4.38397	0.7
4.42309	0.714
4.46221	0.732
4.50133	0.742
4.54045	0.754
4.57956	0.762
4.61868	0.773
4.6578	0.778
4.69692	0.783
4.73604	0.8
4.77516	0.813
4.81427	0.814
4.85339	0.81
4.89251	0.815
4.93163	0.82
4.97075	0.832
5.00987	0.855
5.04898	0.863
5.0881	0.869
5.12722	0.869
5.16634	0.874
5.20546	0.886
5.24457	0.904
5.28369	0.909
5.32281	0.915
5.36193	0.893
5.40105	0.886
5.44017	0.923
5.47928	0.941
5.5184	0.952
5.55752	0.955
5.59664	0.958
5.63576	0.974
5.67487	0.974
5.71399	0.972
5.75311	0.944
5.79223	0.96
5.83135	0.961
5.87047	0.96
5.90958	0.957
5.9487	0.942
5.98782	0.932
6.02694	0.89
6.06606	0.889
6.10517	0.511
6.14429	0.404
6.18341	0.581
6.22253	0.187
6.26165	0.524
6.30077	0.681
6.33988	0.794
6.379	0.878
6.41812	0.904
6.45724	0.771
6.49636	0.626
6.53547	0.53
6.57459	0.16
6.61371	0.033
6.65283	0.033
6.69195	0.251
6.73107	0.441
6.77018	0.404
6.8093	0.189
6.84842	0.202
6.88754	0.251
6.92666	0.388
6.96578	0.45
7.00489	0.377
7.04401	0.12
7.08313	0.12
7.12225	0.12
7.16137	0.124
7.20048	0.132
7.2396	0.141
7.27872	0.13
7.31784	0.228
7.35696	0.314
7.39608	0.38
7.43519	0.495
7.47431	0.604
7.51343	0.678
7.55255	0.681
7.59167	0.402
7.63078	0.562
7.6699	0.653
7.70902	0.469
7.74814	0.114
7.78726	0.074
7.82638	0.046
7.86549	0.109
7.90461	0.078
7.94373	0.051
7.98285	0.023
8.02197	0.03
8.06108	0.046
8.1002	0.085
8.13932	0.103
8.17844	0.142
8.21756	0.242
8.25668	0.329
8.29579	0.399
8.33491	0.433
8.37403	0.331
8.41315	0.298
8.45227	0.407
8.49138	0.472
8.5305	0.487
8.56962	0.517
8.60874	0.523
8.64786	0.531
8.68698	0.567
8.72609	0.605
8.76521	0.63
8.80433	0.617
8.84345	0.452
8.88257	0.17
8.92169	0.154
8.9608	0.201
8.99992	0.444
9.03904	0.561
9.07816	0.609
9.11728	0.648
9.15639	0.669
9.19551	0.683
9.23463	0.694
9.27375	0.703
9.31287	0.726
9.35199	0.734
9.3911	0.74
9.43022	0.756
9.46934	0.769
9.50846	0.771
9.54758	0.769
9.58669	0.759
9.62581	0.726
9.66493	0.601
9.70405	0.503
9.74317	0.681
9.78229	0.734
9.8214	0.748
9.86052	0.765
9.89964	0.783
9.93876	0.803
9.97788	0.81
10.017	0.82
10.0561	0.826
10.0952	0.829
10.1343	0.828
10.1735	0.83
10.2126	0.831
10.2517	0.823
10.2908	0.819
10.3299	0.821
10.3691	0.819
10.4082	0.816
10.4473	0.82
10.4864	0.818
10.5255	0.792
10.5646	0.691
10.6038	0.558
10.6429	0.501
10.682	0.53
10.7211	0.695
10.7602	0.764
10.7994	0.83
10.8385	0.858
10.8776	0.872
10.9167	0.877
10.9558	0.88
10.9949	0.889
11.0341	0.899
11.0732	0.895
11.1123	0.896
11.1514	0.896
11.1905	0.901
11.2297	0.912
11.2688	0.923
11.3079	0.922
11.347	0.911
11.3861	0.859
11.4253	0.776
11.4644	0.7
11.5035	0.433
11.5426	0.457
11.5817	0.39
11.6208	0.171
11.66	0.201
11.6991	0.27
11.7382	0.502
11.7773	0.734
11.8164	0.812
11.8556	0.851
11.8947	0.867
11.9338	0.873
11.9729	0.856
12.012	0.803
12.0511	0.628
12.0903	0.563
12.1294	0.658
12.1685	0.571
12.2076	0.428
12.2467	0.359
12.2859	0.3
12.325	0.307
12.3641	0.219
12.4032	0.164
12.4423	0.283
12.4814	0.441
12.5206	0.535
12.5597	0.653
12.5988	0.766
12.6379	0.846
12.677	0.882
12.7162	0.899
12.7553	0.864
12.7944	0.719
12.8335	0.418
12.8726	0.138
12.9117	0.068
12.9509	0.175
12.99	0.393
13.0291	0.597
13.0682	0.701
13.1073	0.764
13.1465	0.805
13.1856	0.83
13.2247	0.853
13.2638	0.874
13.3029	0.883
13.342	0.888
13.3812	0.89
13.4203	0.893
13.4594	0.893
13.4985	0.888
13.5376	0.884
13.5768	0.886
13.6159	0.88
13.655	0.88
13.6941	0.874
13.7332	0.875
13.7723	0.872
13.8115	0.859
13.8506	0.851
13.8897	0.845
13.9288	0.853
13.9679	0.869
14.0071	0.891
14.0462	0.9
14.0853	0.905
14.1244	0.91
14.1635	0.912
14.2026	0.917
14.2418	0.928
14.2809	0.933
14.32	0.932
14.3591	0.931
14.3982	0.925
14.4374	0.927
14.4765	0.918
14.5156	0.915
14.5547	0.911
14.5938	0.899
14.6329	0.879
14.6721	0.861
14.7112	0.835
14.7503	0.799
14.7894	0.788
14.8285	0.794
14.8677	0.805
14.9068	0.818
14.9459	0.823
14.985	0.807
15.0241	0.78
15.0632	0.75
15.1024	0.755
15.1415	0.778
15.1806	0.789
15.2197	0.773
15.2588	0.762
15.298	0.742
15.3371	0.735
15.3762	0.723
15.4153	0.711
15.4544	0.701
15.4935	0.679
15.5327	0.669
15.5718	0.658
15.6109	0.646
15.65	0.632
15.6891	0.624
15.7283	0.614
15.7674	0.611
15.8065	0.601
15.8456	0.592
15.8847	0.579
15.9238	0.563
15.963	0.561
