Infrared Spectrum: 2-Naphthhydrazide
Formula: C 11 H 10 N 2 O
CAS: 39627-84-4
State: gas
Origin: EPA-IR VAPOR PHASE LIBRARY
1/CM	ABSORBANCE
549.8	0.001746
559.445	0.001236
569.09	0.0008762
578.734	0.001416
588.379	0.001766
598.024	0.001226
607.669	0.001176
617.313	0.0011253
626.958	0.001206
636.603	0.001156
646.248	0.0009247
655.893	0.00096
665.537	0.0007571
675.182	0.0006501
684.827	0.0008717
694.472	0.0008458
704.116	0.0008841
713.761	0.0007077
723.406	0.001416
733.051	0.002016
742.695	0.003246
752.34	0.005156
761.985	0.005296
771.63	0.004676
781.275	0.003126
790.919	0.002676
800.564	0.002776
810.209	0.004366
819.854	0.004326
829.498	0.002906
839.143	0.002556
848.788	0.003156
858.433	0.004076
868.078	0.003146
877.722	0.002796
887.367	0.003446
897.012	0.003306
906.657	0.003346
916.301	0.004176
925.946	0.006956
935.591	0.008516
945.236	0.005166
954.88	0.003256
964.525	0.003576
974.17	0.002476
983.815	0.001366
993.46	0.0009542
1003.1	0.0007216
1012.75	0.001226
1022.39	0.0010579
1032.04	0.0005757
1041.68	0.00012016
1051.33	0.00021257
1060.97	0.00015256
1070.62	0.0004936
1080.26	0.0006412
1089.91	0.0006695
1099.55	0.0002825
1109.2	0.0008711
1118.84	0.001616
1128.49	0.001846
1138.13	0.001126
1147.78	0.000951
1157.42	0.001636
1167.07	0.0009393
1176.71	0.0008877
1186.36	0.0010996
1196	0.002126
1205.64	0.002406
1215.29	0.001796
1224.93	0.003486
1234.58	0.005376
1244.22	0.003766
1253.87	0.002896
1263.51	0.004036
1273.16	0.006006
1282.8	0.010656
1292.45	0.010746
1302.09	0.004576
1311.74	0.002226
1321.38	0.001776
1331.03	0.001606
1340.67	0.001506
1350.32	0.001456
1359.96	0.001356
1369.61	0.001336
1379.25	0.001496
1388.9	0.001796
1398.54	0.002046
1408.18	0.002726
1417.83	0.004676
1427.47	0.008836
1437.12	0.012276
1446.76	0.013276
1456.41	0.008916
1466.05	0.008706
1475.7	0.010876
1485.34	0.008536
1494.99	0.005906
1504.63	0.004446
1514.28	0.003136
1523.92	0.002126
1533.57	0.001566
1543.21	0.001426
1552.86	0.001276
1562.5	0.001356
1572.15	0.001796
1581.79	0.001816
1591.44	0.002036
1601.08	0.002496
1610.73	0.002976
1620.37	0.004096
1630.01	0.006006
1639.66	0.005846
1649.3	0.003916
1658.95	0.003346
1668.59	0.004166
1678.24	0.006016
1687.88	0.011806
1697.53	0.023986
1707.17	0.019896
1716.82	0.007796
1726.46	0.004606
1736.11	0.003096
1745.75	0.001846
1755.4	0.001336
1765.04	0.001146
1774.69	0.0010115
1784.33	0.0009415
1793.98	0.0009611
1803.62	0.0007827
1813.27	0.0007151
1822.91	0.0007027
1832.55	0.0006548
1842.2	0.000516
1851.84	0.0004816
1861.49	0.0004853
1871.13	0.0004944
1880.78	0.0005137
1890.42	0.0005239
1900.07	0.0006815
1909.71	0.0006976
1919.36	0.0006795
1929	0.0006267
1938.65	0.0006677
1948.29	0.0007206
1957.94	0.0004199
1967.58	0.0003974
1977.23	0.00018876
1986.87	0.0003103
1996.52	0.0003428
2006.16	0.00018969
2015.81	0.0002285
2025.45	0.0002878
2035.1	0.0002914
2044.74	0.0002621
2054.38	0.00020094
2064.03	0.0002572
2073.67	0.0002273
2083.32	0.0002724
2092.96	0.000267
2102.61	0.00014338
2112.25	0.0002356
2121.9	0.0002904
2131.54	0.0002449
2141.19	0.0002262
2150.83	0.0002299
2160.48	0.000269
2170.12	0.0002003
2179.77	0.0002487
2189.41	0.0002728
2199.06	0.00019555
2208.7	0.0002609
2218.35	0.000128215
2227.99	0.0002365
2237.64	0.0002361
2247.28	0.0002478
2256.92	0.000264
2266.57	0.0002506
2276.21	0.0003262
2285.86	0.0003703
2295.5	0.0003947
2305.15	0.0002903
2314.79	0.0003081
2324.44	0.0003446
2334.08	0.00020337
2343.73	0.0002834
2353.37	0.0003886
2363.02	0.0003038
2372.66	0.00020496
2382.31	0.0004278
2391.95	0.000236
2401.6	0.0002513
2411.24	0.0002941
2420.89	0.000301
2430.53	0.0002626
2440.18	0.0003349
2449.82	0.0002438
2459.47	0.00016992
2469.11	0.00014968
2478.75	0.0002802
2488.4	0.0002575
2498.04	0.0003404
2507.69	0.0003493
2517.33	0.00022358
2526.98	0.0003153
2536.62	0.0003665
2546.27	0.00018616
2555.91	0.0002568
2565.56	0.0004272
2575.2	0.0002
2584.85	0.0002474
2594.49	0.00019511
2604.14	0.000128347
2613.78	0.00015237
2623.43	0.0003186
2633.07	0.0002669
2642.72	0.00022428
2652.36	0.0002357
2662.01	0.0003015
2671.65	0.0002324
2681.29	0.0002976
2690.94	0.0002822
2700.58	0.0002283
2710.23	0.0002608
2719.87	0.0003294
2729.52	0.0003026
2739.16	0.0003124
2748.81	0.0002791
2758.45	0.0003803
2768.1	0.0003647
2777.74	0.000302
2787.39	0.0002503
2797.03	0.0003034
2806.68	0.0003237
2816.32	0.0004288
2825.97	0.00015964
2835.61	0.0002452
2845.26	0.0002707
2854.9	0.0003357
2864.55	0.0003202
2874.19	0.00018536
2883.84	0.0003276
2893.48	0.0002917
2903.12	0.00022434
2912.77	0.0003074
2922.41	0.0004736
2932.06	0.0003912
2941.7	0.0004414
2951.35	0.0004623
2960.99	0.0004583
2970.64	0.0004302
2980.28	0.0004904
2989.93	0.0007104
2999.57	0.0005495
3009.22	0.0008442
3018.86	0.001266
3028.51	0.001606
3038.15	0.001506
3047.8	0.002796
3057.44	0.005266
3067.09	0.006656
3076.73	0.004366
3086.38	0.002316
3096.02	0.001216
3105.67	0.000793
3115.31	0.0005162
3124.95	0.0004123
3134.6	0.0005358
3144.24	0.000274
3153.89	0.0003824
3163.53	0.0003377
3173.18	0.0002889
3182.82	0.0004605
3192.47	0.0003275
3202.11	0.0004967
3211.76	0.0005058
3221.4	0.0005783
3231.05	0.000607
3240.69	0.0003074
3250.34	0.0005238
3259.98	0.0002657
3269.63	0.0003954
3279.27	0.0005041
3288.92	0.0004096
3298.56	0.00015856
3308.21	0.0002706
3317.85	0.0003599
3327.49	0.0003923
3337.14	0.0004277
3346.78	0.0005054
3356.43	0.0003392
3366.07	0.0003387
3375.72	0.0004968
3385.36	0.0007009
3395.01	0.0005608
3404.65	0.0005301
3414.3	0.0004315
3423.94	0.0006153
3433.59	0.0010077
3443.23	0.0011019
3452.88	0.001686
3462.52	0.002416
3472.17	0.003346
3481.81	0.002576
3491.46	0.001476
3501.1	0.0008072
3510.75	0.0007557
3520.39	0.0005251
3530.04	0.0004721
3539.68	0.00014674
3549.32	0.000622
3558.97	0.000253
3568.61	0.000358
3578.26	0.0002481
3587.9	0.0005319
3597.55	0.0004768
3607.19	0.0002923
3616.84	0.0002646
3626.48	0.0003365
3636.13	0.0004076
3645.77	0.0004319
3655.42	0.0003197
3665.06	0.00019958
3674.71	0.0003473
3684.35	0.00017266
3694	0.0002819
3703.64	0.0002561
3713.29	8.91e-05
3722.93	0.00015934
3732.58	0.00019447
3742.22	0.000307
3751.86	0.00017606
3761.51	0.0003147
3771.15	0.0002721
3780.8	0.00021229
3790.44	0.0003141
3800.09	0.0002544
3809.73	0.00020588
3819.38	0.0004035
3829.02	0.0002775
3838.67	0.0004678
3848.31	0.0004982
3857.96	0.0003422
3867.6	7.08e-05
3877.25	0.0002675
3886.89	0.000462
3896.54	0.0002844
3906.18	0.0002707
3915.83	0.0003316
3925.47	0.0002643
3935.12	0.00016949
3944.76	0.0001646
3954.41	0.0001084
3964.05	0.0002529
3973.69	0.0002969
3983.34	0.00022201
3992.98	0.0003639
