Infrared Spectrum: N-(2-Aminophenyl)piperidine
Formula: C 11 H 16 N 2
CAS: 39643-31-7
State: gas
Origin: EPA-IR VAPOR PHASE LIBRARY
1/CM	ABSORBANCE
549.8	0.015
559.445	0.0147
569.09	0.01516
578.734	0.01519
588.379	0.01627
598.024	0.01725
607.669	0.01751
617.313	0.01862
626.958	0.01818
636.603	0.01707
646.248	0.01568
655.893	0.01439
665.537	0.01334
675.182	0.01251
684.827	0.01162
694.472	0.01137
704.116	0.01187
713.761	0.01508
723.406	0.02911
733.051	0.06162
742.695	0.07522
752.34	0.04171
761.985	0.01923
771.63	0.01334
781.275	0.01132
790.919	0.01061
800.564	0.01044
810.209	0.01111
819.854	0.00899
829.498	0.00899
839.143	0.01015
848.788	0.0101
858.433	0.01287
868.078	0.01163
877.722	0.00751
887.367	0.00845
897.012	0.01063
906.657	0.01474
916.301	0.02691
925.946	0.02715
935.591	0.011
945.236	0.00723
954.88	0.00669
964.525	0.00601
974.17	0.00587
983.815	0.00507
993.46	0.00533
1003.1	0.00602
1012.75	0.00836
1022.39	0.01676
1032.04	0.02466
1041.68	0.0224
1051.33	0.01449
1060.97	0.01191
1070.62	0.0091
1080.26	0.00786
1089.91	0.00863
1099.55	0.01369
1109.2	0.02023
1118.84	0.0207
1128.49	0.02182
1138.13	0.02546
1147.78	0.02164
1157.42	0.016
1167.07	0.00886
1176.71	0.0091
1186.36	0.01433
1196	0.02674
1205.64	0.05028
1215.29	0.062
1224.93	0.05338
1234.58	0.03748
1244.22	0.02671
1253.87	0.03587
1263.51	0.04465
1273.16	0.03713
1282.8	0.03181
1292.45	0.02953
1302.09	0.01789
1311.74	0.01784
1321.38	0.02084
1331.03	0.01446
1340.67	0.00824
1350.32	0.0083
1359.96	0.00901
1369.61	0.01311
1379.25	0.0214
1388.9	0.01542
1398.54	0.00815
1408.18	0.00757
1417.83	0.00719
1427.47	0.00944
1437.12	0.01617
1446.76	0.02899
1456.41	0.03753
1466.05	0.0248
1475.7	0.02142
1485.34	0.04151
1494.99	0.09234
1504.63	0.08247
1514.28	0.02942
1523.92	0.01664
1533.57	0.01014
1543.21	0.01004
1552.86	0.01101
1562.5	0.01412
1572.15	0.0201
1581.79	0.02846
1591.44	0.03654
1601.08	0.05406
1610.73	0.06924
1620.37	0.04703
1630.01	0.01962
1639.66	0.01046
1649.3	0.00737
1658.95	0.00601
1668.59	0.00493
1678.24	0.00386
1687.88	0.00354
1697.53	0.00283
1707.17	0.00246
1716.82	0.00232
1726.46	0.00191
1736.11	0.00232
1745.75	0.0025
1755.4	0.00301
1765.04	0.0029
1774.69	0.00248
1784.33	0.00226
1793.98	0.00253
1803.62	0.00236
1813.27	0.00185
1822.91	0.00202
1832.55	0.00227
1842.2	0.00241
1851.84	0.0025
1861.49	0.00306
1871.13	0.00358
1880.78	0.0032
1890.42	0.00225
1900.07	0.0032
1909.71	0.00386
1919.36	0.00263
1929	0.00203
1938.65	0.00175
1948.29	0.00184
1957.94	0.00155
1967.58	0.00135
1977.23	0.00141
1986.87	0.00116
1996.52	0.00122
2006.16	0.00123
2015.81	0.00122
2025.45	0.00128
2035.1	0.00155
2044.74	0.00155
2054.38	0.00154
2064.03	0.0013
2073.67	0.0013
2083.32	0.00128
2092.96	0.00125
2102.61	0.00153
2112.25	0.00121
2121.9	0.00118
2131.54	0.00126
2141.19	0.0013
2150.83	0.00122
2160.48	0.00142
2170.12	0.00147
2179.77	0.00123
2189.41	0.00138
2199.06	0.0011
2208.7	0.00136
2218.35	0.00151
2227.99	0.00176
2237.64	0.00133
2247.28	0.00136
2256.92	0.00111
2266.57	0.00103
2276.21	0.00122
2285.86	0.00105
2295.5	0.00127
2305.15	0.00165
2314.79	0.0016
2324.44	0.00132
2334.08	0.00114
2343.73	0.00126
2353.37	0.00122
2363.02	0.00131
2372.66	0.00104
2382.31	0.00122
2391.95	0.00131
2401.6	0.00123
2411.24	0.00146
2420.89	0.00163
2430.53	0.00157
2440.18	0.00175
2449.82	0.00146
2459.47	0.00149
2469.11	0.00139
2478.75	0.00155
2488.4	0.00158
2498.04	0.0016
2507.69	0.00174
2517.33	0.00171
2526.98	0.00167
2536.62	0.00165
2546.27	0.00167
2555.91	0.00151
2565.56	0.00176
2575.2	0.00227
2584.85	0.00278
2594.49	0.0031
2604.14	0.0032
2613.78	0.00308
2623.43	0.00308
2633.07	0.0033
2642.72	0.00396
2652.36	0.00432
2662.01	0.00544
2671.65	0.00652
2681.29	0.00655
2690.94	0.00741
2700.58	0.00787
2710.23	0.00683
2719.87	0.0069
2729.52	0.00851
2739.16	0.0108
2748.81	0.012
2758.45	0.01054
2768.1	0.01029
2777.74	0.01408
2787.39	0.02417
2797.03	0.04445
2806.68	0.06452
2816.32	0.056
2825.97	0.03072
2835.61	0.01987
2845.26	0.02194
2854.9	0.03439
2864.55	0.0443
2874.19	0.0311
2883.84	0.01822
2893.48	0.0191
2903.12	0.02388
2912.77	0.03837
2922.41	0.07117
2932.06	0.13447
2941.7	0.2039
2951.35	0.12956
2960.99	0.0478
2970.64	0.02259
2980.28	0.00988
2989.93	0.00608
2999.57	0.00551
3009.22	0.0079
3018.86	0.01555
3028.51	0.02416
3038.15	0.02314
3047.8	0.01993
3057.44	0.02195
3067.09	0.02539
3076.73	0.0241
3086.38	0.01489
3096.02	0.00784
3105.67	0.00444
3115.31	0.00304
3124.95	0.00212
3134.6	0.00184
3144.24	0.00158
3153.89	0.00177
3163.53	0.00212
3173.18	0.00177
3182.82	0.00167
3192.47	0.00136
3202.11	0.00114
3211.76	0.0009996
3221.4	0.0008734
3231.05	0.0005696
3240.69	0.0006549
3250.34	0.0008033
3259.98	0.00106
3269.63	0.00105
3279.27	0.0007099
3288.92	0.00136
3298.56	0.0004147
3308.21	0.0005974
3317.85	0.0006466
3327.49	0.0008951
3337.14	0.00119
3346.78	0.00249
3356.43	0.00648
3366.07	0.01301
3375.72	0.01325
3385.36	0.00771
3395.01	0.00438
3404.65	0.00317
3414.3	0.00236
3423.94	0.00234
3433.59	0.00226
3443.23	0.00267
3452.88	0.00461
3462.52	0.00923
3472.17	0.01556
3481.81	0.01587
3491.46	0.00972
3501.1	0.00513
3510.75	0.0037
3520.39	0.00301
3530.04	0.00232
3539.68	0.00126
3549.32	0.0009599
3558.97	0.0007635
3568.61	0.0006484
3578.26	0.0006346
3587.9	0.0008229
3597.55	0.0005973
3607.19	0.0005463
3616.84	0.0004837
3626.48	0.0005169
3636.13	0.0007902
3645.77	0.0007028
3655.42	0.0008129
3665.06	0.0005079
3674.71	0.0005995
3684.35	0.0004759
3694	0.000714
3703.64	0.0008967
3713.29	0.0004212
3722.93	0.00114
3732.58	0.0007612
3742.22	0.0004362
3751.86	0.0009959
3761.51	0.000414
3771.15	0.000703
3780.8	0.001
3790.44	0.0005631
3800.09	0.0007044
3809.73	0.0007867
3819.38	0.00109
3829.02	0.0009215
3838.67	0.0007515
3848.31	0.0007795
3857.96	0.0008692
3867.6	0.0009834
3877.25	0.0009652
3886.89	0.00117
3896.54	0.00123
3906.18	0.00119
3915.83	0.00111
3925.47	0.0008611
3935.12	0.00121
3944.76	0.00149
3954.41	0.00117
3964.05	0.00136
3973.69	0.0016
3983.34	0.00105
3992.98	0.00104
