Infrared Spectrum: 2-CHLORO-4-CYCLOHEXYL PHENOL
Formula: C12 H15 Cl O
CAS: 3964-61-2
State: SOLUTION (10% CCl4 FOR 5000-1330, 10% CS2 FOR 1330-625 CM^-^1)
Class: COBLENTZ
Instrument: Not specified, most likely a prism, grating, or hybrid spectrometer.
Sampling: TRANSMISSION
Path length: 0.0120 CM, 0.0120 CM
Resolution: 4
Origin: DOW CHEMICAL COMPANY
MICROMETERS	TRANSMITTANCE
2.021	0.892
2.06214	0.888
2.10327	0.9
2.14441	0.902
2.18554	0.902
2.22668	0.89
2.26782	0.887
2.30895	0.892
2.35009	0.892
2.39122	0.892
2.43236	0.9
2.47349	0.89
2.51463	0.89
2.55577	0.897
2.5969	0.9
2.63804	0.895
2.67917	0.89
2.72031	0.832
2.76145	0.567
2.80258	0.666
2.84372	0.791
2.88485	0.832
2.92599	0.841
2.96712	0.83
3.00826	0.823
3.0494	0.82
3.09053	0.813
3.13167	0.811
3.1728	0.803
3.21394	0.767
3.25508	0.74
3.29621	0.735
3.33735	0.447
3.37848	0.112
3.41962	0.415
3.46075	0.374
3.50189	0.762
3.54303	0.774
3.58416	0.806
3.6253	0.822
3.66643	0.815
3.70757	0.793
3.74871	0.827
3.78984	0.83
3.83098	0.841
3.87211	0.846
3.91325	0.842
3.95438	0.846
3.99552	0.839
4.03666	0.837
4.07779	0.841
4.11893	0.841
4.16006	0.842
4.2012	0.832
4.24234	0.832
4.28347	0.834
4.32461	0.841
4.36574	0.851
4.40688	0.864
4.44801	0.864
4.48915	0.871
4.53029	0.871
4.57142	0.875
4.61256	0.88
4.65369	0.878
4.69483	0.878
4.73597	0.882
4.7771	0.882
4.81824	0.882
4.85937	0.882
4.90051	0.883
4.94164	0.883
4.98278	0.883
5.02392	0.892
5.06505	0.892
5.10619	0.89
5.14732	0.899
5.18846	0.892
5.2296	0.88
5.27073	0.861
5.31187	0.88
5.353	0.882
5.39414	0.883
5.43527	0.883
5.47641	0.875
5.51755	0.88
5.55868	0.876
5.59982	0.87
5.64095	0.849
5.68209	0.851
5.72323	0.835
5.76436	0.844
5.8055	0.851
5.84663	0.854
5.88777	0.863
5.9289	0.861
5.97004	0.852
6.01118	0.841
6.05231	0.82
6.09345	0.811
6.13458	0.699
6.17572	0.553
6.21686	0.582
6.25799	0.473
6.29913	0.473
6.34026	0.519
6.3814	0.47
6.42253	0.437
6.46367	0.485
6.50481	0.531
6.54594	0.488
6.58708	0.328
6.62821	0.061
6.66935	0.307
6.71049	0.582
6.75162	0.591
6.79276	0.577
6.83389	0.447
6.87503	0.463
6.91616	0.683
6.9573	0.642
6.99844	0.613
7.03957	0.758
7.08071	0.805
7.12184	0.823
7.16298	0.825
7.20412	0.829
7.24525	0.798
7.28639	0.735
7.32752	0.741
7.36866	0.702
7.40979	0.603
7.45093	0.482
7.49207	0.664
7.5332	0.702
7.57434	0.671
7.61547	0.673
7.65661	0.687
7.69775	0.623
7.73888	0.355
7.78002	0.196
7.82115	0.333
7.86229	0.422
7.90342	0.405
7.94456	0.276
7.9857	0.504
8.02683	0.644
8.06797	0.613
8.1091	0.586
8.15024	0.533
8.19138	0.37
8.23251	0.283
8.27365	0.323
8.31478	0.365
8.35592	0.273
8.39705	0.109
8.43819	0.068
8.47933	0.164
8.52046	0.364
8.5616	0.541
8.60273	0.622
8.64387	0.676
8.68501	0.724
8.72614	0.741
8.76728	0.735
8.80841	0.772
8.84955	0.777
8.89068	0.77
8.93182	0.748
8.97296	0.781
9.01409	0.808
9.05523	0.818
9.09636	0.82
9.1375	0.822
9.17864	0.829
9.21977	0.834
9.26091	0.834
9.30204	0.834
9.34318	0.83
9.38431	0.82
9.42545	0.772
9.46659	0.623
9.50772	0.425
9.54886	0.593
9.58999	0.777
9.63113	0.811
9.67227	0.822
9.7134	0.839
9.75454	0.849
9.79567	0.849
9.83681	0.834
9.87794	0.801
9.91908	0.743
9.96022	0.781
10.0014	0.834
10.0425	0.866
10.0836	0.873
10.1248	0.876
10.1659	0.88
10.207	0.882
10.2482	0.883
10.2893	0.883
10.3304	0.88
10.3716	0.875
10.4127	0.871
10.4538	0.859
10.495	0.835
10.5361	0.83
10.5773	0.818
10.6184	0.83
10.6595	0.842
10.7007	0.849
10.7418	0.849
10.7829	0.832
10.8241	0.81
10.8652	0.77
10.9063	0.731
10.9475	0.651
10.9886	0.598
11.0297	0.682
11.0709	0.764
11.112	0.772
11.1532	0.758
11.1943	0.741
11.2354	0.712
11.2766	0.697
11.3177	0.67
11.3588	0.635
11.4	0.606
11.4411	0.56
11.4822	0.47
11.5234	0.388
11.5645	0.434
11.6056	0.565
11.6468	0.615
11.6879	0.635
11.7291	0.63
11.7702	0.557
11.8113	0.545
11.8525	0.664
11.8936	0.729
11.9347	0.748
11.9759	0.74
12.017	0.709
12.0581	0.647
12.0993	0.531
12.1404	0.333
12.1816	0.157
12.2227	0.129
12.2638	0.321
12.305	0.505
12.3461	0.611
12.3872	0.647
12.4284	0.68
12.4695	0.729
12.5106	0.762
12.5518	0.772
12.5929	0.777
12.634	0.77
12.6752	0.762
12.7163	0.762
12.7575	0.77
12.7986	0.774
12.8397	0.765
12.8809	0.738
12.922	0.671
12.9631	0.632
13.0043	0.664
13.0454	0.692
13.0865	0.664
13.1277	0.668
13.1688	0.719
13.2099	0.747
13.2511	0.753
13.2922	0.758
13.3334	0.753
13.3745	0.75
13.4156	0.752
13.4568	0.752
13.4979	0.753
13.539	0.748
13.5802	0.738
13.6213	0.731
13.6624	0.728
13.7036	0.729
13.7447	0.726
13.7858	0.719
13.827	0.709
13.8681	0.699
13.9093	0.67
13.9504	0.62
13.9915	0.565
14.0327	0.54
14.0738	0.558
14.1149	0.574
14.1561	0.56
14.1972	0.524
14.2383	0.473
14.2795	0.461
14.3206	0.488
14.3618	0.502
14.4029	0.48
14.444	0.439
14.4852	0.429
14.5263	0.47
14.5674	0.535
14.6086	0.572
14.6497	0.582
14.6908	0.588
14.732	0.586
14.7731	0.581
14.8142	0.579
14.8554	0.576
14.8965	0.569
14.9377	0.564
14.9788	0.56
15.0199	0.552
15.0611	0.541
15.1022	0.533
15.1433	0.521
15.1845	0.511
15.2256	0.5
15.2667	0.488
15.3079	0.48
15.349	0.471
15.3901	0.468
15.4313	0.458
15.4724	0.451
15.5136	0.447
15.5547	0.441
15.5958	0.437
15.637	0.429
15.6781	0.422
15.7192	0.417
15.7604	0.408
15.8015	0.401
15.8426	0.398
15.8838	0.401
