Infrared Spectrum: BENZOIC ACID, SULFONYL DI-P,P'-DIMETHYL ESTER
Formula: C16 H14 O6 S
CAS: 3965-53-5
State: SOLID (KBr DISC)
Class: COBLENTZ
Instrument: Not specified, most likely a prism, grating, or hybrid spectrometer.
Sampling: TRANSMISSION
Resolution: 4
Origin: TENNESSEE EASTMAN COMPANY, RESEARCH LABORATORIES
MICROMETERS	TRANSMITTANCE
2.033	0.708
2.07194	0.708
2.11087	0.714
2.14981	0.727
2.18874	0.743
2.22768	0.761
2.26661	0.773
2.30555	0.787
2.34449	0.8
2.38342	0.808
2.42236	0.821
2.46129	0.824
2.50023	0.828
2.53917	0.846
2.5781	0.852
2.61704	0.85
2.65597	0.852
2.69491	0.852
2.73384	0.849
2.77278	0.821
2.81172	0.76
2.85065	0.706
2.88959	0.653
2.92852	0.614
2.96746	0.611
3.0064	0.617
3.04533	0.638
3.08427	0.649
3.1232	0.672
3.16214	0.688
3.20107	0.701
3.24001	0.701
3.27895	0.69
3.31788	0.674
3.35682	0.687
3.39575	0.646
3.43469	0.661
3.47363	0.7
3.51256	0.701
3.5515	0.734
3.59043	0.747
3.62937	0.753
3.6683	0.761
3.70724	0.763
3.74618	0.764
3.78511	0.766
3.82405	0.769
3.86298	0.771
3.90192	0.773
3.94085	0.779
3.97979	0.782
4.01873	0.789
4.05766	0.79
4.0966	0.79
4.13553	0.8
4.17447	0.802
4.21341	0.802
4.25234	0.8
4.29128	0.8
4.33021	0.8
4.36915	0.813
4.40808	0.821
4.44702	0.823
4.48596	0.824
4.52489	0.828
4.56383	0.842
4.60276	0.849
4.6417	0.849
4.68064	0.849
4.71957	0.849
4.75851	0.849
4.79744	0.849
4.83638	0.85
4.87531	0.85
4.91425	0.852
4.95319	0.852
4.99212	0.855
5.03106	0.858
5.06999	0.855
5.10893	0.839
5.14787	0.828
5.1868	0.854
5.22574	0.854
5.26467	0.854
5.30361	0.858
5.34254	0.858
5.38148	0.858
5.42042	0.854
5.45935	0.852
5.49829	0.852
5.53722	0.85
5.57616	0.85
5.61509	0.831
5.65403	0.792
5.69297	0.781
5.7319	0.717
5.77084	0.369
5.80977	0.053
5.84871	0.353
5.88765	0.529
5.92658	0.645
5.96552	0.646
6.00445	0.653
6.04339	0.664
6.08232	0.666
6.12126	0.675
6.1602	0.693
6.19913	0.703
6.23807	0.727
6.277	0.722
6.31594	0.711
6.35488	0.701
6.39381	0.745
6.43275	0.747
6.47168	0.747
6.51062	0.748
6.54955	0.75
6.58849	0.752
6.62743	0.763
6.66636	0.761
6.7053	0.76
6.74423	0.771
6.78317	0.748
6.82211	0.667
6.86104	0.593
6.89998	0.56
6.93891	0.487
6.97785	0.429
7.01678	0.7
7.05572	0.669
7.09466	0.376
7.13359	0.497
7.17253	0.677
7.21146	0.693
7.2504	0.679
7.28933	0.682
7.32827	0.714
7.36721	0.717
7.40614	0.713
7.44508	0.69
7.48401	0.619
7.52295	0.337
7.56189	0.363
7.60082	0.476
7.63976	0.275
7.67869	0.247
7.71763	0.147
7.75656	0.077
7.7955	0.053
7.83444	0.05
7.87337	0.131
7.91231	0.335
7.95124	0.4
7.99018	0.466
8.02912	0.549
8.06805	0.63
8.10699	0.651
8.14592	0.669
8.18486	0.682
8.22379	0.688
8.26273	0.688
8.30167	0.659
8.3406	0.508
8.37954	0.437
8.41847	0.528
8.45741	0.62
8.49635	0.627
8.53528	0.573
8.57422	0.393
8.61315	0.141
8.65209	0.23
8.69102	0.47
8.72996	0.57
8.7689	0.609
8.80783	0.607
8.84677	0.576
8.8857	0.486
8.92464	0.272
8.96357	0.168
9.00251	0.171
9.04145	0.181
9.08038	0.152
9.11932	0.348
9.15825	0.471
9.19719	0.547
9.23613	0.578
9.27506	0.581
9.314	0.518
9.35293	0.546
9.39187	0.599
9.4308	0.62
9.46974	0.628
9.50868	0.632
9.54761	0.633
9.58655	0.636
9.62548	0.636
9.66442	0.64
9.70336	0.64
9.74229	0.628
9.78123	0.489
9.82016	0.358
9.8591	0.534
9.89803	0.604
9.93697	0.638
9.97591	0.649
10.0148	0.654
10.0538	0.656
10.0927	0.656
10.1316	0.656
10.1706	0.658
10.2095	0.659
10.2485	0.659
10.2874	0.659
10.3263	0.653
10.3653	0.614
10.4042	0.517
10.4431	0.51
10.4821	0.554
10.521	0.614
10.5599	0.635
10.5989	0.649
10.6378	0.659
10.6768	0.666
10.7157	0.672
10.7546	0.675
10.7936	0.679
10.8325	0.68
10.8714	0.68
10.9104	0.682
10.9493	0.682
10.9882	0.682
11.0272	0.682
11.0661	0.682
11.105	0.682
11.144	0.682
11.1829	0.682
11.2219	0.682
11.2608	0.682
11.2997	0.682
11.3387	0.682
11.3776	0.682
11.4165	0.682
11.4555	0.68
11.4944	0.669
11.5333	0.578
11.5723	0.382
11.6112	0.351
11.6501	0.58
11.6891	0.623
11.728	0.648
11.767	0.659
11.8059	0.666
11.8448	0.666
11.8838	0.669
11.9227	0.667
11.9616	0.666
12.0006	0.636
12.0395	0.614
12.0784	0.617
12.1174	0.633
12.1563	0.643
12.1952	0.651
12.2342	0.651
12.2731	0.653
12.3121	0.653
12.351	0.653
12.3899	0.653
12.4289	0.653
12.4678	0.653
12.5067	0.653
12.5457	0.653
12.5846	0.653
12.6235	0.653
12.6625	0.653
12.7014	0.653
12.7403	0.653
12.7793	0.649
12.8182	0.628
12.8572	0.572
12.8961	0.382
12.935	0.247
12.974	0.337
13.0129	0.531
13.0518	0.575
13.0908	0.602
13.1297	0.607
13.1686	0.609
13.2076	0.604
13.2465	0.567
13.2855	0.489
13.3244	0.301
13.3633	0.186
13.4023	0.163
13.4412	0.223
13.4801	0.4
13.5191	0.489
13.558	0.541
13.5969	0.552
13.6359	0.565
13.6748	0.551
13.7137	0.479
13.7527	0.384
13.7916	0.398
13.8306	0.484
13.8695	0.544
13.9084	0.564
13.9474	0.583
13.9863	0.589
14.0252	0.589
14.0642	0.589
14.1031	0.589
14.142	0.589
14.181	0.589
14.2199	0.583
14.2588	0.557
14.2978	0.52
14.3367	0.455
14.3757	0.351
14.4146	0.28
14.4535	0.247
14.4925	0.243
14.5314	0.28
14.5703	0.351
14.6093	0.429
14.6482	0.478
14.6871	0.513
14.7261	0.531
14.765	0.536
14.8039	0.538
14.8429	0.538
14.8818	0.538
14.9208	0.538
14.9597	0.538
14.9986	0.536
15.0376	0.536
15.0765	0.534
15.1154	0.534
15.1544	0.534
15.1933	0.534
15.2322	0.534
15.2712	0.534
15.3101	0.533
15.349	0.533
15.388	0.533
15.4269	0.529
15.4659	0.529
15.5048	0.529
15.5437	0.528
15.5827	0.528
15.6216	0.526
15.6605	0.526
15.6995	0.525
15.7384	0.523
15.7773	0.515
15.8163	0.499
15.8552	0.468
15.8941	0.44
15.9331	0.413
15.972	0.398
