Infrared Spectrum: 3-Chloro-4-methylbenzyl alcohol
Formula: C 8 H 9 Cl O
CAS: 39652-32-9
State: gas
Origin: EPA-IR VAPOR PHASE LIBRARY
1/CM	ABSORBANCE
549.8	0.001353
559.445	0.001443
569.09	0.001793
578.734	0.001553
588.379	0.0010903
598.024	0.0011219
607.669	0.0008982
617.313	0.0009341
626.958	0.0006479
636.603	0.000437
646.248	0.001111
655.893	0.001153
665.537	0.0007351
675.182	0.0009447
684.827	0.002173
694.472	0.002523
704.116	0.001673
713.761	0.001853
723.406	0.002163
733.051	0.002463
742.695	0.002143
752.34	0.001583
761.985	0.001273
771.63	0.001143
781.275	0.001353
790.919	0.002233
800.564	0.004623
810.209	0.008203
819.854	0.007503
829.498	0.003843
839.143	0.001693
848.788	0.001673
858.433	0.002543
868.078	0.003863
877.722	0.004933
887.367	0.003853
897.012	0.002243
906.657	0.001883
916.301	0.001943
925.946	0.002073
935.591	0.002253
945.236	0.002493
954.88	0.002953
964.525	0.003953
974.17	0.004743
983.815	0.005793
993.46	0.007153
1003.1	0.008643
1012.75	0.010423
1022.39	0.013663
1032.04	0.017563
1041.68	0.023593
1051.33	0.025653
1060.97	0.016553
1070.62	0.007433
1080.26	0.004133
1089.91	0.002893
1099.55	0.002093
1109.2	0.001553
1118.84	0.002123
1128.49	0.002773
1138.13	0.003053
1147.78	0.003313
1157.42	0.003023
1167.07	0.002903
1176.71	0.003663
1186.36	0.004463
1196	0.005243
1205.64	0.006093
1215.29	0.005413
1224.93	0.004453
1234.58	0.003983
1244.22	0.003243
1253.87	0.002633
1263.51	0.002853
1273.16	0.002893
1282.8	0.002803
1292.45	0.002583
1302.09	0.002443
1311.74	0.002463
1321.38	0.002503
1331.03	0.002543
1340.67	0.002943
1350.32	0.003903
1359.96	0.005433
1369.61	0.007133
1379.25	0.008173
1388.9	0.008273
1398.54	0.007853
1408.18	0.006903
1417.83	0.005403
1427.47	0.004303
1437.12	0.004203
1446.76	0.004443
1456.41	0.005023
1466.05	0.006723
1475.7	0.008933
1485.34	0.008923
1494.99	0.006043
1504.63	0.003463
1514.28	0.001863
1523.92	0.001353
1533.57	0.001233
1543.21	0.001203
1552.86	0.001493
1562.5	0.001693
1572.15	0.001953
1581.79	0.001823
1591.44	0.001583
1601.08	0.001523
1610.73	0.001463
1620.37	0.001143
1630.01	0.0008663
1639.66	0.0005708
1649.3	0.000464
1658.95	0.0004105
1668.59	0.0003933
1678.24	0.0003671
1687.88	0.0003746
1697.53	0.0003989
1707.17	0.0004437
1716.82	0.0004699
1726.46	0.0005543
1736.11	0.0006619
1745.75	0.0008243
1755.4	0.0008315
1765.04	0.0006224
1774.69	0.0004235
1784.33	0.0003547
1793.98	0.0003155
1803.62	0.0003551
1813.27	0.0003989
1822.91	0.0004488
1832.55	0.0003083
1842.2	0.0002784
1851.84	0.0003404
1861.49	0.000349
1871.13	0.0005312
1880.78	0.0006775
1890.42	0.0006885
1900.07	0.0005789
1909.71	0.0003925
1919.36	0.0003155
1929	0.0003652
1938.65	0.0002595
1948.29	0.00032
1957.94	0.00023191
1967.58	0.0002926
1977.23	0.0002402
1986.87	0.00022279
1996.52	0.0003544
2006.16	0.0002977
2015.81	0.0003817
2025.45	0.0004008
2035.1	0.0003151
2044.74	0.0002859
2054.38	0.0002842
2064.03	0.00023085
2073.67	0.0003383
2083.32	0.000275
2092.96	0.0003039
2102.61	0.0002415
2112.25	0.0002502
2121.9	0.00022152
2131.54	0.000247
2141.19	0.0002869
2150.83	0.00017091
2160.48	0.0001178
2170.12	0.0002448
2179.77	0.00016922
2189.41	0.00018074
2199.06	0.00018559
2208.7	0.0002529
2218.35	0.00022006
2227.99	0.00019313
2237.64	0.00021452
2247.28	0.00019237
2256.92	0.0002864
2266.57	0.00020486
2276.21	0.0002686
2285.86	0.0002874
2295.5	0.0002809
2305.15	0.0002784
2314.79	0.0002976
2324.44	0.00021732
2334.08	0.0002362
2343.73	0.0002714
2353.37	0.00020052
2363.02	0.0002842
2372.66	0.00021424
2382.31	0.00022202
2391.95	0.0003058
2401.6	0.0002819
2411.24	0.000291
2420.89	0.0002598
2430.53	0.0002661
2440.18	0.000274
2449.82	0.0003628
2459.47	0.0002524
2469.11	0.00018824
2478.75	0.0003713
2488.4	0.0003218
2498.04	0.0004142
2507.69	0.0002689
2517.33	0.0002801
2526.98	0.000313
2536.62	0.0002511
2546.27	0.00016472
2555.91	0.0002991
2565.56	0.0003547
2575.2	0.0002545
2584.85	0.00020349
2594.49	0.0003039
2604.14	0.0003826
2613.78	0.0003319
2623.43	0.0004193
2633.07	0.000359
2642.72	0.0003233
2652.36	0.0003515
2662.01	0.0003175
2671.65	0.0002367
2681.29	0.0003208
2690.94	0.0003405
2700.58	0.0003131
2710.23	0.0003178
2719.87	0.0004409
2729.52	0.0004611
2739.16	0.0005573
2748.81	0.0005904
2758.45	0.0007293
2768.1	0.0007051
2777.74	0.0006738
2787.39	0.0008062
2797.03	0.0008738
2806.68	0.0010798
2816.32	0.001203
2825.97	0.001563
2835.61	0.001923
2845.26	0.002703
2854.9	0.003573
2864.55	0.004893
2874.19	0.006623
2883.84	0.007623
2893.48	0.006783
2903.12	0.006063
2912.77	0.006273
2922.41	0.007163
2932.06	0.008343
2941.7	0.008363
2951.35	0.006833
2960.99	0.005613
2970.64	0.004713
2980.28	0.004493
2989.93	0.003823
2999.57	0.003183
3009.22	0.002833
3018.86	0.003333
3028.51	0.003623
3038.15	0.003083
3047.8	0.003023
3057.44	0.002823
3067.09	0.002433
3076.73	0.001853
3086.38	0.001573
3096.02	0.001183
3105.67	0.0009259
3115.31	0.0007876
3124.95	0.0005554
3134.6	0.0003453
3144.24	0.0002694
3153.89	0.0003376
3163.53	0.0002387
3173.18	0.00023048
3182.82	0.00012543
3192.47	0.0003052
3202.11	0.00020064
3211.76	0.00019891
3221.4	0.0003068
3231.05	0.00018576
3240.69	0.0002498
3250.34	0.00021573
3259.98	0.0002715
3269.63	0.00021294
3279.27	0.00018963
3288.92	0.0002454
3298.56	8.19e-05
3308.21	0.0002824
3317.85	0.0001227
3327.49	0.00015663
3337.14	0.0002788
3346.78	0.00018586
3356.43	0.00016545
3366.07	0.0002384
3375.72	0.0003812
3385.36	0.0002578
3395.01	0.0003892
3404.65	0.0002643
3414.3	0.0003379
3423.94	0.0003134
3433.59	0.0002799
3443.23	0.0002947
3452.88	0.0003769
3462.52	0.0004105
3472.17	0.0003656
3481.81	6.07e-05
3491.46	0.0003117
3501.1	0.0004116
3510.75	0.0004167
3520.39	0.0001104
3530.04	0.0003527
3539.68	0.0002522
3549.32	0.0002494
3558.97	0.0002602
3568.61	0.0003254
3578.26	0.000353
3587.9	0.0003371
3597.55	0.0006659
3607.19	0.0006759
3616.84	0.0008637
3626.48	0.001128
3636.13	0.001873
3645.77	0.003093
3655.42	0.003793
3665.06	0.003433
3674.71	0.002563
3684.35	0.001723
3694	0.0011253
3703.64	0.0009335
3713.29	0.0007116
3722.93	0.0004247
3732.58	0.0004306
3742.22	0.0005641
3751.86	0.0005024
3761.51	0.0003526
3771.15	0.0003356
3780.8	0.0002377
3790.44	0.0004026
3800.09	0.0002668
3809.73	0.0002669
3819.38	0.0003575
3829.02	0.0002934
3838.67	0.0002913
3848.31	0.0003412
3857.96	0.0004913
3867.6	0.0003664
3877.25	0.0003655
3886.89	0.0004878
3896.54	0.0003474
3906.18	0.0001114
3915.83	0.0004247
3925.47	0.00019175
3935.12	0.0003101
3944.76	0.0003238
3954.41	0.00017051
3964.05	0.00021368
3973.69	0.0002533
3983.34	0.0002431
3992.98	0.0002881
