Infrared Spectrum: 2,7-Diacetylfluorene
Formula: C 17 H 14 O 2
CAS: 39665-89-9
State: gas
Origin: EPA-IR VAPOR PHASE LIBRARY
1/CM	ABSORBANCE
549.8	0.0009421
559.445	0.0007728
569.09	0.0010478
578.734	0.001511
588.379	0.003441
598.024	0.005971
607.669	0.002391
617.313	0.0011309
626.958	0.0007573
636.603	0.00040904
646.248	0.0005551
655.893	0.00041198
665.537	0.0004409
675.182	0.0005067
684.827	0.000692
694.472	0.003991
704.116	0.002191
713.761	0.001651
723.406	0.0007646
733.051	0.00041831
742.695	0.0004672
752.34	0.00041014
761.985	0.00041526
771.63	0.0004487
781.275	0.00042323
790.919	0.0007334
800.564	0.0012795
810.209	0.004431
819.854	0.004941
829.498	0.002671
839.143	0.001371
848.788	0.0007467
858.433	0.0011301
868.078	0.0012167
877.722	0.0007496
887.367	0.0007632
897.012	0.0005976
906.657	0.000749
916.301	0.0008017
925.946	0.0008004
935.591	0.001411
945.236	0.002661
954.88	0.004191
964.525	0.003581
974.17	0.002391
983.815	0.001361
993.46	0.0011614
1003.1	0.002031
1012.75	0.0012702
1022.39	0.0010284
1032.04	0.001079
1041.68	0.0008514
1051.33	0.0010244
1060.97	0.000967
1070.62	0.0008071
1080.26	0.000478
1089.91	0.0007548
1099.55	0.0009494
1109.2	0.0012076
1118.84	0.001721
1128.49	0.001891
1138.13	0.002271
1147.78	0.005811
1157.42	0.006481
1167.07	0.002411
1176.71	0.001195
1186.36	0.001059
1196	0.001881
1205.64	0.002101
1215.29	0.003311
1224.93	0.005531
1234.58	0.013131
1244.22	0.033741
1253.87	0.044141
1263.51	0.011291
1273.16	0.003871
1282.8	0.004261
1292.45	0.008361
1302.09	0.003951
1311.74	0.001731
1321.38	0.001791
1331.03	0.002331
1340.67	0.002581
1350.32	0.005131
1359.96	0.010861
1369.61	0.005711
1379.25	0.002661
1388.9	0.002171
1398.54	0.002811
1408.18	0.004441
1417.83	0.004571
1427.47	0.005201
1437.12	0.004201
1446.76	0.002251
1456.41	0.001491
1466.05	0.0013432
1475.7	0.001361
1485.34	0.0013092
1494.99	0.0009854
1504.63	0.0009513
1514.28	0.0009554
1523.92	0.0010299
1533.57	0.0010666
1543.21	0.0012191
1552.86	0.001581
1562.5	0.002481
1572.15	0.003831
1581.79	0.003561
1591.44	0.002341
1601.08	0.003821
1610.73	0.006801
1620.37	0.003291
1630.01	0.001611
1639.66	0.001441
1649.3	0.001651
1658.95	0.002591
1668.59	0.002931
1678.24	0.003801
1687.88	0.009591
1697.53	0.036121
1707.17	0.026461
1716.82	0.005931
1726.46	0.002671
1736.11	0.002631
1745.75	0.002351
1755.4	0.001631
1765.04	0.0011419
1774.69	0.0008916
1784.33	0.000845
1793.98	0.0008168
1803.62	0.0008005
1813.27	0.0006915
1822.91	0.0007305
1832.55	0.0006563
1842.2	0.0006174
1851.84	0.0006383
1861.49	0.0006653
1871.13	0.0007563
1880.78	0.0007312
1890.42	0.0006737
1900.07	0.000654
1909.71	0.0005741
1919.36	0.0006075
1929	0.0005791
1938.65	0.0005861
1948.29	0.0004934
1957.94	0.0005575
1967.58	0.0004778
1977.23	0.0005164
1986.87	0.0005092
1996.52	0.0004721
2006.16	0.000464
2015.81	0.000538
2025.45	0.0004545
2035.1	0.0004709
2044.74	0.0005309
2054.38	0.00044058
2064.03	0.0005015
2073.67	0.00040309
2083.32	0.0004659
2092.96	0.00034772
2102.61	0.00040901
2112.25	0.0004596
2121.9	0.00044608
2131.54	0.00041002
2141.19	0.00040497
2150.83	0.00044425
2160.48	0.00042647
2170.12	0.00037097
2179.77	0.000355198
2189.41	0.0004855
2199.06	0.0004731
2208.7	0.0004426
2218.35	0.0004809
2227.99	0.0004595
2237.64	0.0004661
2247.28	0.0004812
2256.92	0.0005064
2266.57	0.0004655
2276.21	0.000472
2285.86	0.00044338
2295.5	0.0004667
2305.15	0.0004543
2314.79	0.00039578
2324.44	0.0004584
2334.08	0.00044589
2343.73	0.0004585
2353.37	0.00042044
2363.02	0.0004155
2372.66	0.0004138
2382.31	0.00043919
2391.95	0.0004915
2401.6	0.0004597
2411.24	0.00042397
2420.89	0.00044129
2430.53	0.00038887
2440.18	0.00042599
2449.82	0.0003999
2459.47	0.00042164
2469.11	0.00039331
2478.75	0.0004726
2488.4	0.00042495
2498.04	0.0004226
2507.69	0.0004894
2517.33	0.0004873
2526.98	0.0005003
2536.62	0.0004808
2546.27	0.000475
2555.91	0.0004901
2565.56	0.0005837
2575.2	0.0005288
2584.85	0.0005174
2594.49	0.000495
2604.14	0.0005111
2613.78	0.000504
2623.43	0.0004853
2633.07	0.0004798
2642.72	0.00044397
2652.36	0.0004812
2662.01	0.00039035
2671.65	0.0004938
2681.29	0.00043708
2690.94	0.00038475
2700.58	0.00040622
2710.23	0.0005627
2719.87	0.00041585
2729.52	0.000357461
2739.16	0.0002981
2748.81	0.0003196
2758.45	0.0004816
2768.1	0.0004684
2777.74	0.00039797
2787.39	0.00041653
2797.03	0.0005039
2806.68	0.0005823
2816.32	0.0005005
2825.97	0.0005188
2835.61	0.0005713
2845.26	0.0005723
2854.9	0.0006564
2864.55	0.0005864
2874.19	0.0006448
2883.84	0.0006454
2893.48	0.0007293
2903.12	0.0009153
2912.77	0.001361
2922.41	0.001541
2932.06	0.001451
2941.7	0.0009473
2951.35	0.0007534
2960.99	0.0009019
2970.64	0.0008757
2980.28	0.00109
2989.93	0.0009131
2999.57	0.0012852
3009.22	0.001941
3018.86	0.002191
3028.51	0.001491
3038.15	0.001711
3047.8	0.001511
3057.44	0.001551
3067.09	0.001751
3076.73	0.002321
3086.38	0.001561
3096.02	0.0011285
3105.67	0.0008365
3115.31	0.0006241
3124.95	0.0006023
3134.6	0.0004536
3144.24	0.0006058
3153.89	0.00038441
3163.53	0.00043129
3173.18	0.0005655
3182.82	0.00036984
3192.47	0.0002684
3202.11	0.00034644
3211.76	0.0003332
3221.4	0.0004097
3231.05	0.000174
3240.69	0.000286
3250.34	0.0003219
3259.98	0.0003374
3269.63	0.000247
3279.27	0.00041611
3288.92	0.0003362
3298.56	0.0002972
3308.21	0.0005222
3317.85	0.0004539
3327.49	0.0002771
3337.14	0.0002895
3346.78	0.00043591
3356.43	0.00044457
3366.07	0.0005131
3375.72	0.0007026
3385.36	0.0011204
3395.01	0.0007126
3404.65	0.00035325
3414.3	0.00042916
3423.94	0.0002543
3433.59	0.00039473
3443.23	0.0002629
3452.88	0.00041955
3462.52	0.0002874
3472.17	0.0003235
3481.81	0.0003256
3491.46	0.00044261
3501.1	0.000251
3510.75	0.0002991
3520.39	0.0002647
3530.04	0.0002972
3539.68	0.00038469
3549.32	0.0004644
3558.97	0.00013
3568.61	0.0003017
3578.26	0.00034144
3587.9	0.00044191
3597.55	0.000223
3607.19	0.0003123
3616.84	0.0003385
3626.48	0.00037179
3636.13	0.000352465
3645.77	0.000216
3655.42	0.000242
3665.06	0.000318
3674.71	0.0003661
3684.35	0.000179
3694	0.000232
3703.64	0.00034987
3713.29	0.000214
3722.93	0.000360593
3732.58	0.0004623
3742.22	0.000235
3751.86	0.0003107
3761.51	0.0003026
3771.15	0.00022
3780.8	0.000360084
3790.44	0.0003164
3800.09	0.0002627
3809.73	0.0003158
3819.38	0.000357988
3829.02	0.000335
3838.67	0.0002887
3848.31	0.0003249
3857.96	0.0002844
3867.6	0.000171
3877.25	0.00036412
3886.89	4e-05
3896.54	0.000143
3906.18	0.0003814
3915.83	0.0003038
3925.47	0.0002978
3935.12	0.00037273
3944.76	0.0003382
3954.41	0.00044206
3964.05	0.00038204
3973.69	0.000118
3983.34	0.00035573
3992.98	0.0003063
