Infrared Spectrum: R-(-)-2-Methoxyphenylacetic acid
Formula: C 9 H 10 O 3
CAS: 3966-32-3
State: gas
Origin: EPA-IR VAPOR PHASE LIBRARY
1/CM	ABSORBANCE
549.8	0.022276
559.445	0.023986
569.09	0.018846
578.734	0.017226
588.379	0.018526
598.024	0.024536
607.669	0.041496
617.313	0.053856
626.958	0.043026
636.603	0.032146
646.248	0.034366
655.893	0.031146
665.537	0.023716
675.182	0.022376
684.827	0.032216
694.472	0.048816
704.116	0.046326
713.761	0.036806
723.406	0.029306
733.051	0.021926
742.695	0.021296
752.34	0.023786
761.985	0.018336
771.63	0.010046
781.275	0.005666
790.919	0.004296
800.564	0.003436
810.209	0.003436
819.854	0.002776
829.498	0.003346
839.143	0.004016
848.788	0.005386
858.433	0.006566
868.078	0.006846
877.722	0.008076
887.367	0.009046
897.012	0.009836
906.657	0.008726
916.301	0.009166
925.946	0.011056
935.591	0.010196
945.236	0.007596
954.88	0.008266
964.525	0.011066
974.17	0.017526
983.815	0.022276
993.46	0.019726
1003.1	0.013636
1012.75	0.009866
1022.39	0.011696
1032.04	0.014376
1041.68	0.013166
1051.33	0.013406
1060.97	0.021696
1070.62	0.035226
1080.26	0.058186
1089.91	0.097576
1099.55	0.146646
1109.2	0.161916
1118.84	0.130676
1128.49	0.092806
1138.13	0.072386
1147.78	0.067886
1157.42	0.060226
1167.07	0.047046
1176.71	0.039626
1186.36	0.039656
1196	0.044876
1205.64	0.040996
1215.29	0.028066
1224.93	0.021586
1234.58	0.019896
1244.22	0.020006
1253.87	0.021616
1263.51	0.022926
1273.16	0.023636
1282.8	0.024986
1292.45	0.028286
1302.09	0.033046
1311.74	0.039636
1321.38	0.048026
1331.03	0.059356
1340.67	0.069106
1350.32	0.070906
1359.96	0.063626
1369.61	0.049726
1379.25	0.033186
1388.9	0.020096
1398.54	0.013396
1408.18	0.009916
1417.83	0.007976
1427.47	0.007746
1437.12	0.010396
1446.76	0.016796
1456.41	0.018996
1466.05	0.013626
1475.7	0.010076
1485.34	0.011376
1494.99	0.014856
1504.63	0.009836
1514.28	0.004296
1523.92	0.003376
1533.57	0.003126
1543.21	0.002856
1552.86	0.002786
1562.5	0.002976
1572.15	0.003186
1581.79	0.003736
1591.44	0.004876
1601.08	0.005376
1610.73	0.004006
1620.37	0.002956
1630.01	0.002536
1639.66	0.002346
1649.3	0.002456
1658.95	0.002466
1668.59	0.002726
1678.24	0.002826
1687.88	0.002986
1697.53	0.003716
1707.17	0.004826
1716.82	0.007546
1726.46	0.011916
1736.11	0.017966
1745.75	0.027526
1755.4	0.046196
1765.04	0.077446
1774.69	0.103666
1784.33	0.119446
1793.98	0.129626
1803.62	0.110506
1813.27	0.074676
1822.91	0.042586
1832.55	0.024416
1842.2	0.015396
1851.84	0.010396
1861.49	0.007696
1871.13	0.005946
1880.78	0.004736
1890.42	0.003836
1900.07	0.003176
1909.71	0.002586
1919.36	0.001956
1929	0.002206
1938.65	0.003016
1948.29	0.003266
1957.94	0.003166
1967.58	0.002306
1977.23	0.001546
1986.87	0.001296
1996.52	0.001336
2006.16	0.001366
2015.81	0.001476
2025.45	0.001456
2035.1	0.001456
2044.74	0.001696
2054.38	0.001956
2064.03	0.001976
2073.67	0.002076
2083.32	0.001926
2092.96	0.001946
2102.61	0.001706
2112.25	0.001436
2121.9	0.001366
2131.54	0.0011157
2141.19	0.001256
2150.83	0.0011627
2160.48	0.0010441
2170.12	0.001216
2179.77	0.001176
2189.41	0.001366
2199.06	0.001276
2208.7	0.0010449
2218.35	0.0011498
2227.99	0.0010665
2237.64	0.0009308
2247.28	0.0008547
2256.92	0.0009941
2266.57	0.0009393
2276.21	0.0009862
2285.86	0.0008219
2295.5	0.0010599
2305.15	0.001326
2314.79	0.001596
2324.44	0.001566
2334.08	0.001576
2343.73	0.001606
2353.37	0.001476
2363.02	0.001646
2372.66	0.001586
2382.31	0.0010757
2391.95	0.0007858
2401.6	0.0009494
2411.24	0.0008204
2420.89	0.0008931
2430.53	0.0008046
2440.18	0.0007631
2449.82	0.0008677
2459.47	0.0006533
2469.11	0.0007825
2478.75	0.0006186
2488.4	0.000565
2498.04	0.0008752
2507.69	0.000674
2517.33	0.0007052
2526.98	0.0006433
2536.62	0.0005793
2546.27	0.0005444
2555.91	0.0005486
2565.56	0.000503
2575.2	0.0008693
2584.85	0.0009034
2594.49	0.0008789
2604.14	0.0011039
2613.78	0.0010489
2623.43	0.0009289
2633.07	0.0008213
2642.72	0.000789
2652.36	0.0007667
2662.01	0.0009071
2671.65	0.0007037
2681.29	0.000688
2690.94	0.0006661
2700.58	0.0006296
2710.23	0.0006493
2719.87	0.000745
2729.52	0.0005241
2739.16	0.0007681
2748.81	0.0010611
2758.45	0.001176
2768.1	0.001676
2777.74	0.001776
2787.39	0.002476
2797.03	0.003276
2806.68	0.004576
2816.32	0.007696
2825.97	0.015706
2835.61	0.025266
2845.26	0.020336
2854.9	0.011496
2864.55	0.009336
2874.19	0.011796
2883.84	0.016666
2893.48	0.019476
2903.12	0.020006
2912.77	0.020186
2922.41	0.021986
2932.06	0.026626
2941.7	0.029686
2951.35	0.025796
2960.99	0.018686
2970.64	0.012466
2980.28	0.010766
2989.93	0.013746
2999.57	0.019416
3009.22	0.018506
3018.86	0.013696
3028.51	0.016746
3038.15	0.021736
3047.8	0.018956
3057.44	0.016846
3067.09	0.024896
3076.73	0.026876
3086.38	0.018086
3096.02	0.013296
3105.67	0.008986
3115.31	0.005606
3124.95	0.003246
3134.6	0.001886
3144.24	0.001606
3153.89	0.001326
3163.53	0.001196
3173.18	0.0010781
3182.82	0.001011
3192.47	0.0004983
3202.11	0.0006278
3211.76	0.0004817
3221.4	0.00027146
3231.05	0.0002905
3240.69	0.0002837
3250.34	0.0004824
3259.98	0.0004859
3269.63	0.0005825
3279.27	0.0006779
3288.92	0.0007355
3298.56	0.0004039
3308.21	0.0005947
3317.85	0.0004516
3327.49	0.0006621
3337.14	0.0005272
3346.78	0.00024967
3356.43	0.0007753
3366.07	0.0009456
3375.72	0.0004976
3385.36	0.0009864
3395.01	0.0011643
3404.65	0.0008906
3414.3	0.001556
3423.94	0.001616
3433.59	0.002776
3443.23	0.004186
3452.88	0.005596
3462.52	0.009406
3472.17	0.015016
3481.81	0.020156
3491.46	0.019786
3501.1	0.015626
3510.75	0.010906
3520.39	0.008076
3530.04	0.006246
3539.68	0.006056
3549.32	0.008016
3558.97	0.024306
3568.61	0.052976
3578.26	0.042916
3587.9	0.012816
3597.55	0.004226
3607.19	0.002746
3616.84	0.001736
3626.48	0.001576
3636.13	0.0007927
3645.77	0.0010186
3655.42	0.0008362
3665.06	0.0005546
3674.71	0.000791
3684.35	0.0006706
3694	0.0005559
3703.64	0.0007875
3713.29	0.0005992
3722.93	0.0004503
3732.58	0.0007066
3742.22	0.00057
3751.86	0.0001658
3761.51	0.0004852
3771.15	0.000137
3780.8	0.00028
3790.44	0.000428
3800.09	0.0003915
3809.73	0.0005547
3819.38	0.0002789
3829.02	0.00026151
3838.67	0.0004119
3848.31	0.0004228
3857.96	0.00019525
3867.6	0.0004587
3877.25	0.000298
3886.89	2.1e-05
3896.54	0.0004741
3906.18	0.0006585
3915.83	0.0001424
3925.47	0.0002762
3935.12	0.0004249
3944.76	0.0004329
3954.41	0.000648
3964.05	0.0003623
3973.69	0.0003979
3983.34	0.0004846
3992.98	0.0004255
