Infrared Spectrum: 1,2-Dichloro-ethylene carbonate
Formula: C 3 H 2 Cl 2 O 3
CAS: 3967-55-3
State: gas
Origin: EPA-IR VAPOR PHASE LIBRARY
1/CM	ABSORBANCE
501.5	1.6e-05
513.074	0.0003072
524.648	0.002689
536.222	0.003889
547.796	0.001729
559.37	0.0003514
570.944	0.000196
582.518	0.000234
594.092	0.0003308
605.666	0.0005585
617.24	0.0006732
628.814	0.0005888
640.388	0.0010381
651.962	0.0008642
663.536	0.002029
675.11	0.003689
686.684	0.007199
698.258	0.016289
709.832	0.024799
721.406	0.019809
732.98	0.008559
744.554	0.011619
756.128	0.028439
767.702	0.032529
779.276	0.018449
790.85	0.011159
802.423	0.009909
813.997	0.018209
825.571	0.025229
837.145	0.017739
848.719	0.006289
860.293	0.003589
871.867	0.003449
883.441	0.003089
895.015	0.002149
906.589	0.001769
918.163	0.001749
929.737	0.002149
941.311	0.002839
952.885	0.005469
964.459	0.015149
976.033	0.024229
987.607	0.021759
999.181	0.015359
1010.76	0.015239
1022.33	0.025089
1033.9	0.053329
1045.48	0.062369
1057.05	0.036319
1068.63	0.032689
1080.2	0.085869
1091.77	0.190039
1103.35	0.153119
1114.92	0.040769
1126.49	0.010109
1138.07	0.005159
1149.64	0.004519
1161.22	0.004599
1172.79	0.004149
1184.36	0.003559
1195.94	0.003629
1207.51	0.004319
1219.09	0.007799
1230.66	0.010539
1242.23	0.006039
1253.81	0.001779
1265.38	0.001799
1276.96	0.003229
1288.53	0.003009
1300.1	0.001379
1311.68	0.0012004
1323.25	0.005169
1334.83	0.011659
1346.4	0.010949
1357.97	0.004549
1369.55	0.001869
1381.12	0.0013209
1392.7	0.0011148
1404.27	0.0010621
1415.84	0.0009261
1427.42	0.0007822
1438.99	0.0008229
1450.57	0.0010569
1462.14	0.001318
1473.71	0.001539
1485.29	0.001739
1496.86	0.001869
1508.44	0.001849
1520.01	0.001679
1531.58	0.001559
1543.16	0.001469
1554.73	0.001599
1566.31	0.002029
1577.88	0.002139
1589.45	0.001599
1601.03	0.0011184
1612.6	0.001026
1624.18	0.0011184
1635.75	0.0010453
1647.32	0.0007628
1658.9	0.0006411
1670.47	0.0004811
1682.05	0.0004871
1693.62	0.0006142
1705.19	0.0007343
1716.77	0.0007802
1728.34	0.000852
1739.92	0.0013138
1751.49	0.001439
1763.06	0.0013445
1774.64	0.001419
1786.21	0.001769
1797.79	0.002319
1809.36	0.003079
1820.93	0.004499
1832.51	0.007409
1844.08	0.013449
1855.66	0.025689
1867.23	0.051699
1878.8	0.105749
1890.38	0.152129
1901.95	0.119749
1913.53	0.068959
1925.1	0.061709
1936.67	0.038569
1948.25	0.017379
1959.82	0.009409
1971.4	0.007569
1982.97	0.005169
1994.54	0.002769
2006.12	0.001679
2017.69	0.001305
2029.27	0.0012265
2040.84	0.0011713
2052.41	0.0011337
2063.99	0.0010219
2075.56	0.0010657
2087.14	0.0013363
2098.71	0.002049
2110.28	0.003239
2121.86	0.004679
2133.43	0.004719
2145.01	0.003079
2156.58	0.002049
2168.15	0.002439
2179.73	0.002699
2191.3	0.002319
2202.88	0.001619
2214.45	0.001001
2226.02	0.000639
2237.6	0.0005026
2249.17	0.0005427
2260.74	0.0006065
2272.32	0.0006452
2283.89	0.0006457
2295.47	0.0007477
2307.04	0.0010247
2318.61	0.0013377
2330.19	0.0013417
2341.76	0.0011758
2353.34	0.001369
2364.91	0.001989
2376.48	0.001619
2388.06	0.0008842
2399.63	0.0005363
2411.21	0.000591
2422.78	0.0008529
2434.35	0.0008629
2445.93	0.0006145
2457.5	0.0003557
2469.08	0.0002993
2480.65	0.0003461
2492.22	0.000376339
2503.8	0.00036173
2515.37	0.0002868
2526.95	0.000251
2538.52	0.000236
2550.09	0.000207
2561.67	0.000227
2573.24	0.0003049
2584.82	0.000369467
2596.39	0.00036707
2607.96	0.00045691
2619.54	0.0004694
2631.11	0.0004182
2642.69	0.0003383
2654.26	0.000262
2665.83	0.000228
2677.41	0.000151
2688.98	0.000129
2700.56	0.00014
2712.13	0.000188
2723.7	0.000191
2735.28	0.000209
2746.85	0.0002784
2758.43	0.0003498
2770	0.0005125
2781.57	0.0005859
2793.15	0.0005888
2804.72	0.0004865
2816.3	0.00037926
2827.87	0.0002862
2839.44	0.0002929
2851.02	0.00023
2862.59	0.000182
2874.17	0.000197
2885.74	0.00014
2897.31	0.000108
2908.89	0.000175
2920.46	0.000108
2932.04	0.000123
2943.61	0.000186
2955.18	0.000164
2966.76	0.000197
2978.33	0.00021
2989.91	0.000204
3001.48	0.000166
3013.05	0.0002829
3024.63	0.00044812
3036.2	0.0008346
3047.78	0.0008572
3059.35	0.0002881
3070.92	0.00014
3082.5	0.000113
3094.07	0.0001
3105.65	7.9e-05
3117.22	0.000134
3128.79	9.3e-05
3140.37	0.00011
3151.94	0.000151
3163.52	6.9e-05
3175.09	6.4e-05
3186.66	6.6e-05
3198.24	7.2e-05
3209.81	6.5e-05
3221.39	6.3e-05
3232.96	9.5e-05
3244.53	9e-06
3256.11	0.000152
3267.68	2.9e-05
3279.26	9.6e-05
3290.83	0.000105
3302.4	0.00018
3313.98	8e-05
3325.55	4.4e-05
3337.13	5.4e-05
3348.7	6.6e-05
3360.27	0.000161
3371.85	0.000163
3383.42	0.000151
3395	0.000189
3406.57	0.000153
3418.14	0.000135
3429.72	0.000129
3441.29	0.00014
3452.86	0.000102
3464.44	0.000236
3476.01	0.00017
3487.59	0.000186
3499.16	0.000201
3510.73	0.000223
3522.31	0.0002836
3533.88	0.000204
3545.46	0.000246
3557.03	0.000249
3568.6	0.000213
3580.18	0.000278
3591.75	0.000276
3603.33	0.000257
3614.9	0.000237
3626.47	0.00025
3638.05	0.000232
3649.62	0.00036097
3661.2	0.0003563
3672.77	0.00039532
3684.34	0.00039686
3695.92	0.00036196
3707.49	0.00041068
3719.07	0.0005685
3730.64	0.0008537
3742.21	0.0010095
3753.79	0.001389
3765.36	0.001639
3776.94	0.001659
3788.51	0.001399
3800.08	0.0011293
3811.66	0.0008391
3823.23	0.0006656
3834.81	0.000609
3846.38	0.0005438
3857.95	0.0006762
3869.53	0.0006251
3881.1	0.0005153
3892.68	0.000373301
3904.25	0.0003026
3915.82	0.0002733
3927.4	0.0003481
3938.97	0.000157
3950.55	0.000248
3962.12	0.000257
3973.69	0.000227
3985.27	0.000251
3996.84	0.000265
