Infrared Spectrum: Carbonic acid, cyclic 1-chloroethylene ester
Formula: C3 H3 Cl O3
CAS: 3967-54-2
State: LIQUID (NEAT)
Class: COBLENTZ III
Instrument: BAIRD (GRATING)
Instrument parameters: NaCl PRISM
Path length: 0.0015 CM
Resolution: 2
Origin: WYANDOTTE CHEMICALS CORP.
1/CM	TRANSMITTANCE
624.827	0.6831
633.704	0.6738
642.58	0.5695
651.457	0.3721
660.334	0.2525
669.21	0.2168
678.087	0.3025
686.963	0.4692
695.84	0.6032
704.717	0.6446
713.593	0.471
722.47	0.0903
731.347	0.6673
740.223	0.6831
749.1	0.5968
757.977	0.1063
766.853	0.0998
775.73	0.3009
784.606	0.5592
793.483	0.4851
802.36	0.3482
811.236	0.6288
820.113	0.7546
828.99	0.804
837.866	0.8205
846.743	0.8311
855.62	0.8314
864.496	0.8302
873.373	0.8464
882.25	0.8241
891.126	0.5506
900.003	0.5768
908.879	0.7267
917.756	0.7475
926.633	0.7254
935.509	0.6334
944.386	0.3954
953.263	0.0788
962.139	0.0377
971.016	0.0408
979.893	0.1439
988.769	0.3081
997.646	0.2877
1006.52	0.205
1015.4	0.1572
1024.28	0.2492
1033.15	0.2824
1042.03	0.1073
1050.91	0.0609
1059.78	0.1521
1068.66	0.0748
1077.54	0.0364
1086.41	0.0372
1095.29	0.0427
1104.17	0.1213
1113.04	0.2297
1121.92	0.2384
1130.8	0.112
1139.67	0.0401
1148.55	0.0382
1157.43	0.0409
1166.3	0.0449
1175.18	0.0553
1184.06	0.1287
1192.93	0.3527
1201.81	0.3079
1210.69	0.1618
1219.56	0.3649
1228.44	0.6256
1237.32	0.6992
1246.19	0.7087
1255.07	0.6942
1263.94	0.5733
1272.82	0.2986
1281.7	0.1658
1290.57	0.3089
1299.45	0.4979
1308.33	0.5439
1317.2	0.3742
1326.08	0.1419
1334.96	0.3427
1343.83	0.5865
1352.71	0.7455
1361.59	0.7624
1370.46	0.5059
1379.34	0.1625
1388.22	0.1385
1397.09	0.3619
1405.97	0.5825
1414.85	0.7804
1423.72	0.7902
1432.6	0.7428
1441.48	0.7484
1450.35	0.8329
1459.23	0.8352
1468.11	0.6244
1476.98	0.2239
1485.86	0.4096
1494.74	0.6732
1503.61	0.8406
1512.49	0.8548
1521.37	0.8229
1530.24	0.7409
1539.12	0.7351
1548	0.8179
1556.87	0.8315
1565.75	0.8515
1574.63	0.8838
1583.5	0.9032
1592.38	0.9208
1601.26	0.9306
1610.13	0.9158
1619.01	0.8761
1627.89	0.8461
1636.76	0.8889
1645.64	0.9207
1654.52	0.923
1663.39	0.9164
1672.27	0.896
1681.15	0.8207
1690.02	0.7576
1698.9	0.76
1707.78	0.8023
1716.65	0.8298
1725.53	0.8294
1734.41	0.7796
1743.28	0.6263
1752.16	0.4774
1761.04	0.2451
1769.91	0.0722
1778.79	0.0515
1787.67	0.0467
1796.54	0.044
1805.42	0.0415
1814.3	0.0391
1823.17	0.0378
1832.05	0.0381
1840.93	0.0404
1849.8	0.049
1858.68	0.1249
1867.56	0.2669
1876.43	0.4074
1885.31	0.5082
1894.19	0.5497
1903.06	0.6095
1911.94	0.6189
1920.82	0.5378
1929.69	0.5165
1938.57	0.5567
1947.45	0.5534
1956.32	0.587
1965.2	0.7335
1974.08	0.8356
1982.95	0.8807
1991.83	0.8796
2000.71	0.872
2009.58	0.8653
2018.46	0.8602
2027.34	0.8642
2036.21	0.877
2045.09	0.9055
2053.97	0.9338
2062.84	0.953
2071.72	0.9615
2080.6	0.9667
2089.47	0.9667
2098.35	0.965
2107.23	0.9618
2116.1	0.956
2124.98	0.9396
2133.86	0.9337
2142.73	0.9355
2151.61	0.9412
2160.49	0.9442
2169.36	0.9351
2178.24	0.8971
2187.12	0.8795
2195.99	0.8761
2204.87	0.8849
2213.75	0.9055
2222.62	0.9178
2231.5	0.9112
2240.38	0.8931
2249.25	0.8716
2258.13	0.8585
2267.01	0.8596
2275.88	0.863
2284.76	0.8747
2293.63	0.884
2302.51	0.8899
2311.39	0.8947
2320.26	0.9001
2329.14	0.913
2338.02	0.9341
2346.89	0.9458
2355.77	0.9489
2364.65	0.9508
2373.52	0.9596
2382.4	0.9657
2391.28	0.9698
2400.15	0.973
2409.03	0.9739
2417.91	0.9718
2426.78	0.9663
2435.66	0.9543
2444.54	0.9453
2453.41	0.9393
2462.29	0.9383
2471.17	0.9412
2480.04	0.9458
2488.92	0.9468
2497.8	0.9324
2506.67	0.911
2515.55	0.9013
2524.43	0.8934
2533.3	0.8879
2542.18	0.8869
2551.06	0.9002
2559.93	0.9197
2568.81	0.9536
2577.69	0.9685
2586.56	0.9718
2595.44	0.9742
2604.32	0.9764
2613.19	0.9781
2622.07	0.9797
2630.95	0.9813
2639.82	0.9831
2648.7	0.9848
2657.58	0.9854
2666.45	0.9857
2675.33	0.986
2684.21	0.9851
2693.08	0.9838
2701.96	0.9781
2710.84	0.9706
2719.71	0.9626
2728.59	0.9566
2737.47	0.9566
2746.34	0.9603
2755.22	0.9647
2764.1	0.9715
2772.97	0.9776
2781.85	0.9829
2790.73	0.9845
2799.6	0.986
2808.48	0.9862
2817.36	0.9861
2826.23	0.9855
2835.11	0.9844
2843.99	0.9818
2852.86	0.9791
2861.74	0.9757
2870.62	0.9722
2879.49	0.9688
2888.37	0.9656
2897.25	0.9609
2906.12	0.9428
2915	0.9189
2923.88	0.8952
2932.75	0.8722
2941.63	0.8701
2950.51	0.8779
2959.38	0.8861
2968.26	0.894
2977.14	0.8963
2986.01	0.8612
2994.89	0.8226
3003.77	0.7847
3012.64	0.7739
3021.52	0.7937
3030.4	0.8171
3039.27	0.8326
3048.15	0.7824
3057.03	0.7002
3065.9	0.662
3074.78	0.6877
3083.66	0.7407
3092.53	0.7934
3101.41	0.8457
3110.29	0.8727
3119.16	0.8894
3128.04	0.9079
3136.92	0.9185
3145.79	0.9256
3154.67	0.931
3163.55	0.9361
3172.42	0.9423
3181.3	0.9494
3190.18	0.9563
3199.05	0.9611
3207.93	0.9658
3216.81	0.9698
3225.68	0.9731
3234.56	0.9746
3243.44	0.9758
3252.31	0.9768
3261.19	0.978
3270.07	0.9788
3278.94	0.9798
3287.82	0.9806
3296.7	0.9814
3305.57	0.9823
3314.45	0.9831
3323.32	0.9836
3332.2	0.9841
3341.08	0.9846
3349.95	0.9851
3358.83	0.985
3367.71	0.9849
3376.58	0.9848
3385.46	0.9847
3394.34	0.9846
3403.21	0.9845
3412.09	0.9844
3420.97	0.9842
3429.84	0.9841
3438.72	0.984
3447.6	0.9835
3456.47	0.9826
3465.35	0.9819
3474.23	0.9811
3483.1	0.9803
3491.98	0.9786
3500.86	0.9765
3509.73	0.9744
3518.61	0.9721
3527.49	0.9687
3536.36	0.9651
3545.24	0.9613
3554.12	0.9556
3562.99	0.9499
3571.87	0.9438
3580.75	0.9377
3589.62	0.9316
3598.5	0.9256
3607.38	0.9188
3616.25	0.9116
3625.13	0.9045
3634.01	0.8971
3642.88	0.8893
3651.76	0.8811
3660.64	0.8719
3669.51	0.8637
3678.39	0.8589
3687.27	0.8576
3696.14	0.857
3705.02	0.8576
3713.9	0.8714
3722.77	0.8993
3731.65	0.9269
3740.53	0.9464
3749.4	0.9518
3758.28	0.9572
3767.16	0.9621
3776.03	0.9667
3784.91	0.9706
3793.79	0.9744
3802.66	0.9777
3811.54	0.9793
3820.42	0.9808
3829.29	0.9812
3838.17	0.9814
3847.05	0.9816
3855.92	0.9828
3864.8	0.9843
3873.68	0.9861
3882.55	0.988
3891.43	0.9896
3900.31	0.9911
3909.18	0.9909
3918.06	0.9898
3926.94	0.9883
3935.81	0.987
3944.69	0.9862
