Infrared Spectrum: (2-Methylbutyl)benzene
Formula: C 11 H 16
CAS: 3968-85-2
State: gas
Instrument: HP-GC/MS/IRD
Origin: NIST Mass Spectrometry Data Center
1/CM	ABSORBANCE
550	7.2e-05
562	5.4e-05
574	0.000222
586	0.000615
598	0.000675
610	0.000489
622	0.0003
634	0.000276
646	0.000354
658	0.000684
670	0.001305
682	0.00396
694	0.010047
706	0.008943
718	0.006897
730	0.009825
742	0.006267
754	0.002358
766	0.001644
778	0.001119
790	0.000594
802	0.000435
814	0.000393
826	0.000591
838	0.000339
850	0.000222
862	0.00021
874	0.000249
886	0.000351
898	0.000666
910	0.00069
922	0.000372
934	0.000366
946	0.000312
958	0.000513
970	0.000828
982	0.000768
994	0.000711
1006	0.000858
1018	0.001383
1030	0.002043
1042	0.000999
1054	0.001044
1066	0.001107
1078	0.000786
1090	0.000918
1102	0.000978
1114	0.000804
1126	0.000591
1138	0.000633
1150	0.001017
1162	0.000708
1174	0.000381
1186	0.000333
1198	0.000519
1210	0.000432
1222	0.000369
1234	0.000402
1246	0.000408
1258	0.000471
1270	0.000588
1282	0.000672
1294	0.000744
1306	0.00081
1318	0.000771
1330	0.000813
1342	0.001101
1354	0.001455
1366	0.001755
1378	0.003363
1390	0.003051
1402	0.001272
1414	0.000957
1426	0.001251
1438	0.002409
1450	0.004869
1462	0.005949
1474	0.004239
1486	0.003969
1498	0.004626
1510	0.001695
1522	0.000726
1534	0.000618
1546	0.000519
1558	0.000555
1570	0.000735
1582	0.001323
1594	0.002328
1606	0.002445
1618	0.001032
1630	0.000459
1642	0.000372
1654	0.000345
1666	0.000282
1678	0.000231
1690	0.000228
1702	0.000216
1714	0.000189
1726	0.000261
1738	0.000336
1750	0.000267
1762	0.000219
1774	0.00027
1786	0.000552
1798	0.000705
1810	0.000354
1822	0.000207
1834	0.000165
1846	0.000255
1858	0.000399
1870	0.000492
1882	0.000426
1894	0.000258
1906	0.000171
1918	0.000267
1930	0.000576
1942	0.000693
1954	0.000495
1966	0.000141
1978	5.7e-05
1990	5.7e-05
2002	4.5e-05
2014	1.8e-05
2026	2.1e-05
2038	2.7e-05
2050	1.5e-05
2062	0
2074	2.4e-05
2086	3.6e-05
2098	3e-05
2110	2.1e-05
2122	2.4e-05
2134	2.1e-05
2146	3.9e-05
2158	4.8e-05
2170	3.3e-05
2182	4.2e-05
2194	2.7e-05
2206	3.9e-05
2218	4.5e-05
2230	5.4e-05
2242	4.2e-05
2254	6.3e-05
2266	7.2e-05
2278	4.5e-05
2290	6.9e-05
2302	0.000108
2314	0.000147
2326	9.9e-05
2338	0.000132
2350	0.000144
2362	0.000156
2374	0.000135
2386	0.000117
2398	0.000144
2410	0.000147
2422	0.000144
2434	0.000132
2446	0.000132
2458	0.000123
2470	0.000126
2482	0.000123
2494	0.000111
2506	0.00012
2518	0.000141
2530	0.000156
2542	0.000165
2554	0.000216
2566	0.000246
2578	0.000282
2590	0.000345
2602	0.000363
2614	0.000363
2626	0.000366
2638	0.000351
2650	0.000336
2662	0.000366
2674	0.000375
2686	0.000417
2698	0.000405
2710	0.000447
2722	0.000537
2734	0.000642
2746	0.000723
2758	0.000708
2770	0.000738
2782	0.000867
2794	0.001029
2806	0.001236
2818	0.001554
2830	0.002169
2842	0.003579
2854	0.00642
2866	0.009513
2878	0.01299
2890	0.014049
2902	0.013575
2914	0.01926
2926	0.024411
2938	0.022464
2950	0.018768
2962	0.025788
2974	0.027738
2986	0.011463
2998	0.005031
3010	0.004668
3022	0.007722
3034	0.010647
3046	0.006648
3058	0.006357
3070	0.009507
3082	0.00702
3094	0.004611
3106	0.002736
3118	0.001572
3130	0.000936
3142	0.000741
3154	0.000702
3166	0.000678
3178	0.000543
3190	0.000459
3202	0.000405
3214	0.0003
3226	0.000279
3238	0.00024
3250	0.000222
3262	0.000174
3274	0.000177
3286	0.000168
3298	0.000189
3310	0.000144
3322	0.000177
3334	0.000162
3346	0.000189
3358	0.000135
3370	0.000135
3382	0.000156
3394	0.000138
3406	0.000132
3418	0.000114
3430	0.000105
3442	0.000123
3454	9.6e-05
3466	0.000114
3478	7.8e-05
3490	0.000105
3502	0.000102
3514	0.000117
3526	6e-05
3538	7.2e-05
3550	0.000114
3562	3.9e-05
3574	9.9e-05
3586	7.2e-05
3598	0.000108
3610	0.000102
3622	0.000102
3634	0.000138
3646	0.000126
3658	0.000183
3670	0.000201
3682	0.000165
3694	0.000165
3706	0.000186
3718	0.000165
3730	0.000141
3742	0.000189
3754	0.000174
3766	0.000162
3778	0.000153
3790	0.000156
3802	0.00018
3814	0.000189
3826	0.000159
3838	0.00018
