Infrared Spectrum: 2-Methyl-1-phenyl-1-butanol
Formula: C 11 H 16 O
CAS: 3968-86-3
State: gas
Instrument: HP-GC/MS/IRD
Origin: NIST Mass Spectrometry Data Center
1/CM	ABSORBANCE
550	0.0013134
562	0.0003256
574	0.0001034
586	9.24e-05
598	6.6e-06
610	0.0003652
622	0.0008448
634	0.0010626
646	0.0009196
658	0.0014828
670	0.0016764
682	0.002739
694	0.0091498
706	0.0097306
718	0.0041866
730	0.0040326
742	0.0045122
754	0.004972
766	0.0035464
778	0.0016236
790	0.0008602
802	0.0007854
814	0.0008008
826	0.000902
838	0.0007524
850	0.0004796
862	0.0003168
874	0.0003476
886	0.000539
898	0.001276
910	0.001727
922	0.001166
934	0.0008404
946	0.0011704
958	0.0022484
970	0.003377
982	0.0044088
994	0.0065824
1006	0.0085382
1018	0.0087076
1030	0.0085954
1042	0.0062018
1054	0.003003
1066	0.0021318
1078	0.0020438
1090	0.0016412
1102	0.00176
1114	0.0018678
1126	0.001947
1138	0.0017248
1150	0.001958
1162	0.0025542
1174	0.0026004
1186	0.0025652
1198	0.0026114
1210	0.0027852
1222	0.0030756
1234	0.0029172
1246	0.0024574
1258	0.0025234
1270	0.0031196
1282	0.0035046
1294	0.0033396
1306	0.0031548
1318	0.0028842
1330	0.0025344
1342	0.002343
1354	0.0026114
1366	0.0034122
1378	0.0047058
1390	0.0040282
1402	0.0020042
1414	0.0013222
1426	0.0012914
1438	0.0020636
1450	0.0043494
1462	0.005115
1474	0.0035552
1486	0.0027984
1498	0.002431
1510	0.0008624
1522	0.000506
1534	0.0004576
1546	0.0004092
1558	0.0002992
1570	0.0002882
1582	0.0004664
1594	0.0008998
1606	0.0009416
1618	0.0002904
1630	0.0001804
1642	0.0001562
1654	0.000187
1666	0.0001452
1678	0.0001342
1690	9.68e-05
1702	7.48e-05
1714	5.94e-05
1726	8.58e-05
1738	0.000143
1750	0.0002002
1762	0.0001144
1774	0.0001188
1786	0.0002442
1798	0.0005082
1810	0.0003784
1822	0.000143
1834	3.74e-05
1846	4.62e-05
1858	0.0001386
1870	0.000319
1882	0.0003454
1894	0.0002398
1906	0.0001122
1918	9.46e-05
1930	0.0003014
1942	0.0005214
1954	0.0004664
1966	0.0001848
1978	5.72e-05
1990	1.98e-05
2002	4.4e-05
2014	4.18e-05
2026	4.18e-05
2038	2.42e-05
2050	2.86e-05
2062	8.8e-06
2074	1.1e-05
2086	3.3e-05
2098	2.2e-05
2110	5.06e-05
2122	2.2e-05
2134	1.1e-05
2146	2.2e-05
2158	4.4e-06
2170	2.86e-05
2182	4.18e-05
2194	2.64e-05
2206	4.18e-05
2218	4.4e-05
2230	3.74e-05
2242	3.96e-05
2254	2.64e-05
2266	4.18e-05
2278	3.08e-05
2290	6.38e-05
2302	7.26e-05
2314	0.0001364
2326	9.24e-05
2338	0.0001254
2350	0.0001452
2362	9.24e-05
2374	0.0001034
2386	0.0001144
2398	8.8e-05
2410	0.0001276
2422	0.0001298
2434	0.00011
2446	0.0001144
2458	0.0001034
2470	7.48e-05
2482	6.6e-05
2494	9.68e-05
2506	8.36e-05
2518	0.0001034
2530	0.0001034
2542	0.000176
2554	0.0001496
2566	0.0002046
2578	0.0002574
2590	0.0002904
2602	0.0002816
2614	0.0002838
2626	0.0003058
2638	0.0002882
2650	0.0002772
2662	0.0003168
2674	0.0003454
2686	0.0003938
2698	0.0003784
2710	0.000418
2722	0.0004422
2734	0.000539
2746	0.0006534
2758	0.000594
2770	0.0006182
2782	0.0006974
2794	0.0008448
2806	0.0010516
2818	0.0012584
2830	0.0016412
2842	0.0023518
2854	0.003905
2866	0.0071434
2878	0.0112574
2890	0.0134002
2902	0.011396
2914	0.0104456
2926	0.0118888
2938	0.013651
2950	0.0126346
2962	0.0171974
2974	0.0216964
2986	0.0115918
2998	0.0047806
3010	0.0033704
3022	0.004642
3034	0.006721
3046	0.005049
3058	0.0047542
3070	0.007326
3082	0.0056892
3094	0.003729
3106	0.0021472
3118	0.0011968
3130	0.0008118
3142	0.0006534
3154	0.0006006
3166	0.000561
3178	0.0004664
3190	0.0003762
3202	0.0003124
3214	0.0002024
3226	0.0001914
3238	0.0001122
3250	0.0001166
3262	0.0001232
3274	0.0001474
3286	0.0001166
3298	0.0001144
3310	0.0001606
3322	0.0001364
3334	0.0001474
3346	0.0001694
3358	0.0001408
3370	0.0001276
3382	0.0001496
3394	0.0001342
3406	0.0001672
3418	0.0001738
3430	0.0001914
3442	0.0001298
3454	0.0001518
3466	0.0001364
3478	0.0001276
3490	9.24e-05
3502	0.0001408
3514	0.000143
3526	6.82e-05
3538	0.0001012
3550	9.46e-05
3562	4.4e-05
3574	4.4e-05
3586	0.0001012
3598	0.0001254
3610	0.0002772
3622	0.0004224
3634	0.001386
3646	0.0032648
3658	0.0026048
3670	0.0010362
3682	0.0004246
3694	0.0002816
3706	0.0001848
3718	0.0001518
3730	5.72e-05
3742	1.32e-05
3754	2.42e-05
3766	8.36e-05
3778	0.00011
3790	9.9e-05
3802	3.74e-05
3814	5.94e-05
3826	5.94e-05
3838	4.18e-05
