Infrared Spectrum: 2-Methoxyethoxy methyl chloride
Formula: C 4 H 9 Cl O 2
CAS: 3970-21-6
State: gas
Origin: EPA-IR VAPOR PHASE LIBRARY
1/CM	ABSORBANCE
549.8	0.0008289
559.445	0.0008461
569.09	0.0007229
578.735	0.0008546
588.38	0.00060094
598.025	0.0007479
607.67	0.0008909
617.315	0.00125
626.96	0.0014308
636.605	0.002246
646.251	0.003766
655.896	0.006666
665.541	0.009976
675.186	0.010116
684.831	0.006306
694.476	0.003026
704.121	0.001736
713.766	0.0011512
723.411	0.0008517
733.056	0.0007101
742.701	0.0007944
752.346	0.0006647
761.991	0.00064161
771.636	0.0008317
781.281	0.0006739
790.926	0.0007956
800.571	0.0008338
810.216	0.0008742
819.861	0.0009231
829.507	0.001388
839.152	0.001576
848.797	0.001636
858.442	0.001606
868.087	0.0012347
877.732	0.0010629
887.377	0.0010004
897.022	0.0010215
906.667	0.0010371
916.312	0.0015128
925.957	0.0014669
935.602	0.0014687
945.247	0.0012994
954.892	0.0013662
964.537	0.0013122
974.182	0.001566
983.827	0.001916
993.472	0.002256
1003.12	0.002496
1012.76	0.002416
1022.41	0.002486
1032.05	0.002716
1041.7	0.002526
1051.34	0.002396
1060.99	0.002376
1070.63	0.002976
1080.28	0.004336
1089.92	0.006786
1099.57	0.010806
1109.21	0.016886
1118.86	0.023846
1128.5	0.025516
1138.15	0.020846
1147.79	0.014406
1157.44	0.009906
1167.08	0.006566
1176.73	0.004546
1186.37	0.004016
1196.02	0.004226
1205.66	0.003836
1215.31	0.003086
1224.95	0.002666
1234.6	0.002836
1244.24	0.003336
1253.89	0.003566
1263.53	0.003046
1273.18	0.002326
1282.82	0.001996
1292.47	0.002056
1302.11	0.002326
1311.76	0.002816
1321.4	0.002746
1331.05	0.002266
1340.69	0.0014875
1350.34	0.0011243
1359.98	0.0012581
1369.63	0.0012824
1379.27	0.0010688
1388.92	0.000899
1398.56	0.0008685
1408.21	0.000853
1417.85	0.000809
1427.5	0.0008213
1437.14	0.0010007
1446.79	0.0013852
1456.43	0.001816
1466.08	0.001856
1475.73	0.0014844
1485.37	0.0010696
1495.02	0.0008488
1504.66	0.0007144
1514.31	0.00059242
1523.95	0.00053799
1533.6	0.000546495
1543.24	0.0005059
1552.89	0.0005119
1562.53	0.0005132
1572.18	0.0005165
1581.82	0.0004497
1591.47	0.0004733
1601.11	0.0004663
1610.76	0.000382
1620.4	0.000437
1630.05	0.000411
1639.69	0.00043
1649.34	0.000377
1658.98	0.000431
1668.63	0.000411
1678.27	0.000424
1687.92	0.000395
1697.56	0.000443
1707.21	0.000357
1716.85	0.000387
1726.5	0.000328
1736.14	0.000399
1745.79	0.000413
1755.43	0.000429
1765.08	0.000373
1774.72	0.000394
1784.37	0.000423
1794.01	0.000426
1803.66	0.000398
1813.3	0.000396
1822.95	0.000361
1832.59	0.000347
1842.24	0.000353
1851.88	0.000382
1861.53	0.000285
1871.17	0.00041
1880.82	0.000376
1890.46	0.000356
1900.11	0.000379
1909.75	0.000392
1919.4	0.000404
1929.04	0.000401
1938.69	0.0004572
1948.33	0.0004978
1957.98	0.000466
1967.62	0.0005176
1977.27	0.0005298
1986.91	0.0004464
1996.56	0.0005078
2006.2	0.00056767
2015.85	0.0004468
2025.49	0.0004883
2035.14	0.0004804
2044.78	0.0004833
2054.43	0.0004946
2064.07	0.0004847
2073.72	0.0004586
2083.36	0.0004936
2093.01	0.00054007
2102.65	0.0005323
2112.3	0.0004917
2121.94	0.0004567
2131.59	0.0004876
2141.23	0.0005113
2150.88	0.000419
2160.52	0.000554777
2170.17	0.000424
2179.81	0.000398
2189.46	0.000403
2199.1	0.000328
2208.75	0.000345
2218.39	0.000441
2228.04	0.000334
2237.68	0.000376
2247.33	0.000426
2256.97	0.000422
2266.62	0.00042
2276.26	0.000355
2285.91	0.000355
2295.55	0.000393
2305.2	0.00034
2314.84	0.000324
2324.49	0.000319
2334.13	0.000345
2343.78	0.000265
2353.42	0.00031
2363.07	0.000352
2372.72	0.000279
2382.36	0.000339
2392.01	0.000289
2401.65	0.000288
2411.3	0.000375
2420.94	0.000239
2430.59	0.000317
2440.23	0.000266
2449.88	0.00022
2459.52	0.000252
2469.17	0.000312
2478.81	0.000239
2488.46	0.000193
2498.1	0.000206
2507.75	0.000213
2517.39	0.0003
2527.04	0.000288
2536.68	0.000257
2546.33	0.000242
2555.97	0.000241
2565.62	0.000264
2575.26	0.000268
2584.91	0.000238
2594.55	0.000227
2604.2	0.000297
2613.84	0.000347
2623.49	0.000317
2633.13	0.000228
2642.78	0.000188
2652.42	0.000257
2662.07	0.000296
2671.71	0.000225
2681.36	0.000333
2691	0.000321
2700.65	0.000417
2710.29	0.000384
2719.94	0.000414
2729.58	0.00058902
2739.23	0.00058577
2748.87	0.00058537
2758.52	0.00058614
2768.16	0.0006618
2777.81	0.0007955
2787.45	0.0009441
2797.1	0.0012195
2806.74	0.001616
2816.39	0.002436
2826.03	0.003186
2835.68	0.003396
2845.32	0.003246
2854.97	0.003406
2864.61	0.003996
2874.26	0.004756
2883.9	0.005496
2893.55	0.005876
2903.19	0.005786
2912.84	0.005516
2922.48	0.005596
2932.13	0.006106
2941.77	0.006146
2951.42	0.005876
2961.06	0.005096
2970.71	0.004146
2980.35	0.003576
2990	0.003336
2999.64	0.002896
3009.29	0.002116
3018.93	0.001686
3028.58	0.0014726
3038.22	0.0010226
3047.87	0.0007687
3057.51	0.00054018
3067.16	0.000421
3076.8	0.000477
3086.45	0.0004972
3096.09	0.000304
3105.74	0.000393
3115.38	0.000405
3125.03	0.000274
3134.67	0.00025
3144.32	0.000427
3153.96	0.000264
3163.61	0.000274
3173.25	0.000291
3182.9	0.000238
3192.54	0.000165
3202.19	0.000288
3211.83	0.000238
3221.48	8.7e-05
3231.12	0.00025
3240.77	0.000276
3250.41	0.000123
3260.06	0.000201
3269.7	0.000161
3279.35	0.000282
3289	0.000208
3298.64	0.000192
3308.29	0.000127
3317.93	0.000239
3327.58	0.000226
3337.22	0.000164
3346.87	0.000184
3356.51	0.000222
3366.16	0.000276
3375.8	4.6e-05
3385.45	0.000283
3395.09	0.000231
3404.74	0.000287
3414.38	0.000274
3424.03	0.000104
3433.67	0.000194
3443.32	0.00029
3452.96	0.000205
3462.61	0.000255
3472.25	0.000261
3481.9	0.000344
3491.54	0.000207
3501.19	0.000233
3510.83	0.00019
3520.48	0.000163
3530.12	0.000271
3539.77	0.000203
3549.41	0.000215
3559.06	0.000216
3568.7	0.000353
3578.35	0.000283
3587.99	0.000332
3597.64	0.00027
3607.28	0.000171
3616.93	0.000257
3626.57	0.000193
3636.22	0.000312
3645.86	0.000177
3655.51	0.000274
3665.15	0.000309
3674.8	0.000148
3684.44	0.0004704
3694.09	0.000235
3703.73	0.000176
3713.38	0.000302
3723.02	0.000308
3732.67	0.000343
3742.31	0.000344
3751.96	0.000274
3761.6	7.6e-05
3771.25	0.000404
3780.89	0.000233
3790.54	0.000193
3800.18	0.000266
3809.83	0.000258
3819.47	0.000314
3829.12	0.000273
3838.76	0.000293
3848.41	0.000277
3858.05	0.000256
3867.7	0.00024
3877.34	0.000272
3886.99	0.000294
3896.63	0.000316
3906.28	5.1e-05
3915.92	0.000259
3925.57	0.000177
3935.21	0.000295
3944.86	0.00023
3954.5	0.00021
3964.15	0.000296
3973.79	0.000209
3983.44	0.000299
3993.08	0.000293
