Infrared Spectrum: TRICYCLO[5.4.0.0^2^,^8]UNDEC-9-ENE, 2,6,6,9-TETRAMETHYL-
Formula: C15 H24
CAS: 39703-24-7
State: SOLUTION (10% IN CCl4 FOR 4000-1300 CM^-^1, 10% IN CS2 FOR 1300-450 CM^-^1) VS. SOLVENT
Class: COBLENTZ III
Instrument: CARY 90 (GRATING)
Instrument parameters: GRATING CHANGES AT 3000, 2000, 1200 CM^-^1
Sampling: TRANSMISSION
Path length: 0.010 CM, 0.010 CM
Resolution: 4
Origin: WESTERN REGIONAL RES. USDA
1/CM	TRANSMITTANCE
447.059	0.859
456.347	0.81
465.635	0.747
474.923	0.737
484.211	0.737
493.499	0.741
502.787	0.748
512.075	0.748
521.362	0.744
530.65	0.719
539.938	0.748
549.226	0.74
558.514	0.64
567.802	0.722
577.09	0.767
586.378	0.777
595.666	0.783
604.954	0.787
614.242	0.791
623.53	0.794
632.818	0.796
642.106	0.798
651.394	0.801
660.682	0.805
669.969	0.808
679.257	0.81
688.545	0.816
697.833	0.822
707.121	0.826
716.409	0.832
725.697	0.838
734.985	0.839
744.273	0.704
753.561	0.823
762.849	0.827
772.137	0.774
781.425	0.282
790.713	0.631
800.001	0.791
809.289	0.812
818.576	0.84
827.864	0.81
837.152	0.831
846.44	0.725
855.728	0.711
865.016	0.824
874.304	0.823
883.592	0.826
892.88	0.761
902.168	0.674
911.456	0.797
920.744	0.806
930.032	0.769
939.32	0.822
948.608	0.832
957.896	0.669
967.183	0.779
976.471	0.687
985.759	0.629
995.047	0.726
1004.34	0.796
1013.62	0.82
1022.91	0.737
1032.2	0.77
1041.49	0.702
1050.77	0.774
1060.06	0.85
1069.35	0.837
1078.64	0.855
1087.93	0.833
1097.21	0.859
1106.5	0.861
1115.79	0.703
1125.08	0.704
1134.37	0.7
1143.65	0.77
1152.94	0.796
1162.23	0.69
1171.52	0.729
1180.81	0.761
1190.09	0.87
1199.38	0.73
1208.67	0.694
1217.96	0.72
1227.25	0.669
1236.53	0.688
1245.82	0.739
1255.11	0.72
1264.4	0.591
1273.69	0.4981
1282.97	0.727
1292.26	0.71
1301.55	0.738
1310.84	0.611
1320.13	0.715
1329.41	0.682
1338.7	0.72
1347.99	0.705
1357.28	0.37
1366.56	0.362
1375.85	0.295
1385.14	0.493
1394.43	0.691
1403.72	0.724
1413	0.674
1422.29	0.566
1431.58	0.173
1440.87	0.231
1450.16	0.205
1459.44	0.243
1468.73	0.234
1478.02	0.65
1487.31	0.727
1496.6	0.746
1505.88	0.689
1515.17	0.483
1524.46	0.618
1533.75	0.775
1543.04	0.789
1552.32	0.798
1561.61	0.79
1570.9	0.781
1580.19	0.793
1589.48	0.8
1598.76	0.8
1608.05	0.791
1617.34	0.782
1626.63	0.776
1635.91	0.77
1645.2	0.76
1654.49	0.691
1663.78	0.773
1673.07	0.796
1682.35	0.801
1691.64	0.802
1700.93	0.804
1710.22	0.806
1719.51	0.809
1728.79	0.808
1738.08	0.802
1747.37	0.795
1756.66	0.806
1765.95	0.809
1775.23	0.809
1784.52	0.81
1793.81	0.813
1803.1	0.813
1812.39	0.81
1821.67	0.815
1830.96	0.812
1840.25	0.815
1849.54	0.818
1858.83	0.815
1868.11	0.812
1877.4	0.815
1886.69	0.817
1895.98	0.818
1905.27	0.819
1914.55	0.82
1923.84	0.822
1933.13	0.823
1942.42	0.824
1951.7	0.825
1960.99	0.826
1970.28	0.827
1979.57	0.829
1988.86	0.83
1998.14	0.831
2007.43	0.831
2016.72	0.832
2026.01	0.832
2035.3	0.833
2044.58	0.836
2053.87	0.836
2063.16	0.837
2072.45	0.837
2081.74	0.837
2091.02	0.837
2100.31	0.836
2109.6	0.836
2118.89	0.834
2128.18	0.834
2137.46	0.8358
2146.75	0.8343
2156.04	0.8311
2165.33	0.829
2174.62	0.831
2183.9	0.834
2193.19	0.837
2202.48	0.838
2211.77	0.838
2221.05	0.838
2230.34	0.838
2239.63	0.838
2248.92	0.838
2258.21	0.838
2267.49	0.838
2276.78	0.838
2286.07	0.839
2295.36	0.839
2304.65	0.84
2313.93	0.84
2323.22	0.841
2332.51	0.841
2341.8	0.843
2351.09	0.843
2360.37	0.844
2369.66	0.8447
2378.95	0.845
2388.24	0.845
2397.53	0.846
2406.81	0.846
2416.1	0.847
2425.39	0.847
2434.68	0.847
2443.97	0.848
2453.25	0.848
2462.54	0.85
2471.83	0.851
2481.12	0.851
2490.41	0.85
2499.69	0.848
2508.98	0.847
2518.27	0.8454
2527.56	0.8436
2536.84	0.846
2546.13	0.848
2555.42	0.847
2564.71	0.846
2574	0.8435
2583.28	0.8395
2592.57	0.835
2601.86	0.8305
2611.15	0.825
2620.44	0.8176
2629.72	0.8026
2639.01	0.7964
2648.3	0.811
2657.59	0.8071
2666.88	0.8016
2676.16	0.7946
2685.45	0.7807
2694.74	0.7604
2704.03	0.7302
2713.32	0.7176
2722.6	0.713
2731.89	0.7246
2741.18	0.7519
2750.47	0.7835
2759.76	0.7896
2769.04	0.7866
2778.33	0.778
2787.62	0.7506
2796.91	0.7014
2806.19	0.6474
2815.48	0.5643
2824.77	0.4549
2834.06	0.0994
2843.35	0.1069
2852.63	0.0919
2861.92	0.038
2871.21	0.025
2880.5	0.0215
2889.79	0.0127
2899.07	0.0088
2908.36	0.005
2917.65	0.004
2926.94	0.0042
2936.23	0.006
2945.51	0.0092
2954.8	0.0122
2964.09	0.0258
2973.38	0.1951
2982.67	0.2914
2991.95	0.27
3001.24	0.4486
3010.53	0.4935
3019.82	0.375
3029.11	0.5153
3038.39	0.7387
3047.68	0.7837
3056.97	0.8042
3066.26	0.8163
3075.55	0.8251
3084.83	0.83
3094.12	0.833
3103.41	0.837
3112.7	0.838
3121.98	0.839
3131.27	0.84
3140.56	0.843
3149.85	0.844
3159.14	0.845
3168.42	0.845
3177.71	0.844
3187	0.843
3196.29	0.843
3205.58	0.844
3214.86	0.845
3224.15	0.846
3233.44	0.851
3242.73	0.854
3252.02	0.858
3261.3	0.8619
3270.59	0.8659
3279.88	0.8689
3289.17	0.872
3298.46	0.874
3307.74	0.8759
3317.03	0.877
3326.32	0.879
3335.61	0.8772
3344.9	0.877
3354.18	0.876
3363.47	0.875
3372.76	0.874
3382.05	0.8722
3391.33	0.87
3400.62	0.87
3409.91	0.869
3419.2	0.869
3428.49	0.868
3437.77	0.8662
3447.06	0.865
3456.35	0.865
3465.64	0.8668
3474.93	0.869
3484.21	0.8728
3493.5	0.875
3502.79	0.877
3512.08	0.88
3521.37	0.8817
3530.65	0.883
3539.94	0.886
3549.23	0.886
3558.52	0.884
3567.81	0.882
3577.09	0.8793
3586.38	0.876
3595.67	0.8723
3604.96	0.87
3614.25	0.87
3623.53	0.8713
3632.82	0.873
3642.11	0.875
3651.4	0.877
3660.69	0.88
3669.97	0.881
3679.26	0.881
3688.55	0.881
3697.84	0.88
3707.12	0.8779
3716.41	0.8754
3725.7	0.873
3734.99	0.87
3744.28	0.869
3753.56	0.8711
3762.85	0.8735
3772.14	0.877
3781.43	0.8815
3790.72	0.883
3800	0.8815
3809.29	0.879
3818.58	0.875
3827.87	0.871
3837.16	0.8675
3846.44	0.863
3855.73	0.859
3865.02	0.8556
3874.31	0.854
3883.6	0.853
3892.88	0.8544
3902.17	0.8584
3911.46	0.863
3920.75	0.8674
3930.04	0.8724
3939.32	0.876
3948.61	0.8804
3957.9	0.8847
3967.19	0.8894
3976.47	0.8944
3985.76	0.8987
3995.05	0.9033
