Infrared Spectrum: 2-ETHYL SUBERIC ACID
Formula: C10 H18 O4
CAS: 3971-33-3
State: LIQUID
Class: COBLENTZ
Instrument: Not specified, most likely a grating spectrometer.
Sampling: TRANSMISSION
Path length: 0.001 CM
Resolution: 4
Origin: US INDUSTRIAL CHEMICALS COMPANY, CINCINNATI, OHIO
MICROMETERS	TRANSMITTANCE
2.041	0.911
2.08188	0.91
2.12275	0.915
2.16363	0.91
2.20451	0.899
2.24538	0.899
2.28626	0.899
2.32714	0.903
2.36801	0.901
2.40889	0.903
2.44976	0.903
2.49064	0.901
2.53152	0.898
2.57239	0.898
2.61327	0.898
2.65415	0.893
2.69502	0.898
2.7359	0.889
2.77678	0.882
2.81765	0.87
2.85853	0.82
2.89941	0.772
2.94028	0.711
2.98116	0.631
3.02204	0.541
3.06291	0.48
3.10379	0.431
3.14466	0.382
3.18554	0.327
3.22642	0.293
3.26729	0.28
3.30817	0.281
3.34905	0.237
3.38992	0.129
3.4308	0.162
3.47168	0.244
3.51255	0.327
3.55343	0.431
3.59431	0.48
3.63518	0.495
3.67606	0.507
3.71694	0.49
3.75781	0.482
3.79869	0.499
3.83956	0.516
3.88044	0.544
3.92132	0.558
3.96219	0.597
4.00307	0.638
4.04395	0.68
4.08482	0.707
4.1257	0.728
4.16658	0.748
4.20745	0.753
4.24833	0.73
4.28921	0.747
4.33008	0.77
4.37096	0.799
4.41183	0.803
4.45271	0.808
4.49359	0.816
4.53446	0.816
4.57534	0.821
4.61622	0.825
4.65709	0.825
4.69797	0.825
4.73885	0.82
4.77972	0.82
4.8206	0.825
4.86148	0.811
4.90235	0.826
4.94323	0.82
4.98411	0.814
5.02498	0.814
5.06586	0.808
5.10673	0.801
5.14761	0.801
5.18849	0.797
5.22936	0.797
5.27024	0.794
5.31112	0.786
5.35199	0.775
5.39287	0.775
5.43375	0.76
5.47462	0.757
5.5155	0.75
5.55638	0.735
5.59725	0.718
5.63813	0.667
5.67901	0.551
5.71988	0.421
5.76076	0.292
5.80163	0.157
5.84251	0.033
5.88339	0.03
5.92426	0.13
5.96514	0.407
6.00602	0.546
6.04689	0.601
6.08777	0.668
6.12865	0.728
6.16952	0.75
6.2104	0.784
6.25128	0.794
6.29215	0.804
6.33303	0.799
6.37391	0.804
6.41478	0.808
6.45566	0.796
6.49653	0.808
6.53741	0.801
6.57829	0.799
6.61916	0.791
6.66004	0.786
6.70092	0.77
6.74179	0.747
6.78267	0.505
6.82355	0.402
6.86442	0.477
6.9053	0.5
6.94618	0.477
6.98705	0.431
7.02793	0.371
7.06881	0.359
7.10968	0.473
7.15056	0.589
7.19143	0.619
7.23231	0.646
7.27319	0.689
7.31406	0.696
7.35494	0.668
7.39582	0.633
7.43669	0.617
7.47757	0.606
7.51845	0.594
7.55932	0.55
7.6002	0.505
7.64108	0.466
7.68195	0.412
7.72283	0.351
7.76371	0.327
7.80458	0.325
7.84546	0.329
7.88633	0.346
7.92721	0.366
7.96809	0.388
8.00896	0.4
8.04984	0.397
8.09072	0.356
8.13159	0.319
8.17247	0.315
8.21335	0.346
8.25422	0.41
8.2951	0.456
8.33598	0.48
8.37685	0.509
8.41773	0.544
8.4586	0.56
8.49948	0.575
8.54036	0.585
8.58123	0.587
8.62211	0.585
8.66299	0.595
8.70386	0.609
8.74474	0.636
8.78562	0.674
8.82649	0.696
8.86737	0.704
8.90825	0.689
8.94912	0.689
8.99	0.689
9.03088	0.685
9.07175	0.685
9.11263	0.689
9.1535	0.699
9.19438	0.713
9.23526	0.731
9.27613	0.76
9.31701	0.767
9.35789	0.772
9.39876	0.777
9.43964	0.775
9.48052	0.775
9.52139	0.786
9.56227	0.786
9.60315	0.791
9.64402	0.791
9.6849	0.789
9.72578	0.787
9.76665	0.797
9.80753	0.797
9.8484	0.786
9.88928	0.784
9.93016	0.78
9.97103	0.777
10.0119	0.767
10.0528	0.76
10.0937	0.753
10.1345	0.747
10.1754	0.726
10.2163	0.706
10.2572	0.685
10.298	0.668
10.3389	0.631
10.3798	0.612
10.4207	0.59
10.4616	0.565
10.5024	0.544
10.5433	0.519
10.5842	0.514
10.6251	0.507
10.6659	0.5
10.7068	0.49
10.7477	0.507
10.7886	0.511
10.8294	0.521
10.8703	0.526
10.9112	0.548
10.9521	0.555
10.9929	0.56
11.0338	0.568
11.0747	0.585
11.1156	0.594
11.1565	0.609
11.1973	0.616
11.2382	0.617
11.2791	0.629
11.32	0.643
11.3608	0.645
11.4017	0.653
11.4426	0.648
11.4835	0.662
11.5243	0.665
11.5652	0.67
11.6061	0.677
11.647	0.68
11.6878	0.689
11.7287	0.689
11.7696	0.684
11.8105	0.689
11.8514	0.696
11.8922	0.697
11.9331	0.694
11.974	0.696
12.0149	0.694
12.0557	0.697
12.0966	0.696
12.1375	0.699
12.1784	0.707
12.2192	0.716
12.2601	0.719
12.301	0.721
12.3419	0.723
12.3827	0.724
12.4236	0.724
12.4645	0.726
12.5054	0.724
12.5463	0.721
12.5871	0.709
12.628	0.691
12.6689	0.677
12.7098	0.662
12.7506	0.657
12.7915	0.648
12.8324	0.657
12.8733	0.677
12.9141	0.691
12.955	0.707
12.9959	0.721
13.0368	0.733
13.0776	0.741
13.1185	0.752
13.1594	0.755
13.2003	0.758
13.2412	0.758
13.282	0.767
13.3229	0.77
13.3638	0.767
13.4047	0.767
13.4455	0.767
13.4864	0.764
13.5273	0.752
13.5682	0.752
13.609	0.738
13.6499	0.728
13.6908	0.73
13.7317	0.747
13.7725	0.752
13.8134	0.769
13.8543	0.779
13.8952	0.791
13.9361	0.797
13.9769	0.806
14.0178	0.811
14.0587	0.814
14.0996	0.816
14.1404	0.811
14.1813	0.821
14.2222	0.826
14.2631	0.823
14.3039	0.826
14.3448	0.825
14.3857	0.821
14.4266	0.811
14.4674	0.809
14.5083	0.801
14.5492	0.801
14.5901	0.797
14.631	0.796
14.6718	0.792
14.7127	0.787
14.7536	0.777
14.7945	0.772
14.8353	0.774
14.8762	0.762
14.9171	0.76
14.958	0.747
14.9988	0.731
15.0397	0.745
15.0806	0.741
15.1215	0.728
15.1623	0.726
15.2032	0.726
15.2441	0.724
15.285	0.723
15.3259	0.716
15.3667	0.713
15.4076	0.706
15.4485	0.706
15.4894	0.692
15.5302	0.691
15.5711	0.689
15.612	0.685
15.6529	0.677
15.6937	0.67
15.7346	0.665
15.7755	0.658
15.8164	0.653
15.8572	0.65
15.8981	0.646
15.939	0.643
15.9799	0.636
