Infrared Spectrum: 5-Methylisophthalonitrile
Formula: C 9 H 6 N 2
CAS: 39718-07-5
State: gas
Origin: EPA-IR VAPOR PHASE LIBRARY
1/CM	ABSORBANCE
549.8	0.00493
559.445	0.0040614
569.09	0.00268
578.734	0.00381962
588.379	0.0040941
598.024	0.00331
607.669	0.002776
617.313	0.0039269
626.958	0.0041599
636.603	0.0039028
646.248	0.0038457
655.893	0.0043376
665.537	0.00619
675.182	0.0098
684.827	0.00948
694.472	0.00649
704.116	0.00512
713.761	0.00509
723.406	0.004033
733.051	0.0041083
742.695	0.0038551
752.34	0.0036725
761.985	0.0046961
771.63	0.0047032
781.275	0.004148
790.919	0.00514
800.564	0.004331
810.209	0.0039351
819.854	0.004495
829.498	0.0045006
839.143	0.0044665
848.788	0.00506
858.433	0.00672
868.078	0.01234
877.722	0.01245
887.367	0.00937
897.012	0.00903
906.657	0.00625
916.301	0.0049
925.946	0.004094
935.591	0.0047033
945.236	0.00477
954.88	0.00371289
964.525	0.003656
974.17	0.0046003
983.815	0.003253
993.46	0.0045733
1003.1	0.0041756
1012.75	0.0040566
1022.39	0.003066
1032.04	0.0040462
1041.68	0.00482
1051.33	0.00495
1060.97	0.00323
1070.62	0.00377275
1080.26	0.0038128
1089.91	0.002775
1099.55	0.0039145
1109.2	0
1118.84	0.00246
1128.49	0.0043557
1138.13	0.00611
1147.78	0.00477
1157.42	0.0058
1167.07	0.00567
1176.71	0.00587
1186.36	0.00477
1196	0.00622
1205.64	0.00741
1215.29	0.00703
1224.93	0.00516
1234.58	0.00538
1244.22	0.00526
1253.87	0.00596
1263.51	0.00554
1273.16	0.00537
1282.8	0.00549
1292.45	0.0051
1302.09	0.00513
1311.74	0.0049
1321.38	0.00477
1331.03	0.00491
1340.67	0.0045563
1350.32	0.0045318
1359.96	0.00494
1369.61	0.00477
1379.25	0.00491
1388.9	0.00503
1398.54	0.00509
1408.18	0.00547
1417.83	0.00604
1427.47	0.00739
1437.12	0.00818
1446.76	0.00732
1456.41	0.00598
1466.05	0.00555
1475.7	0.00579
1485.34	0.00583
1494.99	0.00518
1504.63	0.00529
1514.28	0.00493
1523.92	0.00525
1533.57	0.00529
1543.21	0.00489
1552.86	0.0044362
1562.5	0.00532
1572.15	0.0071
1581.79	0.01003
1591.44	0.0129
1601.08	0.01194
1610.73	0.00731
1620.37	0.00496
1630.01	0.00486
1639.66	0.004436
1649.3	0.0039616
1658.95	0.0039858
1668.59	0.0039521
1678.24	0.0041133
1687.88	0.0042043
1697.53	0.0045816
1707.17	0.0042099
1716.82	0.0041335
1726.46	0.0044084
1736.11	0.0041971
1745.75	0.0041731
1755.4	0.00478
1765.04	0.00478
1774.69	0.00574
1784.33	0.00666
1793.98	0.00583
1803.62	0.00479
1813.27	0.0044067
1822.91	0.0043018
1832.55	0.0041819
1842.2	0.0041158
1851.84	0.0040315
1861.49	0.0040537
1871.13	0.0041846
1880.78	0.0038882
1890.42	0.004082
1900.07	0.0038553
1909.71	0.0039599
1919.36	0.0039541
1929	0.0038578
1938.65	0.00381589
1948.29	0.0040015
1957.94	0.0039015
1967.58	0.0039169
1977.23	0.0040054
1986.87	0.00380009
1996.52	0.00378248
2006.16	0.00378207
2015.81	0.00379408
2025.45	0.0036615
2035.1	0.0039003
2044.74	0.003609
2054.38	0.00374268
2064.03	0.0039332
2073.67	0.003625
2083.32	0.003576
2092.96	0.00379413
2102.61	0.003869
2112.25	0.00374201
2121.9	0.00372529
2131.54	0.0038692
2141.19	0.0039218
2150.83	0.0039565
2160.48	0.003603
2170.12	0.0039881
2179.77	0.0036228
2189.41	0.003602
2199.06	0.003686
2208.7	0.0040111
2218.35	0.0041672
2227.99	0.004711
2237.64	0.00626
2247.28	0.00557
2256.92	0.0041032
2266.57	0.0041049
2276.21	0.00371448
2285.86	0.0037005
2295.5	0.00379289
2305.15	0.0036337
2314.79	0.0043749
2324.44	0.0039169
2334.08	0.0039799
2343.73	0.0038888
2353.37	0.0039453
2363.02	0.0038776
2372.66	0.0041112
2382.31	0.0039472
2391.95	0.00371781
2401.6	0.0041653
2411.24	0.0038835
2420.89	0.0039361
2430.53	0.0040598
2440.18	0.0036464
2449.82	0.00372346
2459.47	0.0036383
2469.11	0.00372903
2478.75	0.0041963
2488.4	0.0038689
2498.04	0.0036302
2507.69	0.00380764
2517.33	0.00379019
2526.98	0.0037049
2536.62	0.003585
2546.27	0.0038419
2555.91	0.0039718
2565.56	0.0041962
2575.2	0.00372276
2584.85	0.003582
2594.49	0.0036539
2604.14	0.0040646
2613.78	0.003385
2623.43	0.0039417
2633.07	0.0038647
2642.72	0.0038829
2652.36	0.003606
2662.01	0.003547
2671.65	0.00381952
2681.29	0.0039495
2690.94	0.003929
2700.58	0.0040952
2710.23	0.0038565
2719.87	0.0040781
2729.52	0.0041781
2739.16	0.0040958
2748.81	0.0036881
2758.45	0.0040964
2768.1	0.00377846
2777.74	0.0040503
2787.39	0.0040769
2797.03	0.00376134
2806.68	0.003569
2816.32	0.0042497
2825.97	0.0041155
2835.61	0.0043687
2845.26	0.0042448
2854.9	0.0043306
2864.55	0.0045493
2874.19	0.00526
2883.84	0.0046418
2893.48	0.00477
2903.12	0.00511
2912.77	0.00502
2922.41	0.0061
2932.06	0.00819
2941.7	0.00703
2951.35	0.00652
2960.99	0.00558
2970.64	0.00506
2980.28	0.00483
2989.93	0.0046187
2999.57	0.004714
3009.22	0.0054
3018.86	0.00515
3028.51	0.00485
3038.15	0.00537
3047.8	0.00517
3057.44	0.00477
3067.09	0.00517
3076.73	0.0042325
3086.38	0.0043944
3096.02	0.0039323
3105.67	0.004124
3115.31	0.0041343
3124.95	0.003536
3134.6	0.0043308
3144.24	0.003371
3153.89	0.003245
3163.53	0.0040365
3173.18	0.0045127
3182.82	0.00374753
3192.47	0.003597
3202.11	0.00338
3211.76	0.0039852
3221.4	0.00362
3231.05	0.003182
3240.69	0.0040785
3250.34	0.0038524
3259.98	0.00378494
3269.63	0.003991
3279.27	0.002743
3288.92	0.00377067
3298.56	0.003967
3308.21	0.00380216
3317.85	0.0038341
3327.49	0.003053
3337.14	0.00373392
3346.78	0.003397
3356.43	0.0036947
3366.07	0.003387
3375.72	0.00338
3385.36	0.003169
3395.01	0.003905
3404.65	0.003456
3414.3	0.003336
3423.94	0.004107
3433.59	0.003593
3443.23	0.002837
3452.88	0.003209
3462.52	0.003326
3472.17	0.0043392
3481.81	0.0038541
3491.46	0.0041431
3501.1	0.0039567
3510.75	0.0042965
3520.39	0.003599
3530.04	0.003575
3539.68	0.0038546
3549.32	0.0036657
3558.97	0.0039259
3568.61	0.003043
3578.26	0.0041202
3587.9	0.003412
3597.55	0.003541
3607.19	0.0037049
3616.84	0.00313
3626.48	0.003558
3636.13	0.003314
3645.77	0.002903
3655.42	0.0041306
3665.06	0.0043988
3674.71	0.003553
3684.35	0.002747
3694	0.003437
3703.64	0.003391
3713.29	0.00377658
3722.93	0.0036867
3732.58	0.0027
3742.22	0.003436
3751.86	0.002997
3761.51	0.003038
3771.15	0.003591
3780.8	0.003683
3790.44	0.003283
3800.09	0.003238
3809.73	0.003533
3819.38	0.003151
3829.02	0.0040095
3838.67	0.003136
3848.31	0.0038317
3857.96	0.0042662
3867.6	0.002904
3877.25	0.003312
3886.89	0.0038062
3896.54	0.003384
3906.18	0.003473
3915.83	0.003027
3925.47	0.00347
3935.12	0.003471
3944.76	0.003288
3954.41	0.003418
3964.05	0.00378513
3973.69	0.0039691
3983.34	0.00379173
3992.98	0.00374212
