Infrared Spectrum: 5,5-Dimethyl-2-hexene
Formula: C 8 H 16
CAS: 39761-61-0
State: gas
Instrument: HP-GC/MS/IRD
Origin: NIST Mass Spectrometry Data Center
1/CM	ABSORBANCE
550	0.00068
562	6e-05
574	4e-06
586	0.000104
598	0.00012
610	0.000172
622	0.00016
634	0.000164
646	0.00012
658	0.000168
670	0.000224
682	0.000264
694	0.0003
706	0.00028
718	0.0003
730	0.00026
742	0.000232
754	0.000264
766	0.000256
778	0.000312
790	0.000344
802	0.00032
814	0.000272
826	0.000316
838	0.00036
850	0.00034
862	0.000424
874	0.000464
886	0.000628
898	0.001064
910	0.001488
922	0.001652
934	0.001836
946	0.002848
958	0.005636
970	0.006676
982	0.003612
994	0.001676
1006	0.001252
1018	0.001268
1030	0.001128
1042	0.00092
1054	0.000808
1066	0.00094
1078	0.000904
1090	0.00066
1102	0.000564
1114	0.000464
1126	0.000432
1138	0.000368
1150	0.00048
1162	0.0007
1174	0.001232
1186	0.00174
1198	0.0019
1210	0.001408
1222	0.001416
1234	0.002156
1246	0.001924
1258	0.001024
1270	0.000728
1282	0.000536
1294	0.000532
1306	0.000568
1318	0.00064
1330	0.00084
1342	0.001212
1354	0.002728
1366	0.005204
1378	0.005048
1390	0.00368
1402	0.002544
1414	0.001396
1426	0.001636
1438	0.002364
1450	0.003216
1462	0.004372
1474	0.004948
1486	0.003568
1498	0.001608
1510	0.000824
1522	0.000536
1534	0.000448
1546	0.000328
1558	0.000296
1570	0.000296
1582	0.000304
1594	0.000284
1606	0.000308
1618	0.000232
1630	0.000228
1642	0.000284
1654	0.0003
1666	0.000396
1678	0.000352
1690	0.000296
1702	0.00018
1714	0.000156
1726	0.000268
1738	0.0003
1750	0.000304
1762	0.000236
1774	0.000172
1786	0.000152
1798	0.000192
1810	0.00016
1822	0.000172
1834	0.000168
1846	0.000132
1858	0.000108
1870	6.8e-05
1882	7.2e-05
1894	6.4e-05
1906	6e-05
1918	6.8e-05
1930	9.6e-05
1942	8e-05
1954	0.000108
1966	9.6e-05
1978	0.000116
1990	0.000108
2002	0.00014
2014	9.2e-05
2026	8e-05
2038	2.4e-05
2050	5.6e-05
2062	2e-05
2074	1.6e-05
2086	3.2e-05
2098	2.8e-05
2110	2.4e-05
2122	3.6e-05
2134	3.6e-05
2146	3.6e-05
2158	4.8e-05
2170	3.2e-05
2182	2e-05
2194	2e-05
2206	4e-06
2218	4e-05
2230	2.8e-05
2242	5.2e-05
2254	4.4e-05
2266	8e-06
2278	8e-05
2290	6.4e-05
2302	3.6e-05
2314	4.4e-05
2326	3.2e-05
2338	3.6e-05
2350	5.6e-05
2362	4.8e-05
2374	0.000108
2386	0.00012
2398	0.000132
2410	9.2e-05
2422	7.2e-05
2434	5.6e-05
2446	8e-05
2458	9.6e-05
2470	8.8e-05
2482	7.6e-05
2494	9.6e-05
2506	0.000104
2518	9.2e-05
2530	9.6e-05
2542	0.00012
2554	0.0001
2566	0.00012
2578	0.00014
2590	0.000128
2602	0.000168
2614	0.000212
2626	0.000208
2638	0.000216
2650	0.000248
2662	0.000208
2674	0.00028
2686	0.000292
2698	0.000352
2710	0.000484
2722	0.000656
2734	0.000776
2746	0.000852
2758	0.000696
2770	0.0007
2782	0.000772
2794	0.000936
2806	0.0013
2818	0.001904
2830	0.003076
2842	0.004624
2854	0.00654
2866	0.010816
2878	0.014056
2890	0.015548
2902	0.017672
2914	0.018684
2926	0.019308
2938	0.02184
2950	0.030808
2962	0.04
2974	0.028988
2986	0.012024
2998	0.00608
3010	0.004844
3022	0.005076
3034	0.004268
3046	0.002588
3058	0.001648
3070	0.001324
3082	0.001112
3094	0.001
3106	0.000828
3118	0.000704
3130	0.000684
3142	0.000652
3154	0.000624
3166	0.000584
3178	0.000564
3190	0.0005
3202	0.000528
3214	0.000528
3226	0.000452
3238	0.000412
3250	0.000312
3262	0.000296
3274	0.000196
3286	0.0002
3298	0.000212
3310	0.000212
3322	0.000196
3334	0.000188
3346	0.00018
3358	0.000176
3370	0.000172
3382	0.000108
3394	0.000108
3406	8e-05
3418	8.4e-05
3430	0.000136
3442	0.000176
3454	0.000172
3466	0.000108
3478	0.000112
3490	0.000108
3502	0.00012
3514	6.4e-05
3526	0.000136
3538	6e-05
3550	5.6e-05
3562	0.000144
3574	0.0001
3586	1.6e-05
3598	0.0001
3610	0.000108
3622	8e-06
3634	9.2e-05
3646	9.2e-05
3658	8.4e-05
3670	2.8e-05
3682	0.000116
3694	0.000132
3706	0.000132
3718	0.000124
3730	0.000176
3742	0.000208
3754	0.00016
3766	0.000188
3778	0.00022
3790	0.0002
3802	0.000176
3814	0.000236
3826	0.000192
3838	0.000212
