Infrared Spectrum: trans-3,4,4-Trimethyl-2-pentene
Formula: C 8 H 16
CAS: 39761-64-3
State: gas
Instrument: HP-GC/MS/IRD
Origin: NIST Mass Spectrometry Data Center
1/CM	ABSORBANCE
550	0.001614
562	0.000978
574	0.000342
586	6e-05
598	0.000147
610	0
622	0.000123
634	8.1e-05
646	9.3e-05
658	6e-05
670	7.5e-05
682	0.000162
694	0.000183
706	0.000171
718	8.4e-05
730	8.7e-05
742	0.000105
754	0.000165
766	0.000168
778	0.000222
790	0.000378
802	0.000954
814	0.001839
826	0.001791
838	0.000915
850	0.000426
862	0.000306
874	0.000255
886	0.000237
898	0.0003
910	0.000342
922	0.000438
934	0.000459
946	0.000387
958	0.000369
970	0.000528
982	0.000633
994	0.000684
1006	0.000618
1018	0.000624
1030	0.000714
1042	0.000831
1054	0.001218
1066	0.001902
1078	0.00207
1090	0.001251
1102	0.000549
1114	0.000393
1126	0.000417
1138	0.000846
1150	0.001365
1162	0.001242
1174	0.000759
1186	0.000897
1198	0.001266
1210	0.00102
1222	0.000522
1234	0.000522
1246	0.000918
1258	0.001299
1270	0.000975
1282	0.000498
1294	0.000342
1306	0.000399
1318	0.00054
1330	0.000843
1342	0.001362
1354	0.002622
1366	0.004482
1378	0.004674
1390	0.003627
1402	0.002133
1414	0.001443
1426	0.001353
1438	0.001551
1450	0.002115
1462	0.003144
1474	0.003945
1486	0.003237
1498	0.001893
1510	0.00111
1522	0.000894
1534	0.00072
1546	0.000612
1558	0.000504
1570	0.000426
1582	0.000396
1594	0.000342
1606	0.000327
1618	0.000351
1630	0.000414
1642	0.000399
1654	0.00033
1666	0.000249
1678	0.000186
1690	0.000153
1702	0.000138
1714	0.000135
1726	9e-05
1738	9.6e-05
1750	0.000102
1762	9.9e-05
1774	8.4e-05
1786	0.000114
1798	0.00015
1810	0.000168
1822	0.000177
1834	0.000201
1846	0.000204
1858	0.000189
1870	0.000147
1882	9.6e-05
1894	9.6e-05
1906	0.000102
1918	7.2e-05
1930	6.6e-05
1942	5.7e-05
1954	5.1e-05
1966	4.8e-05
1978	3.3e-05
1990	3.9e-05
2002	3e-05
2014	4.5e-05
2026	5.4e-05
2038	3.6e-05
2050	6.6e-05
2062	4.5e-05
2074	2.1e-05
2086	6e-06
2098	5.1e-05
2110	2.7e-05
2122	0
2134	9e-06
2146	1.2e-05
2158	3.9e-05
2170	3e-05
2182	3.6e-05
2194	4.8e-05
2206	4.8e-05
2218	2.7e-05
2230	1.2e-05
2242	3e-05
2254	3e-05
2266	2.4e-05
2278	4.8e-05
2290	2.7e-05
2302	5.1e-05
2314	5.4e-05
2326	6e-05
2338	4.8e-05
2350	4.2e-05
2362	7.8e-05
2374	9.6e-05
2386	8.4e-05
2398	9.6e-05
2410	9.6e-05
2422	0.000105
2434	9.9e-05
2446	7.2e-05
2458	8.4e-05
2470	9.3e-05
2482	5.7e-05
2494	7.5e-05
2506	8.1e-05
2518	9.3e-05
2530	9.6e-05
2542	0.000111
2554	0.000138
2566	0.000135
2578	0.000138
2590	0.000135
2602	0.000141
2614	0.000153
2626	0.000138
2638	0.000165
2650	0.000216
2662	0.000243
2674	0.000225
2686	0.000249
2698	0.000318
2710	0.000429
2722	0.000519
2734	0.000597
2746	0.000621
2758	0.0006
2770	0.000546
2782	0.000615
2794	0.000717
2806	0.000867
2818	0.001083
2830	0.001527
2842	0.002286
2854	0.004194
2866	0.008199
2878	0.011274
2890	0.010917
2902	0.011175
2914	0.013269
2926	0.01524
2938	0.015984
2950	0.020034
2962	0.028542
2974	0.027915
2986	0.015138
2998	0.007395
3010	0.005025
3022	0.004248
3034	0.003672
3046	0.003213
3058	0.003015
3070	0.002556
3082	0.001668
3094	0.001056
3106	0.00081
3118	0.000732
3130	0.000576
3142	0.000528
3154	0.000486
3166	0.000411
3178	0.000411
3190	0.000378
3202	0.000399
3214	0.000342
3226	0.000303
3238	0.000264
3250	0.000264
3262	0.00027
3274	0.000258
3286	0.000204
3298	0.000201
3310	0.000141
3322	0.000153
3334	0.00015
3346	0.00015
3358	0.000147
3370	0.000117
3382	0.000105
3394	0.000117
3406	0.000105
3418	0.000105
3430	0.000114
3442	9.9e-05
3454	7.5e-05
3466	7.5e-05
3478	6.3e-05
3490	0.000114
3502	0.000108
3514	8.4e-05
3526	7.2e-05
3538	6.6e-05
3550	6.3e-05
3562	4.5e-05
3574	5.1e-05
3586	6e-05
3598	3.9e-05
3610	1.2e-05
3622	1.8e-05
3634	3e-05
3646	3e-05
3658	3.6e-05
3670	4.5e-05
3682	3.9e-05
3694	7.2e-05
3706	5.7e-05
3718	6.9e-05
3730	3.9e-05
3742	4.8e-05
3754	8.4e-05
3766	5.4e-05
3778	7.5e-05
3790	0.000129
3802	7.8e-05
3814	9.3e-05
3826	0.000108
3838	7.5e-05
