Infrared Spectrum: p-Ethoxybenzylidene p-heptylaniline
Formula: C 22 H 29 N O
CAS: 39777-17-8
State: gas
Origin: EPA-IR VAPOR PHASE LIBRARY
1/CM	ABSORBANCE
549.8	0.0064377
559.445	0.0067977
569.09	0.0044777
578.734	0.0026877
588.379	0.0024477
598.024	0.0030177
607.669	0.0035677
617.313	0.0031477
626.958	0.0018077
636.603	0.0017277
646.248	0.0010863
655.893	0.0006486
665.537	0.0005673
675.182	0.0005942
684.827	0.0008538
694.472	0.000996
704.116	0.0015377
713.761	0.0025477
723.406	0.0023577
733.051	0.0019577
742.695	0.0018477
752.34	0.0018577
761.985	0.0020277
771.63	0.0023877
781.275	0.0028677
790.919	0.0038977
800.564	0.0056677
810.209	0.0078477
819.854	0.0115477
829.498	0.0159577
839.143	0.0162377
848.788	0.0105577
858.433	0.0066577
868.078	0.0060377
877.722	0.0086677
887.367	0.0127277
897.012	0.0082477
906.657	0.0065877
916.301	0.0059477
925.946	0.0052977
935.591	0.0034077
945.236	0.0026377
954.88	0.0025977
964.525	0.0031277
974.17	0.0032177
983.815	0.0026277
993.46	0.0027377
1003.1	0.0037177
1012.75	0.0083177
1022.39	0.0079377
1032.04	0.0130577
1041.68	0.0189977
1051.33	0.0155077
1060.97	0.0091777
1070.62	0.0061277
1080.26	0.0060477
1089.91	0.0088577
1099.55	0.0096577
1109.2	0.0106877
1118.84	0.0092577
1128.49	0.0062777
1138.13	0.0066577
1147.78	0.0104177
1157.42	0.0379377
1167.07	0.0726677
1176.71	0.0146177
1186.36	0.0141177
1196	0.0186977
1205.64	0.0160977
1215.29	0.0230177
1224.93	0.0392577
1234.58	0.0709577
1244.22	0.0811077
1253.87	0.0570077
1263.51	0.0249077
1273.16	0.0152977
1282.8	0.0153277
1292.45	0.0191277
1302.09	0.0277877
1311.74	0.0182377
1321.38	0.0089477
1331.03	0.0068777
1340.67	0.0068777
1350.32	0.0067977
1359.96	0.0066877
1369.61	0.0071277
1379.25	0.0069877
1388.9	0.0096777
1398.54	0.0102377
1408.18	0.0078877
1417.83	0.0112877
1427.47	0.0067077
1437.12	0.0057277
1446.76	0.0076877
1456.41	0.0093377
1466.05	0.0102177
1475.7	0.0122677
1485.34	0.0164177
1494.99	0.0194377
1504.63	0.0552877
1514.28	0.0657677
1523.92	0.0166977
1533.57	0.0077877
1543.21	0.0058677
1552.86	0.0062177
1562.5	0.0093277
1572.15	0.0216677
1581.79	0.0233577
1591.44	0.0366977
1601.08	0.0657277
1610.73	0.0388777
1620.37	0.0223977
1630.01	0.0408177
1639.66	0.0255677
1649.3	0.0107677
1658.95	0.0065977
1668.59	0.0047477
1678.24	0.0035377
1687.88	0.0026877
1697.53	0.0022777
1707.17	0.0019177
1716.82	0.0017477
1726.46	0.0016277
1736.11	0.0015377
1745.75	0.0015477
1755.4	0.0018577
1765.04	0.0021977
1774.69	0.0017877
1784.33	0.0012377
1793.98	0.0011277
1803.62	0.0010261
1813.27	0.0010159
1822.91	0.000949
1832.55	0.0009591
1842.2	0.0010574
1851.84	0.0011277
1861.49	0.0011877
1871.13	0.0014577
1880.78	0.0018477
1890.42	0.0019877
1900.07	0.0016977
1909.71	0.0014077
1919.36	0.0013877
1929	0.0016077
1938.65	0.0016777
1948.29	0.0013877
1957.94	0.0012377
1967.58	0.0012277
1977.23	0.0011877
1986.87	0.0011377
1996.52	0.0011877
2006.16	0.0012777
2015.81	0.0013777
2025.45	0.0012977
2035.1	0.0012977
2044.74	0.0013677
2054.38	0.0014077
2064.03	0.0012377
2073.67	0.0012377
2083.32	0.0011477
2092.96	0.0009847
2102.61	0.0008072
2112.25	0.0007362
2121.9	0.0007284
2131.54	0.0006574
2141.19	0.0006512
2150.83	0.0005663
2160.48	0.0005596
2170.12	0.0005835
2179.77	0.0005222
2189.41	0.0004885
2199.06	0.0004213
2208.7	0.0004714
2218.35	0.0004778
2227.99	0.0005143
2237.64	0.0005043
2247.28	0.0005264
2256.92	0.000556
2266.57	0.0006289
2276.21	0.0006763
2285.86	0.0006886
2295.5	0.0006857
2305.15	0.0006628
2314.79	0.0006664
2324.44	0.0007204
2334.08	0.0007118
2343.73	0.0007189
2353.37	0.0007569
2363.02	0.0006328
2372.66	0.0007257
2382.31	0.0007905
2391.95	0.0008834
2401.6	0.0008793
2411.24	0.0009634
2420.89	0.0009113
2430.53	0.0008514
2440.18	0.0010218
2449.82	0.0011077
2459.47	0.0012077
2469.11	0.0012877
2478.75	0.0013077
2488.4	0.0011677
2498.04	0.0010513
2507.69	0.0011577
2517.33	0.0012177
2526.98	0.0012977
2536.62	0.0015077
2546.27	0.0016277
2555.91	0.0014077
2565.56	0.0013177
2575.2	0.0012877
2584.85	0.0011777
2594.49	0.0010415
2604.14	0.00109
2613.78	0.0010141
2623.43	0.0010486
2633.07	0.000929
2642.72	0.0010088
2652.36	0.0010114
2662.01	0.0011577
2671.65	0.0010765
2681.29	0.0011977
2690.94	0.0011377
2700.58	0.0011777
2710.23	0.0013377
2719.87	0.0015577
2729.52	0.0016377
2739.16	0.0017577
2748.81	0.0018677
2758.45	0.0020277
2768.1	0.0020377
2777.74	0.0022577
2787.39	0.0023877
2797.03	0.0027277
2806.68	0.0032477
2816.32	0.0039577
2825.97	0.0052777
2835.61	0.0072377
2845.26	0.0119277
2854.9	0.0228277
2864.55	0.0328077
2874.19	0.0275977
2883.84	0.0249377
2893.48	0.0220477
2903.12	0.0250977
2912.77	0.0336677
2922.41	0.0499177
2932.06	0.0734977
2941.7	0.0634277
2951.35	0.0372877
2960.99	0.0314077
2970.64	0.0316477
2980.28	0.0240377
2989.93	0.0212977
2999.57	0.0154677
3009.22	0.0110677
3018.86	0.0115277
3028.51	0.0161477
3038.15	0.0106477
3047.8	0.0071577
3057.44	0.0064577
3067.09	0.0069477
3076.73	0.0091277
3086.38	0.0062577
3096.02	0.0046077
3105.67	0.0035377
3115.31	0.0029077
3124.95	0.0018477
3134.6	0.0013677
3144.24	0.0012577
3153.89	0.0010536
3163.53	0.0009338
3173.18	0.0008599
3182.82	0.0008716
3192.47	0.0008519
3202.11	0.0009249
3211.76	0.0009032
3221.4	0.0007488
3231.05	0.0008422
3240.69	0.0008346
3250.34	0.0008789
3259.98	0.0006773
3269.63	0.0005918
3279.27	0.0005301
3288.92	0.0003957
3298.56	0.0003111
3308.21	0.0003436
3317.85	0.0002515
3327.49	0.0002716
3337.14	0.0003032
3346.78	0.0002613
3356.43	0.0002918
3366.07	0.0002008
3375.72	0.0002284
3385.36	0.0003231
3395.01	0.0002584
3404.65	0.0002102
3414.3	0.0002565
3423.94	0.0002888
3433.59	0.00018685
3443.23	0.0002689
3452.88	0.00016131
3462.52	7.8e-05
3472.17	0.0002625
3481.81	0.00013914
3491.46	0.0002293
3501.1	0.0002294
3510.75	0
3520.39	0.0002389
3530.04	0.0002246
3539.68	0.00016442
3549.32	0.0002337
3558.97	0.00013676
3568.61	0.0002933
3578.26	0.0002259
3587.9	0.0001907
3597.55	0.00018705
3607.19	0.0002841
3616.84	0.00016868
3626.48	0.0002966
3636.13	0.0003266
3645.77	0.00018368
3655.42	0.0002463
3665.06	0.0003055
3674.71	0.0003139
3684.35	0.0003793
3694	0.0003587
3703.64	0.0002892
3713.29	0.000255
3722.93	0.0002671
3732.58	0.0003237
3742.22	0.00017788
3751.86	0.0004247
3761.51	0.0003191
3771.15	0.0002129
3780.8	0.000276
3790.44	0.000305
3800.09	0.0002856
3809.73	0.0003195
3819.38	0.0003562
3829.02	0.0003453
3838.67	0.0003042
3848.31	0.0002918
3857.96	0.000408
3867.6	0.0003632
3877.25	0.0003063
3886.89	0.0004697
3896.54	0.0003174
3906.18	0.0004353
3915.83	3.86e-05
3925.47	0.0002675
3935.12	0.0004639
3944.76	0.0003675
3954.41	0.0002491
3964.05	0.0004699
3973.69	0.0004883
3983.34	0.0003713
3992.98	0.0004246
