Infrared Spectrum: p-Butoxybenzylidene p-hexylaniline
Formula: C 23 H 31 N O
CAS: 39777-12-3
State: gas
Origin: EPA-IR VAPOR PHASE LIBRARY
1/CM	ABSORBANCE
549.8	0.00641413
559.445	0.00694413
569.09	0.00487413
578.734	0.00242413
588.379	0.00243413
598.024	0.00272413
607.669	0.00333413
617.313	0.00328413
626.958	0.00226413
636.603	0.00201413
646.248	0.00101413
655.893	0.00075873
665.537	0.00066893
675.182	0.00073133
684.827	0.00090523
694.472	0.00109413
704.116	0.00154413
713.761	0.00260413
723.406	0.00269413
733.051	0.00200413
742.695	0.00226413
752.34	0.00224413
761.985	0.00238413
771.63	0.00261413
781.275	0.00280413
790.919	0.00373413
800.564	0.00579413
810.209	0.00828413
819.854	0.0116141
829.498	0.0169241
839.143	0.0169141
848.788	0.0107341
858.433	0.00753413
868.078	0.00728413
877.722	0.0104541
887.367	0.0154041
897.012	0.00722413
906.657	0.00391413
916.301	0.00281413
925.946	0.00253413
935.591	0.00306413
945.236	0.00340413
954.88	0.00515413
964.525	0.00704413
974.17	0.00894413
983.815	0.00680413
993.46	0.00637413
1003.1	0.00907413
1012.75	0.0163541
1022.39	0.0154141
1032.04	0.0136241
1041.68	0.00873413
1051.33	0.00658413
1060.97	0.00876413
1070.62	0.00953413
1080.26	0.00752413
1089.91	0.00632413
1099.55	0.00742413
1109.2	0.00875413
1118.84	0.00678413
1128.49	0.00612413
1138.13	0.00659413
1147.78	0.0109141
1157.42	0.0407441
1167.07	0.0765941
1176.71	0.0153141
1186.36	0.0155341
1196	0.0217341
1205.64	0.0216241
1215.29	0.0334241
1224.93	0.0437341
1234.58	0.0601741
1244.22	0.0809341
1253.87	0.0643041
1263.51	0.0323441
1273.16	0.0200241
1282.8	0.0188941
1292.45	0.0222641
1302.09	0.0285341
1311.74	0.0186041
1321.38	0.0104441
1331.03	0.00834413
1340.67	0.00793413
1350.32	0.00753413
1359.96	0.00711413
1369.61	0.00721413
1379.25	0.00843413
1388.9	0.0101241
1398.54	0.00688413
1408.18	0.00644413
1417.83	0.0120541
1427.47	0.00720413
1437.12	0.00653413
1446.76	0.00825413
1456.41	0.0111541
1466.05	0.0150641
1475.7	0.0193041
1485.34	0.0135241
1494.99	0.0210341
1504.63	0.0616241
1514.28	0.0693941
1523.92	0.0180641
1533.57	0.00863413
1543.21	0.00643413
1552.86	0.00676413
1562.5	0.0104341
1572.15	0.0251241
1581.79	0.0232441
1591.44	0.0417141
1601.08	0.0743741
1610.73	0.0403041
1620.37	0.0229941
1630.01	0.0432541
1639.66	0.0263541
1649.3	0.0108741
1658.95	0.00663413
1668.59	0.00482413
1678.24	0.00360413
1687.88	0.00277413
1697.53	0.00234413
1707.17	0.00207413
1716.82	0.00190413
1726.46	0.00174413
1736.11	0.00172413
1745.75	0.00178413
1755.4	0.00196413
1765.04	0.00236413
1774.69	0.00188413
1784.33	0.00135413
1793.98	0.00123413
1803.62	0.00113413
1813.27	0.00099313
1822.91	0.00097363
1832.55	0.00094503
1842.2	0.00099563
1851.84	0.00105413
1861.49	0.00123413
1871.13	0.00146413
1880.78	0.00193413
1890.42	0.00203413
1900.07	0.00160413
1909.71	0.00133413
1919.36	0.00134413
1929	0.00156413
1938.65	0.00150413
1948.29	0.00124413
1957.94	0.00115413
1967.58	0.00116413
1977.23	0.00129413
1986.87	0.00122413
1996.52	0.00131413
2006.16	0.00144413
2015.81	0.00171413
2025.45	0.00156413
2035.1	0.00157413
2044.74	0.00162413
2054.38	0.00158413
2064.03	0.00138413
2073.67	0.00128413
2083.32	0.00122413
2092.96	0.00105413
2102.61	0.00088403
2112.25	0.00082793
2121.9	0.00079783
2131.54	0.00064943
2141.19	0.00062533
2150.83	0.00055753
2160.48	0.00065883
2170.12	0.00058153
2179.77	0.00060333
2189.41	0.00054103
2199.06	0.00051273
2208.7	0.00055573
2218.35	0.00049883
2227.99	0.00055393
2237.64	0.00049173
2247.28	0.00051323
2256.92	0.00057303
2266.57	0.00069213
2276.21	0.00067633
2285.86	0.00064643
2295.5	0.00072753
2305.15	0.00067043
2314.79	0.00075593
2324.44	0.00078603
2334.08	0.00077863
2343.73	0.00082613
2353.37	0.00076513
2363.02	0.00077923
2372.66	0.00085333
2382.31	0.00093043
2391.95	0.00094973
2401.6	0.00101413
2411.24	0.00094773
2420.89	0.00094323
2430.53	0.00091543
2440.18	0.00097463
2449.82	0.00109413
2459.47	0.00124413
2469.11	0.00125413
2478.75	0.00133413
2488.4	0.00132413
2498.04	0.00124413
2507.69	0.00121413
2517.33	0.00134413
2526.98	0.00134413
2536.62	0.00161413
2546.27	0.00169413
2555.91	0.00159413
2565.56	0.00143413
2575.2	0.00128413
2584.85	0.00129413
2594.49	0.00124413
2604.14	0.00113413
2613.78	0.00100413
2623.43	0.00097213
2633.07	0.00105413
2642.72	0.00101413
2652.36	0.00103413
2662.01	0.00112413
2671.65	0.00119413
2681.29	0.00127413
2690.94	0.00128413
2700.58	0.00124413
2710.23	0.00145413
2719.87	0.00150413
2729.52	0.00186413
2739.16	0.00203413
2748.81	0.00226413
2758.45	0.00231413
2768.1	0.00229413
2777.74	0.00230413
2787.39	0.00260413
2797.03	0.00297413
2806.68	0.00343413
2816.32	0.00426413
2825.97	0.00557413
2835.61	0.00786413
2845.26	0.0128041
2854.9	0.0234141
2864.55	0.0333841
2874.19	0.0326541
2883.84	0.0322241
2893.48	0.0269841
2903.12	0.0281041
2912.77	0.0367941
2922.41	0.0521241
2932.06	0.0738141
2941.7	0.0700541
2951.35	0.0497941
2960.99	0.0488241
2970.64	0.0514941
2980.28	0.0290741
2989.93	0.0165341
2999.57	0.0119941
3009.22	0.0100141
3018.86	0.0114341
3028.51	0.0168641
3038.15	0.0113941
3047.8	0.00736413
3057.44	0.00677413
3067.09	0.00728413
3076.73	0.00919413
3086.38	0.00642413
3096.02	0.00469413
3105.67	0.00378413
3115.31	0.00283413
3124.95	0.00188413
3134.6	0.00142413
3144.24	0.00131413
3153.89	0.00120413
3163.53	0.00101413
3173.18	0.00086793
3182.82	0.00091843
3192.47	0.00083813
3202.11	0.00090953
3211.76	0.00084873
3221.4	0.00077913
3231.05	0.00088133
3240.69	0.00073013
3250.34	0.00097293
3259.98	0.00067363
3269.63	0.00051643
3279.27	0.00044533
3288.92	0.00028183
3298.56	0.00020843
3308.21	0.00025593
3317.85	0.00047533
3327.49	0.00032773
3337.14	0.00028863
3346.78	0.00019663
3356.43	0.00019773
3366.07	0.00016143
3375.72	0.00016333
3385.36	0.00010943
3395.01	0.00021383
3404.65	0.00035713
3414.3	0.00013103
3423.94	0.00010284
3433.59	4.355e-05
3443.23	0.00024493
3452.88	0.00012003
3462.52	4.79e-05
3472.17	0.00017453
3481.81	0.00030663
3491.46	2.058e-05
3501.1	0.00018093
3510.75	6.068e-05
3520.39	0.00018663
3530.04	5.527e-05
3539.68	9.065e-05
3549.32	0.00013963
3558.97	7.765e-05
3568.61	0.00014053
3578.26	0.00021163
3587.9	0.00012943
3597.55	0.00032993
3607.19	0.00017503
3616.84	0.00026653
3626.48	0.00018973
3636.13	0.00028463
3645.77	0.00028073
3655.42	0.00027233
3665.06	0.00044023
3674.71	0.00041183
3684.35	0.00037083
3694	0.00033423
3703.64	0.00035533
3713.29	0.00036563
3722.93	0.00026563
3732.58	0.00033723
3742.22	0.00014243
3751.86	0.00026713
3761.51	0.00015803
3771.15	0.00019513
3780.8	0.00039103
3790.44	0.00025963
3800.09	0.00012453
3809.73	0.00030983
3819.38	0.00026003
3829.02	0.00021873
3838.67	0.00039433
3848.31	0.00016743
3857.96	0.00029633
3867.6	0.00012853
3877.25	0.00011783
3886.89	0.00015623
3896.54	0.00031933
3906.18	0.00028473
3915.83	0.00014293
3925.47	0.00037113
3935.12	0.00032733
3944.76	0.00015473
3954.41	0.00027533
3964.05	0.00030213
3973.69	0.00025353
3983.34	0.00037893
3992.98	0.00040683
