Infrared Spectrum: p-Pentyloxybenzylidene p-heptylaniline
Formula: C 25 H 35 N O
CAS: 39777-20-3
State: gas
Origin: EPA-IR VAPOR PHASE LIBRARY
1/CM	ABSORBANCE
549.8	0.002066
559.445	0.002036
569.09	0.001426
578.734	0.0009692
588.379	0.0008525
598.024	0.0008674
607.669	0.001156
617.313	0.0010705
626.958	0.0007625
636.603	0.0006779
646.248	0.0005141
655.893	0.0004909
665.537	0.0002654
675.182	0.0005278
684.827	0.0003609
694.472	0.0003211
704.116	0.0006957
713.761	0.0010018
723.406	0.0010123
733.051	0.0007603
742.695	0.0008317
752.34	0.0005269
761.985	0.0009411
771.63	0.001196
781.275	0.0009862
790.919	0.001276
800.564	0.001706
810.209	0.002506
819.854	0.003726
829.498	0.005326
839.143	0.005436
848.788	0.003116
858.433	0.002186
868.078	0.001886
877.722	0.003006
887.367	0.004176
897.012	0.002266
906.657	0.001716
916.301	0.001466
925.946	0.001306
935.591	0.0010159
945.236	0.0009029
954.88	0.0010001
964.525	0.001346
974.17	0.001696
983.815	0.002396
993.46	0.003296
1003.1	0.004196
1012.75	0.004996
1022.39	0.004426
1032.04	0.004946
1041.68	0.004196
1051.33	0.003416
1060.97	0.002006
1070.62	0.001916
1080.26	0.002086
1089.91	0.001736
1099.55	0.002076
1109.2	0.002396
1118.84	0.002266
1128.49	0.001866
1138.13	0.001586
1147.78	0.003066
1157.42	0.012106
1167.07	0.022956
1176.71	0.004536
1186.36	0.004666
1196	0.007126
1205.64	0.007346
1215.29	0.009136
1224.93	0.012806
1234.58	0.019786
1244.22	0.024536
1253.87	0.019436
1263.51	0.009216
1273.16	0.005896
1282.8	0.005906
1292.45	0.007116
1302.09	0.009046
1311.74	0.005736
1321.38	0.003406
1331.03	0.002756
1340.67	0.002626
1350.32	0.002536
1359.96	0.002406
1369.61	0.002426
1379.25	0.002866
1388.9	0.003246
1398.54	0.002166
1408.18	0.002056
1417.83	0.003866
1427.47	0.002316
1437.12	0.002176
1446.76	0.002986
1456.41	0.003916
1466.05	0.004846
1475.7	0.006136
1485.34	0.004216
1494.99	0.006516
1504.63	0.018676
1514.28	0.020906
1523.92	0.005536
1533.57	0.002726
1543.21	0.002076
1552.86	0.002166
1562.5	0.003276
1572.15	0.007476
1581.79	0.007296
1591.44	0.012746
1601.08	0.022416
1610.73	0.012136
1620.37	0.006986
1630.01	0.012776
1639.66	0.008006
1649.3	0.003386
1658.95	0.002086
1668.59	0.001506
1678.24	0.001176
1687.88	0.0009389
1697.53	0.0007862
1707.17	0.0007737
1716.82	0.0007761
1726.46	0.000736
1736.11	0.0006765
1745.75	0.0006377
1755.4	0.0007669
1765.04	0.0008501
1774.69	0.0007225
1784.33	0.0005329
1793.98	0.000492
1803.62	0.0005112
1813.27	0.0004394
1822.91	0.0004195
1832.55	0.0003697
1842.2	0.0005106
1851.84	0.0004779
1861.49	0.0004786
1871.13	0.0006086
1880.78	0.0007149
1890.42	0.0007197
1900.07	0.0006252
1909.71	0.0005407
1919.36	0.0005405
1929	0.0005773
1938.65	0.0006052
1948.29	0.0004909
1957.94	0.0005058
1967.58	0.0005458
1977.23	0.000533
1986.87	0.0004667
1996.52	0.0005176
2006.16	0.0005391
2015.81	0.0006301
2025.45	0.0006553
2035.1	0.000633
2044.74	0.0006776
2054.38	0.0006225
2064.03	0.000569
2073.67	0.0005111
2083.32	0.0005435
2092.96	0.0004387
2102.61	0.0004675
2112.25	0.00037
2121.9	0.0003983
2131.54	0.0002957
2141.19	0.0003571
2150.83	0.0003278
2160.48	0.0003164
2170.12	0.0003493
2179.77	0.0002941
2189.41	0.0003809
2199.06	0.0002841
2208.7	0.0003533
2218.35	0.0003491
2227.99	0.000309
2237.64	0.0003565
2247.28	0.0003561
2256.92	0.0002945
2266.57	0.0003643
2276.21	0.0002806
2285.86	0.0003666
2295.5	0.0003345
2305.15	0.0004055
2314.79	0.0003804
2324.44	0.0003391
2334.08	0.0004286
2343.73	0.0003483
2353.37	0.000412
2363.02	0.0003838
2372.66	0.0004157
2382.31	0.0004287
2391.95	0.0004764
2401.6	0.000406
2411.24	0.0003957
2420.89	0.0003822
2430.53	0.0004315
2440.18	0.0004784
2449.82	0.0004772
2459.47	0.0005041
2469.11	0.000486
2478.75	0.0005529
2488.4	0.0005562
2498.04	0.0005382
2507.69	0.0005904
2517.33	0.0004812
2526.98	0.000589
2536.62	0.0005308
2546.27	0.0007845
2555.91	0.0006135
2565.56	0.0005595
2575.2	0.0006405
2584.85	0.0006296
2594.49	0.0005231
2604.14	0.0005332
2613.78	0.0004815
2623.43	0.0004442
2633.07	0.000527
2642.72	0.0004886
2652.36	0.000449
2662.01	0.0004912
2671.65	0.000549
2681.29	0.0005615
2690.94	0.0005095
2700.58	0.000523
2710.23	0.0006415
2719.87	0.000677
2729.52	0.0007381
2739.16	0.000783
2748.81	0.0009246
2758.45	0.0008632
2768.1	0.0008632
2777.74	0.0009735
2787.39	0.0010475
2797.03	0.001112
2806.68	0.001346
2816.32	0.001606
2825.97	0.001996
2835.61	0.002876
2845.26	0.004626
2854.9	0.008696
2864.55	0.012766
2874.19	0.011576
2883.84	0.010616
2893.48	0.009176
2903.12	0.009926
2912.77	0.013376
2922.41	0.019556
2932.06	0.028606
2941.7	0.026006
2951.35	0.017826
2960.99	0.016246
2970.64	0.015926
2980.28	0.008776
2989.93	0.005036
2999.57	0.003776
3009.22	0.003146
3018.86	0.003536
3028.51	0.005276
3038.15	0.003606
3047.8	0.002386
3057.44	0.002096
3067.09	0.002336
3076.73	0.002956
3086.38	0.002006
3096.02	0.001516
3105.67	0.001326
3115.31	0.0009591
3124.95	0.0006957
3134.6	0.0005499
3144.24	0.0006767
3153.89	0.0003894
3163.53	0.0003333
3173.18	0.0004366
3182.82	0.0003791
3192.47	0.0004666
3202.11	0.0004187
3211.76	0.00013809
3221.4	0.0004199
3231.05	0.0002713
3240.69	0.0004296
3250.34	0.0004218
3259.98	0.0005007
3269.63	0.0002893
3279.27	0.0002807
3288.92	0.00014231
3298.56	0.00014484
3308.21	0.0002397
3317.85	0.0002318
3327.49	0.0001001
3337.14	0.00015729
3346.78	0.00018115
3356.43	0.0003096
3366.07	0.000122213
3375.72	0.00018903
3385.36	0.0002703
3395.01	0.0003232
3404.65	0.0003027
3414.3	8.27e-05
3423.94	5.54e-05
3433.59	0.0002185
3443.23	7.21e-05
3452.88	0.00010736
3462.52	0.0002583
3472.17	9.1e-05
3481.81	0.000246
3491.46	0.00015493
3501.1	0.0002927
3510.75	0.0002426
3520.39	0.0001899
3530.04	0.0001551
3539.68	0.00011784
3549.32	0.00020023
3558.97	0.0002452
3568.61	0.00015132
3578.26	0.0002315
3587.9	0.0002364
3597.55	0.00017365
3607.19	0.00014545
3616.84	0.00018053
3626.48	0.0002693
3636.13	0.000331
3645.77	0.00016358
3655.42	9.48e-05
3665.06	0.00021163
3674.71	0.0001758
3684.35	8.8e-05
3694	0.00013023
3703.64	0.0003778
3713.29	0.0002454
3722.93	0.0002873
3732.58	0.0003223
3742.22	0.0003374
3751.86	0.00013067
3761.51	0.00013395
3771.15	0.0001054
3780.8	0.00017061
3790.44	0.0002438
3800.09	0.000267
3809.73	0.000120424
3819.38	0.00019058
3829.02	0.00015836
3838.67	0.0002907
3848.31	0.00020451
3857.96	7.4e-05
3867.6	0.0003114
3877.25	0.0002347
3886.89	0.0002082
3896.54	0.00020442
3906.18	0.0002219
3915.83	0.0002169
3925.47	0.0002376
3935.12	0.000115124
3944.76	0.000222
3954.41	0.0002828
3964.05	0.0002699
3973.69	0.0002249
3983.34	0.0002934
3992.98	0.0003548
