Infrared Spectrum: 2-Amino-6-hydroxy-4,5-dimethylpyrimidine (keto form)
Formula: C6 H9 N3 O
CAS: 3977-23-9
State: SOLID (SPLIT MULL)
Class: COBLENTZ III
Instrument: DOW KBr FOREPRISM-GRATING
Instrument parameters: BLAZED AT 3.5, 12.0, 20.0 MICRON AND CHANGED AT 5.0, 7.5, 14.9 MICRON
Sampling: TRANSMISSION
Resolution: 2
Origin: DOW CHEMICAL COMPANY
1/CM	TRANSMITTANCE
3764	0.7605
3755	0.7631
3746	0.7658
3737	0.7687
3728	0.7719
3719	0.7751
3710	0.7786
3701	0.7818
3692	0.7851
3683	0.7884
3674	0.7918
3665	0.7951
3656	0.7984
3647	0.8011
3638	0.8039
3629	0.8067
3620	0.8097
3611	0.8125
3602	0.8156
3593	0.8186
3584	0.8207
3575	0.8227
3566	0.8248
3557	0.8268
3548	0.8291
3539	0.8317
3530	0.8343
3521	0.8368
3512	0.8396
3503	0.842
3494	0.8439
3485	0.8458
3476	0.8477
3467	0.8492
3458	0.8507
3449	0.8518
3440	0.8524
3431	0.8528
3422	0.8532
3413	0.8533
3404	0.853
3395	0.8524
3386	0.8504
3377	0.842
3368	0.8151
3359	0.7375
3350	0.6725
3341	0.6176
3332	0.5628
3323	0.5137
3314	0.4981
3305	0.4978
3296	0.5028
3287	0.5118
3278	0.526
3269	0.5488
3260	0.5788
3251	0.6081
3242	0.6239
3233	0.6339
3224	0.6398
3215	0.6433
3206	0.6431
3197	0.6393
3188	0.6281
3179	0.6157
3170	0.6034
3161	0.5914
3152	0.5795
3143	0.5656
3134	0.551
3125	0.5367
3116	0.5227
3107	0.5131
3098	0.5037
3089	0.4951
3080	0.4882
3071	0.4825
3062	0.4776
3053	0.475
3044	0.4751
3035	0.4812
3026	0.4876
3017	0.4948
3008	0.502
2999	0.5086
2990	0.5138
2981	0.5153
2972	0.5152
2963	0.5147
2954	0.5159
2945	0.5199
2936	0.526
2927	0.5336
2918	0.5433
2909	0.552
2900	0.5601
2891	0.5669
2882	0.5729
2873	0.5788
2864	0.5854
2855	0.5921
2846	0.5988
2837	0.6053
2828	0.6117
2819	0.6181
2810	0.6243
2801	0.6304
2792	0.637
2783	0.6425
2774	0.6458
2765	0.6496
2756	0.6533
2747	0.6575
2738	0.6621
2729	0.6669
2720	0.6718
2711	0.6767
2702	0.6819
2693	0.6872
2684	0.6936
2675	0.7
2666	0.7064
2657	0.7121
2648	0.7169
2639	0.7215
2630	0.7258
2621	0.7303
2612	0.7346
2603	0.7387
2594	0.7421
2585	0.745
2576	0.7478
2567	0.7521
2558	0.7562
2549	0.7601
2540	0.7637
2531	0.7671
2522	0.7708
2513	0.7743
2504	0.7767
2495	0.7778
2486	0.7778
2477	0.7776
2468	0.7793
2459	0.7817
2450	0.7854
2441	0.7889
2432	0.791
2423	0.7924
2414	0.7934
2405	0.7946
2396	0.7958
2387	0.7976
2378	0.8
2369	0.8021
2360	0.8042
2351	0.8061
2342	0.8082
2333	0.8093
2324	0.8104
2315	0.8112
2306	0.8125
2297	0.8143
2288	0.8172
2279	0.8203
2270	0.8252
2261	0.8309
2252	0.8368
2243	0.8435
2234	0.85
2225	0.8563
2216	0.8621
2207	0.867
2198	0.8706
2189	0.8733
2180	0.8764
2171	0.8803
2162	0.8843
2153	0.8882
2144	0.8918
2135	0.8956
2126	0.899
2117	0.9023
2108	0.9055
2099	0.9083
2090	0.9111
2081	0.9135
2072	0.9161
2063	0.9192
2054	0.9228
2045	0.927
2036	0.9315
2027	0.9357
2018	0.9409
2009	0.9435
2000	0.9435
1991	0.9275
1982	0.9335
1973	0.9413
1964	0.9532
1955	0.9582
1946	0.9585
1937	0.9618
1928	0.966
1919	0.9705
1910	0.9751
1901	0.9788
1892	0.9805
1883	0.9817
1874	0.9854
1865	0.9905
1856	0.9955
1847	1.0006
1838	1.0059
1829	1.011
1820	1.017
1811	1.0218
1802	1.0231
1793	1.0254
1784	1.0285
1775	1.0317
1766	1.0361
1757	1.0408
1748	1.0448
1739	1.0468
1730	1.0439
1721	1.0304
1712	0.9965
1703	0.9396
1694	0.8492
1685	0.6875
1676	0.481
1667	0.3185
1658	0.2653
1649	0.3013
1640	0.4693
1631	0.6085
1622	0.6853
1613	0.7162
1604	0.7464
1595	0.7862
1586	0.7876
1577	0.7564
1568	0.7586
1559	0.7115
1550	0.6248
1541	0.5432
1532	0.4447
1523	0.3542
1514	0.2826
1505	0.2335
1496	0.248
1487	0.2951
1478	0.3548
1469	0.3868
1460	0.4008
1451	0.4333
1442	0.4701
1433	0.4753
1424	0.4233
1415	0.4726
1406	0.5347
1397	0.5602
1388	0.4728
1379	0.5294
1370	0.5237
1361	0.5605
1352	0.4832
1343	0.4743
1334	0.4947
1325	0.5176
1316	0.5392
1307	0.5651
1298	0.5908
1289	0.6104
1280	0.6245
1271	0.6365
1262	0.6458
1253	0.6292
1244	0.5725
1235	0.6014
1226	0.6178
1217	0.5644
1208	0.6376
1199	0.6733
1190	0.6749
1181	0.6694
1172	0.6681
1163	0.5943
1154	0.5899
1145	0.6014
1136	0.6026
1127	0.6103
1118	0.6342
1109	0.6625
1100	0.689
1091	0.71
1082	0.7246
1073	0.7346
1064	0.7434
1055	0.7108
1046	0.7008
1037	0.7396
1028	0.7451
1019	0.7693
1010	0.7944
1001	0.8125
992	0.8183
983	0.809
974	0.8131
965	0.8278
956	0.8404
947	0.8496
938	0.847
929	0.7689
920	0.8261
911	0.8578
902	0.8675
893	0.87
884	0.8723
875	0.8751
866	0.8765
857	0.8767
848	0.8745
839	0.8575
830	0.8328
821	0.8312
812	0.8293
803	0.819
794	0.6381
785	0.4243
776	0.4589
767	0.4459
758	0.4767
749	0.6222
740	0.5875
731	0.629
722	0.6528
713	0.7501
704	0.7917
695	0.8135
686	0.8258
677	0.8283
668	0.8178
659	0.6227
650	0.7074
641	0.7551
632	0.637
623	0.4606
614	0.5508
605	0.6107
596	0.6901
587	0.744
578	0.7865
569	0.8055
560	0.7893
551	0.6868
542	0.4592
533	0.7736
524	0.8262
515	0.8512
506	0.8617
497	0.8646
488	0.5075
479	0.8008
470	0.8332
461	0.8363
452	0.8343
443	0.8298
434	0.8238
425	0.8158
416	0.8071
407	0.7986
398	0.7908
389	0.786
