Infrared Spectrum: p-Butoxybenzylidene p-pentylaniline
Formula: C 22 H 29 N O
CAS: 39777-05-4
State: gas
Origin: EPA-IR VAPOR PHASE LIBRARY
1/CM	ABSORBANCE
549.8	0.003925
559.445	0.004035
569.09	0.002965
578.734	0.001785
588.379	0.001355
598.024	0.001695
607.669	0.002005
617.313	0.002075
626.958	0.001635
636.603	0.001325
646.248	0.0007319
655.893	0.0007262
665.537	0.0005047
675.182	0.0006287
684.827	0.0006693
694.472	0.000749
704.116	0.0010697
713.761	0.001605
723.406	0.001585
733.051	0.001355
742.695	0.001435
752.34	0.001555
761.985	0.001675
771.63	0.001785
781.275	0.002055
790.919	0.002445
800.564	0.003665
810.209	0.004785
819.854	0.006875
829.498	0.010455
839.143	0.010835
848.788	0.006745
858.433	0.004315
868.078	0.004185
877.722	0.006585
887.367	0.009445
897.012	0.004655
906.657	0.002495
916.301	0.002025
925.946	0.001615
935.591	0.001815
945.236	0.002415
954.88	0.003185
964.525	0.004545
974.17	0.005825
983.815	0.004365
993.46	0.004075
1003.1	0.005175
1012.75	0.010225
1022.39	0.009255
1032.04	0.007865
1041.68	0.005605
1051.33	0.004015
1060.97	0.005085
1070.62	0.005735
1080.26	0.004405
1089.91	0.003245
1099.55	0.004185
1109.2	0.005315
1118.84	0.003925
1128.49	0.003575
1138.13	0.003815
1147.78	0.006755
1157.42	0.024695
1167.07	0.046365
1176.71	0.008985
1186.36	0.009305
1196	0.013265
1205.64	0.013375
1215.29	0.020725
1224.93	0.026535
1234.58	0.036335
1244.22	0.048965
1253.87	0.039015
1263.51	0.019845
1273.16	0.012025
1282.8	0.011255
1292.45	0.013645
1302.09	0.017275
1311.74	0.011365
1321.38	0.006315
1331.03	0.005075
1340.67	0.004795
1350.32	0.004365
1359.96	0.004215
1369.61	0.004315
1379.25	0.005155
1388.9	0.006225
1398.54	0.004335
1408.18	0.004015
1417.83	0.007345
1427.47	0.004405
1437.12	0.003905
1446.76	0.004865
1456.41	0.006365
1466.05	0.009045
1475.7	0.011715
1485.34	0.008325
1494.99	0.012755
1504.63	0.037415
1514.28	0.042605
1523.92	0.011195
1533.57	0.005385
1543.21	0.003985
1552.86	0.004225
1562.5	0.006385
1572.15	0.015435
1581.79	0.014405
1591.44	0.025475
1601.08	0.045405
1610.73	0.024435
1620.37	0.014075
1630.01	0.026245
1639.66	0.016205
1649.3	0.006605
1658.95	0.004155
1668.59	0.003005
1678.24	0.002305
1687.88	0.001725
1697.53	0.001445
1707.17	0.001275
1716.82	0.001225
1726.46	0.001125
1736.11	0.001135
1745.75	0.001255
1755.4	0.001405
1765.04	0.001555
1774.69	0.001195
1784.33	0.0009335
1793.98	0.0008454
1803.62	0.0008581
1813.27	0.0007678
1822.91	0.0006773
1832.55	0.0006671
1842.2	0.000746
1851.84	0.000795
1861.49	0.000851
1871.13	0.0010328
1880.78	0.001275
1890.42	0.001415
1900.07	0.001125
1909.71	0.0009277
1919.36	0.0009337
1929	0.001145
1938.65	0.0011221
1948.29	0.000882
1957.94	0.0008158
1967.58	0.0008689
1977.23	0.0008933
1986.87	0.0009083
1996.52	0.0009305
2006.16	0.0009308
2015.81	0.0011221
2025.45	0.0010602
2035.1	0.0010905
2044.74	0.0011183
2054.38	0.0011206
2064.03	0.0009166
2073.67	0.0008891
2083.32	0.0008652
2092.96	0.0006881
2102.61	0.0006614
2112.25	0.0006486
2121.9	0.0005973
2131.54	0.0005349
2141.19	0.0005065
2150.83	0.0004613
2160.48	0.0004486
2170.12	0.0005172
2179.77	0.0004004
2189.41	0.000398
2199.06	0.0003404
2208.7	0.0004657
2218.35	0.00041
2227.99	0.0003919
2237.64	0.0004828
2247.28	0.0004846
2256.92	0.0005129
2266.57	0.0005223
2276.21	0.0006088
2285.86	0.0005281
2295.5	0.000465
2305.15	0.0005349
2314.79	0.0004665
2324.44	0.0006116
2334.08	0.0004848
2343.73	0.0005148
2353.37	0.0005299
2363.02	0.000513
2372.66	0.0005964
2382.31	0.0007226
2391.95	0.0006493
2401.6	0.000654
2411.24	0.0007783
2420.89	0.0006904
2430.53	0.0006462
2440.18	0.0007882
2449.82	0.0007439
2459.47	0.000808
2469.11	0.0008451
2478.75	0.0009127
2488.4	0.0008987
2498.04	0.0008551
2507.69	0.0008501
2517.33	0.0008405
2526.98	0.0009767
2536.62	0.0010035
2546.27	0.0011239
2555.91	0.0011067
2565.56	0.0009975
2575.2	0.0009988
2584.85	0.0008896
2594.49	0.000714
2604.14	0.0007433
2613.78	0.000736
2623.43	0.0006565
2633.07	0.0006529
2642.72	0.0006826
2652.36	0.0008153
2662.01	0.0008216
2671.65	0.0007703
2681.29	0.000873
2690.94	0.0008049
2700.58	0.000837
2710.23	0.0008967
2719.87	0.0010849
2729.52	0.001155
2739.16	0.001255
2748.81	0.001505
2758.45	0.001445
2768.1	0.001415
2777.74	0.001435
2787.39	0.001545
2797.03	0.001695
2806.68	0.002155
2816.32	0.002615
2825.97	0.003285
2835.61	0.004485
2845.26	0.007245
2854.9	0.012605
2864.55	0.017685
2874.19	0.018675
2883.84	0.018845
2893.48	0.015575
2903.12	0.015555
2912.77	0.019635
2922.41	0.027355
2932.06	0.037745
2941.7	0.037925
2951.35	0.028215
2960.99	0.028845
2970.64	0.031135
2980.28	0.017615
2989.93	0.009925
2999.57	0.007245
3009.22	0.006145
3018.86	0.006985
3028.51	0.010355
3038.15	0.006845
3047.8	0.004615
3057.44	0.004095
3067.09	0.004555
3076.73	0.005635
3086.38	0.003945
3096.02	0.003095
3105.67	0.002365
3115.31	0.001795
3124.95	0.001275
3134.6	0.0009839
3144.24	0.0009073
3153.89	0.0007493
3163.53	0.0006737
3173.18	0.0007278
3182.82	0.0006371
3192.47	0.000627
3202.11	0.0006878
3211.76	0.0007163
3221.4	0.0005419
3231.05	0.0006174
3240.69	0.0006885
3250.34	0.0006868
3259.98	0.0005423
3269.63	0.0003835
3279.27	0.000387
3288.92	0.0003103
3298.56	0.0003061
3308.21	0.0003643
3317.85	0.0002763
3327.49	0.0002779
3337.14	0.0003019
3346.78	0.0003587
3356.43	0.0002867
3366.07	0.0003476
3375.72	0.0003432
3385.36	0.0003333
3395.01	0.0001073
3404.65	0.00020408
3414.3	0.00021668
3423.94	0.000287
3433.59	0.00018925
3443.23	0.00018342
3452.88	0.0003286
3462.52	0.00014853
3472.17	0.0002614
3481.81	0.0003096
3491.46	0.0002495
3501.1	0.0003677
3510.75	0.0003524
3520.39	0.000114
3530.04	0.0001382
3539.68	0.0003866
3549.32	0.00015753
3558.97	0.0004417
3568.61	0.000232
3578.26	0.0003023
3587.9	0.0002738
3597.55	0.0003417
3607.19	0.00017611
3616.84	0.0002913
3626.48	0.0003157
3636.13	0.00019857
3645.77	0.0003044
3655.42	0.0003533
3665.06	0.0003356
3674.71	0.0004794
3684.35	0.0003506
3694	0.0003303
3703.64	0.0002261
3713.29	0.00017564
3722.93	0.000103
3732.58	0.00018169
3742.22	0.0001006
3751.86	0.0002601
3761.51	0.000254
3771.15	0.0002382
3780.8	0.0003539
3790.44	0.0003057
3800.09	0.00021988
3809.73	0.00022001
3819.38	0.0002545
3829.02	0.0003178
3838.67	9e-05
3848.31	0.0002349
3857.96	0.0004115
3867.6	0.0004035
3877.25	0.00016901
3886.89	0.0003612
3896.54	0.0003357
3906.18	0.0001887
3915.83	0.0003433
3925.47	0.0003741
3935.12	0.0003185
3944.76	0.00020466
3954.41	0.0003945
3964.05	0.0003151
3973.69	0.0003113
3983.34	0.0005012
3992.98	0.0003278
