Infrared Spectrum: p-Hexyloxybenzylidene p-octylaniline
Formula: C 27 H 39 N O
CAS: 39777-28-1
State: gas
Origin: EPA-IR VAPOR PHASE LIBRARY
1/CM	ABSORBANCE
549.8	0.0013035
559.445	0.0015935
569.09	0.0012235
578.734	0.0003483
588.379	0.0005774
598.024	0.0005674
607.669	0.0008983
617.313	0.0007845
626.958	0.000486
636.603	0.0005442
646.248	0.00012766
655.893	8.9329e-05
665.537	9.855e-05
675.182	7.593e-05
684.827	0.00014528
694.472	0.0002352
704.116	0.0005381
713.761	0.0008109
723.406	0.0008983
733.051	0.0006461
742.695	0.0006187
752.34	0.0006665
761.985	0.0005167
771.63	0.0004724
781.275	0.0008783
790.919	0.0010154
800.564	0.0014435
810.209	0.0020735
819.854	0.0027835
829.498	0.0043135
839.143	0.0042335
848.788	0.0026235
858.433	0.0017235
868.078	0.0015935
877.722	0.0023735
887.367	0.0035235
897.012	0.0017335
906.657	0.0010748
916.301	0.0009005
925.946	0.000878
935.591	0.0014235
945.236	0.0011135
954.88	0.0011235
964.525	0.0013035
974.17	0.0013435
983.815	0.0011335
993.46	0.0014535
1003.1	0.0023535
1012.75	0.0044735
1022.39	0.0041435
1032.04	0.0037135
1041.68	0.0028135
1051.33	0.0024435
1060.97	0.0017935
1070.62	0.0013535
1080.26	0.0016135
1089.91	0.0011835
1099.55	0.0016835
1109.2	0.0018035
1118.84	0.0015135
1128.49	0.0013735
1138.13	0.0012635
1147.78	0.0025335
1157.42	0.0102935
1167.07	0.0190835
1176.71	0.0037735
1186.36	0.0037135
1196	0.0056435
1205.64	0.0055635
1215.29	0.0072335
1224.93	0.0106435
1234.58	0.0164835
1244.22	0.0212435
1253.87	0.0152435
1263.51	0.0073335
1273.16	0.0050535
1282.8	0.0049835
1292.45	0.0058835
1302.09	0.0075835
1311.74	0.0048335
1321.38	0.0028635
1331.03	0.0022335
1340.67	0.0022235
1350.32	0.0021735
1359.96	0.0021135
1369.61	0.0020835
1379.25	0.0023135
1388.9	0.0026835
1398.54	0.0017235
1408.18	0.0017035
1417.83	0.0031635
1427.47	0.0019235
1437.12	0.0018335
1446.76	0.0026035
1456.41	0.0034735
1466.05	0.0042935
1475.7	0.0052835
1485.34	0.0034535
1494.99	0.0053935
1504.63	0.0156935
1514.28	0.0175435
1523.92	0.0045535
1533.57	0.0021335
1543.21	0.0015635
1552.86	0.0016735
1562.5	0.0027035
1572.15	0.0063035
1581.79	0.0061135
1591.44	0.0107135
1601.08	0.0188535
1610.73	0.0099735
1620.37	0.0057935
1630.01	0.0108035
1639.66	0.0065035
1649.3	0.0027635
1658.95	0.0016535
1668.59	0.0012135
1678.24	0.0009188
1687.88	0.0007548
1697.53	0.0006168
1707.17	0.000488
1716.82	0.0005196
1726.46	0.0004839
1736.11	0.0004397
1745.75	0.0004809
1755.4	0.0005208
1765.04	0.0005938
1774.69	0.0004826
1784.33	0.0003966
1793.98	0.0003482
1803.62	0.0003078
1813.27	0.0002683
1822.91	0.0002434
1832.55	0.0002601
1842.2	0.0003049
1851.84	0.0003143
1861.49	0.0003259
1871.13	0.0003784
1880.78	0.0004617
1890.42	0.000547
1900.07	0.0004097
1909.71	0.0003758
1919.36	0.0003397
1929	0.0004396
1938.65	0.0004138
1948.29	0.0003757
1957.94	0.0003262
1967.58	0.0003315
1977.23	0.0003418
1986.87	0.0003372
1996.52	0.0003571
2006.16	0.0003844
2015.81	0.000442
2025.45	0.0004244
2035.1	0.0004571
2044.74	0.0004578
2054.38	0.0004671
2064.03	0.00041
2073.67	0.0003376
2083.32	0.0003449
2092.96	0.0003299
2102.61	0.0003142
2112.25	0.0002323
2121.9	0.0002111
2131.54	0.0002275
2141.19	0.000236
2150.83	0.00017557
2160.48	0.00016581
2170.12	0.0002137
2179.77	0.0002314
2189.41	0.00017747
2199.06	0.0002188
2208.7	0.0001931
2218.35	0.00017189
2227.99	0.00016223
2237.64	0.0002218
2247.28	0.00017206
2256.92	0.0002654
2266.57	0.0002658
2276.21	0.0002751
2285.86	0.000208
2295.5	0.0002066
2305.15	0.0002223
2314.79	0.0002608
2324.44	0.0003002
2334.08	0.0002728
2343.73	0.0002942
2353.37	0.0002521
2363.02	0.0002931
2372.66	0.0002492
2382.31	0.0002663
2391.95	0.0002951
2401.6	0.0003357
2411.24	0.000316
2420.89	0.0002686
2430.53	0.000304
2440.18	0.000296
2449.82	0.0003898
2459.47	0.0004011
2469.11	0.0004247
2478.75	0.0003656
2488.4	0.000388
2498.04	0.0003784
2507.69	0.0004137
2517.33	0.0004063
2526.98	0.0004405
2536.62	0.000552
2546.27	0.0005195
2555.91	0.0004645
2565.56	0.0005353
2575.2	0.0004396
2584.85	0.0004184
2594.49	0.0004008
2604.14	0.000383
2613.78	0.0004275
2623.43	0.0004252
2633.07	0.0003518
2642.72	0.0004599
2652.36	0.000481
2662.01	0.000549
2671.65	0.0005061
2681.29	0.0005785
2690.94	0.0005137
2700.58	0.0005262
2710.23	0.0005362
2719.87	0.0006046
2729.52	0.00059
2739.16	0.0007147
2748.81	0.0008173
2758.45	0.0007825
2768.1	0.000793
2777.74	0.0007799
2787.39	0.0008445
2797.03	0.0011435
2806.68	0.0012135
2816.32	0.0015035
2825.97	0.0019535
2835.61	0.0028335
2845.26	0.0045435
2854.9	0.0087535
2864.55	0.0127935
2874.19	0.0111135
2883.84	0.0098335
2893.48	0.0085235
2903.12	0.0097335
2912.77	0.0135435
2922.41	0.0203535
2932.06	0.0297035
2941.7	0.0259835
2951.35	0.0172035
2960.99	0.0148035
2970.64	0.0137035
2980.28	0.0074835
2989.93	0.0043935
2999.57	0.0033035
3009.22	0.0027735
3018.86	0.0031435
3028.51	0.0044035
3038.15	0.0029935
3047.8	0.0019735
3057.44	0.0018535
3067.09	0.0020835
3076.73	0.0024735
3086.38	0.0017035
3096.02	0.0012435
3105.67	0.0009748
3115.31	0.0008144
3124.95	0.000684
3134.6	0.0004675
3144.24	0.0004609
3153.89	0.0004026
3163.53	0.0003327
3173.18	0.0002516
3182.82	0.0003094
3192.47	0.0004127
3202.11	0.0002967
3211.76	0.0003044
3221.4	0.0002539
3231.05	0.0003814
3240.69	0.0003917
3250.34	0.0002613
3259.98	0.0003413
3269.63	0.0001836
3279.27	0.0002083
3288.92	0.0001837
3298.56	0.0001547
3308.21	0.00016408
3317.85	0.00014484
3327.49	0.0001906
3337.14	0.00012532
3346.78	0.0002105
3356.43	0.00016905
3366.07	0.00012847
3375.72	0.00013714
3385.36	0.0002899
3395.01	0.00013168
3404.65	7.9e-05
3414.3	0.00010095
3423.94	0.00013928
3433.59	0.0002815
3443.23	0.0002246
3452.88	0.0001231
3462.52	0.00011392
3472.17	9.1976e-05
3481.81	0.00017169
3491.46	0.00016711
3501.1	8.5207e-05
3510.75	0.0002368
3520.39	0.00016178
3530.04	0.00010978
3539.68	8.5779e-05
3549.32	0.00014636
3558.97	0
3568.61	9.639e-05
3578.26	0.0002023
3587.9	0.0001446
3597.55	0.00011143
3607.19	0.0001877
3616.84	0.00011822
3626.48	0.00014996
3636.13	0.00015612
3645.77	8.5938e-05
3655.42	0.00011492
3665.06	0.0001507
3674.71	0.000253
3684.35	0.0002079
3694	0.00016595
3703.64	0.00014361
3713.29	2.96e-05
3722.93	0.0002182
3732.58	0.00011926
3742.22	0.0002221
3751.86	6.41e-05
3761.51	0.0002162
3771.15	0.0002662
3780.8	0.00014006
3790.44	0.0002012
3800.09	0.00010705
3809.73	0.00016156
3819.38	0.00015953
3829.02	9.1843e-05
3838.67	0.00011751
3848.31	0.0001955
3857.96	0.00012867
3867.6	0.00012524
3877.25	8.8948e-05
3886.89	0.0002319
3896.54	0.0001916
3906.18	0.0002478
3915.83	0.00015015
3925.47	0.0002329
3935.12	6.45e-05
3944.76	0.00016087
3954.41	0.0002459
3964.05	0.0002483
3973.69	0.00017836
3983.34	0.0002425
3992.98	0.0001442
