Infrared Spectrum: p-Butoxybenzylidene p-octylaniline
Formula: C 25 H 35 N O
CAS: 39777-26-9
State: gas
Origin: EPA-IR VAPOR PHASE LIBRARY
1/CM	ABSORBANCE
549.8	0.001611
559.445	0.002141
569.09	0.001501
578.734	0.0005178
588.379	0.0007573
598.024	0.0010852
607.669	0.001281
617.313	0.0011741
626.958	0.0005382
636.603	0.0005248
646.248	0.0004679
655.893	2.9e-05
665.537	0.00029858
675.182	0.0001534
684.827	0.0003668
694.472	0.0003953
704.116	0.0006637
713.761	0.0008866
723.406	0.0009266
733.051	0.0008442
742.695	0.0008391
752.34	0.0008679
761.985	0.000984
771.63	0.0009241
781.275	0.0010265
790.919	0.0010446
800.564	0.001941
810.209	0.002891
819.854	0.003521
829.498	0.005381
839.143	0.005371
848.788	0.003511
858.433	0.002341
868.078	0.002381
877.722	0.003251
887.367	0.004911
897.012	0.002091
906.657	0.001271
916.301	0.0010335
925.946	0.0009386
935.591	0.0008724
945.236	0.001113
954.88	0.001631
964.525	0.002311
974.17	0.002851
983.815	0.002321
993.46	0.002121
1003.1	0.002801
1012.75	0.005321
1022.39	0.004921
1032.04	0.004171
1041.68	0.002851
1051.33	0.001931
1060.97	0.002681
1070.62	0.002551
1080.26	0.002151
1089.91	0.002031
1099.55	0.002311
1109.2	0.002411
1118.84	0.001761
1128.49	0.001641
1138.13	0.002281
1147.78	0.003691
1157.42	0.012541
1167.07	0.023961
1176.71	0.004641
1186.36	0.004751
1196	0.006781
1205.64	0.007381
1215.29	0.011031
1224.93	0.014181
1234.58	0.019251
1244.22	0.025551
1253.87	0.019991
1263.51	0.010391
1273.16	0.006211
1282.8	0.006111
1292.45	0.007041
1302.09	0.009221
1311.74	0.005921
1321.38	0.003471
1331.03	0.002781
1340.67	0.002661
1350.32	0.002611
1359.96	0.002441
1369.61	0.002511
1379.25	0.002741
1388.9	0.003291
1398.54	0.002211
1408.18	0.002101
1417.83	0.003831
1427.47	0.002331
1437.12	0.002171
1446.76	0.002981
1456.41	0.003911
1466.05	0.005121
1475.7	0.006191
1485.34	0.004281
1494.99	0.006621
1504.63	0.019361
1514.28	0.021671
1523.92	0.005591
1533.57	0.002731
1543.21	0.002141
1552.86	0.002161
1562.5	0.003391
1572.15	0.007941
1581.79	0.007291
1591.44	0.013151
1601.08	0.023191
1610.73	0.012501
1620.37	0.007281
1630.01	0.013591
1639.66	0.008211
1649.3	0.003461
1658.95	0.002201
1668.59	0.001651
1678.24	0.001221
1687.88	0.0010507
1697.53	0.000871
1707.17	0.0007135
1716.82	0.0007118
1726.46	0.0007342
1736.11	0.0006285
1745.75	0.0006697
1755.4	0.0007753
1765.04	0.000855
1774.69	0.0006713
1784.33	0.0004636
1793.98	0.0004959
1803.62	0.0004658
1813.27	0.000463
1822.91	0.0003601
1832.55	0.0003897
1842.2	0.0004374
1851.84	0.0004716
1861.49	0.0004702
1871.13	0.0005695
1880.78	0.0006121
1890.42	0.0007017
1900.07	0.0006047
1909.71	0.0005323
1919.36	0.0005307
1929	0.0005784
1938.65	0.0005555
1948.29	0.0004785
1957.94	0.0004514
1967.58	0.0004818
1977.23	0.0004724
1986.87	0.0005171
1996.52	0.000493
2006.16	0.0005214
2015.81	0.0006202
2025.45	0.0005893
2035.1	0.0005507
2044.74	0.0006252
2054.38	0.0005822
2064.03	0.0005018
2073.67	0.0004774
2083.32	0.0004439
2092.96	0.0004504
2102.61	0.0004163
2112.25	0.0003727
2121.9	0.0003391
2131.54	0.0003363
2141.19	0.0003136
2150.83	0.000338
2160.48	0.00028972
2170.12	0.0003397
2179.77	0.00029079
2189.41	0.0003127
2199.06	0.0003132
2208.7	0.00028216
2218.35	0.00027165
2227.99	0.00027308
2237.64	0.0002908
2247.28	0.0003242
2256.92	0.0003654
2266.57	0.0003357
2276.21	0.0003161
2285.86	0.0003096
2295.5	0.0003415
2305.15	0.00026814
2314.79	0.0003403
2324.44	0.0003814
2334.08	0.0004092
2343.73	0.0004102
2353.37	0.0003689
2363.02	0.0004116
2372.66	0.00027186
2382.31	0.0003955
2391.95	0.0004359
2401.6	0.0004693
2411.24	0.0004633
2420.89	0.0004305
2430.53	0.0003804
2440.18	0.0004956
2449.82	0.0004815
2459.47	0.0005471
2469.11	0.000506
2478.75	0.000601
2488.4	0.0005028
2498.04	0.0005387
2507.69	0.0005146
2517.33	0.0005198
2526.98	0.0005335
2536.62	0.0005655
2546.27	0.0006702
2555.91	0.0006959
2565.56	0.0006539
2575.2	0.0005433
2584.85	0.0005906
2594.49	0.0005637
2604.14	0.0005336
2613.78	0.0005568
2623.43	0.0005102
2633.07	0.0005227
2642.72	0.0005084
2652.36	0.0005418
2662.01	0.0006188
2671.65	0.0005147
2681.29	0.0006361
2690.94	0.0005905
2700.58	0.0005954
2710.23	0.0006247
2719.87	0.0007735
2729.52	0.0008211
2739.16	0.0008103
2748.81	0.0008819
2758.45	0.0009326
2768.1	0.0009981
2777.74	0.0009455
2787.39	0.0010642
2797.03	0.0011991
2806.68	0.001351
2816.32	0.001621
2825.97	0.002201
2835.61	0.002951
2845.26	0.004931
2854.9	0.009411
2864.55	0.013301
2874.19	0.011851
2883.84	0.011101
2893.48	0.009641
2903.12	0.010491
2912.77	0.014521
2922.41	0.021361
2932.06	0.031111
2941.7	0.027111
2951.35	0.017891
2960.99	0.016221
2970.64	0.016481
2980.28	0.009521
2989.93	0.005481
2999.57	0.004011
3009.22	0.003331
3018.86	0.003731
3028.51	0.005421
3038.15	0.003701
3047.8	0.002491
3057.44	0.002321
3067.09	0.002261
3076.73	0.003081
3086.38	0.002161
3096.02	0.001701
3105.67	0.001321
3115.31	0.0010668
3124.95	0.0006652
3134.6	0.0006594
3144.24	0.0004954
3153.89	0.0005217
3163.53	0.0004024
3173.18	0.000372
3182.82	0.0004885
3192.47	0.0004704
3202.11	0.0004672
3211.76	0.0004889
3221.4	0.0003743
3231.05	0.0004161
3240.69	0.0003349
3250.34	0.0004826
3259.98	0.0003511
3269.63	0.0003667
3279.27	0.000188
3288.92	0.00019285
3298.56	0.0001332
3308.21	0.00029385
3317.85	0.0001815
3327.49	0.0001149
3337.14	0.0001471
3346.78	0.0001311
3356.43	0.0003469
3366.07	0.00023571
3375.72	0.00019533
3385.36	0.0001756
3395.01	0.0001621
3404.65	0.00026223
3414.3	0.000210956
3423.94	0.00021744
3433.59	0.0001688
3443.23	0.00028323
3452.88	0.0001163
3462.52	0.0001839
3472.17	3.9e-05
3481.81	7.4e-05
3491.46	0.000201752
3501.1	0.0001451
3510.75	7e-05
3520.39	0.0001193
3530.04	0.000201239
3539.68	0.0001351
3549.32	0.0001794
3558.97	0.0001288
3568.61	0.00028849
3578.26	0.0001511
3587.9	9.1e-05
3597.55	0.0001495
3607.19	0.0001218
3616.84	7e-05
3626.48	4.3e-05
3636.13	0.000201074
3645.77	0.00023096
3655.42	0.0001871
3665.06	0.0001776
3674.71	0.0001678
3684.35	0.0003791
3694	0.00025338
3703.64	0.00021517
3713.29	0.000203708
3722.93	0.0003129
3732.58	0.00020656
3742.22	0.000201011
3751.86	0.0003804
3761.51	0.0001877
3771.15	5.6e-05
3780.8	0.0001534
3790.44	0.0001888
3800.09	3.7e-05
3809.73	0.0001905
3819.38	0.00025911
3829.02	0.0003473
3838.67	0.0001591
3848.31	0.00021182
3857.96	0.00019224
3867.6	0.0001083
3877.25	0.0003437
3886.89	0.00022992
3896.54	0.00019565
3906.18	0.00026185
3915.83	0.00022085
3925.47	9.8e-05
3935.12	0.00028232
3944.76	0.0003207
3954.41	0.0002958
3964.05	0.0001645
3973.69	0.0003017
3983.34	0.00025629
3992.98	0.000124
