Infrared Spectrum: p-Heptyloxybenzylidene p-heptylaniline
Formula: C 27 H 39 N O
CAS: 39777-22-5
State: gas
Origin: EPA-IR VAPOR PHASE LIBRARY
1/CM	ABSORBANCE
549.8	0.001811
559.445	0.002021
569.09	0.001881
578.734	0.0009761
588.379	0.0008749
598.024	0.0008507
607.669	0.0010848
617.313	0.001311
626.958	0.0010575
636.603	0.0009486
646.248	0.0005112
655.893	0.0005414
665.537	0.0006071
675.182	0.0003454
684.827	0.000635
694.472	0.0006204
704.116	0.0007679
713.761	0.001481
723.406	0.001361
733.051	0.0010532
742.695	0.0008466
752.34	0.0009121
761.985	0.0007876
771.63	0.0009156
781.275	0.001361
790.919	0.001461
800.564	0.002321
810.209	0.002801
819.854	0.003421
829.498	0.005921
839.143	0.005691
848.788	0.003671
858.433	0.002511
868.078	0.002321
877.722	0.003271
887.367	0.004821
897.012	0.002601
906.657	0.001581
916.301	0.001291
925.946	0.001251
935.591	0.001351
945.236	0.001441
954.88	0.001821
964.525	0.002551
974.17	0.002511
983.815	0.002141
993.46	0.002251
1003.1	0.002781
1012.75	0.004701
1022.39	0.005691
1032.04	0.005841
1041.68	0.004251
1051.33	0.003561
1060.97	0.003051
1070.62	0.002511
1080.26	0.001701
1089.91	0.001981
1099.55	0.002031
1109.2	0.002411
1118.84	0.001911
1128.49	0.001731
1138.13	0.002031
1147.78	0.003501
1157.42	0.013331
1167.07	0.024661
1176.71	0.004891
1186.36	0.005271
1196	0.007941
1205.64	0.007711
1215.29	0.010181
1224.93	0.014171
1234.58	0.022131
1244.22	0.026371
1253.87	0.020101
1263.51	0.010331
1273.16	0.006511
1282.8	0.006351
1292.45	0.007731
1302.09	0.009961
1311.74	0.006321
1321.38	0.003801
1331.03	0.003021
1340.67	0.002951
1350.32	0.002871
1359.96	0.002831
1369.61	0.002781
1379.25	0.003171
1388.9	0.003541
1398.54	0.002351
1408.18	0.002351
1417.83	0.004271
1427.47	0.002661
1437.12	0.002501
1446.76	0.003561
1456.41	0.004651
1466.05	0.005641
1475.7	0.006901
1485.34	0.004641
1494.99	0.007121
1504.63	0.020301
1514.28	0.022811
1523.92	0.005971
1533.57	0.002891
1543.21	0.002211
1552.86	0.002421
1562.5	0.003451
1572.15	0.008411
1581.79	0.007831
1591.44	0.013831
1601.08	0.024481
1610.73	0.013061
1620.37	0.007601
1630.01	0.014021
1639.66	0.008681
1649.3	0.003781
1658.95	0.002341
1668.59	0.001721
1678.24	0.001391
1687.88	0.0011373
1697.53	0.0009607
1707.17	0.000885
1716.82	0.0007444
1726.46	0.0007683
1736.11	0.0007466
1745.75	0.0007968
1755.4	0.0008407
1765.04	0.0008984
1774.69	0.0008553
1784.33	0.000618
1793.98	0.000593
1803.62	0.0005821
1813.27	0.0005208
1822.91	0.0005039
1832.55	0.0005007
1842.2	0.0005344
1851.84	0.0005075
1861.49	0.0005858
1871.13	0.0006298
1880.78	0.0007495
1890.42	0.0008677
1900.07	0.0008117
1909.71	0.0005758
1919.36	0.000631
1929	0.0006991
1938.65	0.0006735
1948.29	0.0006148
1957.94	0.0005938
1967.58	0.0005982
1977.23	0.0005715
1986.87	0.0006235
1996.52	0.0005751
2006.16	0.0006563
2015.81	0.0007378
2025.45	0.0007142
2035.1	0.0006578
2044.74	0.0007166
2054.38	0.0007489
2064.03	0.0006825
2073.67	0.0005936
2083.32	0.0006013
2092.96	0.000526
2102.61	0.0005112
2112.25	0.0005077
2121.9	0.0004883
2131.54	0.0004039
2141.19	0.0004259
2150.83	0.0004179
2160.48	0.0004121
2170.12	0.000435
2179.77	0.000415
2189.41	0.0003471
2199.06	0.0003579
2208.7	0.00030675
2218.35	0.00032346
2227.99	0.0004041
2237.64	0.00033744
2247.28	0.0004005
2256.92	0.0004093
2266.57	0.0004016
2276.21	0.0004663
2285.86	0.0004209
2295.5	0.0004422
2305.15	0.0003917
2314.79	0.0004892
2324.44	0.0004873
2334.08	0.0005376
2343.73	0.0004628
2353.37	0.0004973
2363.02	0.0004933
2372.66	0.0004261
2382.31	0.0004171
2391.95	0.0004631
2401.6	0.0005276
2411.24	0.0004512
2420.89	0.0004414
2430.53	0.0004511
2440.18	0.00047
2449.82	0.0006212
2459.47	0.0007123
2469.11	0.0007058
2478.75	0.0006318
2488.4	0.0006292
2498.04	0.0005149
2507.69	0.0006833
2517.33	0.0006156
2526.98	0.0006933
2536.62	0.000816
2546.27	0.0007716
2555.91	0.000743
2565.56	0.0007147
2575.2	0.0006768
2584.85	0.0006558
2594.49	0.0005143
2604.14	0.0006803
2613.78	0.0006705
2623.43	0.0006581
2633.07	0.0006216
2642.72	0.0006263
2652.36	0.0006805
2662.01	0.0007758
2671.65	0.0006788
2681.29	0.0007256
2690.94	0.000811
2700.58	0.0007112
2710.23	0.0007504
2719.87	0.0007464
2729.52	0.0008139
2739.16	0.0009975
2748.81	0.0011138
2758.45	0.0010222
2768.1	0.0011793
2777.74	0.0010986
2787.39	0.0011348
2797.03	0.001551
2806.68	0.001611
2816.32	0.001971
2825.97	0.002601
2835.61	0.003631
2845.26	0.005871
2854.9	0.011291
2864.55	0.016391
2874.19	0.014441
2883.84	0.012841
2893.48	0.011091
2903.12	0.012381
2912.77	0.017361
2922.41	0.026151
2932.06	0.037841
2941.7	0.033541
2951.35	0.022541
2960.99	0.019321
2970.64	0.017611
2980.28	0.009531
2989.93	0.005621
2999.57	0.004311
3009.22	0.003631
3018.86	0.004061
3028.51	0.005771
3038.15	0.003961
3047.8	0.002731
3057.44	0.002281
3067.09	0.002741
3076.73	0.003131
3086.38	0.002321
3096.02	0.001741
3105.67	0.001301
3115.31	0.0011797
3124.95	0.0008816
3134.6	0.0006155
3144.24	0.0005689
3153.89	0.0006131
3163.53	0.0005396
3173.18	0.0006829
3182.82	0.0005019
3192.47	0.0004501
3202.11	0.0004858
3211.76	0.0004518
3221.4	0.000472
3231.05	0.0005091
3240.69	0.0005244
3250.34	0.0003959
3259.98	0.0003501
3269.63	0.00014
3279.27	0.00033484
3288.92	0.00025122
3298.56	0.00023328
3308.21	0.00027975
3317.85	0.0001449
3327.49	0.0001699
3337.14	0.00026166
3346.78	0.00030083
3356.43	0.00026459
3366.07	0.0001649
3375.72	0.0001462
3385.36	9.3e-05
3395.01	0.000241327
3404.65	0.0001456
3414.3	0.00029797
3423.94	0.00030805
3433.59	0.00023845
3443.23	0.0002181
3452.88	0.00024142
3462.52	0.0001788
3472.17	0.00028196
3481.81	0.000103
3491.46	0.000127
3501.1	9.3e-05
3510.75	9.5e-05
3520.39	0.0002035
3530.04	6e-05
3539.68	0.0002297
3549.32	0.000131
3558.97	0.0001922
3568.61	0.00023142
3578.26	0.0002148
3587.9	8e-05
3597.55	0.0002377
3607.19	8.5e-05
3616.84	0.0001577
3626.48	6.6e-05
3636.13	0.00030362
3645.77	0.00028059
3655.42	0.0002132
3665.06	0.00028563
3674.71	0.0001939
3684.35	0.0001959
3694	0.000177
3703.64	0.000138
3713.29	0.00025358
3722.93	0.000369
3732.58	0.0002025
3742.22	0.0001431
3751.86	0.0003963
3761.51	0.0001415
3771.15	0.0001878
3780.8	0.00027257
3790.44	0.0002273
3800.09	3.2e-05
3809.73	0.0003746
3819.38	0.0003773
3829.02	0.0001824
3838.67	0.00032523
3848.31	0.0002307
3857.96	0.00032794
3867.6	0.0003647
3877.25	0.0002101
3886.89	3.8e-05
3896.54	0.0002204
3906.18	0.0001943
3915.83	0.00026307
3925.47	0.0001577
3935.12	0.00028598
3944.76	0.00023144
3954.41	0.0003928
3964.05	0.00027601
3973.69	0.00023961
3983.34	0.00029572
3992.98	0.0004074
