Infrared Spectrum: p-Butoxybenzylidene p-heptylaniline
Formula: C 24 H 33 N O
CAS: 39777-19-0
State: gas
Origin: EPA-IR VAPOR PHASE LIBRARY
1/CM	ABSORBANCE
549.8	0.003729
559.445	0.003979
569.09	0.002899
578.734	0.001559
588.379	0.001199
598.024	0.001889
607.669	0.002239
617.313	0.002149
626.958	0.001479
636.603	0.001169
646.248	0.0008678
655.893	0.0004365
665.537	0.0005102
675.182	0.0004495
684.827	0.0004458
694.472	0.0007141
704.116	0.001149
713.761	0.001689
723.406	0.001529
733.051	0.001289
742.695	0.001429
752.34	0.001239
761.985	0.001409
771.63	0.001689
781.275	0.001779
790.919	0.002189
800.564	0.003429
810.209	0.004779
819.854	0.006699
829.498	0.010219
839.143	0.010109
848.788	0.006359
858.433	0.004219
868.078	0.004239
877.722	0.006169
887.367	0.009029
897.012	0.004359
906.657	0.002499
916.301	0.001879
925.946	0.001629
935.591	0.001899
945.236	0.002049
954.88	0.002959
964.525	0.004289
974.17	0.005319
983.815	0.004149
993.46	0.003819
1003.1	0.005569
1012.75	0.009759
1022.39	0.008909
1032.04	0.007849
1041.68	0.005659
1051.33	0.004059
1060.97	0.005159
1070.62	0.005959
1080.26	0.003759
1089.91	0.003489
1099.55	0.004039
1109.2	0.005189
1118.84	0.004249
1128.49	0.003419
1138.13	0.003929
1147.78	0.006399
1157.42	0.023539
1167.07	0.044369
1176.71	0.008849
1186.36	0.008809
1196	0.012499
1205.64	0.012279
1215.29	0.019409
1224.93	0.025199
1234.58	0.034339
1244.22	0.046639
1253.87	0.037149
1263.51	0.018759
1273.16	0.011479
1282.8	0.010749
1292.45	0.012869
1302.09	0.016649
1311.74	0.010939
1321.38	0.006189
1331.03	0.004979
1340.67	0.004779
1350.32	0.004629
1359.96	0.004339
1369.61	0.004379
1379.25	0.005009
1388.9	0.006029
1398.54	0.004139
1408.18	0.003839
1417.83	0.007139
1427.47	0.004259
1437.12	0.004039
1446.76	0.005289
1456.41	0.006969
1466.05	0.009289
1475.7	0.011429
1485.34	0.008109
1494.99	0.012349
1504.63	0.036049
1514.28	0.040509
1523.92	0.010619
1533.57	0.005169
1543.21	0.003969
1552.86	0.004109
1562.5	0.006269
1572.15	0.014809
1581.79	0.013609
1591.44	0.024429
1601.08	0.043319
1610.73	0.023409
1620.37	0.013479
1630.01	0.025179
1639.66	0.015389
1649.3	0.006389
1658.95	0.003929
1668.59	0.002869
1678.24	0.002189
1687.88	0.001709
1697.53	0.001389
1707.17	0.001289
1716.82	0.001229
1726.46	0.001129
1736.11	0.0010695
1745.75	0.0011
1755.4	0.001299
1765.04	0.001489
1774.69	0.001219
1784.33	0.0009598
1793.98	0.0008409
1803.62	0.0007338
1813.27	0.0006421
1822.91	0.0006121
1832.55	0.0006372
1842.2	0.0007001
1851.84	0.0007863
1861.49	0.0008463
1871.13	0.0009276
1880.78	0.001209
1890.42	0.001359
1900.07	0.0010108
1909.71	0.0008648
1919.36	0.0008738
1929	0.0010043
1938.65	0.0009573
1948.29	0.0008492
1957.94	0.0007552
1967.58	0.0007939
1977.23	0.0007713
1986.87	0.0008615
1996.52	0.0008311
2006.16	0.0009749
2015.81	0.0010828
2025.45	0.0010439
2035.1	0.0010644
2044.74	0.0010678
2054.38	0.001057
2064.03	0.0009122
2073.67	0.000791
2083.32	0.0008365
2092.96	0.0007229
2102.61	0.0005908
2112.25	0.0005705
2121.9	0.0005627
2131.54	0.0005369
2141.19	0.0005018
2150.83	0.0004274
2160.48	0.0004233
2170.12	0.0004889
2179.77	0.0004713
2189.41	0.0004824
2199.06	0.0004052
2208.7	0.0004729
2218.35	0.0004018
2227.99	0.0003782
2237.64	0.0004861
2247.28	0.0004779
2256.92	0.0004874
2266.57	0.0004952
2276.21	0.0005604
2285.86	0.0005444
2295.5	0.0005436
2305.15	0.0004948
2314.79	0.0005644
2324.44	0.0005837
2334.08	0.0006339
2343.73	0.0005855
2353.37	0.0006535
2363.02	0.0005989
2372.66	0.0006734
2382.31	0.0006773
2391.95	0.0007286
2401.6	0.0007679
2411.24	0.0007117
2420.89	0.000693
2430.53	0.0007136
2440.18	0.0006415
2449.82	0.0008248
2459.47	0.0008173
2469.11	0.0008429
2478.75	0.0009242
2488.4	0.000854
2498.04	0.0009026
2507.69	0.0009442
2517.33	0.000901
2526.98	0.0008989
2536.62	0.0010712
2546.27	0.0011084
2555.91	0.0010159
2565.56	0.0010321
2575.2	0.0010032
2584.85	0.0009311
2594.49	0.0009022
2604.14	0.0008672
2613.78	0.0008595
2623.43	0.0007408
2633.07	0.0006764
2642.72	0.0008372
2652.36	0.0008457
2662.01	0.0009398
2671.65	0.0009202
2681.29	0.0009426
2690.94	0.0009452
2700.58	0.0010124
2710.23	0.0009785
2719.87	0.001149
2729.52	0.001229
2739.16	0.001459
2748.81	0.001569
2758.45	0.001549
2768.1	0.001609
2777.74	0.001609
2787.39	0.001779
2797.03	0.002049
2806.68	0.002329
2816.32	0.002839
2825.97	0.003729
2835.61	0.005159
2845.26	0.008439
2854.9	0.015639
2864.55	0.022219
2874.19	0.020399
2883.84	0.019739
2893.48	0.016819
2903.12	0.018059
2912.77	0.024179
2922.41	0.035159
2932.06	0.050409
2941.7	0.045699
2951.35	0.031079
2960.99	0.029389
2970.64	0.030079
2980.28	0.017319
2989.93	0.010039
2999.57	0.007419
3009.22	0.006099
3018.86	0.006879
3028.51	0.010039
3038.15	0.006849
3047.8	0.004519
3057.44	0.004099
3067.09	0.004409
3076.73	0.005529
3086.38	0.003819
3096.02	0.002859
3105.67	0.002259
3115.31	0.001889
3124.95	0.001299
3134.6	0.00098
3144.24	0.0008123
3153.89	0.000742
3163.53	0.0007218
3173.18	0.0007554
3182.82	0.0006848
3192.47	0.000686
3202.11	0.0006913
3211.76	0.0006468
3221.4	0.0006179
3231.05	0.000534
3240.69	0.0005249
3250.34	0.0006511
3259.98	0.0006177
3269.63	0.0004794
3279.27	0.0004114
3288.92	0.0004446
3298.56	0.0002523
3308.21	0.0002894
3317.85	0.0003171
3327.49	0.0002731
3337.14	0.000423
3346.78	0.0003612
3356.43	0.00017684
3366.07	0.000248
3375.72	0.0002343
3385.36	0.0003383
3395.01	0.0002573
3404.65	0.0002878
3414.3	6.21e-05
3423.94	3.17e-05
3433.59	0.00012001
3443.23	0.0002419
3452.88	0.0002706
3462.52	0.00014653
3472.17	0.00018655
3481.81	0.0002303
3491.46	0.0002417
3501.1	0.00012387
3510.75	0.00013722
3520.39	0.0002219
3530.04	0.000115116
3539.68	0.00010766
3549.32	0.00019444
3558.97	0.00017004
3568.61	0.0002156
3578.26	0.00015495
3587.9	0.0002329
3597.55	0.0002263
3607.19	0.0002426
3616.84	0.0002589
3626.48	0.0002777
3636.13	0.0003064
3645.77	0.0002619
3655.42	0.0002914
3665.06	0.00014116
3674.71	0.0002558
3684.35	0.00017165
3694	0.0002853
3703.64	0.0003236
3713.29	0.000292
3722.93	0.00018132
3732.58	0.0002423
3742.22	0.0002137
3751.86	0.0003723
3761.51	0.00013719
3771.15	0.00014649
3780.8	0.000116332
3790.44	0.0002823
3800.09	0.0003288
3809.73	0.00016696
3819.38	0.0002347
3829.02	0.000239
3838.67	0.0002638
3848.31	0.0002419
3857.96	0.000283
3867.6	0.0002641
3877.25	0.0002142
3886.89	0.0002869
3896.54	0.0003593
3906.18	0.0003648
3915.83	0.0003081
3925.47	0.0002306
3935.12	0.0002677
3944.76	0.0002689
3954.41	0.0003798
3964.05	0.0003649
3973.69	0.000146
3983.34	0.00020805
3992.98	0.0003809
