Infrared Spectrum: Pyrimidine, 2-amino-4-hydroxy-6-methyl- (keto form)
Formula: C5 H7 N3 O
CAS: 3977-29-5
State: SOLID (SPLIT MULL), FLUOROLUBE FOR 3800-1330 CM^-^1, NUJOL FOR 1330-400 CM^-^1; NUJOL SPECIMEN IS THICKER THAN FLUOROLUBE BY ca. 2X
Class: COBLENTZ II
Instrument: DOW KBr FOREPRISM-GRATING
Instrument parameters: BLAZED AT 3.5, 12.0, 20.0 MICRON AND CHANGED AT 5.0, 7.5, 14.9 MICRON
Sampling: TRANSMISSION
Resolution: 2
Origin: DOW CHEMICAL COMPANY
1/CM	TRANSMITTANCE
381	0.8563
390	0.8636
399	0.8712
408	0.8794
417	0.8878
426	0.8957
435	0.9034
444	0.9092
453	0.912
462	0.9118
471	0.9101
480	0.9063
489	0.8995
498	0.887
507	0.8664
516	0.8296
525	0.5677
534	0.7958
543	0.7635
552	0.5747
561	0.1052
570	0.4935
579	0.5684
588	0.5096
597	0.5423
606	0.4668
615	0.7357
624	0.8455
633	0.8834
642	0.8912
651	0.8755
660	0.6285
669	0.8425
678	0.8939
687	0.8853
696	0.858
705	0.8101
714	0.7054
723	0.6592
732	0.7637
741	0.7295
750	0.6828
759	0.6101
768	0.4981
777	0.312
786	0.4319
795	0.6314
804	0.6645
813	0.5458
822	0.4029
831	0.299
840	0.7553
849	0.8041
858	0.8352
867	0.8546
876	0.8625
885	0.8609
894	0.8614
903	0.863
912	0.8575
921	0.8494
930	0.8367
939	0.8172
948	0.7818
957	0.7819
966	0.7734
975	0.7658
984	0.7318
993	0.7833
1002	0.7631
1011	0.6871
1020	0.621
1029	0.7639
1038	0.6954
1047	0.5662
1056	0.7195
1065	0.7053
1074	0.6722
1083	0.6785
1092	0.6801
1101	0.6672
1110	0.6596
1119	0.6576
1128	0.658
1137	0.6598
1146	0.6569
1155	0.6366
1164	0.5724
1173	0.4244
1182	0.3614
1191	0.4766
1200	0.6539
1209	0.6476
1218	0.6534
1227	0.6354
1236	0.6148
1245	0.6038
1254	0.5916
1263	0.567
1272	0.5089
1281	0.4247
1290	0.5454
1299	0.5284
1308	0.5096
1317	0.4962
1326	0.5762
1335	0.571
1344	0.5484
1353	0.5284
1362	0.531
1371	0.6127
1380	0.533
1389	0.4641
1398	0.6122
1407	0.6272
1416	0.5991
1425	0.5507
1434	0.5428
1443	0.5055
1452	0.4787
1461	0.4197
1470	0.3525
1479	0.3204
1488	0.2928
1497	0.2427
1506	0.2757
1515	0.3208
1524	0.3668
1533	0.431
1542	0.5037
1551	0.5831
1560	0.6568
1569	0.7288
1578	0.7722
1587	0.7901
1596	0.7601
1605	0.7093
1614	0.6708
1623	0.6547
1632	0.6034
1641	0.5106
1650	0.3862
1659	0.2645
1668	0.2747
1677	0.4203
1686	0.608
1695	0.7501
1704	0.8148
1713	0.8692
1722	0.9066
1731	0.9263
1740	0.9362
1749	0.9438
1758	0.9468
1767	0.947
1776	0.9448
1785	0.9421
1794	0.9384
1803	0.9428
1812	0.9481
1821	0.9451
1830	0.941
1839	0.9381
1848	0.9359
1857	0.9336
1866	0.9315
1875	0.9286
1884	0.9253
1893	0.9225
1902	0.9201
1911	0.921
1920	0.9221
1929	0.9209
1938	0.9164
1947	0.9141
1956	0.9171
1965	0.9106
1974	0.906
1983	0.9034
1992	0.8955
2001	0.8981
2010	0.9001
2019	0.8971
2028	0.8943
2037	0.8907
2046	0.887
2055	0.8839
2064	0.882
2073	0.8834
2082	0.8832
2091	0.8802
2100	0.8771
2109	0.8751
2118	0.8732
2127	0.8712
2136	0.8694
2145	0.8675
2154	0.8647
2163	0.8615
2172	0.8584
2181	0.8552
2190	0.8521
2199	0.8488
2208	0.8456
2217	0.8424
2226	0.8392
2235	0.836
2244	0.8328
2253	0.8294
2262	0.826
2271	0.8225
2280	0.8195
2289	0.8161
2298	0.813
2307	0.8111
2316	0.8091
2325	0.8074
2334	0.8054
2343	0.8038
2352	0.8053
2361	0.8049
2370	0.8044
2379	0.8035
2388	0.8025
2397	0.8011
2406	0.7999
2415	0.7986
2424	0.7971
2433	0.7956
2442	0.7941
2451	0.7925
2460	0.7906
2469	0.7901
2478	0.7906
2487	0.7904
2496	0.7889
2505	0.7872
2514	0.7841
2523	0.7803
2532	0.7764
2541	0.7735
2550	0.7751
2559	0.776
2568	0.7722
2577	0.7681
2586	0.7642
2595	0.7604
2604	0.7568
2613	0.7522
2622	0.7471
2631	0.7412
2640	0.7358
2649	0.7311
2658	0.7264
2667	0.7201
2676	0.7137
2685	0.7065
2694	0.6993
2703	0.6905
2712	0.6811
2721	0.6695
2730	0.6651
2739	0.6653
2748	0.6619
2757	0.6568
2766	0.6489
2775	0.6393
2784	0.6299
2793	0.6196
2802	0.6081
2811	0.5981
2820	0.5898
2829	0.5854
2838	0.5825
2847	0.5792
2856	0.5751
2865	0.5695
2874	0.5617
2883	0.5515
2892	0.5394
2901	0.5279
2910	0.5178
2919	0.5107
2928	0.5115
2937	0.513
2946	0.5165
2955	0.5255
2964	0.5387
2973	0.5539
2982	0.5666
2991	0.5689
3000	0.5685
3009	0.5668
3018	0.5598
3027	0.5439
3036	0.527
3045	0.5088
3054	0.4916
3063	0.4806
3072	0.4809
3081	0.4866
3090	0.5044
3099	0.5249
3108	0.5448
3117	0.5644
3126	0.5826
3135	0.5984
3144	0.6178
3153	0.6356
3162	0.6498
3171	0.6662
3180	0.6796
3189	0.686
3198	0.6881
3207	0.6861
3216	0.6818
3225	0.6767
3234	0.6705
3243	0.6637
3252	0.6544
3261	0.6433
3270	0.629
3279	0.6126
3288	0.5928
3297	0.5714
3306	0.5478
3315	0.5205
3324	0.4936
3333	0.4699
3342	0.4745
3351	0.5554
3360	0.6344
3369	0.7295
3378	0.7858
3387	0.8169
3396	0.8309
3405	0.8394
3414	0.8441
3423	0.8475
3432	0.8508
3441	0.8537
3450	0.8561
3459	0.8578
3468	0.8593
3477	0.86
3486	0.8593
3495	0.8585
3504	0.8575
3513	0.8565
3522	0.8549
3531	0.8532
3540	0.8516
3549	0.8496
3558	0.8475
3567	0.8456
3576	0.8437
3585	0.8418
3594	0.8399
3603	0.838
3612	0.8362
3621	0.8343
3630	0.8325
3639	0.8306
3648	0.8287
3657	0.8268
3666	0.8251
3675	0.8232
3684	0.8213
3693	0.8194
3702	0.8175
3711	0.8161
3720	0.8151
3729	0.8143
3738	0.8131
3747	0.8115
3756	0.8101
3765	0.8085
