Infrared Spectrum: p-Pentyloxybenzylidene p-hexylaniline
Formula: C 24 H 33 N O
CAS: 39777-13-4
State: gas
Origin: EPA-IR VAPOR PHASE LIBRARY
1/CM	ABSORBANCE
549.8	0.00319
559.445	0.00336
569.09	0.00242
578.734	0.0009551
588.379	0.000912
598.024	0.00127
607.669	0.00186
617.313	0.00173
626.958	0.00117
636.603	0.0009362
646.248	0.0005919
655.893	0.0002307
665.537	0.0001412
675.182	0.0004545
684.827	0.000441
694.472	0.0005517
704.116	0.0009566
713.761	0.00144
723.406	0.00149
733.051	0.00116
742.695	0.00105
752.34	0.00105
761.985	0.00107
771.63	0.00141
781.275	0.00149
790.919	0.00187
800.564	0.00286
810.209	0.00415
819.854	0.00624
829.498	0.00932
839.143	0.00889
848.788	0.00526
858.433	0.00378
868.078	0.00352
877.722	0.00502
887.367	0.00736
897.012	0.00387
906.657	0.00271
916.301	0.00216
925.946	0.00182
935.591	0.00141
945.236	0.00148
954.88	0.00143
964.525	0.00211
974.17	0.00279
983.815	0.00393
993.46	0.00534
1003.1	0.00679
1012.75	0.0085
1022.39	0.00747
1032.04	0.00802
1041.68	0.00709
1051.33	0.00567
1060.97	0.00333
1070.62	0.00334
1080.26	0.0032
1089.91	0.00226
1099.55	0.00327
1109.2	0.00388
1118.84	0.0031
1128.49	0.00278
1138.13	0.00326
1147.78	0.00532
1157.42	0.02146
1167.07	0.04015
1176.71	0.00808
1186.36	0.00795
1196	0.01215
1205.64	0.01229
1215.29	0.0159
1224.93	0.02274
1234.58	0.03449
1244.22	0.04332
1253.87	0.03422
1263.51	0.01584
1273.16	0.00986
1282.8	0.00994
1292.45	0.0123
1302.09	0.01576
1311.74	0.00976
1321.38	0.00568
1331.03	0.00446
1340.67	0.00427
1350.32	0.00407
1359.96	0.00386
1369.61	0.00396
1379.25	0.00474
1388.9	0.00545
1398.54	0.00356
1408.18	0.00335
1417.83	0.00649
1427.47	0.00383
1437.12	0.00348
1446.76	0.00465
1456.41	0.00617
1466.05	0.00803
1475.7	0.01049
1485.34	0.00707
1494.99	0.01108
1504.63	0.03269
1514.28	0.03668
1523.92	0.00959
1533.57	0.0046
1543.21	0.00353
1552.86	0.00353
1562.5	0.00545
1572.15	0.01305
1581.79	0.01266
1591.44	0.02216
1601.08	0.03917
1610.73	0.02108
1620.37	0.01218
1630.01	0.02255
1639.66	0.01394
1649.3	0.00578
1658.95	0.00348
1668.59	0.00248
1678.24	0.0018
1687.88	0.00147
1697.53	0.0013
1707.17	0.00102
1716.82	0.00104
1726.46	0.0009735
1736.11	0.0008692
1745.75	0.001
1755.4	0.00103
1765.04	0.00121
1774.69	0.00109
1784.33	0.0007225
1793.98	0.0006392
1803.62	0.0005954
1813.27	0.000565
1822.91	0.0004832
1832.55	0.0004578
1842.2	0.0004821
1851.84	0.0006062
1861.49	0.0005956
1871.13	0.0006923
1880.78	0.000953
1890.42	0.00102
1900.07	0.0008942
1909.71	0.0007127
1919.36	0.0007215
1929	0.0008439
1938.65	0.0007631
1948.29	0.0006716
1957.94	0.0005884
1967.58	0.0005637
1977.23	0.0006389
1986.87	0.0006422
1996.52	0.0007249
2006.16	0.0007624
2015.81	0.0009216
2025.45	0.0008459
2035.1	0.0008485
2044.74	0.0008768
2054.38	0.0008721
2064.03	0.000703
2073.67	0.0007036
2083.32	0.000635
2092.96	0.0005876
2102.61	0.0004885
2112.25	0.0005095
2121.9	0.0003771
2131.54	0.0003515
2141.19	0.0004475
2150.83	0.0003237
2160.48	0.0003377
2170.12	0.0002744
2179.77	0.0002484
2189.41	0.0002861
2199.06	0.000293
2208.7	0.0002212
2218.35	0.0003066
2227.99	0.0002762
2237.64	0.0003761
2247.28	0.0002784
2256.92	0.0003133
2266.57	0.0003893
2276.21	0.0003989
2285.86	0.0003844
2295.5	0.0003537
2305.15	0.0003979
2314.79	0.0004125
2324.44	0.0004296
2334.08	0.0005229
2343.73	0.0004216
2353.37	0.0004823
2363.02	0.0003886
2372.66	0.0004898
2382.31	0.0005084
2391.95	0.0005228
2401.6	0.0004654
2411.24	0.0005659
2420.89	0.0005052
2430.53	0.0005211
2440.18	0.0005849
2449.82	0.000601
2459.47	0.0006568
2469.11	0.0006867
2478.75	0.0007119
2488.4	0.0006619
2498.04	0.0006674
2507.69	0.0006637
2517.33	0.0007851
2526.98	0.0007801
2536.62	0.0008381
2546.27	0.0008893
2555.91	0.0008751
2565.56	0.0007647
2575.2	0.0008078
2584.85	0.0006822
2594.49	0.0006341
2604.14	0.0006609
2613.78	0.0006987
2623.43	0.0006151
2633.07	0.0006092
2642.72	0.0006308
2652.36	0.0006134
2662.01	0.000689
2671.65	0.0006598
2681.29	0.0007349
2690.94	0.0007351
2700.58	0.0007955
2710.23	0.0007564
2719.87	0.0008909
2729.52	0.0009351
2739.16	0.00122
2748.81	0.00134
2758.45	0.00127
2768.1	0.00128
2777.74	0.00135
2787.39	0.00152
2797.03	0.00173
2806.68	0.00193
2816.32	0.00245
2825.97	0.00323
2835.61	0.0044
2845.26	0.00723
2854.9	0.01349
2864.55	0.01982
2874.19	0.01927
2883.84	0.01789
2893.48	0.01512
2903.12	0.01607
2912.77	0.02104
2922.41	0.03046
2932.06	0.0438
2941.7	0.04153
2951.35	0.02958
2960.99	0.02801
2970.64	0.02805
2980.28	0.01485
2989.93	0.00867
2999.57	0.00646
3009.22	0.00541
3018.86	0.0061
3028.51	0.00889
3038.15	0.00602
3047.8	0.00397
3057.44	0.00364
3067.09	0.00397
3076.73	0.00488
3086.38	0.00342
3096.02	0.00254
3105.67	0.00204
3115.31	0.00161
3124.95	0.00105
3134.6	0.0007985
3144.24	0.0007658
3153.89	0.0006654
3163.53	0.0006412
3173.18	0.0005067
3182.82	0.0006113
3192.47	0.0004823
3202.11	0.0006327
3211.76	0.0006319
3221.4	0.0005801
3231.05	0.0005808
3240.69	0.0005249
3250.34	0.0004827
3259.98	0.0003409
3269.63	0.000316
3279.27	0.0003138
3288.92	0.0002924
3298.56	0.000432
3308.21	2.564e-05
3317.85	0.0002103
3327.49	0.0002581
3337.14	0.000318
3346.78	0.0002128
3356.43	0.0003226
3366.07	0.000253
3375.72	0.000249
3385.36	0.0002654
3395.01	0.0002771
3404.65	0.0001508
3414.3	0.0002398
3423.94	0.0002272
3433.59	0.000163
3443.23	0.0001989
3452.88	0.0001266
3462.52	0.0001639
3472.17	0.0001974
3481.81	0.0001592
3491.46	0.000258
3501.1	0.0002261
3510.75	0.0002431
3520.39	7.634e-05
3530.04	0.0002782
3539.68	0.000339
3549.32	0.0001989
3558.97	0.000339
3568.61	0.0002707
3578.26	0.0002745
3587.9	0.0002808
3597.55	0.0001981
3607.19	0.0001348
3616.84	0.0001584
3626.48	0.0002197
3636.13	0.0001807
3645.77	0.0002414
3655.42	0.000189
3665.06	0.0002506
3674.71	0.0002477
3684.35	0.0002176
3694	0.0001923
3703.64	0.0002274
3713.29	0.0002439
3722.93	0.0003147
3732.58	0.0002996
3742.22	0.0002729
3751.86	0.0003219
3761.51	0.000218
3771.15	0.0002194
3780.8	0.0001644
3790.44	0.0004189
3800.09	0.0003891
3809.73	0.0003112
3819.38	0.0002623
3829.02	0.0001624
3838.67	0.0001908
3848.31	0.0003406
3857.96	0.0002486
3867.6	0.0003759
3877.25	0.000298
3886.89	0.0001873
3896.54	0.0002752
3906.18	0.0003602
3915.83	0.0003768
3925.47	0.0002038
3935.12	0.0002911
3944.76	0.0003638
3954.41	0.0003074
3964.05	0.0003402
3973.69	0.0002761
3983.34	0.0003906
3992.98	0.0004428
