Infrared Spectrum: 4,4'-Difluorobiphenyl
Formula: C 12 H 8 F 2
CAS: 398-23-2
State: gas
Origin: EPA-IR VAPOR PHASE LIBRARY
1/CM	ABSORBANCE
501.5	0.008904
513.074	0.065804
524.648	0.037134
536.222	0.014554
547.796	0.007694
559.37	0.002644
570.944	0.0011658
582.518	0.0010214
594.092	0.0009686
605.666	0.0008144
617.24	0.0008134
628.814	0.001444
640.388	0.001544
651.962	0.0007854
663.536	0.0008342
675.11	0.0007652
686.684	0.0003912
698.258	0.0005946
709.832	0.000688
721.406	0.001534
732.98	0.001674
744.554	0.001254
756.128	0.001524
767.702	0.002414
779.276	0.004224
790.85	0.011044
802.423	0.055144
813.997	0.078784
825.571	0.109114
837.145	0.064864
848.719	0.027784
860.293	0.010144
871.867	0.004114
883.441	0.003384
895.015	0.003824
906.589	0.004814
918.163	0.001614
929.737	0.001374
941.311	0.001494
952.885	0.001434
964.459	0.0008644
976.033	0.0009256
987.607	0.000896
999.181	0.003594
1010.76	0.012904
1022.33	0.004394
1033.9	0.001234
1045.48	0.001274
1057.05	0.003344
1068.63	0.003624
1080.2	0.005324
1091.77	0.010214
1103.35	0.008864
1114.92	0.003864
1126.49	0.002614
1138.07	0.003724
1149.64	0.040004
1161.22	0.065194
1172.79	0.007134
1184.36	0.005454
1195.94	0.006174
1207.51	0.020384
1219.09	0.057174
1230.66	0.249594
1242.23	0.191554
1253.81	0.027374
1265.38	0.009234
1276.96	0.006994
1288.53	0.006084
1300.1	0.008224
1311.68	0.004964
1323.25	0.003154
1334.83	0.003064
1346.4	0.002924
1357.97	0.002834
1369.55	0.001844
1381.12	0.001634
1392.7	0.002214
1404.27	0.001874
1415.84	0.001764
1427.42	0.002084
1438.99	0.003664
1450.57	0.011464
1462.14	0.022914
1473.71	0.029324
1485.29	0.057454
1496.86	0.338924
1508.44	0.108714
1520.01	0.016794
1531.58	0.007254
1543.16	0.006214
1554.73	0.006184
1566.31	0.006394
1577.88	0.014294
1589.45	0.042774
1601.03	0.057354
1612.6	0.031774
1624.18	0.015514
1635.75	0.007994
1647.32	0.005974
1658.9	0.005064
1670.47	0.003544
1682.05	0.002434
1693.62	0.001584
1705.19	0.0010879
1716.77	0.0009138
1728.34	0.0011268
1739.92	0.001794
1751.49	0.005044
1763.06	0.003864
1774.64	0.001274
1786.21	0.0008765
1797.79	0.000836
1809.36	0.0009287
1820.93	0.0009965
1832.51	0.0007389
1844.08	0.0008978
1855.66	0.001584
1867.23	0.003724
1878.8	0.007244
1890.38	0.006964
1901.95	0.002984
1913.53	0.000961
1925.1	0.0006089
1936.67	0.000596
1948.25	0.0006021
1959.82	0.0009205
1971.4	0.0011444
1982.97	0.0008615
1994.54	0.0010122
2006.12	0.0007181
2017.69	0.0007362
2029.27	0.001244
2040.84	0.002464
2052.41	0.002484
2063.99	0.001724
2075.56	0.001624
2087.14	0.0009431
2098.71	0.0005233
2110.28	0.0005345
2121.86	0.0005764
2133.43	0.0004098
2145.01	0.0003023
2156.58	0.0003347
2168.15	0.000331
2179.73	0.00026719
2191.3	0.00021911
2202.88	0.00025975
2214.45	0.0003324
2226.02	0.0003882
2237.6	0.0006531
2249.17	0.000992
2260.74	0.0010359
2272.32	0.0007065
2283.89	0.0004955
2295.47	0.000487
2307.04	0.0007154
2318.61	0.0010653
2330.19	0.0011043
2341.76	0.0009076
2353.34	0.0005715
2364.91	0.0004422
2376.48	0.0006016
2388.06	0.001234
2399.63	0.001964
2411.21	0.001324
2422.78	0.0011438
2434.35	0.001184
2445.93	0.001284
2457.5	0.001694
2469.08	0.002134
2480.65	0.001464
2492.22	0.0006386
2503.8	0.0005999
2515.37	0.0007919
2526.95	0.0010349
2538.52	0.0010151
2550.09	0.0008469
2561.67	0.0008384
2573.24	0.0010204
2584.82	0.000777
2596.39	0.0005071
2607.96	0.0004004
2619.54	0.000318
2631.11	0.00019828
2642.69	0.00025246
2654.26	0.0002597
2665.83	0.0003174
2677.41	0.0003223
2688.98	0.0003899
2700.56	0.0004188
2712.13	0.0003644
2723.7	0.0003641
2735.28	0.0004636
2746.85	0.000447
2758.43	0.0004076
2770	0.00028038
2781.57	0.00025964
2793.15	0.00025684
2804.72	0.00026763
2816.3	0.00026722
2827.87	0.000421
2839.44	0.0007307
2851.02	0.0008282
2862.59	0.000767
2874.17	0.0006527
2885.74	0.0006159
2897.31	0.0004886
2908.89	0.0003865
2920.46	0.0002431
2932.04	0.00026426
2943.61	0.00022477
2955.18	0.0003091
2966.76	0.0005255
2978.33	0.0010251
2989.91	0.001864
3001.48	0.001924
3013.05	0.001834
3024.63	0.002694
3036.2	0.007984
3047.78	0.022024
3059.35	0.012804
3070.92	0.009714
3082.5	0.009674
3094.07	0.005594
3105.65	0.005314
3117.22	0.003904
3128.79	0.002234
3140.37	0.001364
3151.94	0.0008006
3163.52	0.0005413
3175.09	0.0006043
3186.66	0.0004542
3198.24	0.00025267
3209.81	0.00024427
3221.39	0.00017588
3232.96	0.0001218
3244.53	0.0001427
3256.11	0.0001245
3267.68	0.0001236
3279.26	0.0001294
3290.83	0.0001218
3302.4	0.0001028
3313.98	0.0001752
3325.55	0.0001365
3337.13	0.0001501
3348.7	0.00018529
3360.27	0.0001586
3371.85	0.000134
3383.42	0.0001021
3395	0.0001058
3406.57	3.5e-05
3418.14	0.0001653
3429.72	9.05e-05
3441.29	0.0001014
3452.86	0.0001591
3464.44	8.3e-05
3476.01	0.00017661
3487.59	0.0001211
3499.16	0.0001534
3510.73	0.0001259
3522.31	0.0001535
3533.88	0.0001863
3545.46	0.0001577
3557.03	0.00020143
3568.6	0.00021542
3580.18	0.00023351
3591.75	0.00019322
3603.33	0.00020748
3614.9	0.00024027
3626.47	0.00022643
3638.05	0.0001386
3649.62	0.00023627
3661.2	0.00018367
3672.77	0.0002966
3684.34	0.0004528
3695.92	0.0004681
3707.49	0.0004434
3719.07	0.0004883
3730.64	0.0005036
3742.21	0.000328
3753.79	0.00027595
3765.36	0.00021385
3776.94	0.00017984
3788.51	0.00020829
3800.08	8.65e-05
3811.66	0.00027095
3823.23	0.000189435
3834.81	0.00023941
3846.38	0.0002725
3857.95	0.0003468
3869.53	0.0003926
3881.1	0.0004482
3892.68	0.0003774
3904.25	0.0002888
3915.82	0.00025777
3927.4	0.00021361
3938.97	0.0001492
3950.55	0.00019828
3962.12	0.0002386
3973.69	0.000188749
3985.27	0.0002904
3996.84	0.0001646
