Infrared Spectrum: BIPHENYL, 4-BROMO-4'-FLUORO-
Formula: C12 H8 Br F
CAS: 398-21-0
State: SOLUTION (10% CCl4 FOR 3800-1340, 10% CS2 FOR 1340-400 CM^-^1)
Class: COBLENTZ III
Instrument: DOW KBr FOREPRISM-GRATING
Instrument parameters: BLAZED AT 3.5, 12.0, 20.0 MICRON AND CHANGED AT 5.0, 7.5, 14.9 MICRON
Sampling: TRANSMISSION
Path length: 0.010 CM, 0.011 CM
Resolution: 2
Origin: DOW CHEMICAL COMPANY
1/CM	TRANSMITTANCE
390	0.1254
399	0.1441
408	0.3596
417	0.6208
426	0.6969
435	0.7011
444	0.5957
453	0.7758
462	0.7925
471	0.8034
480	0.8097
489	0.7969
498	0.7428
507	0.3488
516	0.5632
525	0.8103
534	0.8043
543	0.4887
552	0.8357
561	0.858
570	0.8636
579	0.8181
588	0.718
597	0.8295
606	0.8628
615	0.8671
624	0.8255
633	0.844
642	0.8462
651	0.838
660	0.859
669	0.8724
678	0.8601
687	0.8671
696	0.8571
705	0.8564
714	0.8486
723	0.62
732	0.2666
741	0.8521
750	0.8578
759	0.8454
768	0.8558
777	0.8513
786	0.8342
795	0.8101
804	0.7254
813	0.127
822	0.2526
831	0.649
840	0.5383
849	0.3004
858	0.6351
867	0.6883
876	0.7271
885	0.7751
894	0.8078
903	0.8135
912	0.8135
921	0.8093
930	0.7862
939	0.7804
948	0.7803
957	0.7855
966	0.7987
975	0.7975
984	0.7856
993	0.745
1002	0.0297
1011	0.6218
1020	0.5512
1029	0.7817
1038	0.7765
1047	0.7461
1056	0.7346
1065	0.7315
1074	0.134
1083	0.5388
1092	0.6359
1101	0.5628
1110	0.6972
1119	0.7092
1128	0.7591
1137	0.7588
1146	0.7375
1155	0.281
1164	0.7082
1173	0.7284
1182	0.6233
1191	0.7282
1200	0.7234
1209	0.6589
1218	0.4862
1227	0.2516
1236	0.0317
1245	0.3138
1254	0.6651
1263	0.7283
1272	0.7468
1281	0.6986
1290	0.7558
1299	0.6817
1308	0.7548
1317	0.769
1326	0.7885
1335	0.7767
1344	0.7841
1353	0.7791
1362	0.7885
1371	0.7891
1380	0.7797
1389	0.5348
1398	0.7856
1407	0.8069
1416	0.7815
1425	0.8092
1434	0.805
1443	0.7747
1452	0.6607
1461	0.6624
1470	0.4952
1479	0.1173
1488	0.0112
1497	0.3893
1506	0.601
1515	0.3149
1524	0.1784
1533	0.5447
1542	0.4775
1551	0.4445
1560	0.4774
1569	0.545
1578	0.576
1587	0.5112
1596	0.4312
1605	0.454
1614	0.5976
1623	0.7583
1632	0.7539
1641	0.7756
1650	0.8068
1659	0.7871
1668	0.8161
1677	0.8315
1686	0.8442
1695	0.8464
1704	0.8465
1713	0.8468
1722	0.8473
1731	0.8468
1740	0.8451
1749	0.8425
1758	0.8356
1767	0.8394
1776	0.8386
1785	0.8592
1794	0.8627
1803	0.8631
1812	0.8641
1821	0.8667
1830	0.8682
1839	0.8685
1848	0.8681
1857	0.8678
1866	0.867
1875	0.8591
1884	0.8115
1893	0.7828
1902	0.8014
1911	0.866
1920	0.8751
1929	0.8767
1938	0.8759
1947	0.8733
1956	0.8738
1965	0.8694
1974	0.867
1983	0.8697
1992	0.8678
2001	0.8701
2010	0.8717
2019	0.8716
2028	0.8707
2037	0.8684
2046	0.8658
2055	0.8643
2064	0.8711
2073	0.8736
2082	0.875
2091	0.8762
2100	0.8768
2109	0.877
2118	0.8771
2127	0.8771
2136	0.8771
2145	0.879
2154	0.8818
2163	0.8798
2172	0.8789
2181	0.8805
2190	0.8825
2199	0.8837
2208	0.8836
2217	0.881
2226	0.8803
2235	0.8782
2244	0.8752
2253	0.8691
2262	0.8697
2271	0.869
2280	0.8627
2289	0.8639
2298	0.8675
2307	0.87
2316	0.8728
2325	0.8825
2334	0.8906
2343	0.8918
2352	0.8908
2361	0.8888
2370	0.8857
2379	0.8812
2388	0.8805
2397	0.8814
2406	0.8828
2415	0.8834
2424	0.8831
2433	0.8825
2442	0.8821
2451	0.8825
2460	0.884
2469	0.8897
2478	0.8933
2487	0.8941
2496	0.894
2505	0.8935
2514	0.8931
2523	0.8925
2532	0.8924
2541	0.8924
2550	0.8924
2559	0.8918
2568	0.8931
2577	0.8973
2586	0.9006
2595	0.9035
2604	0.9047
2613	0.9054
2622	0.9058
2631	0.904
2640	0.9015
2649	0.8996
2658	0.9015
2667	0.9045
2676	0.9073
2685	0.9084
2694	0.9094
2703	0.9104
2712	0.9109
2721	0.911
2730	0.911
2739	0.911
2748	0.9112
2757	0.9113
2766	0.9121
2775	0.9132
2784	0.9148
2793	0.9155
2802	0.9138
2811	0.9121
2820	0.9108
2829	0.9073
2838	0.9042
2847	0.9017
2856	0.9004
2865	0.8999
2874	0.8994
2883	0.8988
2892	0.8982
2901	0.8975
2910	0.898
2919	0.9013
2928	0.907
2937	0.9098
2946	0.9084
2955	0.9017
2964	0.8956
2973	0.8956
2982	0.9048
2991	0.9102
3000	0.906
3009	0.8988
3018	0.8965
3027	0.8545
3036	0.8277
3045	0.7819
3054	0.822
3063	0.8513
3072	0.8544
3081	0.8678
3090	0.872
3099	0.9014
3108	0.9068
3117	0.9112
3126	0.917
3135	0.9218
3144	0.925
3153	0.9277
3162	0.9297
3171	0.931
3180	0.9339
3189	0.9347
3198	0.9352
3207	0.9358
3216	0.9363
3225	0.9366
3234	0.937
3243	0.9375
3252	0.9384
3261	0.9394
3270	0.9406
3279	0.9418
3288	0.9437
3297	0.9452
3306	0.9466
3315	0.9475
3324	0.9481
3333	0.9486
3342	0.9493
3351	0.9502
3360	0.9511
3369	0.9515
3378	0.9514
3387	0.951
3396	0.9507
3405	0.9502
3414	0.9494
3423	0.9485
3432	0.9485
3441	0.9486
3450	0.9488
3459	0.9489
3468	0.9497
3477	0.9505
3486	0.9513
3495	0.9521
3504	0.953
3513	0.9539
3522	0.9548
3531	0.9558
3540	0.9567
3549	0.9573
3558	0.9571
3567	0.9568
3576	0.9566
3585	0.9571
3594	0.9586
3603	0.961
3612	0.9628
3621	0.958
3630	0.9565
3639	0.9605
3648	0.9645
3657	0.9653
3666	0.9657
3675	0.966
3684	0.9662
3693	0.9666
3702	0.9671
3711	0.9686
3720	0.9718
3729	0.978
3738	0.9777
3747	0.9771
3756	0.9775
3765	0.9784
3774	0.979
3783	0.9797
3792	0.9806
