Infrared Spectrum: 5-Phenyl-o-anisidine
Formula: C 13 H 13 N O
CAS: 39811-17-1
State: gas
Origin: EPA-IR VAPOR PHASE LIBRARY
1/CM	ABSORBANCE
549.8	0.01307
559.445	0.01425
569.09	0.01699
578.734	0.01828
588.379	0.02123
598.024	0.02791
607.669	0.01944
617.313	0.01557
626.958	0.01545
636.603	0.01669
646.248	0.01744
655.893	0.01894
665.537	0.02127
675.182	0.02327
684.827	0.03158
694.472	0.04716
704.116	0.04041
713.761	0.02531
723.406	0.02128
733.051	0.025
742.695	0.03744
752.34	0.05948
761.985	0.05663
771.63	0.03137
781.275	0.01882
790.919	0.01851
800.564	0.0228
810.209	0.02038
819.854	0.01369
829.498	0.01036
839.143	0.00996
848.788	0.01395
858.433	0.02056
868.078	0.01816
877.722	0.01162
887.367	0.01005
897.012	0.01112
906.657	0.00956
916.301	0.00702
925.946	0.00553
935.591	0.00536
945.236	0.00562
954.88	0.00599
964.525	0.00651
974.17	0.00738
983.815	0.00889
993.46	0.01126
1003.1	0.01586
1012.75	0.02659
1022.39	0.02992
1032.04	0.02382
1041.68	0.02977
1051.33	0.03571
1060.97	0.02196
1070.62	0.01451
1080.26	0.0119
1089.91	0.01321
1099.55	0.01323
1109.2	0.01151
1118.84	0.01044
1128.49	0.01183
1138.13	0.01961
1147.78	0.03431
1157.42	0.02954
1167.07	0.02991
1176.71	0.05122
1186.36	0.04846
1196	0.05288
1205.64	0.08271
1215.29	0.06203
1224.93	0.05001
1234.58	0.08848
1244.22	0.15218
1253.87	0.10355
1263.51	0.03528
1273.16	0.02448
1282.8	0.02979
1292.45	0.03138
1302.09	0.03313
1311.74	0.04716
1321.38	0.035
1331.03	0.01773
1340.67	0.01034
1350.32	0.00754
1359.96	0.00651
1369.61	0.00593
1379.25	0.00566
1388.9	0.00583
1398.54	0.0078
1408.18	0.013
1417.83	0.02203
1427.47	0.02389
1437.12	0.01878
1446.76	0.02367
1456.41	0.02432
1466.05	0.03403
1475.7	0.05476
1485.34	0.11994
1494.99	0.11726
1504.63	0.05815
1514.28	0.085
1523.92	0.08367
1533.57	0.04101
1543.21	0.02259
1552.86	0.01794
1562.5	0.01859
1572.15	0.02314
1581.79	0.0265
1591.44	0.03553
1601.08	0.05707
1610.73	0.07431
1620.37	0.07032
1630.01	0.04415
1639.66	0.02067
1649.3	0.01158
1658.95	0.00839
1668.59	0.00679
1678.24	0.00551
1687.88	0.00431
1697.53	0.00429
1707.17	0.00484
1716.82	0.00523
1726.46	0.00493
1736.11	0.00426
1745.75	0.00391
1755.4	0.00333
1765.04	0.00307
1774.69	0.00319
1784.33	0.00371
1793.98	0.00483
1803.62	0.00402
1813.27	0.00382
1822.91	0.00367
1832.55	0.00327
1842.2	0.00297
1851.84	0.00294
1861.49	0.00309
1871.13	0.00342
1880.78	0.00381
1890.42	0.00329
1900.07	0.00267
1909.71	0.00263
1919.36	0.00282
1929	0.00354
1938.65	0.00428
1948.29	0.00464
1957.94	0.00367
1967.58	0.00244
1977.23	0.00237
1986.87	0.00271
1996.52	0.00305
2006.16	0.00312
2015.81	0.0028
2025.45	0.00244
2035.1	0.00245
2044.74	0.00247
2054.38	0.00256
2064.03	0.00261
2073.67	0.00254
2083.32	0.00229
2092.96	0.00198
2102.61	0.00194
2112.25	0.00171
2121.9	0.00145
2131.54	0.00136
2141.19	0.00128
2150.83	0.00121
2160.48	0.00117
2170.12	0.00112
2179.77	0.00121
2189.41	0.00128
2199.06	0.00124
2208.7	0.00133
2218.35	0.00134
2227.99	0.00139
2237.64	0.00143
2247.28	0.00144
2256.92	0.00155
2266.57	0.00162
2276.21	0.00165
2285.86	0.00146
2295.5	0.00127
2305.15	0.00128
2314.79	0.0014
2324.44	0.00119
2334.08	0.00116
2343.73	0.00109
2353.37	0.00108
2363.02	0.00101
2372.66	0.0009157
2382.31	0.0008118
2391.95	0.0008205
2401.6	0.0008302
2411.24	0.0009049
2420.89	0.00101
2430.53	0.0009577
2440.18	0.000983
2449.82	0.0009364
2459.47	0.00113
2469.11	0.00129
2478.75	0.00153
2488.4	0.0017
2498.04	0.00191
2507.69	0.00202
2517.33	0.00211
2526.98	0.00201
2536.62	0.00186
2546.27	0.00146
2555.91	0.0014
2565.56	0.00136
2575.2	0.00127
2584.85	0.00127
2594.49	0.00147
2604.14	0.00153
2613.78	0.00153
2623.43	0.00139
2633.07	0.00124
2642.72	0.00122
2652.36	0.00107
2662.01	0.0009278
2671.65	0.0008067
2681.29	0.0008646
2690.94	0.0008298
2700.58	0.00105
2710.23	0.00108
2719.87	0.0013
2729.52	0.00151
2739.16	0.00131
2748.81	0.0012
2758.45	0.00134
2768.1	0.00128
2777.74	0.00153
2787.39	0.00184
2797.03	0.00238
2806.68	0.00342
2816.32	0.00475
2825.97	0.007
2835.61	0.01477
2845.26	0.02293
2854.9	0.01269
2864.55	0.00797
2874.19	0.00697
2883.84	0.00715
2893.48	0.00852
2903.12	0.01156
2912.77	0.01616
2922.41	0.01753
2932.06	0.01879
2941.7	0.02797
2951.35	0.03041
2960.99	0.0227
2970.64	0.01563
2980.28	0.01253
2989.93	0.0153
2999.57	0.02641
3009.22	0.02674
3018.86	0.01994
3028.51	0.02917
3038.15	0.03432
3047.8	0.02723
3057.44	0.0294
3067.09	0.04443
3076.73	0.03227
3086.38	0.0228
3096.02	0.01547
3105.67	0.01014
3115.31	0.00655
3124.95	0.00423
3134.6	0.00309
3144.24	0.00235
3153.89	0.0021
3163.53	0.00188
3173.18	0.00165
3182.82	0.00151
3192.47	0.00148
3202.11	0.00144
3211.76	0.00121
3221.4	0.000955
3231.05	0.0006801
3240.69	0.0006441
3250.34	0.0005619
3259.98	0.0004793
3269.63	0.0006172
3279.27	0.000457
3288.92	0.0004061
3298.56	0.0002314
3308.21	0.0002692
3317.85	0.0004128
3327.49	0.0002917
3337.14	0.0006084
3346.78	0.0005555
3356.43	0.0006442
3366.07	0.0009199
3375.72	0.00143
3385.36	0.00282
3395.01	0.00676
3404.65	0.01447
3414.3	0.01327
3423.94	0.00567
3433.59	0.00231
3443.23	0.00162
3452.88	0.00155
3462.52	0.00207
3472.17	0.00332
3481.81	0.00606
3491.46	0.01143
3501.1	0.01413
3510.75	0.00924
3520.39	0.00453
3530.04	0.00215
3539.68	0.0013
3549.32	0.00107
3558.97	0.000822
3568.61	0.0006179
3578.26	0.0006843
3587.9	0.0005305
3597.55	0.0005398
3607.19	0.0006977
3616.84	0.0005412
3626.48	0.0005617
3636.13	0.000716
3645.77	0.0006948
3655.42	0.0008214
3665.06	0.0006667
3674.71	0.0005274
3684.35	0.0006721
3694	0.0004829
3703.64	0.000631
3713.29	0.0006683
3722.93	0.0006645
3732.58	0.0005055
3742.22	0.0006491
3751.86	0.0006596
3761.51	0.0006353
3771.15	0.0008353
3780.8	0.0005564
3790.44	0.0007003
3800.09	0.0005048
3809.73	0.0005643
3819.38	0.0005957
3829.02	0.0006059
3838.67	0.0006651
3848.31	0.0008227
3857.96	0.0008926
3867.6	0.0007275
3877.25	0.0007566
3886.89	0.0008912
3896.54	0.0008025
3906.18	0.0008119
3915.83	0.0008555
3925.47	0.0007383
3935.12	0.0009186
3944.76	0.00102
3954.41	0.00105
3964.05	0.00126
3973.69	0.00121
3983.34	0.00101
3992.98	0.0009223
