Infrared Spectrum: 4-Styrylpyridazine
Formula: C 12 H 10 N 2
CAS: 39816-19-8
State: gas
Origin: EPA-IR VAPOR PHASE LIBRARY
1/CM	ABSORBANCE
549.8	0.00371
559.445	0.00277
569.09	0.0019016
578.734	0.0021276
588.379	0.000984
598.024	0.001164
607.669	0.001176
617.313	0.001406
626.958	0.0019523
636.603	0.00258
646.248	0.00257
655.893	0.00299
665.537	0.00628
675.182	0.01074
684.827	0.01198
694.472	0.01202
704.116	0.00795
713.761	0.00604
723.406	0.00714
733.051	0.01205
742.695	0.01238
752.34	0.00902
761.985	0.0052
771.63	0.00427
781.275	0.00315
790.919	0.00271
800.564	0.00318
810.209	0.00503
819.854	0.00658
829.498	0.00628
839.143	0.00389
848.788	0.00364
858.433	0.00415
868.078	0.00418
877.722	0.00409
887.367	0.00371
897.012	0.0031
906.657	0.00282
916.301	0.002478
925.946	0.00386
935.591	0.00491
945.236	0.00805
954.88	0.01381
964.525	0.01491
974.17	0.01247
983.815	0.01284
993.46	0.00614
1003.1	0.0024693
1012.75	0.002549
1022.39	0.00259
1032.04	0.00465
1041.68	0.0056
1051.33	0.00348
1060.97	0.00403
1070.62	0.00513
1080.26	0.00303
1089.91	0.00338
1099.55	0.0024408
1109.2	0.00299
1118.84	0.00356
1128.49	0.001395
1138.13	0.00278
1147.78	0.0022423
1157.42	0.0023746
1167.07	0.0014601
1176.71	0.0021151
1186.36	0.00331
1196	0.0020567
1205.64	0.0018239
1215.29	0.00294
1224.93	0.0017763
1234.58	0.0021838
1244.22	0.00422
1253.87	0.0025197
1263.51	0.00279
1273.16	0.00307
1282.8	0.00399
1292.45	0.00375
1302.09	0.00342
1311.74	0.00331
1321.38	0.00376
1331.03	0.00386
1340.67	0.00369
1350.32	0.0048
1359.96	0.00648
1369.61	0.0052
1379.25	0.00345
1388.9	0.00289
1398.54	0.0024864
1408.18	0.0021771
1417.83	0.0022488
1427.47	0.00277
1437.12	0.00348
1446.76	0.00452
1456.41	0.00402
1466.05	0.003
1475.7	0.00281
1485.34	0.00456
1494.99	0.00651
1504.63	0.00308
1514.28	0.00287
1523.92	0.00277
1533.57	0.00326
1543.21	0.00365
1552.86	0.00522
1562.5	0.01231
1572.15	0.0306
1581.79	0.02354
1591.44	0.00917
1601.08	0.00653
1610.73	0.00466
1620.37	0.00512
1630.01	0.00811
1639.66	0.00888
1649.3	0.00437
1658.95	0.00338
1668.59	0.00316
1678.24	0.00257
1687.88	0.0029
1697.53	0.0025381
1707.17	0.0023495
1716.82	0.0025473
1726.46	0.00258
1736.11	0.00268
1745.75	0.00274
1755.4	0.0023506
1765.04	0.00303
1774.69	0.00301
1784.33	0.00321
1793.98	0.00336
1803.62	0.00273
1813.27	0.00316
1822.91	0.00322
1832.55	0.00263
1842.2	0.0025543
1851.84	0.002531
1861.49	0.0023215
1871.13	0.0029
1880.78	0.00258
1890.42	0.00271
1900.07	0.0023545
1909.71	0.0023202
1919.36	0.00282
1929	0.00295
1938.65	0.00335
1948.29	0.0031
1957.94	0.00309
1967.58	0.0024018
1977.23	0.0019437
1986.87	0.0022183
1996.52	0.0017484
2006.16	0.0017446
2015.81	0.0017836
2025.45	0.0020329
2035.1	0.0020665
2044.74	0.0018157
2054.38	0.00163711
2064.03	0.001798
2073.67	0.0018375
2083.32	0.0020758
2092.96	0.001785
2102.61	0.0019723
2112.25	0.0020576
2121.9	0.0019958
2131.54	0.0023213
2141.19	0.0019721
2150.83	0.0021411
2160.48	0.00176
2170.12	0.0019195
2179.77	0.0018878
2189.41	0.0020867
2199.06	0.0018831
2208.7	0.0018033
2218.35	0.0016818
2227.99	0.0018062
2237.64	0.0020286
2247.28	0.0021326
2256.92	0.001811
2266.57	0.0023767
2276.21	0.0016658
2285.86	0.0018844
2295.5	0.00157269
2305.15	0.001918
2314.79	0.0019467
2324.44	0.001411
2334.08	0.0016862
2343.73	0.0019359
2353.37	0.0019043
2363.02	0.0020071
2372.66	0.0018241
2382.31	0.001725
2391.95	0.0014929
2401.6	0.0018267
2411.24	0.00164797
2420.89	0.001274
2430.53	0.0018635
2440.18	0.0015107
2449.82	0.0019464
2459.47	0.00158375
2469.11	0.0018322
2478.75	0.0017399
2488.4	0.0016852
2498.04	0.001278
2507.69	0.00161023
2517.33	0.001428
2526.98	0.0020127
2536.62	0.0015225
2546.27	0.0014868
2555.91	0.0015354
2565.56	0.0016958
2575.2	0.0018652
2584.85	0.001857
2594.49	0.0019101
2604.14	0.00141
2613.78	0.0015761
2623.43	0.00159174
2633.07	0.00163263
2642.72	0.0015462
2652.36	0.001244
2662.01	0.0018585
2671.65	0.0018977
2681.29	0.001453
2690.94	0.0017229
2700.58	0.00157145
2710.23	0.0016669
2719.87	0.00159514
2729.52	0.00158443
2739.16	0.001408
2748.81	0.0019963
2758.45	0.001293
2768.1	0.001353
2777.74	0.0015905
2787.39	0.001291
2797.03	0.0014755
2806.68	0.001546
2816.32	0.0020053
2825.97	0.0016898
2835.61	0.00157953
2845.26	0.001958
2854.9	0.0018017
2864.55	0.001699
2874.19	0.0022655
2883.84	0.0022564
2893.48	0.0022735
2903.12	0.0023049
2912.77	0.0021697
2922.41	0.00258
2932.06	0.0023694
2941.7	0.0023432
2951.35	0.00295
2960.99	0.0027
2970.64	0.00257
2980.28	0.00279
2989.93	0.00305
2999.57	0.00388
3009.22	0.00431
3018.86	0.00667
3028.51	0.01314
3038.15	0.01776
3047.8	0.01347
3057.44	0.01246
3067.09	0.01814
3076.73	0.01674
3086.38	0.01111
3096.02	0.00803
3105.67	0.00542
3115.31	0.00394
3124.95	0.00269
3134.6	0.0020065
3144.24	0.0021978
3153.89	0.00272
3163.53	0.001414
3173.18	0.0017752
3182.82	0.0021433
3192.47	0.000922
3202.11	0.001019
3211.76	0.001203
3221.4	0.0018818
3231.05	0.001338
3240.69	0.0017762
3250.34	0.001176
3259.98	0.000941
3269.63	0.0018733
3279.27	0.0015196
3288.92	0.0017369
3298.56	0.00156389
3308.21	0.0018006
3317.85	0.0023857
3327.49	0.0017737
3337.14	0.001166
3346.78	0.001288
3356.43	0.0019912
3366.07	0.0018795
3375.72	0.000718
3385.36	0.0017398
3395.01	0.0020478
3404.65	0.0017387
3414.3	0.00156278
3423.94	0.00141
3433.59	0.0023297
3443.23	0.0014746
3452.88	0.001118
3462.52	0.001829
3472.17	0.00158232
3481.81	0.00095
3491.46	0.0017978
3501.1	0.000823
3510.75	0.00165328
3520.39	0.001373
3530.04	0.001174
3539.68	0.0017944
3549.32	0.001209
3558.97	0.0019706
3568.61	0.001433
3578.26	0.001408
3587.9	0.0015164
3597.55	0.001045
3607.19	0.001766
3616.84	0.0020153
3626.48	0.0017632
3636.13	0.0021524
3645.77	0.0015245
3655.42	0.0017848
3665.06	0.00158308
3674.71	0.00164417
3684.35	0.001335
3694	0.00157337
3703.64	0.00155904
3713.29	0.0020159
3722.93	0.0019912
3732.58	0.0014903
3742.22	0.0018976
3751.86	0.001777
3761.51	0.0015042
3771.15	0.001226
3780.8	0.000748
3790.44	0.0017442
3800.09	0.001321
3809.73	0.0015111
3819.38	0.0020571
3829.02	0.0020625
3838.67	0.000955
3848.31	0.0017502
3857.96	0.00049
3867.6	0.000845
3877.25	0.00156549
3886.89	0.00159551
3896.54	0.001383
3906.18	0.0015193
3915.83	0.0017184
3925.47	0.001801
3935.12	0.0022933
3944.76	0.0019617
3954.41	0.00055
3964.05	0.0017528
3973.69	0.0021926
3983.34	0.00165064
3992.98	0.0020466
