Infrared Spectrum: 9H-PURINE, 6-CHLORO-9-(2',3'-O-ISOPROPYLIDENE-Beta-D-RIBOFURANOSYL)-
Formula: C13 H15 Cl N4 O4
CAS: 39824-26-5
State: SOLID (1 mg / 650 KBr DISC)
Class: COBLENTZ III
Instrument: PERKIN-ELMER 21 (GRATING)
Instrument parameters: FILTER CHANGE AT ABOUT 1020 CM^-^1.
Sampling: TRANSMISSION
Resolution: 2
Origin: SOUTHERN RESEARCH INSTITUTE
1/CM	TRANSMITTANCE
604.908	0.607
613.425	0.612
621.942	0.61
630.459	0.6201
638.976	0.6542
647.494	0.6012
656.011	0.6479
664.528	0.6893
673.045	0.7342
681.562	0.745
690.079	0.754
698.596	0.762
707.113	0.76
715.63	0.747
724.147	0.6767
732.665	0.4686
741.182	0.7248
749.699	0.69
758.216	0.559
766.733	0.6739
775.25	0.6553
783.767	0.4323
792.284	0.6042
800.801	0.767
809.318	0.7522
817.836	0.7162
826.353	0.6503
834.87	0.5095
843.387	0.2722
851.904	0.3815
860.421	0.6198
868.938	0.582
877.455	0.483
885.972	0.7229
894.489	0.721
903.007	0.6209
911.524	0.6265
920.041	0.7066
928.558	0.7026
937.075	0.6371
945.592	0.5361
954.109	0.4035
962.626	0.3449
971.143	0.7054
979.661	0.7382
988.178	0.6677
996.695	0.706
1005.21	0.6773
1013.73	0.6209
1022.25	0.5303
1030.76	0.5813
1039.28	0.597
1047.8	0.5595
1056.31	0.4983
1064.83	0.3628
1073.35	0.1659
1081.87	0.1323
1090.38	0.1478
1098.9	0.2028
1107.42	0.0849
1115.93	0.2324
1124.45	0.5094
1132.97	0.4486
1141.49	0.237
1150	0.2977
1158.52	0.4142
1167.04	0.6089
1175.55	0.6337
1184.07	0.5547
1192.59	0.3981
1201.11	0.1101
1209.62	0.2508
1218.14	0.1803
1226.66	0.2848
1235.17	0.5137
1243.69	0.534
1252.21	0.5078
1260.72	0.376
1269.24	0.4444
1277.76	0.4873
1286.28	0.5676
1294.79	0.681
1303.31	0.6759
1311.83	0.6449
1320.34	0.5963
1328.86	0.4665
1337.38	0.2661
1345.9	0.4538
1354.41	0.5971
1362.93	0.712
1371.45	0.6114
1379.96	0.468
1388.48	0.3318
1397	0.3761
1405.52	0.2835
1414.03	0.6036
1422.55	0.4626
1431.07	0.5134
1439.58	0.465
1448.1	0.5365
1456.62	0.59
1465.14	0.7038
1473.65	0.744
1482.17	0.6786
1490.69	0.5115
1499.2	0.5889
1507.72	0.741
1516.24	0.775
1524.76	0.775
1533.27	0.7547
1541.79	0.6353
1550.31	0.598
1558.82	0.2702
1567.34	0.1804
1575.86	0.3032
1584.37	0.3708
1592.89	0.1989
1601.41	0.2701
1609.93	0.6778
1618.44	0.712
1626.96	0.7198
1635.48	0.7588
1643.99	0.7849
1652.51	0.8146
1661.03	0.8325
1669.55	0.852
1678.06	0.859
1686.58	0.855
1695.1	0.8595
1703.61	0.862
1712.13	0.862
1720.65	0.8636
1729.17	0.868
1737.68	0.869
1746.2	0.869
1754.72	0.869
1763.23	0.869
1771.75	0.869
1780.27	0.8681
1788.79	0.8603
1797.3	0.8532
1805.82	0.8443
1814.34	0.838
1822.85	0.8559
1831.37	0.867
1839.89	0.867
1848.4	0.868
1856.92	0.868
1865.44	0.8643
1873.96	0.8545
1882.47	0.8482
1890.99	0.8626
1899.51	0.871
1908.02	0.871
1916.54	0.871
1925.06	0.871
1933.58	0.869
1942.09	0.8662
1950.61	0.866
1959.13	0.866
1967.64	0.866
1976.16	0.866
1984.68	0.865
1993.2	0.8655
2001.71	0.867
2010.23	0.8622
2018.75	0.859
2027.26	0.861
2035.78	0.861
2044.3	0.856
2052.82	0.851
2061.33	0.853
2069.85	0.853
2078.37	0.856
2086.88	0.862
2095.4	0.861
2103.92	0.859
2112.44	0.856
2120.95	0.86
2129.47	0.86
2137.99	0.8566
2146.5	0.851
2155.02	0.8594
2163.54	0.861
2172.05	0.86
2180.57	0.855
2189.09	0.851
2197.61	0.8518
2206.12	0.853
2214.64	0.853
2223.16	0.851
2231.67	0.853
2240.19	0.854
2248.71	0.8554
2257.23	0.856
2265.74	0.856
2274.26	0.854
2282.78	0.8522
2291.29	0.8496
2299.81	0.85
2308.33	0.853
2316.85	0.854
2325.36	0.854
2333.88	0.853
2342.4	0.851
2350.91	0.851
2359.43	0.851
2367.95	0.8506
2376.47	0.849
2384.98	0.8446
2393.5	0.8392
2402.02	0.8374
2410.53	0.844
2419.05	0.848
2427.57	0.849
2436.09	0.849
2444.6	0.849
2453.12	0.848
2461.64	0.8456
2470.15	0.8426
2478.67	0.8376
2487.19	0.8326
2495.7	0.827
2504.22	0.826
2512.74	0.8232
2521.26	0.818
2529.77	0.813
2538.29	0.809
2546.81	0.8088
2555.32	0.8134
2563.84	0.818
2572.36	0.8142
2580.88	0.81
2589.39	0.8188
2597.91	0.8228
2606.43	0.819
2614.94	0.82
2623.46	0.825
2631.98	0.824
2640.5	0.8164
2649.01	0.809
2657.53	0.808
2666.05	0.7988
2674.56	0.793
2683.08	0.7916
2691.6	0.7896
2700.12	0.7866
2708.63	0.7854
2717.15	0.787
2725.67	0.7904
2734.18	0.793
2742.7	0.791
2751.22	0.7866
2759.73	0.7768
2768.25	0.774
2776.77	0.773
2785.29	0.766
2793.8	0.7612
2802.32	0.7522
2810.84	0.7286
2819.35	0.6966
2827.87	0.695
2836.39	0.696
2844.91	0.6956
2853.42	0.6906
2861.94	0.684
2870.46	0.6682
2878.97	0.6456
2887.49	0.6332
2896.01	0.622
2904.53	0.626
2913.04	0.625
2921.56	0.6152
2930.08	0.613
2938.59	0.6184
2947.11	0.6254
2955.63	0.627
2964.15	0.6216
2972.66	0.6132
2981.18	0.607
2989.7	0.6134
2998.21	0.6674
3006.73	0.7204
3015.25	0.739
3023.77	0.7434
3032.28	0.7426
3040.8	0.738
3049.32	0.7264
3057.83	0.7022
3066.35	0.6794
3074.87	0.6556
3083.38	0.655
3091.9	0.6582
3100.42	0.6552
3108.94	0.6396
3117.45	0.624
3125.97	0.6048
3134.49	0.598
3143	0.6324
3151.52	0.6872
3160.04	0.69
3168.56	0.6644
3177.07	0.6518
3185.59	0.6394
3194.11	0.6306
3202.62	0.6186
3211.14	0.6132
3219.66	0.5866
3228.18	0.5554
3236.69	0.5382
3245.21	0.5108
3253.73	0.495
3262.24	0.4606
3270.76	0.4382
3279.28	0.4022
3287.8	0.3902
3296.31	0.3782
3304.83	0.3546
3313.35	0.3372
3321.86	0.3246
3330.38	0.316
3338.9	0.316
3347.41	0.3204
3355.93	0.3254
3364.45	0.3342
3372.97	0.3394
3381.48	0.3468
3390	0.3554
3398.52	0.361
3407.03	0.3698
3415.55	0.3804
3424.07	0.3894
3432.59	0.3974
3441.1	0.4148
3449.62	0.4309
3458.14	0.4594
3466.65	0.4788
3475.17	0.4864
3483.69	0.496
3492.21	0.5012
3500.72	0.5148
3509.24	0.5288
3517.76	0.548
3526.27	0.5642
3534.79	0.5778
3543.31	0.591
3551.83	0.601
3560.34	0.6148
3568.86	0.6236
3577.38	0.636
3585.89	0.638
3594.41	0.6472
3602.93	0.6734
3611.45	0.6914
3619.96	0.7068
3628.48	0.7198
3637	0.7384
3645.51	0.7534
3654.03	0.756
3662.55	0.76
3671.06	0.761
3679.58	0.761
3688.1	0.759
3696.62	0.76
3705.13	0.759
3713.65	0.7624
3722.17	0.768
3730.68	0.771
3739.2	0.771
3747.72	0.771
3756.24	0.774
3764.75	0.7698
3773.27	0.768
3781.79	0.768
3790.3	0.766
3798.82	0.769
3807.34	0.768
3815.86	0.772
3824.37	0.772
3832.89	0.766
3841.41	0.7616
3849.92	0.76
3858.44	0.76
3866.96	0.759
3875.48	0.757
3883.99	0.755
3892.51	0.749
3901.03	0.7564
3909.54	0.76
3918.06	0.7582
3926.58	0.756
3935.1	0.7556
3943.61	0.7564
3952.13	0.7604
3960.65	0.7596
