Infrared Spectrum: Thianapthene-2-carbonyl chloride
Formula: C 9 H 5 Cl O S
CAS: 39827-11-7
State: gas
Origin: EPA-IR VAPOR PHASE LIBRARY
1/CM	ABSORBANCE
549.8	0.006439
559.445	0.021219
569.09	0.018409
578.734	0.004129
588.379	0.006409
598.024	0.014989
607.669	0.007469
617.313	0.003659
626.958	0.002139
636.603	0.002119
646.248	0.004429
655.893	0.010709
665.537	0.019339
675.182	0.013389
684.827	0.004529
694.472	0.003959
704.116	0.008089
713.761	0.013979
723.406	0.022999
733.051	0.032709
742.695	0.057749
752.34	0.042059
761.985	0.052619
771.63	0.135279
781.275	0.114029
790.919	0.028519
800.564	0.020989
810.209	0.036719
819.854	0.051009
829.498	0.031869
839.143	0.016799
848.788	0.010699
858.433	0.017739
868.078	0.030579
877.722	0.034329
887.367	0.024619
897.012	0.014539
906.657	0.008259
916.301	0.006109
925.946	0.004269
935.591	0.003509
945.236	0.003579
954.88	0.003539
964.525	0.002289
974.17	0.002679
983.815	0.002639
993.46	0.002469
1003.1	0.002149
1012.75	0.002929
1022.39	0.002619
1032.04	0.002569
1041.68	0.002389
1051.33	0.003799
1060.97	0.010119
1070.62	0.014719
1080.26	0.009859
1089.91	0.013919
1099.55	0.017439
1109.2	0.026099
1118.84	0.064289
1128.49	0.125249
1138.13	0.193659
1147.78	0.110969
1157.42	0.020819
1167.07	0.017159
1176.71	0.011049
1186.36	0.011109
1196	0.025159
1205.64	0.029119
1215.29	0.011699
1224.93	0.007669
1234.58	0.006709
1244.22	0.015619
1253.87	0.018969
1263.51	0.005779
1273.16	0.003119
1282.8	0.002699
1292.45	0.002279
1302.09	0.002929
1311.74	0.005659
1321.38	0.010949
1331.03	0.011809
1340.67	0.005189
1350.32	0.002279
1359.96	0.002069
1369.61	0.002079
1379.25	0.002459
1388.9	0.002789
1398.54	0.003069
1408.18	0.006309
1417.83	0.014019
1427.47	0.019709
1437.12	0.010889
1446.76	0.006699
1456.41	0.008789
1466.05	0.007049
1475.7	0.004809
1485.34	0.008429
1494.99	0.027819
1504.63	0.063689
1514.28	0.060349
1523.92	0.026419
1533.57	0.007759
1543.21	0.007089
1552.86	0.009869
1562.5	0.008589
1572.15	0.004359
1581.79	0.005809
1591.44	0.009469
1601.08	0.009309
1610.73	0.003979
1620.37	0.003019
1630.01	0.002719
1639.66	0.003129
1649.3	0.002719
1658.95	0.002589
1668.59	0.003329
1678.24	0.005019
1687.88	0.005269
1697.53	0.005549
1707.17	0.006969
1716.82	0.009329
1726.46	0.012049
1736.11	0.015769
1745.75	0.031209
1755.4	0.117589
1765.04	0.237119
1774.69	0.172169
1784.33	0.058019
1793.98	0.017639
1803.62	0.010679
1813.27	0.010089
1822.91	0.007419
1832.55	0.004629
1842.2	0.003749
1851.84	0.003119
1861.49	0.002889
1871.13	0.003759
1880.78	0.006019
1890.42	0.004939
1900.07	0.004139
1909.71	0.004549
1919.36	0.004029
1929	0.003109
1938.65	0.003909
1948.29	0.003099
1957.94	0.001869
1967.58	0.001709
1977.23	0.001739
1986.87	0.0012134
1996.52	0.001369
2006.16	0.001379
2015.81	0.001389
2025.45	0.0012415
2035.1	0.0008805
2044.74	0.0008093
2054.38	0.0007501
2064.03	0.0008416
2073.67	0.00087
2083.32	0.0006419
2092.96	0.0007345
2102.61	0.0006234
2112.25	0.0005935
2121.9	0.0008027
2131.54	0.0006903
2141.19	0.0006614
2150.83	0.0009011
2160.48	0.0008836
2170.12	0.0009347
2179.77	0.000725
2189.41	0.0008544
2199.06	0.0008985
2208.7	0.0009013
2218.35	0.0010539
2227.99	0.0010362
2237.64	0.0011989
2247.28	0.001479
2256.92	0.001519
2266.57	0.001659
2276.21	0.001489
2285.86	0.0010132
2295.5	0.0006839
2305.15	0.0007337
2314.79	0.0007821
2324.44	0.0009043
2334.08	0.0010305
2343.73	0.0008876
2353.37	0.0008756
2363.02	0.0005025
2372.66	0.0007734
2382.31	0.0007761
2391.95	0.0006064
2401.6	0.0006891
2411.24	0.0005914
2420.89	0.0007084
2430.53	0.0005414
2440.18	0.0006925
2449.82	0.0007009
2459.47	0.0008787
2469.11	0.0005604
2478.75	0.0006041
2488.4	0.0008914
2498.04	0.0005849
2507.69	0.0006611
2517.33	0.0006613
2526.98	0.0007445
2536.62	0.0009247
2546.27	0.0012612
2555.91	0.0011674
2565.56	0.0009451
2575.2	0.0008157
2584.85	0.0009098
2594.49	0.0007629
2604.14	0.0006765
2613.78	0.0008958
2623.43	0.0011632
2633.07	0.001258
2642.72	0.001359
2652.36	0.001379
2662.01	0.0012058
2671.65	0.0010867
2681.29	0.0008613
2690.94	0.0008167
2700.58	0.0012852
2710.23	0.001369
2719.87	0.0009956
2729.52	0.0008583
2739.16	0.0006811
2748.81	0.0005504
2758.45	0.0006654
2768.1	0.000578
2777.74	0.0004922
2787.39	0.0005438
2797.03	0.0004449
2806.68	0.0002944
2816.32	0.000579
2825.97	0.0007551
2835.61	0.0009943
2845.26	0.0007606
2854.9	0.0006184
2864.55	0.0007064
2874.19	0.0006038
2883.84	0.0009023
2893.48	0.0011917
2903.12	0.001379
2912.77	0.000968
2922.41	0.0008436
2932.06	0.0006927
2941.7	0.0004602
2951.35	0.0007787
2960.99	0.0008603
2970.64	0.0006912
2980.28	0.0006019
2989.93	0.0007529
2999.57	0.0013079
3009.22	0.001819
3018.86	0.002409
3028.51	0.002689
3038.15	0.003179
3047.8	0.003779
3057.44	0.007569
3067.09	0.015029
3076.73	0.018129
3086.38	0.010949
3096.02	0.004649
3105.67	0.003199
3115.31	0.002169
3124.95	0.001499
3134.6	0.0012142
3144.24	0.0005187
3153.89	0.0007905
3163.53	0.000562
3173.18	0.000185
3182.82	0.0006691
3192.47	0.0008855
3202.11	0.0004494
3211.76	0.00033909
3221.4	0.00041109
3231.05	0.0004333
3240.69	0.0005654
3250.34	0.0006442
3259.98	0.000574
3269.63	0.0010538
3279.27	0.0011058
3288.92	0.0006637
3298.56	0.0008168
3308.21	0.0008141
3317.85	0.00036628
3327.49	0.00040191
3337.14	0.0002435
3346.78	0.0004712
3356.43	0.0007656
3366.07	3.9e-05
3375.72	0.0005123
3385.36	0.0005808
3395.01	0.00031162
3404.65	0.0007858
3414.3	0.0006207
3423.94	0.0004248
3433.59	0.0006791
3443.23	0.0007116
3452.88	0.0008082
3462.52	0.0005847
3472.17	0.00036729
3481.81	0.0006717
3491.46	0.001349
3501.1	0.002189
3510.75	0.002859
3520.39	0.002459
3530.04	0.001389
3539.68	0.0009223
3549.32	0.000839
3558.97	0.0005714
3568.61	0.0008629
3578.26	0.0007514
3587.9	0.0007651
3597.55	0.00037521
3607.19	0.0006326
3616.84	0.0004319
3626.48	0.0006309
3636.13	0.0006599
3645.77	0.0006254
3655.42	0.0001
3665.06	0.0006233
3674.71	0.0004377
3684.35	0.000603
3694	0.0006517
3703.64	0.0003027
3713.29	0.000327674
3722.93	2.8e-05
3732.58	0.0005074
3742.22	0.0006294
3751.86	0.0005169
3761.51	0.0010504
3771.15	0.0005412
3780.8	0.0003456
3790.44	0.0004976
3800.09	0.000157
3809.73	0.0002974
3819.38	0.0005992
3829.02	0.0004752
3838.67	0.0002358
3848.31	0.0006435
3857.96	0.000326259
3867.6	0.0002988
3877.25	0.00092
3886.89	0.0006527
3896.54	0.0004408
3906.18	0.00030931
3915.83	0.00033962
3925.47	0.0002861
3935.12	0.0007005
3944.76	0.0005574
3954.41	0.0007101
3964.05	0.0004741
3973.69	0.0004736
3983.34	0.0010199
3992.98	0.0005999
