Infrared Spectrum: THIOPHOSPHORYL CHLORIDE
Formula: Cl3 S P
CAS: 3982-91-0
State: SOLUTION (10% CCl4 FOR 3800-1330, 10% CS2 FOR 1330-450 CM^-^1)
Class: COBLENTZ III
Instrument: Not specified, most likely a prism, grating, or hybrid spectrometer.
Sampling: TRANSMISSION
Path length: 0.011 CM, 0.011 CM
Resolution: 4
Origin: DOW CHEMICAL COMPANY
1/CM	TRANSMITTANCE
454.407	0.932
463.526	0.944
472.644	0.968
481.763	0.971
490.881	0.964
500	0.959
509.118	0.939
518.237	0.891
527.355	0.6161
536.474	0
545.593	0
554.711	0.2816
563.83	0.7849
572.948	0.912
582.067	0.891
591.185	0.985
600.304	1.019
609.423	1.033
618.541	1.042
627.66	1.035
636.778	1.017
645.897	1.003
655.015	0.971
664.134	0.992
673.252	0.943
682.371	0.98
691.49	0.992
700.608	0.9211
709.727	0.817
718.845	0.868
727.964	0.84
737.082	0.6034
746.201	0
755.319	0.001
764.438	0.4399
773.557	0.811
782.675	0.898
791.794	0.952
800.912	0.998
810.031	1.015
819.149	1.017
828.268	1.017
837.387	0.985
846.505	0.879
855.624	0.843
864.742	0.866
873.861	0.916
882.979	0.962
892.098	1.007
901.216	1.023
910.335	1.026
919.454	1.021
928.572	1.019
937.691	1.024
946.809	1.021
955.928	0.998
965.046	0.976
974.165	0.996
983.283	1.021
992.402	1.021
1001.52	1.021
1010.64	1.017
1019.76	1.014
1028.88	1.008
1037.99	1.007
1047.11	1.003
1056.23	0.996
1065.35	0.984
1074.47	0.975
1083.59	0.989
1092.71	1.01
1101.82	1.026
1110.94	1.049
1120.06	1.069
1129.18	1.056
1138.3	1.042
1147.42	1.049
1156.54	1.044
1165.65	1.04
1174.77	1.019
1183.89	1
1193.01	1.04
1202.13	1.044
1211.25	1.042
1220.37	1.046
1229.48	1.046
1238.6	1.037
1247.72	1.03
1256.84	1.026
1265.96	1.024
1275.08	1.028
1284.2	1.024
1293.31	1.021
1302.43	1.019
1311.55	1.023
1320.67	1.021
1329.79	1.017
1338.91	1.015
1348.03	1.019
1357.14	1.017
1366.26	1.023
1375.38	1.017
1384.5	1.019
1393.62	1.005
1402.74	1.001
1411.86	0.994
1420.97	1.003
1430.09	1.007
1439.21	1.007
1448.33	1.003
1457.45	1.001
1466.57	0.994
1475.69	0.987
1484.8	0.957
1493.92	0.916
1503.04	0.852
1512.16	0.79
1521.28	0.737
1530.4	0.692
1539.52	0.561
1548.63	0.515
1557.75	0.598
1566.87	0.664
1575.99	0.714
1585.11	0.735
1594.23	0.806
1603.35	0.914
1612.46	0.957
1621.58	0.985
1630.7	1.001
1639.82	1.015
1648.94	1.021
1658.06	1.014
1667.18	1.01
1676.29	1.01
1685.41	1.01
1694.53	1.014
1703.65	1.014
1712.77	1.012
1721.89	1.012
1731.01	1.008
1740.12	1.008
1749.24	1.012
1758.36	1.01
1767.48	1.012
1776.6	1.012
1785.72	1.012
1794.84	1.008
1803.95	1.007
1813.07	1.003
1822.19	1.001
1831.31	1.003
1840.43	1.001
1849.55	1
1858.67	1
1867.78	1.001
1876.9	1.005
1886.02	1.005
1895.14	1.005
1904.26	1.005
1913.38	1.005
1922.5	1.007
1931.61	1.007
1940.73	1.007
1949.85	1.007
1958.97	1.007
1968.09	1.003
1977.21	1
1986.33	0.998
1995.44	0.994
2004.56	0.98
2013.68	0.98
2022.8	0.982
2031.92	0.985
2041.04	0.987
2050.15	0.987
2059.27	0.987
2068.39	0.987
2077.51	0.987
2086.63	0.991
2095.75	0.991
2104.87	0.991
2113.98	0.991
2123.1	0.991
2132.22	0.991
2141.34	0.991
2150.46	0.991
2159.58	0.991
2168.7	0.989
2177.81	0.987
2186.93	0.991
2196.05	0.989
2205.17	0.987
2214.29	0.987
2223.41	0.987
2232.53	0.985
2241.64	0.985
2250.76	0.982
2259.88	0.975
2269	0.973
2278.12	0.969
2287.24	0.964
2296.36	0.964
2305.47	0.966
2314.59	0.968
2323.71	0.971
2332.83	0.975
2341.95	0.9781
2351.07	0.9821
2360.19	0.985
2369.3	0.991
2378.42	0.987
2387.54	0.984
2396.66	0.985
2405.78	0.985
2414.9	0.985
2424.02	0.9851
2433.13	0.987
2442.25	0.985
2451.37	0.985
2460.49	0.985
2469.61	0.985
2478.73	0.985
2487.85	0.985
2496.96	0.984
2506.08	0.984
2515.2	0.984
2524.32	0.985
2533.44	0.9869
2542.56	0.984
2551.68	0.984
2560.79	0.984
2569.91	0.984
2579.03	0.984
2588.15	0.984
2597.27	0.984
2606.39	0.984
2615.51	0.984
2624.62	0.984
2633.74	0.984
2642.86	0.984
2651.98	0.984
2661.1	0.984
2670.22	0.982
2679.34	0.9821
2688.45	0.984
2697.57	0.9841
2706.69	0.984
2715.81	0.982
2724.93	0.982
2734.05	0.982
2743.17	0.982
2752.28	0.982
2761.4	0.982
2770.52	0.982
2779.64	0.98
2788.76	0.98
2797.88	0.978
2807	0.978
2816.11	0.976
2825.23	0.9779
2834.35	0.9779
2843.47	0.975
2852.59	0.975
2861.71	0.975
2870.83	0.976
2879.94	0.975
2889.06	0.975
2898.18	0.9731
2907.3	0.9689
2916.42	0.966
2925.54	0.968
2934.66	0.973
2943.77	0.973
2952.89	0.971
2962.01	0.971
2971.13	0.971
2980.25	0.969
2989.37	0.969
2998.49	0.9689
3007.6	0.9658
3016.72	0.964
3025.84	0.9658
3034.96	0.966
3044.08	0.962
3053.2	0.962
3062.32	0.96
3071.43	0.9599
3080.55	0.959
3089.67	0.957
3098.79	0.957
3107.91	0.955
3117.03	0.955
3126.14	0.953
3135.26	0.953
3144.38	0.953
3153.5	0.952
3162.62	0.9518
3171.74	0.95
3180.86	0.948
3189.97	0.948
3199.09	0.95
3208.21	0.948
3217.33	0.9478
3226.45	0.946
3235.57	0.946
3244.69	0.946
3253.8	0.948
3262.92	0.948
3272.04	0.948
3281.16	0.948
3290.28	0.948
3299.4	0.9502
3308.52	0.952
3317.63	0.95
3326.75	0.95
3335.87	0.95
3344.99	0.952
3354.11	0.95
3363.23	0.946
3372.35	0.946
3381.46	0.946
3390.58	0.946
3399.7	0.9478
3408.82	0.946
3417.94	0.946
3427.06	0.944
3436.18	0.944
3445.29	0.944
3454.41	0.946
3463.53	0.948
3472.65	0.948
3481.77	0.9483
3490.89	0.948
3500.01	0.952
3509.12	0.952
3518.24	0.953
3527.36	0.9533
3536.48	0.955
3545.6	0.9552
3554.72	0.957
3563.84	0.9591
3572.95	0.964
3582.07	0.9547
3591.19	0.968
3600.31	0.9693
3609.43	0.9733
3618.55	0.973
3627.67	0.976
3636.78	0.978
3645.9	0.98
3655.02	0.98
3664.14	0.982
3673.26	0.982
3682.38	0.982
3691.5	0.982
3700.61	0.982
3709.73	0.982
3718.85	0.982
3727.97	0.984
3737.09	0.984
3746.21	0.984
3755.33	0.984
3764.44	0.9837
3773.56	0.982
3782.68	0.98
