Infrared Spectrum: Cysteine, S-(diphenylmethyl)-L-,
Formula: C16 H17 N O2 S
CAS: 39825-30-4
State: SOLID (SPLIT MULL), FLUOROLUBE FOR 3800-1330 CM^-^1, NUJOL FOR 1330-460 CM^-^1
Melting point: 205 C
Class: COBLENTZ III
Instrument: DOW KBr FOREPRISM-GRATING
Instrument parameters: BLAZED AT 3.5, 12.0, 20.0 MICRON AND CHANGED AT 5.0, 7.5, 14.9 MICRON
Sampling: TRANSMISSION
Resolution: 2
Origin: DOW CHEMICAL COMPANY
1/CM	TRANSMITTANCE
459	0.7936
468	0.7845
477	0.774
486	0.7693
495	0.7708
504	0.7644
513	0.6771
522	0.6488
531	0.5819
540	0.5578
549	0.6492
558	0.754
567	0.7957
576	0.8134
585	0.7971
594	0.7871
603	0.6761
612	0.7943
621	0.8316
630	0.538
639	0.8845
648	0.8877
657	0.8827
666	0.8686
675	0.884
684	0.8575
693	0.5965
702	0.3757
711	0.7521
720	0.7769
729	0.7708
738	0.4859
747	0.611
756	0.8131
765	0.8306
774	0.8749
783	0.8594
792	0.8325
801	0.8985
810	0.8999
819	0.8736
828	0.8285
837	0.6842
846	0.8288
855	0.8428
864	0.631
873	0.8841
882	0.8141
891	0.8859
900	0.896
909	0.8884
918	0.8744
927	0.8651
936	0.8887
945	0.8888
954	0.8825
963	0.8699
972	0.8506
981	0.8704
990	0.8798
999	0.8737
1008	0.8781
1017	0.8666
1026	0.8065
1035	0.8
1044	0.7099
1053	0.7911
1062	0.8391
1071	0.8078
1080	0.6555
1089	0.7939
1098	0.8277
1107	0.8512
1116	0.85
1125	0.8357
1134	0.7825
1143	0.801
1152	0.8062
1161	0.7958
1170	0.7365
1179	0.7136
1188	0.7187
1197	0.7918
1206	0.8148
1215	0.7828
1224	0.8339
1233	0.822
1242	0.8072
1251	0.7893
1260	0.7661
1269	0.7628
1278	0.7321
1287	0.6368
1296	0.5971
1305	0.6655
1314	0.6662
1323	0.6048
1332	0.4171
1341	0.1743
1350	0.576
1359	0.7056
1368	0.6954
1377	0.6236
1386	0.43
1395	0.3221
1404	0.5764
1413	0.1922
1422	0.61
1431	0.7714
1440	0.7661
1449	0.4505
1458	0.7761
1467	0.7615
1476	0.7207
1485	0.6644
1494	0.5024
1503	0.6494
1512	0.5828
1521	0.421
1530	0.4433
1539	0.5649
1548	0.564
1557	0.5062
1566	0.4464
1575	0.3764
1584	0.2834
1593	0.1746
1602	0.0942
1611	0.1461
1620	0.2584
1629	0.3503
1638	0.5965
1647	0.7035
1656	0.771
1665	0.8085
1674	0.8352
1683	0.8578
1692	0.872
1701	0.8801
1710	0.8818
1719	0.8712
1728	0.8732
1737	0.8807
1746	0.8835
1755	0.8857
1764	0.8874
1773	0.8834
1782	0.8841
1791	0.8844
1800	0.8786
1809	0.8735
1818	0.8733
1827	0.872
1836	0.8697
1845	0.8665
1854	0.8621
1863	0.8549
1872	0.8437
1881	0.8314
1890	0.8296
1899	0.8161
1908	0.8182
1917	0.8118
1926	0.8015
1935	0.791
1944	0.7811
1953	0.7618
1962	0.7595
1971	0.7545
1980	0.7486
1989	0.7483
1998	0.7767
2007	0.7665
2016	0.7625
2025	0.7658
2034	0.7771
2043	0.7947
2052	0.8008
2061	0.8028
2070	0.8011
2079	0.8044
2088	0.7988
2097	0.7926
2106	0.7865
2115	0.7855
2124	0.7847
2133	0.783
2142	0.7794
2151	0.7724
2160	0.7628
2169	0.7517
2178	0.7396
2187	0.7317
2196	0.7265
2205	0.7175
2214	0.7082
2223	0.6975
2232	0.6861
2241	0.6757
2250	0.6653
2259	0.6547
2268	0.6437
2277	0.6376
2286	0.6348
2295	0.6298
2304	0.6177
2313	0.6051
2322	0.5966
2331	0.591
2340	0.5877
2349	0.5856
2358	0.5847
2367	0.5844
2376	0.584
2385	0.5836
2394	0.5835
2403	0.5834
2412	0.584
2421	0.5852
2430	0.586
2439	0.5866
2448	0.5894
2457	0.5955
2466	0.5996
2475	0.5992
2484	0.5971
2493	0.5949
2502	0.5935
2511	0.5912
2520	0.5907
2529	0.5967
2538	0.6007
2547	0.6004
2556	0.599
2565	0.5965
2574	0.5941
2583	0.5939
2592	0.5974
2601	0.6079
2610	0.6147
2619	0.6175
2628	0.6179
2637	0.6159
2646	0.6087
2655	0.5994
2664	0.5897
2673	0.5831
2682	0.5834
2691	0.5834
2700	0.5777
2709	0.5688
2718	0.565
2727	0.5646
2736	0.565
2745	0.5648
2754	0.5644
2763	0.5617
2772	0.5566
2781	0.5503
2790	0.5455
2799	0.5429
2808	0.5406
2817	0.5369
2826	0.531
2835	0.526
2844	0.5192
2853	0.5118
2862	0.5045
2871	0.4971
2880	0.4892
2889	0.4766
2898	0.461
2907	0.4406
2916	0.424
2925	0.4225
2934	0.4221
2943	0.4187
2952	0.4087
2961	0.3993
2970	0.3893
2979	0.3778
2988	0.3749
2997	0.3768
3006	0.382
3015	0.3849
3024	0.3774
3033	0.4
3042	0.414
3051	0.4253
3060	0.4323
3069	0.4888
3078	0.5019
3087	0.5162
3096	0.5335
3105	0.551
3114	0.5638
3123	0.5737
3132	0.5834
3141	0.5936
3150	0.6005
3159	0.6058
3168	0.6122
3177	0.6182
3186	0.6218
3195	0.6233
3204	0.6227
3213	0.618
3222	0.6082
3231	0.5936
3240	0.574
3249	0.4962
3258	0.4376
3267	0.5926
3276	0.6478
3285	0.6521
3294	0.6525
3303	0.6511
3312	0.6487
3321	0.6457
3330	0.6428
3339	0.6401
3348	0.6374
3357	0.6349
3366	0.6323
3375	0.63
3384	0.6285
3393	0.6269
3402	0.6251
3411	0.6232
3420	0.6214
3429	0.6195
3438	0.6176
3447	0.6158
3456	0.614
3465	0.6122
3474	0.6105
3483	0.6088
3492	0.6071
3501	0.6054
3510	0.6038
3519	0.602
3528	0.5997
3537	0.5972
3546	0.5948
3555	0.5924
3564	0.5907
3573	0.589
3582	0.5873
3591	0.5855
3600	0.5835
3609	0.5815
3618	0.5796
3627	0.5776
3636	0.576
3645	0.5746
3654	0.5734
3663	0.572
3672	0.5707
3681	0.5688
3690	0.5665
3699	0.564
3708	0.562
3717	0.5602
3726	0.5585
3735	0.5566
3744	0.5545
3753	0.5524
3762	0.5504
3771	0.5483
3780	0.5462
3789	0.5442
