Infrared Spectrum: 2,4-Dimethylphenylisothiocyanate
Formula: C 9 H 9 N S
CAS: 39842-01-8
State: gas
Origin: EPA-IR VAPOR PHASE LIBRARY
1/CM	ABSORBANCE
549.8	0.009442
559.445	0.008522
569.09	0.007452
578.734	0.006882
588.379	0.007692
598.024	0.006002
607.669	0.003562
617.313	0.002122
626.958	0.001132
636.603	0.0007772
646.248	0.000463
655.893	0.0011973
665.537	0.002052
675.182	0.001802
684.827	0.001762
694.472	0.001912
704.116	0.0013743
713.761	0.002222
723.406	0.004692
733.051	0.001862
742.695	0.001942
752.34	0.001942
761.985	0.001922
771.63	0.002162
781.275	0.002952
790.919	0.005952
800.564	0.016662
810.209	0.029742
819.854	0.019322
829.498	0.007032
839.143	0.003662
848.788	0.005612
858.433	0.009332
868.078	0.017462
877.722	0.020632
887.367	0.016222
897.012	0.015432
906.657	0.014022
916.301	0.009422
925.946	0.006012
935.591	0.009632
945.236	0.023582
954.88	0.027172
964.525	0.013152
974.17	0.005782
983.815	0.003772
993.46	0.002872
1003.1	0.003062
1012.75	0.003172
1022.39	0.002262
1032.04	0.002172
1041.68	0.002832
1051.33	0.002362
1060.97	0.002432
1070.62	0.0014444
1080.26	0.0013141
1089.91	0.0012723
1099.55	0.0010363
1109.2	0.0012323
1118.84	0.002732
1128.49	0.003282
1138.13	0.003092
1147.78	0.003082
1157.42	0.002202
1167.07	0.0015726
1176.71	0.0007546
1186.36	0.0008761
1196	0.0013197
1205.64	0.001932
1215.29	0.004922
1224.93	0.013292
1234.58	0.010292
1244.22	0.003882
1253.87	0.004152
1263.51	0.003312
1273.16	0.002972
1282.8	0.003082
1292.45	0.002302
1302.09	0.002162
1311.74	0.002252
1321.38	0.002142
1331.03	0.002132
1340.67	0.001992
1350.32	0.002032
1359.96	0.002302
1369.61	0.002902
1379.25	0.003812
1388.9	0.004432
1398.54	0.004242
1408.18	0.005132
1417.83	0.006352
1427.47	0.006602
1437.12	0.007092
1446.76	0.008142
1456.41	0.008692
1466.05	0.010012
1475.7	0.018582
1485.34	0.035652
1494.99	0.048842
1504.63	0.035432
1514.28	0.013392
1523.92	0.008542
1533.57	0.007082
1543.21	0.006482
1552.86	0.005732
1562.5	0.005332
1572.15	0.005832
1581.79	0.006312
1591.44	0.006482
1601.08	0.006972
1610.73	0.006982
1620.37	0.005192
1630.01	0.003252
1639.66	0.002322
1649.3	0.002032
1658.95	0.001732
1668.59	0.0015219
1678.24	0.001692
1687.88	0.001672
1697.53	0.001582
1707.17	0.001792
1716.82	0.001962
1726.46	0.002622
1736.11	0.003372
1745.75	0.003722
1755.4	0.003422
1765.04	0.003072
1774.69	0.002952
1784.33	0.002992
1793.98	0.002932
1803.62	0.002902
1813.27	0.003172
1822.91	0.003332
1832.55	0.003432
1842.2	0.003522
1851.84	0.003632
1861.49	0.004152
1871.13	0.004982
1880.78	0.006202
1890.42	0.006832
1900.07	0.007402
1909.71	0.007802
1919.36	0.008732
1929	0.010762
1938.65	0.014352
1948.29	0.019532
1957.94	0.026642
1967.58	0.036182
1977.23	0.048332
1986.87	0.063912
1996.52	0.084152
2006.16	0.109732
2015.81	0.143032
2025.45	0.184122
2035.1	0.233152
2044.74	0.294222
2054.38	0.356412
2064.03	0.362282
2073.67	0.321722
2083.32	0.297342
2092.96	0.268282
2102.61	0.230352
2112.25	0.195182
2121.9	0.158032
2131.54	0.131802
2141.19	0.115862
2150.83	0.101192
2160.48	0.079282
2170.12	0.055902
2179.77	0.038982
2189.41	0.028942
2199.06	0.024702
2208.7	0.021132
2218.35	0.015222
2227.99	0.010322
2237.64	0.007372
2247.28	0.005652
2256.92	0.004202
2266.57	0.003222
2276.21	0.002492
2285.86	0.001992
2295.5	0.001932
2305.15	0.001772
2314.79	0.001822
2324.44	0.001832
2334.08	0.001842
2343.73	0.002192
2353.37	0.002542
2363.02	0.002662
2372.66	0.002972
2382.31	0.003122
2391.95	0.002882
2401.6	0.002982
2411.24	0.003412
2420.89	0.003872
2430.53	0.004012
2440.18	0.003772
2449.82	0.003392
2459.47	0.003122
2469.11	0.003382
2478.75	0.003862
2488.4	0.003892
2498.04	0.003732
2507.69	0.003682
2517.33	0.003632
2526.98	0.003582
2536.62	0.003402
2546.27	0.003282
2555.91	0.003182
2565.56	0.002792
2575.2	0.002312
2584.85	0.002022
2594.49	0.001682
2604.14	0.0015521
2613.78	0.0013615
2623.43	0.0012586
2633.07	0.0013713
2642.72	0.001602
2652.36	0.001802
2662.01	0.002212
2671.65	0.002942
2681.29	0.003772
2690.94	0.005032
2700.58	0.006272
2710.23	0.006472
2719.87	0.005152
2729.52	0.003582
2739.16	0.003122
2748.81	0.002962
2758.45	0.002362
2768.1	0.001882
2777.74	0.001602
2787.39	0.001602
2797.03	0.0014976
2806.68	0.001672
2816.32	0.001802
2825.97	0.002152
2835.61	0.002772
2845.26	0.003742
2854.9	0.005552
2864.55	0.008942
2874.19	0.012052
2883.84	0.011572
2893.48	0.010162
2903.12	0.010552
2912.77	0.012832
2922.41	0.019542
2932.06	0.027672
2941.7	0.023242
2951.35	0.014952
2960.99	0.012472
2970.64	0.011512
2980.28	0.012212
2989.93	0.013172
2999.57	0.013312
3009.22	0.015152
3018.86	0.019922
3028.51	0.020172
3038.15	0.015322
3047.8	0.013602
3057.44	0.010962
3067.09	0.008742
3076.73	0.006662
3086.38	0.004772
3096.02	0.003612
3105.67	0.003212
3115.31	0.002722
3124.95	0.001692
3134.6	0.0012339
3144.24	0.0008889
3153.89	0.00065663
3163.53	0.000587901
3173.18	0.000452
3182.82	0.000453
3192.47	0.000325
3202.11	0.000198
3211.76	0.000216
3221.4	0.000337
3231.05	7.9e-05
3240.69	0.000237
3250.34	9.9e-05
3259.98	0.000135
3269.63	0.000181
3279.27	0.00019
3288.92	0.00031
3298.56	0.000265
3308.21	0.000278
3317.85	0.000204
3327.49	0.0003
3337.14	0.000309
3346.78	0.000318
3356.43	0.000205
3366.07	9.5e-05
3375.72	0.000149
3385.36	4.3e-05
3395.01	0.00041
3404.65	0.000201
3414.3	1.6e-05
3423.94	0.00031
3433.59	0.000313
3443.23	0.000201
3452.88	5.8e-05
3462.52	0.000293
3472.17	0.000168
3481.81	0.000253
3491.46	0.000258
3501.1	0.000351
3510.75	0.000273
3520.39	0.000237
3530.04	0.000254
3539.68	0.000367
3549.32	0.000428
3558.97	0.000154
3568.61	0.00032
3578.26	0.000334
3587.9	0.000189
3597.55	0.000321
3607.19	0.00031
3616.84	0.0005295
3626.48	0.000272
3636.13	0.00021
3645.77	0.000262
3655.42	6.5e-05
3665.06	0.000337
3674.71	0.000244
3684.35	0.000262
3694	0.00023
3703.64	0.000202
3713.29	0.00025
3722.93	0.000268
3732.58	0.000211
3742.22	0.000443
3751.86	0.000238
3761.51	0.00045
3771.15	0.000478
3780.8	0.000188
3790.44	0.000235
3800.09	0.000374
3809.73	0.000438
3819.38	0.0005528
3829.02	0.0005334
3838.67	0.000403
3848.31	0.000262
3857.96	0.0005351
3867.6	0.000429
3877.25	0.0007983
3886.89	0.0006874
3896.54	0.0008532
3906.18	0.0008059
3915.83	0.0007084
3925.47	0.0006858
3935.12	0.0007285
3944.76	0.0009573
3954.41	0.0011462
3964.05	0.0012435
3973.69	0.0009181
3983.34	0.0012488
3992.98	0.0013725
