Infrared Spectrum: 2,6-Dichloro-4-trifluoromethylpyridine
Formula: C 6 H 2 Cl 2 F 3 N
CAS: 39890-98-7
State: gas
Origin: EPA-IR VAPOR PHASE LIBRARY
1/CM	ABSORBANCE
549.8	0.0018294
559.445	0.0015946
569.09	0.001161
578.734	0.0018494
588.379	0.00150454
598.024	0.0014114
607.669	0.0018784
617.313	0.0016373
626.958	0.000899
636.603	0.0018247
646.248	0.002255
655.893	0.0039
665.537	0.00323
675.182	0.00335
684.827	0.01221
694.472	0.06144
704.116	0.03544
713.761	0.00656
723.406	0.00833
733.051	0.00384
742.695	0.0024196
752.34	0.00253
761.985	0.00351
771.63	0.00366
781.275	0.0038
790.919	0.00431
800.564	0.00902
810.209	0.04307
819.854	0.10694
829.498	0.09185
839.143	0.05304
848.788	0.01977
858.433	0.01004
868.078	0.03056
877.722	0.04582
887.367	0.01696
897.012	0.00532
906.657	0.00362
916.301	0.00271
925.946	0.0017015
935.591	0.0016327
945.236	0.001197
954.88	0.0017792
964.525	0.0016626
974.17	0.0021213
983.815	0.0024262
993.46	0.00267
1003.1	0.00279
1012.75	0.00331
1022.39	0.00304
1032.04	0.0022734
1041.68	0.00274
1051.33	0.00355
1060.97	0.00375
1070.62	0.00265
1080.26	0.01163
1089.91	0.03599
1099.55	0.0175
1109.2	0.00776
1118.84	0.00843
1128.49	0.01238
1138.13	0.02664
1147.78	0.07391
1157.42	0.19568
1167.07	0.2914
1176.71	0.23634
1186.36	0.15908
1196	0.04519
1205.64	0.02384
1215.29	0.02118
1224.93	0.02859
1234.58	0.06231
1244.22	0.05564
1253.87	0.02064
1263.51	0.01704
1273.16	0.02179
1282.8	0.03061
1292.45	0.03493
1302.09	0.09197
1311.74	0.37118
1321.38	0.34705
1331.03	0.04575
1340.67	0.02492
1350.32	0.03755
1359.96	0.14922
1369.61	0.22455
1379.25	0.08641
1388.9	0.02943
1398.54	0.02313
1408.18	0.02375
1417.83	0.03299
1427.47	0.01539
1437.12	0.00553
1446.76	0.00537
1456.41	0.00696
1466.05	0.0071
1475.7	0.00531
1485.34	0.00407
1494.99	0.00422
1504.63	0.00348
1514.28	0.00343
1523.92	0.00699
1533.57	0.01784
1543.21	0.04169
1552.86	0.08009
1562.5	0.08664
1572.15	0.03109
1581.79	0.01745
1591.44	0.02943
1601.08	0.01909
1610.73	0.00466
1620.37	0.00308
1630.01	0.0023485
1639.66	0.00249
1649.3	0.0023858
1658.95	0.0021444
1668.59	0.0022349
1678.24	0.0024198
1687.88	0.0025
1697.53	0.0019476
1707.17	0.0021144
1716.82	0.0021724
1726.46	0.00268
1736.11	0.00356
1745.75	0.00564
1755.4	0.00586
1765.04	0.00299
1774.69	0.002173
1784.33	0.0018031
1793.98	0.0016226
1803.62	0.00148525
1813.27	0.00144252
1822.91	0.00143776
1832.55	0.001366
1842.2	0.0013405
1851.84	0.0018007
1861.49	0.0020528
1871.13	0.0016831
1880.78	0.00151881
1890.42	0.001231
1900.07	0.001328
1909.71	0.0013593
1919.36	0.001252
1929	0.0013383
1938.65	0.0013529
1948.29	0.001204
1957.94	0.001216
1967.58	0.0017459
1977.23	0.0020484
1986.87	0.0023056
1996.52	0.00251
2006.16	0.0020688
2015.81	0.001997
2025.45	0.0015846
2035.1	0.001322
2044.74	0.001248
2054.38	0.0013936
2064.03	0.0013484
2073.67	0.001168
2083.32	0.00106
2092.96	0.001212
2102.61	0.000964
2112.25	0.001008
2121.9	0.001075
2131.54	0.001298
2141.19	0.0015495
2150.83	0.0015861
2160.48	0.00150673
2170.12	0.00106
2179.77	0.001083
2189.41	0.0013
2199.06	0.001314
2208.7	0.0016215
2218.35	0.0017228
2227.99	0.0015516
2237.64	0.001327
2247.28	0.001313
2256.92	0.00143921
2266.57	0.00144652
2276.21	0.001016
2285.86	0.00150987
2295.5	0.0015692
2305.15	0.0019189
2314.79	0.0021695
2324.44	0.00292
2334.08	0.0023032
2343.73	0.0019734
2353.37	0.0018044
2363.02	0.001308
2372.66	0.0013387
2382.31	0.001259
2391.95	0.00143218
2401.6	0.001386
2411.24	0.0013727
2420.89	0.001216
2430.53	0.001152
2440.18	0.001035
2449.82	0.001068
2459.47	0.001157
2469.11	0.001058
2478.75	0.00148751
2488.4	0.001226
2498.04	0.000943
2507.69	0.001051
2517.33	0.001327
2526.98	0.0016636
2536.62	0.0014425
2546.27	0.0014195
2555.91	0.0014047
2565.56	0.001132
2575.2	0.000923
2584.85	0.0014057
2594.49	0.00147298
2604.14	0.0015319
2613.78	0.001255
2623.43	0.001235
2633.07	0.00124
2642.72	0.00146639
2652.36	0.00147455
2662.01	0.0013367
2671.65	0.001266
2681.29	0.000748
2690.94	0.001152
2700.58	0.00076
2710.23	0.001226
2719.87	0.000866
2729.52	0.000672
2739.16	0.000678
2748.81	0.000517
2758.45	0.000928
2768.1	0.00079
2777.74	0.000939
2787.39	0.000947
2797.03	0.000687
2806.68	0.000917
2816.32	0.001169
2825.97	0.0016862
2835.61	0.001089
2845.26	0.000865
2854.9	0.00146833
2864.55	0.000749
2874.19	0.000607
2883.84	0.000785
2893.48	0.001025
2903.12	0.000893
2912.77	0.00041
2922.41	0.000823
2932.06	0.00104
2941.7	0.000814
2951.35	0.001252
2960.99	0.001291
2970.64	0.000838
2980.28	0.000716
2989.93	0.001185
2999.57	0.000998
3009.22	0.000687
3018.86	0.001009
3028.51	0.000696
3038.15	0.00038
3047.8	0.000653
3057.44	0.001103
3067.09	0.000888
3076.73	0.00148462
3086.38	0.0016446
3096.02	0.0036
3105.67	0.0029
3115.31	0.001307
3124.95	0.00111
3134.6	0.001198
3144.24	0.0016659
3153.89	0.00147665
3163.53	0.000773
3173.18	0.000532
3182.82	0.000749
3192.47	0.000955
3202.11	0.001032
3211.76	0.000598
3221.4	0.000715
3231.05	0.000553
3240.69	0.000679
3250.34	0.000837
3259.98	0.00026
3269.63	0.000652
3279.27	0.000892
3288.92	0.000823
3298.56	0.000844
3308.21	0.000907
3317.85	0.000487
3327.49	0.00066
3337.14	0.000827
3346.78	0.000944
3356.43	0.000573
3366.07	0.000993
3375.72	0.000787
3385.36	0.0013366
3395.01	0.000548
3404.65	0.000784
3414.3	0.000932
3423.94	0.000568
3433.59	0.000665
3443.23	0.00068
3452.88	0.000436
3462.52	4e-05
3472.17	0.000976
3481.81	0.001056
3491.46	0.0013542
3501.1	0.001169
3510.75	0.000898
3520.39	0.000979
3530.04	0.001144
3539.68	0.001073
3549.32	0.001043
3558.97	0.000838
3568.61	0.00103
3578.26	0.000679
3587.9	0.001063
3597.55	0.000849
3607.19	0.00095
3616.84	0.000579
3626.48	0.000514
3636.13	0.001239
3645.77	0.00022
3655.42	0.001278
3665.06	0.000564
3674.71	0
3684.35	0.00025
3694	0.000432
3703.64	9e-05
3713.29	0.001394
3722.93	0.001273
3732.58	0.000799
3742.22	0.000787
3751.86	0.00042
3761.51	0.000505
3771.15	0.000905
3780.8	0.001316
3790.44	0.000817
3800.09	0.00038
3809.73	0.001052
3819.38	0.000702
3829.02	0.000638
3838.67	0.000892
3848.31	0.00019
3857.96	0.000886
3867.6	0.001314
3877.25	0.000808
3886.89	0.00014
3896.54	0.00032
3906.18	0.000649
3915.83	0.000903
3925.47	0.000714
3935.12	0.000694
3944.76	0.000793
3954.41	0.0013324
3964.05	0.00082
3973.69	0.000777
3983.34	0.00106
3992.98	0.000571
