Infrared Spectrum: 1-Azabicyclo[2.2.2]octane, hydrochloride
Formula: C7 H14 Cl N
CAS: 39896-06-5
State: SOLID (KBr DISC, 0.8% WT.)
Class: COBLENTZ III
Instrument: PERKIN-ELMER 157
Sampling: TRANSMISSION
Resolution: 2
Origin: BRITISH PETROLEUM CO. LTD., ENGLAND
1/CM	TRANSMITTANCE
668	0.9842
677	0.9657
686	0.9468
695	0.9315
704	0.911
713	0.8965
722	0.878
731	0.8647
740	0.8496
749	0.8384
758	0.8257
767	0.8053
776	0.7868
785	0.7463
794	0.6963
803	0.4325
812	0.6628
821	0.5629
830	0.3658
839	0.1451
848	0.3901
857	0.6644
866	0.7342
875	0.7401
884	0.6771
893	0.3338
902	0.7294
911	0.7306
920	0.7263
929	0.7184
938	0.6922
947	0.6347
956	0.5319
965	0.2826
974	0.2199
983	0.5464
992	0.4239
1001	0.7337
1010	0.7599
1019	0.74
1028	0.657
1037	0.4278
1046	0.2953
1055	0.6917
1064	0.6998
1073	0.7241
1082	0.7203
1091	0.7095
1100	0.6936
1109	0.6692
1118	0.6296
1127	0.6188
1136	0.6069
1145	0.5927
1154	0.5585
1163	0.4951
1172	0.4997
1181	0.5043
1190	0.4022
1199	0.3663
1208	0.5092
1217	0.5451
1226	0.5274
1235	0.5063
1244	0.4848
1253	0.4597
1262	0.4458
1271	0.4914
1280	0.5086
1289	0.4999
1298	0.4602
1307	0.3284
1316	0.1979
1325	0.3694
1334	0.3173
1343	0.2202
1352	0.4082
1361	0.4131
1370	0.4112
1379	0.4075
1388	0.4698
1397	0.4636
1406	0.4313
1415	0.3338
1424	0.1646
1433	0.0561
1442	0.2068
1451	0.1815
1460	0.0764
1469	0.1933
1478	0.3465
1487	0.3033
1496	0.3337
1505	0.4703
1514	0.5592
1523	0.6252
1532	0.6563
1541	0.6766
1550	0.6775
1559	0.6776
1568	0.6769
1577	0.6774
1586	0.6824
1595	0.6858
1604	0.685
1613	0.6871
1622	0.695
1631	0.6951
1640	0.6954
1649	0.6953
1658	0.6946
1667	0.6935
1676	0.6912
1685	0.686
1694	0.6823
1703	0.6728
1712	0.666
1721	0.6528
1730	0.6449
1739	0.6417
1748	0.64
1757	0.639
1766	0.6387
1775	0.6386
1784	0.6383
1793	0.6381
1802	0.6382
1811	0.638
1820	0.637
1829	0.6308
1838	0.6281
1847	0.6212
1856	0.615
1865	0.6125
1874	0.6112
1883	0.6108
1892	0.6116
1901	0.6106
1910	0.6044
1919	0.5978
1928	0.5923
1937	0.5864
1946	0.5703
1955	0.5451
1964	0.5279
1973	0.5445
1982	0.5544
1991	0.5542
2000	0.5545
2009	0.5545
2018	0.5542
2027	0.5539
2036	0.5532
2045	0.5502
2054	0.5415
2063	0.5337
2072	0.5251
2081	0.5202
2090	0.5179
2099	0.5168
2108	0.5122
2117	0.5043
2126	0.496
2135	0.4867
2144	0.4778
2153	0.4651
2162	0.4638
2171	0.463
2180	0.4558
2189	0.4446
2198	0.4309
2207	0.4181
2216	0.4009
2225	0.3847
2234	0.3748
2243	0.382
2252	0.3847
2261	0.3789
2270	0.3613
2279	0.3431
2288	0.3259
2297	0.3054
2306	0.2695
2315	0.253
2324	0.2502
2333	0.2529
2342	0.2536
2351	0.2505
2360	0.2422
2369	0.2334
2378	0.2234
2387	0.2159
2396	0.208
2405	0.1962
2414	0.184
2423	0.1605
2432	0.1417
2441	0.0999
2450	0.0789
2459	0.0721
2468	0.0771
2477	0.0895
2486	0.0919
2495	0.0818
2504	0.0706
2513	0.0543
2522	0.0432
2531	0.0388
2540	0.036
2549	0.0332
2558	0.0307
2567	0.0285
2576	0.0263
2585	0.0246
2594	0.0229
2603	0.0251
2612	0.0273
2621	0.0298
2630	0.0323
2639	0.0317
2648	0.0299
2657	0.0287
2666	0.0286
2675	0.0322
2684	0.0357
2693	0.0371
2702	0.0372
2711	0.0369
2720	0.0365
2729	0.0358
2738	0.0377
2747	0.0416
2756	0.0448
2765	0.042
2774	0.0389
2783	0.0392
2792	0.0573
2801	0.0881
2810	0.1187
2819	0.1491
2828	0.1709
2837	0.1654
2846	0.1282
2855	0.0897
2864	0.0515
2873	0.0314
2882	0.0254
2891	0.0235
2900	0.0225
2909	0.0221
2918	0.0217
2927	0.0231
2936	0.0268
2945	0.0434
2954	0.0697
2963	0.0958
2972	0.1217
2981	0.1475
2990	0.1731
2999	0.1986
3008	0.2239
3017	0.2464
3026	0.2557
3035	0.2744
3044	0.309
3053	0.3433
3062	0.3774
3071	0.4114
3080	0.4349
3089	0.453
3098	0.4603
3107	0.471
3116	0.4867
3125	0.4999
3134	0.5077
3143	0.5114
3152	0.5136
3161	0.5148
3170	0.5155
3179	0.516
3188	0.5164
3197	0.517
3206	0.5159
3215	0.5157
3224	0.5154
3233	0.5151
3242	0.5149
3251	0.5145
3260	0.5143
3269	0.514
3278	0.5125
3287	0.5106
3296	0.5071
3305	0.5039
3314	0.5008
3323	0.4968
3332	0.4926
3341	0.4879
3350	0.4831
3359	0.4782
3368	0.4733
3377	0.4684
3386	0.4634
3395	0.4584
3404	0.4529
3413	0.4467
3422	0.4416
3431	0.4371
3440	0.4328
3449	0.429
3458	0.4253
3467	0.4216
3476	0.4199
3485	0.4194
3494	0.4196
3503	0.421
3512	0.424
3521	0.4298
3530	0.4463
3539	0.4659
3548	0.4858
3557	0.4967
3566	0.5043
3575	0.5113
3584	0.5183
3593	0.5228
3602	0.5254
3611	0.5263
3620	0.5267
3629	0.5271
3638	0.5274
3647	0.5277
3656	0.5277
3665	0.5277
3674	0.5275
3683	0.5273
3692	0.5271
3701	0.5267
3710	0.5262
3719	0.5255
3728	0.5233
3737	0.5202
3746	0.5172
3755	0.5162
3764	0.5162
3773	0.5164
3782	0.5167
3791	0.5161
3800	0.5133
3809	0.5092
3818	0.5042
3827	0.4986
3836	0.493
3845	0.4889
3854	0.486
3863	0.4839
3872	0.4828
3881	0.4825
3890	0.4823
3899	0.4822
3908	0.482
3917	0.4807
3926	0.4775
3935	0.4756
3944	0.4746
3953	0.4747
3962	0.4754
3971	0.4765
3980	0.4776
3989	0.4789
3998	0.4801
