Infrared Spectrum: PROPIONIC ACID, 3-(BENZYLOXY)-2-BROMO-, ETHYL ESTER
Formula: C12 H15 Br O3
CAS: 39897-10-4
State: LIQUID (NEAT)
Class: COBLENTZ III
Instrument: PERKIN-ELMER 21 (GRATING)
Instrument parameters: FILTER CHANGE AT ABOUT 1085 CM^-^1.
Sampling: TRANSMISSION
Path length: CAPILLARY
Resolution: 2
Origin: SOUTHERN RESEARCH INSTITUTE
1/CM	TRANSMITTANCE
607.763	0.73
616.694	0.73
625.626	0.7344
634.557	0.7507
643.489	0.753
652.42	0.739
661.352	0.7239
670.283	0.701
679.214	0.6647
688.146	0.6037
697.077	0.159
706.009	0.3697
714.94	0.608
723.872	0.5757
732.803	0.359
741.734	0.2377
750.666	0.2757
759.597	0.3833
768.529	0.6848
777.46	0.7982
786.392	0.8079
795.323	0.674
804.254	0.7214
813.186	0.769
822.117	0.7493
831.049	0.7831
839.98	0.8041
848.912	0.7784
857.843	0.7641
866.774	0.8094
875.706	0.8239
884.637	0.813
893.569	0.7886
902.5	0.7064
911.432	0.6248
920.363	0.6352
929.295	0.6265
938.226	0.5529
947.157	0.4664
956.089	0.4874
965.02	0.5367
973.952	0.567
982.883	0.562
991.815	0.556
1000.75	0.558
1009.68	0.5548
1018.61	0.549
1027.54	0.5166
1036.47	0.4639
1045.4	0.5377
1054.33	0.5688
1063.27	0.5727
1072.2	0.4889
1081.13	0.2878
1090.06	0.2236
1098.99	0.15
1107.92	0.1656
1116.85	0.1967
1125.79	0.26
1134.72	0.3665
1143.65	0.3472
1152.58	0.2181
1161.51	0.3023
1170.44	0.4517
1179.37	0.5149
1188.31	0.511
1197.24	0.3878
1206.17	0.3
1215.1	0.3085
1224.03	0.3436
1232.96	0.3794
1241.89	0.2524
1250.83	0.1881
1259.76	0.15
1268.69	0.1458
1277.62	0.2061
1286.55	0.3258
1295.48	0.4595
1304.41	0.4932
1313.35	0.4671
1322.28	0.4767
1331.21	0.5402
1340.14	0.5639
1349.07	0.4653
1358	0.5499
1366.93	0.5368
1375.87	0.47
1384.8	0.4558
1393.73	0.4024
1402.66	0.4744
1411.59	0.6239
1420.52	0.7137
1429.45	0.7542
1438.39	0.762
1447.32	0.7101
1456.25	0.5799
1465.18	0.299
1474.11	0.5454
1483.04	0.6514
1491.97	0.7488
1500.91	0.6848
1509.84	0.5052
1518.77	0.7887
1527.7	0.822
1536.63	0.8337
1545.56	0.8302
1554.49	0.8284
1563.43	0.83
1572.36	0.83
1581.29	0.8116
1590.22	0.7799
1599.15	0.731
1608.08	0.6929
1617.01	0.586
1625.95	0.7525
1634.88	0.8068
1643.81	0.8157
1652.74	0.82
1661.67	0.8089
1670.6	0.8016
1679.53	0.7927
1688.47	0.773
1697.4	0.744
1706.33	0.6676
1715.26	0.5467
1724.19	0.3257
1733.12	0.1371
1742.05	0.0927
1750.99	0.1052
1759.92	0.1676
1768.85	0.4257
1777.78	0.644
1786.71	0.7493
1795.64	0.7832
1804.57	0.7841
1813.51	0.7819
1822.44	0.7953
1831.37	0.8077
1840.3	0.8281
1849.23	0.831
1858.16	0.831
1867.09	0.821
1876.03	0.8076
1884.96	0.803
1893.89	0.81
1902.82	0.8179
1911.75	0.8268
1920.68	0.8367
1929.61	0.8406
1938.55	0.843
1947.48	0.841
1956.41	0.8267
1965.34	0.8168
1974.27	0.8121
1983.2	0.818
1992.13	0.8259
2001.07	0.8337
2010	0.8408
2018.93	0.85
2027.86	0.85
2036.79	0.85
2045.72	0.85
2054.65	0.8527
2063.59	0.851
2072.52	0.851
2081.45	0.8508
2090.38	0.853
2099.31	0.85
2108.24	0.85
2117.17	0.8508
2126.11	0.8538
2135.04	0.8577
2143.97	0.8552
2152.9	0.856
2161.83	0.856
2170.76	0.856
2179.69	0.8532
2188.63	0.853
2197.56	0.853
2206.49	0.8538
2215.42	0.854
2224.35	0.858
2233.28	0.858
2242.21	0.859
2251.15	0.859
2260.08	0.859
2269.01	0.86
2277.94	0.86
2286.87	0.86
2295.8	0.86
2304.73	0.86
2313.67	0.86
2322.6	0.8592
2331.53	0.858
2340.46	0.8558
2349.39	0.858
2358.32	0.858
2367.25	0.858
2376.19	0.858
2385.12	0.855
2394.05	0.854
2402.98	0.855
2411.91	0.855
2420.84	0.855
2429.77	0.8542
2438.71	0.849
2447.64	0.849
2456.57	0.8548
2465.5	0.859
2474.43	0.85
2483.36	0.8535
2492.29	0.856
2501.23	0.856
2510.16	0.856
2519.09	0.853
2528.02	0.855
2536.95	0.853
2545.88	0.85
2554.81	0.8527
2563.75	0.854
2572.68	0.8513
2581.61	0.8463
2590.54	0.8477
2599.47	0.848
2608.4	0.8575
2617.33	0.858
2626.27	0.8463
2635.2	0.845
2644.13	0.845
2653.06	0.848
2661.99	0.848
2670.92	0.848
2679.85	0.8535
2688.79	0.858
2697.72	0.8542
2706.65	0.849
2715.58	0.844
2724.51	0.843
2733.44	0.8413
2742.37	0.841
2751.31	0.84
2760.24	0.84
2769.17	0.8392
2778.1	0.836
2787.03	0.83
2795.96	0.8242
2804.89	0.812
2813.83	0.8033
2822.76	0.793
2831.69	0.789
2840.62	0.7555
2849.55	0.7228
2858.48	0.6898
2867.42	0.663
2876.35	0.627
2885.28	0.622
2894.21	0.6258
2903.14	0.6395
2912.07	0.6647
2921	0.668
2929.94	0.665
2938.87	0.664
2947.8	0.6542
2956.73	0.6548
2965.66	0.658
2974.59	0.6688
2983.52	0.6855
2992.46	0.6938
3001.39	0.7018
3010.32	0.7145
3019.25	0.7137
3028.18	0.6983
3037.11	0.688
3046.04	0.6472
3054.98	0.611
3063.91	0.6233
3072.84	0.6658
3081.77	0.6793
3090.7	0.6683
3099.63	0.7088
3108.56	0.7348
3117.5	0.7623
3126.43	0.7968
3135.36	0.8105
3144.29	0.8337
3153.22	0.837
3162.15	0.837
3171.08	0.843
3180.02	0.844
3188.95	0.8442
3197.88	0.844
3206.81	0.844
3215.74	0.845
3224.67	0.846
3233.6	0.8452
3242.54	0.845
3251.47	0.845
3260.4	0.846
3269.33	0.8488
3278.26	0.85
3287.19	0.851
3296.12	0.851
3305.06	0.851
3313.99	0.85
3322.92	0.853
3331.85	0.855
3340.78	0.854
3349.71	0.849
3358.64	0.849
3367.58	0.85
3376.51	0.849
3385.44	0.848
3394.37	0.848
3403.3	0.851
3412.23	0.85
3421.16	0.846
3430.1	0.843
3439.03	0.841
3447.96	0.84
3456.89	0.831
3465.82	0.83
3474.75	0.8273
3483.68	0.824
3492.62	0.8202
3501.55	0.82
3510.48	0.8218
3519.41	0.824
3528.34	0.825
3537.27	0.827
3546.2	0.826
3555.14	0.8223
3564.07	0.8162
3573	0.813
3581.93	0.816
3590.86	0.817
3599.79	0.82
3608.72	0.822
3617.66	0.8258
3626.59	0.829
3635.52	0.831
3644.45	0.8358
3653.38	0.8427
3662.31	0.8477
3671.24	0.851
3680.18	0.854
3689.11	0.856
3698.04	0.853
3706.97	0.851
3715.9	0.853
3724.83	0.8548
3733.76	0.858
3742.7	0.859
3751.63	0.859
3760.56	0.856
3769.49	0.8532
3778.42	0.853
3787.35	0.855
3796.28	0.858
3805.22	0.859
3814.15	0.86
3823.08	0.8617
3832.01	0.862
3840.94	0.862
3849.87	0.862
3858.8	0.8592
3867.74	0.858
3876.67	0.858
3885.6	0.858
3894.53	0.858
3903.46	0.859
3912.39	0.858
3921.32	0.853
3930.26	0.849
3939.19	0.849
3948.12	0.849
3957.05	0.848
3965.98	0.848
3974.91	0.8498
3983.84	0.85
3992.78	0.8508
4001.71	0.853
4010.64	0.853
