Infrared Spectrum: Propionic acid, 2,3,3,3-tetrafluoro-, ethyl ester
Formula: C5 H6 F4 O2
CAS: 399-92-8
State: LIQUID (NEAT)
Class: COBLENTZ III
Instrument: BAIRD (GRATING)
Instrument parameters: NaCl PRISM
Sampling: TRANSMISSION
Path length: 0.003 CM
Resolution: 2
Origin: WYANDOTTE CHEMICALS CORP..
1/CM	TRANSMITTANCE
626	0.6656
635	0.6316
644	0.5945
653	0.5802
662	0.5911
671	0.583
680	0.5103
689	0.2955
698	0.3979
707	0.3898
716	0.6023
725	0.7511
734	0.8324
743	0.8519
752	0.8518
761	0.8124
770	0.7055
779	0.6454
788	0.6684
797	0.5748
806	0.64
815	0.6855
824	0.7196
833	0.804
842	0.748
851	0.443
860	0.3505
869	0.2574
878	0.1769
887	0.5499
896	0.7395
905	0.8183
914	0.8409
923	0.8301
932	0.7718
941	0.6244
950	0.4639
959	0.303
968	0.3605
977	0.6088
986	0.6943
995	0.6291
1004	0.3998
1013	0.1228
1022	0.0362
1031	0.045
1040	0.2298
1049	0.4789
1058	0.5808
1067	0.619
1076	0.5933
1085	0.4966
1094	0.3196
1103	0.0936
1112	0.0273
1121	0.0139
1130	0.0103
1139	0.0069
1148	0.0102
1157	0.0124
1166	0.0176
1175	0.0423
1184	0.0324
1193	0.0117
1202	0.0101
1211	0.0087
1220	0.0052
1229	0.0075
1238	0.0108
1247	0.0124
1256	0.018
1265	0.0164
1274	0.0129
1283	0.0085
1292	0.0189
1301	0.0235
1310	0.029
1319	0.0667
1328	0.0536
1337	0.0302
1346	0.0177
1355	0.0272
1364	0.0415
1373	0.0284
1382	0.027
1391	0.0808
1400	0.2467
1409	0.2522
1418	0.3952
1427	0.5425
1436	0.6187
1445	0.607
1454	0.5668
1463	0.4113
1472	0.4837
1481	0.4365
1490	0.4363
1499	0.5603
1508	0.7802
1517	0.8373
1526	0.8515
1535	0.8582
1544	0.8609
1553	0.8638
1562	0.8664
1571	0.8688
1580	0.871
1589	0.873
1598	0.875
1607	0.8722
1616	0.8611
1625	0.8456
1634	0.8309
1643	0.8237
1652	0.8283
1661	0.819
1670	0.8191
1679	0.8152
1688	0.8006
1697	0.7839
1706	0.762
1715	0.6928
1724	0.6484
1733	0.5325
1742	0.5014
1751	0.1267
1760	0.0167
1769	0.0107
1778	0.0143
1787	0.0215
1796	0.1885
1805	0.4493
1814	0.6055
1823	0.6928
1832	0.7902
1841	0.8168
1850	0.8483
1859	0.8557
1868	0.8638
1877	0.8715
1886	0.8888
1895	0.8986
1904	0.9029
1913	0.9085
1922	0.9137
1931	0.919
1940	0.9244
1949	0.9282
1958	0.9295
1967	0.929
1976	0.9265
1985	0.923
1994	0.9228
2003	0.9246
2012	0.926
2021	0.9278
2030	0.9303
2039	0.935
2048	0.9371
2057	0.9367
2066	0.9362
2075	0.936
2084	0.9353
2093	0.9343
2102	0.9296
2111	0.9262
2120	0.9272
2129	0.9276
2138	0.9284
2147	0.9309
2156	0.9353
2165	0.9352
2174	0.9339
2183	0.9336
2192	0.9318
2201	0.9286
2210	0.9217
2219	0.9151
2228	0.9161
2237	0.9195
2246	0.9217
2255	0.9235
2264	0.9239
2273	0.9232
2282	0.9203
2291	0.913
2300	0.9035
2309	0.8923
2318	0.8817
2327	0.8782
2336	0.8768
2345	0.8758
2354	0.8753
2363	0.8746
2372	0.8742
2381	0.8738
2390	0.8733
2399	0.8726
2408	0.8718
2417	0.8708
2426	0.8696
2435	0.8684
2444	0.8668
2453	0.865
2462	0.8631
2471	0.8609
2480	0.8585
2489	0.8562
2498	0.8554
2507	0.8547
2516	0.8541
2525	0.8544
2534	0.8553
2543	0.8563
2552	0.8574
2561	0.8589
2570	0.8603
2579	0.862
2588	0.8639
2597	0.8662
2606	0.8646
2615	0.8603
2624	0.8584
2633	0.8584
2642	0.8591
2651	0.8604
2660	0.8617
2669	0.8627
2678	0.8631
2687	0.8634
2696	0.8637
2705	0.8637
2714	0.8638
2723	0.8629
2732	0.8611
2741	0.8578
2750	0.8559
2759	0.8545
2768	0.8554
2777	0.8573
2786	0.858
2795	0.8566
2804	0.8528
2813	0.8484
2822	0.8464
2831	0.8434
2840	0.8333
2849	0.824
2858	0.8145
2867	0.8027
2876	0.7871
2885	0.7721
2894	0.7579
2903	0.7365
2912	0.714
2921	0.7001
2930	0.6878
2939	0.661
2948	0.6343
2957	0.6105
2966	0.5985
2975	0.5798
2984	0.5457
2993	0.5301
3002	0.5167
3011	0.4038
3020	0.2917
3029	0.261
3038	0.3237
3047	0.413
3056	0.5019
3065	0.5902
3074	0.6781
3083	0.7646
3092	0.8065
3101	0.8469
3110	0.8635
3119	0.8715
3128	0.8769
3137	0.8801
3146	0.8812
3155	0.8825
3164	0.8837
3173	0.885
3182	0.8862
3191	0.8875
3200	0.8885
3209	0.8895
3218	0.8898
3227	0.89
3236	0.8892
3245	0.8882
3254	0.8872
3263	0.8862
3272	0.8853
3281	0.8858
3290	0.8866
3299	0.8878
3308	0.889
3317	0.8904
3326	0.8915
3335	0.8925
3344	0.8934
3353	0.8943
3362	0.895
3371	0.8956
3380	0.8959
3389	0.8957
3398	0.8954
3407	0.8949
3416	0.8933
3425	0.8918
3434	0.8899
3443	0.8879
3452	0.8859
3461	0.8837
3470	0.8814
3479	0.8775
3488	0.8731
3497	0.8682
3506	0.8619
3515	0.8559
3524	0.8501
3533	0.8445
3542	0.8396
3551	0.8347
3560	0.831
3569	0.83
3578	0.8311
3587	0.8334
3596	0.8436
3605	0.8537
3614	0.8638
3623	0.8738
3632	0.8838
3641	0.8937
3650	0.9036
3659	0.9164
3668	0.9269
3677	0.9342
3686	0.9408
3695	0.9472
3704	0.9515
3713	0.9536
3722	0.9558
3731	0.9575
3740	0.959
3749	0.9609
3758	0.9635
3767	0.9659
3776	0.9686
3785	0.9719
3794	0.9754
3803	0.9787
3812	0.9802
3821	0.9811
3830	0.982
3839	0.9829
3848	0.9838
3857	0.9847
3866	0.9856
3875	0.9865
3884	0.9871
3893	0.9871
3902	0.9872
3911	0.9872
3920	0.9877
3929	0.9887
3938	0.9899
3947	0.9914
3956	0.9928
3965	0.9924
3974	0.9921
3983	0.9914
3992	0.9903
