Infrared Spectrum: BENZIMIDAZOLE, 5-METHYL-2-(TRIFLUOROMETHYL)-
Formula: C9 H7 F3 N2
CAS: 399-77-9
State: SOLID (KBr DISC)
Class: COBLENTZ III
Instrument: UNICAM SP-200
Sampling: TRANSMISSION
Resolution: 2
Origin: FISONS LTD., VIA S.D.C. (DR. G. T. NEWBOLD)
1/CM	TRANSMITTANCE
653.462	0.95
665.078	0.949
676.694	0.942
688.309	0.928
699.925	0.917
711.541	0.902
723.157	0.874
734.773	0.652
746.388	0.737
758.004	0.915
769.62	0.829
781.236	0.87
792.852	0.867
804.467	0.7511
816.083	0.471
827.699	0.84
839.315	0.815
850.931	0.84
862.546	0.778
874.162	0.6789
885.778	0.734
897.394	0.755
909.01	0.787
920.625	0.818
932.241	0.843
943.857	0.847
955.473	0.757
967.089	0.806
978.704	0.687
990.32	0.6511
1001.94	0.323
1013.55	0.758
1025.17	0.85
1036.78	0.845
1048.4	0.794
1060.01	0.813
1071.63	0.798
1083.25	0.745
1094.86	0.65
1106.48	0.493
1118.09	0.167
1129.71	0.072
1141.33	0.216
1152.94	0.3889
1164.56	0.2
1176.17	0.037
1187.79	0.0509
1199.4	0.328
1211.02	0.589
1222.64	0.639
1234.25	0.5069
1245.87	0.703
1257.48	0.5741
1269.1	0.496
1280.72	0.517
1292.33	0.7899
1303.95	0.817
1315.56	0.49
1327.18	0.22
1338.79	0.703
1350.41	0.788
1362.03	0.681
1373.64	0.589
1385.26	0.583
1396.87	0.5471
1408.49	0.7149
1420.1	0.754
1431.72	0.733
1443.34	0.5561
1454.95	0.429
1466.57	0.307
1478.18	0.539
1489.8	0.635
1501.42	0.655
1513.03	0.762
1524.65	0.81
1536.26	0.7371
1547.88	0.54
1559.49	0.6799
1571.11	0.779
1582.73	0.748
1594.34	0.794
1605.96	0.859
1617.57	0.863
1629.19	0.814
1640.8	0.842
1652.42	0.853
1664.04	0.84
1675.65	0.838
1687.27	0.832
1698.88	0.833
1710.5	0.839
1722.12	0.839
1733.73	0.842
1745.35	0.859
1756.96	0.857
1768.58	0.867
1780.19	0.873
1791.81	0.877
1803.43	0.887
1815.04	0.892
1826.66	0.895
1838.27	0.894
1849.89	0.898
1861.51	0.9
1873.12	0.888
1884.74	0.901
1896.35	0.912
1907.97	0.923
1919.58	0.929
1931.2	0.931
1942.82	0.934
1954.43	0.937
1966.05	0.938
1977.66	0.939
1989.28	0.939
2000.89	0.9376
2012.51	0.935
2024.13	0.935
2035.74	0.935
2047.36	0.935
2058.97	0.934
2070.59	0.9331
2082.21	0.933
2093.82	0.933
2105.44	0.932
2117.05	0.931
2128.67	0.93
2140.28	0.93
2151.9	0.93
2163.52	0.929
2175.13	0.929
2186.75	0.9273
2198.36	0.9251
2209.98	0.9202
2221.59	0.91
2233.21	0.9072
2244.83	0.907
2256.44	0.905
2268.06	0.9002
2279.67	0.898
2291.29	0.8946
2302.91	0.8876
2314.52	0.885
2326.14	0.884
2337.75	0.8808
2349.37	0.8775
2360.98	0.876
2372.6	0.8613
2384.22	0.8303
2395.83	0.8083
2407.45	0.7882
2419.06	0.7793
2430.68	0.7592
2442.29	0.747
2453.91	0.738
2465.53	0.7244
2477.14	0.6985
2488.76	0.6729
2500.37	0.6534
2511.99	0.6323
2523.61	0.6031
2535.22	0.5981
2546.84	0.5932
2558.45	0.5766
2570.07	0.5625
2581.68	0.5366
2593.3	0.4976
2604.92	0.4743
2616.53	0.4691
2628.15	0.4635
2639.76	0.4448
2651.38	0.4286
2663	0.4201
2674.61	0.4041
2686.23	0.4
2697.84	0.398
2709.46	0.397
2721.07	0.397
2732.69	0.397
2744.31	0.397
2755.92	0.3972
2767.54	0.399
2779.15	0.399
2790.77	0.396
2802.38	0.3875
2814	0.386
2825.62	0.3868
2837.23	0.388
2848.85	0.39
2860.46	0.3906
2872.08	0.3979
2883.7	0.4016
2895.31	0.4065
2906.93	0.408
2918.54	0.408
2930.16	0.408
2941.77	0.4117
2953.39	0.4317
2965.01	0.4382
2976.62	0.4414
2988.24	0.443
2999.85	0.4469
3011.47	0.4492
3023.08	0.4655
3034.7	0.4985
3046.32	0.5396
3057.93	0.56
3069.55	0.5708
3081.16	0.5914
3092.78	0.6148
3104.4	0.6321
3116.01	0.6494
3127.63	0.6779
3139.24	0.6885
3150.86	0.7044
3162.47	0.7276
3174.09	0.7352
3185.71	0.7428
3197.32	0.7573
3208.94	0.7689
3220.55	0.7762
3232.17	0.7875
3243.79	0.7905
3255.4	0.795
3267.02	0.798
3278.63	0.8031
3290.25	0.8058
3301.86	0.8121
3313.48	0.8164
3325.1	0.8177
3336.71	0.818
3348.33	0.817
3359.94	0.816
3371.56	0.815
3383.17	0.816
3394.79	0.8163
3406.41	0.817
3418.02	0.818
3429.64	0.82
3441.25	0.821
3452.87	0.8227
3464.49	0.827
3476.1	0.83
3487.72	0.8355
3499.33	0.8388
3510.95	0.84
3522.56	0.84
3534.18	0.8416
3545.8	0.8468
3557.41	0.849
3569.03	0.849
3580.64	0.8507
3592.26	0.855
3603.87	0.858
3615.49	0.86
3627.11	0.8618
3638.72	0.8621
3650.34	0.864
3661.95	0.866
3673.57	0.867
3685.19	0.8682
3696.8	0.869
3708.42	0.869
3720.03	0.869
3731.65	0.869
3743.26	0.8686
3754.88	0.8681
3766.5	0.868
3778.11	0.868
3789.73	0.8697
3801.34	0.871
3812.96	0.8698
3824.58	0.868
3836.19	0.8672
3847.81	0.866
3859.42	0.866
3871.04	0.8654
3882.65	0.8631
3894.27	0.8598
3905.89	0.8571
3917.5	0.8523
3929.12	0.851
3940.73	0.849
3952.35	0.848
3963.96	0.847
3975.58	0.847
3987.2	0.847
3998.81	0.847
4010.43	0.848
4022.04	0.849
4033.66	0.849
4045.28	0.8482
4056.89	0.848
4068.51	0.847
4080.12	0.847
4091.74	0.847
4103.35	0.847
4114.97	0.847
4126.59	0.847
4138.2	0.846
4149.82	0.845
4161.43	0.844
4173.05	0.8432
4184.66	0.843
4196.28	0.8417
4207.9	0.8394
4219.51	0.839
4231.13	0.839
4242.74	0.839
4254.36	0.839
4265.98	0.837
4277.59	0.836
4289.21	0.833
4300.82	0.8312
4312.44	0.83
4324.05	0.828
4335.67	0.828
4347.29	0.828
4358.9	0.828
4370.52	0.828
4382.13	0.8287
4393.75	0.831
4405.36	0.828
4416.98	0.828
4428.6	0.828
4440.21	0.827
4451.83	0.827
4463.44	0.827
4475.06	0.827
4486.68	0.826
4498.29	0.825
4509.91	0.8232
4521.52	0.822
4533.14	0.822
4544.75	0.822
4556.37	0.822
4567.99	0.822
4579.6	0.821
4591.22	0.821
4602.83	0.82
4614.45	0.8187
4626.07	0.8175
4637.68	0.817
4649.3	0.817
4660.91	0.8166
4672.53	0.8153
4684.14	0.814
4695.76	0.8098
4707.38	0.809
4718.99	0.81
4730.61	0.812
4742.22	0.8127
4753.84	0.8104
4765.45	0.8082
4777.07	0.8057
4788.69	0.802
4800.3	0.801
4811.92	0.8
4823.53	0.799
4835.15	0.799
4846.77	0.799
4858.38	0.799
4870	0.798
4881.61	0.798
4893.23	0.798
4904.84	0.798
4916.46	0.798
4928.08	0.797
4939.69	0.797
4951.31	0.796
4962.92	0.796
4974.54	0.795
4986.15	0.795
4997.77	0.795
5009.39	0.795
