Infrared Spectrum: BENZIMIDAZOLE, 2,5-BIS(TRIFLUOROMETHYL)-
Formula: C9 H4 F6 N2
CAS: 399-69-9
State: SOLID (KBr DISC)
Class: COBLENTZ III
Instrument: UNICAM SP-200
Sampling: TRANSMISSION
Resolution: 2
Origin: FISONS LTD., VIA S.D.C. (DR. G. T. NEWBOLD)
1/CM	TRANSMITTANCE
657.172	0.911
668.771	0.895
680.37	0.5719
691.97	0.872
703.569	0.884
715.168	0.882
726.767	0.86
738.366	0.787
749.965	0.764
761.565	0.874
773.164	0.773
784.763	0.868
796.362	0.864
807.961	0.838
819.56	0.791
831.16	0.1415
842.759	0.71
854.358	0.733
865.957	0.754
877.556	0.762
889.155	0.726
900.755	0.4931
912.354	0.744
923.953	0.799
935.552	0.79
947.151	0.5011
958.75	0.769
970.35	0.77
981.949	0.713
993.548	0.1731
1005.15	0.816
1016.75	0.838
1028.35	0.841
1039.94	0.817
1051.54	0.735
1063.14	0.2469
1074.74	0.75
1086.34	0.689
1097.94	0.537
1109.54	0.3321
1121.14	0.022
1132.74	0.013
1144.34	0.014
1155.94	0.041
1167.54	0.014
1179.13	0.039
1190.73	0.099
1202.33	0.018
1213.93	0.048
1225.53	0.275
1237.13	0.424
1248.73	0.2852
1260.33	0.669
1271.93	0.687
1283.53	0.59
1295.13	0.685
1306.73	0.6521
1318.32	0.381
1329.92	0.175
1341.52	0.036
1353.12	0.12
1364.72	0.581
1376.32	0.694
1387.92	0.694
1399.52	0.569
1411.12	0.489
1422.72	0.589
1434.32	0.382
1445.92	0.712
1457.51	0.689
1469.11	0.52
1480.71	0.447
1492.31	0.691
1503.91	0.6871
1515.51	0.734
1527.11	0.764
1538.71	0.768
1550.31	0.459
1561.91	0.6598
1573.51	0.745
1585.11	0.764
1596.7	0.718
1608.3	0.759
1619.9	0.7151
1631.5	0.651
1643.1	0.727
1654.7	0.728
1666.3	0.718
1677.9	0.733
1689.5	0.746
1701.1	0.77
1712.7	0.785
1724.3	0.779
1735.89	0.79
1747.49	0.799
1759.09	0.778
1770.69	0.796
1782.29	0.828
1793.89	0.841
1805.49	0.841
1817.09	0.854
1828.69	0.857
1840.29	0.861
1851.89	0.864
1863.49	0.865
1875.08	0.863
1886.68	0.861
1898.28	0.863
1909.88	0.876
1921.48	0.884
1933.08	0.89
1944.68	0.891
1956.28	0.895
1967.88	0.898
1979.48	0.898
1991.08	0.895
2002.68	0.8991
2014.27	0.902
2025.87	0.903
2037.47	0.904
2049.07	0.9059
2060.67	0.906
2072.27	0.904
2083.87	0.9013
2095.47	0.901
2107.07	0.902
2118.67	0.9045
2130.27	0.9042
2141.87	0.901
2153.46	0.9
2165.06	0.9
2176.66	0.9
2188.26	0.9001
2199.86	0.9014
2211.46	0.904
2223.06	0.903
2234.66	0.8995
2246.26	0.8965
2257.86	0.8924
2269.46	0.8877
2281.06	0.8777
2292.65	0.8722
2304.25	0.8661
2315.85	0.864
2327.45	0.864
2339.05	0.8633
2350.65	0.862
2362.25	0.858
2373.85	0.8472
2385.45	0.8207
2397.05	0.8116
2408.65	0.7818
2420.25	0.7684
2431.84	0.7593
2443.44	0.7376
2455.04	0.7345
2466.64	0.7295
2478.24	0.7059
2489.84	0.6847
2501.44	0.6667
2513.04	0.6441
2524.64	0.6133
2536.24	0.5839
2547.84	0.566
2559.44	0.564
2571.03	0.5565
2582.63	0.5345
2594.23	0.5073
2605.83	0.4767
2617.43	0.4561
2629.03	0.4185
2640.63	0.3773
2652.23	0.3789
2663.83	0.3977
2675.43	0.4
2687.03	0.3912
2698.63	0.3766
2710.22	0.3399
2721.82	0.3252
2733.42	0.3241
2745.02	0.3263
2756.62	0.3286
2768.22	0.3519
2779.82	0.3665
2791.42	0.3686
2803.02	0.3591
2814.62	0.3471
2826.22	0.3327
2837.82	0.3567
2849.41	0.3692
2861.01	0.3598
2872.61	0.3529
2884.21	0.3372
2895.81	0.3321
2907.41	0.3829
2919.01	0.392
2930.61	0.3821
2942.21	0.3689
2953.81	0.3597
2965.41	0.3606
2977.01	0.3807
2988.6	0.387
3000.2	0.3829
3011.8	0.381
3023.4	0.381
3035	0.3976
3046.6	0.4149
3058.2	0.4295
3069.8	0.4421
3081.4	0.4559
3093	0.4854
3104.6	0.5254
3116.2	0.5491
3127.79	0.5705
3139.39	0.6064
3150.99	0.6177
3162.59	0.6313
3174.19	0.6745
3185.79	0.6898
3197.39	0.7171
3208.99	0.721
3220.59	0.7236
3232.19	0.729
3243.79	0.7312
3255.39	0.7324
3266.98	0.7381
3278.58	0.745
3290.18	0.7485
3301.78	0.751
3313.38	0.752
3324.98	0.7551
3336.58	0.757
3348.18	0.759
3359.78	0.759
3371.38	0.758
3382.98	0.757
3394.58	0.757
3406.17	0.758
3417.77	0.759
3429.37	0.7606
3440.97	0.763
3452.57	0.7682
3464.17	0.7734
3475.77	0.778
3487.37	0.7809
3498.97	0.7844
3510.57	0.7875
3522.17	0.789
3533.77	0.791
3545.36	0.7963
3556.96	0.7996
3568.56	0.8027
3580.16	0.809
3591.76	0.8104
3603.36	0.8163
3614.96	0.8248
3626.56	0.828
3638.16	0.829
3649.76	0.831
3661.36	0.832
3672.96	0.832
3684.55	0.832
3696.15	0.832
3707.75	0.832
3719.35	0.832
3730.95	0.832
3742.55	0.832
3754.15	0.8333
3765.75	0.834
3777.35	0.834
3788.95	0.833
3800.55	0.8327
3812.15	0.832
3823.74	0.8339
3835.34	0.8348
3846.94	0.833
3858.54	0.8313
3870.14	0.83
3881.74	0.828
3893.34	0.828
3904.94	0.8252
3916.54	0.824
3928.14	0.824
3939.74	0.824
3951.34	0.824
3962.93	0.8218
3974.53	0.8181
3986.13	0.816
3997.73	0.814
4009.33	0.8117
4020.93	0.81
4032.53	0.81
4044.13	0.809
4055.73	0.8104
4067.33	0.8117
4078.93	0.813
4090.53	0.812
4102.12	0.812
4113.72	0.8112
4125.32	0.81
4136.92	0.81
4148.52	0.81
4160.12	0.8101
4171.72	0.809
4183.32	0.809
4194.92	0.8073
4206.52	0.805
4218.12	0.805
4229.72	0.805
4241.31	0.805
4252.91	0.806
4264.51	0.8057
4276.11	0.8044
4287.71	0.804
4299.31	0.803
4310.91	0.8016
4322.51	0.801
4334.11	0.8
4345.71	0.799
4357.31	0.799
4368.91	0.799
4380.5	0.799
4392.1	0.799
4403.7	0.8
4415.3	0.801
4426.9	0.801
4438.5	0.801
4450.1	0.801
4461.7	0.799
4473.3	0.798
4484.9	0.7964
4496.5	0.7932
4508.1	0.7919
4519.69	0.79
4531.29	0.79
4542.89	0.7909
4554.49	0.7942
4566.09	0.795
4577.69	0.794
4589.29	0.7889
4600.89	0.7857
4612.49	0.784
4624.09	0.784
4635.69	0.7839
4647.29	0.7826
4658.88	0.7813
4670.48	0.783
4682.08	0.784
4693.68	0.782
4705.28	0.778
4716.88	0.776
4728.48	0.7743
4740.08	0.778
4751.68	0.7799
4763.28	0.7788
4774.88	0.7766
4786.48	0.776
4798.07	0.777
4809.67	0.778
4821.27	0.778
4832.87	0.778
4844.47	0.779
4856.07	0.779
4867.67	0.7774
4879.27	0.7779
4890.87	0.778
4902.47	0.7765
4914.07	0.778
4925.67	0.774
4937.26	0.774
4948.86	0.775
4960.46	0.777
4972.06	0.777
4983.66	0.7746
4995.26	0.774
5006.86	0.7731
