Infrared Spectrum: 4-Fluoro-2-methylanisole
Formula: C 8 H 9 F O
CAS: 399-54-2
State: gas
Origin: EPA-IR VAPOR PHASE LIBRARY
1/CM	ABSORBANCE
549.8	0.00253
559.445	0.00543
569.09	0.00848
578.734	0.0076
588.379	0.00399
598.024	0.0018553
607.669	0.0014308
617.313	0.00149
626.958	0.000992
636.603	0.00132122
646.248	0.001664
655.893	0.0016439
665.537	0.0017128
675.182	0.0017649
684.827	0.00345
694.472	0.00792
704.116	0.03413
713.761	0.05208
723.406	0.03106
733.051	0.00851
742.695	0.01381
752.34	0.01616
761.985	0.01064
771.63	0.00663
781.275	0.01188
790.919	0.02182
800.564	0.03416
810.209	0.02767
819.854	0.01699
829.498	0.00723
839.143	0.00646
848.788	0.0145
858.433	0.02917
868.078	0.04384
877.722	0.02128
887.367	0.00632
897.012	0.00308
906.657	0.00365
916.301	0.00407
925.946	0.00551
935.591	0.01321
945.236	0.02735
954.88	0.02871
964.525	0.01622
974.17	0.01344
983.815	0.01766
993.46	0.02371
1003.1	0.02796
1012.75	0.03112
1022.39	0.04421
1032.04	0.05798
1041.68	0.05406
1051.33	0.0345
1060.97	0.01467
1070.62	0.00823
1080.26	0.00664
1089.91	0.00878
1099.55	0.01736
1109.2	0.01701
1118.84	0.01325
1128.49	0.00908
1138.13	0.01626
1147.78	0.02562
1157.42	0.02888
1167.07	0.03814
1176.71	0.05319
1186.36	0.05836
1196	0.07746
1205.64	0.17368
1215.29	0.25428
1224.93	0.18099
1234.58	0.05734
1244.22	0.05408
1253.87	0.07534
1263.51	0.06841
1273.16	0.04306
1282.8	0.03218
1292.45	0.02141
1302.09	0.01748
1311.74	0.01155
1321.38	0.00691
1331.03	0.00524
1340.67	0.00504
1350.32	0.00536
1359.96	0.0055
1369.61	0.00628
1379.25	0.00842
1388.9	0.00996
1398.54	0.01236
1408.18	0.02658
1417.83	0.0394
1427.47	0.03928
1437.12	0.03695
1446.76	0.03639
1456.41	0.03693
1466.05	0.04973
1475.7	0.06885
1485.34	0.13579
1494.99	0.25862
1504.63	0.2623
1514.28	0.12953
1523.92	0.04375
1533.57	0.02327
1543.21	0.01691
1552.86	0.01322
1562.5	0.01148
1572.15	0.01111
1581.79	0.01268
1591.44	0.01691
1601.08	0.01961
1610.73	0.01807
1620.37	0.01419
1630.01	0.00912
1639.66	0.00565
1649.3	0.00455
1658.95	0.00422
1668.59	0.00448
1678.24	0.00448
1687.88	0.00408
1697.53	0.00428
1707.17	0.00392
1716.82	0.00485
1726.46	0.00579
1736.11	0.00433
1745.75	0.00303
1755.4	0.0024
1765.04	0.00225
1774.69	0.0022243
1784.33	0.0019127
1793.98	0.00227
1803.62	0.00336
1813.27	0.0043
1822.91	0.00438
1832.55	0.00395
1842.2	0.00371
1851.84	0.0034
1861.49	0.00284
1871.13	0.0021939
1880.78	0.0016857
1890.42	0.0018951
1900.07	0.0018142
1909.71	0.0021483
1919.36	0.0018554
1929	0.00235
1938.65	0.0022277
1948.29	0.00276
1957.94	0.00372
1967.58	0.00451
1977.23	0.00433
1986.87	0.00432
1996.52	0.00484
2006.16	0.0046
2015.81	0.00401
2025.45	0.00356
2035.1	0.00358
2044.74	0.0035
2054.38	0.00346
2064.03	0.00329
2073.67	0.00319
2083.32	0.00298
2092.96	0.00262
2102.61	0.002199
2112.25	0.0019957
2121.9	0.0021312
2131.54	0.0019452
2141.19	0.0021654
2150.83	0.00236
2160.48	0.00255
2170.12	0.00252
2179.77	0.0020923
2189.41	0.0020879
2199.06	0.0019527
2208.7	0.0020929
2218.35	0.00239
2227.99	0.00252
2237.64	0.00254
2247.28	0.0029
2256.92	0.00278
2266.57	0.00245
2276.21	0.00229
2285.86	0.0016104
2295.5	0.00239
2305.15	0.0018944
2314.79	0.0018685
2324.44	0.0019779
2334.08	0.002164
2343.73	0.0018002
2353.37	0.0020678
2363.02	0.0021344
2372.66	0.0021868
2382.31	0.00245
2391.95	0.00244
2401.6	0.0017932
2411.24	0.0022357
2420.89	0.00255
2430.53	0.00249
2440.18	0.0021806
2449.82	0.00263
2459.47	0.00274
2469.11	0.00267
2478.75	0.00312
2488.4	0.00269
2498.04	0.00314
2507.69	0.00318
2517.33	0.00319
2526.98	0.00283
2536.62	0.0023
2546.27	0.00249
2555.91	0.0020427
2565.56	0.00247
2575.2	0.0021958
2584.85	0.0017776
2594.49	0.00231
2604.14	0.00228
2613.78	0.00237
2623.43	0.0019578
2633.07	0.0020933
2642.72	0.0016137
2652.36	0.0017213
2662.01	0.0021937
2671.65	0.0019686
2681.29	0.0018489
2690.94	0.0017537
2700.58	0.0020603
2710.23	0.0021643
2719.87	0.0020838
2729.52	0.00268
2739.16	0.00303
2748.81	0.00335
2758.45	0.0031
2768.1	0.00312
2777.74	0.00308
2787.39	0.00344
2797.03	0.00517
2806.68	0.00688
2816.32	0.00894
2825.97	0.01419
2835.61	0.02502
2845.26	0.0295
2854.9	0.02415
2864.55	0.01994
2874.19	0.01886
2883.84	0.01918
2893.48	0.02172
2903.12	0.02747
2912.77	0.03531
2922.41	0.04108
2932.06	0.04977
2941.7	0.06013
2951.35	0.05926
2960.99	0.04797
2970.64	0.03453
2980.28	0.02993
2989.93	0.03037
2999.57	0.03709
3009.22	0.03295
3018.86	0.01971
3028.51	0.01436
3038.15	0.01615
3047.8	0.01822
3057.44	0.01614
3067.09	0.01295
3076.73	0.01211
3086.38	0.01075
3096.02	0.00792
3105.67	0.0061
3115.31	0.00571
3124.95	0.00538
3134.6	0.00344
3144.24	0.0031
3153.89	0.00258
3163.53	0.00291
3173.18	0.0021098
3182.82	0.00268
3192.47	0.0017907
3202.11	0.001528
3211.76	0.0015714
3221.4	0.001103
3231.05	0.0018522
3240.69	0.0012124
3250.34	0.001704
3259.98	0.0011563
3269.63	0.0012037
3279.27	0.0019806
3288.92	0.000977
3298.56	0.0013829
3308.21	0.0013575
3317.85	0.0012294
3327.49	0.001128
3337.14	0.00124798
3346.78	0.0014138
3356.43	0.0016852
3366.07	0.0015285
3375.72	0.001041
3385.36	0.0012227
3395.01	0.000578
3404.65	0.000786
3414.3	0.00131853
3423.94	0.0011651
3433.59	0.0011471
3443.23	0.000824
3452.88	0.001086
3462.52	0.0012399
3472.17	0.00130389
3481.81	0.001007
3491.46	0.0014641
3501.1	0.00132682
3510.75	0.0016734
3520.39	0.000715
3530.04	0.0016107
3539.68	0.000919
3549.32	0.000779
3558.97	0.0013451
3568.61	0.000363
3578.26	0.0016818
3587.9	0.0013811
3597.55	0.000986
3607.19	0.000612
3616.84	0.0011589
3626.48	0.001122
3636.13	0.000855
3645.77	0.0012109
3655.42	0.000641
3665.06	0.000533
3674.71	0.000859
3684.35	0.0012575
3694	0.000849
3703.64	0.0015871
3713.29	0.000749
3722.93	0.001053
3732.58	0.001072
3742.22	0.0013867
3751.86	0.000685
3761.51	0.00127466
3771.15	0.000598
3780.8	0.000881
3790.44	0.0017184
3800.09	0.0013554
3809.73	0.001057
3819.38	0.000805
3829.02	0.0014457
3838.67	0.0014548
3848.31	0.0017282
3857.96	0.00062
3867.6	0.0017005
3877.25	0.0014622
3886.89	0.000986
3896.54	0.0021923
3906.18	0.0016753
3915.83	0.000311
3925.47	0.001548
3935.12	0.0017831
3944.76	0.0017568
3954.41	0.0017874
3964.05	0.001041
3973.69	0.0015691
3983.34	0.0013848
3992.98	0.0018094
