Infrared Spectrum: 2-Fluoro-4-methylanisole
Formula: C 8 H 9 F O
CAS: 399-55-3
State: gas
Origin: EPA-IR VAPOR PHASE LIBRARY
1/CM	ABSORBANCE
549.8	0.0006564
559.445	0.0010856
569.09	0.003871
578.734	0.008531
588.379	0.012251
598.024	0.007261
607.669	0.003081
617.313	0.0009179
626.958	0.0003489
636.603	0.00026582
646.248	0.00027194
655.893	0.00041
665.537	0.00023423
675.182	0.0001087
684.827	0.0003144
694.472	0.0009524
704.116	0.002391
713.761	0.003991
723.406	0.004441
733.051	0.004561
742.695	0.009541
752.34	0.018481
761.985	0.017511
771.63	0.008241
781.275	0.007301
790.919	0.013151
800.564	0.020711
810.209	0.024321
819.854	0.019441
829.498	0.010351
839.143	0.006021
848.788	0.008281
858.433	0.014581
868.078	0.008551
877.722	0.004191
887.367	0.001661
897.012	0.001361
906.657	0.001921
916.301	0.004391
925.946	0.011481
935.591	0.017781
945.236	0.015811
954.88	0.007081
964.525	0.005641
974.17	0.007091
983.815	0.009811
993.46	0.013391
1003.1	0.019271
1012.75	0.032031
1022.39	0.041621
1032.04	0.036171
1041.68	0.023521
1051.33	0.014991
1060.97	0.008431
1070.62	0.005201
1080.26	0.003681
1089.91	0.004101
1099.55	0.006641
1109.2	0.018301
1118.84	0.035291
1128.49	0.041621
1138.13	0.030881
1147.78	0.014471
1157.42	0.007581
1167.07	0.007001
1176.71	0.009441
1186.36	0.011351
1196	0.011741
1205.64	0.018131
1215.29	0.035441
1224.93	0.055351
1234.58	0.051781
1244.22	0.032331
1253.87	0.034201
1263.51	0.068441
1273.16	0.109001
1282.8	0.138411
1292.45	0.122661
1302.09	0.065531
1311.74	0.033771
1321.38	0.018391
1331.03	0.009811
1340.67	0.006711
1350.32	0.005141
1359.96	0.004491
1369.61	0.004511
1379.25	0.004981
1388.9	0.005661
1398.54	0.006981
1408.18	0.010561
1417.83	0.017311
1427.47	0.024561
1437.12	0.032251
1446.76	0.031951
1456.41	0.026571
1466.05	0.023681
1475.7	0.020301
1485.34	0.019401
1494.99	0.040241
1504.63	0.107161
1514.28	0.168711
1523.92	0.141711
1533.57	0.067021
1543.21	0.026681
1552.86	0.016421
1562.5	0.015201
1572.15	0.017711
1581.79	0.020521
1591.44	0.018051
1601.08	0.010721
1610.73	0.007501
1620.37	0.007981
1630.01	0.007361
1639.66	0.004491
1649.3	0.002921
1658.95	0.002321
1668.59	0.001911
1678.24	0.001721
1687.88	0.001791
1697.53	0.002181
1707.17	0.002961
1716.82	0.003121
1726.46	0.002561
1736.11	0.001701
1745.75	0.001481
1755.4	0.001341
1765.04	0.001331
1774.69	0.001601
1784.33	0.001771
1793.98	0.001561
1803.62	0.001271
1813.27	0.0009618
1822.91	0.0011377
1832.55	0.001611
1842.2	0.001901
1851.84	0.001991
1861.49	0.002121
1871.13	0.002071
1880.78	0.001721
1890.42	0.0011586
1900.07	0.0009302
1909.71	0.0007532
1919.36	0.0006841
1929	0.000786
1938.65	0.0008642
1948.29	0.0009495
1957.94	0.001014
1967.58	0.0011655
1977.23	0.001491
1986.87	0.001681
1996.52	0.001781
2006.16	0.002011
2015.81	0.002691
2025.45	0.003561
2035.1	0.003961
2044.74	0.003451
2054.38	0.002481
2064.03	0.001941
2073.67	0.001601
2083.32	0.001146
2092.96	0.0008683
2102.61	0.0006657
2112.25	0.0005533
2121.9	0.0004207
2131.54	0.0005563
2141.19	0.0005668
2150.83	0.0005747
2160.48	0.0006261
2170.12	0.0006809
2179.77	0.0005866
2189.41	0.0006412
2199.06	0.000697
2208.7	0.0007317
2218.35	0.0007263
2227.99	0.0007956
2237.64	0.0008172
2247.28	0.0010706
2256.92	0.001341
2266.57	0.001671
2276.21	0.001641
2285.86	0.001311
2295.5	0.0009689
2305.15	0.000802
2314.79	0.0007855
2324.44	0.0007814
2334.08	0.0008413
2343.73	0.0007755
2353.37	0.0007577
2363.02	0.0009808
2372.66	0.0009812
2382.31	0.0010146
2391.95	0.0009139
2401.6	0.0008356
2411.24	0.0008712
2420.89	0.0008238
2430.53	0.000751
2440.18	0.0007432
2449.82	0.0006928
2459.47	0.0006035
2469.11	0.0006165
2478.75	0.0008083
2488.4	0.0008821
2498.04	0.0010625
2507.69	0.001221
2517.33	0.001311
2526.98	0.001551
2536.62	0.001741
2546.27	0.001781
2555.91	0.001871
2565.56	0.001941
2575.2	0.001751
2584.85	0.001531
2594.49	0.0010723
2604.14	0.0008266
2613.78	0.0007406
2623.43	0.0007039
2633.07	0.0007532
2642.72	0.0007516
2652.36	0.0007507
2662.01	0.0006371
2671.65	0.0006298
2681.29	0.0006634
2690.94	0.0007328
2700.58	0.0008171
2710.23	0.0008504
2719.87	0.0009785
2729.52	0.0011564
2739.16	0.001711
2748.81	0.001891
2758.45	0.001551
2768.1	0.001371
2777.74	0.001601
2787.39	0.002011
2797.03	0.002631
2806.68	0.003491
2816.32	0.004781
2825.97	0.007231
2835.61	0.013471
2845.26	0.018541
2854.9	0.016991
2864.55	0.014161
2874.19	0.016481
2883.84	0.016711
2893.48	0.015901
2903.12	0.018201
2912.77	0.022831
2922.41	0.030021
2932.06	0.039781
2941.7	0.042421
2951.35	0.035221
2960.99	0.027901
2970.64	0.022581
2980.28	0.019591
2989.93	0.019401
2999.57	0.023641
3009.22	0.026851
3018.86	0.022811
3028.51	0.018161
3038.15	0.019011
3047.8	0.018281
3057.44	0.014771
3067.09	0.011421
3076.73	0.008781
3086.38	0.006881
3096.02	0.004911
3105.67	0.003671
3115.31	0.002681
3124.95	0.002071
3134.6	0.001571
3144.24	0.001281
3153.89	0.0010168
3163.53	0.0008637
3173.18	0.0006834
3182.82	0.0006091
3192.47	0.0006069
3202.11	0.0005706
3211.76	0.000421
3221.4	0.0004347
3231.05	0.00021916
3240.69	0.0003222
3250.34	0.0004035
3259.98	0.0002945
3269.63	0.00024987
3279.27	0.00027887
3288.92	0.00026905
3298.56	0.00027049
3308.21	0.0003172
3317.85	0.00028815
3327.49	0.0003375
3337.14	0.0002944
3346.78	0.0002562
3356.43	0.00020985
3366.07	0.00024341
3375.72	0.0001383
3385.36	0.0001108
3395.01	0.00022748
3404.65	0.0001441
3414.3	0.00022583
3423.94	0.0001206
3433.59	0.0001804
3443.23	0.0001765
3452.88	0.0001683
3462.52	0.00027439
3472.17	0.0001584
3481.81	0.0001602
3491.46	0.0002502
3501.1	0.000186
3510.75	0.00020109
3520.39	0.000195834
3530.04	0.0001634
3539.68	0.0001054
3549.32	0.0001187
3558.97	0.0001768
3568.61	0.0001633
3578.26	0.0001615
3587.9	0.000109
3597.55	0.000133
3607.19	0.0001829
3616.84	0.00023154
3626.48	0.0001494
3636.13	0.00029059
3645.77	0.0001218
3655.42	0.00018604
3665.06	9.75e-05
3674.71	1.1e-05
3684.35	8.2e-05
3694	0.0002439
3703.64	0.0001253
3713.29	0.000239
3722.93	0.00022649
3732.58	5.4e-05
3742.22	0.0001562
3751.86	0.0002611
3761.51	0.00022912
3771.15	0.000396
3780.8	0.00024271
3790.44	0.0004136
3800.09	0.0003913
3809.73	0.000333
3819.38	0.00028654
3829.02	0.00026525
3838.67	0.00020392
3848.31	0.0003934
3857.96	0.00028117
3867.6	0.0005064
3877.25	0.0004201
3886.89	0.0003523
3896.54	0.0003812
3906.18	0.0003556
3915.83	0.0004386
3925.47	0.0004413
3935.12	0.0004196
3944.76	0.0005648
3954.41	0.0005238
3964.05	0.0006993
3973.69	0.0006529
3983.34	0.0005914
3992.98	0.0005479
