Infrared Spectrum: p-Octyloxyaniline
Formula: C 14 H 23 N O
CAS: 39905-45-8
State: gas
Origin: EPA-IR VAPOR PHASE LIBRARY
1/CM	ABSORBANCE
549.8	0.01248
559.445	0.01156
569.09	0.01072
578.734	0.01021
588.379	0.01018
598.024	0.01086
607.669	0.01194
617.313	0.01346
626.958	0.01615
636.603	0.02165
646.248	0.03109
655.893	0.03415
665.537	0.02697
675.182	0.02294
684.827	0.02283
694.472	0.02265
704.116	0.0231
713.761	0.02347
723.406	0.02226
733.051	0.02022
742.695	0.01774
752.34	0.01612
761.985	0.01464
771.63	0.01302
781.275	0.01297
790.919	0.01543
800.564	0.02056
810.209	0.03437
819.854	0.04565
829.498	0.0325
839.143	0.02118
848.788	0.01519
858.433	0.01183
868.078	0.0096
877.722	0.00852
887.367	0.00835
897.012	0.00854
906.657	0.00876
916.301	0.00796
925.946	0.00772
935.591	0.00744
945.236	0.00836
954.88	0.01029
964.525	0.01325
974.17	0.01525
983.815	0.01746
993.46	0.01939
1003.1	0.0214
1012.75	0.02615
1022.39	0.03279
1032.04	0.0409
1041.68	0.04309
1051.33	0.03661
1060.97	0.02905
1070.62	0.02523
1080.26	0.02098
1089.91	0.01686
1099.55	0.01308
1109.2	0.0134
1118.84	0.01493
1128.49	0.01304
1138.13	0.00888
1147.78	0.00726
1157.42	0.0099
1167.07	0.01783
1176.71	0.01376
1186.36	0.01898
1196	0.03427
1205.64	0.05326
1215.29	0.09075
1224.93	0.15855
1234.58	0.22492
1244.22	0.1589
1253.87	0.08414
1263.51	0.05877
1273.16	0.03526
1282.8	0.02864
1292.45	0.02565
1302.09	0.02173
1311.74	0.01689
1321.38	0.01447
1331.03	0.01213
1340.67	0.0104
1350.32	0.01016
1359.96	0.00988
1369.61	0.01124
1379.25	0.01903
1388.9	0.02197
1398.54	0.01256
1408.18	0.00889
1417.83	0.00878
1427.47	0.01017
1437.12	0.01372
1446.76	0.01836
1456.41	0.02515
1466.05	0.03415
1475.7	0.04565
1485.34	0.03453
1494.99	0.06486
1504.63	0.21896
1514.28	0.26432
1523.92	0.0707
1533.57	0.02424
1543.21	0.01211
1552.86	0.00875
1562.5	0.00752
1572.15	0.00734
1581.79	0.00879
1591.44	0.01125
1601.08	0.01587
1610.73	0.02971
1620.37	0.03328
1630.01	0.02618
1639.66	0.0139
1649.3	0.00782
1658.95	0.00527
1668.59	0.00392
1678.24	0.00312
1687.88	0.00276
1697.53	0.00269
1707.17	0.00277
1716.82	0.00325
1726.46	0.00327
1736.11	0.00277
1745.75	0.00248
1755.4	0.00232
1765.04	0.00211
1774.69	0.00207
1784.33	0.00211
1793.98	0.00231
1803.62	0.00241
1813.27	0.00267
1822.91	0.00299
1832.55	0.00343
1842.2	0.00382
1851.84	0.00382
1861.49	0.00334
1871.13	0.00259
1880.78	0.00212
1890.42	0.00189
1900.07	0.00203
1909.71	0.00216
1919.36	0.00231
1929	0.00226
1938.65	0.00223
1948.29	0.00234
1957.94	0.00245
1967.58	0.00254
1977.23	0.00269
1986.87	0.00268
1996.52	0.0027
2006.16	0.00263
2015.81	0.00263
2025.45	0.00263
2035.1	0.00264
2044.74	0.00261
2054.38	0.00255
2064.03	0.00256
2073.67	0.00243
2083.32	0.00225
2092.96	0.00196
2102.61	0.00161
2112.25	0.00126
2121.9	0.00105
2131.54	0.0009942
2141.19	0.0009925
2150.83	0.0009409
2160.48	0.0009005
2170.12	0.0008468
2179.77	0.0007956
2189.41	0.000768
2199.06	0.0007655
2208.7	0.0007848
2218.35	0.0008099
2227.99	0.0008392
2237.64	0.0009502
2247.28	0.00109
2256.92	0.00101
2266.57	0.00112
2276.21	0.00118
2285.86	0.0012
2295.5	0.00116
2305.15	0.00124
2314.79	0.00129
2324.44	0.00147
2334.08	0.00157
2343.73	0.00163
2353.37	0.0018
2363.02	0.00155
2372.66	0.00123
2382.31	0.00123
2391.95	0.00129
2401.6	0.00133
2411.24	0.00124
2420.89	0.00127
2430.53	0.00128
2440.18	0.0014
2449.82	0.00152
2459.47	0.00169
2469.11	0.00169
2478.75	0.00149
2488.4	0.00136
2498.04	0.00139
2507.69	0.00158
2517.33	0.00173
2526.98	0.00169
2536.62	0.00148
2546.27	0.00134
2555.91	0.00116
2565.56	0.00118
2575.2	0.00134
2584.85	0.00153
2594.49	0.00165
2604.14	0.0016
2613.78	0.00163
2623.43	0.00156
2633.07	0.0018
2642.72	0.00193
2652.36	0.00212
2662.01	0.00232
2671.65	0.00259
2681.29	0.00276
2690.94	0.00278
2700.58	0.0028
2710.23	0.00291
2719.87	0.00308
2729.52	0.00366
2739.16	0.00429
2748.81	0.00453
2758.45	0.00425
2768.1	0.00417
2777.74	0.0044
2787.39	0.00493
2797.03	0.0059
2806.68	0.00683
2816.32	0.00883
2825.97	0.01179
2835.61	0.01687
2845.26	0.02836
2854.9	0.05423
2864.55	0.0807
2874.19	0.07798
2883.84	0.06895
2893.48	0.06189
2903.12	0.07379
2912.77	0.1
2922.41	0.14187
2932.06	0.18986
2941.7	0.17886
2951.35	0.13393
2960.99	0.10807
2970.64	0.08719
2980.28	0.04501
2989.93	0.02627
2999.57	0.02157
3009.22	0.02328
3018.86	0.02198
3028.51	0.02365
3038.15	0.03079
3047.8	0.02025
3057.44	0.0115
3067.09	0.01066
3076.73	0.0094
3086.38	0.00763
3096.02	0.00661
3105.67	0.00604
3115.31	0.00488
3124.95	0.00362
3134.6	0.00271
3144.24	0.0021
3153.89	0.0016
3163.53	0.00151
3173.18	0.00143
3182.82	0.00112
3192.47	0.00128
3202.11	0.0012
3211.76	0.00148
3221.4	0.00127
3231.05	0.00114
3240.69	0.00104
3250.34	0.0009518
3259.98	0.0009874
3269.63	0.0009438
3279.27	0.0007851
3288.92	0.0005767
3298.56	0.0006317
3308.21	0.0004257
3317.85	0.0003556
3327.49	0.0003892
3337.14	0.0001864
3346.78	0.0003691
3356.43	0.0005334
3366.07	0.0008688
3375.72	0.00125
3385.36	0.00263
3395.01	0.0048
3404.65	0.00594
3414.3	0.00282
3423.94	0.00166
3433.59	0.00148
3443.23	0.00165
3452.88	0.00219
3462.52	0.0029
3472.17	0.00401
3481.81	0.00455
3491.46	0.00348
3501.1	0.00219
3510.75	0.00118
3520.39	0.0007128
3530.04	0.0006551
3539.68	0.0004875
3549.32	0.0002391
3558.97	0.0002447
3568.61	0.0002873
3578.26	0.0002882
3587.9	0.0003656
3597.55	0.0001574
3607.19	0.0004883
3616.84	0.0004292
3626.48	0.000502
3636.13	0.0004755
3645.77	0.0005661
3655.42	0.0005008
3665.06	0.0004894
3674.71	0.0005554
3684.35	0.0005786
3694	0.0004181
3703.64	0.0005958
3713.29	0.0004488
3722.93	0.0003789
3732.58	0.0004532
3742.22	0.0004597
3751.86	0.0005022
3761.51	0.0003014
3771.15	0.0005162
3780.8	0.000572
3790.44	0.0004898
3800.09	0.0006225
3809.73	0.0006427
3819.38	0.0006507
3829.02	0.0006468
3838.67	0.0006522
3848.31	0.0006462
3857.96	0.0005463
3867.6	0.0005582
3877.25	0.0007238
3886.89	0.0009772
3896.54	0.00101
3906.18	0.00103
3915.83	0.00101
3925.47	0.000881
3935.12	0.0009846
3944.76	0.0008978
3954.41	0.0008408
3964.05	0.0008398
3973.69	0.001
3983.34	0.00108
3992.98	0.00124
