Infrared Spectrum: p-Decyloxyaniline
Formula: C 16 H 27 N O
CAS: 39905-47-0
State: gas
Origin: EPA-IR VAPOR PHASE LIBRARY
1/CM	ABSORBANCE
549.8	0.006655
559.445	0.006255
569.09	0.005885
578.734	0.005205
588.379	0.005625
598.024	0.005825
607.669	0.006355
617.313	0.007195
626.958	0.008405
636.603	0.011535
646.248	0.016765
655.893	0.018175
665.537	0.014175
675.182	0.012335
684.827	0.012245
694.472	0.012335
704.116	0.012555
713.761	0.013165
723.406	0.012245
733.051	0.011395
742.695	0.009905
752.34	0.008545
761.985	0.008175
771.63	0.007495
781.275	0.007065
790.919	0.008575
800.564	0.010955
810.209	0.018425
819.854	0.024635
829.498	0.017035
839.143	0.011395
848.788	0.008055
858.433	0.006245
868.078	0.005345
877.722	0.004825
887.367	0.004695
897.012	0.004565
906.657	0.004645
916.301	0.004325
925.946	0.004425
935.591	0.005085
945.236	0.005485
954.88	0.005605
964.525	0.005665
974.17	0.006215
983.815	0.007965
993.46	0.010355
1003.1	0.013085
1012.75	0.016295
1022.39	0.018525
1032.04	0.020475
1041.68	0.020675
1051.33	0.019715
1060.97	0.016185
1070.62	0.013435
1080.26	0.011595
1089.91	0.008495
1099.55	0.006805
1109.2	0.006645
1118.84	0.008285
1128.49	0.006845
1138.13	0.004455
1147.78	0.004135
1157.42	0.005215
1167.07	0.009745
1176.71	0.007475
1186.36	0.009835
1196	0.017855
1205.64	0.028495
1215.29	0.048795
1224.93	0.083055
1234.58	0.120035
1244.22	0.084705
1253.87	0.044055
1263.51	0.031705
1273.16	0.018935
1282.8	0.015265
1292.45	0.014015
1302.09	0.012135
1311.74	0.009535
1321.38	0.008155
1331.03	0.006975
1340.67	0.006235
1350.32	0.006455
1359.96	0.006225
1369.61	0.006695
1379.25	0.010375
1388.9	0.011925
1398.54	0.006845
1408.18	0.004895
1417.83	0.004795
1427.47	0.005795
1437.12	0.008015
1446.76	0.011245
1456.41	0.015515
1466.05	0.020235
1475.7	0.025225
1485.34	0.018725
1494.99	0.034825
1504.63	0.117065
1514.28	0.139915
1523.92	0.038015
1533.57	0.013395
1543.21	0.006695
1552.86	0.004795
1562.5	0.004005
1572.15	0.003965
1581.79	0.004735
1591.44	0.005935
1601.08	0.008455
1610.73	0.015825
1620.37	0.017845
1630.01	0.013855
1639.66	0.007455
1649.3	0.004205
1658.95	0.002805
1668.59	0.002085
1678.24	0.001665
1687.88	0.001485
1697.53	0.001445
1707.17	0.001485
1716.82	0.001655
1726.46	0.001795
1736.11	0.001385
1745.75	0.001245
1755.4	0.001155
1765.04	0.001075
1774.69	0.001045
1784.33	0.001115
1793.98	0.001215
1803.62	0.001365
1813.27	0.001515
1822.91	0.001605
1832.55	0.001885
1842.2	0.002035
1851.84	0.002105
1861.49	0.001775
1871.13	0.001375
1880.78	0.001095
1890.42	0.001115
1900.07	0.001125
1909.71	0.001255
1919.36	0.001185
1929	0.001205
1938.65	0.001255
1948.29	0.001295
1957.94	0.001395
1967.58	0.001445
1977.23	0.001425
1986.87	0.001425
1996.52	0.001425
2006.16	0.001505
2015.81	0.001505
2025.45	0.001465
2035.1	0.001475
2044.74	0.001425
2054.38	0.001465
2064.03	0.001395
2073.67	0.001465
2083.32	0.001325
2092.96	0.001125
2102.61	0.0009256
2112.25	0.0008266
2121.9	0.0006666
2131.54	0.0006677
2141.19	0.0005547
2150.83	0.0005685
2160.48	0.0005575
2170.12	0.0006045
2179.77	0.00059
2189.41	0.0006069
2199.06	0.0004918
2208.7	0.0005585
2218.35	0.0005559
2227.99	0.0005988
2237.64	0.0006972
2247.28	0.0007259
2256.92	0.0007581
2266.57	0.0008901
2276.21	0.0009375
2285.86	0.0009329
2295.5	0.0007977
2305.15	0.0008139
2314.79	0.0008581
2324.44	0.0008905
2334.08	0.0009131
2343.73	0.0009928
2353.37	0.001024
2363.02	0.0009071
2372.66	0.0007725
2382.31	0.0008386
2391.95	0.0008044
2401.6	0.000876
2411.24	0.0008419
2420.89	0.0007267
2430.53	0.000749
2440.18	0.0007825
2449.82	0.0008792
2459.47	0.0009822
2469.11	0.0009323
2478.75	0.0009131
2488.4	0.0007533
2498.04	0.0007942
2507.69	0.0010112
2517.33	0.001065
2526.98	0.001105
2536.62	0.0009402
2546.27	0.0008823
2555.91	0.0008985
2565.56	0.0009168
2575.2	0.0008503
2584.85	0.001045
2594.49	0.0009972
2604.14	0.001075
2613.78	0.001115
2623.43	0.001205
2633.07	0.001245
2642.72	0.001215
2652.36	0.001435
2662.01	0.001505
2671.65	0.001825
2681.29	0.001845
2690.94	0.001925
2700.58	0.001975
2710.23	0.002005
2719.87	0.001995
2729.52	0.002285
2739.16	0.002515
2748.81	0.002805
2758.45	0.002735
2768.1	0.002655
2777.74	0.002895
2787.39	0.003085
2797.03	0.003875
2806.68	0.004655
2816.32	0.005845
2825.97	0.007605
2835.61	0.011215
2845.26	0.019295
2854.9	0.039495
2864.55	0.057735
2874.19	0.049885
2883.84	0.041975
2893.48	0.038355
2903.12	0.048235
2912.77	0.068105
2922.41	0.102475
2932.06	0.141895
2941.7	0.122475
2951.35	0.083255
2960.99	0.062145
2970.64	0.048615
2980.28	0.025385
2989.93	0.015095
2999.57	0.012435
3009.22	0.013005
3018.86	0.012355
3028.51	0.012925
3038.15	0.016905
3047.8	0.010905
3057.44	0.006455
3067.09	0.005745
3076.73	0.005235
3086.38	0.004225
3096.02	0.003775
3105.67	0.003345
3115.31	0.002755
3124.95	0.002055
3134.6	0.001635
3144.24	0.001215
3153.89	0.0009447
3163.53	0.0009986
3173.18	0.000809
3182.82	0.0007697
3192.47	0.0006803
3202.11	0.0009861
3211.76	0.0007199
3221.4	0.0007021
3231.05	0.0006974
3240.69	0.0005521
3250.34	0.0005486
3259.98	0.0005793
3269.63	0.0005009
3279.27	0.0003786
3288.92	0.0004415
3298.56	0.0002968
3308.21	0.0002516
3317.85	0.0002977
3327.49	0.00011519
3337.14	0.0002723
3346.78	0.0001424
3356.43	0.0003746
3366.07	0.0006995
3375.72	0.0007521
3385.36	0.001455
3395.01	0.002765
3404.65	0.003175
3414.3	0.001575
3423.94	0.0008913
3433.59	0.0007776
3443.23	0.001115
3452.88	0.001205
3462.52	0.001755
3472.17	0.002015
3481.81	0.002455
3491.46	0.001645
3501.1	0.001245
3510.75	0.0007718
3520.39	0.0004056
3530.04	0.0004114
3539.68	0.0003306
3549.32	0.0002419
3558.97	4.0041e-05
3568.61	0.0001757
3578.26	0.0001917
3587.9	0.0001677
3597.55	0.0002109
3607.19	0.0001905
3616.84	0.0003121
3626.48	0.00014
3636.13	0.0003895
3645.77	0.000165
3655.42	0.0002553
3665.06	0.0001977
3674.71	0.0003965
3684.35	0.0004007
3694	0.0004066
3703.64	0.0004053
3713.29	0.0004395
3722.93	0.0001843
3732.58	0.0003087
3742.22	0.0005521
3751.86	0.0003768
3761.51	0.0003955
3771.15	0.000322
3780.8	0.0004263
3790.44	0.0004596
3800.09	0.0003844
3809.73	0.0003881
3819.38	0.0003497
3829.02	0.0003492
3838.67	0.0002973
3848.31	0.0005922
3857.96	0.0006678
3867.6	0.0004561
3877.25	0.0006024
3886.89	0.0005491
3896.54	0.0008504
3906.18	0.0006074
3915.83	0.0004658
3925.47	0.0005255
3935.12	0.0005593
3944.76	0.0006449
3954.41	0.0005641
3964.05	0.0006807
3973.69	0.0005714
3983.34	0.000718
3992.98	0.000612
