Infrared Spectrum: p-Pentyloxyaniline
Formula: C 11 H 17 N O
CAS: 39905-50-5
State: gas
Origin: EPA-IR VAPOR PHASE LIBRARY
1/CM	ABSORBANCE
549.8	0.004031
559.445	0.003681
569.09	0.003531
578.734	0.003141
588.379	0.003061
598.024	0.003031
607.669	0.003351
617.313	0.004071
626.958	0.004491
636.603	0.006021
646.248	0.008691
655.893	0.009311
665.537	0.007441
675.182	0.006421
684.827	0.006161
694.472	0.006231
704.116	0.006331
713.761	0.006161
723.406	0.006141
733.051	0.005291
742.695	0.004711
752.34	0.004411
761.985	0.003851
771.63	0.003461
781.275	0.003901
790.919	0.004701
800.564	0.006091
810.209	0.009371
819.854	0.011901
829.498	0.009011
839.143	0.005851
848.788	0.004051
858.433	0.003091
868.078	0.002441
877.722	0.002081
887.367	0.002581
897.012	0.002761
906.657	0.002831
916.301	0.002701
925.946	0.002241
935.591	0.001941
945.236	0.001761
954.88	0.001761
964.525	0.002241
974.17	0.003111
983.815	0.004671
993.46	0.006441
1003.1	0.007841
1012.75	0.009011
1022.39	0.009451
1032.04	0.011361
1041.68	0.011721
1051.33	0.010151
1060.97	0.006711
1070.62	0.005971
1080.26	0.006061
1089.91	0.004311
1099.55	0.003741
1109.2	0.003501
1118.84	0.004491
1128.49	0.003901
1138.13	0.002471
1147.78	0.002061
1157.42	0.002941
1167.07	0.004511
1176.71	0.003771
1186.36	0.004621
1196	0.009121
1205.64	0.015721
1215.29	0.023841
1224.93	0.041201
1234.58	0.059831
1244.22	0.044251
1253.87	0.022781
1263.51	0.015161
1273.16	0.009221
1282.8	0.007551
1292.45	0.006831
1302.09	0.005721
1311.74	0.004381
1321.38	0.003711
1331.03	0.003091
1340.67	0.002511
1350.32	0.002201
1359.96	0.002161
1369.61	0.002701
1379.25	0.004991
1388.9	0.005951
1398.54	0.003581
1408.18	0.002421
1417.83	0.002471
1427.47	0.002661
1437.12	0.003251
1446.76	0.003991
1456.41	0.005231
1466.05	0.007771
1475.7	0.011121
1485.34	0.009421
1494.99	0.017181
1504.63	0.058441
1514.28	0.071591
1523.92	0.020131
1533.57	0.006801
1543.21	0.003331
1552.86	0.002461
1562.5	0.002061
1572.15	0.001991
1581.79	0.002451
1591.44	0.002911
1601.08	0.004371
1610.73	0.007881
1620.37	0.009071
1630.01	0.007051
1639.66	0.003931
1649.3	0.002281
1658.95	0.001591
1668.59	0.001281
1678.24	0.0010431
1687.88	0.0009741
1697.53	0.0008489
1707.17	0.0010013
1716.82	0.0010835
1726.46	0.001171
1736.11	0.0009713
1745.75	0.0009294
1755.4	0.0008005
1765.04	0.0007092
1774.69	0.0007128
1784.33	0.0007395
1793.98	0.0007184
1803.62	0.0008859
1813.27	0.0010051
1822.91	0.0010038
1832.55	0.0011071
1842.2	0.001301
1851.84	0.001271
1861.49	0.001121
1871.13	0.0008868
1880.78	0.0007691
1890.42	0.0008425
1900.07	0.0008227
1909.71	0.0007744
1919.36	0.0008429
1929	0.0008747
1938.65	0.0007012
1948.29	0.0007964
1957.94	0.0009148
1967.58	0.0009321
1977.23	0.0009084
1986.87	0.000884
1996.52	0.0008204
2006.16	0.0009039
2015.81	0.0008217
2025.45	0.0009088
2035.1	0.0009241
2044.74	0.0008774
2054.38	0.000887
2064.03	0.0008973
2073.67	0.0008835
2083.32	0.0007547
2092.96	0.000741
2102.61	0.0006537
2112.25	0.0006029
2121.9	0.0005234
2131.54	0.0004747
2141.19	0.000405
2150.83	0.0004085
2160.48	0.0004701
2170.12	0.0004116
2179.77	0.0003811
2189.41	0.0004335
2199.06	0.0003411
2208.7	0.0004152
2218.35	0.0005389
2227.99	0.0003923
2237.64	0.0004398
2247.28	0.000452
2256.92	0.0005127
2266.57	0.0005178
2276.21	0.0005622
2285.86	0.0004759
2295.5	0.0004283
2305.15	0.0005435
2314.79	0.0006123
2324.44	0.0005596
2334.08	0.0006335
2343.73	0.0005695
2353.37	0.000746
2363.02	0.0006098
2372.66	0.0005526
2382.31	0.000492
2391.95	0.0005304
2401.6	0.0005417
2411.24	0.000454
2420.89	0.0004639
2430.53	0.0005062
2440.18	0.0005092
2449.82	0.0004986
2459.47	0.0006232
2469.11	0.0006298
2478.75	0.0004854
2488.4	0.0005988
2498.04	0.0005209
2507.69	0.0006132
2517.33	0.0005187
2526.98	0.0005543
2536.62	0.00048
2546.27	0.0004039
2555.91	0.0003667
2565.56	0.0004145
2575.2	0.0004227
2584.85	0.0005633
2594.49	0.0004543
2604.14	0.0004444
2613.78	0.0004489
2623.43	0.0005816
2633.07	0.0005088
2642.72	0.0004302
2652.36	0.0005914
2662.01	0.0005638
2671.65	0.0007123
2681.29	0.0007126
2690.94	0.0007232
2700.58	0.0006576
2710.23	0.0007215
2719.87	0.0007762
2729.52	0.0008183
2739.16	0.0009728
2748.81	0.0010619
2758.45	0.0010002
2768.1	0.0009365
2777.74	0.0010176
2787.39	0.0009966
2797.03	0.001131
2806.68	0.001231
2816.32	0.001711
2825.97	0.002171
2835.61	0.003011
2845.26	0.004451
2854.9	0.007271
2864.55	0.011041
2874.19	0.013621
2883.84	0.014001
2893.48	0.012501
2903.12	0.013041
2912.77	0.015121
2922.41	0.018491
2932.06	0.023521
2941.7	0.026461
2951.35	0.024741
2960.99	0.023471
2970.64	0.021311
2980.28	0.011611
2989.93	0.006431
2999.57	0.005271
3009.22	0.005781
3018.86	0.005701
3028.51	0.006141
3038.15	0.007971
3047.8	0.005411
3057.44	0.003101
3067.09	0.002771
3076.73	0.002561
3086.38	0.002061
3096.02	0.002071
3105.67	0.001741
3115.31	0.001351
3124.95	0.0010487
3134.6	0.0006883
3144.24	0.0004889
3153.89	0.0003721
3163.53	0.0005072
3173.18	0.0004115
3182.82	0.0003691
3192.47	0.0005111
3202.11	0.0003479
3211.76	0.0006871
3221.4	0.0003254
3231.05	0.0003829
3240.69	0.0004683
3250.34	0.0004246
3259.98	0.0002475
3269.63	0.0003712
3279.27	0.0003809
3288.92	0.0002705
3298.56	0.0002879
3308.21	0.0003173
3317.85	0.0002898
3327.49	0.0003385
3337.14	0.0003612
3346.78	0.0002803
3356.43	0.0003543
3366.07	0.000481
3375.72	0.0006878
3385.36	0.0008786
3395.01	0.001431
3404.65	0.001811
3414.3	0.0009545
3423.94	0.0006058
3433.59	0.000708
3443.23	0.0006939
3452.88	0.0007475
3462.52	0.0008594
3472.17	0.001211
3481.81	0.001261
3491.46	0.001181
3501.1	0.0006356
3510.75	0.0004689
3520.39	0.0004766
3530.04	0.0002508
3539.68	0.0002913
3549.32	0.0002824
3558.97	0.0003921
3568.61	0.0004275
3578.26	0.0002946
3587.9	0.0002797
3597.55	0.0004447
3607.19	0.0004702
3616.84	0.0003018
3626.48	0.0004378
3636.13	0.0002805
3645.77	0.0004285
3655.42	0.000458
3665.06	0.0002219
3674.71	0.0002674
3684.35	0.0003212
3694	0.0002747
3703.64	0.000371
3713.29	0.0004077
3722.93	0.00028
3732.58	0.0003385
3742.22	0.0002754
3751.86	0.0005007
3761.51	0.0003591
3771.15	0.0004326
3780.8	0.00032
3790.44	0.0003785
3800.09	0.0004015
3809.73	0.0002282
3819.38	0.0004865
3829.02	0.000454
3838.67	0.0003875
3848.31	0.00017929
3857.96	0.0003202
3867.6	0.0004965
3877.25	0.0003213
3886.89	0.0004776
3896.54	0.0005674
3906.18	0.0004326
3915.83	0.0005686
3925.47	0.0004547
3935.12	0.0005119
3944.76	0.0002742
3954.41	0.0004946
3964.05	0.0003613
3973.69	0.0004585
3983.34	0.0002771
3992.98	0.0004379
