Infrared Spectrum: MONO-OCTYL PHOSPHATE
Formula: C8 H19 O4 P
CAS: 3991-73-9
State: LIQUID (NEAT)
Class: COBLENTZ III
Instrument: BAIRD NaCl PRISM
Sampling: TRANSMISSION
Path length: 0.0015 CM
Resolution: 4
Origin: WYANDOTTE CHEMICALS CORP.
MICROMETERS	TRANSMITTANCE
2.016	0.971
2.05518	0.975
2.09437	0.976
2.13355	0.98
2.17273	0.972
2.21192	0.94
2.2511	0.927
2.29028	0.927
2.32947	0.931
2.36865	0.931
2.40783	0.936
2.44702	0.937
2.4862	0.938
2.52538	0.949
2.56456	0.948
2.60375	0.939
2.64293	0.94
2.68211	0.937
2.7213	0.929
2.76048	0.918
2.79966	0.883
2.83885	0.853
2.87803	0.817
2.91721	0.781
2.9564	0.749
2.99558	0.704
3.03476	0.63
3.07395	0.549
3.11313	0.468
3.15231	0.413
3.1915	0.36
3.23068	0.298
3.26986	0.242
3.30905	0.182
3.34823	0.049
3.38741	0.012
3.42659	0.019
3.46578	0.027
3.50496	0.029
3.54414	0.119
3.58333	0.151
3.62251	0.164
3.66169	0.169
3.70088	0.18
3.74006	0.198
3.77924	0.2
3.81843	0.223
3.85761	0.234
3.89679	0.254
3.93598	0.269
3.97516	0.284
4.01434	0.297
4.05353	0.308
4.09271	0.311
4.13189	0.308
4.17108	0.305
4.21026	0.292
4.24944	0.282
4.28863	0.295
4.32781	0.297
4.36699	0.274
4.40617	0.264
4.44536	0.271
4.48454	0.287
4.52372	0.29
4.56291	0.298
4.60209	0.308
4.64127	0.311
4.68046	0.328
4.71964	0.343
4.75882	0.364
4.79801	0.389
4.83719	0.402
4.87637	0.42
4.91556	0.432
4.95474	0.445
4.99392	0.455
5.03311	0.472
5.07229	0.484
5.11147	0.493
5.15066	0.5
5.18984	0.503
5.22902	0.509
5.26821	0.514
5.30739	0.516
5.34657	0.511
5.38575	0.506
5.42494	0.499
5.46412	0.494
5.5033	0.484
5.54249	0.474
5.58167	0.458
5.62085	0.439
5.66004	0.431
5.69922	0.402
5.7384	0.382
5.77759	0.361
5.81677	0.351
5.85595	0.339
5.89514	0.323
5.93432	0.322
5.9735	0.311
6.01269	0.305
6.05187	0.312
6.09105	0.327
6.13024	0.328
6.16942	0.338
6.2086	0.35
6.24778	0.366
6.28697	0.377
6.32615	0.392
6.36533	0.403
6.40452	0.415
6.4437	0.42
6.48288	0.432
6.52207	0.435
6.56125	0.448
6.60043	0.456
6.63962	0.451
6.6788	0.431
6.71798	0.328
6.75717	0.2
6.79635	0.153
6.83553	0.22
6.87472	0.333
6.9139	0.382
6.95308	0.423
6.99227	0.495
7.03145	0.523
7.07063	0.528
7.10982	0.492
7.149	0.466
7.18818	0.473
7.22736	0.407
7.26655	0.49
7.30573	0.533
7.34491	0.554
7.3841	0.558
7.42328	0.559
7.46246	0.564
7.50165	0.563
7.54083	0.552
7.58001	0.512
7.6192	0.456
7.65838	0.428
7.69756	0.409
7.73675	0.367
7.77593	0.318
7.81511	0.271
7.8543	0.233
7.89348	0.172
7.93266	0.119
7.97185	0.089
8.01103	0.061
8.05021	0.051
8.08939	0.039
8.12858	0.03
8.16776	0.029
8.20694	0.027
8.24613	0.028
8.28531	0.031
8.32449	0.036
8.36368	0.039
8.40286	0.04
8.44204	0.049
8.48123	0.059
8.52041	0.061
8.55959	0.066
8.59878	0.073
8.63796	0.076
8.67714	0.075
8.71633	0.084
8.75551	0.087
8.79469	0.086
8.83388	0.088
8.87306	0.088
8.91224	0.092
8.95143	0.103
8.99061	0.108
9.02979	0.093
9.06897	0.079
9.10816	0.051
9.14734	0.031
9.18652	0.02
9.22571	0.013
9.26489	0.012
9.30407	0.013
9.34326	0.011
9.38244	0.011
9.42162	0.009
9.46081	0.008
9.49999	0.011
9.53917	0.012
9.57836	0.011
9.61754	0.012
9.65672	0.009
9.69591	0.011
9.73509	0.012
9.77427	0.011
9.81346	0.012
9.85264	0.012
9.89182	0.011
9.93101	0.008
9.97019	0.012
10.0094	0.012
10.0486	0.013
10.0877	0.013
10.1269	0.017
10.1661	0.022
10.2053	0.024
10.2445	0.031
10.2837	0.038
10.3228	0.041
10.362	0.05
10.4012	0.057
10.4404	0.059
10.4796	0.063
10.5188	0.077
10.5579	0.094
10.5971	0.103
10.6363	0.13
10.6755	0.146
10.7147	0.162
10.7539	0.173
10.793	0.184
10.8322	0.2
10.8714	0.211
10.9106	0.23
10.9498	0.242
10.989	0.246
11.0281	0.258
11.0673	0.263
11.1065	0.274
11.1457	0.277
11.1849	0.281
11.2241	0.282
11.2632	0.285
11.3024	0.295
11.3416	0.293
11.3808	0.295
11.42	0.289
11.4591	0.291
11.4983	0.297
11.5375	0.302
11.5767	0.303
11.6159	0.307
11.6551	0.309
11.6942	0.314
11.7334	0.317
11.7726	0.317
11.8118	0.323
11.851	0.333
11.8902	0.334
11.9293	0.333
11.9685	0.337
12.0077	0.34
12.0469	0.346
12.0861	0.351
12.1253	0.356
12.1644	0.356
12.2036	0.364
12.2428	0.37
12.282	0.373
12.3212	0.375
12.3604	0.375
12.3995	0.375
12.4387	0.373
12.4779	0.373
12.5171	0.376
12.5563	0.377
12.5955	0.378
12.6346	0.38
12.6738	0.38
12.713	0.392
12.7522	0.4
12.7914	0.412
12.8306	0.431
12.8697	0.441
12.9089	0.447
12.9481	0.446
12.9873	0.442
13.0265	0.435
13.0657	0.431
13.1048	0.429
13.144	0.435
13.1832	0.435
13.2224	0.437
13.2616	0.442
13.3008	0.445
13.3399	0.447
13.3791	0.451
13.4183	0.457
13.4575	0.455
13.4967	0.453
13.5359	0.45
13.575	0.447
13.6142	0.44
13.6534	0.439
13.6926	0.436
13.7318	0.43
13.771	0.414
13.8101	0.389
13.8493	0.372
13.8885	0.372
13.9277	0.4
13.9669	0.431
14.0061	0.464
14.0452	0.494
14.0844	0.511
14.1236	0.536
14.1628	0.552
14.202	0.571
14.2412	0.58
14.2803	0.594
14.3195	0.601
14.3587	0.607
14.3979	0.612
14.4371	0.619
14.4763	0.628
14.5154	0.634
14.5546	0.638
14.5938	0.638
14.633	0.643
14.6722	0.646
14.7114	0.649
14.7505	0.65
14.7897	0.649
14.8289	0.649
14.8681	0.649
14.9073	0.653
14.9465	0.651
14.9856	0.649
15.0248	0.623
15.064	0.618
15.1032	0.626
15.1424	0.645
15.1816	0.646
15.2207	0.642
15.2599	0.634
15.2991	0.634
15.3383	0.627
15.3775	0.63
15.4167	0.618
15.4558	0.613
15.495	0.612
15.5342	0.61
15.5734	0.607
15.6126	0.601
15.6518	0.596
15.6909	0.592
15.7301	0.584
15.7693	0.578
15.8085	0.568
15.8477	0.569
15.8869	0.563
15.926	0.553
15.9652	0.549
16.0044	0.542
