Infrared Spectrum: (2-Methylpentyl)benzene
Formula: C 12 H 18
CAS: 39916-61-5
State: gas
Instrument: HP-GC/MS/IRD
Origin: NIST Mass Spectrometry Data Center
1/CM	ABSORBANCE
550	0.0004768
562	1.6e-05
574	0.0002688
586	0.0005504
598	0.0007808
610	0.0004064
622	0.0004128
634	0.000304
646	0.0002656
658	0.0007168
670	0.0013632
682	0.0032192
694	0.009632
706	0.0083648
718	0.0058016
730	0.0083744
742	0.006288
754	0.002608
766	0.001088
778	0.000672
790	0.0004992
802	0.0004832
814	0.0003968
826	0.0005952
838	0.0003648
850	0.0003168
862	0.0002464
874	0.0002912
886	0.000432
898	0.0006656
910	0.0008512
922	0.0006464
934	0.0005536
946	0.0007008
958	0.000512
970	0.0002688
982	0.000208
994	0.0002048
1006	0.0003488
1018	0.0006688
1030	0.0015488
1042	0.0007296
1054	0.0007936
1066	0.0008672
1078	0.0006912
1090	0.0007424
1102	0.00096
1114	0.0009568
1126	0.0006144
1138	0.0006848
1150	0.0011584
1162	0.0007232
1174	0.0003488
1186	0.000384
1198	0.000512
1210	0.0003648
1222	0.0003168
1234	0.0004384
1246	0.0005536
1258	0.00048
1270	0.0004896
1282	0.0006112
1294	0.0006624
1306	0.0006912
1318	0.0007904
1330	0.0009536
1342	0.0011744
1354	0.0014976
1366	0.0018432
1378	0.0031264
1390	0.0027072
1402	0.0012
1414	0.000976
1426	0.0012704
1438	0.0025024
1450	0.0048928
1462	0.0056928
1474	0.00416
1486	0.003664
1498	0.004544
1510	0.0015104
1522	0.0007328
1534	0.0006048
1546	0.00048
1558	0.0004576
1570	0.000608
1582	0.0011136
1594	0.00216
1606	0.0022208
1618	0.0008096
1630	0.0003776
1642	0.0003296
1654	0.0002688
1666	0.0002304
1678	0.0002016
1690	0.000176
1702	0.0002176
1714	0.0001952
1726	0.0002432
1738	0.0002912
1750	0.0002912
1762	0.0002208
1774	0.0002336
1786	0.0004832
1798	0.000672
1810	0.000336
1822	0.0001888
1834	0.0001856
1846	0.0002048
1858	0.000352
1870	0.000448
1882	0.0003872
1894	0.0002016
1906	0.0001376
1918	0.000256
1930	0.0005312
1942	0.0006336
1954	0.000448
1966	0.0001088
1978	6.4e-05
1990	5.12e-05
2002	3.52e-05
2014	1.6e-05
2026	3.2e-05
2038	2.24e-05
2050	2.56e-05
2062	9.6e-06
2074	6.4e-06
2086	2.24e-05
2098	1.92e-05
2110	0
2122	6.4e-06
2134	3.84e-05
2146	3.52e-05
2158	3.2e-05
2170	4.48e-05
2182	6.4e-05
2194	5.12e-05
2206	5.12e-05
2218	3.84e-05
2230	3.52e-05
2242	2.88e-05
2254	3.2e-05
2266	3.2e-05
2278	1.92e-05
2290	2.24e-05
2302	4.48e-05
2314	0.0001248
2326	7.68e-05
2338	9.92e-05
2350	0.0001024
2362	8.96e-05
2374	9.92e-05
2386	7.36e-05
2398	8.64e-05
2410	8.32e-05
2422	3.84e-05
2434	5.12e-05
2446	3.52e-05
2458	3.2e-05
2470	2.88e-05
2482	4.8e-05
2494	3.84e-05
2506	6.72e-05
2518	5.44e-05
2530	6.4e-05
2542	0.0001056
2554	0.0001056
2566	0.0001472
2578	0.0001632
2590	0.000224
2602	0.00024
2614	0.0002784
2626	0.0002784
2638	0.0002784
2650	0.0002624
2662	0.0002976
2674	0.0003136
2686	0.0003328
2698	0.0003232
2710	0.0003744
2722	0.0004832
2734	0.000608
2746	0.0006464
2758	0.0005568
2770	0.0006208
2782	0.0008192
2794	0.0010272
2806	0.0012768
2818	0.00168
2830	0.0024704
2842	0.0046112
2854	0.0083104
2866	0.0103136
2878	0.0144
2890	0.014816
2902	0.0157024
2914	0.0219904
2926	0.027664
2938	0.0263008
2950	0.0216864
2962	0.02944
2974	0.0270208
2986	0.00936
2998	0.0047008
3010	0.0044896
3022	0.0072448
3034	0.0100288
3046	0.0056992
3058	0.0056
3070	0.0087808
3082	0.0061184
3094	0.0040832
3106	0.0023808
3118	0.0013632
3130	0.0007552
3142	0.0006208
3154	0.0005504
3166	0.00048
3178	0.0004064
3190	0.000336
3202	0.0002688
3214	0.0002048
3226	0.0001632
3238	0.0001376
3250	0.0001152
3262	9.6e-05
3274	0.0001024
3286	7.04e-05
3298	0.0001024
3310	6.08e-05
3322	8.64e-05
3334	0.0001088
3346	3.84e-05
3358	6.4e-05
3370	0.0001312
3382	0.0001056
3394	0.0001152
3406	6.72e-05
3418	3.84e-05
3430	7.04e-05
3442	5.76e-05
3454	3.84e-05
3466	4.48e-05
3478	5.44e-05
3490	7.36e-05
3502	0.0001216
3514	0
3526	7.36e-05
3538	5.76e-05
3550	5.76e-05
3562	4.8e-05
3574	8.64e-05
3586	7.36e-05
3598	1.6e-05
3610	7.36e-05
3622	0.0001152
3634	0.0001184
3646	0.0001824
3658	0.0001888
3670	0.0001248
3682	0.0001696
3694	0.0001248
3706	0.0001536
3718	0.0001376
3730	0.0001216
3742	0.0002112
3754	0.0001856
3766	0.000128
3778	0.0001568
3790	0.0001376
3802	0.0001824
3814	0.0001056
3826	0.0001504
3838	0.0001792
