Infrared Spectrum: TRANS-2, CIS-4-DODECADIENOIC ACID, METHYL ESTER
Formula: C13 H22 O2
CAS: 39924-47-5
State: SOLUTION (CS2 FOR 5000-2380 AND 1390-625, C2Cl4 FOR 2380-1390 CM^-^1)
Class: COBLENTZ
Instrument: PERKIN-ELMER
Sampling: TRANSMISSION
Path length: 0.01 CM, 0.01 CM
Resolution: 4
Origin: HORMEL INSTITUTE
MICROMETERS	TRANSMITTANCE
2.034	0.908
2.06789	0.911
2.10178	0.911
2.13567	0.911
2.16955	0.911
2.20344	0.911
2.23733	0.909
2.27122	0.892
2.30511	0.884
2.339	0.882
2.37289	0.886
2.40677	0.889
2.44066	0.892
2.47455	0.896
2.50844	0.897
2.54233	0.899
2.57622	0.903
2.61011	0.908
2.64399	0.908
2.67788	0.909
2.71177	0.911
2.74566	0.906
2.77955	0.894
2.81344	0.875
2.84733	0.85
2.88122	0.841
2.9151	0.843
2.94899	0.848
2.98288	0.862
3.01677	0.87
3.05066	0.874
3.08455	0.875
3.11844	0.874
3.15232	0.874
3.18621	0.874
3.2201	0.87
3.25399	0.857
3.28788	0.799
3.32177	0.619
3.35566	0.559
3.38954	0.265
3.42343	0.137
3.45732	0.377
3.49121	0.377
3.5251	0.506
3.55899	0.738
3.59288	0.824
3.62676	0.853
3.66065	0.865
3.69454	0.867
3.72843	0.872
3.76232	0.875
3.79621	0.88
3.8301	0.882
3.86398	0.886
3.89787	0.889
3.93176	0.894
3.96565	0.894
3.99954	0.896
4.03343	0.899
4.06732	0.901
4.1012	0.901
4.13509	0.901
4.16898	0.901
4.20287	0.903
4.23676	0.901
4.27065	0.897
4.30454	0.897
4.33842	0.909
4.37231	0.916
4.4062	0.916
4.44009	0.916
4.47398	0.914
4.50787	0.911
4.54176	0.914
4.57565	0.909
4.60953	0.908
4.64342	0.909
4.67731	0.908
4.7112	0.899
4.74509	0.896
4.77898	0.894
4.81287	0.891
4.84675	0.891
4.88064	0.894
4.91453	0.889
4.94842	0.894
4.98231	0.903
5.0162	0.892
5.05009	0.894
5.08397	0.869
5.11786	0.88
5.15175	0.894
5.18564	0.896
5.21953	0.894
5.25342	0.897
5.28731	0.896
5.32119	0.901
5.35508	0.894
5.38897	0.887
5.42286	0.897
5.45675	0.896
5.49064	0.891
5.52453	0.874
5.55841	0.857
5.5923	0.833
5.62619	0.802
5.66008	0.748
5.69397	0.578
5.72786	0.226
5.76175	0.151
5.79563	0.04
5.82952	0.034
5.86341	0.26
5.8973	0.459
5.93119	0.62
5.96508	0.704
5.99897	0.729
6.03285	0.666
6.06674	0.217
6.10063	0.187
6.13452	0.545
6.16841	0.642
6.2023	0.566
6.23619	0.566
6.27008	0.712
6.30396	0.789
6.33785	0.819
6.37174	0.843
6.40563	0.853
6.43952	0.858
6.47341	0.86
6.5073	0.86
6.54118	0.86
6.57507	0.86
6.60896	0.86
6.64285	0.853
6.67674	0.84
6.71063	0.824
6.74452	0.794
6.7784	0.732
6.81229	0.46
6.84618	0.418
6.88007	0.448
6.91396	0.445
6.94785	0.219
6.98174	0.331
7.01562	0.588
7.04951	0.642
7.0834	0.535
7.11729	0.634
7.15118	0.712
7.18507	0.743
7.21896	0.712
7.25284	0.585
7.28673	0.619
7.32062	0.622
7.35451	0.629
7.3884	0.636
7.42229	0.632
7.45618	0.612
7.49006	0.588
7.52395	0.551
7.55784	0.527
7.59173	0.416
7.62562	0.26
7.65951	0.197
7.6934	0.275
7.72728	0.333
7.76117	0.324
7.79506	0.226
7.82895	0.134
7.86284	0.051
7.89673	0.02
7.93062	0.018
7.96451	0.062
7.99839	0.171
8.03228	0.253
8.06617	0.345
8.10006	0.401
8.13395	0.418
8.16784	0.428
8.20173	0.44
8.23561	0.435
8.2695	0.404
8.30339	0.29
8.33728	0.193
8.37117	0.192
8.40506	0.229
8.43895	0.29
8.47283	0.28
8.50672	0.142
8.54061	0.068
8.5745	0.052
8.60839	0.17
8.64228	0.287
8.67617	0.348
8.71005	0.345
8.74394	0.214
8.77783	0.1
8.81172	0.156
8.84561	0.312
8.8795	0.494
8.91339	0.603
8.94727	0.649
8.98116	0.67
9.01505	0.683
9.04894	0.681
9.08283	0.683
9.11672	0.702
9.15061	0.707
9.18449	0.697
9.21838	0.675
9.25227	0.651
9.28616	0.636
9.32005	0.649
9.35394	0.668
9.38783	0.676
9.42172	0.688
9.4556	0.697
9.48949	0.69
9.52338	0.642
9.55727	0.547
9.59116	0.425
9.62505	0.421
9.65894	0.511
9.69282	0.566
9.72671	0.579
9.7606	0.523
9.79449	0.426
9.82838	0.386
9.86227	0.477
9.89616	0.537
9.93004	0.566
9.96393	0.542
9.99782	0.435
10.0317	0.306
10.0656	0.224
10.0995	0.358
10.1334	0.505
10.1673	0.564
10.2012	0.573
10.235	0.595
10.2689	0.603
10.3028	0.59
10.3367	0.581
10.3706	0.585
10.4045	0.596
10.4384	0.605
10.4723	0.642
10.5062	0.688
10.54	0.712
10.5739	0.732
10.6078	0.77
10.6417	0.797
10.6756	0.806
10.7095	0.811
10.7434	0.812
10.7773	0.811
10.8111	0.806
10.845	0.801
10.8789	0.784
10.9128	0.76
10.9467	0.727
10.9806	0.705
11.0145	0.705
11.0484	0.729
11.0823	0.761
11.1161	0.773
11.15	0.78
11.1839	0.78
11.2178	0.78
11.2517	0.775
11.2856	0.761
11.3195	0.732
11.3534	0.71
11.3873	0.659
11.4211	0.566
11.455	0.404
11.4889	0.362
11.5228	0.268
11.5567	0.255
11.5906	0.426
11.6245	0.539
11.6584	0.595
11.6923	0.629
11.7261	0.678
11.76	0.721
11.7939	0.738
11.8278	0.755
11.8617	0.768
11.8956	0.78
11.9295	0.792
11.9634	0.799
11.9972	0.804
12.0311	0.809
12.065	0.812
12.0989	0.819
12.1328	0.824
12.1667	0.829
12.2006	0.836
12.2345	0.838
12.2684	0.838
12.3022	0.838
12.3361	0.838
12.37	0.836
12.4039	0.836
12.4378	0.836
12.4717	0.836
12.5056	0.836
12.5395	0.836
12.5734	0.836
12.6072	0.835
12.6411	0.829
12.675	0.819
12.7089	0.809
12.7428	0.801
12.7767	0.794
12.8106	0.785
12.8445	0.778
12.8784	0.773
12.9122	0.77
12.9461	0.767
12.98	0.77
13.0139	0.782
13.0478	0.792
13.0817	0.802
13.1156	0.812
13.1495	0.818
13.1833	0.823
13.2172	0.823
13.2511	0.823
13.285	0.829
13.3189	0.826
13.3528	0.828
13.3867	0.824
13.4206	0.816
13.4545	0.806
13.4883	0.802
13.5222	0.797
13.5561	0.794
13.59	0.784
13.6239	0.772
13.6578	0.75
13.6917	0.732
13.7256	0.702
13.7595	0.68
13.7933	0.664
13.8272	0.646
13.8611	0.632
13.895	0.632
13.9289	0.658
13.9628	0.671
13.9967	0.678
14.0306	0.668
14.0645	0.659
14.0983	0.642
14.1322	0.617
14.1661	0.598
14.2	0.588
14.2339	0.583
14.2678	0.59
14.3017	0.598
14.3356	0.617
14.3695	0.634
14.4033	0.651
14.4372	0.668
14.4711	0.683
14.505	0.697
14.5389	0.71
14.5728	0.724
14.6067	0.732
14.6406	0.739
14.6744	0.753
14.7083	0.761
14.7422	0.767
14.7761	0.778
14.81	0.789
14.8439	0.79
14.8778	0.797
14.9117	0.806
14.9456	0.809
14.9794	0.802
15.0133	0.816
15.0472	0.838
15.0811	0.841
15.115	0.838
