Infrared Spectrum: Gamma-CHLOROMETHYL-Gamma-BUTYROLACTONE
Formula: C5 H7 Cl O2
CAS: 39928-72-8
State: LIQUID
Class: COBLENTZ
Instrument: PERKIN-ELMER
Sampling: TRANSMISSION
Path length: CAPILLARY
Resolution: 4
Origin: ABBOTT LABORATORIES - WASHBURN
MICROMETERS	TRANSMITTANCE
2.042	0.887
2.07814	0.893
2.11429	0.891
2.15043	0.896
2.18658	0.902
2.22272	0.908
2.25886	0.9109
2.29501	0.912
2.33115	0.909
2.3673	0.911
2.40344	0.915
2.43958	0.917
2.47573	0.915
2.51187	0.918
2.54802	0.915
2.58416	0.9169
2.6203	0.92
2.65645	0.918
2.69259	0.92
2.72874	0.9151
2.76488	0.9111
2.80102	0.902
2.83717	0.894
2.87331	0.875
2.90946	0.8808
2.9456	0.8899
2.98174	0.8909
3.01789	0.8959
3.05403	0.9
3.09018	0.903
3.12632	0.9053
3.16247	0.9116
3.19861	0.918
3.23475	0.9209
3.2709	0.92
3.30704	0.918
3.34319	0.912
3.37933	0.8894
3.41547	0.8409
3.45162	0.8487
3.48776	0.8757
3.52391	0.9117
3.56005	0.926
3.59619	0.938
3.63234	0.944
3.66848	0.945
3.70463	0.9408
3.74077	0.944
3.77691	0.9391
3.81306	0.939
3.8492	0.935
3.88535	0.935
3.92149	0.93
3.95763	0.923
3.99378	0.9201
4.02992	0.915
4.06607	0.917
4.10221	0.912
4.13835	0.908
4.1745	0.9051
4.21064	0.8971
4.24679	0.896
4.28293	0.893
4.31907	0.893
4.35522	0.884
4.39136	0.8822
4.42751	0.875
4.46365	0.873
4.49979	0.8709
4.53594	0.87
4.57208	0.864
4.60823	0.865
4.64437	0.8668
4.68051	0.862
4.71666	0.8592
4.7528	0.856
4.78895	0.855
4.82509	0.853
4.86123	0.852
4.89738	0.852
4.93352	0.853
4.96967	0.8521
5.00581	0.8471
5.04195	0.8457
5.0781	0.847
5.11424	0.849
5.15039	0.847
5.18653	0.8447
5.22267	0.844
5.25882	0.844
5.29496	0.84
5.33111	0.8365
5.36725	0.8288
5.4034	0.814
5.43954	0.7988
5.47568	0.7801
5.51183	0.7411
5.54797	0.6233
5.58412	0.3597
5.62026	0.1436
5.6564	0.1349
5.69255	0.3226
5.72869	0.5941
5.76484	0.6873
5.80098	0.7113
5.83712	0.7464
5.87327	0.789
5.90941	0.802
5.94556	0.8078
5.9817	0.808
6.01784	0.811
6.05399	0.813
6.09013	0.8181
6.12628	0.8225
6.16242	0.8238
6.19856	0.829
6.23471	0.826
6.27085	0.829
6.307	0.834
6.34314	0.834
6.37928	0.8312
6.41543	0.834
6.45157	0.8376
6.48772	0.831
6.52386	0.835
6.56	0.8359
6.59615	0.8345
6.63229	0.8362
6.66844	0.8393
6.70458	0.841
6.74072	0.8369
6.77687	0.829
6.81301	0.81
6.84916	0.7752
6.8853	0.7292
6.92144	0.769
6.95759	0.7774
6.99373	0.764
7.02988	0.7177
7.06602	0.7124
7.10216	0.7424
7.13831	0.7952
7.17445	0.805
7.2106	0.8079
7.24674	0.802
7.28288	0.7752
7.31903	0.76
7.35517	0.7532
7.39132	0.7379
7.42746	0.7186
7.4636	0.6632
7.49975	0.6804
7.53589	0.7583
7.57204	0.7909
7.60818	0.7958
7.64433	0.7855
7.68047	0.7768
7.71661	0.76
7.75276	0.7541
7.7889	0.746
7.82505	0.725
7.86119	0.7457
7.89733	0.7436
7.93348	0.7294
7.96962	0.721
8.00577	0.7395
8.04191	0.7657
8.07805	0.775
8.1142	0.7649
8.15034	0.7432
8.18649	0.7214
8.22263	0.7014
8.25877	0.6844
8.29492	0.66
8.33106	0.6329
8.36721	0.627
8.40335	0.5726
8.43949	0.5045
8.47564	0.3774
8.51178	0.2966
8.54793	0.265
8.58407	0.2833
8.62021	0.3666
8.65636	0.462
8.6925	0.5291
8.72865	0.573
8.76479	0.5646
8.80093	0.5618
8.83708	0.6091
8.87322	0.6631
8.90937	0.6981
8.94551	0.7168
8.98165	0.7404
9.0178	0.753
9.05394	0.7588
9.09009	0.7598
9.12623	0.76
9.16237	0.7576
9.19852	0.756
9.23466	0.7641
9.27081	0.7685
9.30695	0.7684
9.34309	0.774
9.37924	0.7765
9.41538	0.7715
9.45153	0.7523
9.48767	0.7178
9.52381	0.63
9.55996	0.5172
9.5961	0.4598
9.63225	0.4911
9.66839	0.5448
9.70453	0.6005
9.74068	0.6005
9.77682	0.5943
9.81297	0.6301
9.84911	0.6765
9.88526	0.705
9.9214	0.7211
9.95754	0.7331
9.99369	0.736
10.0298	0.7253
10.066	0.7152
10.1021	0.7122
10.1383	0.7506
10.1744	0.7903
10.2106	0.8104
10.2467	0.82
10.2828	0.825
10.319	0.829
10.3551	0.829
10.3913	0.831
10.4274	0.831
10.4636	0.834
10.4997	0.8295
10.5358	0.8283
10.572	0.8212
10.6081	0.816
10.6443	0.811
10.6804	0.8002
10.7166	0.7791
10.7527	0.7525
10.7889	0.7164
10.825	0.6548
10.8611	0.6019
10.8973	0.5938
10.9334	0.6254
10.9696	0.6719
11.0057	0.7037
11.0419	0.7319
11.078	0.7517
11.1142	0.7655
11.1503	0.777
11.1864	0.7844
11.2226	0.7905
11.2587	0.798
11.2949	0.802
11.331	0.804
11.3672	0.804
11.4033	0.8013
11.4394	0.8033
11.4756	0.808
11.5117	0.8135
11.5479	0.819
11.584	0.822
11.6202	0.826
11.6563	0.828
11.6925	0.829
11.7286	0.826
11.7647	0.825
11.8009	0.822
11.837	0.82
11.8732	0.813
11.9093	0.808
11.9455	0.8002
11.9816	0.798
12.0178	0.792
12.0539	0.7968
12.09	0.801
12.1262	0.805
12.1623	0.808
12.1985	0.8161
12.2346	0.816
12.2708	0.817
12.3069	0.81
12.343	0.8072
12.3792	0.7932
12.4153	0.787
12.4515	0.7852
12.4876	0.7863
12.5238	0.789
12.5599	0.795
12.5961	0.792
12.6322	0.792
12.6683	0.7951
12.7045	0.7921
12.7406	0.7954
12.7768	0.798
12.8129	0.798
12.8491	0.798
12.8852	0.7925
12.9214	0.7968
12.9575	0.7956
12.9936	0.792
13.0298	0.79
13.0659	0.784
13.1021	0.7769
13.1382	0.769
13.1744	0.7593
13.2105	0.753
13.2467	0.742
13.2828	0.7363
13.3189	0.734
13.3551	0.727
13.3912	0.7171
13.4274	0.7126
13.4635	0.7054
13.4997	0.706
13.5358	0.709
13.5719	0.7178
13.6081	0.7237
13.6442	0.7338
13.6804	0.745
13.7165	0.7522
13.7527	0.754
13.7888	0.759
13.825	0.757
13.8611	0.754
13.8972	0.7525
13.9334	0.7502
13.9695	0.7478
14.0057	0.745
14.0418	0.746
14.078	0.75
14.1141	0.7464
14.1503	0.746
14.1864	0.743
14.2225	0.746
14.2587	0.746
14.2948	0.746
14.331	0.745
14.3671	0.7415
14.4033	0.739
14.4394	0.736
14.4755	0.7391
14.5117	0.7341
14.5478	0.733
14.584	0.727
14.6201	0.722
14.6563	0.7185
14.6924	0.7081
14.7286	0.7053
14.7647	0.706
14.8008	0.7004
14.837	0.6967
14.8731	0.6888
14.9093	0.683
14.9454	0.6791
14.9816	0.6732
15.0177	0.6552
15.0539	0.6449
15.09	0.6352
15.1261	0.6214
15.1623	0.6085
15.1984	0.6026
15.2346	0.597
15.2707	0.591
15.3069	0.59
15.343	0.593
