Infrared Spectrum: N,N-DIETHYL-2,5-XYLIDINE
Formula: C12 H19 N
CAS: 3995-37-7
State: LIQUID (NEAT)
Boiling point: 95-96 C AT 11 mmHg
Class: COBLENTZ III
Instrument: BAIRD NaCl PRISM
Sampling: TRANSMISSION
Path length: 0.005 CM
Resolution: 4
Origin: WYANDOTTE CHEMICALS CORP.
MICROMETERS	TRANSMITTANCE
2.005	0.99
2.0442	0.977
2.0834	0.943
2.1226	0.947
2.1618	0.929
2.201	0.809
2.2402	0.742
2.2794	0.801
2.3186	0.845
2.3578	0.852
2.397	0.828
2.4362	0.834
2.4754	0.854
2.5146	0.876
2.5538	0.907
2.593	0.914
2.6322	0.922
2.6714	0.919
2.7106	0.926
2.7498	0.931
2.789	0.929
2.8282	0.91
2.8674	0.904
2.9066	0.902
2.9458	0.88
2.985	0.871
3.0242	0.86
3.0634	0.836
3.1026	0.804
3.1418	0.75
3.181	0.702
3.2202	0.541
3.2594	0.348
3.2986	0.05
3.3378	0.029
3.377	0.029
3.4162	0.03
3.4554	0.029
3.4946	0.034
3.5338	0.034
3.573	0.033
3.6122	0.19
3.6514	0.326
3.6906	0.354
3.7298	0.548
3.769	0.616
3.8082	0.682
3.8474	0.684
3.8866	0.7
3.9258	0.722
3.965	0.776
4.0042	0.783
4.0434	0.793
4.0826	0.787
4.1218	0.782
4.161	0.778
4.2002	0.775
4.2394	0.788
4.2786	0.809
4.3178	0.822
4.357	0.831
4.3962	0.816
4.4354	0.814
4.4746	0.83
4.5138	0.82
4.553	0.822
4.5922	0.826
4.6314	0.828
4.6706	0.848
4.7098	0.853
4.749	0.843
4.7882	0.836
4.8274	0.849
4.8666	0.854
4.9058	0.85
4.945	0.85
4.9842	0.839
5.0234	0.823
5.0626	0.815
5.1018	0.803
5.141	0.803
5.1802	0.801
5.2194	0.812
5.2586	0.786
5.2978	0.743
5.337	0.672
5.3762	0.702
5.4154	0.754
5.4546	0.764
5.4938	0.768
5.533	0.754
5.5722	0.787
5.6114	0.777
5.6506	0.764
5.6898	0.72
5.729	0.663
5.7682	0.729
5.8074	0.75
5.8466	0.755
5.8858	0.722
5.925	0.673
5.9642	0.504
6.0034	0.617
6.0426	0.61
6.0818	0.55
6.121	0.36
6.1602	0.034
6.1994	0.195
6.2386	0.265
6.2778	0.078
6.317	0.229
6.3562	0.333
6.3954	0.333
6.4346	0.31
6.4738	0.292
6.513	0.242
6.5522	0.101
6.5914	0.035
6.6306	0.036
6.6698	0.068
6.709	0.037
6.7482	0.035
6.7874	0.03
6.8266	0.031
6.8658	0.024
6.905	0.03
6.9442	0.05
6.9834	0.07
7.0226	0.062
7.0618	0.053
7.101	0.11
7.1402	0.144
7.1794	0.073
7.2186	0.02
7.2578	0.026
7.297	0.039
7.3362	0.09
7.3754	0.1
7.4146	0.14
7.4538	0.092
7.493	0.078
7.5322	0.204
7.5714	0.262
7.6106	0.119
7.6498	0.048
7.689	0.063
7.7282	0.063
7.7674	0.099
7.8066	0.211
7.8458	0.177
7.885	0.144
7.9242	0.052
7.9634	0.024
8.0026	0.039
8.0418	0.154
8.081	0.282
8.1202	0.356
8.1594	0.366
8.1986	0.261
8.2378	0.194
8.277	0.206
8.3162	0.16
8.3554	0.078
8.3946	0.052
8.4338	0.057
8.473	0.031
8.5122	0.034
8.5514	0.099
8.5906	0.179
8.6298	0.259
8.669	0.303
8.7082	0.189
8.7474	0.112
8.7866	0.127
8.8258	0.205
8.865	0.151
8.9042	0.055
8.9434	0.028
8.9826	0.031
9.0218	0.029
9.061	0.056
9.1002	0.047
9.1394	0.041
9.1786	0.044
9.2178	0.086
9.257	0.136
9.2962	0.099
9.3354	0.063
9.3746	0.079
9.4138	0.145
9.453	0.162
9.4922	0.135
9.5314	0.133
9.5706	0.099
9.6098	0.074
9.649	0.055
9.6882	0.073
9.7274	0.108
9.7666	0.112
9.8058	0.119
9.845	0.155
9.8842	0.237
9.9234	0.27
9.9626	0.32
10.0018	0.344
10.041	0.26
10.0802	0.189
10.1194	0.196
10.1586	0.31
10.1978	0.429
10.237	0.524
10.2762	0.575
10.3154	0.611
10.3546	0.625
10.3938	0.643
10.433	0.65
10.4722	0.644
10.5114	0.625
10.5506	0.59
10.5898	0.542
10.629	0.492
10.6682	0.462
10.7074	0.457
10.7466	0.504
10.7858	0.573
10.825	0.606
10.8642	0.601
10.9034	0.579
10.9426	0.613
10.9818	0.661
11.021	0.691
11.0602	0.701
11.0994	0.706
11.1386	0.706
11.1778	0.704
11.217	0.701
11.2562	0.68
11.2954	0.657
11.3346	0.607
11.3738	0.534
11.413	0.404
11.4522	0.272
11.4914	0.226
11.5306	0.278
11.5698	0.383
11.609	0.513
11.6482	0.567
11.6874	0.592
11.7266	0.558
11.7658	0.48
11.805	0.474
11.8442	0.441
11.8834	0.353
11.9226	0.416
11.9618	0.525
12.001	0.578
12.0402	0.591
12.0794	0.58
12.1186	0.548
12.1578	0.493
12.197	0.424
12.2362	0.283
12.2754	0.157
12.3146	0.077
12.3538	0.04
12.393	0.033
12.4322	0.031
12.4714	0.031
12.5106	0.033
12.5498	0.056
12.589	0.103
12.6282	0.155
12.6674	0.149
12.7066	0.157
12.7458	0.171
12.785	0.185
12.8242	0.264
12.8634	0.356
12.9026	0.455
12.9418	0.486
12.981	0.476
13.0202	0.459
13.0594	0.473
13.0986	0.498
13.1378	0.529
13.177	0.556
13.2162	0.579
13.2554	0.569
13.2946	0.514
13.3338	0.459
13.373	0.435
13.4122	0.457
13.4514	0.493
13.4906	0.459
13.5298	0.366
13.569	0.338
13.6082	0.366
13.6474	0.38
13.6866	0.405
13.7258	0.477
13.765	0.551
13.8042	0.594
13.8434	0.638
13.8826	0.672
13.9218	0.7
13.961	0.718
14.0002	0.723
14.0394	0.721
14.0786	0.715
14.1178	0.702
14.157	0.683
14.1962	0.632
14.2354	0.551
14.2746	0.444
14.3138	0.375
14.353	0.385
14.3922	0.486
14.4314	0.597
14.4706	0.656
14.5098	0.689
14.549	0.701
14.5882	0.712
14.6274	0.72
14.6666	0.727
14.7058	0.729
14.745	0.726
14.7842	0.724
14.8234	0.722
14.8626	0.721
14.9018	0.722
14.941	0.721
14.9802	0.712
15.0194	0.68
15.0586	0.666
15.0978	0.678
15.137	0.702
15.1762	0.701
15.2154	0.694
15.2546	0.689
15.2938	0.684
15.333	0.672
15.3722	0.667
15.4114	0.667
15.4506	0.657
15.4898	0.651
15.529	0.645
15.5682	0.643
15.6074	0.638
15.6466	0.635
15.6858	0.633
15.725	0.629
15.7642	0.621
15.8034	0.619
15.8426	0.612
15.8818	0.599
15.921	0.6
15.9602	0.596
