Infrared Spectrum: p-Bromophenyl butyl ether
Formula: C 10 H 13 Br O
CAS: 39969-57-8
State: gas
Origin: EPA-IR VAPOR PHASE LIBRARY
1/CM	ABSORBANCE
549.8	0.001306
559.445	0.001436
569.09	0.0009308
578.734	0.0012422
588.379	0.002376
598.024	0.004826
607.669	0.005046
617.313	0.004656
626.958	0.006786
636.603	0.010126
646.248	0.005716
655.893	0.001786
665.537	0.001296
675.182	0.0010412
684.827	0.0010155
694.472	0.001107
704.116	0.0011747
713.761	0.0009302
723.406	0.0010452
733.051	0.0012379
742.695	0.001706
752.34	0.001566
761.985	0.001536
771.63	0.001786
781.275	0.002876
790.919	0.004126
800.564	0.006246
810.209	0.010926
819.854	0.018636
829.498	0.016356
839.143	0.008656
848.788	0.004506
858.433	0.002956
868.078	0.002666
877.722	0.002616
887.367	0.002016
897.012	0.001806
906.657	0.001796
916.301	0.001496
925.946	0.001666
935.591	0.001836
945.236	0.002856
954.88	0.004466
964.525	0.006926
974.17	0.008546
983.815	0.007916
993.46	0.010456
1003.1	0.022696
1012.75	0.018136
1022.39	0.017476
1032.04	0.016226
1041.68	0.011456
1051.33	0.008746
1060.97	0.014266
1070.62	0.026826
1080.26	0.013986
1089.91	0.006776
1099.55	0.006326
1109.2	0.006346
1118.84	0.005236
1128.49	0.003606
1138.13	0.003346
1147.78	0.003676
1157.42	0.006246
1167.07	0.023706
1176.71	0.011426
1186.36	0.005566
1196	0.009066
1205.64	0.017696
1215.29	0.036816
1224.93	0.063676
1234.58	0.090596
1244.22	0.083686
1253.87	0.039976
1263.51	0.030726
1273.16	0.036896
1282.8	0.032096
1292.45	0.017366
1302.09	0.013846
1311.74	0.009786
1321.38	0.006096
1331.03	0.004716
1340.67	0.003886
1350.32	0.003446
1359.96	0.003286
1369.61	0.003976
1379.25	0.007136
1388.9	0.009216
1398.54	0.005606
1408.18	0.004066
1417.83	0.004416
1427.47	0.005286
1437.12	0.006346
1446.76	0.007706
1456.41	0.011476
1466.05	0.025286
1475.7	0.050686
1485.34	0.094016
1494.99	0.070206
1504.63	0.015876
1514.28	0.008036
1523.92	0.005086
1533.57	0.003516
1543.21	0.002966
1552.86	0.003476
1562.5	0.005256
1572.15	0.010896
1581.79	0.016686
1591.44	0.017216
1601.08	0.009846
1610.73	0.004046
1620.37	0.002806
1630.01	0.002186
1639.66	0.001846
1649.3	0.001426
1658.95	0.001316
1668.59	0.0010067
1678.24	0.0009658
1687.88	0.0010528
1697.53	0.0009051
1707.17	0.0009261
1716.82	0.0009551
1726.46	0.0010755
1736.11	0.001306
1745.75	0.001326
1755.4	0.0009679
1765.04	0.0008236
1774.69	0.0006967
1784.33	0.0007092
1793.98	0.0008959
1803.62	0.0008522
1813.27	0.0008551
1822.91	0.000982
1832.55	0.0010165
1842.2	0.001316
1851.84	0.001496
1861.49	0.001816
1871.13	0.001926
1880.78	0.001676
1890.42	0.001306
1900.07	0.0010717
1909.71	0.0009312
1919.36	0.000843
1929	0.000828
1938.65	0.000827
1948.29	0.0008379
1957.94	0.000876
1967.58	0.0008764
1977.23	0.0009677
1986.87	0.0010481
1996.52	0.0011804
2006.16	0.001316
2015.81	0.001376
2025.45	0.001406
2035.1	0.001506
2044.74	0.001476
2054.38	0.001356
2064.03	0.0012546
2073.67	0.0010852
2083.32	0.0010477
2092.96	0.0008344
2102.61	0.0008038
2112.25	0.0006939
2121.9	0.0005775
2131.54	0.0005062
2141.19	0.0004947
2150.83	0.0005824
2160.48	0.0005465
2170.12	0.0005882
2179.77	0.0006028
2189.41	0.0006011
2199.06	0.000616
2208.7	0.0005937
2218.35	0.0006316
2227.99	0.0006013
2237.64	0.0005797
2247.28	0.0005514
2256.92	0.0007252
2266.57	0.0007096
2276.21	0.0007808
2285.86	0.0007692
2295.5	0.0007671
2305.15	0.0008129
2314.79	0.0006287
2324.44	0.000602
2334.08	0.0005651
2343.73	0.0006731
2353.37	0.0006229
2363.02	0.0006665
2372.66	0.0009285
2382.31	0.000798
2391.95	0.0010228
2401.6	0.0009495
2411.24	0.0010353
2420.89	0.0008638
2430.53	0.0008956
2440.18	0.000902
2449.82	0.0009833
2459.47	0.0010018
2469.11	0.0010534
2478.75	0.0010968
2488.4	0.0010723
2498.04	0.0011839
2507.69	0.001266
2517.33	0.0011515
2526.98	0.0011692
2536.62	0.0010353
2546.27	0.0009888
2555.91	0.0008313
2565.56	0.0009309
2575.2	0.0007381
2584.85	0.0007766
2594.49	0.0007742
2604.14	0.0007266
2613.78	0.0007285
2623.43	0.0006146
2633.07	0.0005851
2642.72	0.0007052
2652.36	0.0007441
2662.01	0.0007281
2671.65	0.0009832
2681.29	0.0009347
2690.94	0.0009327
2700.58	0.000975
2710.23	0.0010224
2719.87	0.0011833
2729.52	0.001356
2739.16	0.001496
2748.81	0.001696
2758.45	0.001716
2768.1	0.001536
2777.74	0.001416
2787.39	0.001636
2797.03	0.001936
2806.68	0.002156
2816.32	0.002456
2825.97	0.002946
2835.61	0.003656
2845.26	0.005086
2854.9	0.007416
2864.55	0.010396
2874.19	0.015396
2883.84	0.020056
2893.48	0.018046
2903.12	0.016976
2912.77	0.019736
2922.41	0.022356
2932.06	0.026296
2941.7	0.032866
2951.35	0.033526
2960.99	0.035196
2970.64	0.038096
2980.28	0.023696
2989.93	0.011626
2999.57	0.006556
3009.22	0.004456
3018.86	0.003806
3028.51	0.003396
3038.15	0.004256
3047.8	0.003776
3057.44	0.002736
3067.09	0.003036
3076.73	0.003956
3086.38	0.003816
3096.02	0.004176
3105.67	0.002686
3115.31	0.001546
3124.95	0.0011103
3134.6	0.0009739
3144.24	0.0008311
3153.89	0.0008006
3163.53	0.0008108
3173.18	0.0006439
3182.82	0.0004493
3192.47	0.0005443
3202.11	0.0005482
3211.76	0.0006658
3221.4	0.0005135
3231.05	0.0004503
3240.69	0.0004643
3250.34	0.00034532
3259.98	0.0004139
3269.63	0.0002063
3279.27	0.0004858
3288.92	0.00028057
3298.56	0.0002535
3308.21	0.000397
3317.85	0.00033425
3327.49	0.0004365
3337.14	0.00035579
3346.78	0.0002338
3356.43	0.00035381
3366.07	9.7e-05
3375.72	0.0005187
3385.36	0.0004025
3395.01	0.000156
3404.65	0.0002057
3414.3	0.0003972
3423.94	0.0004023
3433.59	0.0003934
3443.23	0.000157
3452.88	0.000469
3462.52	0.0001685
3472.17	0.000134
3481.81	0.0004837
3491.46	0.00034537
3501.1	0.000101
3510.75	0.00025826
3520.39	0.00029086
3530.04	0.00032206
3539.68	0.0004044
3549.32	0.00031598
3558.97	0.000107
3568.61	0.0003726
3578.26	0.000132
3587.9	0.00028479
3597.55	0.0003826
3607.19	0.0002472
3616.84	0.0001895
3626.48	0.000157
3636.13	0.0001968
3645.77	0.0001756
3655.42	0.0005589
3665.06	0.0003283
3674.71	0.00032765
3684.35	0.0005342
3694	0.0002464
3703.64	0.00036507
3713.29	0.00033794
3722.93	0.0005098
3732.58	0.0004235
3742.22	0.0004136
3751.86	0.00036475
3761.51	0.0004532
3771.15	0.0004449
3780.8	0.0005021
3790.44	0.00029428
3800.09	0.000131
3809.73	0.0004451
3819.38	0.00025839
3829.02	0.0005341
3838.67	0.00032911
3848.31	0.0004248
3857.96	0.0005435
3867.6	0.0005337
3877.25	0.0003915
3886.89	0.0005255
3896.54	0.00035659
3906.18	0.00030187
3915.83	0.00035398
3925.47	0.000489
3935.12	0.0006639
3944.76	0.00028188
3954.41	0.00031789
3964.05	0.00030679
3973.69	0.0004442
3983.34	0.0005229
3992.98	0.0005571
