Infrared Spectrum: 3,5-Dichlorobenzylamine
Formula: C 7 H 7 Cl 2 N
CAS: 39989-43-0
State: gas
Origin: EPA-IR VAPOR PHASE LIBRARY
1/CM	ABSORBANCE
549.8	0.002655
559.445	0.003845
569.09	0.003515
578.734	0.004785
588.379	0.006955
598.024	0.006915
607.669	0.008085
617.313	0.007015
626.958	0.007035
636.603	0.006945
646.248	0.006625
655.893	0.007355
665.537	0.011615
675.182	0.017805
684.827	0.018535
694.472	0.013675
704.116	0.011965
713.761	0.013405
723.406	0.015455
733.051	0.018025
742.695	0.021225
752.34	0.024575
761.985	0.029035
771.63	0.032705
781.275	0.037315
790.919	0.057565
800.564	0.069505
810.209	0.038085
819.854	0.022955
829.498	0.021855
839.143	0.022195
848.788	0.029815
858.433	0.030455
868.078	0.017925
877.722	0.011885
887.367	0.011655
897.012	0.008345
906.657	0.005605
916.301	0.004615
925.946	0.003295
935.591	0.002905
945.236	0.003765
954.88	0.003155
964.525	0.002905
974.17	0.002615
983.815	0.003115
993.46	0.003565
1003.1	0.004255
1012.75	0.004595
1022.39	0.004765
1032.04	0.005085
1041.68	0.005545
1051.33	0.005995
1060.97	0.005345
1070.62	0.004725
1080.26	0.004555
1089.91	0.011775
1099.55	0.015135
1109.2	0.012685
1118.84	0.007655
1128.49	0.005535
1138.13	0.002735
1147.78	0.004125
1157.42	0.002745
1167.07	0.004645
1176.71	0.006275
1186.36	0.009745
1196	0.017785
1205.64	0.023485
1215.29	0.018865
1224.93	0.011455
1234.58	0.008565
1244.22	0.006285
1253.87	0.003325
1263.51	0.001895
1273.16	0.002425
1282.8	0.002265
1292.45	0.002635
1302.09	0.002245
1311.74	0.002885
1321.38	0.003925
1331.03	0.005595
1340.67	0.007265
1350.32	0.008675
1359.96	0.011555
1369.61	0.016165
1379.25	0.020215
1388.9	0.019775
1398.54	0.014125
1408.18	0.013005
1417.83	0.024495
1427.47	0.044505
1437.12	0.039355
1446.76	0.015945
1456.41	0.007375
1466.05	0.005955
1475.7	0.004835
1485.34	0.004375
1494.99	0.003785
1504.63	0.003825
1514.28	0.003985
1523.92	0.004455
1533.57	0.005575
1543.21	0.009615
1552.86	0.024635
1562.5	0.058085
1572.15	0.080315
1581.79	0.055095
1591.44	0.034005
1601.08	0.020105
1610.73	0.014475
1620.37	0.013845
1630.01	0.011045
1639.66	0.007645
1649.3	0.005495
1658.95	0.004235
1668.59	0.002965
1678.24	0.002705
1687.88	0.002555
1697.53	0.002625
1707.17	0.003115
1716.82	0.004055
1726.46	0.004145
1736.11	0.003185
1745.75	0.002805
1755.4	0.003415
1765.04	0.003225
1774.69	0.002505
1784.33	0.002165
1793.98	0.002085
1803.62	0.001985
1813.27	0.001795
1822.91	0.001815
1832.55	0.001825
1842.2	0.0016068
1851.84	0.001805
1861.49	0.001575
1871.13	0.0011445
1880.78	0.0012877
1890.42	0.0015292
1900.07	0.0015878
1909.71	0.0016152
1919.36	0.0013055
1929	0.0012629
1938.65	0.001464
1948.29	0.0011222
1957.94	0.0015584
1967.58	0.0012814
1977.23	0.0013885
1986.87	0.0013552
1996.52	0.0011559
2006.16	0.0013742
2015.81	0.0011528
2025.45	0.0011032
2035.1	0.001213
2044.74	0.0009444
2054.38	0.0011316
2064.03	0.001131
2073.67	0.0011712
2083.32	0.0014212
2092.96	0.0010714
2102.61	0.0012152
2112.25	0.0009416
2121.9	0.0010367
2131.54	0.0010603
2141.19	0.0011984
2150.83	0.001085
2160.48	0.0012858
2170.12	0.0010104
2179.77	0.0012849
2189.41	0.0012034
2199.06	0.0010388
2208.7	0.0012599
2218.35	0.0011347
2227.99	0.0011292
2237.64	0.0011084
2247.28	0.0010157
2256.92	0.0011922
2266.57	0.0011196
2276.21	0.0014498
2285.86	0.0010766
2295.5	0.0010313
2305.15	0.0012907
2314.79	0.0012262
2324.44	0.0013636
2334.08	0.001058
2343.73	0.0010636
2353.37	0.0008946
2363.02	0.0013125
2372.66	0.0010307
2382.31	0.0015236
2391.95	0.0013615
2401.6	0.0010502
2411.24	0.0011954
2420.89	0.001001
2430.53	0.0012821
2440.18	0.0013598
2449.82	0.0014409
2459.47	0.0013666
2469.11	0.0011618
2478.75	0.001192
2488.4	0.00086429
2498.04	0.0012552
2507.69	0.001104
2517.33	0.0010572
2526.98	0.0010168
2536.62	0.0009368
2546.27	0.0012695
2555.91	0.0010276
2565.56	0.0012064
2575.2	0.0011605
2584.85	0.0010721
2594.49	0.0013076
2604.14	0.0011416
2613.78	0.001487
2623.43	0.0015798
2633.07	0.0013024
2642.72	0.0012292
2652.36	0.0014261
2662.01	0.0013434
2671.65	0.0013654
2681.29	0.0015502
2690.94	0.0017148
2700.58	0.0017665
2710.23	0.001583
2719.87	0.002105
2729.52	0.0016784
2739.16	0.001795
2748.81	0.002325
2758.45	0.001795
2768.1	0.001995
2777.74	0.002205
2787.39	0.001915
2797.03	0.002205
2806.68	0.002965
2816.32	0.003295
2825.97	0.003995
2835.61	0.005245
2845.26	0.007115
2854.9	0.008825
2864.55	0.010135
2874.19	0.010035
2883.84	0.009205
2893.48	0.009275
2903.12	0.009865
2912.77	0.009705
2922.41	0.009445
2932.06	0.008285
2941.7	0.008915
2951.35	0.008285
2960.99	0.005685
2970.64	0.004265
2980.28	0.003025
2989.93	0.002285
2999.57	0.002185
3009.22	0.0011744
3018.86	0.0015136
3028.51	0.001965
3038.15	0.00134
3047.8	0.0017077
3057.44	0.003015
3067.09	0.002985
3076.73	0.001985
3086.38	0.0016545
3096.02	0.0010386
3105.67	0.0007367
3115.31	0.0011719
3124.95	0.001935
3134.6	0.0009495
3144.24	0.0011335
3153.89	0.0012871
3163.53	0.000625
3173.18	0.0011027
3182.82	0.0008972
3192.47	0.0014022
3202.11	0.0016661
3211.76	0.0009567
3221.4	0.000936
3231.05	0.00081081
3240.69	0.0011575
3250.34	0.0012696
3259.98	0.0012906
3269.63	0.0011176
3279.27	0.000602
3288.92	0.00085136
3298.56	0.0012677
3308.21	0.000785507
3317.85	0.0011176
3327.49	0.0009544
3337.14	0.0014075
3346.78	0.001509
3356.43	0.0017569
3366.07	0.0012954
3375.72	0.001845
3385.36	0.00087432
3395.01	0.0016837
3404.65	0.001438
3414.3	0.0015102
3423.94	0.0014104
3433.59	0.0016116
3443.23	0.0014384
3452.88	0.001017
3462.52	0.000621
3472.17	0.0010183
3481.81	0.0011681
3491.46	0.00088194
3501.1	0.00084286
3510.75	0.0012379
3520.39	0.0015227
3530.04	0.0009154
3539.68	0.000495
3549.32	0.00077873
3558.97	0.000198
3568.61	0.000385
3578.26	0.0011851
3587.9	0.0010951
3597.55	0.0009362
3607.19	0.0013527
3616.84	0.000647
3626.48	0.0008984
3636.13	0.0009325
3645.77	0.000605
3655.42	0.0010564
3665.06	0.0014248
3674.71	0.0013468
3684.35	0.0009734
3694	0.0011768
3703.64	0.000815
3713.29	0.0012297
3722.93	0.0013909
3732.58	0.00067
3742.22	0.0010868
3751.86	0.0011013
3761.51	0.000579
3771.15	0.0011246
3780.8	0.000651
3790.44	0.00088036
3800.09	0.0010489
3809.73	0.00053
3819.38	0.0008642
3829.02	0.0011612
3838.67	0.000549
3848.31	0.0006945
3857.96	0.0011081
3867.6	0.0010164
3877.25	0.00080491
3886.89	0.0014953
3896.54	0.0009083
3906.18	0.000787848
3915.83	0.0014824
3925.47	0.000790908
3935.12	0.000325
3944.76	0.001039
3954.41	0.0013548
3964.05	0.000575
3973.69	0.000492
3983.34	0.0009644
3992.98	0.0010898
