Infrared Spectrum: 2,4-Dimethyl-4-hydroxymethyl-2-oxazoline
Formula: C 6 H 11 N O 2
CAS: 39986-37-3
State: gas
Origin: EPA-IR VAPOR PHASE LIBRARY
1/CM	ABSORBANCE
549.8	0.0006091
559.445	0.0004971
569.09	0.0005178
578.734	0.0005606
588.379	0.0008369
598.024	0.0006098
607.669	0.0005122
617.313	0.0004651
626.958	0.0014155
636.603	0.0020755
646.248	0.0022355
655.893	0.0019855
665.537	0.0012755
675.182	0.0009278
684.827	0.0007178
694.472	0.0008683
704.116	0.000623
713.761	0.0004211
723.406	0.0002722
733.051	0.0004004
742.695	0.0003155
752.34	0.00017957
761.985	0.0005006
771.63	0.0002724
781.275	0.000229
790.919	0.0004216
800.564	0.0006036
810.209	0.0012455
819.854	0.0011655
829.498	0.0011055
839.143	0.0007861
848.788	0.0010491
858.433	0.0015755
868.078	0.0024455
877.722	0.0028455
887.367	0.0026255
897.012	0.0021855
906.657	0.0029755
916.301	0.0041455
925.946	0.0041055
935.591	0.0027655
945.236	0.0022355
954.88	0.0022855
964.525	0.0031355
974.17	0.0047755
983.815	0.0077955
993.46	0.0100955
1003.1	0.0085355
1012.75	0.0060455
1022.39	0.0069455
1032.04	0.0090155
1041.68	0.0107255
1051.33	0.0119255
1060.97	0.0116955
1070.62	0.0075755
1080.26	0.0030955
1089.91	0.0016555
1099.55	0.0013055
1109.2	0.0014755
1118.84	0.0016155
1128.49	0.0020555
1138.13	0.0021355
1147.78	0.0023955
1157.42	0.0023655
1167.07	0.0025355
1176.71	0.0027855
1186.36	0.0029155
1196	0.0035855
1205.64	0.0040055
1215.29	0.0048955
1224.93	0.0059955
1234.58	0.0057155
1244.22	0.0052855
1253.87	0.0052455
1263.51	0.0061155
1273.16	0.0064655
1282.8	0.0065955
1292.45	0.0052655
1302.09	0.0035555
1311.74	0.0023755
1321.38	0.0020055
1331.03	0.0023955
1340.67	0.0032055
1350.32	0.0033855
1359.96	0.0034055
1369.61	0.0045355
1379.25	0.0072355
1388.9	0.0086055
1398.54	0.0064655
1408.18	0.0034555
1417.83	0.0018855
1427.47	0.0018355
1437.12	0.0025255
1446.76	0.0030255
1456.41	0.0032355
1466.05	0.0028555
1475.7	0.0024355
1485.34	0.0015655
1494.99	0.0009523
1504.63	0.000724
1514.28	0.0006355
1523.92	0.0005699
1533.57	0.0005849
1543.21	0.0005925
1552.86	0.0005986
1562.5	0.0007428
1572.15	0.000696
1581.79	0.0006921
1591.44	0.0008138
1601.08	0.0008736
1610.73	0.0009879
1620.37	0.0013755
1630.01	0.0019255
1639.66	0.0033455
1649.3	0.0059655
1658.95	0.0114255
1668.59	0.0178255
1678.24	0.0186155
1687.88	0.0124155
1697.53	0.0058655
1707.17	0.0030955
1716.82	0.0016155
1726.46	0.0011355
1736.11	0.0010046
1745.75	0.0008526
1755.4	0.000579
1765.04	0.0004085
1774.69	0.0003905
1784.33	0.0004045
1793.98	0.0003595
1803.62	0.0003478
1813.27	0.0003821
1822.91	0.0003237
1832.55	0.0003296
1842.2	0.0002392
1851.84	0.0003175
1861.49	0.0002796
1871.13	0.000344
1880.78	0.0003017
1890.42	0.0003203
1900.07	0.0003044
1909.71	0.0003261
1919.36	0.0002575
1929	0.0002265
1938.65	0.0002993
1948.29	0.0002505
1957.94	0.0002737
1967.58	0.000316
1977.23	0.0002128
1986.87	0.0002892
1996.52	0.0002643
2006.16	0.0002582
2015.81	0.0002201
2025.45	0.0003033
2035.1	0.0003007
2044.74	0.0002962
2054.38	0.0002832
2064.03	0.0002777
2073.67	0.0003036
2083.32	0.0002128
2092.96	0.0002913
2102.61	0.0002992
2112.25	0.0002649
2121.9	0.0002732
2131.54	0.0002125
2141.19	0.0002667
2150.83	0.0001926
2160.48	0.0002238
2170.12	0.0002069
2179.77	0.0002454
2189.41	0.0002541
2199.06	0.0002286
2208.7	0.0002336
2218.35	0.0001904
2227.99	0.000188
2237.64	0.0002056
2247.28	0.0002578
2256.92	0.0002464
2266.57	0.0002936
2276.21	0.0002554
2285.86	0.0003015
2295.5	0.0002386
2305.15	0.0002783
2314.79	0.0002275
2324.44	0.000276
2334.08	0.000296
2343.73	0.0002557
2353.37	0.0002581
2363.02	0.0003181
2372.66	0.0002516
2382.31	0.0001989
2391.95	0.00018321
2401.6	0.000263
2411.24	0.0002385
2420.89	0.0002992
2430.53	0.0002896
2440.18	0.0002359
2449.82	0.0002393
2459.47	0.0003
2469.11	0.0002397
2478.75	0.0002268
2488.4	0.00017281
2498.04	0.0001958
2507.69	0.0002123
2517.33	0.0002477
2526.98	0.0001459
2536.62	0.0003114
2546.27	0.0002274
2555.91	0.0002519
2565.56	0.0002423
2575.2	0.0002093
2584.85	0.0002377
2594.49	0.0002308
2604.14	0.000379
2613.78	0.0002414
2623.43	0.0003348
2633.07	0.0003366
2642.72	0.0003651
2652.36	0.0003496
2662.01	0.0003396
2671.65	0.0004073
2681.29	0.0003288
2690.94	0.0003525
2700.58	0.0004015
2710.23	0.0004361
2719.87	0.000455
2729.52	0.0004355
2739.16	0.0005813
2748.81	0.0005907
2758.45	0.0004768
2768.1	0.0005675
2777.74	0.0005374
2787.39	0.0005349
2797.03	0.0006092
2806.68	0.0007476
2816.32	0.0008562
2825.97	0.0009596
2835.61	0.0012455
2845.26	0.0015255
2854.9	0.0022655
2864.55	0.0035755
2874.19	0.0052255
2883.84	0.0058255
2893.48	0.0056155
2903.12	0.0053455
2912.77	0.0057055
2922.41	0.0068055
2932.06	0.0084855
2941.7	0.0090055
2951.35	0.0084155
2960.99	0.0084855
2970.64	0.0102155
2980.28	0.0098855
2989.93	0.0059755
2999.57	0.0027755
3009.22	0.0013155
3018.86	0.0012055
3028.51	0.0009401
3038.15	0.0007064
3047.8	0.0005231
3057.44	0.0005223
3067.09	0.0004861
3076.73	0.0005718
3086.38	0.0005497
3096.02	0.0004627
3105.67	0.0005481
3115.31	0.000445
3124.95	0.0003076
3134.6	0.0004304
3144.24	0.0004359
3153.89	0.0003879
3163.53	0.0002544
3173.18	0.0004056
3182.82	0.0003188
3192.47	0.0002444
3202.11	0.0002513
3211.76	0.0003052
3221.4	0.0002503
3231.05	0.0003412
3240.69	0.0003696
3250.34	0.0003544
3259.98	0.0003215
3269.63	0.000229
3279.27	0.0002492
3288.92	0.0003005
3298.56	0.0002013
3308.21	0.0002807
3317.85	0.0004195
3327.49	0.0004723
3337.14	0.0002439
3346.78	0.0004077
3356.43	0.0002537
3366.07	0.0002873
3375.72	0.00010725
3385.36	0.00016146
3395.01	0.0001157
3404.65	0.000268
3414.3	0.0001953
3423.94	4.14e-05
3433.59	2.68e-05
3443.23	0.0002266
3452.88	0.0002357
3462.52	0.0002647
3472.17	0.00019
3481.81	0.00012354
3491.46	0.0003227
3501.1	0.0002696
3510.75	0.0001865
3520.39	0.00014875
3530.04	0.0002899
3539.68	0.0002352
3549.32	0.0002529
3558.97	0.0002394
3568.61	0.0003666
3578.26	0.0004509
3587.9	0.0009241
3597.55	0.0015755
3607.19	0.0020655
3616.84	0.0021455
3626.48	0.0015655
3636.13	0.0007043
3645.77	0.0008064
3655.42	0.0007039
3665.06	0.0009436
3674.71	0.0012655
3684.35	0.0008142
3694	0.0004867
3703.64	0.0003123
3713.29	0.0003382
3722.93	0.0003703
3732.58	0.0001961
3742.22	0.0002742
3751.86	0.000216
3761.51	0.0001345
3771.15	0.00014042
3780.8	0.00016924
3790.44	0.00012251
3800.09	7.903e-05
3809.73	3.48e-05
3819.38	9.2305e-05
3829.02	0.0003682
3838.67	0.00018311
3848.31	0.00013599
3857.96	0.0002288
3867.6	0.00013343
3877.25	0.0002032
3886.89	0.000281
3896.54	0.0001856
3906.18	0.0003774
3915.83	0.0002074
3925.47	0.0002605
3935.12	0.000186
3944.76	7.13e-05
3954.41	0.0004358
3964.05	0.0003538
3973.69	0.0002844
3983.34	0.0004459
3992.98	0.0003682
