Infrared Spectrum: 2-Fluoro-4-iodotoluene
Formula: C 7 H 6 F I
CAS: 39998-81-7
State: gas
Origin: EPA-IR VAPOR PHASE LIBRARY
1/CM	ABSORBANCE
549.9	0.004277
559.547	0.004567
569.193	0.004917
578.84	0.003027
588.486	0.001747
598.133	0.0013759
607.779	0.003237
617.426	0.003467
627.072	0.0011011
636.719	0.0010431
646.365	0.0010596
656.012	0.0008745
665.658	0.0009302
675.305	0.0007405
684.951	0.0008144
694.598	0.0008727
704.245	0.0007013
713.891	0.0007627
723.538	0.0009983
733.184	0.001023
742.831	0.0015656
752.477	0.002897
762.124	0.002427
771.77	0.001647
781.417	0.003387
791.063	0.008787
800.71	0.015657
810.356	0.011747
820.003	0.005747
829.649	0.003587
839.296	0.007947
848.943	0.021007
858.589	0.030997
868.236	0.046597
877.882	0.019817
887.529	0.003867
897.175	0.001757
906.822	0.0012861
916.468	0.0011463
926.115	0.0011471
935.761	0.0012377
945.408	0.001325
955.054	0.0015766
964.701	0.002167
974.347	0.003057
983.994	0.005167
993.64	0.006167
1003.29	0.003277
1012.93	0.002057
1022.58	0.0012589
1032.23	0.001187
1041.87	0.0014035
1051.52	0.001847
1061.17	0.003387
1070.81	0.002777
1080.46	0.0013303
1090.11	0.001677
1099.75	0.002447
1109.4	0.004637
1119.05	0.007677
1128.69	0.008657
1138.34	0.007637
1147.99	0.005887
1157.63	0.003777
1167.28	0.003367
1176.92	0.006837
1186.57	0.009517
1196.22	0.009587
1205.86	0.011087
1215.51	0.018407
1225.16	0.016647
1234.8	0.008677
1244.45	0.005437
1254.1	0.009887
1263.74	0.017927
1273.39	0.010057
1283.04	0.003977
1292.68	0.002217
1302.33	0.001587
1311.98	0.0013692
1321.62	0.0012112
1331.27	0.0012316
1340.92	0.0012531
1350.56	0.001877
1360.21	0.003077
1369.86	0.005517
1379.5	0.010167
1389.15	0.015347
1398.79	0.017777
1408.44	0.014517
1418.09	0.009477
1427.73	0.009737
1437.38	0.006567
1447.03	0.005247
1456.67	0.006117
1466.32	0.011977
1475.97	0.041247
1485.61	0.063667
1495.26	0.026267
1504.91	0.010797
1514.55	0.006737
1524.2	0.003487
1533.85	0.003227
1543.49	0.004627
1553.14	0.008257
1562.79	0.014847
1572.43	0.022107
1582.08	0.021687
1591.73	0.016377
1601.37	0.017317
1611.02	0.010227
1620.67	0.002997
1630.31	0.001667
1639.96	0.0012835
1649.6	0.001224
1659.25	0.0011196
1668.9	0.0010966
1678.54	0.0010451
1688.19	0.0009862
1697.84	0.0010527
1707.48	0.0013977
1717.13	0.002127
1726.78	0.002087
1736.42	0.001597
1746.07	0.0010199
1755.72	0.00064973
1765.36	0.00067182
1775.01	0.00058851
1784.66	0.0005675
1794.3	0.00060806
1803.95	0.0007223
1813.6	0.00064384
1823.24	0.0005562
1832.89	0.0005624
1842.54	0.00063627
1852.18	0.0006221
1861.83	0.0008207
1871.47	0.001131
1881.12	0.0011622
1890.77	0.0008163
1900.41	0.000483
1910.06	0.000439
1919.71	0.000392
1929.35	0.000438
1939	0.000394
1948.65	0.000335
1958.29	0.000426
1967.94	0.0005026
1977.59	0.00057824
1987.23	0.000469
1996.88	0.000473
2006.53	0.000465
2016.17	0.0004957
2025.82	0.000421
2035.47	0.000357
2045.11	0.000324
2054.76	0.000409
2064.41	0.00039
2074.05	0.000427
2083.7	0.000405
2093.35	0.000398
2102.99	0.000302
2112.64	0.000294
2122.28	0.000352
2131.93	0.000389
2141.58	0.000369
2151.22	0.000293
2160.87	0.000232
2170.52	0.000206
2180.16	0.00025
2189.81	0.000184
2199.46	0.000243
2209.1	0.000249
2218.75	0.000331
2228.4	0.000375
2238.04	0.000445
2247.69	0.000415
2257.34	0.000388
2266.98	0.000383
2276.63	0.000285
2286.28	0.00027
2295.92	0.000149
2305.57	0.000237
2315.22	0.000267
2324.86	0.000329
2334.51	0.0005093
2344.16	0.000469
2353.8	0.000383
2363.45	0.000377
2373.09	0.000294
2382.74	0.000341
2392.39	0.000426
2402.03	0.0005121
2411.68	0.000472
2421.33	0.000418
2430.97	0.000409
2440.62	0.000411
2450.27	0.000412
2459.91	0.000412
2469.56	0.0004881
2479.21	0.0005692
2488.85	0.000436
2498.5	0.000355
2508.15	0.000297
2517.79	0.000312
2527.44	0.000343
2537.09	0.000264
2546.73	0.000279
2556.38	0.000228
2566.03	0.000131
2575.67	0.000276
2585.32	0.000142
2594.96	8e-05
2604.61	4e-05
2614.26	6e-05
2623.9	0.000139
2633.55	0.000128
2643.2	0.000215
2652.84	0.000178
2662.49	0.000174
2672.14	0.000184
2681.78	0.000156
2691.43	0.00012
2701.08	0.00011
2710.72	0.000118
2720.37	0.00013
2730.02	0.00012
2739.66	0.000242
2749.31	0.000344
2758.96	0.000249
2768.6	0.000108
2778.25	0.000159
2787.9	0.00015
2797.54	0.000163
2807.19	6.3e-05
2816.84	0.00027
2826.48	0.000365
2836.13	0.0005042
2845.77	0.000735
2855.42	0.0012628
2865.07	0.002277
2874.71	0.003667
2884.36	0.003477
2894.01	0.002717
2903.65	0.002767
2913.3	0.002867
2922.95	0.003607
2932.59	0.006807
2942.24	0.010787
2951.89	0.006507
2961.53	0.003557
2971.18	0.003547
2980.83	0.003477
2990.47	0.003297
3000.12	0.002777
3009.77	0.002147
3019.41	0.002637
3029.06	0.004047
3038.71	0.004487
3048.35	0.003547
3058	0.003667
3067.64	0.004057
3077.29	0.003717
3086.94	0.002297
3096.58	0.0011459
3106.23	0.0007011
3115.88	0.00063452
3125.52	0.000342
3135.17	0.000372
3144.82	0.000287
3154.46	0.00032
3164.11	0.000333
3173.76	0.000352
3183.4	0.000452
3193.05	0.000299
3202.7	0.000342
3212.34	0.00034
3221.99	0.00018
3231.64	0.0005043
3241.28	0.00025
3250.93	0.000316
3260.58	0.0006124
3270.22	0.0006133
3279.87	0.00067419
3289.52	0.00058126
3299.16	0.0005017
3308.81	0.00044
3318.45	0.00061697
3328.1	0.0005477
3337.75	0.00063855
3347.39	0.0005149
3357.04	0.0005578
3366.69	0.0008028
3376.33	0.00058526
3385.98	0.000856
3395.63	0.00067994
3405.27	0.000561
3414.92	0.0007446
3424.57	0.0006657
3434.21	0.0008655
3443.86	0.0008769
3453.51	0.0008239
3463.15	0.00067522
3472.8	0.0007138
3482.45	0.0008746
3492.09	0.0007989
3501.74	0.0008447
3511.39	0.0007509
3521.03	0.0007545
3530.68	0.0007769
3540.33	0.0007275
3549.97	0.0007888
3559.62	0.0007622
3569.26	0.0007324
3578.91	0.0008312
3588.56	0.00067841
3598.2	0.00068596
3607.85	0.0007276
3617.5	0.0009577
3627.14	0.0007078
3636.79	0.0008386
3646.44	0.00084
3656.08	0.0007957
3665.73	0.00064862
3675.38	0.00065494
3685.02	0.0007521
3694.67	0.0006939
3704.32	0.0007698
3713.96	0.0007869
3723.61	0.00066407
3733.26	0.0008603
3742.9	0.0007062
3752.55	0.0008123
3762.2	0.00063976
3771.84	0.0007007
3781.49	0.0007149
3791.13	0.00066761
3800.78	0.0007835
3810.43	0.00062675
3820.07	0.0007242
3829.72	0.00062354
3839.37	0.00063736
3849.01	0.000742
3858.66	0.00067037
3868.31	0.0006881
3877.95	0.000588024
3887.6	0.00062016
3897.25	0.0006949
3906.89	0.00063036
3916.54	0.0007715
3926.19	0.0007062
3935.83	0.0007357
3945.48	0.00068663
3955.13	0.000586796
3964.77	0.00063922
3974.42	0.0005607
3984.07	0.000459
3993.71	0.00061214
