Infrared Spectrum: Isopropyl trifluoroacetate
Formula: C 5 H 7 F 3 O 2
CAS: 400-38-4
State: gas
Origin: EPA-IR VAPOR PHASE LIBRARY
1/CM	ABSORBANCE
549.9	0.00448
559.547	0.0036
569.193	0.003007
578.84	0.00352
588.486	0.00361
598.133	0.0030639
607.779	0.002355
617.426	0.001789
627.072	0.001606
636.719	0.001733
646.365	0.00165
656.012	0.001558
665.658	0.001544
675.305	0.001701
684.951	0.001763
694.598	0.0024093
704.245	0.0034305
713.891	0.00625
723.538	0.0269
733.184	0.03582
742.831	0.01546
752.477	0.0064
762.124	0.00976
771.77	0.01868
781.417	0.0253
791.063	0.01993
800.71	0.0142
810.356	0.01992
820.003	0.02275
829.649	0.01329
839.296	0.00993
848.943	0.0245
858.589	0.04312
868.236	0.03357
877.882	0.01188
887.529	0.00773
897.175	0.01152
906.822	0.01985
916.468	0.01989
926.115	0.00967
935.761	0.00482
945.408	0.00439
955.054	0.00431
964.701	0.00417
974.347	0.00426
983.994	0.00433
993.64	0.00431
1003.29	0.00434
1012.93	0.00496
1022.58	0.0067
1032.23	0.00927
1041.87	0.01153
1051.52	0.01332
1061.17	0.01625
1070.81	0.02268
1080.46	0.04024
1090.11	0.10093
1099.75	0.21316
1109.4	0.23433
1119.05	0.13204
1128.69	0.10562
1138.34	0.15702
1147.99	0.31841
1157.63	0.62832
1167.28	0.80848
1176.92	0.58872
1186.57	0.43262
1196.22	0.27046
1205.86	0.22906
1215.51	0.31834
1225.16	0.40498
1234.8	0.31319
1244.45	0.14831
1254.1	0.059
1263.74	0.03173
1273.39	0.02102
1283.04	0.01809
1292.68	0.01854
1302.33	0.02188
1311.98	0.03313
1321.62	0.05448
1331.27	0.07625
1340.92	0.07261
1350.56	0.04798
1360.21	0.04279
1369.86	0.0626
1379.5	0.0789
1389.15	0.06562
1398.79	0.03272
1408.44	0.01396
1418.09	0.00899
1427.73	0.00785
1437.38	0.00883
1447.03	0.01223
1456.67	0.01657
1466.32	0.01874
1475.97	0.01587
1485.61	0.00978
1495.26	0.00563
1504.91	0.00399
1514.55	0.00365
1524.2	0.00365
1533.85	0.00392
1543.49	0.00507
1553.14	0.00643
1562.79	0.00578
1572.43	0.00406
1582.08	0.0032947
1591.73	0.0031481
1601.37	0.0031545
1611.02	0.0033671
1620.67	0.00393
1630.31	0.0045
1639.96	0.00466
1649.6	0.0041
1659.25	0.00356
1668.9	0.00347
1678.54	0.00366
1688.19	0.00398
1697.84	0.00446
1707.48	0.00562
1717.13	0.00754
1726.78	0.01038
1736.42	0.01438
1746.07	0.02044
1755.72	0.03039
1765.36	0.05367
1775.01	0.11787
1784.66	0.24371
1794.3	0.30779
1803.95	0.2049
1813.6	0.07185
1823.24	0.024
1832.89	0.01262
1842.54	0.00848
1852.18	0.0059
1861.83	0.00436
1871.47	0.0034205
1881.12	0.0029156
1890.77	0.0027369
1900.41	0.0028547
1910.06	0.0031279
1919.71	0.0032619
1929.35	0.0030394
1939	0.0026293
1948.65	0.0025825
1958.29	0.00254009
1967.94	0.002267
1977.59	0.00199
1987.23	0.001837
1996.88	0.002026
2006.53	0.0024201
2016.17	0.0027938
2025.82	0.0027728
2035.47	0.002358
2045.11	0.002003
2054.76	0.001794
2064.41	0.0017
2074.05	0.001736
2083.7	0.001808
2093.35	0.001846
2102.99	0.001642
2112.64	0.00135
2122.28	0.00124
2131.93	0.00117
2141.58	0.00123
2151.22	0.00132
2160.87	0.00126
2170.52	0.00142
2180.16	0.001555
2189.81	0.001758
2199.46	0.001792
2209.1	0.001543
2218.75	0.00139
2228.4	0.00139
2238.04	0.00146
2247.69	0.001555
2257.34	0.001553
2266.98	0.001768
2276.63	0.001929
2286.28	0.002108
2295.92	0.002379
2305.57	0.002774
2315.22	0.003228
2324.86	0.0033473
2334.51	0.0030215
2344.16	0.0025986
2353.8	0.002219
2363.45	0.001862
2373.09	0.001859
2382.74	0.001906
2392.39	0.001931
2402.03	0.001911
2411.68	0.00186
2421.33	0.001868
2430.97	0.001916
2440.62	0.001904
2450.27	0.001915
2459.91	0.001899
2469.56	0.001918
2479.21	0.00202
2488.85	0.0023616
2498.5	0.00248493
2508.15	0.0024386
2517.79	0.0025992
2527.44	0.0029808
2537.09	0.002985
2546.73	0.00245834
2556.38	0.001917
2566.03	0.001641
2575.67	0.00137
2585.32	0.00119
2594.96	0.00111
2604.61	0.0011
2614.26	0.00101
2623.9	0.00099
2633.55	0.00112
2643.2	0.00136
2652.84	0.00138
2662.49	0.00115
2672.14	0.00089
2681.78	0.00086
2691.43	0.001
2701.08	0.00118
2710.72	0.00124
2720.37	0.0011
2730.02	0.00094
2739.66	0.00102
2749.31	0.00131
2758.96	0.00122
2768.6	0.00096
2778.25	0.00099
2787.9	0.00084
2797.54	0.00084
2807.19	0.00089
2816.84	0.00111
2826.48	0.001499
2836.13	0.001862
2845.77	0.001953
2855.42	0.002209
2865.07	0.0031536
2874.71	0.00508
2884.36	0.00795
2894.01	0.0094
2903.65	0.00918
2913.3	0.00909
2922.95	0.01048
2932.59	0.01534
2942.24	0.02351
2951.89	0.02477
2961.53	0.01836
2971.18	0.02005
2980.83	0.04624
2990.47	0.07831
3000.12	0.06357
3009.77	0.02768
3019.41	0.01106
3029.06	0.00518
3038.71	0.0031677
3048.35	0.002255
3058	0.001795
3067.64	0.001541
3077.29	0.00128
3086.94	0.00122
3096.58	0.00104
3106.23	0.00119
3115.88	0.00126
3125.52	0.00099
3135.17	0.00092
3144.82	0.00097
3154.46	0.0012
3164.11	0.00117
3173.76	0.00136
3183.4	0.00138
3193.05	0.00133
3202.7	0.00092
3212.34	0.00103
3221.99	0.00075
3231.64	0.00042
3241.28	0.00043
3250.93	0.00039
3260.58	0.00013
3270.22	0.00024
3279.87	2e-05
3289.52	0.00023
3299.16	9e-05
3308.81	0.0003
3318.45	0.00033
3328.1	0.00033
3337.75	0.0004
3347.39	0.00052
3357.04	0.00046
3366.69	0.00045
3376.33	0.00052
3385.98	0.00055
3395.63	0.00073
3405.27	0.00074
3414.92	0.0008
3424.57	0.0008
3434.21	0.00097
3443.86	0.00095
3453.51	0.00089
3463.15	0.00103
3472.8	0.00111
3482.45	0.00107
3492.09	0.0011
3501.74	0.00121
3511.39	0.00124
3521.03	0.00134
3530.68	0.001505
3540.33	0.002011
3549.97	0.0028862
3559.62	0.00352
3569.26	0.00392
3578.91	0.0030512
3588.56	0.002078
3598.2	0.00161
3607.85	0.00141
3617.5	0.00123
3627.14	0.001489
3636.79	0.00124
3646.44	0.00117
3656.08	0.00112
3665.73	0.0011
3675.38	0.00121
3685.02	0.00112
3694.67	0.00122
3704.32	0.00113
3713.96	0.00112
3723.61	0.00127
3733.26	0.00122
3742.9	0.00124
3752.55	0.00108
3762.2	0.00118
3771.84	0.00125
3781.49	0.00119
3791.13	0.00126
3800.78	0.00124
3810.43	0.00138
3820.07	0.00138
3829.72	0.00138
3839.37	0.00128
3849.01	0.00118
3858.66	0.00129
3868.31	0.00132
3877.95	0.001494
3887.6	0.00138
3897.25	0.00125
3906.89	0.00135
3916.54	0.00131
3926.19	0.00122
3935.83	0.00143
3945.48	0.00117
3955.13	0.00131
3964.77	0.0013
3974.42	0.00121
3984.07	0.00131
3993.71	0.00126
