Infrared Spectrum: o-Bromobenzamide
Formula: C7 H6 Br N O
CAS: 4001-73-4
State: SOLID (SPLIT MULL), FLUOROLUBE FOR 3800-1330 CM^-^1, NUJOL FOR 1330-460 CM^-^1
Class: COBLENTZ III
Instrument: DOW KBr FOREPRISM-GRATING
Instrument parameters: BLAZED AT 3.5, 12.0, 20.0 MICRON AND CHANGED AT 5.0, 7.5, 14.9 MICRON
Sampling: TRANSMISSION
Resolution: 2
Origin: DOW CHEMICAL COMPANY
1/CM	TRANSMITTANCE
3818	0.5675
3809	0.5671
3800	0.567
3791	0.5688
3782	0.5705
3773	0.5723
3764	0.574
3755	0.5757
3746	0.5773
3737	0.5789
3728	0.5805
3719	0.5823
3710	0.5846
3701	0.5867
3692	0.5888
3683	0.5908
3674	0.5929
3665	0.5949
3656	0.5972
3647	0.5996
3638	0.6021
3629	0.6045
3620	0.6069
3611	0.6091
3602	0.6115
3593	0.6139
3584	0.6164
3575	0.6188
3566	0.6212
3557	0.6242
3548	0.6271
3539	0.63
3530	0.6332
3521	0.6362
3512	0.6394
3503	0.6426
3494	0.6464
3485	0.6501
3476	0.654
3467	0.6584
3458	0.663
3449	0.6661
3440	0.6671
3431	0.6661
3422	0.6614
3413	0.6489
3404	0.5917
3395	0.524
3386	0.4408
3377	0.3634
3368	0.305
3359	0.2933
3350	0.3005
3341	0.3362
3332	0.3647
3323	0.3868
3314	0.4068
3305	0.4259
3296	0.4441
3287	0.4607
3278	0.4738
3269	0.4836
3260	0.4902
3251	0.496
3242	0.5
3233	0.491
3224	0.4747
3215	0.4477
3206	0.413
3197	0.38
3188	0.3488
3179	0.3414
3170	0.3502
3161	0.3742
3152	0.3966
3143	0.4186
3134	0.4373
3125	0.4526
3116	0.4651
3107	0.476
3098	0.4856
3089	0.4947
3080	0.5038
3071	0.5129
3062	0.5219
3053	0.5305
3044	0.5391
3035	0.5468
3026	0.5543
3017	0.5607
3008	0.566
2999	0.5708
2990	0.5745
2981	0.5775
2972	0.5798
2963	0.5817
2954	0.5836
2945	0.586
2936	0.589
2927	0.5929
2918	0.5982
2909	0.6023
2900	0.6066
2891	0.6104
2882	0.6127
2873	0.615
2864	0.6172
2855	0.6187
2846	0.6203
2837	0.6225
2828	0.6256
2819	0.6275
2810	0.6293
2801	0.631
2792	0.631
2783	0.6288
2774	0.6266
2765	0.6296
2756	0.6338
2747	0.6378
2738	0.6408
2729	0.6438
2720	0.6468
2711	0.6493
2702	0.6517
2693	0.6541
2684	0.6565
2675	0.659
2666	0.6618
2657	0.6647
2648	0.6675
2639	0.6704
2630	0.6733
2621	0.6761
2612	0.679
2603	0.6817
2594	0.6841
2585	0.6864
2576	0.6888
2567	0.6911
2558	0.693
2549	0.6948
2540	0.6965
2531	0.6984
2522	0.7001
2513	0.7018
2504	0.7032
2495	0.7046
2486	0.7058
2477	0.7064
2468	0.7071
2459	0.708
2450	0.7089
2441	0.7097
2432	0.7106
2423	0.7115
2414	0.7124
2405	0.7132
2396	0.7139
2387	0.7143
2378	0.7144
2369	0.7145
2360	0.7144
2351	0.7144
2342	0.715
2333	0.7156
2324	0.7165
2315	0.7183
2306	0.7203
2297	0.7225
2288	0.7257
2279	0.7289
2270	0.7332
2261	0.7375
2252	0.7415
2243	0.7455
2234	0.7496
2225	0.7551
2216	0.7608
2207	0.7657
2198	0.7662
2189	0.7682
2180	0.7704
2171	0.7728
2162	0.7754
2153	0.7778
2144	0.7805
2135	0.783
2126	0.7857
2117	0.7884
2108	0.7911
2099	0.7942
2090	0.7974
2081	0.8005
2072	0.8034
2063	0.8057
2054	0.808
2045	0.8098
2036	0.8117
2027	0.8131
2018	0.8157
2009	0.8181
2000	0.8203
1991	0.7925
1982	0.7939
1973	0.7961
1964	0.7901
1955	0.796
1946	0.8008
1937	0.7983
1928	0.7899
1919	0.7994
1910	0.8026
1901	0.8031
1892	0.8054
1883	0.8067
1874	0.8067
1865	0.8071
1856	0.8071
1847	0.8104
1838	0.8161
1829	0.8194
1820	0.8155
1811	0.8036
1802	0.8147
1793	0.8197
1784	0.8247
1775	0.8288
1766	0.8312
1757	0.8324
1748	0.8327
1739	0.8325
1730	0.8317
1721	0.8278
1712	0.822
1703	0.811
1694	0.7953
1685	0.7664
1676	0.6881
1667	0.5143
1658	0.383
1649	0.165
1640	0.1731
1631	0.3353
1622	0.34
1613	0.4418
1604	0.5009
1595	0.5524
1586	0.5225
1577	0.6142
1568	0.6448
1559	0.5466
1550	0.6346
1541	0.6611
1532	0.6821
1523	0.7
1514	0.7121
1505	0.7226
1496	0.7271
1487	0.7185
1478	0.6869
1469	0.566
1460	0.6893
1451	0.7053
1442	0.7028
1433	0.6883
1424	0.5879
1415	0.6445
1406	0.466
1397	0.362
1388	0.4567
1379	0.5274
1370	0.5637
1361	0.5685
1352	0.5476
1343	0.5327
1334	0.5429
1325	0.56
1316	0.5667
1307	0.5674
1298	0.5673
1289	0.5765
1280	0.5857
1271	0.5892
1262	0.5952
1253	0.6122
1244	0.6401
1235	0.671
1226	0.6956
1217	0.7126
1208	0.7256
1199	0.7337
1190	0.7385
1181	0.7482
1172	0.7478
1163	0.7282
1154	0.7097
1145	0.7096
1136	0.5823
1127	0.5021
1118	0.6708
1109	0.6395
1100	0.6958
1091	0.7357
1082	0.7581
1073	0.7685
1064	0.7784
1055	0.7888
1046	0.7911
1037	0.6269
1028	0.6892
1019	0.6411
1010	0.7512
1001	0.7943
992	0.8156
983	0.814
974	0.815
965	0.8112
956	0.8188
947	0.6564
938	0.8015
929	0.8199
920	0.8299
911	0.8283
902	0.8343
893	0.8361
884	0.8342
875	0.8415
866	0.7934
857	0.84
848	0.8337
839	0.8299
830	0.8239
821	0.8005
812	0.749
803	0.7291
794	0.7678
785	0.6435
776	0.664
767	0.5207
758	0.5522
749	0.6465
740	0.6435
731	0.5536
722	0.6436
713	0.6225
704	0.5027
695	0.426
686	0.4767
677	0.4535
668	0.4088
659	0.5259
650	0.5895
641	0.669
632	0.5874
623	0.6918
614	0.7693
605	0.7893
596	0.8035
587	0.8164
578	0.8221
569	0.8156
560	0.6508
551	0.7893
542	0.8196
533	0.8294
524	0.8362
515	0.8418
506	0.8465
497	0.8484
488	0.8459
479	0.8366
470	0.8253
461	0.801
