Infrared Spectrum: 4-Methoxy-2-methylphenyl isothiocyanate
Formula: C 9 H 9 N O S
CAS: 40046-28-4
State: gas
Origin: EPA-IR VAPOR PHASE LIBRARY
1/CM	ABSORBANCE
549.8	0.012344
559.445	0.014204
569.09	0.014734
578.734	0.016514
588.379	0.017724
598.024	0.015474
607.669	0.013124
617.313	0.010974
626.958	0.009314
636.603	0.008454
646.248	0.007034
655.893	0.005094
665.537	0.003574
675.182	0.002504
684.827	0.001904
694.472	0.002354
704.116	0.003164
713.761	0.003344
723.406	0.003154
733.051	0.002474
742.695	0.002494
752.34	0.002304
761.985	0.002384
771.63	0.002534
781.275	0.003954
790.919	0.009224
800.564	0.017804
810.209	0.020384
819.854	0.014324
829.498	0.009034
839.143	0.010524
848.788	0.013644
858.433	0.015094
868.078	0.021584
877.722	0.023384
887.367	0.016944
897.012	0.012404
906.657	0.010304
916.301	0.008534
925.946	0.007584
935.591	0.011694
945.236	0.030024
954.88	0.036774
964.525	0.014814
974.17	0.008224
983.815	0.007164
993.46	0.006954
1003.1	0.007364
1012.75	0.008684
1022.39	0.012144
1032.04	0.022784
1041.68	0.037844
1051.33	0.038274
1060.97	0.023724
1070.62	0.012224
1080.26	0.008114
1089.91	0.007594
1099.55	0.013684
1109.2	0.024984
1118.84	0.023354
1128.49	0.013314
1138.13	0.011274
1147.78	0.019244
1157.42	0.049104
1167.07	0.038384
1176.71	0.011314
1186.36	0.008934
1196	0.010634
1205.64	0.016574
1215.29	0.042014
1224.93	0.106754
1234.58	0.117474
1244.22	0.058044
1253.87	0.042784
1263.51	0.036794
1273.16	0.045634
1282.8	0.071434
1292.45	0.084074
1302.09	0.073794
1311.74	0.056594
1321.38	0.034394
1331.03	0.012904
1340.67	0.007114
1350.32	0.005684
1359.96	0.005824
1369.61	0.006904
1379.25	0.008214
1388.9	0.008404
1398.54	0.010124
1408.18	0.018794
1417.83	0.029494
1427.47	0.026714
1437.12	0.022494
1446.76	0.025504
1456.41	0.028774
1466.05	0.039554
1475.7	0.047734
1485.34	0.099324
1494.99	0.159444
1504.63	0.083064
1514.28	0.034234
1523.92	0.022934
1533.57	0.018384
1543.21	0.017094
1552.86	0.017094
1562.5	0.018844
1572.15	0.022534
1581.79	0.022274
1591.44	0.024854
1601.08	0.037614
1610.73	0.033844
1620.37	0.016504
1630.01	0.008584
1639.66	0.005944
1649.3	0.004444
1658.95	0.003864
1668.59	0.003584
1678.24	0.003534
1687.88	0.003174
1697.53	0.002954
1707.17	0.002854
1716.82	0.003104
1726.46	0.003474
1736.11	0.003844
1745.75	0.003784
1755.4	0.003664
1765.04	0.003404
1774.69	0.003424
1784.33	0.003494
1793.98	0.003524
1803.62	0.003574
1813.27	0.003984
1822.91	0.004974
1832.55	0.005784
1842.2	0.006214
1851.84	0.006194
1861.49	0.006464
1871.13	0.007154
1880.78	0.007394
1890.42	0.007344
1900.07	0.008024
1909.71	0.008964
1919.36	0.010224
1929	0.012574
1938.65	0.016034
1948.29	0.021184
1957.94	0.028544
1967.58	0.038724
1977.23	0.052524
1986.87	0.070024
1996.52	0.090824
2006.16	0.116964
2015.81	0.152734
2025.45	0.201184
2035.1	0.260114
2044.74	0.316984
2054.38	0.365334
2064.03	0.374944
2073.67	0.348764
2083.32	0.328694
2092.96	0.293944
2102.61	0.255334
2112.25	0.219954
2121.9	0.179004
2131.54	0.147504
2141.19	0.131744
2150.83	0.115444
2160.48	0.088504
2170.12	0.063514
2179.77	0.049804
2189.41	0.036764
2199.06	0.026194
2208.7	0.021754
2218.35	0.017484
2227.99	0.012174
2237.64	0.008354
2247.28	0.006224
2256.92	0.004754
2266.57	0.003854
2276.21	0.003384
2285.86	0.002904
2295.5	0.002664
2305.15	0.002584
2314.79	0.002644
2324.44	0.002944
2334.08	0.003314
2343.73	0.003314
2353.37	0.003024
2363.02	0.003134
2372.66	0.003284
2382.31	0.003714
2391.95	0.003824
2401.6	0.003974
2411.24	0.003964
2420.89	0.003914
2430.53	0.003784
2440.18	0.003704
2449.82	0.003624
2459.47	0.003484
2469.11	0.003754
2478.75	0.004194
2488.4	0.004374
2498.04	0.004184
2507.69	0.004164
2517.33	0.004264
2526.98	0.004434
2536.62	0.004594
2546.27	0.004534
2555.91	0.004214
2565.56	0.003804
2575.2	0.003454
2584.85	0.002904
2594.49	0.002614
2604.14	0.002324
2613.78	0.002334
2623.43	0.002394
2633.07	0.002414
2642.72	0.002564
2652.36	0.002824
2662.01	0.003344
2671.65	0.003574
2681.29	0.004354
2690.94	0.005344
2700.58	0.006304
2710.23	0.006454
2719.87	0.005524
2729.52	0.004184
2739.16	0.003394
2748.81	0.003234
2758.45	0.002824
2768.1	0.002494
2777.74	0.002484
2787.39	0.002514
2797.03	0.002874
2806.68	0.003384
2816.32	0.004704
2825.97	0.006624
2835.61	0.011714
2845.26	0.019174
2854.9	0.016044
2864.55	0.012064
2874.19	0.011234
2883.84	0.010784
2893.48	0.011124
2903.12	0.013694
2912.77	0.018104
2922.41	0.022224
2932.06	0.026134
2941.7	0.033394
2951.35	0.034874
2960.99	0.028774
2970.64	0.022174
2980.28	0.017944
2989.93	0.017394
2999.57	0.019834
3009.22	0.027114
3018.86	0.018984
3028.51	0.011904
3038.15	0.012724
3047.8	0.011934
3057.44	0.009254
3067.09	0.008044
3076.73	0.007794
3086.38	0.007194
3096.02	0.005804
3105.67	0.004624
3115.31	0.003544
3124.95	0.002534
3134.6	0.001914
3144.24	0.001634
3153.89	0.0011893
3163.53	0.00102
3173.18	0.000726
3182.82	0.0008466
3192.47	0.0006887
3202.11	0.0007206
3211.76	0.00059506
3221.4	0.000355
3231.05	0.000304
3240.69	0.000297
3250.34	0.000271
3259.98	0.0004848
3269.63	0.000278
3279.27	0.000168
3288.92	0.000336
3298.56	0.000272
3308.21	0.00021
3317.85	0.00028
3327.49	0.000381
3337.14	0.0004537
3346.78	0.000248
3356.43	0.000176
3366.07	0.000247
3375.72	0.000247
3385.36	0.000216
3395.01	0.0004085
3404.65	0.000347
3414.3	0.0004079
3423.94	2.6e-05
3433.59	0.000293
3443.23	0.000315
3452.88	0.00024
3462.52	0.000328
3472.17	0.000333
3481.81	0.000343
3491.46	0.000394
3501.1	0.000245
3510.75	0.000341
3520.39	0.000334
3530.04	0.0004533
3539.68	0.0004712
3549.32	0.000315
3558.97	0.00053741
3568.61	0.0004805
3578.26	0.0004534
3587.9	0.000403
3597.55	0.0004556
3607.19	0.000337
3616.84	0.00053848
3626.48	0.0004849
3636.13	0.000336
3645.77	0.000244
3655.42	0.000364
3665.06	0.000259
3674.71	0.000335
3684.35	0.000318
3694	0.000401
3703.64	0.00056005
3713.29	0.000324
3722.93	0.00060341
3732.58	0.00054221
3742.22	0.0004422
3751.86	0.000387
3761.51	0.0006578
3771.15	0.00054261
3780.8	0.000347
3790.44	0.0006537
3800.09	0.0004521
3809.73	0.00056074
3819.38	0.00058902
3829.02	0.0006496
3838.67	0.0006344
3848.31	0.0006939
3857.96	0.0007198
3867.6	0.00053029
3877.25	0.0007642
3886.89	0.0008258
3896.54	0.000881
3906.18	0.0009114
3915.83	0.0007699
3925.47	0.0009706
3935.12	0.0009829
3944.76	0.0013026
3954.41	0.0012168
3964.05	0.0013488
3973.69	0.0012563
3983.34	0.0014763
3992.98	0.001674
