Infrared Spectrum: 3,5-Dimethylphenyl isothiocyanate
Formula: C 9 H 9 N S
CAS: 40046-30-8
State: gas
Origin: EPA-IR VAPOR PHASE LIBRARY
1/CM	ABSORBANCE
549.8	0.009365
559.445	0.009505
569.09	0.009725
578.734	0.008215
588.379	0.008155
598.024	0.010805
607.669	0.008395
617.313	0.003855
626.958	0.002695
636.603	0.002475
646.248	0.001645
655.893	0.0011966
665.537	0.004815
675.182	0.013405
684.827	0.010505
694.472	0.003995
704.116	0.001705
713.761	0.0010387
723.406	0.001715
733.051	0.002665
742.695	0.003395
752.34	0.003855
761.985	0.004135
771.63	0.009575
781.275	0.032995
790.919	0.054995
800.564	0.029945
810.209	0.006545
819.854	0.003665
829.498	0.010705
839.143	0.029135
848.788	0.029025
858.433	0.010855
868.078	0.003455
877.722	0.004575
887.367	0.006915
897.012	0.004625
906.657	0.004275
916.301	0.004355
925.946	0.003565
935.591	0.003995
945.236	0.005295
954.88	0.006445
964.525	0.007305
974.17	0.005215
983.815	0.003005
993.46	0.003745
1003.1	0.003335
1012.75	0.002105
1022.39	0.002415
1032.04	0.004395
1041.68	0.005145
1051.33	0.003585
1060.97	0.002545
1070.62	0.002235
1080.26	0.001565
1089.91	0.0005238
1099.55	0.0007544
1109.2	0.0009738
1118.84	0.0009442
1128.49	0.0011357
1138.13	0.0006774
1147.78	0.0005101
1157.42	0.0012713
1167.07	0.001485
1176.71	0.0009759
1186.36	0.0006109
1196	0.0010458
1205.64	0.001815
1215.29	0.0010329
1224.93	0.001595
1234.58	0.0012979
1244.22	0.001975
1253.87	0.002705
1263.51	0.002445
1273.16	0.002175
1282.8	0.002465
1292.45	0.005535
1302.09	0.011495
1311.74	0.008545
1321.38	0.003475
1331.03	0.002655
1340.67	0.002395
1350.32	0.002775
1359.96	0.003455
1369.61	0.004725
1379.25	0.006605
1388.9	0.006555
1398.54	0.006615
1408.18	0.005465
1417.83	0.005745
1427.47	0.010075
1437.12	0.017925
1446.76	0.020415
1456.41	0.017155
1466.05	0.013215
1475.7	0.014295
1485.34	0.015445
1494.99	0.013895
1504.63	0.014245
1514.28	0.013565
1523.92	0.015225
1533.57	0.017215
1543.21	0.016225
1552.86	0.016615
1562.5	0.021135
1572.15	0.029195
1581.79	0.044005
1591.44	0.084195
1601.08	0.128055
1610.73	0.075235
1620.37	0.024645
1630.01	0.010515
1639.66	0.005745
1649.3	0.003595
1658.95	0.002805
1668.59	0.002645
1678.24	0.002805
1687.88	0.002895
1697.53	0.003255
1707.17	0.003575
1716.82	0.003715
1726.46	0.004265
1736.11	0.004345
1745.75	0.004475
1755.4	0.003975
1765.04	0.004205
1774.69	0.003765
1784.33	0.002445
1793.98	0.002295
1803.62	0.002235
1813.27	0.002455
1822.91	0.003025
1832.55	0.003435
1842.2	0.003555
1851.84	0.003475
1861.49	0.004105
1871.13	0.005075
1880.78	0.006155
1890.42	0.007245
1900.07	0.008505
1909.71	0.010585
1919.36	0.014095
1929	0.020055
1938.65	0.029005
1948.29	0.041545
1957.94	0.056005
1967.58	0.072105
1977.23	0.096105
1986.87	0.128145
1996.52	0.166375
2006.16	0.210845
2015.81	0.255745
2025.45	0.297645
2035.1	0.347905
2044.74	0.415855
2054.38	0.404315
2064.03	0.282045
2073.67	0.204005
2083.32	0.211135
2092.96	0.268795
2102.61	0.300795
2112.25	0.248325
2121.9	0.157805
2131.54	0.109385
2141.19	0.094055
2150.83	0.084635
2160.48	0.069175
2170.12	0.047525
2179.77	0.030105
2189.41	0.022845
2199.06	0.022985
2208.7	0.020465
2218.35	0.014695
2227.99	0.010565
2237.64	0.007805
2247.28	0.005585
2256.92	0.004765
2266.57	0.004535
2276.21	0.004065
2285.86	0.003135
2295.5	0.002775
2305.15	0.002835
2314.79	0.003375
2324.44	0.005275
2334.08	0.007395
2343.73	0.005425
2353.37	0.003335
2363.02	0.002675
2372.66	0.002295
2382.31	0.002075
2391.95	0.001945
2401.6	0.002035
2411.24	0.002465
2420.89	0.002955
2430.53	0.003705
2440.18	0.004565
2449.82	0.005025
2459.47	0.005405
2469.11	0.005545
2478.75	0.004585
2488.4	0.003905
2498.04	0.003975
2507.69	0.004135
2517.33	0.003895
2526.98	0.003565
2536.62	0.003585
2546.27	0.003975
2555.91	0.004525
2565.56	0.004865
2575.2	0.005095
2584.85	0.005385
2594.49	0.005955
2604.14	0.006165
2613.78	0.005155
2623.43	0.003375
2633.07	0.002145
2642.72	0.001615
2652.36	0.001505
2662.01	0.0012459
2671.65	0.00124
2681.29	0.0011652
2690.94	0.0011513
2700.58	0.0010429
2710.23	0.0010582
2719.87	0.0011064
2729.52	0.001425
2739.16	0.002185
2748.81	0.002675
2758.45	0.002025
2768.1	0.001775
2777.74	0.001945
2787.39	0.002075
2797.03	0.002765
2806.68	0.003445
2816.32	0.004325
2825.97	0.005515
2835.61	0.006795
2845.26	0.008205
2854.9	0.009545
2864.55	0.012415
2874.19	0.015515
2883.84	0.014305
2893.48	0.012315
2903.12	0.013695
2912.77	0.018155
2922.41	0.027675
2932.06	0.036035
2941.7	0.029395
2951.35	0.018575
2960.99	0.012985
2970.64	0.010165
2980.28	0.009125
2989.93	0.010685
2999.57	0.012375
3009.22	0.013845
3018.86	0.017585
3028.51	0.019095
3038.15	0.017075
3047.8	0.015395
3057.44	0.013575
3067.09	0.008975
3076.73	0.005445
3086.38	0.004005
3096.02	0.003235
3105.67	0.002225
3115.31	0.001715
3124.95	0.0012818
3134.6	0.0009379
3144.24	0.000666
3153.89	0.0005131
3163.53	0.0005748
3173.18	0.000366032
3182.82	0.0004715
3192.47	0.000367481
3202.11	0.000148
3211.76	0.0003127
3221.4	0.000245
3231.05	0.0002903
3240.69	0.0003235
3250.34	0.0003107
3259.98	0.0003034
3269.63	0.000183
3279.27	0.000135
3288.92	0.0002658
3298.56	0.000265
3308.21	9.8e-05
3317.85	8.1e-05
3327.49	0.000233
3337.14	0.000219
3346.78	0.00022
3356.43	0.0003082
3366.07	0.000204
3375.72	0.000147
3385.36	2.4e-05
3395.01	0.000175
3404.65	0.00044875
3414.3	0.00036744
3423.94	0.0003437
3433.59	0.00023
3443.23	0.0003538
3452.88	0.00043171
3462.52	0.00041902
3472.17	0.0002911
3481.81	0.0003542
3491.46	0.00039104
3501.1	0.0003039
3510.75	0.0003027
3520.39	0.0003398
3530.04	7e-05
3539.68	0.00045254
3549.32	0.0002915
3558.97	0.000262
3568.61	0.00040584
3578.26	0.0005579
3587.9	0.0004648
3597.55	0.0003082
3607.19	0.0003369
3616.84	0.0003315
3626.48	0.000246
3636.13	0.000335
3645.77	0.000304
3655.42	0.000245
3665.06	0.000205
3674.71	0.0003368
3684.35	0.000263
3694	0.000184
3703.64	0.000119
3713.29	0.0004238
3722.93	0.0003294
3732.58	0.00044829
3742.22	0.00041087
3751.86	0.00044431
3761.51	0.0004704
3771.15	0.0003355
3780.8	0.0005714
3790.44	0.000178
3800.09	0.0004861
3809.73	0.00045
3819.38	0.0004949
3829.02	0.0005796
3838.67	0.0006114
3848.31	0.000643
3857.96	0.0006609
3867.6	0.0006726
3877.25	0.0008555
3886.89	0.0008959
3896.54	0.001065
3906.18	0.0009748
3915.83	0.0011194
3925.47	0.0010012
3935.12	0.0011597
3944.76	0.0012843
3954.41	0.0013566
3964.05	0.001485
3973.69	0.001645
3983.34	0.002015
3992.98	0.002035
