Infrared Spectrum: PHOSPHORIC ACID, TRI-1-NAPHTHYL ESTER
Formula: C30 H21 O4 P
CAS: 4004-51-7
Class: COBLENTZ
Instrument: Not specified, most likely a prism, grating, or hybrid spectrometer.
Sampling: TRANSMISSION
Resolution: 4
Origin: TENNESSEE EASTMAN COMPANY, RESEARCH LABORATORIES
MICROMETERS	TRANSMITTANCE
2.033	0.9
2.07286	0.9
2.11271	0.9
2.15257	0.9
2.19243	0.9
2.23229	0.901
2.27214	0.901
2.312	0.901
2.35186	0.901
2.39172	0.903
2.43157	0.901
2.47143	0.901
2.51129	0.901
2.55114	0.901
2.591	0.901
2.63086	0.901
2.67072	0.906
2.71057	0.9
2.75043	0.845
2.79029	0.803
2.83014	0.775
2.87	0.744
2.90986	0.732
2.94972	0.762
2.98957	0.81
3.02943	0.847
3.06929	0.857
3.10915	0.867
3.149	0.885
3.18886	0.895
3.22872	0.885
3.26857	0.822
3.30843	0.882
3.34829	0.911
3.38815	0.92
3.428	0.923
3.46786	0.93
3.50772	0.931
3.54757	0.933
3.58743	0.935
3.62729	0.936
3.66715	0.936
3.707	0.938
3.74686	0.938
3.78672	0.938
3.82658	0.94
3.86643	0.94
3.90629	0.941
3.94615	0.941
3.986	0.943
4.02586	0.943
4.06572	0.945
4.10558	0.945
4.14543	0.943
4.18529	0.945
4.22515	0.97
4.265	0.973
4.30486	0.968
4.34472	0.938
4.38458	0.941
4.42443	0.945
4.46429	0.95
4.50415	0.95
4.54401	0.951
4.58386	0.95
4.62372	0.95
4.66358	0.951
4.70343	0.951
4.74329	0.95
4.78315	0.95
4.82301	0.95
4.86286	0.95
4.90272	0.95
4.94258	0.95
4.98243	0.951
5.02229	0.945
5.06215	0.93
5.10201	0.916
5.14186	0.901
5.18172	0.91
5.22158	0.93
5.26144	0.933
5.30129	0.933
5.34115	0.916
5.38101	0.925
5.42086	0.925
5.46072	0.93
5.50058	0.928
5.54044	0.928
5.58029	0.91
5.62015	0.926
5.66001	0.918
5.69986	0.92
5.73972	0.923
5.77958	0.916
5.81944	0.92
5.85929	0.921
5.89915	0.906
5.93901	0.923
5.97887	0.921
6.01872	0.903
6.05858	0.895
6.09844	0.855
6.13829	0.8
6.17815	0.853
6.21801	0.787
6.25787	0.634
6.29772	0.833
6.33758	0.715
6.37744	0.873
6.41729	0.898
6.45715	0.905
6.49701	0.901
6.53687	0.898
6.57672	0.757
6.61658	0.671
6.65644	0.888
6.6963	0.901
6.73615	0.906
6.77601	0.799
6.81587	0.659
6.85572	0.867
6.89558	0.852
6.93544	0.85
6.9753	0.89
7.01515	0.901
7.05501	0.9
7.09487	0.82
7.13472	0.579
7.17458	0.237
7.21444	0.647
7.2543	0.808
7.29415	0.86
7.33401	0.872
7.37387	0.882
7.41373	0.848
7.45358	0.903
7.49344	0.901
7.5333	0.9
7.57315	0.838
7.61301	0.696
7.65287	0.362
7.69273	0.147
7.73258	0.453
7.77244	0.717
7.8123	0.8
7.85215	0.807
7.89201	0.74
7.93187	0.413
7.97173	0.687
8.01158	0.825
8.05144	0.652
8.0913	0.609
8.13116	0.433
8.17101	0.254
8.21087	0.556
8.25073	0.727
8.29058	0.807
8.33044	0.857
8.3703	0.877
8.41016	0.89
8.45001	0.89
8.48987	0.852
8.52973	0.769
8.56958	0.679
8.60944	0.481
8.6493	0.491
8.68916	0.815
8.72901	0.855
8.76887	0.898
8.80873	0.916
8.84859	0.921
8.88844	0.921
8.9283	0.921
8.96816	0.92
9.00801	0.905
9.04787	0.887
9.08773	0.83
9.12759	0.651
9.16744	0.543
9.2073	0.205
9.24716	0.122
9.28701	0.225
9.32687	0.451
9.36673	0.649
9.40659	0.702
9.44644	0.684
9.4863	0.576
9.52616	0.398
9.56602	0.142
9.60587	0.313
9.64573	0.714
9.68559	0.784
9.72544	0.794
9.7653	0.742
9.80516	0.485
9.84502	0.347
9.88487	0.702
9.92473	0.81
9.96459	0.843
10.0044	0.853
10.0443	0.853
10.0842	0.852
10.124	0.848
10.1639	0.792
10.2037	0.705
10.2436	0.694
10.2834	0.677
10.3233	0.671
10.3632	0.539
10.403	0.33
10.4429	0.129
10.4827	0.069
10.5226	0.051
10.5624	0.071
10.6023	0.199
10.6422	0.405
10.682	0.636
10.7219	0.73
10.7617	0.799
10.8016	0.828
10.8414	0.838
10.8813	0.795
10.9212	0.803
10.961	0.86
11.0009	0.873
11.0407	0.883
11.0806	0.883
11.1204	0.85
11.1603	0.827
11.2002	0.877
11.24	0.91
11.2799	0.916
11.3197	0.915
11.3596	0.903
11.3994	0.903
11.4393	0.906
11.4792	0.888
11.519	0.855
11.5589	0.815
11.5987	0.765
11.6386	0.774
11.6784	0.754
11.7183	0.639
11.7582	0.468
11.798	0.32
11.8379	0.368
11.8777	0.568
11.9176	0.71
11.9574	0.802
11.9973	0.843
12.0372	0.86
12.077	0.87
12.1169	0.873
12.1567	0.873
12.1966	0.873
12.2364	0.86
12.2763	0.802
12.3162	0.604
12.356	0.48
12.3959	0.455
12.4357	0.393
12.4756	0.433
12.5154	0.473
12.5553	0.47
12.5952	0.45
12.635	0.664
12.6749	0.774
12.7147	0.702
12.7546	0.475
12.7945	0.408
12.8343	0.495
12.8742	0.377
12.914	0.289
12.9539	0.252
12.9937	0.244
13.0336	0.631
13.0735	0.797
13.1133	0.862
13.1532	0.895
13.193	0.915
13.2329	0.925
13.2727	0.926
13.3126	0.928
13.3525	0.926
13.3923	0.925
13.4322	0.923
13.472	0.923
13.5119	0.923
13.5517	0.895
13.5916	0.89
13.6315	0.931
13.6713	0.955
13.7112	0.963
13.751	0.968
13.7909	0.971
13.8307	0.971
13.8706	0.943
13.9105	0.843
13.9503	0.752
13.9902	0.767
14.03	0.83
14.0699	0.843
14.1097	0.85
14.1496	0.878
14.1895	0.923
14.2293	0.953
14.2692	0.965
14.309	0.975
14.3489	0.976
14.3887	0.981
14.4286	0.98
14.4685	0.971
14.5083	0.96
14.5482	0.96
14.588	0.965
14.6279	0.98
14.6677	0.991
14.7076	0.996
14.7475	1
14.7873	1.001
14.8272	1.001
14.867	1.001
14.9069	1
14.9467	0.993
14.9866	0.983
15.0265	0.978
15.0663	0.978
15.1062	0.981
15.146	0.983
15.1859	0.983
15.2257	0.983
15.2656	0.975
15.3055	0.968
15.3453	0.961
15.3852	0.945
15.425	0.925
15.4649	0.906
15.5047	0.888
15.5446	0.873
15.5845	0.867
15.6243	0.855
15.6642	0.852
15.704	0.848
15.7439	0.843
15.7837	0.837
15.8236	0.825
15.8635	0.822
15.9033	0.82
15.9432	0.817
15.983	0.817
