Infrared Spectrum: 2,5-Dihydro-3,5-diphenyl-5-hydroxyfuran-2-one
Formula: C16 H12 O3
CAS: 40048-04-2
State: SOLID (SPLIT MULL), FLUOROLUBE FOR 3800-1330 CM^-^1, NUJOL FOR 1330-460 CM^-^1
Class: COBLENTZ III
Instrument: DOW KBr FOREPRISM-GRATING
Instrument parameters: BLAZED AT 3.5, 12.0, 20.0 MICRON AND CHANGED AT 5.0, 7.5, 14.9 MICRON
Sampling: TRANSMISSION
Resolution: 2
Origin: DOW CHEMICAL COMPANY
1/CM	TRANSMITTANCE
3800	0.6976
3791	0.6988
3782	0.7001
3773	0.7014
3764	0.7033
3755	0.7048
3746	0.7061
3737	0.7076
3728	0.7094
3719	0.7107
3710	0.7118
3701	0.7124
3692	0.7125
3683	0.711
3674	0.715
3665	0.7188
3656	0.7212
3647	0.7237
3638	0.7254
3629	0.7269
3620	0.7284
3611	0.7298
3602	0.7311
3593	0.7325
3584	0.7326
3575	0.7246
3566	0.7288
3557	0.7338
3548	0.7331
3539	0.7321
3530	0.7311
3521	0.7301
3512	0.7293
3503	0.7285
3494	0.7274
3485	0.7249
3476	0.7218
3467	0.7184
3458	0.7149
3449	0.7096
3440	0.6935
3431	0.6884
3422	0.6805
3413	0.6685
3404	0.6553
3395	0.6414
3386	0.6266
3377	0.6124
3368	0.5908
3359	0.5627
3350	0.538
3341	0.5212
3332	0.5026
3323	0.4783
3314	0.4526
3305	0.4285
3296	0.3971
3287	0.3725
3278	0.358
3269	0.3579
3260	0.3859
3251	0.4024
3242	0.4203
3233	0.4439
3224	0.4671
3215	0.5023
3206	0.5329
3197	0.5536
3188	0.5814
3179	0.6027
3170	0.6205
3161	0.6369
3152	0.6512
3143	0.6641
3134	0.6758
3125	0.6893
3116	0.698
3107	0.7019
3098	0.7019
3089	0.6872
3080	0.663
3071	0.668
3062	0.6901
3053	0.7143
3044	0.7111
3035	0.7137
3026	0.7217
3017	0.7318
3008	0.7415
2999	0.7499
2990	0.7543
2981	0.7565
2972	0.7578
2963	0.7586
2954	0.7591
2945	0.7591
2936	0.7583
2927	0.7535
2918	0.7519
2909	0.7533
2900	0.7572
2891	0.7597
2882	0.7601
2873	0.7575
2864	0.7537
2855	0.7501
2846	0.7494
2837	0.7567
2828	0.7662
2819	0.7753
2810	0.7825
2801	0.7895
2792	0.7944
2783	0.7988
2774	0.8022
2765	0.8051
2756	0.8078
2747	0.8099
2738	0.8121
2729	0.8142
2720	0.8168
2711	0.8189
2702	0.8198
2693	0.8205
2684	0.8209
2675	0.8196
2666	0.8171
2657	0.8146
2648	0.8125
2639	0.8111
2630	0.8108
2621	0.8131
2612	0.819
2603	0.8245
2594	0.829
2585	0.8332
2576	0.8364
2567	0.8388
2558	0.8407
2549	0.8423
2540	0.8436
2531	0.8432
2522	0.8425
2513	0.8421
2504	0.8418
2495	0.8413
2486	0.84
2477	0.8381
2468	0.8375
2459	0.8396
2450	0.8418
2441	0.8424
2432	0.8418
2423	0.8413
2414	0.8412
2405	0.8403
2396	0.8396
2387	0.8399
2378	0.8414
2369	0.8439
2360	0.847
2351	0.8489
2342	0.8501
2333	0.8508
2324	0.851
2315	0.8509
2306	0.8506
2297	0.8509
2288	0.8518
2279	0.8525
2270	0.8535
2261	0.8554
2252	0.8581
2243	0.8606
2234	0.8638
2225	0.8671
2216	0.8696
2207	0.8709
2198	0.8709
2189	0.8705
2180	0.8705
2171	0.8706
2162	0.8713
2153	0.8725
2144	0.8741
2135	0.8752
2126	0.876
2117	0.8771
2108	0.8788
2099	0.8803
2090	0.8835
2081	0.8841
2072	0.883
2063	0.8834
2054	0.8854
2045	0.8874
2036	0.8893
2027	0.8911
2018	0.8918
2009	0.8918
2000	0.8794
1991	0.8565
1982	0.8644
1973	0.8465
1964	0.8559
1955	0.8706
1946	0.872
1937	0.8745
1928	0.8747
1919	0.8636
1910	0.8662
1901	0.8604
1892	0.8535
1883	0.8565
1874	0.8744
1865	0.8804
1856	0.8744
1847	0.8718
1838	0.871
1829	0.8763
1820	0.8588
1811	0.8655
1802	0.8751
1793	0.8631
1784	0.8385
1775	0.8301
1766	0.7844
1757	0.775
1748	0.5501
1739	0.0692
1730	0.0876
1721	0.1576
1712	0.5778
1703	0.6961
1694	0.7465
1685	0.7438
1676	0.8032
1667	0.8273
1658	0.8398
1649	0.8391
1640	0.8318
1631	0.8253
1622	0.85
1613	0.8541
1604	0.8544
1595	0.8342
1586	0.8594
1577	0.8523
1568	0.8628
1559	0.8636
1550	0.8685
1541	0.8582
1532	0.8662
1523	0.8703
1514	0.8616
1505	0.8453
1496	0.539
1487	0.8025
1478	0.8328
1469	0.8126
1460	0.5098
1451	0.5293
1442	0.7358
1433	0.6488
1424	0.6645
1415	0.7246
1406	0.7611
1397	0.7801
1388	0.7903
1379	0.7976
1370	0.7996
1361	0.7949
1352	0.7712
1343	0.7231
1334	0.6947
1325	0.7501
1316	0.6378
1307	0.7533
1298	0.7556
1289	0.7451
1280	0.7849
1271	0.7712
1262	0.7386
1253	0.6843
1244	0.7287
1235	0.6475
1226	0.2754
1217	0.3594
1208	0.4286
1199	0.5116
1190	0.6342
1181	0.6934
1172	0.8014
1163	0.8049
1154	0.8274
1145	0.6169
1136	0.7785
1127	0.8385
1118	0.8551
1109	0.8621
1100	0.8637
1091	0.8582
1082	0.8435
1073	0.8204
1064	0.8396
1055	0.7507
1046	0.4826
1037	0.7995
1028	0.6333
1019	0.8255
1010	0.8645
1001	0.6951
992	0.8575
983	0.8593
974	0.5601
965	0.7911
956	0.7972
947	0.7365
938	0.3122
929	0.349
920	0.562
911	0.7868
902	0.8328
893	0.8505
884	0.5812
875	0.855
866	0.8758
857	0.8755
848	0.8037
839	0.6944
830	0.8591
821	0.8663
812	0.8523
803	0.6186
794	0.6695
785	0.8434
776	0.6446
767	0.7199
758	0.7588
749	0.7601
740	0.5954
731	0.7784
722	0.7575
713	0.781
704	0.6557
695	0.2442
686	0.6671
677	0.6112
668	0.7105
659	0.7842
650	0.6688
641	0.5764
632	0.8165
623	0.8433
614	0.8197
605	0.8551
596	0.8621
587	0.8452
578	0.8624
569	0.8561
560	0.8608
551	0.8632
542	0.8594
533	0.8295
524	0.7511
515	0.7022
506	0.8051
497	0.8464
488	0.8552
479	0.8583
470	0.8549
461	0.8425
