Infrared Spectrum: 5-Chloro-2,4-dimethoxyphenyl isothiocyanate
Formula: C 9 H 8 Cl N O 2 S
CAS: 40046-27-3
State: gas
Origin: EPA-IR VAPOR PHASE LIBRARY
1/CM	ABSORBANCE
549.8	0.006218
559.445	0.004868
569.09	0.004868
578.734	0.005558
588.379	0.005908
598.024	0.006728
607.669	0.008358
617.313	0.011858
626.958	0.020158
636.603	0.019488
646.248	0.014938
655.893	0.013968
665.537	0.015218
675.182	0.015528
684.827	0.015838
694.472	0.019028
704.116	0.025818
713.761	0.035088
723.406	0.040498
733.051	0.030888
742.695	0.017668
752.34	0.009618
761.985	0.005368
771.63	0.003788
781.275	0.003118
790.919	0.002818
800.564	0.003538
810.209	0.005128
819.854	0.006008
829.498	0.007248
839.143	0.007438
848.788	0.005918
858.433	0.005598
868.078	0.015218
877.722	0.033858
887.367	0.020128
897.012	0.011818
906.657	0.011708
916.301	0.012498
925.946	0.011248
935.591	0.008648
945.236	0.007428
954.88	0.007918
964.525	0.009958
974.17	0.016168
983.815	0.027788
993.46	0.031718
1003.1	0.024898
1012.75	0.029748
1022.39	0.051318
1032.04	0.063968
1041.68	0.045488
1051.33	0.027398
1060.97	0.031858
1070.62	0.033018
1080.26	0.018048
1089.91	0.009848
1099.55	0.007558
1109.2	0.006508
1118.84	0.007588
1128.49	0.009708
1138.13	0.015478
1147.78	0.029758
1157.42	0.058678
1167.07	0.073098
1176.71	0.053468
1186.36	0.047938
1196	0.080898
1205.64	0.157408
1215.29	0.144918
1224.93	0.077478
1234.58	0.050408
1244.22	0.042818
1253.87	0.034888
1263.51	0.026348
1273.16	0.020308
1282.8	0.019208
1292.45	0.023958
1302.09	0.040588
1311.74	0.077088
1321.38	0.099788
1331.03	0.055688
1340.67	0.020288
1350.32	0.012688
1359.96	0.014188
1369.61	0.030288
1379.25	0.075328
1388.9	0.074808
1398.54	0.028558
1408.18	0.015888
1417.83	0.015998
1427.47	0.025038
1437.12	0.052828
1446.76	0.052408
1456.41	0.058798
1466.05	0.083338
1475.7	0.083188
1485.34	0.141248
1494.99	0.202118
1504.63	0.129218
1514.28	0.061708
1523.92	0.033398
1533.57	0.022118
1543.21	0.018898
1552.86	0.020588
1562.5	0.025148
1572.15	0.025228
1581.79	0.019948
1591.44	0.019118
1601.08	0.019228
1610.73	0.011488
1620.37	0.007298
1630.01	0.006028
1639.66	0.005148
1649.3	0.004478
1658.95	0.004028
1668.59	0.003668
1678.24	0.003438
1687.88	0.003338
1697.53	0.003138
1707.17	0.003238
1716.82	0.003428
1726.46	0.003488
1736.11	0.003748
1745.75	0.004158
1755.4	0.004138
1765.04	0.003388
1774.69	0.003248
1784.33	0.003528
1793.98	0.003608
1803.62	0.003878
1813.27	0.003978
1822.91	0.004138
1832.55	0.004308
1842.2	0.004578
1851.84	0.004928
1861.49	0.005708
1871.13	0.006868
1880.78	0.008438
1890.42	0.010248
1900.07	0.012088
1909.71	0.014448
1919.36	0.018128
1929	0.023478
1938.65	0.031198
1948.29	0.041708
1957.94	0.056178
1967.58	0.076858
1977.23	0.105608
1986.87	0.138358
1996.52	0.169468
2006.16	0.206698
2015.81	0.271568
2025.45	0.386488
2035.1	0.446628
2044.74	0.355138
2054.38	0.264718
2064.03	0.208128
2073.67	0.184328
2083.32	0.210728
2092.96	0.263688
2102.61	0.269498
2112.25	0.212078
2121.9	0.147658
2131.54	0.111228
2141.19	0.092478
2150.83	0.077138
2160.48	0.058888
2170.12	0.041588
2179.77	0.031038
2189.41	0.026408
2199.06	0.025058
2208.7	0.022978
2218.35	0.017988
2227.99	0.012978
2237.64	0.009628
2247.28	0.007228
2256.92	0.005588
2266.57	0.004408
2276.21	0.003928
2285.86	0.003648
2295.5	0.003678
2305.15	0.003578
2314.79	0.003308
2324.44	0.003108
2334.08	0.002918
2343.73	0.002968
2353.37	0.003148
2363.02	0.003768
2372.66	0.004038
2382.31	0.003958
2391.95	0.003918
2401.6	0.003798
2411.24	0.003878
2420.89	0.004148
2430.53	0.004128
2440.18	0.003698
2449.82	0.003568
2459.47	0.003558
2469.11	0.003438
2478.75	0.003508
2488.4	0.003638
2498.04	0.003848
2507.69	0.004318
2517.33	0.005178
2526.98	0.006008
2536.62	0.006368
2546.27	0.005838
2555.91	0.005098
2565.56	0.004678
2575.2	0.004358
2584.85	0.004328
2594.49	0.004498
2604.14	0.004038
2613.78	0.003748
2623.43	0.003728
2633.07	0.003538
2642.72	0.003378
2652.36	0.003328
2662.01	0.003378
2671.65	0.003328
2681.29	0.003268
2690.94	0.003528
2700.58	0.003508
2710.23	0.003728
2719.87	0.003608
2729.52	0.003688
2739.16	0.003888
2748.81	0.004328
2758.45	0.004588
2768.1	0.004578
2777.74	0.004448
2787.39	0.004358
2797.03	0.004708
2806.68	0.005348
2816.32	0.007028
2825.97	0.010118
2835.61	0.015078
2845.26	0.019328
2854.9	0.023918
2864.55	0.018608
2874.19	0.013388
2883.84	0.013828
2893.48	0.015708
2903.12	0.015748
2912.77	0.017528
2922.41	0.020458
2932.06	0.025438
2941.7	0.041888
2951.35	0.047848
2960.99	0.036128
2970.64	0.029198
2980.28	0.019568
2989.93	0.015698
2999.57	0.017218
3009.22	0.025728
3018.86	0.027248
3028.51	0.013278
3038.15	0.008158
3047.8	0.006068
3057.44	0.004868
3067.09	0.004288
3076.73	0.004358
3086.38	0.003948
3096.02	0.003478
3105.67	0.002708
3115.31	0.002278
3124.95	0.002148
3134.6	0.0016
3144.24	0.0013949
3153.89	0.0013864
3163.53	0.0012466
3173.18	0.0009448
3182.82	0.0007045
3192.47	0.00064294
3202.11	0.0007132
3211.76	0.0005514
3221.4	0.000363
3231.05	0.000363
3240.69	0.000294
3250.34	0.000138
3259.98	0.000361
3269.63	0
3279.27	0.000228
3288.92	0.000215
3298.56	0.000218
3308.21	0.000165
3317.85	0.000198
3327.49	0.000286
3337.14	0.000269
3346.78	0.0004
3356.43	0.00011
3366.07	0.000322
3375.72	0.000258
3385.36	0.000263
3395.01	0.000504
3404.65	4.5e-05
3414.3	0.000411
3423.94	0.000363
3433.59	0.00024
3443.23	0.000357
3452.88	0.000225
3462.52	0.000316
3472.17	0.00062207
3481.81	0.000364
3491.46	0.000446
3501.1	0.000302
3510.75	0.000283
3520.39	0.000267
3530.04	0.000188
3539.68	0.000345
3549.32	0.000228
3558.97	0.000448
3568.61	0.000322
3578.26	0.000304
3587.9	0.000315
3597.55	0.000613816
3607.19	0.000368
3616.84	0.000321
3626.48	0.000303
3636.13	0.00066631
3645.77	0.000328
3655.42	0.000483
3665.06	0.000318
3674.71	0.0007397
3684.35	0.000372
3694	0.000214
3703.64	0.000472
3713.29	0.0005823
3722.93	0.000432
3732.58	0.00065878
3742.22	0.0005587
3751.86	0.000512
3761.51	0.000491
3771.15	0.0005836
3780.8	0.00060441
3790.44	0.0005096
3800.09	0.0008704
3809.73	0.0005815
3819.38	0.00060415
3829.02	0.0005673
3838.67	0.000836
3848.31	0.0008852
3857.96	0.0008621
3867.6	0.0010591
3877.25	0.0010268
3886.89	0.000978
3896.54	0.0012301
3906.18	0.0012407
3915.83	0.0013928
3925.47	0.0013739
3935.12	0.0014193
3944.76	0.0015894
3954.41	0.001618
3964.05	0.001658
3973.69	0.001698
3983.34	0.001908
3992.98	0.002038
