Infrared Spectrum: ISOPROPYL, Alpha-CHLORO PROPIONATE
Formula: C6 H11 Cl O2
CAS: 40058-87-5
State: SOLUTION (10% CCl4 FOR 2.5-7.5, 10% CS2 FOR 7.5-16 MICRONS)
Class: COBLENTZ
Instrument: Not specified, most likely a prism, grating, or hybrid spectrometer.
Sampling: TRANSMISSION
Path length: 0.01 CM, 0.01 CM
Resolution: 4
Origin: DOW CHEMICAL COMPANY
MICROMETERS	TRANSMITTANCE
2.011	0.867
2.05109	0.867
2.09118	0.862
2.13127	0.862
2.17136	0.863
2.21145	0.865
2.25154	0.853
2.29163	0.843
2.33172	0.845
2.37181	0.85
2.4119	0.85
2.452	0.847
2.49209	0.852
2.53218	0.863
2.57227	0.873
2.61236	0.873
2.65245	0.873
2.69254	0.873
2.73263	0.858
2.77272	0.84
2.81281	0.82
2.8529	0.789
2.89299	0.762
2.93308	0.742
2.97317	0.735
3.01326	0.712
3.05335	0.689
3.09344	0.667
3.13353	0.641
3.17362	0.627
3.21371	0.626
3.25381	0.621
3.2939	0.617
3.33399	0.596
3.37408	0.357
3.41417	0.347
3.45426	0.426
3.49435	0.533
3.53444	0.588
3.57453	0.669
3.61462	0.715
3.65471	0.739
3.6948	0.74
3.73489	0.745
3.77498	0.744
3.81507	0.74
3.85516	0.744
3.89525	0.759
3.93534	0.762
3.97543	0.764
4.01552	0.779
4.05561	0.8
4.09571	0.802
4.1358	0.823
4.17589	0.83
4.21598	0.835
4.25607	0.843
4.29616	0.848
4.33625	0.842
4.37634	0.833
4.41643	0.843
4.45652	0.85
4.49661	0.858
4.5367	0.867
4.57679	0.87
4.61688	0.87
4.65697	0.87
4.69706	0.87
4.73715	0.868
4.77724	0.87
4.81733	0.868
4.85742	0.867
4.89752	0.857
4.93761	0.862
4.9777	0.862
5.01779	0.853
5.05788	0.848
5.09797	0.852
5.13806	0.852
5.17815	0.857
5.21824	0.852
5.25833	0.847
5.29842	0.847
5.33851	0.843
5.3786	0.842
5.41869	0.828
5.45878	0.822
5.49887	0.8
5.53896	0.77
5.57905	0.747
5.61914	0.652
5.65923	0.458
5.69933	0.149
5.73942	0.059
5.77951	0.036
5.8196	0.049
5.85969	0.119
5.89978	0.325
5.93987	0.538
5.97996	0.639
6.02005	0.719
6.06014	0.744
6.10023	0.76
6.14032	0.769
6.18041	0.747
6.2205	0.672
6.26059	0.661
6.30068	0.602
6.34077	0.583
6.38086	0.556
6.42095	0.514
6.46104	0.453
6.50113	0.478
6.54123	0.541
6.58132	0.581
6.62141	0.631
6.6615	0.667
6.70159	0.719
6.74168	0.732
6.78177	0.627
6.82186	0.451
6.86195	0.416
6.90204	0.277
6.94213	0.43
6.98222	0.591
7.02231	0.626
7.0624	0.619
7.10249	0.637
7.14258	0.651
7.18267	0.564
7.22276	0.332
7.26285	0.209
7.30294	0.294
7.34304	0.415
7.38313	0.435
7.42322	0.508
7.46331	0.485
7.5034	0.375
7.54349	0.313
7.58358	0.333
7.62367	0.398
7.66376	0.398
7.70385	0.367
7.74394	0.317
7.78403	0.244
7.82412	0.119
7.86421	0.083
7.9043	0.137
7.94439	0.199
7.98448	0.186
8.02457	0.147
8.06466	0.157
8.10475	0.269
8.14484	0.398
8.18494	0.451
8.22503	0.431
8.26512	0.338
8.30521	0.269
8.3453	0.215
8.38539	0.147
8.42548	0.078
8.46557	0.059
8.50566	0.069
8.54575	0.126
8.58584	0.22
8.62593	0.327
8.66602	0.398
8.70611	0.408
8.7462	0.33
8.78629	0.372
8.82638	0.41
8.86647	0.387
8.90656	0.383
8.94665	0.35
8.98675	0.237
9.02684	0.076
9.06693	0.034
9.10702	0.068
9.14711	0.159
9.1872	0.279
9.22729	0.312
9.26738	0.257
9.30747	0.199
9.34756	0.142
9.38765	0.177
9.42774	0.249
9.46783	0.262
9.50792	0.401
9.54801	0.601
9.5881	0.687
9.62819	0.745
9.66828	0.767
9.70837	0.784
9.74846	0.794
9.78856	0.797
9.82865	0.795
9.86874	0.79
9.90883	0.767
9.94892	0.727
9.98901	0.652
10.0291	0.511
10.0692	0.428
10.1093	0.431
10.1494	0.501
10.1895	0.591
10.2296	0.667
10.2696	0.737
10.3097	0.76
10.3498	0.777
10.3899	0.779
10.43	0.774
10.4701	0.762
10.5102	0.747
10.5503	0.717
10.5904	0.684
10.6305	0.639
10.6705	0.584
10.7106	0.531
10.7507	0.458
10.7908	0.348
10.8309	0.313
10.871	0.398
10.9111	0.516
10.9512	0.588
10.9913	0.632
11.0314	0.677
11.0715	0.699
11.1115	0.71
11.1516	0.715
11.1917	0.712
11.2318	0.687
11.2719	0.631
11.312	0.566
11.3521	0.516
11.3922	0.519
11.4323	0.568
11.4724	0.611
11.5124	0.629
11.5525	0.622
11.5926	0.611
11.6327	0.599
11.6728	0.599
11.7129	0.601
11.753	0.612
11.7931	0.632
11.8332	0.652
11.8733	0.672
11.9134	0.684
11.9534	0.684
11.9935	0.657
12.0336	0.576
12.0737	0.514
12.1138	0.471
12.1539	0.463
12.194	0.498
12.2341	0.578
12.2742	0.637
12.3143	0.671
12.3543	0.702
12.3944	0.71
12.4345	0.722
12.4746	0.725
12.5147	0.717
12.5548	0.699
12.5949	0.694
12.635	0.697
12.6751	0.699
12.7152	0.7
12.7553	0.702
12.7953	0.702
12.8354	0.7
12.8755	0.699
12.9156	0.697
12.9557	0.699
12.9958	0.702
13.0359	0.709
13.076	0.709
13.1161	0.704
13.1562	0.7
13.1962	0.697
13.2363	0.694
13.2764	0.692
13.3165	0.691
13.3566	0.687
13.3967	0.684
13.4368	0.684
13.4769	0.677
13.517	0.666
13.5571	0.651
13.5972	0.637
13.6372	0.616
13.6773	0.599
13.7174	0.579
13.7575	0.569
13.7976	0.563
13.8377	0.554
13.8778	0.546
13.9179	0.538
13.958	0.521
13.9981	0.513
14.0381	0.504
14.0782	0.501
14.1183	0.496
14.1584	0.49
14.1985	0.48
14.2386	0.461
14.2787	0.445
14.3188	0.431
14.3589	0.416
14.399	0.405
14.4391	0.4
14.4791	0.401
14.5192	0.408
14.5593	0.416
14.5994	0.421
14.6395	0.426
14.6796	0.426
14.7197	0.425
14.7598	0.421
14.7999	0.418
14.84	0.41
14.88	0.406
14.9201	0.403
14.9602	0.401
15.0003	0.398
15.0404	0.378
15.0805	0.358
15.1206	0.343
15.1607	0.337
15.2008	0.332
15.2409	0.328
15.281	0.328
15.321	0.328
15.3611	0.333
15.4012	0.343
15.4413	0.35
15.4814	0.362
15.5215	0.368
15.5616	0.377
15.6017	0.378
15.6418	0.38
15.6819	0.383
15.7219	0.387
15.762	0.39
15.8021	0.392
15.8422	0.393
15.8823	0.395
15.9224	0.398
