Infrared Spectrum: PHENACYL PYRAZINE
Formula: C12 H10 N2 O
CAS: 40061-45-8
State: SOLID (MINERAL OIL MULL)
Class: COBLENTZ
Instrument: Not specified, most likely a prism, grating, or hybrid spectrometer.
Sampling: TRANSMISSION
Resolution: 4
Origin: WYANDOTTE CHEMICALS CORP., WYANDOTTE, MICHIGAN, USA
MICROMETERS	TRANSMITTANCE
2.02	0.325
2.06086	0.337
2.10172	0.336
2.14258	0.346
2.18343	0.349
2.22429	0.348
2.26515	0.353
2.30601	0.365
2.34687	0.368
2.38773	0.38
2.42859	0.407
2.46944	0.397
2.5103	0.399
2.55116	0.411
2.59202	0.418
2.63288	0.433
2.67374	0.44
2.71459	0.445
2.75545	0.445
2.79631	0.447
2.83717	0.459
2.87803	0.457
2.91889	0.45
2.95975	0.464
3.0006	0.462
3.04146	0.469
3.08232	0.467
3.12318	0.469
3.16404	0.469
3.2049	0.477
3.24576	0.448
3.28661	0.428
3.32747	0.3
3.36833	0.08
3.40919	0.058
3.45005	0.097
3.49091	0.119
3.53176	0.281
3.57262	0.52
3.61348	0.552
3.65434	0.549
3.6952	0.558
3.73606	0.552
3.77692	0.556
3.81777	0.569
3.85863	0.575
3.89949	0.59
3.94035	0.593
3.98121	0.602
4.02207	0.604
4.06293	0.61
4.10378	0.621
4.14464	0.624
4.1855	0.634
4.22636	0.641
4.26722	0.648
4.30808	0.663
4.34893	0.682
4.38979	0.697
4.43065	0.68
4.47151	0.686
4.51237	0.696
4.55323	0.699
4.59409	0.704
4.63494	0.709
4.6758	0.718
4.71666	0.725
4.75752	0.733
4.79838	0.742
4.83924	0.752
4.8801	0.742
4.92095	0.75
4.96181	0.762
5.00267	0.767
5.04353	0.773
5.08439	0.773
5.12525	0.776
5.16611	0.778
5.20696	0.798
5.24782	0.795
5.28868	0.783
5.32954	0.788
5.3704	0.793
5.41126	0.813
5.45211	0.81
5.49297	0.812
5.53383	0.819
5.57469	0.829
5.61555	0.829
5.65641	0.822
5.69727	0.831
5.73812	0.822
5.77898	0.829
5.81984	0.832
5.8607	0.808
5.90156	0.827
5.94242	0.813
5.98328	0.771
6.02413	0.75
6.06499	0.653
6.10585	0.16
6.14671	0.247
6.18757	0.491
6.22843	0.617
6.26928	0.551
6.31014	0.639
6.351	0.674
6.39186	0.75
6.43272	0.769
6.47358	0.764
6.51444	0.774
6.55529	0.79
6.59615	0.575
6.63701	0.366
6.67787	0.334
6.71873	0.336
6.75959	0.344
6.80045	0.163
6.8413	0.138
6.88216	0.291
6.92302	0.365
6.96388	0.554
7.00474	0.639
7.0456	0.67
7.08645	0.679
7.12731	0.667
7.16817	0.648
7.20903	0.554
7.24989	0.394
7.29075	0.373
7.33161	0.547
7.37246	0.648
7.41332	0.687
7.45418	0.706
7.49504	0.74
7.5359	0.747
7.57676	0.766
7.61762	0.755
7.65847	0.691
7.69933	0.646
7.74019	0.629
7.78105	0.428
7.82191	0.418
7.86277	0.602
7.90363	0.689
7.94448	0.723
7.98534	0.749
8.0262	0.762
8.06706	0.762
8.10792	0.692
8.14878	0.58
8.18963	0.711
8.23049	0.761
8.27135	0.774
8.31221	0.796
8.35307	0.803
8.39393	0.759
8.43479	0.694
8.47564	0.784
8.5165	0.805
8.55736	0.757
8.59822	0.59
8.63908	0.641
8.67994	0.747
8.7208	0.539
8.76165	0.346
8.80251	0.597
8.84337	0.682
8.88423	0.721
8.92509	0.744
8.96595	0.769
9.0068	0.764
9.04766	0.72
9.08852	0.767
9.12938	0.786
9.17024	0.783
9.2111	0.713
9.25196	0.585
9.29281	0.689
9.33367	0.605
9.37453	0.65
9.41539	0.737
9.45625	0.73
9.49711	0.544
9.53797	0.233
9.57882	0.535
9.61968	0.706
9.66054	0.755
9.7014	0.713
9.74226	0.511
9.78312	0.73
9.82398	0.658
9.86483	0.648
9.90569	0.781
9.94655	0.819
9.98741	0.808
10.0283	0.8
10.0691	0.819
10.11	0.824
10.1508	0.843
10.1917	0.848
10.2326	0.839
10.2734	0.846
10.3143	0.851
10.3551	0.851
10.396	0.856
10.4369	0.856
10.4777	0.866
10.5186	0.861
10.5594	0.834
10.6003	0.861
10.6411	0.868
10.682	0.865
10.7229	0.865
10.7637	0.868
10.8046	0.877
10.8454	0.856
10.8863	0.866
10.9272	0.872
10.968	0.887
11.0089	0.89
11.0497	0.889
11.0906	0.89
11.1314	0.882
11.1723	0.872
11.2132	0.844
11.254	0.796
11.2949	0.686
11.3357	0.542
11.3766	0.505
11.4175	0.527
11.4583	0.627
11.4992	0.715
11.54	0.766
11.5809	0.803
11.6217	0.836
11.6626	0.848
11.7035	0.808
11.7443	0.825
11.7852	0.863
11.826	0.877
11.8669	0.87
11.9078	0.86
11.9486	0.824
11.9895	0.703
12.0303	0.39
12.0712	0.329
12.1121	0.602
12.1529	0.774
12.1938	0.841
12.2346	0.887
12.2755	0.899
12.3163	0.914
12.3572	0.921
12.3981	0.918
12.4389	0.923
12.4798	0.931
12.5206	0.936
12.5615	0.916
12.6024	0.892
12.6432	0.921
12.6841	0.921
12.7249	0.933
12.7658	0.931
12.8066	0.926
12.8475	0.904
12.8884	0.882
12.9292	0.815
12.9701	0.667
13.0109	0.361
13.0518	0.25
13.0927	0.501
13.1335	0.686
13.1744	0.771
13.2152	0.788
13.2561	0.781
13.2969	0.718
13.3378	0.59
13.3787	0.416
13.4195	0.296
13.4604	0.307
13.5012	0.46
13.5421	0.609
13.583	0.703
13.6238	0.773
13.6647	0.81
13.7055	0.827
13.7464	0.841
13.7873	0.853
13.8281	0.865
13.869	0.865
13.9098	0.868
13.9507	0.873
13.9915	0.887
14.0324	0.894
14.0733	0.901
14.1141	0.909
14.155	0.914
14.1958	0.916
14.2367	0.924
14.2776	0.918
14.3184	0.914
14.3593	0.897
14.4001	0.853
14.441	0.798
14.4818	0.749
14.5227	0.653
14.5636	0.534
14.6044	0.467
14.6453	0.508
14.6861	0.646
14.727	0.749
14.7679	0.798
14.8087	0.825
14.8496	0.824
14.8904	0.832
14.9313	0.837
14.9721	0.841
15.013	0.822
15.0539	0.783
15.0947	0.735
15.1356	0.738
15.1764	0.773
15.2173	0.778
15.2582	0.769
15.299	0.778
15.3399	0.788
15.3807	0.79
15.4216	0.781
15.4624	0.781
15.5033	0.757
15.5442	0.737
15.585	0.728
15.6259	0.728
15.6667	0.718
15.7076	0.716
15.7485	0.716
15.7893	0.711
15.8302	0.687
15.871	0.68
15.9119	0.668
15.9528	0.658
