Infrared Spectrum: HYPOXANTHINE, 7-CYCLOPENTYL
Formula: C10 H12 N4 O
CAS: 40067-43-4
State: SOLID (1.0 mg / 650 mg KBr DISC)
Class: COBLENTZ III
Instrument: PERKIN-ELMER 221 (GRATING)
Instrument parameters: FILTER AT 2490, 980 CM^-^1. GRATING 4000-1428 CM^-^1, NaCl PRISM 1428-650 CM^-^1
Sampling: TRANSMISSION
Resolution: 2
Origin: SOUTHERN RESEARCH INSTITUTE
1/CM	TRANSMITTANCE
641.372	0.864
650.996	0.863
660.62	0.8611
670.244	0.859
679.868	0.855
689.492	0.8473
699.116	0.8092
708.74	0.8374
718.364	0.8159
727.988	0.8399
737.612	0.831
747.236	0.8132
756.861	0.7965
766.485	0.7538
776.109	0.6812
785.733	0.5944
795.357	0.788
804.981	0.7819
814.605	0.7699
824.229	0.756
833.853	0.7371
843.477	0.729
853.101	0.7028
862.725	0.6638
872.349	0.5948
881.973	0.5137
891.597	0.3888
901.221	0.4688
910.845	0.6871
920.469	0.7575
930.093	0.697
939.717	0.6838
949.341	0.7443
958.965	0.757
968.589	0.755
978.213	0.7508
987.838	0.747
997.462	0.7439
1007.09	0.739
1016.71	0.727
1026.33	0.726
1035.96	0.724
1045.58	0.7192
1055.21	0.6977
1064.83	0.6605
1074.45	0.5784
1084.08	0.5402
1093.7	0.6183
1103.33	0.7275
1112.95	0.7432
1122.57	0.7112
1132.2	0.7053
1141.82	0.6803
1151.45	0.6406
1161.07	0.6008
1170.69	0.6611
1180.32	0.688
1189.94	0.6699
1199.57	0.6361
1209.19	0.6028
1218.81	0.5447
1228.44	0.4252
1238.06	0.3952
1247.69	0.6376
1257.31	0.682
1266.93	0.6774
1276.56	0.6714
1286.18	0.6645
1295.81	0.6251
1305.43	0.6284
1315.05	0.6246
1324.68	0.5382
1334.3	0.391
1343.93	0.4908
1353.55	0.6572
1363.18	0.5442
1372.8	0.3901
1382.42	0.3793
1392.05	0.5018
1401.67	0.728
1411.3	0.6423
1420.92	0.5225
1430.54	0.5704
1440.17	0.6853
1449.79	0.5842
1459.42	0.541
1469.04	0.6891
1478.66	0.6811
1488.29	0.661
1497.91	0.6366
1507.54	0.6234
1517.16	0.6502
1526.78	0.6454
1536.41	0.6459
1546.03	0.6327
1555.66	0.612
1565.28	0.5861
1574.9	0.5473
1584.53	0.4815
1594.15	0.4
1603.78	0.4296
1613.4	0.528
1623.02	0.477
1632.65	0.4157
1642.27	0.3601
1651.9	0.2861
1661.52	0.196
1671.14	0.0882
1680.77	0.086
1690.39	0.1345
1700.02	0.264
1709.64	0.4248
1719.26	0.5576
1728.89	0.6421
1738.51	0.7168
1748.14	0.793
1757.76	0.8309
1767.39	0.856
1777.01	0.859
1786.63	0.848
1796.26	0.8175
1805.88	0.8146
1815.51	0.8829
1825.13	0.888
1834.75	0.8855
1844.38	0.8755
1854	0.864
1863.63	0.844
1873.25	0.867
1882.87	0.8677
1892.5	0.862
1902.12	0.863
1911.75	0.861
1921.37	0.86
1930.99	0.86
1940.62	0.854
1950.24	0.8452
1959.87	0.8361
1969.49	0.8326
1979.11	0.8263
1988.74	0.824
1998.36	0.824
2007.99	0.8204
2017.61	0.82
2027.23	0.818
2036.86	0.814
2046.48	0.812
2056.11	0.8004
2065.73	0.8004
2075.35	0.7944
2084.98	0.7913
2094.6	0.789
2104.23	0.7876
2113.85	0.781
2123.47	0.7774
2133.1	0.772
2142.72	0.771
2152.35	0.7694
2161.97	0.7686
2171.59	0.7644
2181.22	0.762
2190.84	0.761
2200.47	0.759
2210.09	0.7597
2219.72	0.752
2229.34	0.747
2238.96	0.7464
2248.59	0.7446
2258.21	0.7394
2267.84	0.737
2277.46	0.735
2287.08	0.733
2296.71	0.7303
2306.33	0.724
2315.96	0.72
2325.58	0.7134
2335.2	0.713
2344.83	0.713
2354.45	0.712
2364.08	0.706
2373.7	0.703
2383.32	0.7004
2392.95	0.696
2402.57	0.6927
2412.2	0.6894
2421.82	0.683
2431.44	0.6774
2441.07	0.673
2450.69	0.671
2460.32	0.6664
2469.94	0.6617
2479.56	0.6557
2489.19	0.6408
2498.81	0.648
2508.44	0.6454
2518.06	0.64
2527.68	0.636
2537.31	0.6295
2546.93	0.6247
2556.56	0.6164
2566.18	0.6084
2575.8	0.6007
2585.43	0.5854
2595.05	0.5727
2604.68	0.561
2614.3	0.559
2623.92	0.559
2633.55	0.557
2643.17	0.555
2652.8	0.549
2662.42	0.5414
2672.05	0.536
2681.67	0.5261
2691.29	0.517
2700.92	0.5127
2710.54	0.4961
2720.17	0.4864
2729.79	0.4794
2739.41	0.4717
2749.04	0.4657
2758.66	0.4624
2768.29	0.4616
2777.91	0.4567
2787.53	0.4437
2797.16	0.4231
2806.78	0.4064
2816.41	0.401
2826.03	0.405
2835.65	0.4054
2845.28	0.3944
2854.9	0.3731
2864.53	0.338
2874.15	0.3399
2883.77	0.4089
2893.4	0.4293
2903.02	0.436
2912.65	0.4208
2922.27	0.3831
2931.89	0.3683
2941.52	0.375
2951.14	0.3978
2960.77	0.4336
2970.39	0.44
2980.01	0.4475
2989.64	0.4803
2999.26	0.497
3008.89	0.5085
3018.51	0.5529
3028.13	0.557
3037.76	0.5484
3047.38	0.5169
3057.01	0.4926
3066.63	0.5357
3076.25	0.557
3085.88	0.5366
3095.5	0.5264
3105.13	0.489
3114.75	0.5566
3124.38	0.573
3134	0.5776
3143.62	0.6054
3153.25	0.6535
3162.87	0.6756
3172.5	0.6853
3182.12	0.6989
3191.74	0.7053
3201.37	0.7186
3210.99	0.7246
3220.62	0.726
3230.24	0.7247
3239.86	0.719
3249.49	0.7134
3259.11	0.708
3268.74	0.7119
3278.36	0.7206
3287.98	0.724
3297.61	0.724
3307.23	0.718
3316.86	0.7107
3326.48	0.6967
3336.1	0.695
3345.73	0.6904
3355.35	0.6867
3364.98	0.6824
3374.6	0.679
3384.22	0.6756
3393.85	0.673
3403.47	0.671
3413.1	0.671
3422.72	0.671
3432.34	0.671
3441.97	0.673
3451.59	0.676
3461.22	0.677
3470.84	0.679
3480.46	0.679
3490.09	0.6836
3499.71	0.686
3509.34	0.689
3518.96	0.692
3528.58	0.6946
3538.21	0.6993
3547.83	0.701
3557.46	0.7053
3567.08	0.7076
3576.71	0.7113
3586.33	0.7156
3595.95	0.7196
3605.58	0.722
3615.2	0.7233
3624.83	0.725
3634.45	0.726
3644.07	0.727
3653.7	0.727
3663.32	0.725
3672.95	0.726
3682.57	0.725
3692.19	0.725
3701.82	0.725
3711.44	0.725
3721.07	0.725
3730.69	0.7214
3740.31	0.721
3749.94	0.721
3759.56	0.721
3769.19	0.721
3778.81	0.7204
3788.43	0.718
3798.06	0.7167
3807.68	0.7156
3817.31	0.716
3826.93	0.716
3836.55	0.716
3846.18	0.713
3855.8	0.713
3865.43	0.7124
3875.05	0.712
3884.67	0.713
3894.3	0.712
3903.92	0.709
3913.55	0.708
3923.17	0.708
3932.79	0.709
3942.42	0.709
3952.04	0.709
3961.67	0.709
3971.29	0.708
3980.91	0.708
3990.54	0.707
4000.16	0.707
4009.79	0.7064
