Infrared Spectrum: Ethyl 3-tolylacetate
Formula: C 11 H 14 O 2
CAS: 40061-55-0
State: gas
Origin: EPA-IR VAPOR PHASE LIBRARY
1/CM	ABSORBANCE
549.9	0.01252
559.547	0.01123
569.193	0.00975
578.84	0.00886
588.486	0.00817
598.133	0.00818
607.779	0.00894
617.426	0.01086
627.072	0.01589
636.719	0.01815
646.365	0.01243
656.012	0.0094
665.658	0.00982
675.305	0.01445
684.951	0.02866
694.598	0.03766
704.245	0.03551
713.891	0.04159
723.538	0.03565
733.184	0.0278
742.831	0.03993
752.477	0.06457
762.124	0.07649
771.77	0.05675
781.417	0.0367
791.063	0.02411
800.71	0.01718
810.356	0.0141
820.003	0.01279
829.649	0.01285
839.296	0.01485
848.943	0.01705
858.589	0.01681
868.236	0.01917
877.882	0.02462
887.529	0.02152
897.175	0.01847
906.822	0.01678
916.468	0.0198
926.115	0.0239
935.761	0.0254
945.408	0.02224
955.054	0.0173
964.701	0.01399
974.347	0.01337
983.994	0.01507
993.64	0.01939
1003.29	0.02601
1012.93	0.04204
1022.58	0.08656
1032.23	0.15194
1041.87	0.14654
1051.52	0.07868
1061.17	0.04515
1070.81	0.03716
1080.46	0.04511
1090.11	0.06685
1099.75	0.08356
1109.4	0.09335
1119.05	0.13833
1128.69	0.24687
1138.34	0.37359
1147.99	0.38211
1157.63	0.29378
1167.28	0.22322
1176.92	0.17
1186.57	0.13464
1196.22	0.11676
1205.86	0.11627
1215.51	0.13488
1225.16	0.17848
1234.8	0.24039
1244.45	0.31318
1254.1	0.31978
1263.74	0.21735
1273.39	0.14028
1283.04	0.10713
1292.68	0.10315
1302.33	0.11094
1311.98	0.11087
1321.62	0.10231
1331.27	0.09717
1340.92	0.07481
1350.56	0.04592
1360.21	0.04713
1369.86	0.06599
1379.5	0.04883
1389.15	0.03808
1398.79	0.03478
1408.44	0.03401
1418.09	0.03858
1427.73	0.048
1437.38	0.05656
1447.03	0.05438
1456.67	0.04751
1466.32	0.04993
1475.97	0.05138
1485.61	0.05667
1495.26	0.05422
1504.91	0.03412
1514.55	0.02482
1524.2	0.0221
1533.85	0.01975
1543.49	0.01669
1553.14	0.01499
1562.79	0.0158
1572.43	0.01973
1582.08	0.02765
1591.73	0.03934
1601.37	0.06007
1611.02	0.06819
1620.67	0.03249
1630.31	0.01459
1639.96	0.01132
1649.6	0.01115
1659.25	0.01189
1668.9	0.01323
1678.54	0.01556
1688.19	0.01948
1697.84	0.0257
1707.48	0.03583
1717.13	0.05438
1726.78	0.09763
1736.42	0.20726
1746.07	0.38321
1755.72	0.44812
1765.36	0.31278
1775.01	0.15383
1784.66	0.06708
1794.3	0.0359
1803.95	0.02335
1813.6	0.0172
1823.24	0.01387
1832.89	0.01267
1842.54	0.01295
1852.18	0.01292
1861.83	0.01166
1871.47	0.01018
1881.12	0.00956
1890.77	0.009
1900.41	0.00851
1910.06	0.00873
1919.71	0.00985
1929.35	0.01106
1939	0.0099
1948.65	0.00791
1958.29	0.00714
1967.94	0.00697
1977.59	0.0069
1987.23	0.00675
1996.88	0.00658
2006.53	0.00636
2016.17	0.0060609
2025.82	0.0057713
2035.47	0.0055087
2045.11	0.00540276
2054.76	0.00541843
2064.41	0.0055586
2074.05	0.005653
2083.7	0.0057444
2093.35	0.0055932
2102.99	0.0052777
2112.64	0.00481
2122.28	0.004442
2131.93	0.00424
2141.58	0.00405
2151.22	0.00393
2160.87	0.00383
2170.52	0.00379
2180.16	0.0038
2189.81	0.00377
2199.46	0.00385
2209.1	0.00382
2218.75	0.00384
2228.4	0.00397
2238.04	0.00403
2247.69	0.00415
2257.34	0.00421
2266.98	0.00425
2276.63	0.00418
2286.28	0.00414
2295.92	0.00417
2305.57	0.004344
2315.22	0.004432
2324.86	0.004546
2334.51	0.004522
2344.16	0.004419
2353.8	0.00424
2363.45	0.00399
2373.09	0.00405
2382.74	0.00399
2392.39	0.00393
2402.03	0.00403
2411.68	0.00401
2421.33	0.00402
2430.97	0.00386
2440.62	0.00366
2450.27	0.00359
2459.91	0.00369
2469.56	0.00368
2479.21	0.00365
2488.85	0.00345
2498.5	0.00331
2508.15	0.00318
2517.79	0.00306
2527.44	0.00303
2537.09	0.00308
2546.73	0.00289
2556.38	0.00273
2566.03	0.0027
2575.67	0.00273
2585.32	0.0028
2594.96	0.00287
2604.61	0.00281
2614.26	0.00284
2623.9	0.00263
2633.55	0.00248
2643.2	0.00235
2652.84	0.00241
2662.49	0.00254
2672.14	0.00256
2681.78	0.0027
2691.43	0.00276
2701.08	0.00291
2710.72	0.00304
2720.37	0.00367
2730.02	0.004624
2739.66	0.0058818
2749.31	0.0059556
2758.96	0.00471
2768.6	0.004392
2778.25	0.004627
2787.9	0.004628
2797.54	0.005102
2807.19	0.0060165
2816.84	0.0076
2826.48	0.00961
2836.13	0.01207
2845.77	0.01581
2855.42	0.02151
2865.07	0.03087
2874.71	0.04185
2884.36	0.04698
2894.01	0.04833
2903.65	0.05666
2913.3	0.07144
2922.95	0.09242
2932.59	0.1146
2942.24	0.11904
2951.89	0.09785
2961.53	0.08591
2971.18	0.09819
2980.83	0.13488
2990.47	0.1373
3000.12	0.10053
3009.77	0.08437
3019.41	0.08498
3029.06	0.09474
3038.71	0.08632
3048.35	0.06882
3058	0.06565
3067.64	0.05648
3077.29	0.03566
3086.94	0.02221
3096.58	0.0168
3106.23	0.01467
3115.88	0.01081
3125.52	0.00657
3135.17	0.00421
3144.82	0.00294
3154.46	0.00238
3164.11	0.00202
3173.76	0.00191
3183.4	0.00131
3193.05	0.00128
3202.7	0.00093
3212.34	0.00068
3221.99	0.00072
3231.64	0.00062
3241.28	0.00041
3250.93	0.00017
3260.58	0.00016
3270.22	8e-05
3279.87	4e-05
3289.52	0.00022
3299.16	0.00011
3308.81	0.00033
3318.45	0.00013
3328.1	0.00036
3337.75	0.00048
3347.39	0.00044
3357.04	0.0006
3366.69	0.00048
3376.33	0.00058
3385.98	0.00077
3395.63	0.00098
3405.27	0.00112
3414.92	0.00114
3424.57	0.00112
3434.21	0.00131
3443.86	0.00134
3453.51	0.00192
3463.15	0.00285
3472.8	0.00395
3482.45	0.005
3492.09	0.005192
3501.74	0.004359
3511.39	0.00333
3521.03	0.00241
3530.68	0.0019
3540.33	0.00173
3549.97	0.0016
3559.62	0.00181
3569.26	0.00174
3578.91	0.00168
3588.56	0.00159
3598.2	0.00177
3607.85	0.00161
3617.5	0.00165
3627.14	0.00146
3636.79	0.00169
3646.44	0.00171
3656.08	0.00192
3665.73	0.00203
3675.38	0.00181
3685.02	0.00211
3694.67	0.00196
3704.32	0.00193
3713.96	0.0021
3723.61	0.00202
3733.26	0.00225
3742.9	0.00233
3752.55	0.00241
3762.2	0.00262
3771.84	0.00257
3781.49	0.00256
3791.13	0.00259
3800.78	0.00266
3810.43	0.00255
3820.07	0.0026
3829.72	0.00268
3839.37	0.00263
3849.01	0.00266
3858.66	0.00269
3868.31	0.00271
3877.95	0.00264
3887.6	0.00283
3897.25	0.00291
3906.89	0.00302
3916.54	0.00286
3926.19	0.00291
3935.83	0.00277
3945.48	0.00288
3955.13	0.00293
3964.77	0.00303
3974.42	0.00302
3984.07	0.00317
3993.71	0.00301
