Infrared Spectrum: FORMAMIDE, N-(4-AMINO-6-CHLORO-5-PYRIMIDINYL)-N-CYCLOPENTYL-
Formula: C10 H13 Cl N4 O
CAS: 40067-41-2
State: SOLID (1 mg / 650 mg KBr DISC)
Class: COBLENTZ III
Instrument: PERKIN-ELMER 221 (GRATING)
Instrument parameters: FILTER AT 980 CM^-^1. GRATING 4000-1428 CM^-^1, NaCl PRISM 1428-650 CM^-^1
Sampling: TRANSMISSION
Resolution: 2
Origin: SOUTHERN RESEARCH INSTITUTE
1/CM	TRANSMITTANCE
632.389	0.758
640.842	0.7219
649.295	0.7866
657.748	0.8048
666.2	0.817
674.653	0.8208
683.106	0.821
691.559	0.82
700.012	0.816
708.465	0.814
716.917	0.809
725.37	0.803
733.823	0.79
742.276	0.7691
750.729	0.7361
759.182	0.7523
767.634	0.783
776.087	0.78
784.54	0.7622
792.993	0.5319
801.446	0.7828
809.899	0.791
818.351	0.788
826.804	0.788
835.257	0.791
843.71	0.807
852.163	0.822
860.616	0.827
869.069	0.827
877.521	0.8222
885.974	0.8054
894.427	0.7753
902.88	0.7073
911.333	0.7986
919.786	0.8078
928.238	0.7901
936.691	0.74
945.144	0.4152
953.597	0.642
962.05	0.791
970.503	0.7866
978.955	0.7767
987.408	0.7674
995.861	0.7555
1004.31	0.725
1012.77	0.7767
1021.22	0.788
1029.67	0.7648
1038.13	0.7853
1046.58	0.793
1055.03	0.787
1063.48	0.7889
1071.94	0.789
1080.39	0.7812
1088.84	0.7778
1097.3	0.7808
1105.75	0.7773
1114.2	0.772
1122.65	0.77
1131.11	0.7624
1139.56	0.7483
1148.01	0.7103
1156.47	0.6716
1164.92	0.631
1173.37	0.666
1181.82	0.6713
1190.28	0.6397
1198.73	0.6358
1207.18	0.6827
1215.63	0.692
1224.09	0.68
1232.54	0.6175
1240.99	0.535
1249.45	0.5104
1257.9	0.566
1266.35	0.5741
1274.8	0.5153
1283.26	0.512
1291.71	0.5128
1300.16	0.5494
1308.62	0.577
1317.07	0.5626
1325.52	0.5009
1333.97	0.4045
1342.43	0.6485
1350.88	0.6664
1359.33	0.6494
1367.79	0.6128
1376.24	0.601
1384.69	0.4655
1393.14	0.4164
1401.6	0.6135
1410.05	0.6606
1418.5	0.5045
1426.96	0.6054
1435.41	0.705
1443.86	0.6674
1452.31	0.6387
1460.77	0.689
1469.22	0.6652
1477.67	0.5774
1486.13	0.4849
1494.58	0.6664
1503.03	0.6815
1511.48	0.6721
1519.94	0.6213
1528.39	0.5594
1536.84	0.3579
1545.3	0.3116
1553.75	0.3888
1562.2	0.2439
1570.65	0.4781
1579.11	0.6932
1587.56	0.736
1596.01	0.7296
1604.47	0.7057
1612.92	0.6459
1621.37	0.5537
1629.82	0.5049
1638.28	0.4119
1646.73	0.2307
1655.18	0.303
1663.64	0.1979
1672.09	0.0832
1680.54	0.3451
1688.99	0.4905
1697.45	0.6081
1705.9	0.7108
1714.35	0.7556
1722.81	0.7901
1731.26	0.7977
1739.71	0.805
1748.16	0.818
1756.62	0.826
1765.07	0.8296
1773.52	0.8345
1781.98	0.8415
1790.43	0.844
1798.88	0.846
1807.33	0.849
1815.79	0.85
1824.24	0.85
1832.69	0.85
1841.15	0.85
1849.6	0.85
1858.05	0.85
1866.5	0.85
1874.96	0.85
1883.41	0.85
1891.86	0.85
1900.32	0.85
1908.77	0.85
1917.22	0.85
1925.67	0.85
1934.13	0.8492
1942.58	0.849
1951.03	0.847
1959.48	0.847
1967.94	0.849
1976.39	0.849
1984.84	0.849
1993.3	0.849
2001.75	0.849
2010.2	0.849
2018.65	0.849
2027.11	0.849
2035.56	0.849
2044.01	0.849
2052.47	0.849
2060.92	0.846
2069.37	0.8444
2077.82	0.845
2086.28	0.846
2094.73	0.846
2103.18	0.8456
2111.64	0.842
2120.09	0.8416
2128.54	0.84
2136.99	0.839
2145.45	0.8404
2153.9	0.844
2162.35	0.844
2170.81	0.844
2179.26	0.844
2187.71	0.844
2196.16	0.844
2204.62	0.845
2213.07	0.844
2221.52	0.844
2229.98	0.842
2238.43	0.842
2246.88	0.842
2255.33	0.841
2263.79	0.841
2272.24	0.842
2280.69	0.844
2289.15	0.844
2297.6	0.841
2306.05	0.84
2314.5	0.839
2322.96	0.838
2331.41	0.836
2339.86	0.836
2348.32	0.839
2356.77	0.839
2365.22	0.839
2373.67	0.839
2382.13	0.839
2390.58	0.836
2399.03	0.834
2407.49	0.834
2415.94	0.834
2424.39	0.833
2432.84	0.834
2441.3	0.832
2449.75	0.83
2458.2	0.83
2466.66	0.83
2475.11	0.83
2483.56	0.829
2492.01	0.83
2500.47	0.83
2508.92	0.829
2517.37	0.828
2525.83	0.827
2534.28	0.824
2542.73	0.824
2551.18	0.824
2559.64	0.823
2568.09	0.822
2576.54	0.82
2585	0.818
2593.45	0.8204
2601.9	0.824
2610.35	0.824
2618.81	0.822
2627.26	0.817
2635.71	0.8131
2644.16	0.81
2652.62	0.8056
2661.07	0.805
2669.52	0.8046
2677.98	0.803
2686.43	0.8006
2694.88	0.799
2703.33	0.8
2711.79	0.803
2720.24	0.804
2728.69	0.804
2737.15	0.8044
2745.6	0.805
2754.05	0.8054
2762.5	0.806
2770.96	0.799
2779.41	0.798
2787.86	0.797
2796.32	0.794
2804.77	0.7886
2813.22	0.7841
2821.67	0.7766
2830.13	0.7706
2838.58	0.7581
2847.03	0.7443
2855.49	0.7106
2863.94	0.6772
2872.39	0.6619
2880.84	0.6833
2889.3	0.6861
2897.75	0.6859
2906.2	0.682
2914.66	0.6776
2923.11	0.673
2931.56	0.66
2940.01	0.6296
2948.47	0.5988
2956.92	0.5817
2965.37	0.58
2973.83	0.6232
2982.28	0.7183
2990.73	0.7524
2999.18	0.753
3007.64	0.7516
3016.09	0.745
3024.54	0.7381
3033	0.7321
3041.45	0.7227
3049.9	0.7056
3058.35	0.6996
3066.81	0.6881
3075.26	0.6726
3083.71	0.6651
3092.17	0.641
3100.62	0.6376
3109.07	0.6176
3117.52	0.6052
3125.98	0.5891
3134.43	0.5532
3142.88	0.5227
3151.34	0.4674
3159.79	0.4232
3168.24	0.4194
3176.69	0.4471
3185.15	0.4758
3193.6	0.5037
3202.05	0.52
3210.51	0.55
3218.96	0.5838
3227.41	0.6152
3235.86	0.6393
3244.32	0.644
3252.77	0.644
3261.22	0.6327
3269.68	0.6241
3278.13	0.5834
3286.58	0.5492
3295.03	0.5207
3303.49	0.474
3311.94	0.473
3320.39	0.4631
3328.85	0.456
3337.3	0.4462
3345.75	0.4069
3354.2	0.3142
3362.66	0.283
3371.11	0.3213
3379.56	0.4143
3388.01	0.4874
3396.47	0.5643
3404.92	0.6148
3413.37	0.6464
3421.83	0.6777
3430.28	0.6903
3438.73	0.7054
3447.18	0.7199
3455.64	0.7244
3464.09	0.7299
3472.54	0.7379
3481	0.7414
3489.45	0.7454
3497.9	0.7514
3506.35	0.7574
3514.81	0.763
3523.26	0.7684
3531.71	0.772
3540.17	0.7764
3548.62	0.7854
3557.07	0.7914
3565.52	0.7974
3573.98	0.8034
3582.43	0.809
3590.88	0.8129
3599.34	0.8164
3607.79	0.8189
3616.24	0.824
3624.69	0.8339
3633.15	0.838
3641.6	0.84
3650.05	0.841
3658.51	0.841
3666.96	0.841
3675.41	0.84
3683.86	0.8429
3692.32	0.846
3700.77	0.846
3709.22	0.846
3717.68	0.849
3726.13	0.849
3734.58	0.847
3743.03	0.846
3751.49	0.8464
3759.94	0.847
3768.39	0.849
3776.85	0.849
3785.3	0.849
3793.75	0.849
3802.2	0.849
3810.66	0.847
3819.11	0.845
3827.56	0.8464
3836.02	0.847
3844.47	0.846
3852.92	0.846
3861.37	0.846
3869.83	0.846
3878.28	0.8431
3886.73	0.842
3895.19	0.844
3903.64	0.844
3912.09	0.844
3920.54	0.844
3929	0.844
3937.45	0.844
3945.9	0.844
3954.36	0.844
3962.81	0.844
3971.26	0.844
3979.71	0.844
3988.17	0.844
3996.62	0.844
4005.07	0.844
