Infrared Spectrum: Hypoxanthine, 1-butyl-
Formula: C9 H12 N4 O
CAS: 40067-44-5
State: SOLID (1 mg / 650 mg KBr DISC)
Class: COBLENTZ III
Instrument: PERKIN-ELMER 221 (GRATING)
Instrument parameters: FILTER AT 980 CM^-^1. GRATING 4000-1428 CM^-^1, NaCl PRISM 1428-650 CM^-^1
Sampling: TRANSMISSION
Resolution: 2
Origin: SOUTHERN RESEARCH INSTITUTE
1/CM	TRANSMITTANCE
657	0.9404
666.014	0.9337
675.028	0.8918
684.042	0.6957
693.056	0.9326
702.069	0.9551
711.083	0.9521
720.097	0.9412
729.111	0.9062
738.125	0.8948
747.139	0.8486
756.153	0.9003
765.167	0.8904
774.18	0.8574
783.194	0.647
792.208	0.8441
801.222	0.7806
810.236	0.8594
819.25	0.8269
828.264	0.7494
837.278	0.785
846.291	0.8092
855.305	0.7874
864.319	0.7425
873.333	0.6939
882.347	0.6277
891.361	0.6264
900.375	0.7536
909.389	0.7942
918.402	0.7415
927.416	0.5806
936.43	0.6
945.444	0.6853
954.458	0.5318
963.472	0.7561
972.486	0.7944
981.5	0.7514
990.513	0.7037
999.527	0.6935
1008.54	0.6221
1017.56	0.4933
1026.57	0.509
1035.58	0.7864
1044.6	0.8574
1053.61	0.8487
1062.62	0.8765
1071.64	0.9091
1080.65	0.9008
1089.67	0.8833
1098.68	0.8558
1107.69	0.794
1116.71	0.708
1125.72	0.7934
1134.74	0.8248
1143.75	0.8023
1152.76	0.7489
1161.78	0.7169
1170.79	0.7796
1179.8	0.856
1188.82	0.8502
1197.83	0.8134
1206.85	0.753
1215.86	0.5768
1224.87	0.4916
1233.89	0.6129
1242.9	0.6117
1251.92	0.5942
1260.93	0.6041
1269.94	0.7558
1278.96	0.8429
1287.97	0.8939
1296.99	0.8676
1306	0.7941
1315.01	0.7635
1324.03	0.8538
1333.04	0.8544
1342.05	0.8262
1351.07	0.7315
1360.08	0.6332
1369.1	0.6651
1378.11	0.713
1387.12	0.7415
1396.14	0.7423
1405.15	0.6785
1414.17	0.6024
1423.18	0.5553
1432.19	0.5481
1441.21	0.5494
1450.22	0.5457
1459.23	0.5704
1468.25	0.6082
1477.26	0.8049
1486.28	0.8413
1495.29	0.8437
1504.3	0.8197
1513.32	0.7942
1522.33	0.726
1531.35	0.686
1540.36	0.7929
1549.37	0.8042
1558.39	0.7617
1567.4	0.7534
1576.42	0.7625
1585.43	0.8072
1594.44	0.8015
1603.46	0.7817
1612.47	0.7603
1621.48	0.7303
1630.5	0.6948
1639.51	0.6548
1648.53	0.6103
1657.54	0.5403
1666.55	0.4759
1675.57	0.41
1684.58	0.3484
1693.6	0.2601
1702.61	0.181
1711.62	0.1676
1720.64	0.1749
1729.65	0.3358
1738.67	0.4619
1747.68	0.6105
1756.69	0.6902
1765.71	0.7363
1774.72	0.7484
1783.73	0.7583
1792.75	0.7669
1801.76	0.774
1810.78	0.7813
1819.79	0.7891
1828.8	0.7962
1837.82	0.8028
1846.83	0.8085
1855.85	0.8141
1864.86	0.821
1873.87	0.8298
1882.89	0.836
1891.9	0.842
1900.91	0.8469
1909.93	0.8499
1918.94	0.8553
1927.96	0.8591
1936.97	0.8631
1945.98	0.8678
1955	0.8723
1964.01	0.8751
1973.03	0.877
1982.04	0.878
1991.05	0.8783
2000.07	0.8783
2009.08	0.8783
2018.1	0.8786
2027.11	0.8785
2036.12	0.8796
2045.14	0.8799
2054.15	0.8802
2063.16	0.8808
2072.18	0.8802
2081.19	0.8783
2090.21	0.8756
2099.22	0.8728
2108.23	0.8691
2117.25	0.8655
2126.26	0.8615
2135.28	0.857
2144.29	0.8527
2153.3	0.8477
2162.32	0.842
2171.33	0.8354
2180.35	0.8296
2189.36	0.8252
2198.37	0.8216
2207.39	0.8183
2216.4	0.8152
2225.41	0.808
2234.43	0.7978
2243.44	0.7856
2252.46	0.7744
2261.47	0.7652
2270.48	0.7564
2279.5	0.7488
2288.51	0.7439
2297.53	0.7393
2306.54	0.7311
2315.55	0.7208
2324.57	0.7121
2333.58	0.7021
2342.59	0.6924
2351.61	0.6832
2360.62	0.6725
2369.64	0.6605
2378.65	0.6522
2387.66	0.6476
2396.68	0.6446
2405.69	0.6385
2414.71	0.6286
2423.72	0.6189
2432.73	0.6103
2441.75	0.602
2450.76	0.5942
2459.78	0.5862
2468.79	0.5777
2477.8	0.5715
2486.82	0.5798
2495.83	0.5466
2504.84	0.5395
2513.86	0.5306
2522.87	0.5207
2531.89	0.5202
2540.9	0.5198
2549.91	0.5192
2558.93	0.5187
2567.94	0.5183
2576.96	0.5167
2585.97	0.5116
2594.98	0.5094
2604	0.5084
2613.01	0.5074
2622.02	0.5056
2631.04	0.5028
2640.05	0.5014
2649.07	0.5012
2658.08	0.5026
2667.09	0.505
2676.11	0.5084
2685.12	0.5104
2694.14	0.5101
2703.15	0.508
2712.16	0.5045
2721.18	0.4973
2730.19	0.4871
2739.21	0.48
2748.22	0.4789
2757.23	0.4795
2766.25	0.4817
2775.26	0.4847
2784.27	0.4904
2793.29	0.4963
2802.3	0.5055
2811.32	0.5108
2820.33	0.5124
2829.34	0.5105
2838.36	0.4987
2847.37	0.4819
2856.39	0.4739
2865.4	0.4817
2874.41	0.5097
2883.43	0.5134
2892.44	0.5096
2901.46	0.4889
2910.47	0.4571
2919.48	0.4297
2928.5	0.3995
2937.51	0.3992
2946.52	0.4072
2955.54	0.3925
2964.55	0.4097
2973.57	0.4736
2982.58	0.5203
2991.59	0.546
3000.61	0.5566
3009.62	0.5551
3018.64	0.5437
3027.65	0.534
3036.66	0.5345
3045.68	0.5407
3054.69	0.547
3063.7	0.5544
3072.72	0.578
3081.73	0.5926
3090.75	0.5962
3099.76	0.5972
3108.77	0.596
3117.79	0.5928
3126.8	0.5989
3135.82	0.6323
3144.83	0.6585
3153.84	0.6768
3162.86	0.6885
3171.87	0.6989
3180.89	0.7076
3189.9	0.7145
3198.91	0.7246
3207.93	0.7374
3216.94	0.7463
3225.95	0.7579
3234.97	0.7631
3243.98	0.7655
3253	0.7672
3262.01	0.768
3271.02	0.7696
3280.04	0.7769
3289.05	0.7842
3298.07	0.7889
3307.08	0.7911
3316.09	0.791
3325.11	0.7896
3334.12	0.7876
3343.14	0.7854
3352.15	0.7824
3361.16	0.7785
3370.18	0.7743
3379.19	0.7708
3388.2	0.7692
3397.22	0.7692
3406.23	0.7698
3415.25	0.7711
3424.26	0.7734
3433.27	0.7764
3442.29	0.7806
3451.3	0.7842
3460.32	0.7867
3469.33	0.7889
3478.34	0.7903
3487.36	0.7911
3496.37	0.7951
3505.38	0.7977
3514.4	0.7995
3523.41	0.8023
3532.43	0.8079
3541.44	0.8129
3550.45	0.8163
3559.47	0.8199
3568.48	0.8234
3577.5	0.8296
3586.51	0.8399
3595.52	0.842
3604.54	0.8467
3613.55	0.8506
3622.57	0.8531
3631.58	0.8606
3640.59	0.8658
3649.61	0.8665
3658.62	0.8671
3667.63	0.8677
3676.65	0.8677
3685.66	0.8679
3694.68	0.8682
3703.69	0.8689
3712.7	0.8686
3721.72	0.8675
3730.73	0.8672
3739.75	0.8656
3748.76	0.865
3757.77	0.8675
3766.79	0.868
3775.8	0.8598
3784.81	0.8594
3793.83	0.8589
3802.84	0.854
3811.86	0.8503
3820.87	0.8499
3829.88	0.8487
3838.9	0.8474
3847.91	0.8471
3856.93	0.847
3865.94	0.8469
3874.95	0.8469
3883.97	0.8464
3892.98	0.8455
3902	0.8447
