Infrared Spectrum: 2-Isopropylaniline
Formula: C 9 H 13 N
CAS: 40085-42-5
State: gas
Origin: EPA-IR VAPOR PHASE LIBRARY
1/CM	ABSORBANCE
549.9	0.007564
559.547	0.008044
569.193	0.008554
578.84	0.008714
588.486	0.008984
598.133	0.009254
607.779	0.009684
617.426	0.010284
627.072	0.010944
636.719	0.011444
646.365	0.011704
656.012	0.011894
665.658	0.011554
675.305	0.011064
684.951	0.010284
694.598	0.009684
704.245	0.009504
713.891	0.010774
723.538	0.018874
733.184	0.036504
742.831	0.059104
752.477	0.035464
762.124	0.017394
771.77	0.010134
781.417	0.008504
791.063	0.007654
800.71	0.007324
810.356	0.007204
820.003	0.006754
829.649	0.005534
839.296	0.004714
848.943	0.005134
858.589	0.004914
868.236	0.004304
877.882	0.004254
887.529	0.004094
897.175	0.003634
906.822	0.003234
916.468	0.003634
926.115	0.004474
935.761	0.003974
945.408	0.003504
955.054	0.003104
964.701	0.002974
974.347	0.002854
983.994	0.002844
993.64	0.002834
1003.29	0.002834
1012.93	0.003264
1022.58	0.005894
1032.23	0.009124
1041.87	0.009104
1051.52	0.006094
1061.17	0.005774
1070.81	0.006384
1080.46	0.006734
1090.11	0.006714
1099.75	0.006634
1109.4	0.006524
1119.05	0.006104
1128.69	0.005264
1138.34	0.004544
1147.99	0.005824
1157.63	0.006724
1167.28	0.005444
1176.92	0.002904
1186.57	0.002464
1196.22	0.002604
1205.86	0.002824
1215.51	0.003204
1225.16	0.003994
1234.8	0.006684
1244.45	0.012474
1254.1	0.015914
1263.74	0.014364
1273.39	0.014574
1283.04	0.021724
1292.68	0.022054
1302.33	0.013034
1311.98	0.007204
1321.62	0.004614
1331.27	0.003284
1340.92	0.003614
1350.56	0.005454
1360.21	0.007144
1369.86	0.008444
1379.5	0.007024
1389.15	0.006394
1398.79	0.005174
1408.44	0.003904
1418.09	0.004384
1427.73	0.006094
1437.38	0.010524
1447.03	0.018754
1456.67	0.021774
1466.32	0.018304
1475.97	0.016954
1485.61	0.027134
1495.26	0.032594
1504.91	0.023654
1514.55	0.009484
1524.2	0.005294
1533.85	0.004174
1543.49	0.004004
1553.14	0.004534
1562.79	0.006214
1572.43	0.009144
1582.08	0.011454
1591.73	0.012454
1601.37	0.016284
1611.02	0.028704
1620.67	0.041284
1630.31	0.037984
1639.96	0.021554
1649.6	0.010014
1659.25	0.006174
1668.9	0.004704
1678.54	0.003684
1688.19	0.003004
1697.84	0.002654
1707.48	0.002194
1717.13	0.0018478
1726.78	0.0017498
1736.42	0.0016437
1746.07	0.0017435
1755.72	0.002054
1765.36	0.002394
1775.01	0.002294
1784.66	0.0019778
1794.3	0.0018741
1803.95	0.0018539
1813.6	0.0015932
1823.24	0.0013292
1832.89	0.0013779
1842.54	0.0015847
1852.18	0.0017551
1861.83	0.00182
1871.47	0.002194
1881.12	0.002824
1890.77	0.002614
1900.41	0.0019695
1910.06	0.002154
1919.71	0.002174
1929.35	0.0016053
1939	0.00103696
1948.65	0.00099604
1958.29	0.0009302
1967.94	0.0009561
1977.59	0.0009393
1987.23	0.00097973
1996.88	0.000969
2006.53	0.0009127
2016.17	0.000869
2025.82	0.0009304
2035.47	0.000884
2045.11	0.0009618
2054.76	0.0009046
2064.41	0.0009726
2074.05	0.0009581
2083.7	0.0009475
2093.35	0.0009526
2102.99	0.0009264
2112.64	0.0009354
2122.28	0.0009269
2131.93	0.000877
2141.58	0.000845
2151.22	0.000775
2160.87	0.000733
2170.52	0.00082
2180.16	0.00079
2189.81	0.000776
2199.46	0.000769
2209.1	0.000812
2218.75	0.000807
2228.4	0.000757
2238.04	0.000809
2247.69	0.000804
2257.34	0.000822
2266.98	0.000839
2276.63	0.000856
2286.28	0.000865
2295.92	0.000801
2305.57	0.0008874
2315.22	0.00099729
2324.86	0.0009718
2334.51	0.000853
2344.16	0.000764
2353.8	0.000762
2363.45	0.000733
2373.09	0.000801
2382.74	0.000871
2392.39	0.00092
2402.03	0.000861
2411.68	0.0009332
2421.33	0.000855
2430.97	0.0008929
2440.62	0.000929
2450.27	0.0009481
2459.91	0.0009372
2469.56	0.00097861
2479.21	0.00100921
2488.85	0.0009559
2498.5	0.0009199
2508.15	0.0008897
2517.79	0.000849
2527.44	0.00079
2537.09	0.00076
2546.73	0.000838
2556.38	0.0009173
2566.03	0.00103034
2575.67	0.0011197
2585.32	0.0011614
2594.96	0.0012367
2604.61	0.0011952
2614.26	0.0011114
2623.9	0.00101966
2633.55	0.0009618
2643.2	0.00102178
2652.84	0.0010855
2662.49	0.0011257
2672.14	0.0010055
2681.78	0.00105894
2691.43	0.000987659
2701.08	0.0011528
2710.72	0.0012144
2720.37	0.0013781
2730.02	0.0014156
2739.66	0.0015706
2749.31	0.0013499
2758.96	0.0015526
2768.6	0.0014522
2778.25	0.0015292
2787.9	0.0014905
2797.54	0.0017547
2807.19	0.002064
2816.84	0.002424
2826.48	0.002554
2836.13	0.003054
2845.77	0.004084
2855.42	0.005934
2865.07	0.010274
2874.71	0.017464
2884.36	0.021664
2894.01	0.020714
2903.65	0.019384
2913.3	0.019494
2922.95	0.021664
2932.59	0.026834
2942.24	0.030274
2951.89	0.036114
2961.53	0.059204
2971.18	0.069084
2980.83	0.042104
2990.47	0.016524
3000.12	0.009464
3009.77	0.011194
3019.41	0.017034
3029.06	0.019584
3038.71	0.016724
3048.35	0.013554
3058	0.015394
3067.64	0.019174
3077.29	0.018424
3086.94	0.012644
3096.58	0.007134
3106.23	0.004434
3115.88	0.003114
3125.52	0.002054
3135.17	0.0015173
3144.82	0.0013639
3154.46	0.0014656
3164.11	0.0015077
3173.76	0.0013069
3183.4	0.00104896
3193.05	0.00108216
3202.7	0.00104098
3212.34	0.00100475
3221.99	0.00099706
3231.64	0.00100062
3241.28	0.000889
3250.93	0.000578
3260.58	0.000663
3270.22	0.000598
3279.87	0.000353
3289.52	0.000289
3299.16	0.000171
3308.81	0.0001
3318.45	0.000235
3328.1	5.8e-05
3337.75	3.4e-05
3347.39	0.000276
3357.04	0.000311
3366.69	0.000418
3376.33	0.000542
3385.98	0.0013003
3395.63	0.002624
3405.27	0.003864
3414.92	0.003544
3424.57	0.0019145
3434.21	0.0009271
3443.86	0.000834
3453.51	0.00102332
3463.15	0.0016117
3472.8	0.003304
3482.45	0.005504
3492.09	0.006314
3501.74	0.004514
3511.39	0.002414
3521.03	0.0011998
3530.68	0.00081
3540.33	0.000691
3549.97	0.000542
3559.62	0.000661
3569.26	0.000462
3578.91	0.000328
3588.56	0.00027
3598.2	0.000249
3607.85	0.000386
3617.5	0.000504
3627.14	0.000336
3636.79	0.000485
3646.44	0.000364
3656.08	0.000447
3665.73	0.00043
3675.38	0.000255
3685.02	0.000492
3694.67	0.000424
3704.32	0.000381
3713.96	0.000449
3723.61	0.000637
3733.26	0.00047
3742.9	0.000434
3752.55	0.000406
3762.2	0.000586
3771.84	0.000483
3781.49	0.000508
3791.13	0.000558
3800.78	0.000632
3810.43	0.000595
3820.07	0.00055
3829.72	0.000673
3839.37	0.000512
3849.01	0.00075
3858.66	0.000674
3868.31	0.000691
3877.95	0.000782
3887.6	0.000696
3897.25	0.000715
3906.89	0.0009108
3916.54	0.000729
3926.19	0.0008
3935.83	0.00073
3945.48	0.0008877
3955.13	0.000873
3964.77	0.0009184
3974.42	0.000774
3984.07	0.000859
3993.71	0.0008913
