Infrared Spectrum: 8-Hydroxy-5-nitroquinoline
Formula: C 9 H 6 N 2 O 3
CAS: 4008-48-4
State: gas
Origin: EPA-IR VAPOR PHASE LIBRARY
1/CM	ABSORBANCE
501.5	5e-06
513.074	0.0003802
524.648	0.0009074
536.222	0.001352
547.796	0.002252
559.37	0.002552
570.944	0.002542
582.518	0.002502
594.092	0.003022
605.666	0.006112
617.24	0.008602
628.814	0.007532
640.388	0.006752
651.962	0.004582
663.536	0.001552
675.11	0.0007623
686.684	0.0007161
698.258	0.001472
709.832	0.002872
721.406	0.005432
732.98	0.003612
744.554	0.002132
756.128	0.001322
767.702	0.001692
779.276	0.005182
790.85	0.009192
802.423	0.006132
813.997	0.004212
825.571	0.003592
837.145	0.010212
848.719	0.006732
860.293	0.001372
871.867	0.0004602
883.441	0.0003825
895.015	0.0003894
906.589	0.0004837
918.163	0.0004151
929.737	0.0004949
941.311	0.0005242
952.885	0.0005356
964.459	0.0008851
976.033	0.001722
987.607	0.001522
999.181	0.0007988
1010.76	0.0004553
1022.33	0.0002959
1033.9	0.0004165
1045.48	0.0007564
1057.05	0.0008332
1068.63	0.002222
1080.2	0.002782
1091.77	0.001832
1103.35	0.001402
1114.92	0.001272
1126.49	0.001702
1138.07	0.002802
1149.64	0.005462
1161.22	0.005292
1172.79	0.004482
1184.36	0.005722
1195.94	0.006712
1207.51	0.007662
1219.09	0.010262
1230.66	0.010852
1242.23	0.007072
1253.81	0.004802
1265.38	0.011872
1276.96	0.033572
1288.53	0.034602
1300.1	0.015632
1311.68	0.010912
1323.25	0.014782
1334.83	0.028612
1346.4	0.042842
1357.97	0.021572
1369.55	0.011742
1381.12	0.009322
1392.7	0.006972
1404.27	0.007582
1415.84	0.007532
1427.42	0.008762
1438.99	0.005962
1450.57	0.005112
1462.14	0.011672
1473.71	0.012302
1485.29	0.010042
1496.86	0.033192
1508.44	0.042922
1520.01	0.021652
1531.58	0.031362
1543.16	0.022332
1554.73	0.012002
1566.31	0.014602
1577.88	0.015232
1589.45	0.008062
1601.03	0.004332
1612.6	0.002512
1624.18	0.003292
1635.75	0.005092
1647.32	0.002932
1658.9	0.0010587
1670.47	0.0008441
1682.05	0.0010904
1693.62	0.0008017
1705.19	0.0004516
1716.77	0.0003775
1728.34	0.0003968
1739.92	0.0004556
1751.49	0.0004345
1763.06	0.0005616
1774.64	0.0005582
1786.21	0.0004051
1797.79	0.0003298
1809.36	0.0002659
1820.93	0.0002904
1832.51	0.0003046
1844.08	0.000308
1855.66	0.0003374
1867.23	0.0004481
1878.8	0.0006846
1890.38	0.001112
1901.95	0.0009605
1913.53	0.0005625
1925.1	0.0005413
1936.67	0.000554
1948.25	0.0004174
1959.82	0.0005404
1971.4	0.0005585
1982.97	0.0003883
1994.54	0.0003743
2006.12	0.0003337
2017.69	0.0002628
2029.27	0.000234
2040.84	0.0002137
2052.41	0.0002503
2063.99	0.0003268
2075.56	0.0002969
2087.14	0.0002728
2098.71	0.0002495
2110.28	0.0003041
2121.86	0.0002549
2133.43	0.000275
2145.01	0.00019866
2156.58	0.0002327
2168.15	0.0002877
2179.73	0.0002727
2191.3	0.0003046
2202.88	0.0002558
2214.45	0.0003393
2226.02	0.0003357
2237.6	0.0002863
2249.17	0.0003202
2260.74	0.0003923
2272.32	0.0004074
2283.89	0.0004652
2295.47	0.0004462
2307.04	0.0004031
2318.61	0.0004542
2330.19	0.0004167
2341.76	0.0004205
2353.34	0.0004179
2364.91	0.0004356
2376.48	0.0004176
2388.06	0.000392
2399.63	0.0003603
2411.21	0.0004032
2422.78	0.000326
2434.35	0.0003393
2445.93	0.0003137
2457.5	0.0003583
2469.08	0.0004329
2480.65	0.0004436
2492.22	0.0003881
2503.8	0.0004102
2515.37	0.0004491
2526.95	0.0005605
2538.52	0.0006647
2550.09	0.0006584
2561.67	0.0006396
2573.24	0.000639
2584.82	0.0005702
2596.39	0.0004894
2607.96	0.0005295
2619.54	0.0005237
2631.11	0.0005894
2642.69	0.0005563
2654.26	0.0004654
2665.83	0.0004028
2677.41	0.0003516
2688.98	0.0003513
2700.56	0.0003754
2712.13	0.0004156
2723.7	0.0003713
2735.28	0.0004199
2746.85	0.0004129
2758.43	0.0004062
2770	0.0003958
2781.57	0.0004832
2793.15	0.0006059
2804.72	0.0006277
2816.3	0.0005606
2827.87	0.0007032
2839.44	0.0008611
2851.02	0.0009072
2862.59	0.0008883
2874.17	0.0008327
2885.74	0.0006928
2897.31	0.0006875
2908.89	0.000673
2920.46	0.0006743
2932.04	0.0005982
2943.61	0.0005305
2955.18	0.000475
2966.76	0.0005078
2978.33	0.0005008
2989.91	0.0006529
3001.48	0.0007388
3013.05	0.0009343
3024.63	0.001322
3036.2	0.001622
3047.78	0.002092
3059.35	0.002362
3070.92	0.002762
3082.5	0.002832
3094.07	0.001722
3105.65	0.001422
3117.22	0.001182
3128.79	0.0008402
3140.37	0.0007252
3151.94	0.0005416
3163.52	0.0005646
3175.09	0.000523
3186.66	0.0004332
3198.24	0.0003468
3209.81	0.000315
3221.39	0.0002934
3232.96	0.0003523
3244.53	0.0002938
3256.11	0.0003302
3267.68	0.0003547
3279.26	0.0003681
3290.83	0.0003773
3302.4	0.0004033
3313.98	0.0003726
3325.55	0.0005575
3337.13	0.0008672
3348.7	0.0010686
3360.27	0.001442
3371.85	0.002432
3383.42	0.005472
3395	0.010572
3406.57	0.011072
3418.14	0.007512
3429.72	0.004992
3441.29	0.003402
3452.86	0.002342
3464.44	0.001622
3476.01	0.0010782
3487.59	0.0007218
3499.16	0.0005883
3510.73	0.0004043
3522.31	0.0004165
3533.88	0.0002743
3545.46	0.000256
3557.03	0.0002862
3568.6	0.0003432
3580.18	0.0003543
3591.75	0.00020051
3603.33	0.0002588
3614.9	0.0003466
3626.47	0.0003694
3638.05	0.0003727
3649.62	0.0004608
3661.2	0.0005299
3672.77	0.0007245
3684.34	0.0005483
3695.92	0.0006166
3707.49	0.0004397
3719.07	0.0003063
3730.64	0.0003918
3742.21	0.00017921
3753.79	0.0002207
3765.36	0.000316
3776.94	0.0002563
3788.51	0.0003423
3800.08	0.0003394
3811.66	0.0003184
3823.23	0.0003381
3834.81	0.0003168
3846.38	0.0003768
3857.95	0.0003061
3869.53	0.0002573
3881.1	0.000318
3892.68	0.0003514
3904.25	0.0003707
3915.82	0.00020342
3927.4	0.0002657
3938.97	0.0002302
3950.55	0.0003375
3962.12	0.0004036
3973.69	0.0003713
3985.27	0.0002947
3996.84	0.0003077
