Infrared Spectrum: 2,2'-THIOBIS[4-FLUOROPHENOL]
Formula: C12 H8 F2 O2 S
CAS: 401-14-9
State: SOLID (OIL MULL)
Class: COBLENTZ III
Instrument: BAIRD NaCl PRISM
Sampling: TRANSMISSION
Resolution: 4
Origin: WYANDOTTE CHEMICALS CORP.
MICROMETERS	TRANSMITTANCE
2.007	0.251
2.04612	0.258
2.08524	0.27
2.12436	0.284
2.16349	0.297
2.20261	0.312
2.24173	0.318
2.28085	0.322
2.31997	0.332
2.35909	0.357
2.39821	0.377
2.43733	0.388
2.47646	0.41
2.51558	0.41
2.5547	0.42
2.59382	0.447
2.63294	0.45
2.67206	0.468
2.71118	0.482
2.75031	0.508
2.78943	0.515
2.82855	0.49
2.86767	0.441
2.90679	0.339
2.94591	0.22
2.98503	0.098
3.02415	0.068
3.06328	0.18
3.1024	0.289
3.14152	0.354
3.18064	0.388
3.21976	0.409
3.25888	0.382
3.298	0.368
3.33713	0.263
3.37625	0.04
3.41537	0.02
3.45449	0.029
3.49361	0.036
3.53273	0.126
3.57185	0.509
3.61098	0.601
3.6501	0.631
3.68922	0.631
3.72834	0.632
3.76746	0.633
3.80658	0.655
3.8457	0.682
3.88482	0.698
3.92395	0.714
3.96307	0.702
4.00219	0.72
4.04131	0.718
4.08043	0.725
4.11955	0.725
4.15867	0.716
4.1978	0.74
4.23692	0.751
4.27604	0.738
4.31516	0.757
4.35428	0.784
4.3934	0.833
4.43252	0.849
4.47164	0.849
4.51077	0.86
4.54989	0.862
4.58901	0.873
4.62813	0.899
4.66725	0.901
4.70637	0.899
4.74549	0.909
4.78462	0.919
4.82374	0.92
4.86286	0.933
4.90198	0.938
4.9411	0.912
4.98022	0.92
5.01934	0.944
5.05846	0.953
5.09759	0.965
5.13671	0.969
5.17583	0.966
5.21495	0.964
5.25407	0.998
5.29319	1.002
5.33231	0.99
5.37144	0.878
5.41056	0.933
5.44968	1
5.4888	1.003
5.52792	1.003
5.56704	1.002
5.60616	1.006
5.64528	1.004
5.68441	1.004
5.72353	0.949
5.76265	0.909
5.80177	0.942
5.84089	0.987
5.88001	0.981
5.91913	0.917
5.95826	0.927
5.99738	0.926
6.0365	0.917
6.07562	0.857
6.11474	0.955
6.15386	0.871
6.19298	0.655
6.23211	0.636
6.27123	0.762
6.31035	0.909
6.34947	0.943
6.38859	0.97
6.42771	0.93
6.46683	0.883
6.50595	0.74
6.54508	0.613
6.5842	0.365
6.62332	0.018
6.66244	0.028
6.70156	0.019
6.74068	0.024
6.7798	0.06
6.81893	0.06
6.85805	0.137
6.89717	0.3
6.93629	0.419
6.97541	0.48
7.01453	0.267
7.05365	0.088
7.09277	0.04
7.1319	0.262
7.17102	0.551
7.21014	0.45
7.24926	0.301
7.28838	0.522
7.3275	0.601
7.36662	0.65
7.40575	0.486
7.44487	0.262
7.48399	0.071
7.52311	0.109
7.56223	0.384
7.60135	0.622
7.64047	0.716
7.67959	0.784
7.71872	0.811
7.75784	0.752
7.79696	0.318
7.83608	0.06
7.8752	0.21
7.91432	0.17
7.95344	0.089
7.99257	0.127
8.03169	0.079
8.07081	0.36
8.10993	0.357
8.14905	0.169
8.18817	0.158
8.22729	0.167
8.26641	0.063
8.30554	0.026
8.34466	0.02
8.38378	0.023
8.4229	0.029
8.46202	0.04
8.50114	0.025
8.54026	0.029
8.57939	0.071
8.61851	0.069
8.65763	0.137
8.69675	0.21
8.73587	0.311
8.77499	0.389
8.81411	0.432
8.85324	0.349
8.89236	0.2
8.93148	0.098
8.9706	0.329
9.00972	0.424
9.04884	0.474
9.08796	0.506
9.12708	0.54
9.16621	0.571
9.20533	0.598
9.24445	0.623
9.28357	0.654
9.32269	0.683
9.36181	0.696
9.40093	0.718
9.44006	0.725
9.47918	0.712
9.5183	0.648
9.55742	0.6
9.59654	0.625
9.63566	0.72
9.67478	0.738
9.7139	0.756
9.75303	0.759
9.79215	0.768
9.83127	0.772
9.87039	0.778
9.90951	0.783
9.94863	0.789
9.98775	0.797
10.0269	0.814
10.066	0.818
10.1051	0.833
10.1442	0.839
10.1834	0.848
10.2225	0.849
10.2616	0.846
10.3007	0.841
10.3398	0.839
10.379	0.848
10.4181	0.861
10.4572	0.877
10.4963	0.9
10.5355	0.903
10.5746	0.905
10.6137	0.895
10.6528	0.865
10.6919	0.85
10.7311	0.876
10.7702	0.9
10.8093	0.908
10.8484	0.904
10.8875	0.906
10.9267	0.901
10.9658	0.822
11.0049	0.539
11.044	0.328
11.0832	0.305
11.1223	0.338
11.1614	0.54
11.2005	0.654
11.2396	0.735
11.2788	0.742
11.3179	0.754
11.357	0.753
11.3961	0.627
11.4352	0.503
11.4744	0.212
11.5135	0.057
11.5526	0.051
11.5917	0.296
11.6309	0.464
11.67	0.591
11.7091	0.803
11.7482	0.882
11.7873	0.925
11.8265	0.937
11.8656	0.952
11.9047	0.958
11.9438	0.962
11.9829	0.954
12.0221	0.926
12.0612	0.884
12.1003	0.8
12.1394	0.607
12.1785	0.23
12.2177	0.044
12.2568	0.037
12.2959	0.102
12.335	0.382
12.3742	0.664
12.4133	0.834
12.4524	0.897
12.4915	0.92
12.5306	0.928
12.5698	0.938
12.6089	0.944
12.648	0.935
12.6871	0.901
12.7262	0.839
12.7654	0.741
12.8045	0.621
12.8436	0.403
12.8827	0.149
12.9219	0.039
12.961	0.026
13.0001	0.028
13.0392	0.041
13.0783	0.134
13.1175	0.258
13.1566	0.388
13.1957	0.498
13.2348	0.59
13.2739	0.655
13.3131	0.742
13.3522	0.792
13.3913	0.821
13.4304	0.84
13.4696	0.851
13.5087	0.852
13.5478	0.856
13.5869	0.861
13.626	0.861
13.6652	0.86
13.7043	0.857
13.7434	0.845
13.7825	0.83
13.8216	0.821
13.8608	0.757
13.8999	0.623
13.939	0.464
13.9781	0.533
14.0173	0.681
14.0564	0.783
14.0955	0.827
14.1346	0.838
14.1737	0.822
14.2129	0.812
14.252	0.844
14.2911	0.882
14.3302	0.904
14.3693	0.906
14.4085	0.909
14.4476	0.909
14.4867	0.903
14.5258	0.897
14.565	0.872
14.6041	0.821
14.6432	0.757
14.6823	0.682
14.7214	0.575
14.7606	0.531
14.7997	0.564
14.8388	0.655
14.8779	0.714
14.917	0.736
14.9562	0.745
14.9953	0.737
15.0344	0.703
15.0735	0.686
15.1127	0.688
15.1518	0.696
15.1909	0.691
15.23	0.677
15.2691	0.664
15.3083	0.643
15.3474	0.632
15.3865	0.618
15.4256	0.6
15.4647	0.583
15.5039	0.578
15.543	0.577
15.5821	0.583
15.6212	0.578
15.6603	0.574
15.6995	0.571
15.7386	0.571
15.7777	0.569
15.8168	0.564
15.856	0.566
15.8951	0.567
15.9342	0.56
15.9733	0.557
