Infrared Spectrum: 3,5-Bis(trifluoromethyl)benzaldehyde
Formula: C 9 H 4 F 6 O
CAS: 401-95-6
State: gas
Origin: EPA-IR VAPOR PHASE LIBRARY
1/CM	ABSORBANCE
549.8	0.0013968
559.445	0.0007169
569.09	0.001648
578.734	0.002548
588.379	0.006128
598.024	0.011108
607.669	0.006798
617.313	0.003088
626.958	0.002528
636.603	0.002098
646.248	0.004468
655.893	0.009358
665.537	0.025128
675.182	0.083038
684.827	0.135568
694.472	0.063048
704.116	0.049518
713.761	0.015028
723.406	0.004458
733.051	0.003108
742.695	0.005418
752.34	0.002768
761.985	0.001878
771.63	0.001758
781.275	0.002068
790.919	0.002708
800.564	0.002258
810.209	0.003098
819.854	0.003128
829.498	0.005508
839.143	0.024598
848.788	0.035678
858.433	0.014058
868.078	0.003578
877.722	0.005308
887.367	0.021748
897.012	0.056878
906.657	0.028298
916.301	0.017978
925.946	0.015978
935.591	0.004658
945.236	0.002388
954.88	0.002478
964.525	0.002508
974.17	0.002278
983.815	0.002918
993.46	0.007398
1003.1	0.009308
1012.75	0.005168
1022.39	0.003908
1032.04	0.004078
1041.68	0.005208
1051.33	0.005338
1060.97	0.004408
1070.62	0.005578
1080.26	0.006708
1089.91	0.010398
1099.55	0.023318
1109.2	0.052308
1118.84	0.037578
1128.49	0.043268
1138.13	0.104158
1147.78	0.363748
1157.42	0.843378
1167.07	0.671668
1176.71	0.648788
1186.36	0.669538
1196	0.325298
1205.64	0.094498
1215.29	0.056638
1224.93	0.044888
1234.58	0.040828
1244.22	0.041998
1253.87	0.059828
1263.51	0.160408
1273.16	0.525208
1282.8	0.886448
1292.45	0.198928
1302.09	0.046008
1311.74	0.022078
1321.38	0.014978
1331.03	0.013928
1340.67	0.019068
1350.32	0.042258
1359.96	0.126208
1369.61	0.121398
1379.25	0.024948
1388.9	0.013618
1398.54	0.013878
1408.18	0.008668
1417.83	0.006938
1427.47	0.007238
1437.12	0.006868
1446.76	0.007958
1456.41	0.011158
1466.05	0.010568
1475.7	0.005298
1485.34	0.003858
1494.99	0.003838
1504.63	0.003668
1514.28	0.003448
1523.92	0.002998
1533.57	0.002758
1543.21	0.002838
1552.86	0.003738
1562.5	0.003978
1572.15	0.003988
1581.79	0.005818
1591.44	0.010108
1601.08	0.017158
1610.73	0.034378
1620.37	0.039548
1630.01	0.016548
1639.66	0.010348
1649.3	0.009908
1658.95	0.008908
1668.59	0.006188
1678.24	0.005228
1687.88	0.008338
1697.53	0.009188
1707.17	0.017488
1716.82	0.081808
1726.46	0.303968
1736.11	0.112678
1745.75	0.016128
1755.4	0.008738
1765.04	0.006448
1774.69	0.004888
1784.33	0.004758
1793.98	0.005568
1803.62	0.006118
1813.27	0.005278
1822.91	0.007498
1832.55	0.010468
1842.2	0.010168
1851.84	0.007458
1861.49	0.005998
1871.13	0.003488
1880.78	0.002068
1890.42	0.002018
1900.07	0.002188
1909.71	0.002098
1919.36	0.002278
1929	0.002588
1938.65	0.002068
1948.29	0.001588
1957.94	0.0012198
1967.58	0.0011265
1977.23	0.0012247
1986.87	0.0013825
1996.52	0.001818
2006.16	0.001738
2015.81	0.001868
2025.45	0.002088
2035.1	0.001458
2044.74	0.0009672
2054.38	0.0009625
2064.03	0.0010978
2073.67	0.001294
2083.32	0.001558
2092.96	0.001678
2102.61	0.001548
2112.25	0.0013296
2121.9	0.0010821
2131.54	0.0010121
2141.19	0.0009018
2150.83	0.0006734
2160.48	0.0009367
2170.12	0.0007469
2179.77	0.0008702
2189.41	0.0012508
2199.06	0.001718
2208.7	0.002008
2218.35	0.001578
2227.99	0.001578
2237.64	0.001588
2247.28	0.002048
2256.92	0.002258
2266.57	0.002588
2276.21	0.003218
2285.86	0.003748
2295.5	0.003698
2305.15	0.003478
2314.79	0.002868
2324.44	0.002738
2334.08	0.002688
2343.73	0.002628
2353.37	0.003008
2363.02	0.002758
2372.66	0.002658
2382.31	0.002348
2391.95	0.001748
2401.6	0.0011542
2411.24	0.0011996
2420.89	0.0012991
2430.53	0.0013871
2440.18	0.001568
2449.82	0.0012785
2459.47	0.001302
2469.11	0.0011203
2478.75	0.0008578
2488.4	0.0006319
2498.04	0.0007112
2507.69	0.0008291
2517.33	0.000872
2526.98	0.0011079
2536.62	0.0012818
2546.27	0.001558
2555.91	0.001538
2565.56	0.001438
2575.2	0.001101
2584.85	0.0011421
2594.49	0.0012163
2604.14	0.001538
2613.78	0.001658
2623.43	0.002038
2633.07	0.002438
2642.72	0.002508
2652.36	0.002048
2662.01	0.001918
2671.65	0.002028
2681.29	0.002438
2690.94	0.003318
2700.58	0.006428
2710.23	0.016028
2719.87	0.023518
2729.52	0.016158
2739.16	0.012638
2748.81	0.008758
2758.45	0.008258
2768.1	0.009658
2777.74	0.009088
2787.39	0.008478
2797.03	0.012808
2806.68	0.037978
2816.32	0.056898
2825.97	0.027418
2835.61	0.013858
2845.26	0.010858
2854.9	0.010028
2864.55	0.006288
2874.19	0.003458
2883.84	0.002518
2893.48	0.002108
2903.12	0.001888
2912.77	0.001808
2922.41	0.002438
2932.06	0.001998
2941.7	0.001858
2951.35	0.001728
2960.99	0.001488
2970.64	0.001588
2980.28	0.001598
2989.93	0.001508
2999.57	0.0014051
3009.22	0.0013585
3018.86	0.0011449
3028.51	0.0011111
3038.15	0.0012511
3047.8	0.001688
3057.44	0.001648
3067.09	0.002238
3076.73	0.003308
3086.38	0.004798
3096.02	0.003798
3105.67	0.002228
3115.31	0.001177
3124.95	0.0006537
3134.6	0.0006313
3144.24	0.0006161
3153.89	0.0003246
3163.53	0.0008734
3173.18	0.0006439
3182.82	0.0007295
3192.47	0.0006257
3202.11	0.0003947
3211.76	0.0007201
3221.4	0.0007167
3231.05	0.000437
3240.69	0.00049516
3250.34	0.000558
3259.98	0.0006496
3269.63	0.000255
3279.27	0.0005984
3288.92	0.0007028
3298.56	0.000424776
3308.21	0.0006479
3317.85	0.0005206
3327.49	0.0006673
3337.14	0.00049735
3346.78	0.000856
3356.43	0.000428
3366.07	0.0006412
3375.72	0.0008118
3385.36	0.0006338
3395.01	0.0007805
3404.65	0.0010421
3414.3	0.0013564
3423.94	0.002408
3433.59	0.006418
3443.23	0.005048
3452.88	0.001304
3462.52	0.0008034
3472.17	0.0008188
3481.81	0.0006197
3491.46	0.0008054
3501.1	0.000251
3510.75	0.000666
3520.39	0.0006195
3530.04	0.00041609
3539.68	0.0005197
3549.32	0.0006767
3558.97	0.00043053
3568.61	0.0003666
3578.26	0.00051738
3587.9	0.000381
3597.55	0.0003506
3607.19	0.0003331
3616.84	0.000421039
3626.48	0.0005536
3636.13	0.0003781
3645.77	0.00048365
3655.42	0.0005922
3665.06	0.0005346
3674.71	0.00050046
3684.35	0.0007395
3694	0.00051045
3703.64	0.00044377
3713.29	3.5e-05
3722.93	0.0005847
3732.58	0.00050412
3742.22	0.0006814
3751.86	0.00043396
3761.51	0.0004051
3771.15	0.0006904
3780.8	0.00029
3790.44	0.00048804
3800.09	0.00049525
3809.73	0.0003896
3819.38	0.000379
3829.02	0.000322
3838.67	0.00043921
3848.31	0.0005982
3857.96	0.0007077
3867.6	0.00045448
3877.25	0.00043163
3886.89	0.0005702
3896.54	0.0005698
3906.18	0.0005565
3915.83	0.0005226
3925.47	0.00041259
3935.12	0.000315
3944.76	0.0003834
3954.41	0.00047791
3964.05	0.0003361
3973.69	0.0008025
3983.34	0.00049337
3992.98	0.0006749
