Infrared Spectrum: 3-Fluorobenzotrifluoride
Formula: C 7 H 4 F 4
CAS: 401-80-9
State: gas
Origin: EPA-IR VAPOR PHASE LIBRARY
1/CM	ABSORBANCE
549.9	0.0038603
559.547	0.0035188
569.193	0.0032
578.84	0.003239
588.486	0.0035338
598.133	0.002886
607.779	0.002905
617.426	0.00346581
627.072	0.004255
636.719	0.00532
646.365	0.01346
656.012	0.02312
665.658	0.0126
675.305	0.00923
684.951	0.0235
694.598	0.04622
704.245	0.02896
713.891	0.01392
723.538	0.00485
733.184	0.00788
742.831	0.03159
752.477	0.03469
762.124	0.00853
771.77	0.01766
781.417	0.0379
791.063	0.06223
800.71	0.03309
810.356	0.01195
820.003	0.0043612
829.649	0.0033397
839.296	0.003352
848.943	0.0040659
858.589	0.00804
868.236	0.02392
877.882	0.06288
887.529	0.13134
897.175	0.12954
906.822	0.04706
916.468	0.0157
926.115	0.00611
935.761	0.0040793
945.408	0.0035853
955.054	0.0040267
964.701	0.00503
974.347	0.00542
983.994	0.00442
993.64	0.0043977
1003.29	0.00628
1012.93	0.00714
1022.58	0.00621
1032.23	0.00744
1041.87	0.01764
1051.52	0.05709
1061.17	0.07239
1070.81	0.03486
1080.46	0.04638
1090.11	0.04346
1099.75	0.01932
1109.4	0.0181
1119.05	0.03212
1128.69	0.0749
1138.34	0.18649
1147.99	0.39904
1157.63	0.40204
1167.28	0.31425
1176.92	0.36994
1186.57	0.22611
1196.22	0.10528
1205.86	0.08358
1215.51	0.07365
1225.16	0.04909
1234.8	0.02849
1244.45	0.02312
1254.1	0.02479
1263.74	0.04184
1273.39	0.06907
1283.04	0.06772
1292.68	0.04222
1302.33	0.04792
1311.98	0.1071
1321.62	0.38036
1331.27	0.55583
1340.92	0.23157
1350.56	0.03254
1360.21	0.01689
1369.86	0.0109
1379.5	0.0093
1389.15	0.00929
1398.79	0.01084
1408.44	0.01477
1418.09	0.02361
1427.73	0.02933
1437.38	0.04368
1447.03	0.10419
1456.67	0.13656
1466.32	0.07383
1475.97	0.02968
1485.61	0.03925
1495.26	0.04035
1504.91	0.02604
1514.55	0.01246
1524.2	0.00915
1533.85	0.00739
1543.49	0.00543
1553.14	0.0052
1562.79	0.00816
1572.43	0.01543
1582.08	0.02727
1591.73	0.04025
1601.37	0.04506
1611.02	0.0395
1620.67	0.02463
1630.31	0.01457
1639.96	0.0093
1649.6	0.00702
1659.25	0.00547
1668.9	0.00508
1678.54	0.00551
1688.19	0.00642
1697.84	0.00521
1707.48	0.003128
1717.13	0.002862
1726.78	0.002939
1736.42	0.0036449
1746.07	0.0052
1755.72	0.0074
1765.36	0.00735
1775.01	0.00528
1784.66	0.0040708
1794.3	0.0042379
1803.95	0.004162
1813.6	0.00344282
1823.24	0.002822
1832.89	0.002725
1842.54	0.002764
1852.18	0.003211
1861.83	0.00481
1871.47	0.00542
1881.12	0.0038632
1890.77	0.003058
1900.41	0.003174
1910.06	0.003194
1919.71	0.0036919
1929.35	0.0043682
1939	0.00475
1948.65	0.0041258
1958.29	0.00293
1967.94	0.002595
1977.59	0.002482
1987.23	0.00228
1996.88	0.00217
2006.53	0.00219
2016.17	0.00225
2025.82	0.002426
2035.47	0.002616
2045.11	0.002769
2054.76	0.002857
2064.41	0.003201
2074.05	0.0037182
2083.7	0.0036208
2093.35	0.0035626
2102.99	0.0040397
2112.64	0.0038552
2122.28	0.002926
2131.93	0.00232
2141.58	0.00219
2151.22	0.00212
2160.87	0.00216
2170.52	0.00221
2180.16	0.0023
2189.81	0.0024
2199.46	0.002665
2209.1	0.002938
2218.75	0.002988
2228.4	0.003046
2238.04	0.002992
2247.69	0.002922
2257.34	0.002849
2266.98	0.002883
2276.63	0.002988
2286.28	0.003138
2295.92	0.003077
2305.57	0.003005
2315.22	0.003228
2324.86	0.0033735
2334.51	0.0035137
2344.16	0.00339964
2353.8	0.00343772
2363.45	0.0033631
2373.09	0.003275
2382.74	0.003147
2392.39	0.002971
2402.03	0.002694
2411.68	0.002533
2421.33	0.002601
2430.97	0.002559
2440.62	0.00224
2450.27	0.00217
2459.91	0.00228
2469.56	0.002664
2479.21	0.003241
2488.85	0.0035885
2498.5	0.0033831
2508.15	0.002883
2517.79	0.002466
2527.44	0.00225
2537.09	0.00233
2546.73	0.00217
2556.38	0.00208
2566.03	0.00196
2575.67	0.00206
2585.32	0.00206
2594.96	0.00208
2604.61	0.00217
2614.26	0.00224
2623.9	0.00212
2633.55	0.00194
2643.2	0.00213
2652.84	0.00239
2662.49	0.0022
2672.14	0.00183
2681.78	0.00143
2691.43	0.0014
2701.08	0.0014
2710.72	0.00138
2720.37	0.00136
2730.02	0.00132
2739.66	0.00134
2749.31	0.00133
2758.96	0.00127
2768.6	0.00133
2778.25	0.00145
2787.9	0.00142
2797.54	0.00116
2807.19	0.00112
2816.84	0.00106
2826.48	0.00101
2836.13	0.00086
2845.77	0.00083
2855.42	0.00091
2865.07	0.00079
2874.71	0.00088
2884.36	0.00077
2894.01	0.00073
2903.65	0.00062
2913.3	0.00062
2922.95	0.00083
2932.59	0.00106
2942.24	0.0013
2951.89	0.00104
2961.53	0.00087
2971.18	0.00094
2980.83	0.00111
2990.47	0.00076
3000.12	0.00049
3009.77	0.00056
3019.41	0.0007
3029.06	0.00079
3038.71	0.00148
3048.35	0.002411
3058	0.0035752
3067.64	0.00471
3077.29	0.00707
3086.94	0.00868
3096.58	0.00663
3106.23	0.003149
3115.88	0.00148
3125.52	0.00077
3135.17	0.0006
3144.82	0.00033
3154.46	0.00029
3164.11	8e-05
3173.76	0.00011
3183.4	0.0001
3193.05	0.00035
3202.7	0.00018
3212.34	0.00027
3221.99	0.0004
3231.64	0.00026
3241.28	0.00023
3250.93	0.00031
3260.58	0.00052
3270.22	0.00039
3279.87	0.00048
3289.52	0.00031
3299.16	0.0005
3308.81	0.0005
3318.45	0.00052
3328.1	0.00051
3337.75	0.00064
3347.39	0.00071
3357.04	0.00068
3366.69	0.00069
3376.33	0.00049
3385.98	0.00084
3395.63	0.00081
3405.27	0.00088
3414.92	0.00093
3424.57	0.00088
3434.21	0.00105
3443.86	0.00109
3453.51	0.00101
3463.15	0.00113
3472.8	0.00111
3482.45	0.00105
3492.09	0.00128
3501.74	0.00119
3511.39	0.00123
3521.03	0.00135
3530.68	0.00141
3540.33	0.00156
3549.97	0.00141
3559.62	0.00137
3569.26	0.00136
3578.91	0.00142
3588.56	0.0015
3598.2	0.00166
3607.85	0.00162
3617.5	0.0017
3627.14	0.00166
3636.79	0.00169
3646.44	0.00165
3656.08	0.00158
3665.73	0.00168
3675.38	0.00184
3685.02	0.00187
3694.67	0.00177
3704.32	0.00188
3713.96	0.00194
3723.61	0.00175
3733.26	0.0019
3742.9	0.00191
3752.55	0.00198
3762.2	0.00186
3771.84	0.00187
3781.49	0.00185
3791.13	0.00194
3800.78	0.00197
3810.43	0.00202
3820.07	0.00204
3829.72	0.00193
3839.37	0.00205
3849.01	0.00194
3858.66	0.00164
3868.31	0.00202
3877.95	0.0017
3887.6	0.00185
3897.25	0.00198
3906.89	0.0019
3916.54	0.00188
3926.19	0.00186
3935.83	0.00185
3945.48	0.00193
3955.13	0.002
3964.77	0.00173
3974.42	0.00192
3984.07	0.00189
3993.71	0.00195
