Infrared Spectrum: o-Benzoyloxyacetophenone
Formula: C 15 H 12 O 3
CAS: 4010-33-7
State: gas
Origin: EPA-IR VAPOR PHASE LIBRARY
1/CM	ABSORBANCE
549.8	0.001877
559.445	0.002707
569.09	0.005127
578.734	0.009497
588.379	0.016537
598.024	0.024457
607.669	0.012237
617.313	0.005707
626.958	0.003047
636.603	0.002897
646.248	0.003957
655.893	0.005277
665.537	0.009877
675.182	0.027207
684.827	0.023977
694.472	0.047917
704.116	0.092287
713.761	0.044917
723.406	0.017057
733.051	0.014987
742.695	0.034947
752.34	0.067887
761.985	0.025857
771.63	0.008677
781.275	0.006567
790.919	0.006957
800.564	0.005917
810.209	0.006337
819.854	0.008887
829.498	0.011617
839.143	0.013087
848.788	0.006917
858.433	0.004387
868.078	0.005607
877.722	0.007437
887.367	0.005547
897.012	0.004387
906.657	0.004117
916.301	0.004117
925.946	0.005817
935.591	0.010267
945.236	0.015517
954.88	0.020357
964.525	0.017277
974.17	0.011417
983.815	0.010277
993.46	0.012827
1003.1	0.020237
1012.75	0.042567
1022.39	0.122877
1032.04	0.053117
1041.68	0.060477
1051.33	0.160897
1060.97	0.160547
1070.62	0.116667
1080.26	0.067427
1089.91	0.030257
1099.55	0.024377
1109.2	0.035347
1118.84	0.061107
1128.49	0.035907
1138.13	0.017387
1147.78	0.017237
1157.42	0.032227
1167.07	0.040627
1176.71	0.133117
1186.36	0.171407
1196	0.280827
1205.64	0.241257
1215.29	0.109167
1224.93	0.105477
1234.58	0.161267
1244.22	0.198207
1253.87	0.303147
1263.51	0.249567
1273.16	0.124947
1282.8	0.103947
1292.45	0.061957
1302.09	0.034397
1311.74	0.028097
1321.38	0.019457
1331.03	0.015657
1340.67	0.018187
1350.32	0.029317
1359.96	0.045767
1369.61	0.028047
1379.25	0.015097
1388.9	0.011427
1398.54	0.010107
1408.18	0.010987
1417.83	0.013237
1427.47	0.018147
1437.12	0.033017
1446.76	0.071277
1456.41	0.036757
1466.05	0.020587
1475.7	0.040027
1485.34	0.042997
1494.99	0.021007
1504.63	0.012757
1514.28	0.009317
1523.92	0.007777
1533.57	0.007387
1543.21	0.007877
1552.86	0.008747
1562.5	0.010777
1572.15	0.017487
1581.79	0.021327
1591.44	0.026317
1601.08	0.043647
1610.73	0.027037
1620.37	0.012227
1630.01	0.009647
1639.66	0.008767
1649.3	0.008367
1658.95	0.010857
1668.59	0.015787
1678.24	0.023167
1687.88	0.038067
1697.53	0.077527
1707.17	0.133667
1716.82	0.099127
1726.46	0.052197
1736.11	0.046687
1745.75	0.076387
1755.4	0.180437
1765.04	0.185367
1774.69	0.060707
1784.33	0.024427
1793.98	0.014367
1803.62	0.012027
1813.27	0.011817
1822.91	0.008837
1832.55	0.006217
1842.2	0.004587
1851.84	0.003957
1861.49	0.003537
1871.13	0.003607
1880.78	0.004217
1890.42	0.004777
1900.07	0.005737
1909.71	0.006687
1919.36	0.006667
1929	0.005157
1938.65	0.004707
1948.29	0.005697
1957.94	0.005337
1967.58	0.004167
1977.23	0.003127
1986.87	0.002397
1996.52	0.002437
2006.16	0.002657
2015.81	0.003197
2025.45	0.003397
2035.1	0.002997
2044.74	0.002417
2054.38	0.002147
2064.03	0.002347
2073.67	0.002577
2083.32	0.002467
2092.96	0.002377
2102.61	0.002187
2112.25	0.001987
2121.9	0.001627
2131.54	0.001457
2141.19	0.0012894
2150.83	0.0010954
2160.48	0.0010362
2170.12	0.0009812
2179.77	0.0010351
2189.41	0.0010323
2199.06	0.0009413
2208.7	0.0008969
2218.35	0.0009422
2227.99	0.0010271
2237.64	0.001023
2247.28	0.0010822
2256.92	0.0011913
2266.57	0.001447
2276.21	0.001747
2285.86	0.001777
2295.5	0.001787
2305.15	0.002047
2314.79	0.002537
2324.44	0.002577
2334.08	0.001877
2343.73	0.001687
2353.37	0.001447
2363.02	0.001507
2372.66	0.001577
2382.31	0.001767
2391.95	0.001777
2401.6	0.001907
2411.24	0.001627
2420.89	0.001337
2430.53	0.0012544
2440.18	0.001163
2449.82	0.0010178
2459.47	0.0010016
2469.11	0.0011345
2478.75	0.0011803
2488.4	0.0012908
2498.04	0.0012828
2507.69	0.0011874
2517.33	0.0011088
2526.98	0.000923
2536.62	0.0010489
2546.27	0.0009412
2555.91	0.0010393
2565.56	0.0011052
2575.2	0.0010913
2584.85	0.0011991
2594.49	0.0012218
2604.14	0.0012068
2613.78	0.0009085
2623.43	0.0009611
2633.07	0.0009637
2642.72	0.0008899
2652.36	0.0008861
2662.01	0.0007933
2671.65	0.0007388
2681.29	0.000646
2690.94	0.000635
2700.58	0.0006661
2710.23	0.0007174
2719.87	0.0007074
2729.52	0.0007542
2739.16	0.0009289
2748.81	0.0009536
2758.45	0.0008934
2768.1	0.0009109
2777.74	0.0008036
2787.39	0.0007971
2797.03	0.0007935
2806.68	0.0006899
2816.32	0.0009502
2825.97	0.0011467
2835.61	0.001647
2845.26	0.001787
2854.9	0.001867
2864.55	0.001817
2874.19	0.001747
2883.84	0.001667
2893.48	0.001617
2903.12	0.001697
2912.77	0.001667
2922.41	0.002287
2932.06	0.003297
2941.7	0.003207
2951.35	0.002677
2960.99	0.002497
2970.64	0.003077
2980.28	0.003797
2989.93	0.004427
2999.57	0.005657
3009.22	0.007837
3018.86	0.008337
3028.51	0.009907
3038.15	0.013647
3047.8	0.014457
3057.44	0.016117
3067.09	0.028467
3076.73	0.043637
3086.38	0.029747
3096.02	0.014617
3105.67	0.009447
3115.31	0.005367
3124.95	0.002987
3134.6	0.002207
3144.24	0.002177
3153.89	0.001987
3163.53	0.001817
3173.18	0.001557
3182.82	0.0010441
3192.47	0.0009284
3202.11	0.0009175
3211.76	0.0007565
3221.4	0.0005499
3231.05	0.0005856
3240.69	0.0005122
3250.34	0.0005033
3259.98	0.0005123
3269.63	0.0004806
3279.27	0.00035353
3288.92	0.00035801
3298.56	0.0002577
3308.21	0.0004579
3317.85	0.000306022
3327.49	0.000415
3337.14	0.0004413
3346.78	0.0007137
3356.43	0.0010505
3366.07	0.0011382
3375.72	0.001235
3385.36	0.001877
3395.01	0.002227
3404.65	0.001897
3414.3	0.001397
3423.94	0.0010875
3433.59	0.0006781
3443.23	0.0005266
3452.88	0.000723
3462.52	0.0006401
3472.17	0.0007167
3481.81	0.0010931
3491.46	0.0012369
3501.1	0.001807
3510.75	0.001647
3520.39	0.0010051
3530.04	0.0007691
3539.68	0.0007753
3549.32	0.0004093
3558.97	0.00041
3568.61	0.0002623
3578.26	0.00035506
3587.9	0.00033532
3597.55	0.000304998
3607.19	0
3616.84	0.0002736
3626.48	0.000188
3636.13	0.0004084
3645.77	0.000306
3655.42	0.0002356
3665.06	0.0003981
3674.71	0.0004896
3684.35	0.0004518
3694	0.00036603
3703.64	0.0004978
3713.29	0.0004294
3722.93	0.000259
3732.58	0.00030998
3742.22	0.00036258
3751.86	0.000268
3761.51	0.0004623
3771.15	0.0002779
3780.8	0.0004226
3790.44	0.0002492
3800.09	0.000574
3809.73	0.0004505
3819.38	0.00039118
3829.02	0.00034718
3838.67	0.000246
3848.31	0.0004051
3857.96	0.0002501
3867.6	0.00034728
3877.25	0.0002486
3886.89	0.00046
3896.54	0.0006554
3906.18	0.0004906
3915.83	0.0005128
3925.47	0.0003977
3935.12	0.000299119
3944.76	0.00033804
3954.41	0.00036243
3964.05	0.0002102
3973.69	0.00033859
3983.34	0.0004927
3992.98	0.00033819
