Infrared Spectrum: 3,3'-Dimethoxybenzil
Formula: C 16 H 14 O 4
CAS: 40101-17-5
State: gas
Origin: EPA-IR VAPOR PHASE LIBRARY
1/CM	ABSORBANCE
549.8	0.015803
559.445	0.015823
569.09	0.010543
578.734	0.006403
588.379	0.005723
598.024	0.005143
607.669	0.005593
617.313	0.006493
626.958	0.008383
636.603	0.017963
646.248	0.049663
655.893	0.044933
665.537	0.020783
675.182	0.027253
684.827	0.039453
694.472	0.020133
704.116	0.019183
713.761	0.030663
723.406	0.083883
733.051	0.109653
742.695	0.084293
752.34	0.062223
761.985	0.040873
771.63	0.042003
781.275	0.040303
790.919	0.034903
800.564	0.027103
810.209	0.023183
819.854	0.028923
829.498	0.009793
839.143	0.008363
848.788	0.011453
858.433	0.018963
868.078	0.021313
877.722	0.022423
887.367	0.018483
897.012	0.015263
906.657	0.012903
916.301	0.013973
925.946	0.023513
935.591	0.036733
945.236	0.037723
954.88	0.027073
964.525	0.016383
974.17	0.010513
983.815	0.010363
993.46	0.014533
1003.1	0.013263
1012.75	0.017253
1022.39	0.030893
1032.04	0.059123
1041.68	0.086723
1051.33	0.075923
1060.97	0.045653
1070.62	0.021113
1080.26	0.020573
1089.91	0.015193
1099.55	0.012113
1109.2	0.011083
1118.84	0.011753
1128.49	0.016643
1138.13	0.027663
1147.78	0.054413
1157.42	0.076563
1167.07	0.066983
1176.71	0.061263
1186.36	0.067773
1196	0.055183
1205.64	0.044053
1215.29	0.066573
1224.93	0.100613
1234.58	0.113923
1244.22	0.161073
1253.87	0.332723
1263.51	0.311123
1273.16	0.148413
1282.8	0.138183
1292.45	0.122663
1302.09	0.101863
1311.74	0.092103
1321.38	0.074173
1331.03	0.053903
1340.67	0.037663
1350.32	0.023913
1359.96	0.014683
1369.61	0.010763
1379.25	0.009623
1388.9	0.010743
1398.54	0.014543
1408.18	0.023613
1417.83	0.047043
1427.47	0.104503
1437.12	0.095963
1446.76	0.055083
1456.41	0.060033
1466.05	0.081903
1475.7	0.092903
1485.34	0.122493
1494.99	0.054983
1504.63	0.024193
1514.28	0.016463
1523.92	0.014213
1533.57	0.014103
1543.21	0.015673
1552.86	0.019993
1562.5	0.031993
1572.15	0.067283
1581.79	0.125623
1591.44	0.131173
1601.08	0.112793
1610.73	0.052423
1620.37	0.025033
1630.01	0.016063
1639.66	0.015213
1649.3	0.019913
1658.95	0.028983
1668.59	0.054233
1678.24	0.127463
1687.88	0.216803
1697.53	0.175123
1707.17	0.092173
1716.82	0.048213
1726.46	0.024793
1736.11	0.014193
1745.75	0.010213
1755.4	0.008713
1765.04	0.007653
1774.69	0.007263
1784.33	0.006753
1793.98	0.006263
1803.62	0.005473
1813.27	0.005173
1822.91	0.004223
1832.55	0.003923
1842.2	0.004643
1851.84	0.004523
1861.49	0.005293
1871.13	0.005173
1880.78	0.004443
1890.42	0.003723
1900.07	0.003373
1909.71	0.003423
1919.36	0.003883
1929	0.005033
1938.65	0.005803
1948.29	0.004143
1957.94	0.003363
1967.58	0.003283
1977.23	0.003433
1986.87	0.003793
1996.52	0.004133
2006.16	0.003873
2015.81	0.004203
2025.45	0.004243
2035.1	0.004243
2044.74	0.004083
2054.38	0.004153
2064.03	0.004343
2073.67	0.004743
2083.32	0.004693
2092.96	0.004233
2102.61	0.003853
2112.25	0.003483
2121.9	0.002963
2131.54	0.002983
2141.19	0.002773
2150.83	0.002573
2160.48	0.002513
2170.12	0.002503
2179.77	0.002503
2189.41	0.002573
2199.06	0.002143
2208.7	0.002033
2218.35	0.002003
2227.99	0.002153
2237.64	0.001853
2247.28	0.002023
2256.92	0.001703
2266.57	0.001843
2276.21	0.001823
2285.86	0.001753
2295.5	0.001943
2305.15	0.002343
2314.79	0.002463
2324.44	0.002583
2334.08	0.002943
2343.73	0.002423
2353.37	0.002123
2363.02	0.001993
2372.66	0.002153
2382.31	0.002173
2391.95	0.002243
2401.6	0.002133
2411.24	0.002313
2420.89	0.002273
2430.53	0.002423
2440.18	0.002633
2449.82	0.002823
2459.47	0.002683
2469.11	0.002843
2478.75	0.003123
2488.4	0.002843
2498.04	0.002943
2507.69	0.002923
2517.33	0.002883
2526.98	0.003263
2536.62	0.003333
2546.27	0.003453
2555.91	0.003973
2565.56	0.004173
2575.2	0.003713
2584.85	0.003653
2594.49	0.003623
2604.14	0.003563
2613.78	0.003193
2623.43	0.003193
2633.07	0.002523
2642.72	0.002683
2652.36	0.002563
2662.01	0.001893
2671.65	0.001963
2681.29	0.001683
2690.94	0.002113
2700.58	0.001933
2710.23	0.002263
2719.87	0.002223
2729.52	0.002513
2739.16	0.002683
2748.81	0.002633
2758.45	0.003183
2768.1	0.003003
2777.74	0.002773
2787.39	0.003063
2797.03	0.003913
2806.68	0.004663
2816.32	0.006323
2825.97	0.009813
2835.61	0.017873
2845.26	0.031723
2854.9	0.022113
2864.55	0.015083
2874.19	0.013313
2883.84	0.014263
2893.48	0.015643
2903.12	0.017843
2912.77	0.022073
2922.41	0.026413
2932.06	0.028023
2941.7	0.039633
2951.35	0.048963
2960.99	0.042873
2970.64	0.031043
2980.28	0.020303
2989.93	0.019343
2999.57	0.026313
3009.22	0.046263
3018.86	0.031783
3028.51	0.016703
3038.15	0.015463
3047.8	0.014423
3057.44	0.014203
3067.09	0.019973
3076.73	0.031983
3086.38	0.020513
3096.02	0.011733
3105.67	0.008353
3115.31	0.005213
3124.95	0.003943
3134.6	0.003063
3144.24	0.002573
3153.89	0.003053
3163.53	0.002393
3173.18	0.002383
3182.82	0.002083
3192.47	0.002443
3202.11	0.001863
3211.76	0.001723
3221.4	0.001503
3231.05	0.0012476
3240.69	0.0012826
3250.34	0.0007029
3259.98	0.0008632
3269.63	0.0011778
3279.27	0.0012407
3288.92	0.0011991
3298.56	0.0012183
3308.21	0.0013
3317.85	0.001873
3327.49	0.001903
3337.14	0.002463
3346.78	0.002873
3356.43	0.003793
3366.07	0.003433
3375.72	0.003103
3385.36	0.002703
3395.01	0.002073
3404.65	0.0013415
3414.3	0.0011141
3423.94	0.0006501
3433.59	0.0011234
3443.23	0.0005371
3452.88	0.0010002
3462.52	0.0006378
3472.17	0.001087
3481.81	0.0009081
3491.46	0.0013558
3501.1	0.0009078
3510.75	0.0010876
3520.39	0.0008189
3530.04	0.0007736
3539.68	0.0008564
3549.32	0.0012532
3558.97	0.0008527
3568.61	0.0010183
3578.26	0.0005412
3587.9	0.0007724
3597.55	0.00047712
3607.19	0.000715
3616.84	0.0008627
3626.48	0.0008372
3636.13	0.0007259
3645.77	0.00043333
3655.42	0.001025
3665.06	0.00040324
3674.71	0.00048386
3684.35	0.0006947
3694	0.0006797
3703.64	0.00077
3713.29	0.0011076
3722.93	0.001228
3732.58	0.0008886
3742.22	0.0010574
3751.86	0.001238
3761.51	0.0011463
3771.15	0.0008739
3780.8	0.0007094
3790.44	0.0012367
3800.09	0.0008495
3809.73	0.0005291
3819.38	0.0005165
3829.02	0.0008862
3838.67	0.000415543
3848.31	0.00046289
3857.96	0.000292
3867.6	0.001005
3877.25	0.0011639
3886.89	0.0008412
3896.54	0.0009935
3906.18	0.0009793
3915.83	0.0006522
3925.47	0.0011463
3935.12	0.0012349
3944.76	0.0010235
3954.41	0.001433
3964.05	0.001653
3973.69	0.0011181
3983.34	0.001192
3992.98	0.001603
