Infrared Spectrum: 2,2,6,6-Tetramethylheptane
Formula: C 11 H 24
CAS: 40117-45-1
State: gas
Instrument: HP-GC/MS/IRD
Origin: NIST Mass Spectrometry Data Center
1/CM	ABSORBANCE
550	4.14e-05
562	5.94e-05
574	9e-05
586	0.0001746
598	0.00018
610	0.0002178
622	0.0001998
634	0.0001692
646	0.000225
658	0.0002124
670	0.000189
682	0.000306
694	0.000207
706	0.0003618
718	0.000207
730	0.0002628
742	0.0002718
754	0.000234
766	0.0002358
778	0.0002394
790	0.0002106
802	0.0001764
814	0.0003006
826	0.0001908
838	0.0002106
850	0.0002034
862	0.0002196
874	0.0002322
886	0.0003204
898	0.0002502
910	0.0002394
922	0.0002808
934	0.0002322
946	0.0001854
958	0.0002304
970	0.0002304
982	0.000198
994	0.0002016
1006	0.0001836
1018	0.000171
1030	0.0001746
1042	0.00018
1054	0.000243
1066	0.0002448
1078	0.0001818
1090	0.0001836
1102	0.0001926
1114	0.0001908
1126	0.0002052
1138	0.0002142
1150	0.0002214
1162	0.0002754
1174	0.0003024
1186	0.0003978
1198	0.0005256
1210	0.0006966
1222	0.0007398
1234	0.0010998
1246	0.0011196
1258	0.000522
1270	0.000369
1282	0.0003204
1294	0.0002664
1306	0.0003366
1318	0.0003006
1330	0.0003096
1342	0.00045
1354	0.0010494
1366	0.0022662
1378	0.0016452
1390	0.0012312
1402	0.0009486
1414	0.0003852
1426	0.0003528
1438	0.0004608
1450	0.000702
1462	0.0013014
1474	0.0020412
1486	0.0014832
1498	0.0005832
1510	0.0002502
1522	0.0002088
1534	0.0001584
1546	0.0001368
1558	0.0001584
1570	0.0001872
1582	0.0001422
1594	0.0001422
1606	0.000144
1618	0.0001602
1630	0.0001656
1642	0.0001242
1654	0.0001764
1666	0.0001512
1678	0.0001044
1690	0.0001368
1702	0.0001458
1714	0.0001044
1726	0.000135
1738	0.0001224
1750	9e-05
1762	9.36e-05
1774	0.000135
1786	7.92e-05
1798	9e-05
1810	9.36e-05
1822	8.28e-05
1834	8.28e-05
1846	7.38e-05
1858	8.82e-05
1870	7.38e-05
1882	8.82e-05
1894	7.02e-05
1906	9.9e-05
1918	6.66e-05
1930	7.56e-05
1942	7.56e-05
1954	7.2e-05
1966	6.48e-05
1978	7.02e-05
1990	4.68e-05
2002	5.94e-05
2014	5.58e-05
2026	4.32e-05
2038	3.96e-05
2050	7.02e-05
2062	4.68e-05
2074	4.14e-05
2086	5.58e-05
2098	3.96e-05
2110	3.96e-05
2122	2.88e-05
2134	2.52e-05
2146	2.88e-05
2158	1.26e-05
2170	5.4e-06
2182	2.7e-05
2194	1.98e-05
2206	4.32e-05
2218	1.08e-05
2230	2.34e-05
2242	5.4e-06
2254	0
2266	5.04e-05
2278	2.88e-05
2290	3.06e-05
2302	1.62e-05
2314	1.08e-05
2326	2.34e-05
2338	4.68e-05
2350	5.22e-05
2362	3.78e-05
2374	2.34e-05
2386	2.88e-05
2398	5.4e-05
2410	2.88e-05
2422	3.06e-05
2434	2.52e-05
2446	3.96e-05
2458	3.42e-05
2470	1.26e-05
2482	5.76e-05
2494	3.96e-05
2506	3.24e-05
2518	4.68e-05
2530	5.76e-05
2542	7.38e-05
2554	5.22e-05
2566	4.68e-05
2578	6.3e-05
2590	5.76e-05
2602	8.82e-05
2614	7.92e-05
2626	8.64e-05
2638	0.0001296
2650	0.0001152
2662	0.0001278
2674	0.0001152
2686	0.0001512
2698	0.0001674
2710	0.0001926
2722	0.0002358
2734	0.0002286
2746	0.0002178
2758	0.0002214
2770	0.000243
2782	0.0002592
2794	0.0003528
2806	0.0004338
2818	0.0006426
2830	0.0009018
2842	0.0015174
2854	0.0024516
2866	0.0036738
2878	0.0048546
2890	0.0052002
2902	0.0059328
2914	0.005895
2926	0.005724
2938	0.0081
2950	0.013482
2962	0.018
2974	0.0089946
2986	0.0025398
2998	0.001071
3010	0.0006228
3022	0.0004284
3034	0.000342
3046	0.0003006
3058	0.0002898
3070	0.000261
3082	0.0002304
3094	0.0002142
3106	0.0002304
3118	0.0002196
3130	0.00018
3142	0.0002088
3154	0.000225
3166	0.0002088
3178	0.000261
3190	0.0002268
3202	0.0001944
3214	0.0002448
3226	0.0001836
3238	0.0001692
3250	0.0001134
3262	0.0001008
3274	0.0001026
3286	0.0001512
3298	0.0001404
3310	0.0001008
3322	6.84e-05
3334	9e-05
3346	9e-05
3358	0.0001404
3370	0.0001404
3382	9.18e-05
3394	8.1e-05
3406	0.0001242
3418	8.64e-05
3430	5.94e-05
3442	3.42e-05
3454	5.4e-05
3466	9.18e-05
3478	7.74e-05
3490	9.9e-05
3502	5.22e-05
3514	3.6e-05
3526	3.42e-05
3538	3.24e-05
3550	4.5e-05
3562	5.94e-05
3574	7.92e-05
3586	5.04e-05
3598	5.76e-05
3610	5.4e-05
3622	0.000126
3634	7.74e-05
3646	8.46e-05
3658	0.0001008
3670	0.000126
3682	0.0001242
3694	0.0001332
3706	8.46e-05
3718	5.94e-05
3730	6.3e-05
3742	9.9e-05
3754	8.28e-05
3766	6.48e-05
3778	9.9e-05
3790	0.0001584
3802	0.0001476
3814	0.0001422
3826	0.000144
3838	0.0001206
