Infrared Spectrum: N,N'-Diisopropylethyelendiamine
Formula: C 8 H 20 N 2
CAS: 4013-94-9
State: gas
Origin: EPA-IR VAPOR PHASE LIBRARY
1/CM	ABSORBANCE
549.8	0.005027
559.445	0.005277
569.09	0.005847
578.734	0.005337
588.379	0.005927
598.024	0.006657
607.669	0.007637
617.313	0.008667
626.958	0.010557
636.603	0.012717
646.248	0.015287
655.893	0.017857
665.537	0.021077
675.182	0.023567
684.827	0.025927
694.472	0.026387
704.116	0.026937
713.761	0.025577
723.406	0.023567
733.051	0.020777
742.695	0.017657
752.34	0.014427
761.985	0.011667
771.63	0.008897
781.275	0.006957
790.919	0.005997
800.564	0.005117
810.209	0.004927
819.854	0.005787
829.498	0.006497
839.143	0.006377
848.788	0.005497
858.433	0.004867
868.078	0.004707
877.722	0.005117
887.367	0.005357
897.012	0.005387
906.657	0.004967
916.301	0.004817
925.946	0.004817
935.591	0.004857
945.236	0.004887
954.88	0.004927
964.525	0.004917
974.17	0.005657
983.815	0.005937
993.46	0.005397
1003.1	0.004017
1012.75	0.003737
1022.39	0.004067
1032.04	0.004827
1041.68	0.006747
1051.33	0.008767
1060.97	0.011997
1070.62	0.018217
1080.26	0.027787
1089.91	0.031087
1099.55	0.029457
1109.2	0.031387
1118.84	0.034067
1128.49	0.033167
1138.13	0.029947
1147.78	0.032297
1157.42	0.047367
1167.07	0.072157
1176.71	0.070487
1186.36	0.043167
1196	0.022597
1205.64	0.014147
1215.29	0.011057
1224.93	0.011607
1234.58	0.011927
1244.22	0.011117
1253.87	0.010577
1263.51	0.010477
1273.16	0.009987
1282.8	0.010897
1292.45	0.012867
1302.09	0.015757
1311.74	0.023297
1321.38	0.034977
1331.03	0.041487
1340.67	0.039487
1350.32	0.032697
1359.96	0.036497
1369.61	0.044627
1379.25	0.058917
1388.9	0.044817
1398.54	0.018707
1408.18	0.012837
1417.83	0.013697
1427.47	0.019817
1437.12	0.032397
1446.76	0.041357
1456.41	0.044907
1466.05	0.053617
1475.7	0.049887
1485.34	0.027687
1494.99	0.013437
1504.63	0.008097
1514.28	0.005487
1523.92	0.003907
1533.57	0.003107
1543.21	0.002497
1552.86	0.002147
1562.5	0.001987
1572.15	0.001887
1581.79	0.001857
1591.44	0.001877
1601.08	0.001847
1610.73	0.001827
1620.37	0.001787
1630.01	0.001757
1639.66	0.001737
1649.3	0.001767
1658.95	0.001797
1668.59	0.001777
1678.24	0.001677
1687.88	0.001627
1697.53	0.001667
1707.17	0.001677
1716.82	0.001517
1726.46	0.001487
1736.11	0.001447
1745.75	0.001437
1755.4	0.001397
1765.04	0.001367
1774.69	0.001377
1784.33	0.001447
1793.98	0.001407
1803.62	0.001427
1813.27	0.001437
1822.91	0.001357
1832.55	0.001397
1842.2	0.001437
1851.84	0.001437
1861.49	0.001307
1871.13	0.001287
1880.78	0.001267
1890.42	0.001207
1900.07	0.0011021
1909.71	0.0009462
1919.36	0.0008772
1929	0.0008789
1938.65	0.0007445
1948.29	0.0007126
1957.94	0.0007424
1967.58	0.000721
1977.23	0.0007468
1986.87	0.0007378
1996.52	0.0007493
2006.16	0.0006555
2015.81	0.0006392
2025.45	0.000705
2035.1	0.000678
2044.74	0.0007264
2054.38	0.0006847
2064.03	0.0006565
2073.67	0.0006447
2083.32	0.0004964
2092.96	0.0005396
2102.61	0.0005929
2112.25	0.0005613
2121.9	0.0005481
2131.54	0.0006001
2141.19	0.0005804
2150.83	0.0006918
2160.48	0.0006405
2170.12	0.0007474
2179.77	0.0007736
2189.41	0.0007363
2199.06	0.0007786
2208.7	0.0008512
2218.35	0.0007248
2227.99	0.0007601
2237.64	0.000818
2247.28	0.0008273
2256.92	0.0008087
2266.57	0.0008013
2276.21	0.0007785
2285.86	0.0008328
2295.5	0.0008363
2305.15	0.0008647
2314.79	0.000792
2324.44	0.0007755
2334.08	0.0007616
2343.73	0.0007721
2353.37	0.00074
2363.02	0.0008092
2372.66	0.0008809
2382.31	0.0009057
2391.95	0.0008915
2401.6	0.0007929
2411.24	0.0007791
2420.89	0.0009048
2430.53	0.0008055
2440.18	0.0008606
2449.82	0.0008643
2459.47	0.0010475
2469.11	0.0009767
2478.75	0.0011251
2488.4	0.001247
2498.04	0.001297
2507.69	0.001327
2517.33	0.001557
2526.98	0.001567
2536.62	0.001727
2546.27	0.001947
2555.91	0.002127
2565.56	0.002637
2575.2	0.003287
2584.85	0.004167
2594.49	0.005177
2604.14	0.006417
2613.78	0.007357
2623.43	0.007467
2633.07	0.006717
2642.72	0.006077
2652.36	0.006017
2662.01	0.006177
2671.65	0.006597
2681.29	0.007217
2690.94	0.007677
2700.58	0.008327
2710.23	0.009117
2719.87	0.009807
2729.52	0.010367
2739.16	0.011037
2748.81	0.012157
2758.45	0.014627
2768.1	0.019297
2777.74	0.026067
2787.39	0.033607
2797.03	0.040897
2806.68	0.048307
2816.32	0.056857
2825.97	0.064887
2835.61	0.067687
2845.26	0.062947
2854.9	0.056447
2864.55	0.057257
2874.19	0.066427
2883.84	0.072447
2893.48	0.075127
2903.12	0.079757
2912.77	0.083727
2922.41	0.090947
2932.06	0.102197
2941.7	0.108547
2951.35	0.117867
2960.99	0.169507
2970.64	0.214887
2980.28	0.150877
2989.93	0.062647
2999.57	0.028097
3009.22	0.016047
3018.86	0.010007
3028.51	0.006687
3038.15	0.005287
3047.8	0.004557
3057.44	0.004177
3067.09	0.004197
3076.73	0.004147
3086.38	0.003927
3096.02	0.003897
3105.67	0.003687
3115.31	0.003307
3124.95	0.002957
3134.6	0.002967
3144.24	0.002977
3153.89	0.002867
3163.53	0.002947
3173.18	0.003197
3182.82	0.003067
3192.47	0.002787
3202.11	0.002547
3211.76	0.002197
3221.4	0.001797
3231.05	0.001497
3240.69	0.0010795
3250.34	0.0010761
3259.98	0.000809
3269.63	0.0008824
3279.27	0.0008164
3288.92	0.0010516
3298.56	0.001177
3308.21	0.001507
3317.85	0.002297
3327.49	0.003407
3337.14	0.004077
3346.78	0.003127
3356.43	0.002097
3366.07	0.001797
3375.72	0.001207
3385.36	0.001307
3395.01	0.0009866
3404.65	0.0009682
3414.3	0.0008183
3423.94	0.000727
3433.59	0.0005765
3443.23	0.0007685
3452.88	0.0006747
3462.52	0.000729
3472.17	0.0006009
3481.81	0.0005603
3491.46	0.0005241
3501.1	0.0005801
3510.75	0.0003846
3520.39	0.0004266
3530.04	0.0004013
3539.68	0.0004336
3549.32	0.0004288
3558.97	0.0003828
3568.61	0.0001939
3578.26	0.0002891
3587.9	0.0002571
3597.55	4.99e-05
3607.19	0
3616.84	0.00018226
3626.48	6.27e-05
3636.13	5.31e-05
3645.77	0.00013913
3655.42	0.00020415
3665.06	0.00021817
3674.71	0.0002832
3684.35	9.94e-05
3694	0.00017702
3703.64	9.58e-05
3713.29	0.0002653
3722.93	0.0003603
3732.58	0.0003945
3742.22	0.0003888
3751.86	0.0003755
3761.51	0.0003497
3771.15	0.0003774
3780.8	0.0003558
3790.44	0.0002683
3800.09	0.0003818
3809.73	0.0005697
3819.38	0.0005853
3829.02	0.000446
3838.67	0.0005617
3848.31	0.0007193
3857.96	0.0004647
3867.6	0.0003651
3877.25	0.0007994
3886.89	0.000635
3896.54	0.0008143
3906.18	0.0009197
3915.83	0.0005647
3925.47	0.0005815
3935.12	0.000583
3944.76	0.0007569
3954.41	0.0007101
3964.05	0.0005323
3973.69	0.0004769
3983.34	0.0005962
3992.98	0.0007149
