Infrared Spectrum: Tetradecane-1-sulfonic acid, 4-hydroxy-, Delta-sultone
Formula: C14 H28 O3 S
CAS: 40146-87-0
State: SOLID (1 mg / 100 mg KBr DISC)
Melting point: 48 C
Class: COBLENTZ III
Instrument: BECKMAN IR-12 (GRATING)
Instrument parameters: GRATING
Sampling: TRANSMISSION
Resolution: 2
Origin: COLGATE-PALMOLIVE COMPANY (KELLENBACH)
1/CM	TRANSMITTANCE
207	0.0672
217	0.0632
227	0.122
237	0.2536
247	0.3885
257	0.4487
267	0.6408
277	0.7047
287	0.7302
297	0.7702
307	0.7941
317	0.8549
327	0.8619
337	0.829
347	0.8681
357	0.8753
367	0.9003
377	0.9141
387	0.9238
397	0.9287
407	0.922
417	0.9035
427	0.9177
437	0.9082
447	0.903
457	0.8296
467	0.8805
477	0.8457
487	0.8891
497	0.9239
507	0.884
517	0.9037
527	0.7278
537	0.5437
547	0.6856
557	0.8822
567	0.9005
577	0.9069
587	0.8978
597	0.8432
607	0.8878
617	0.9025
627	0.9206
637	0.9188
647	0.9181
657	0.9226
667	0.9118
677	0.92
687	0.9156
697	0.8999
707	0.7811
717	0.7494
727	0.6805
737	0.7879
747	0.8509
757	0.7949
767	0.8727
777	0.8453
787	0.7201
797	0.8293
807	0.7823
817	0.4717
827	0.5296
837	0.579
847	0.7705
857	0.732
867	0.6917
877	0.5532
887	0.297
897	0.0308
907	0.1793
917	0.4688
927	0.6865
937	0.813
947	0.8267
957	0.8284
967	0.8366
977	0.834
987	0.7851
997	0.762
1007	0.8241
1017	0.8328
1027	0.7718
1037	0.8029
1047	0.8124
1057	0.8137
1067	0.7673
1077	0.7775
1087	0.7909
1097	0.8268
1107	0.8208
1117	0.8028
1127	0.8013
1137	0.7425
1147	0.721
1157	0.3997
1167	0.1191
1177	0.2555
1187	0.2775
1197	0.4962
1207	0.6609
1217	0.763
1227	0.7964
1237	0.7973
1247	0.7693
1257	0.7701
1267	0.7719
1277	0.765
1287	0.6384
1297	0.5704
1307	0.4861
1317	0.5473
1327	0.3252
1337	0.1948
1347	0.2345
1357	0.1507
1367	0.3577
1377	0.5998
1387	0.7406
1397	0.738
1407	0.7788
1417	0.7584
1427	0.7583
1437	0.6931
1447	0.6797
1457	0.6487
1467	0.5014
1477	0.6185
1487	0.7815
1497	0.7905
1507	0.7934
1517	0.7901
1527	0.792
1537	0.7908
1547	0.7891
1557	0.7964
1567	0.7848
1577	0.7978
1587	0.7998
1597	0.7971
1607	0.7941
1617	0.7839
1627	0.7819
1637	0.7803
1647	0.7775
1657	0.7785
1667	0.788
1677	0.7878
1687	0.7879
1697	0.7862
1707	0.7766
1717	0.7774
1727	0.7782
1737	0.78
1747	0.7818
1757	0.7834
1767	0.7851
1777	0.7872
1787	0.7885
1797	0.7877
1807	0.7842
1817	0.7817
1827	0.7799
1837	0.7795
1847	0.7809
1857	0.782
1867	0.7825
1877	0.7805
1887	0.7793
1897	0.778
1907	0.7762
1917	0.7741
1927	0.7728
1937	0.7727
1947	0.7727
1957	0.7719
1967	0.7711
1977	0.7691
1987	0.7683
1997	0.7676
2007	0.7652
2017	0.7636
2027	0.762
2037	0.7602
2047	0.7581
2057	0.756
2067	0.7537
2077	0.7514
2087	0.7492
2097	0.7472
2107	0.7458
2117	0.7444
2127	0.743
2137	0.7416
2147	0.7402
2157	0.7388
2167	0.7377
2177	0.7365
2187	0.7371
2197	0.7372
2207	0.7331
2217	0.7301
2227	0.7281
2237	0.7254
2247	0.7223
2257	0.7206
2267	0.7195
2277	0.7194
2287	0.7195
2297	0.7167
2307	0.7124
2317	0.7058
2327	0.6986
2337	0.6917
2347	0.6833
2357	0.6761
2367	0.6783
2377	0.6945
2387	0.7037
2397	0.7048
2407	0.7034
2417	0.7018
2427	0.7001
2437	0.6991
2447	0.6981
2457	0.6971
2467	0.696
2477	0.6939
2487	0.6916
2497	0.6883
2507	0.6858
2517	0.6854
2527	0.6859
2537	0.6866
2547	0.6851
2557	0.6824
2567	0.6789
2577	0.6755
2587	0.6721
2597	0.6688
2607	0.6671
2617	0.6653
2627	0.6647
2637	0.6641
2647	0.6641
2657	0.6643
2667	0.6633
2677	0.6608
2687	0.6579
2697	0.6551
2707	0.6524
2717	0.6497
2727	0.647
2737	0.6444
2747	0.6415
2757	0.6384
2767	0.6342
2777	0.6292
2787	0.6233
2797	0.6145
2807	0.5983
2817	0.5736
2827	0.5362
2837	0.4383
2847	0.2718
2857	0.1234
2867	0.2107
2877	0.3264
2887	0.3518
2897	0.298
2907	0.1949
2917	0.0918
2927	0.0293
2937	0.0617
2947	0.1533
2957	0.235
2967	0.3191
2977	0.4367
2987	0.4962
2997	0.5215
3007	0.5402
3017	0.5517
3027	0.5631
3037	0.5717
3047	0.5772
3057	0.5813
3067	0.5833
3077	0.584
3087	0.585
3097	0.5876
3107	0.5917
3117	0.5942
3127	0.5941
3137	0.5933
3147	0.5923
3157	0.5899
3167	0.5868
3177	0.5845
3187	0.5828
3197	0.5811
3207	0.5795
3217	0.5781
3227	0.5767
3237	0.5752
3247	0.5736
3257	0.572
3267	0.5703
3277	0.5695
3287	0.5695
3297	0.5696
3307	0.5711
3317	0.5697
3327	0.5663
3337	0.5618
3347	0.5572
3357	0.5523
3367	0.5475
3377	0.5427
3387	0.5379
3397	0.5339
3407	0.5306
3417	0.5273
3427	0.5251
3437	0.5236
3447	0.5223
3457	0.5225
3467	0.5227
3477	0.5229
3487	0.5239
3497	0.5252
3507	0.5264
3517	0.5276
3527	0.5282
3537	0.5288
3547	0.5294
3557	0.53
3567	0.5306
3577	0.5312
3587	0.5318
3597	0.5323
3607	0.5329
3617	0.5334
3627	0.5338
3637	0.5342
3647	0.5345
3657	0.5343
3667	0.5341
3677	0.5338
3687	0.5334
3697	0.533
3707	0.5318
3717	0.5304
3727	0.5289
3737	0.5273
3747	0.5265
3757	0.5278
3767	0.5282
3777	0.528
3787	0.5263
3797	0.5247
3807	0.5235
3817	0.5224
3827	0.5224
3837	0.522
3847	0.5198
3857	0.5177
3867	0.5167
3877	0.5172
3887	0.5186
3897	0.5202
3907	0.5148
3917	0.5117
3927	0.5108
3937	0.5101
3947	0.5092
3957	0.5083
3967	0.5069
3977	0.5055
3987	0.5042
3997	0.503
