Infrared Spectrum: ASPARTIC ACID, DIMETHYL ESTER
Formula: C6 H11 N O4
CAS: 40149-67-5
State: LIQUID (NEAT)
Class: COBLENTZ III
Instrument: PERKIN-ELMER 21 (GRATING)
Instrument parameters: FILTER CHANGE ABOUT 1090 CM^-^1
Sampling: TRANSMISSION
Path length: CAPILLARY
Resolution: 4
Origin: SOUTHERN RESEARCH INSTITUTE
1/CM	TRANSMITTANCE
624.783	0.8
633.913	0.811
643.044	0.817
652.174	0.823
661.305	0.833
670.435	0.851
679.566	0.865
688.696	0.868
697.827	0.863
706.957	0.856
716.088	0.851
725.218	0.844
734.348	0.836
743.479	0.827
752.609	0.8
761.74	0.775
770.87	0.75
780.001	0.726
789.131	0.751
798.262	0.738
807.392	0.715
816.523	0.701
825.653	0.659
834.783	0.594
843.914	0.595
853.044	0.604
862.175	0.621
871.305	0.653
880.436	0.659
889.566	0.661
898.697	0.662
907.827	0.666
916.958	0.666
926.088	0.662
935.218	0.664
944.349	0.672
953.479	0.676
962.61	0.673
971.74	0.653
980.871	0.615
990.001	0.55
999.132	0.478
1008.26	0.51
1017.39	0.534
1026.52	0.529
1035.65	0.519
1044.78	0.637
1053.91	0.747
1063.04	0.782
1072.18	0.787
1081.31	0.775
1090.44	0.752
1099.57	0.71
1108.7	0.658
1117.83	0.591
1126.96	0.532
1136.09	0.5
1145.22	0.445
1154.35	0.367
1163.48	0.302
1172.61	0.259
1181.74	0.266
1190.87	0.253
1200	0.201
1209.13	0.198
1218.26	0.22
1227.39	0.252
1236.52	0.289
1245.65	0.3
1254.78	0.314
1263.91	0.327
1273.05	0.342
1282.18	0.367
1291.31	0.404
1300.44	0.411
1309.57	0.429
1318.7	0.552
1327.83	0.604
1336.96	0.573
1346.09	0.552
1355.22	0.529
1364.35	0.483
1373.48	0.563
1382.61	0.655
1391.74	0.673
1400.87	0.671
1410	0.636
1419.13	0.628
1428.26	0.576
1437.39	0.336
1446.52	0.411
1455.65	0.581
1464.78	0.637
1473.92	0.735
1483.05	0.78
1492.18	0.796
1501.31	0.802
1510.44	0.797
1519.57	0.791
1528.7	0.779
1537.83	0.77
1546.96	0.764
1556.09	0.738
1565.22	0.719
1574.35	0.677
1583.48	0.65
1592.61	0.625
1601.74	0.623
1610.87	0.649
1620	0.657
1629.13	0.662
1638.26	0.677
1647.39	0.686
1656.52	0.689
1665.65	0.685
1674.79	0.657
1683.92	0.639
1693.05	0.539
1702.18	0.426
1711.31	0.181
1720.44	0.088
1729.57	0.081
1738.7	0.123
1747.83	0.273
1756.96	0.505
1766.09	0.686
1775.22	0.747
1784.35	0.784
1793.48	0.805
1802.61	0.817
1811.74	0.824
1820.87	0.832
1830	0.837
1839.13	0.841
1848.26	0.842
1857.39	0.844
1866.52	0.844
1875.66	0.842
1884.79	0.842
1893.92	0.844
1903.05	0.845
1912.18	0.845
1921.31	0.844
1930.44	0.842
1939.57	0.841
1948.7	0.84
1957.83	0.838
1966.96	0.837
1976.09	0.836
1985.22	0.835
1994.35	0.835
2003.48	0.835
2012.61	0.836
2021.74	0.836
2030.87	0.836
2040	0.836
2049.13	0.835
2058.26	0.833
2067.39	0.833
2076.53	0.833
2085.66	0.835
2094.79	0.835
2103.92	0.836
2113.05	0.836
2122.18	0.838
2131.31	0.841
2140.44	0.842
2149.57	0.842
2158.7	0.845
2167.83	0.846
2176.96	0.847
2186.09	0.847
2195.22	0.847
2204.35	0.847
2213.48	0.846
2222.61	0.846
2231.74	0.846
2240.87	0.846
2250	0.845
2259.13	0.845
2268.26	0.846
2277.4	0.847
2286.53	0.846
2295.66	0.844
2304.79	0.844
2313.92	0.84
2323.05	0.84
2332.18	0.841
2341.31	0.841
2350.44	0.841
2359.57	0.84
2368.7	0.838
2377.83	0.838
2386.96	0.838
2396.09	0.84
2405.22	0.841
2414.35	0.841
2423.48	0.842
2432.61	0.842
2441.74	0.842
2450.87	0.844
2460	0.842
2469.13	0.846
2478.27	0.842
2487.4	0.846
2496.53	0.846
2505.66	0.842
2514.79	0.84
2523.92	0.838
2533.05	0.836
2542.18	0.836
2551.31	0.832
2560.44	0.828
2569.57	0.828
2578.7	0.827
2587.83	0.826
2596.96	0.826
2606.09	0.827
2615.22	0.828
2624.35	0.829
2633.48	0.829
2642.61	0.829
2651.74	0.828
2660.87	0.828
2670	0.827
2679.13	0.826
2688.27	0.824
2697.4	0.823
2706.53	0.822
2715.66	0.82
2724.79	0.819
2733.92	0.819
2743.05	0.817
2752.18	0.814
2761.31	0.809
2770.44	0.804
2779.57	0.796
2788.7	0.788
2797.83	0.78
2806.96	0.774
2816.09	0.757
2825.22	0.752
2834.35	0.752
2843.48	0.753
2852.61	0.748
2861.74	0.739
2870.87	0.728
2880	0.721
2889.14	0.715
2898.27	0.698
2907.4	0.673
2916.53	0.664
2925.66	0.617
2934.79	0.587
2943.92	0.583
2953.05	0.657
2962.18	0.67
2971.31	0.668
2980.44	0.668
2989.57	0.67
2998.7	0.685
3007.83	0.694
3016.96	0.702
3026.09	0.717
3035.22	0.726
3044.35	0.733
3053.48	0.73
3062.61	0.728
3071.74	0.728
3080.87	0.725
3090.01	0.721
3099.14	0.717
3108.27	0.712
3117.4	0.703
3126.53	0.695
3135.66	0.684
3144.79	0.679
3153.92	0.671
3163.05	0.666
3172.18	0.67
3181.31	0.667
3190.44	0.663
3199.57	0.659
3208.7	0.652
3217.83	0.646
3226.96	0.641
3236.09	0.632
3245.22	0.623
3254.35	0.615
3263.48	0.604
3272.61	0.596
3281.74	0.588
3290.88	0.581
3300.01	0.577
3309.14	0.579
3318.27	0.579
3327.4	0.573
3336.53	0.564
3345.66	0.555
3354.79	0.545
3363.92	0.534
3373.05	0.532
3382.18	0.537
3391.31	0.551
3400.44	0.59
3409.57	0.597
3418.7	0.603
3427.83	0.608
3436.96	0.612
3446.09	0.615
3455.22	0.627
3464.35	0.634
3473.48	0.637
3482.61	0.64
3491.75	0.641
3500.88	0.641
3510.01	0.641
3519.14	0.639
3528.27	0.635
3537.4	0.632
3546.53	0.63
3555.66	0.627
3564.79	0.623
3573.92	0.623
3583.05	0.628
3592.18	0.636
3601.31	0.646
3610.44	0.655
3619.57	0.666
3628.7	0.686
3637.83	0.694
3646.96	0.722
3656.09	0.753
3665.22	0.764
3674.35	0.784
3683.48	0.797
3692.62	0.801
3701.75	0.804
3710.88	0.804
3720.01	0.802
3729.14	0.802
3738.27	0.8
3747.4	0.798
3756.53	0.798
3765.66	0.801
3774.79	0.801
3783.92	0.802
3793.05	0.804
3802.18	0.804
3811.31	0.804
3820.44	0.801
3829.57	0.801
3838.7	0.8
3847.83	0.797
3856.96	0.796
3866.09	0.795
3875.22	0.796
3884.35	0.798
3893.49	0.801
3902.62	0.802
3911.75	0.802
3920.88	0.801
3930.01	0.8
3939.14	0.797
3948.27	0.795
3957.4	0.795
3966.53	0.797
3975.66	0.798
3984.79	0.801
3993.92	0.805
4003.05	0.806
4012.18	0.807
4021.31	0.81
4030.44	0.813
4039.57	0.815
4048.7	0.824
4057.83	0.847
4066.96	0.881
