Infrared Spectrum: 2-Bromo-5-fluorobenzotrifluoride
Formula: C 7 H 3 Br F 4
CAS: 40161-55-5
State: gas
Origin: EPA-IR VAPOR PHASE LIBRARY
1/CM	ABSORBANCE
549.8	0.00967
559.445	0.01636
569.09	0.01202
578.734	0.00754
588.379	0.00492
598.024	0.00377
607.669	0.00413
617.313	0.01654
626.958	0.0487
636.603	0.01886
646.248	0.006
655.893	0.01856
665.537	0.02676
675.182	0.00684
684.827	0.0029
694.472	0.002554
704.116	0.00168256
713.761	0.0021544
723.406	0.00287
733.051	0.00305
742.695	0.02457
752.34	0.02861
761.985	0.00447
771.63	0.0024983
781.275	0.0016008
790.919	0.0023435
800.564	0.0054
810.209	0.025
819.854	0.05904
829.498	0.02408
839.143	0.00403
848.788	0.00335
858.433	0.00455
868.078	0.01002
877.722	0.04101
887.367	0.07042
897.012	0.07184
906.657	0.05373
916.301	0.01679
925.946	0.00883
935.591	0.00538
945.236	0.00348
954.88	0.00281
964.525	0.00344
974.17	0.00402
983.815	0.00366
993.46	0.00452
1003.1	0.00561
1012.75	0.01514
1022.39	0.05988
1032.04	0.06797
1041.68	0.01653
1051.33	0.00778
1060.97	0.00841
1070.62	0.0176
1080.26	0.03757
1089.91	0.05268
1099.55	0.04053
1109.2	0.02484
1118.84	0.04855
1128.49	0.0477
1138.13	0.07019
1147.78	0.14101
1157.42	0.30044
1167.07	0.49988
1176.71	0.50535
1186.36	0.21873
1196	0.08012
1205.64	0.07378
1215.29	0.08904
1224.93	0.05906
1234.58	0.06031
1244.22	0.10632
1253.87	0.11174
1263.51	0.10066
1273.16	0.10123
1282.8	0.05816
1292.45	0.06151
1302.09	0.16375
1311.74	0.38516
1321.38	0.2405
1331.03	0.03842
1340.67	0.01958
1350.32	0.0131
1359.96	0.01052
1369.61	0.01106
1379.25	0.01453
1388.9	0.02308
1398.54	0.06604
1408.18	0.14023
1417.83	0.17625
1427.47	0.07718
1437.12	0.02735
1446.76	0.02295
1456.41	0.04069
1466.05	0.11183
1475.7	0.17787
1485.34	0.10418
1494.99	0.0291
1504.63	0.01402
1514.28	0.0097
1523.92	0.0073
1533.57	0.00608
1543.21	0.00498
1552.86	0.00505
1562.5	0.00682
1572.15	0.0141
1581.79	0.03275
1591.44	0.03298
1601.08	0.01537
1610.73	0.01458
1620.37	0.00986
1630.01	0.00604
1639.66	0.00631
1649.3	0.00469
1658.95	0.00324
1668.59	0.00272
1678.24	0.00311
1687.88	0.00368
1697.53	0.00341
1707.17	0.00294
1716.82	0.00266
1726.46	0.0025924
1736.11	0.00302
1745.75	0.00359
1755.4	0.00636
1765.04	0.00824
1774.69	0.00539
1784.33	0.00312
1793.98	0.00277
1803.62	0.0025523
1813.27	0.0022032
1822.91	0.0022695
1832.55	0.00271
1842.2	0.00266
1851.84	0.0021326
1861.49	0.0021559
1871.13	0.00282
1880.78	0.00419
1890.42	0.00558
1900.07	0.00396
1909.71	0.00305
1919.36	0.0025001
1929	0.0022129
1938.65	0.00170128
1948.29	0.00162007
1957.94	0.0016071
1967.58	0.0018469
1977.23	0.001514
1986.87	0.00163875
1996.52	0.00168528
2006.16	0.001559
2015.81	0.001463
2025.45	0.00171286
2035.1	0.0017422
2044.74	0.0015352
2054.38	0.00238
2064.03	0.0026227
2073.67	0.0022789
2083.32	0.0016293
2092.96	0.00172599
2102.61	0.0025817
2112.25	0.00304
2121.9	0.00332
2131.54	0.0025357
2141.19	0.0021897
2150.83	0.0019925
2160.48	0.0019698
2170.12	0.0020997
2179.77	0.0017639
2189.41	0.0018245
2199.06	0.00164983
2208.7	0.0021685
2218.35	0.0019924
2227.99	0.0019651
2237.64	0.0021813
2247.28	0.0021136
2256.92	0.0022362
2266.57	0.0024093
2276.21	0.002408
2285.86	0.0019883
2295.5	0.0021763
2305.15	0.0019697
2314.79	0.0024016
2324.44	0.00287
2334.08	0.0029
2343.73	0.00294
2353.37	0.00279
2363.02	0.0025487
2372.66	0.00272
2382.31	0.0026234
2391.95	0.0023438
2401.6	0.002168
2411.24	0.0022635
2420.89	0.0023668
2430.53	0.0024811
2440.18	0.0018288
2449.82	0.0019381
2459.47	0.0019236
2469.11	0.0020509
2478.75	0.00284
2488.4	0.00314
2498.04	0.0021237
2507.69	0.0022256
2517.33	0.0020442
2526.98	0.0019902
2536.62	0.0020996
2546.27	0.00169308
2555.91	0.0015553
2565.56	0.0015439
2575.2	0.001476
2584.85	0.00162931
2594.49	0.001427
2604.14	0.001375
2613.78	0.001591
2623.43	0.001355
2633.07	0.0019206
2642.72	0.001459
2652.36	0.001332
2662.01	0.001428
2671.65	0.0017173
2681.29	0.001331
2690.94	0.001214
2700.58	0.0015863
2710.23	0.0019461
2719.87	0.00174
2729.52	0.0020229
2739.16	0.001497
2748.81	0.001101
2758.45	0.001344
2768.1	0.0016103
2777.74	0.001223
2787.39	0.001427
2797.03	0.0015855
2806.68	0.001507
2816.32	0.0016053
2825.97	0.00163096
2835.61	0.0021413
2845.26	0.0019041
2854.9	0.0017322
2864.55	0.00166266
2874.19	0.0022301
2883.84	0.0016197
2893.48	0.00166428
2903.12	0.001331
2912.77	0.001182
2922.41	0.0015787
2932.06	0.001233
2941.7	0.001078
2951.35	0.001401
2960.99	0.001496
2970.64	0.001371
2980.28	0.000886
2989.93	0.001439
2999.57	0.001564
3009.22	0.001184
3018.86	0.0011
3028.51	0.00172335
3038.15	0.0018081
3047.8	0.0017143
3057.44	0.001243
3067.09	0.0017647
3076.73	0.00322
3086.38	0.00511
3096.02	0.00555
3105.67	0.0039
3115.31	0.0022305
3124.95	0.0017862
3134.6	0.0019794
3144.24	0.0014
3153.89	0.00122
3163.53	0.000879
3173.18	0.001566
3182.82	0.001336
3192.47	0.000646
3202.11	0.000931
3211.76	0.001137
3221.4	0.001143
3231.05	0.001118
3240.69	0.001169
3250.34	0.001277
3259.98	0.0017691
3269.63	0.001262
3279.27	0.000912
3288.92	0.001447
3298.56	0.001252
3308.21	0.001102
3317.85	0.00062
3327.49	0.001443
3337.14	0.000756
3346.78	0.001248
3356.43	0.001326
3366.07	0.00142
3375.72	0.001081
3385.36	0.000948
3395.01	0.00171992
3404.65	0.001019
3414.3	0.00113
3423.94	0.000987
3433.59	0.001212
3443.23	0.0018246
3452.88	0.00039
3462.52	0.001374
3472.17	0.001081
3481.81	0.0015334
3491.46	0.001332
3501.1	0.001373
3510.75	0.001314
3520.39	0.001252
3530.04	0.000894
3539.68	0.00122
3549.32	0.001309
3558.97	0.001201
3568.61	0.001273
3578.26	0.000867
3587.9	0.001016
3597.55	0.000684
3607.19	0.00062
3616.84	0.000785
3626.48	0.001173
3636.13	0.001191
3645.77	0.0015982
3655.42	0.000692
3665.06	0
3674.71	0.001138
3684.35	0.001475
3694	0.001092
3703.64	0.001318
3713.29	0.0015544
3722.93	0.001155
3732.58	0.001057
3742.22	0.00061
3751.86	0.00165404
3761.51	0.001807
3771.15	0.0017314
3780.8	0.001008
3790.44	0.001289
3800.09	0.001325
3809.73	0.00101
3819.38	0.0018261
3829.02	0.00098
3838.67	0.000859
3848.31	0.001209
3857.96	0.001115
3867.6	0.00162889
3877.25	0.001367
3886.89	0.0017747
3896.54	0.000794
3906.18	0.000953
3915.83	0.001381
3925.47	0.00170538
3935.12	0.00042
3944.76	0.00026
3954.41	0.001334
3964.05	0.00096
3973.69	0.001727
3983.34	0.00164119
3992.98	0.00164725
