Infrared Spectrum: 4-Bromo-3-fluorobenzotrifluoride
Formula: C 7 H 3 Br F 4
CAS: 40161-54-4
State: gas
Origin: EPA-IR VAPOR PHASE LIBRARY
1/CM	ABSORBANCE
549.8	0.016268
559.445	0.007628
569.09	0.002618
578.734	0.001578
588.379	0.003618
598.024	0.004438
607.669	0.001768
617.313	0.001788
626.958	0.001998
636.603	0.004288
646.248	0.009558
655.893	0.006628
665.537	0.003198
675.182	0.002058
684.827	0.002038
694.472	0.003158
704.116	0.005508
713.761	0.006048
723.406	0.003388
733.051	0.004878
742.695	0.044078
752.34	0.023868
761.985	0.003768
771.63	0.002868
781.275	0.002258
790.919	0.002548
800.564	0.006428
810.209	0.019848
819.854	0.033638
829.498	0.020708
839.143	0.006258
848.788	0.003028
858.433	0.004788
868.078	0.015638
877.722	0.036288
887.367	0.038908
897.012	0.036328
906.657	0.058618
916.301	0.053078
925.946	0.015478
935.591	0.007288
945.236	0.004098
954.88	0.002928
964.525	0.003328
974.17	0.003088
983.815	0.003508
993.46	0.002288
1003.1	0.002668
1012.75	0.002908
1022.39	0.006138
1032.04	0.012178
1041.68	0.026208
1051.33	0.017138
1060.97	0.037498
1070.62	0.148308
1080.26	0.108348
1089.91	0.036768
1099.55	0.030908
1109.2	0.028568
1118.84	0.028028
1128.49	0.062988
1138.13	0.167308
1147.78	0.289848
1157.42	0.322888
1167.07	0.209158
1176.71	0.274198
1186.36	0.165728
1196	0.061108
1205.64	0.033198
1215.29	0.057268
1224.93	0.113958
1234.58	0.040238
1244.22	0.040558
1253.87	0.037918
1263.51	0.023178
1273.16	0.024768
1282.8	0.023758
1292.45	0.024678
1302.09	0.024978
1311.74	0.060758
1321.38	0.257688
1331.03	0.450848
1340.67	0.159378
1350.32	0.029718
1359.96	0.021958
1369.61	0.014608
1379.25	0.011658
1388.9	0.017508
1398.54	0.034058
1408.18	0.058598
1417.83	0.121048
1427.47	0.141568
1437.12	0.050138
1446.76	0.018338
1456.41	0.014998
1466.05	0.016278
1475.7	0.021928
1485.34	0.039748
1494.99	0.039018
1504.63	0.013278
1514.28	0.004848
1523.92	0.003598
1533.57	0.004278
1543.21	0.004058
1552.86	0.005818
1562.5	0.009658
1572.15	0.016298
1581.79	0.021018
1591.44	0.019028
1601.08	0.021128
1610.73	0.022248
1620.37	0.010288
1630.01	0.007828
1639.66	0.006648
1649.3	0.004338
1658.95	0.003198
1668.59	0.002558
1678.24	0.002438
1687.88	0.002158
1697.53	0.002068
1707.17	0.002048
1716.82	0.002028
1726.46	0.001748
1736.11	0.002458
1745.75	0.003498
1755.4	0.006178
1765.04	0.007468
1774.69	0.003988
1784.33	0.002168
1793.98	0.002028
1803.62	0.001678
1813.27	0.001808
1822.91	0.002068
1832.55	0.002108
1842.2	0.001928
1851.84	0.001708
1861.49	0.001478
1871.13	0.001478
1880.78	0.002238
1890.42	0.003778
1900.07	0.003898
1909.71	0.002648
1919.36	0.002188
1929	0.001708
1938.65	0.001408
1948.29	0.001378
1957.94	0.0012066
1967.58	0.0012747
1977.23	0.0011999
1986.87	0.0010816
1996.52	0.001328
2006.16	0.0012187
2015.81	0.0011629
2025.45	0.0011318
2035.1	0.0011818
2044.74	0.001289
2054.38	0.001348
2064.03	0.001708
2073.67	0.002258
2083.32	0.001878
2092.96	0.0013172
2102.61	0.001378
2112.25	0.0012267
2121.9	0.001688
2131.54	0.002068
2141.19	0.001908
2150.83	0.001418
2160.48	0.0013161
2170.12	0.001538
2179.77	0.0011735
2189.41	0.0010935
2199.06	0.001418
2208.7	0.001638
2218.35	0.001698
2227.99	0.001808
2237.64	0.001948
2247.28	0.001758
2256.92	0.001708
2266.57	0.001808
2276.21	0.001948
2285.86	0.002038
2295.5	0.002398
2305.15	0.002308
2314.79	0.002338
2324.44	0.001928
2334.08	0.001918
2343.73	0.001868
2353.37	0.001888
2363.02	0.001658
2372.66	0.001628
2382.31	0.001578
2391.95	0.001378
2401.6	0.0011663
2411.24	0.001728
2420.89	0.001378
2430.53	0.0010544
2440.18	0.000814
2449.82	0.0013092
2459.47	0.001738
2469.11	0.001768
2478.75	0.001518
2488.4	0.001748
2498.04	0.001678
2507.69	0.002288
2517.33	0.002098
2526.98	0.001488
2536.62	0.0012929
2546.27	0.001608
2555.91	0.001708
2565.56	0.001508
2575.2	0.001678
2584.85	0.001558
2594.49	0.0010326
2604.14	0.0010039
2613.78	0.0009902
2623.43	0.000912
2633.07	0.0006848
2642.72	0.0012004
2652.36	0.001828
2662.01	0.0011262
2671.65	0.0008699
2681.29	0.0008765
2690.94	0.0011334
2700.58	0.0009595
2710.23	0.0012532
2719.87	0.0008387
2729.52	0.0011248
2739.16	0.0011456
2748.81	0.001418
2758.45	0.0008986
2768.1	0.0008101
2777.74	0.0012191
2787.39	0.0005593
2797.03	0.0007861
2806.68	0.0011878
2816.32	0.0012049
2825.97	0.0010711
2835.61	0.0011399
2845.26	0.0005984
2854.9	0.0011353
2864.55	0.0008972
2874.19	0.0008523
2883.84	0.001528
2893.48	0.0008479
2903.12	0.001388
2912.77	0.0007907
2922.41	0.0011566
2932.06	0.001548
2941.7	0.0011278
2951.35	0.0010654
2960.99	0.0007608
2970.64	0.000319835
2980.28	0.0012709
2989.93	0.0010114
2999.57	0.0008329
3009.22	0.0008048
3018.86	0.0009511
3028.51	0.001338
3038.15	0.0009976
3047.8	0.001668
3057.44	0.001648
3067.09	0.001658
3076.73	0.002248
3086.38	0.003198
3096.02	0.001438
3105.67	0.001758
3115.31	0.0010941
3124.95	0.0006884
3134.6	0.00036804
3144.24	0.0008585
3153.89	0.0008123
3163.53	0.0008517
3173.18	0.0010477
3182.82	0.0007737
3192.47	0.001498
3202.11	0.001428
3211.76	0.0012042
3221.4	0.0008574
3231.05	0.0010958
3240.69	0.0010118
3250.34	0.0009957
3259.98	0.0011551
3269.63	0.0011948
3279.27	0.0010043
3288.92	0.0007844
3298.56	0.0012195
3308.21	0.0006857
3317.85	0.0010486
3327.49	0.0006822
3337.14	0.0011412
3346.78	0.001318
3356.43	0.0003072
3366.07	0.0006723
3375.72	0.0011771
3385.36	0.001418
3395.01	0.0011478
3404.65	0.0009647
3414.3	0.0009579
3423.94	0.001368
3433.59	0.0009785
3443.23	0.001618
3452.88	0.0006142
3462.52	0.00040233
3472.17	0.000158
3481.81	0.0010492
3491.46	0.00034337
3501.1	0.0011981
3510.75	0.001368
3520.39	0.0008903
3530.04	0.001408
3539.68	0.0009098
3549.32	0.000981
3558.97	0.0010947
3568.61	0.000831
3578.26	0.001418
3587.9	0.001408
3597.55	0.0011315
3607.19	0.0007801
3616.84	0.0012529
3626.48	0.0009231
3636.13	0.0009664
3645.77	0.0012431
3655.42	0.0012393
3665.06	0.001528
3674.71	0.0002232
3684.35	0.0007305
3694	0.0005612
3703.64	0.000578
3713.29	0.0006948
3722.93	0.0011201
3732.58	0.001189
3742.22	0.0005125
3751.86	0.0008419
3761.51	0.0011721
3771.15	0.0008488
3780.8	0.001588
3790.44	0.0010079
3800.09	0.0002329
3809.73	0.001221
3819.38	0.0010756
3829.02	0.0007716
3838.67	0.00033747
3848.31	0.0008613
3857.96	0.0008839
3867.6	0.001658
3877.25	0.0008385
3886.89	0.0006309
3896.54	0.001023
3906.18	0.0012366
3915.83	0.0010784
3925.47	0.0011411
3935.12	0.0004218
3944.76	0.0008593
3954.41	0.001284
3964.05	0.0008907
3973.69	0.001368
3983.34	0.0011332
3992.98	0.001568
