Infrared Spectrum: PHENETHYL ALCOHOL, 2,5-DIMETHOXY-Alpha-METHYL-
Formula: C11 H16 O3
CAS: 40180-96-9
State: LIQUID (NEAT)
Class: COBLENTZ III
Instrument: PERKIN-ELMER 521 (GRATING)
Instrument parameters: FILTERS AT 3150, 2500, 2000, 1150, 700, 410 CM ^-^1, GRATING CHANGES AT 2000, 630 CM^-^1
Sampling: TRANSMISSION
Path length: CAPILLARY
Resolution: 4
Origin: SOUTHERN RES. INSTITUTE
1/CM	TRANSMITTANCE
231.498	0.631
240.773	0.649
250.049	0.68
259.324	0.707
268.599	0.731
277.875	0.754
287.15	0.772
296.426	0.78
305.701	0.784
314.976	0.787
324.252	0.79
333.527	0.792
342.802	0.801
352.078	0.804
361.353	0.805
370.629	0.804
379.904	0.801
389.179	0.798
398.455	0.797
407.73	0.801
417.005	0.795
426.281	0.779
435.556	0.771
444.832	0.751
454.107	0.719
463.382	0.704
472.658	0.713
481.933	0.747
491.208	0.764
500.484	0.767
509.759	0.764
519.035	0.758
528.31	0.754
537.585	0.756
546.861	0.75
556.136	0.757
565.411	0.757
574.687	0.751
583.962	0.751
593.237	0.759
602.513	0.767
611.788	0.767
621.064	0.767
630.339	0.772
639.614	0.785
648.89	0.789
658.165	0.795
667.44	0.796
676.716	0.794
685.991	0.762
695.267	0.656
704.542	0.514
713.817	0.669
723.093	0.632
732.368	0.757
741.643	0.82
750.919	0.823
760.194	0.803
769.47	0.805
778.745	0.773
788.02	0.595
797.296	0.561
806.571	0.683
815.846	0.747
825.122	0.571
834.397	0.706
843.672	0.803
852.948	0.771
862.223	0.744
871.499	0.73
880.774	0.775
890.049	0.801
899.325	0.807
908.6	0.73
917.875	0.67
927.151	0.639
936.426	0.643
945.702	0.701
954.977	0.784
964.252	0.818
973.528	0.814
982.803	0.793
992.078	0.773
1001.35	0.674
1010.63	0.478
1019.9	0.397
1029.18	0.454
1038.46	0.252
1047.73	0.336
1057.01	0.395
1066.28	0.443
1075.56	0.513
1084.83	0.609
1094.11	0.575
1103.38	0.509
1112.66	0.474
1121.93	0.519
1131.21	0.617
1140.48	0.625
1149.76	0.511
1159.04	0.619
1168.31	0.43
1177.59	0.464
1186.86	0.559
1196.14	0.484
1205.41	0.259
1214.69	0.113
1223.96	0.198
1233.24	0.404
1242.51	0.557
1251.79	0.551
1261.06	0.548
1270.34	0.458
1279.61	0.481
1288.89	0.545
1298.17	0.53
1307.44	0.578
1316.72	0.625
1325.99	0.689
1335.27	0.702
1344.54	0.69
1353.82	0.699
1363.09	0.61
1372.37	0.649
1381.64	0.673
1390.92	0.649
1400.19	0.614
1409.47	0.5
1418.75	0.439
1428.02	0.503
1437.3	0.444
1446.57	0.386
1455.85	0.316
1465.12	0.427
1474.4	0.537
1483.67	0.254
1492.95	0.122
1502.22	0.296
1511.5	0.575
1520.77	0.706
1530.05	0.763
1539.33	0.787
1548.6	0.809
1557.88	0.81
1567.15	0.791
1576.43	0.737
1585.7	0.655
1594.98	0.721
1604.25	0.731
1613.53	0.764
1622.8	0.801
1632.08	0.817
1641.35	0.818
1650.63	0.82
1659.91	0.823
1669.18	0.825
1678.46	0.827
1687.73	0.83
1697.01	0.829
1706.28	0.821
1715.56	0.812
1724.83	0.81
1734.11	0.812
1743.38	0.828
1752.66	0.843
1761.93	0.845
1771.21	0.845
1780.48	0.844
1789.76	0.843
1799.04	0.842
1808.31	0.842
1817.59	0.841
1826.86	0.841
1836.14	0.842
1845.41	0.843
1854.69	0.846
1863.96	0.852
1873.24	0.855
1882.51	0.857
1891.79	0.858
1901.06	0.858
1910.34	0.857
1919.62	0.855
1928.89	0.853
1938.17	0.848
1947.44	0.843
1956.72	0.838
1965.99	0.835
1975.27	0.836
1984.54	0.835
1993.82	0.832
2003.09	0.845
2012.37	0.839
2021.64	0.843
2030.92	0.844
2040.2	0.841
2049.47	0.838
2058.75	0.835
2068.02	0.841
2077.3	0.849
2086.57	0.854
2095.85	0.856
2105.12	0.857
2114.4	0.857
2123.67	0.856
2132.95	0.855
2142.22	0.855
2151.5	0.855
2160.78	0.854
2170.05	0.855
2179.33	0.857
2188.6	0.857
2197.88	0.858
2207.15	0.858
2216.43	0.858
2225.7	0.857
2234.98	0.856
2244.25	0.856
2253.53	0.856
2262.8	0.857
2272.08	0.857
2281.36	0.858
2290.63	0.857
2299.91	0.856
2309.18	0.854
2318.46	0.854
2327.73	0.854
2337.01	0.855
2346.28	0.854
2355.56	0.854
2364.83	0.855
2374.11	0.855
2383.38	0.855
2392.66	0.854
2401.93	0.854
2411.21	0.851
2420.49	0.85
2429.76	0.848
2439.04	0.848
2448.31	0.845
2457.59	0.841
2466.86	0.837
2476.14	0.833
2485.41	0.834
2494.69	0.836
2503.96	0.838
2513.24	0.838
2522.51	0.837
2531.79	0.837
2541.07	0.837
2550.34	0.836
2559.62	0.836
2568.89	0.834
2578.17	0.832
2587.44	0.831
2596.72	0.831
2605.99	0.83
2615.27	0.829
2624.54	0.829
2633.82	0.829
2643.09	0.829
2652.37	0.828
2661.65	0.828
2670.92	0.828
2680.2	0.828
2689.47	0.828
2698.75	0.826
2708.02	0.824
2717.3	0.823
2726.57	0.822
2735.85	0.821
2745.12	0.82
2754.4	0.818
2763.67	0.814
2772.95	0.808
2782.23	0.804
2791.5	0.797
2800.78	0.777
2810.05	0.752
2819.33	0.659
2828.6	0.487
2837.88	0.582
2847.15	0.667
2856.43	0.659
2865.7	0.637
2874.98	0.619
2884.25	0.582
2893.53	0.542
2902.8	0.495
2912.08	0.466
2921.36	0.447
2930.63	0.436
2939.91	0.439
2949.18	0.43
2958.46	0.408
2967.73	0.446
2977.01	0.535
2986.28	0.566
2995.56	0.6
3004.83	0.685
3014.11	0.733
3023.38	0.754
3032.66	0.763
3041.94	0.77
3051.21	0.771
3060.49	0.772
3069.76	0.777
3079.04	0.787
3088.31	0.794
3097.59	0.796
3106.86	0.793
3116.14	0.792
3125.41	0.794
3134.69	0.797
3143.96	0.787
3153.24	0.775
3162.52	0.771
3171.79	0.76
3181.07	0.753
3190.34	0.747
3199.62	0.735
3208.89	0.724
3218.17	0.716
3227.44	0.707
3236.72	0.695
3245.99	0.682
3255.27	0.669
3264.54	0.654
3273.82	0.64
3283.1	0.626
3292.37	0.612
3301.65	0.6
3310.92	0.589
3320.2	0.576
3329.47	0.563
3338.75	0.553
3348.02	0.542
3357.3	0.535
3366.57	0.528
3375.85	0.521
3385.12	0.515
3394.4	0.511
3403.67	0.508
3412.95	0.505
3422.23	0.507
3431.5	0.511
3440.78	0.518
3450.05	0.525
3459.33	0.535
3468.6	0.545
3477.88	0.555
3487.15	0.567
3496.43	0.579
3505.7	0.589
3514.98	0.605
3524.25	0.617
3533.53	0.629
3542.81	0.641
3552.08	0.655
3561.36	0.673
3570.63	0.691
3579.91	0.71
3589.18	0.734
3598.46	0.754
3607.73	0.774
3617.01	0.787
3626.28	0.794
3635.56	0.803
3644.83	0.808
3654.11	0.811
3663.39	0.814
3672.66	0.817
3681.94	0.824
3691.21	0.826
3700.49	0.826
3709.76	0.826
3719.04	0.824
3728.31	0.821
3737.59	0.821
3746.86	0.822
3756.14	0.824
3765.41	0.827
3774.69	0.828
3783.97	0.825
3793.24	0.822
