Infrared Spectrum: 3-Amino-4-nitrobenzotrifluoride
Formula: C 7 H 5 F 3 N 2 O 2
CAS: 402-14-2
State: gas
Origin: EPA-IR VAPOR PHASE LIBRARY
1/CM	ABSORBANCE
549.8	0.007581
559.445	0.009101
569.09	0.011121
578.734	0.009291
588.379	0.008971
598.024	0.009961
607.669	0.009731
617.313	0.008831
626.958	0.009051
636.603	0.008411
646.248	0.008321
655.893	0.009551
665.537	0.010771
675.182	0.011311
684.827	0.013601
694.472	0.018841
704.116	0.019301
713.761	0.014851
723.406	0.012171
733.051	0.011081
742.695	0.020251
752.34	0.030071
761.985	0.017221
771.63	0.011951
781.275	0.008001
790.919	0.006981
800.564	0.008341
810.209	0.014181
819.854	0.024711
829.498	0.024981
839.143	0.033551
848.788	0.022671
858.433	0.021371
868.078	0.030681
877.722	0.023271
887.367	0.014781
897.012	0.011961
906.657	0.013901
916.301	0.023071
925.946	0.048891
935.591	0.046071
945.236	0.016401
954.88	0.006291
964.525	0.004871
974.17	0.004801
983.815	0.004991
993.46	0.004811
1003.1	0.005811
1012.75	0.005601
1022.39	0.007821
1032.04	0.014111
1041.68	0.020141
1051.33	0.018181
1060.97	0.011071
1070.62	0.007701
1080.26	0.011081
1089.91	0.027391
1099.55	0.030371
1109.2	0.018121
1118.84	0.018191
1128.49	0.028371
1138.13	0.066031
1147.78	0.158501
1157.42	0.233081
1167.07	0.137521
1176.71	0.166691
1186.36	0.156741
1196	0.067991
1205.64	0.026261
1215.29	0.019431
1224.93	0.023691
1234.58	0.055101
1244.22	0.173411
1253.87	0.189051
1263.51	0.063161
1273.16	0.032661
1282.8	0.024911
1292.45	0.029171
1302.09	0.031371
1311.74	0.036471
1321.38	0.052301
1331.03	0.174891
1340.67	0.242701
1350.32	0.111011
1359.96	0.045921
1369.61	0.018101
1379.25	0.012741
1388.9	0.011731
1398.54	0.012351
1408.18	0.012361
1417.83	0.013811
1427.47	0.032521
1437.12	0.064811
1446.76	0.036831
1456.41	0.013721
1466.05	0.012351
1475.7	0.019171
1485.34	0.031831
1494.99	0.041571
1504.63	0.055471
1514.28	0.100061
1523.92	0.139371
1533.57	0.103621
1543.21	0.044381
1552.86	0.022481
1562.5	0.020551
1572.15	0.027141
1581.79	0.039011
1591.44	0.052981
1601.08	0.054761
1610.73	0.051141
1620.37	0.070121
1630.01	0.095171
1639.66	0.075861
1649.3	0.037431
1658.95	0.017231
1668.59	0.009011
1678.24	0.005791
1687.88	0.004391
1697.53	0.003951
1707.17	0.003881
1716.82	0.003711
1726.46	0.003291
1736.11	0.003021
1745.75	0.002451
1755.4	0.002311
1765.04	0.003271
1774.69	0.003901
1784.33	0.002781
1793.98	0.001971
1803.62	0.002141
1813.27	0.001881
1822.91	0.001761
1832.55	0.001541
1842.2	0.0013936
1851.84	0.001471
1861.49	0.001491
1871.13	0.001621
1880.78	0.001841
1890.42	0.001921
1900.07	0.002501
1909.71	0.002501
1919.36	0.002021
1929	0.001651
1938.65	0.0013683
1948.29	0.0010078
1957.94	0.00114
1967.58	0.0010839
1977.23	0.0010727
1986.87	0.0011263
1996.52	0.001451
2006.16	0.0012946
2015.81	0.0011882
2025.45	0.0011396
2035.1	0.0010922
2044.74	0.0013269
2054.38	0.001451
2064.03	0.001431
2073.67	0.001541
2083.32	0.001661
2092.96	0.001881
2102.61	0.001511
2112.25	0.0012932
2121.9	0.001451
2131.54	0.0011424
2141.19	0.0013067
2150.83	0.001671
2160.48	0.0013632
2170.12	0.001741
2179.77	0.001621
2189.41	0.0013497
2199.06	0.001601
2208.7	0.0013496
2218.35	0.001511
2227.99	0.001491
2237.64	0.001871
2247.28	0.001501
2256.92	0.001511
2266.57	0.001721
2276.21	0.001851
2285.86	0.001811
2295.5	0.001901
2305.15	0.001831
2314.79	0.001681
2324.44	0.001781
2334.08	0.002141
2343.73	0.002461
2353.37	0.002231
2363.02	0.002341
2372.66	0.002291
2382.31	0.002151
2391.95	0.001721
2401.6	0.001651
2411.24	0.001691
2420.89	0.001691
2430.53	0.001591
2440.18	0.001891
2449.82	0.001881
2459.47	0.001581
2469.11	0.001751
2478.75	0.001791
2488.4	0.0013189
2498.04	0.001341
2507.69	0.001481
2517.33	0.001471
2526.98	0.001491
2536.62	0.0012637
2546.27	0.001631
2555.91	0.0013767
2565.56	0.001491
2575.2	0.001471
2584.85	0.001441
2594.49	0.001671
2604.14	0.001741
2613.78	0.001561
2623.43	0.001601
2633.07	0.0012574
2642.72	0.001511
2652.36	0.001671
2662.01	0.001871
2671.65	0.002101
2681.29	0.001941
2690.94	0.001921
2700.58	0.001891
2710.23	0.0013989
2719.87	0.001471
2729.52	0.0013045
2739.16	0.001491
2748.81	0.0013734
2758.45	0.001481
2768.1	0.001551
2777.74	0.001681
2787.39	0.001901
2797.03	0.001771
2806.68	0.002051
2816.32	0.002051
2825.97	0.002001
2835.61	0.002011
2845.26	0.002501
2854.9	0.002711
2864.55	0.002041
2874.19	0.001701
2883.84	0.001621
2893.48	0.001541
2903.12	0.001621
2912.77	0.001451
2922.41	0.001851
2932.06	0.001761
2941.7	0.002171
2951.35	0.001761
2960.99	0.001901
2970.64	0.001591
2980.28	0.001384
2989.93	0.0013116
2999.57	0.0011329
3009.22	0.0008616
3018.86	0.001541
3028.51	0.001461
3038.15	0.001821
3047.8	0.002551
3057.44	0.002681
3067.09	0.003451
3076.73	0.002911
3086.38	0.002331
3096.02	0.002021
3105.67	0.002481
3115.31	0.001691
3124.95	0.0014215
3134.6	0.0008875
3144.24	0.0012106
3153.89	0.0012723
3163.53	0.001324
3173.18	0.001781
3182.82	0.001531
3192.47	0.001287
3202.11	0.001389
3211.76	0.001471
3221.4	0.0010659
3231.05	0.0011707
3240.69	0.0009156
3250.34	0.0007724
3259.98	0.0008607
3269.63	0.000439512
3279.27	0.0003502
3288.92	0.0005933
3298.56	0.0008366
3308.21	0.0008169
3317.85	0.0008763
3327.49	0.00047524
3337.14	0.0009267
3346.78	0.0008638
3356.43	0.0007015
3366.07	0.001561
3375.72	0.002571
3385.36	0.006531
3395.01	0.015271
3404.65	0.032551
3414.3	0.041001
3423.94	0.020781
3433.59	0.006611
3443.23	0.003241
3452.88	0.002541
3462.52	0.001861
3472.17	0.002821
3481.81	0.003691
3491.46	0.006061
3501.1	0.008431
3510.75	0.014261
3520.39	0.021651
3530.04	0.025241
3539.68	0.020061
3549.32	0.010501
3558.97	0.003991
3568.61	0.002211
3578.26	0.0010565
3587.9	0.0007762
3597.55	0.0007131
3607.19	0.0007655
3616.84	0.0011528
3626.48	0.000440875
3636.13	0.000864
3645.77	0
3655.42	0.001083
3665.06	0.0009628
3674.71	0.0006616
3684.35	0.000615
3694	0.0009622
3703.64	0.000309
3713.29	0.0007917
3722.93	0.0007036
3732.58	0.0013895
3742.22	0.0009681
3751.86	0.0005958
3761.51	0.0010902
3771.15	0.0009169
3780.8	0.0011493
3790.44	0.00046662
3800.09	0.000293
3809.73	0.001601
3819.38	0.0009249
3829.02	0.000126
3838.67	0.0013938
3848.31	0.00051452
3857.96	0.0006587
3867.6	0.0009782
3877.25	0.0008387
3886.89	0.0013039
3896.54	0.0012071
3906.18	0.0008638
3915.83	0.0005445
3925.47	0.0007155
3935.12	0.0007382
3944.76	0.00052289
3954.41	0.0007353
3964.05	0.0008837
3973.69	0.0012474
3983.34	0.0007971
3992.98	0.0011632
