Infrared Spectrum: p-Fluorobenzenesulfonamide
Formula: C6 H6 F N O2 S
CAS: 402-46-0
State: SOLID (SPLIT MULL)
Class: COBLENTZ III
Instrument: BECKMAN IR-9 (GRATING)
Instrument parameters: ORDER CHANGES: 670, 1200, 2000 CM^-^1
Sampling: TRANSMISSION
Resolution: 2
Origin: DOW CHEMICAL COMPANY
1/CM	TRANSMITTANCE
3800	0.5735
3791	0.5753
3782	0.5775
3773	0.5794
3764	0.581
3755	0.5828
3746	0.5852
3737	0.5876
3728	0.5901
3719	0.5927
3710	0.5954
3701	0.5981
3692	0.6009
3683	0.6038
3674	0.6069
3665	0.6099
3656	0.6126
3647	0.6151
3638	0.6176
3629	0.6201
3620	0.623
3611	0.6268
3602	0.6307
3593	0.6345
3584	0.6383
3575	0.6421
3566	0.6458
3557	0.6491
3548	0.6522
3539	0.6558
3530	0.6593
3521	0.6618
3512	0.6644
3503	0.6667
3494	0.6665
3485	0.6671
3476	0.6755
3467	0.6838
3458	0.6908
3449	0.6961
3440	0.6993
3431	0.6985
3422	0.6826
3413	0.6428
3404	0.5796
3395	0.4814
3386	0.3557
3377	0.1752
3368	0.0711
3359	0.1119
3350	0.2009
3341	0.2894
3332	0.3376
3323	0.3512
3314	0.352
3305	0.3338
3296	0.2807
3287	0.2117
3278	0.0352
3269	0.0182
3260	0.0245
3251	0.0953
3242	0.1992
3233	0.237
3224	0.2769
3215	0.341
3206	0.3779
3197	0.4059
3188	0.4274
3179	0.4428
3170	0.4529
3161	0.4584
3152	0.457
3143	0.4445
3134	0.4192
3125	0.3784
3116	0.3436
3107	0.357
3098	0.4598
3089	0.4915
3080	0.488
3071	0.5038
3062	0.5454
3053	0.5682
3044	0.5857
3035	0.5965
3026	0.6049
3017	0.6118
3008	0.6173
2999	0.6219
2990	0.6262
2981	0.6312
2972	0.6375
2963	0.6425
2954	0.6433
2945	0.6426
2936	0.6431
2927	0.6454
2918	0.6515
2909	0.6562
2900	0.661
2891	0.6649
2882	0.67
2873	0.6755
2864	0.6772
2855	0.6786
2846	0.6806
2837	0.6838
2828	0.6871
2819	0.6904
2810	0.6931
2801	0.6944
2792	0.6944
2783	0.6951
2774	0.6982
2765	0.7028
2756	0.7071
2747	0.7078
2738	0.7092
2729	0.7108
2720	0.7132
2711	0.7158
2702	0.7182
2693	0.7208
2684	0.7222
2675	0.7234
2666	0.7242
2657	0.7247
2648	0.7251
2639	0.7242
2630	0.7221
2621	0.719
2612	0.7161
2603	0.7142
2594	0.7218
2585	0.7293
2576	0.7356
2567	0.7408
2558	0.7449
2549	0.7485
2540	0.749
2531	0.7492
2522	0.7491
2513	0.7488
2504	0.7478
2495	0.7467
2486	0.7451
2477	0.7453
2468	0.7468
2459	0.7503
2450	0.7544
2441	0.7574
2432	0.7526
2423	0.7508
2414	0.7526
2405	0.7546
2396	0.7562
2387	0.7586
2378	0.7614
2369	0.7625
2360	0.7621
2351	0.7608
2342	0.7597
2333	0.7588
2324	0.7588
2315	0.7625
2306	0.7678
2297	0.7728
2288	0.7757
2279	0.7738
2270	0.7701
2261	0.7696
2252	0.7789
2243	0.7867
2234	0.7943
2225	0.8021
2216	0.8101
2207	0.8134
2198	0.8132
2189	0.8115
2180	0.8141
2171	0.8176
2162	0.8216
2153	0.8254
2144	0.8283
2135	0.8305
2126	0.8324
2117	0.8341
2108	0.8355
2099	0.8377
2090	0.8404
2081	0.8415
2072	0.8413
2063	0.8391
2054	0.84
2045	0.8443
2036	0.8486
2027	0.8525
2018	0.8581
2009	0.864
2000	0.8631
1991	0.851
1982	0.8523
1973	0.858
1964	0.8649
1955	0.8711
1946	0.8718
1937	0.8652
1928	0.8627
1919	0.8453
1910	0.7947
1901	0.8428
1892	0.8548
1883	0.8743
1874	0.8794
1865	0.8817
1856	0.8817
1847	0.8807
1838	0.8821
1829	0.8818
1820	0.8823
1811	0.8823
1802	0.8814
1793	0.8732
1784	0.8532
1775	0.8668
1766	0.8804
1757	0.8865
1748	0.8921
1739	0.8942
1730	0.8916
1721	0.8845
1712	0.8921
1703	0.8907
1694	0.8914
1685	0.8883
1676	0.8895
1667	0.8521
1658	0.8468
1649	0.8756
1640	0.8649
1631	0.8768
1622	0.878
1613	0.8546
1604	0.6541
1595	0.3208
1586	0.156
1577	0.3172
1568	0.328
1559	0.5076
1550	0.64
1541	0.7512
1532	0.789
1523	0.8212
1514	0.7876
1505	0.654
1496	0.1374
1487	0.384
1478	0.7051
1469	0.7668
1460	0.7938
1451	0.8008
1442	0.7957
1433	0.7961
1424	0.771
1415	0.6614
1406	0.5262
1397	0.7294
1388	0.7218
1379	0.7757
1370	0.7793
1361	0.698
1352	0.6333
1343	0.2432
1334	0.0317
1325	0.2055
1316	0.5831
1307	0.694
1298	0.6469
1289	0.17
1280	0.7008
1271	0.7742
1262	0.7954
1253	0.7711
1244	0.6012
1235	0.293
1226	0.3069
1217	0.5119
1208	0.6975
1199	0.7644
1190	0.7533
1181	0.373
1172	0.3612
1163	0.2321
1154	0.0481
1145	0.1749
1136	0.5025
1127	0.6435
1118	0.643
1109	0.6139
1100	0.2678
1091	0.2232
1082	0.6114
1073	0.6754
1064	0.7034
1055	0.7258
1046	0.7772
1037	0.8213
1028	0.8492
1019	0.8575
1010	0.815
1001	0.8725
992	0.8883
983	0.8924
974	0.8897
965	0.8834
956	0.8895
947	0.8139
938	0.8478
929	0.7655
920	0.4466
911	0.3336
902	0.5477
893	0.6944
884	0.7486
875	0.7767
866	0.7815
857	0.7711
848	0.627
839	0.2829
830	0.4062
821	0.6818
812	0.6088
803	0.8171
794	0.8446
785	0.8386
776	0.8307
767	0.8214
758	0.8045
749	0.7728
740	0.7349
731	0.6951
722	0.6435
713	0.6511
704	0.6019
695	0.5112
686	0.4539
677	0.4501
668	0.3147
659	0.6273
650	0.603
641	0.5584
632	0.5078
623	0.4631
614	0.42
605	0.403
596	0.3879
587	0.3637
578	0.3384
569	0.2846
560	0.0452
551	0.1063
542	0.0332
533	0.0553
524	0.064
515	0.0592
506	0.0502
497	0.034
488	0.02
479	0.0072
470	0.0026
461	0.0015
452	0.0079
443	0.022
434	0.0511
425	0.0843
416	0.1208
407	0.1973
