Infrared Spectrum: 3-(Trifluoromethyl)benzyl bromide
Formula: C 8 H 6 Br F 3
CAS: 402-23-3
State: gas
Origin: EPA-IR VAPOR PHASE LIBRARY
1/CM	ABSORBANCE
549.8	0.01317
559.445	0.00753
569.09	0.00872
578.734	0.01541
588.379	0.01785
598.024	0.02241
607.669	0.01335
617.313	0.00793
626.958	0.00585
636.603	0.0065
646.248	0.01476
655.893	0.03139
665.537	0.03959
675.182	0.01726
684.827	0.01944
694.472	0.04369
704.116	0.03785
713.761	0.01203
723.406	0.00474
733.051	0.00438
742.695	0.00793
752.34	0.00825
761.985	0.0035
771.63	0.0047
781.275	0.01187
790.919	0.02669
800.564	0.0271
810.209	0.00957
819.854	0.00362
829.498	0.00318
839.143	0.00228
848.788	0.00272
858.433	0.00291
868.078	0.0048
877.722	0.00919
887.367	0.01769
897.012	0.01933
906.657	0.02211
916.301	0.01305
925.946	0.00572
935.591	0.00412
945.236	0.00237
954.88	0.0018968
964.525	0.00248
974.17	0.00315
983.815	0.00377
993.46	0.0045
1003.1	0.00441
1012.75	0.00429
1022.39	0.00408
1032.04	0.0055
1041.68	0.00572
1051.33	0.00917
1060.97	0.02528
1070.62	0.0783
1080.26	0.10019
1089.91	0.05766
1099.55	0.02396
1109.2	0.02682
1118.84	0.03727
1128.49	0.07745
1138.13	0.20714
1147.78	0.34375
1157.42	0.24314
1167.07	0.19106
1176.71	0.27277
1186.36	0.20952
1196	0.10053
1205.64	0.06097
1215.29	0.09793
1224.93	0.13953
1234.58	0.0489
1244.22	0.02105
1253.87	0.01613
1263.51	0.01655
1273.16	0.01796
1282.8	0.02022
1292.45	0.02855
1302.09	0.0445
1311.74	0.08415
1321.38	0.23492
1331.03	0.41018
1340.67	0.151
1350.32	0.03848
1359.96	0.01376
1369.61	0.0068
1379.25	0.00514
1388.9	0.00544
1398.54	0.00656
1408.18	0.00921
1417.83	0.00876
1427.47	0.01001
1437.12	0.01721
1446.76	0.03226
1456.41	0.02192
1466.05	0.00909
1475.7	0.00623
1485.34	0.00727
1494.99	0.00796
1504.63	0.00396
1514.28	0.00261
1523.92	0.0020989
1533.57	0.0020406
1543.21	0.00262
1552.86	0.00226
1562.5	0.00236
1572.15	0.00266
1581.79	0.00344
1591.44	0.00491
1601.08	0.0051
1610.73	0.00408
1620.37	0.00351
1630.01	0.00343
1639.66	0.00284
1649.3	0.0024
1658.95	0.00263
1668.59	0.00383
1678.24	0.00348
1687.88	0.0023
1697.53	0.0021648
1707.17	0.00346
1716.82	0.00436
1726.46	0.00257
1736.11	0.0020591
1745.75	0.0023
1755.4	0.0025
1765.04	0.00295
1774.69	0.00274
1784.33	0.00259
1793.98	0.00293
1803.62	0.00321
1813.27	0.00293
1822.91	0.00302
1832.55	0.00269
1842.2	0.00239
1851.84	0.0020073
1861.49	0.0015625
1871.13	0.0018549
1880.78	0.0028
1890.42	0.00481
1900.07	0.00333
1909.71	0.0020396
1919.36	0.0021011
1929	0.0020133
1938.65	0.00246
1948.29	0.0031
1957.94	0.00273
1967.58	0.0015271
1977.23	0.0016693
1986.87	0.0017076
1996.52	0.0011189
2006.16	0.00125585
2015.81	0.0013997
2025.45	0.0015171
2035.1	0.0016121
2044.74	0.0015355
2054.38	0.001649
2064.03	0.001844
2073.67	0.0020051
2083.32	0.0017786
2092.96	0.00126055
2102.61	0.0013895
2112.25	0.0011782
2121.9	0.00125161
2131.54	0.0011438
2141.19	0.0011519
2150.83	0.0014096
2160.48	0.0013413
2170.12	0.0011263
2179.77	0.00123231
2189.41	0.0016133
2199.06	0.0016278
2208.7	0.0020262
2218.35	0.0020552
2227.99	0.0019937
2237.64	0.0018068
2247.28	0.0018154
2256.92	0.0021116
2266.57	0.0021082
2276.21	0.0020994
2285.86	0.00252
2295.5	0.00257
2305.15	0.0020491
2314.79	0.0020729
2324.44	0.0017009
2334.08	0.0018383
2343.73	0.00221
2353.37	0.00239
2363.02	0.0014641
2372.66	0.0015824
2382.31	0.00148
2391.95	0.0014593
2401.6	0.0017448
2411.24	0.0015318
2420.89	0.0016417
2430.53	0.00127611
2440.18	0.00127979
2449.82	0.00142
2459.47	0.00127923
2469.11	0.001182
2478.75	0.0016778
2488.4	0.0015313
2498.04	0.0014873
2507.69	0.0014537
2517.33	0.0011321
2526.98	0.00119338
2536.62	0.00121256
2546.27	0.000644
2555.91	0.0012625
2565.56	0.00127808
2575.2	0.000925
2584.85	0.000933
2594.49	0.0013686
2604.14	0.000888
2613.78	0.0011263
2623.43	0.00088
2633.07	0.00121441
2642.72	0.0017593
2652.36	0.0019415
2662.01	0.0020928
2671.65	0.0015803
2681.29	0.001049
2690.94	0.0014255
2700.58	0.000717
2710.23	0.000992
2719.87	0.000855
2729.52	0.00124361
2739.16	0.000717
2748.81	0.0011328
2758.45	0.000972
2768.1	0.0014002
2777.74	0.000863
2787.39	0.000968
2797.03	0.001019
2806.68	0.000951
2816.32	0.0015099
2825.97	0.0013152
2835.61	0.0014344
2845.26	0.0013656
2854.9	0.0014623
2864.55	0.0021569
2874.19	0.0019932
2883.84	0.0015768
2893.48	0.0013831
2903.12	0.00123581
2912.77	0.000952
2922.41	0.0016191
2932.06	0.0021969
2941.7	0.0021537
2951.35	0.0033
2960.99	0.00399
2970.64	0.00622
2980.28	0.009
2989.93	0.00607
2999.57	0.00347
3009.22	0.00316
3018.86	0.00489
3028.51	0.00541
3038.15	0.0052
3047.8	0.00766
3057.44	0.00779
3067.09	0.00891
3076.73	0.00927
3086.38	0.00799
3096.02	0.00482
3105.67	0.00309
3115.31	0.00351
3124.95	0.0021986
3134.6	0.0013719
3144.24	0.000884
3153.89	0.00120365
3163.53	0.001054
3173.18	0.0014938
3182.82	0.00119602
3192.47	0.0011765
3202.11	0.001054
3211.76	0.00028
3221.4	0.0015011
3231.05	0.00123494
3240.69	0.001015
3250.34	0.000965
3259.98	0.000972
3269.63	0.000343
3279.27	0.000817
3288.92	0.0015655
3298.56	0.000911
3308.21	0.0015049
3317.85	0.000591
3327.49	0.0014006
3337.14	0.0011551
3346.78	0.000619
3356.43	0.0013788
3366.07	0.00119258
3375.72	0.000784
3385.36	0.0015335
3395.01	0.00121167
3404.65	0.000754
3414.3	0.000857
3423.94	0.000952
3433.59	0.000707
3443.23	0.001926
3452.88	0.0017921
3462.52	0.0013729
3472.17	0.000605
3481.81	0.000864
3491.46	0.00036
3501.1	0.0013728
3510.75	0.000629
3520.39	0.000576
3530.04	0.001525
3539.68	0.0013252
3549.32	0.000414
3558.97	0.000978
3568.61	0.000634
3578.26	0.001108
3587.9	0.001049
3597.55	0.000582
3607.19	0.000852
3616.84	0.000465
3626.48	0.000817
3636.13	0.0003
3645.77	0.000812
3655.42	0.0014994
3665.06	0.00121138
3674.71	0.0014305
3684.35	0.00086
3694	0.0013321
3703.64	0.000869
3713.29	0.0011668
3722.93	0.001026
3732.58	0.001098
3742.22	0.000846
3751.86	0.001562
3761.51	0.0011307
3771.15	0.000856
3780.8	0.001071
3790.44	0.00129727
3800.09	0.000919
3809.73	0.000958
3819.38	0.001003
3829.02	0.000857
3838.67	0.001614
3848.31	0.0014729
3857.96	0.00119977
3867.6	0.0013229
3877.25	0.000595
3886.89	0.001067
3896.54	0.00128285
3906.18	0.000658
3915.83	0.0011616
3925.47	0.0016917
3935.12	0.0013048
3944.76	0.000686
3954.41	0.001059
3964.05	0.001083
3973.69	0.000717
3983.34	0.0011188
3992.98	0.0005
