Infrared Spectrum: 3-(Trifluoromethyl)phenol
Formula: C 7 H 5 F 3 O
CAS: 402-45-9
State: gas
Origin: EPA-IR VAPOR PHASE LIBRARY
1/CM	ABSORBANCE
549.8	0.0165394
559.445	0.0221694
569.09	0.0262194
578.734	0.0313994
588.379	0.0703294
598.024	0.160739
607.669	0.110189
617.313	0.0263594
626.958	0.0183694
636.603	0.0169894
646.248	0.0109094
655.893	0.0050794
665.537	0.0032194
675.182	0.0025494
684.827	0.0021094
694.472	0.0027294
704.116	0.0025994
713.761	0.0032694
723.406	0.0048394
733.051	0.0063294
742.695	0.0056694
752.34	0.0042894
761.985	0.0043394
771.63	0.0049994
781.275	0.0080294
790.919	0.0159994
800.564	0.0296294
810.209	0.0525294
819.854	0.0890794
829.498	0.138279
839.143	0.158329
848.788	0.0969494
858.433	0.0469494
868.078	0.0185794
877.722	0.0094994
887.367	0.0073094
897.012	0.0075094
906.657	0.0078394
916.301	0.0080494
925.946	0.0088894
935.591	0.0091194
945.236	0.0075694
954.88	0.0065294
964.525	0.0050694
974.17	0.0048194
983.815	0.0049894
993.46	0.0063094
1003.1	0.0171794
1012.75	0.0482894
1022.39	0.0412994
1032.04	0.0162394
1041.68	0.0171394
1051.33	0.0418694
1060.97	0.225979
1070.62	0.398219
1080.26	0.170429
1089.91	0.110089
1099.55	0.177999
1109.2	0.231969
1118.84	0.261689
1128.49	0.412239
1138.13	0.714899
1147.78	0.840479
1157.42	0.770869
1167.07	0.746939
1176.71	0.684989
1186.36	0.595249
1196	0.384209
1205.64	0.129849
1215.29	0.0690194
1224.93	0.0573794
1234.58	0.0659894
1244.22	0.0779394
1253.87	0.149899
1263.51	0.334919
1273.16	0.287109
1282.8	0.0929894
1292.45	0.0951394
1302.09	0.174719
1311.74	0.568869
1321.38	1.10811
1331.03	0.847669
1340.67	0.210389
1350.32	0.142679
1359.96	0.113069
1369.61	0.0405294
1379.25	0.0246194
1388.9	0.0144694
1398.54	0.0148294
1408.18	0.0191294
1417.83	0.0253494
1427.47	0.0342594
1437.12	0.0408794
1446.76	0.0335094
1456.41	0.0182494
1466.05	0.0095094
1475.7	0.0077694
1485.34	0.0086794
1494.99	0.0117794
1504.63	0.0244994
1514.28	0.0821794
1523.92	0.116159
1533.57	0.0579894
1543.21	0.0239494
1552.86	0.0141494
1562.5	0.0143994
1572.15	0.0188894
1581.79	0.0314294
1591.44	0.0796794
1601.08	0.175999
1610.73	0.221049
1620.37	0.189639
1630.01	0.123499
1639.66	0.0590394
1649.3	0.0242894
1658.95	0.0168394
1668.59	0.0192694
1678.24	0.0155194
1687.88	0.0079694
1697.53	0.0062694
1707.17	0.0052594
1716.82	0.0042994
1726.46	0.0047294
1736.11	0.0062594
1745.75	0.0072094
1755.4	0.0085594
1765.04	0.0087094
1774.69	0.0054894
1784.33	0.0039294
1793.98	0.0034594
1803.62	0.0023394
1813.27	0.0025294
1822.91	0.0027894
1832.55	0.0022894
1842.2	0.0023294
1851.84	0.0034694
1861.49	0.0055894
1871.13	0.0077994
1880.78	0.0093894
1890.42	0.0108094
1900.07	0.0103194
1909.71	0.0083694
1919.36	0.0061394
1929	0.0038194
1938.65	0.0023794
1948.29	0.0016994
1957.94	0.0014994
1967.58	0.0016794
1977.23	0.0018494
1986.87	0.0019394
1996.52	0.0023794
2006.16	0.0032094
2015.81	0.0036494
2025.45	0.0030394
2035.1	0.0018094
2044.74	0.0012894
2054.38	0.0017094
2064.03	0.0029794
2073.67	0.0045394
2083.32	0.0044394
2092.96	0.0041594
2102.61	0.0044094
2112.25	0.0028094
2121.9	0.0016194
2131.54	0.0012894
2141.19	0.0012694
2150.83	0.0013494
2160.48	0.0017094
2170.12	0.0015694
2179.77	0.0015694
2189.41	0.0020194
2199.06	0.0024394
2208.7	0.0028394
2218.35	0.0026994
2227.99	0.0026294
2237.64	0.0030694
2247.28	0.0034394
2256.92	0.0043294
2266.57	0.0052694
2276.21	0.0050094
2285.86	0.0038994
2295.5	0.0036594
2305.15	0.0038994
2314.79	0.0041794
2324.44	0.0044594
2334.08	0.0042594
2343.73	0.0037894
2353.37	0.0032694
2363.02	0.0027294
2372.66	0.0023994
2382.31	0.0021394
2391.95	0.0021394
2401.6	0.0023394
2411.24	0.0029594
2420.89	0.0041194
2430.53	0.0054994
2440.18	0.0068394
2449.82	0.0075794
2459.47	0.0063994
2469.11	0.0039894
2478.75	0.0030594
2488.4	0.0027994
2498.04	0.0027794
2507.69	0.0029794
2517.33	0.0037094
2526.98	0.0043394
2536.62	0.0033394
2546.27	0.0015894
2555.91	0.0011094
2565.56	0.0009672
2575.2	0.0011794
2584.85	0.0014794
2594.49	0.0020494
2604.14	0.0023894
2613.78	0.0027594
2623.43	0.0031894
2633.07	0.0037394
2642.72	0.0040194
2652.36	0.0035694
2662.01	0.0024194
2671.65	0.0016294
2681.29	0.0012194
2690.94	0.0008573
2700.58	0.0009078
2710.23	0.0008453
2719.87	0.0004969
2729.52	0.000454
2739.16	0.0003319
2748.81	0.0005097
2758.45	0.0005299
2768.1	0.000897
2777.74	0.0011794
2787.39	0.0012494
2797.03	0.000773
2806.68	0.0004967
2816.32	0.0007001
2825.97	0.0008605
2835.61	0.0012794
2845.26	0.0012694
2854.9	0.0010794
2864.55	0.0005135
2874.19	0.0003618
2883.84	0.0004454
2893.48	0.0004229
2903.12	0.0006632
2912.77	0.0010894
2922.41	0.0020794
2932.06	0.0027294
2941.7	0.0028294
2951.35	0.0024394
2960.99	0.0015994
2970.64	0.0008274
2980.28	0.0007525
2989.93	0.0010454
2999.57	0.0019894
3009.22	0.0046294
3018.86	0.0108994
3028.51	0.0161994
3038.15	0.0171294
3047.8	0.0186494
3057.44	0.0158494
3067.09	0.0100194
3076.73	0.0099394
3086.38	0.0100094
3096.02	0.0070394
3105.67	0.0040094
3115.31	0.0029594
3124.95	0.0028894
3134.6	0.0023794
3144.24	0.0018394
3153.89	0.0012794
3163.53	0.0005385
3173.18	0.0003554
3182.82	0.000429
3192.47	0.0007148
3202.11	0.0011094
3211.76	0.0009284
3221.4	0.0008025
3231.05	0.000879
3240.69	0.0007639
3250.34	0.0005329
3259.98	0.0004678
3269.63	0.00015633
3279.27	0.0003568
3288.92	0.0004772
3298.56	0.0006486
3308.21	0.0012594
3317.85	0.0017694
3327.49	0.0021994
3337.14	0.0021794
3346.78	0.0021494
3356.43	0.0019294
3366.07	0.0019494
3375.72	0.0017194
3385.36	0.0016194
3395.01	0.0014594
3404.65	0.0010794
3414.3	0.0012794
3423.94	0.0011694
3433.59	0.0009737
3443.23	0.0004797
3452.88	0.0008772
3462.52	0.000727
3472.17	0.0005945
3481.81	0.0007093
3491.46	0.0004418
3501.1	0.0003183
3510.75	0.0001687
3520.39	0.0003109
3530.04	3.81e-05
3539.68	0.0004834
3549.32	0.0008271
3558.97	0.0008446
3568.61	0.0008743
3578.26	0.000848
3587.9	0.0012194
3597.55	0.0019494
3607.19	0.0032694
3616.84	0.0080894
3626.48	0.0248294
3636.13	0.0906494
3645.77	0.218009
3655.42	0.172669
3665.06	0.0361594
3674.71	0.0112094
3684.35	0.0040394
3694	0.0022094
3703.64	0.0014394
3713.29	0.0011594
3722.93	0.0010694
3732.58	0.0011594
3742.22	0.0010894
3751.86	0.0010794
3761.51	0.0007515
3771.15	0.0005429
3780.8	0.0004672
3790.44	0.0006358
3800.09	0.0009067
3809.73	0.0007882
3819.38	0.0009676
3829.02	0.0011094
3838.67	0.0009683
3848.31	0.0010994
3857.96	0.0012094
3867.6	0.0016494
3877.25	0.0017394
3886.89	0.0016194
3896.54	0.0017294
3906.18	0.0018794
3915.83	0.0017494
3925.47	0.0016694
3935.12	0.0017794
3944.76	0.0019294
3954.41	0.0017294
3964.05	0.0014994
3973.69	0.0019194
3983.34	0.0012894
3992.98	0.0008359
