Infrared Spectrum: Methyldiphenyl phosphate
Formula: C 13 H 13 O 4 P
CAS: 4020-99-9
State: gas
Origin: EPA-IR VAPOR PHASE LIBRARY
1/CM	ABSORBANCE
549.8	0.024923
559.445	0.021663
569.09	0.023203
578.734	0.022273
588.379	0.015623
598.024	0.009673
607.669	0.008263
617.313	0.009853
626.958	0.006903
636.603	0.005563
646.248	0.005713
655.893	0.007663
665.537	0.011833
675.182	0.020223
684.827	0.037803
694.472	0.031613
704.116	0.017013
713.761	0.012883
723.406	0.014803
733.051	0.021783
742.695	0.037473
752.34	0.059833
761.985	0.074123
771.63	0.072093
781.275	0.038983
790.919	0.021273
800.564	0.021693
810.209	0.038233
819.854	0.060153
829.498	0.047323
839.143	0.017843
848.788	0.011373
858.433	0.011023
868.078	0.012393
877.722	0.014613
887.367	0.018933
897.012	0.027053
906.657	0.035073
916.301	0.046553
925.946	0.084213
935.591	0.196483
945.236	0.377683
954.88	0.446713
964.525	0.240623
974.17	0.105853
983.815	0.070483
993.46	0.049693
1003.1	0.059173
1012.75	0.066063
1022.39	0.085953
1032.04	0.079203
1041.68	0.079953
1051.33	0.152693
1060.97	0.234623
1070.62	0.184713
1080.26	0.099423
1089.91	0.059413
1099.55	0.042773
1109.2	0.034913
1118.84	0.030463
1128.49	0.027263
1138.13	0.026523
1147.78	0.032143
1157.42	0.063993
1167.07	0.104973
1176.71	0.086873
1186.36	0.187613
1196	0.398213
1205.64	0.229253
1215.29	0.114843
1224.93	0.112793
1234.58	0.096763
1244.22	0.056183
1253.87	0.034473
1263.51	0.028193
1273.16	0.027713
1282.8	0.033923
1292.45	0.055113
1302.09	0.084143
1311.74	0.099023
1321.38	0.098663
1331.03	0.068393
1340.67	0.038383
1350.32	0.018813
1359.96	0.011443
1369.61	0.008773
1379.25	0.007733
1388.9	0.007263
1398.54	0.006713
1408.18	0.006223
1417.83	0.006023
1427.47	0.006483
1437.12	0.008623
1446.76	0.013553
1456.41	0.019923
1466.05	0.025683
1475.7	0.049363
1485.34	0.151673
1494.99	0.189193
1504.63	0.060123
1514.28	0.023703
1523.92	0.015063
1533.57	0.011633
1543.21	0.010033
1552.86	0.010703
1562.5	0.014653
1572.15	0.028743
1581.79	0.060503
1591.44	0.092193
1601.08	0.066133
1610.73	0.023893
1620.37	0.010313
1630.01	0.006293
1639.66	0.005003
1649.3	0.004443
1658.95	0.003993
1668.59	0.003763
1678.24	0.003773
1687.88	0.003843
1697.53	0.004223
1707.17	0.004903
1716.82	0.005513
1726.46	0.005143
1736.11	0.003863
1745.75	0.003163
1755.4	0.003223
1765.04	0.004563
1774.69	0.006013
1784.33	0.004583
1793.98	0.003533
1803.62	0.002973
1813.27	0.002493
1822.91	0.002333
1832.55	0.002653
1842.2	0.003323
1851.84	0.004523
1861.49	0.005553
1871.13	0.006283
1880.78	0.006123
1890.42	0.005593
1900.07	0.005223
1909.71	0.005733
1919.36	0.006663
1929	0.007343
1938.65	0.006903
1948.29	0.006123
1957.94	0.004603
1967.58	0.003543
1977.23	0.003463
1986.87	0.003603
1996.52	0.003523
2006.16	0.003013
2015.81	0.002303
2025.45	0.001773
2035.1	0.001573
2044.74	0.0014074
2054.38	0.0012941
2064.03	0.0011901
2073.67	0.0011542
2083.32	0.0009429
2092.96	0.000893
2102.61	0.0008874
2112.25	0.0008349
2121.9	0.000828
2131.54	0.0006801
2141.19	0.0006109
2150.83	0.0005471
2160.48	0.0005334
2170.12	0.0005946
2179.77	0.0006163
2189.41	0.0006329
2199.06	0.0005586
2208.7	0.0007399
2218.35	0.0008299
2227.99	0.0008733
2237.64	0.0009274
2247.28	0.0010886
2256.92	0.0012119
2266.57	0.0012351
2276.21	0.0010047
2285.86	0.00077
2295.5	0.0008212
2305.15	0.0010615
2314.79	0.001453
2324.44	0.001287
2334.08	0.0012512
2343.73	0.0012448
2353.37	0.0013898
2363.02	0.0013554
2372.66	0.0013505
2382.31	0.001473
2391.95	0.001773
2401.6	0.001863
2411.24	0.002023
2420.89	0.002033
2430.53	0.001883
2440.18	0.001543
2449.82	0.0011421
2459.47	0.0009811
2469.11	0.0008169
2478.75	0.0007109
2488.4	0.0006875
2498.04	0.0007043
2507.69	0.0007078
2517.33	0.0008313
2526.98	0.000799
2536.62	0.0009045
2546.27	0.0009348
2555.91	0.0010602
2565.56	0.0010528
2575.2	0.0009506
2584.85	0.0007898
2594.49	0.0008122
2604.14	0.0008336
2613.78	0.0007504
2623.43	0.0008002
2633.07	0.000661
2642.72	0.0005561
2652.36	0.000666
2662.01	0.00050944
2671.65	0.0003681
2681.29	0.0003839
2690.94	0.0005301
2700.58	0.000412638
2710.23	0.000413491
2719.87	0.0003725
2729.52	0.00045502
2739.16	0.0003969
2748.81	0.0003343
2758.45	0.00035
2768.1	0.0003843
2777.74	0.00051265
2787.39	0.00051159
2797.03	0.0005453
2806.68	0.0006703
2816.32	0.000809
2825.97	0.0011661
2835.61	0.001783
2845.26	0.002573
2854.9	0.005243
2864.55	0.010633
2874.19	0.006383
2883.84	0.003223
2893.48	0.003003
2903.12	0.003233
2912.77	0.003783
2922.41	0.004333
2932.06	0.004853
2941.7	0.005693
2951.35	0.009573
2960.99	0.023703
2970.64	0.022563
2980.28	0.009673
2989.93	0.007613
2999.57	0.007893
3009.22	0.008533
3018.86	0.010023
3028.51	0.013153
3038.15	0.017273
3047.8	0.023923
3057.44	0.023193
3067.09	0.024633
3076.73	0.035613
3086.38	0.030403
3096.02	0.015243
3105.67	0.011113
3115.31	0.006263
3124.95	0.003343
3134.6	0.002143
3144.24	0.001453
3153.89	0.0012169
3163.53	0.001114
3173.18	0.0009846
3182.82	0.0010845
3192.47	0.0010485
3202.11	0.0007007
3211.76	0.0006676
3221.4	0.0004738
3231.05	0.00049129
3240.69	0.0005446
3250.34	0.00042476
3259.98	0.000417305
3269.63	0.0003301
3279.27	0.0003907
3288.92	0.000376
3298.56	0.000231
3308.21	0.000299
3317.85	0.00028
3327.49	0.000395
3337.14	0.000171
3346.78	0.0003842
3356.43	0.000234
3366.07	0.000299
3375.72	0.000184
3385.36	0.000269
3395.01	0.00024
3404.65	0.000174
3414.3	0.000222
3423.94	0.000244
3433.59	0.000273
3443.23	0.000227
3452.88	0.000336
3462.52	0.0003463
3472.17	0.0003395
3481.81	0.0003518
3491.46	0.00027
3501.1	0.000304
3510.75	0.000285
3520.39	0.000257
3530.04	0.000302
3539.68	0.0003172
3549.32	0.000283
3558.97	0.0003508
3568.61	0.0003463
3578.26	0.000313
3587.9	0.000288
3597.55	0.000172
3607.19	0.0003788
3616.84	0.000236
3626.48	0.0003917
3636.13	0.0006467
3645.77	0.0005741
3655.42	0.00048712
3665.06	0.0005835
3674.71	0.00049497
3684.35	0.000555
3694	0.00044728
3703.64	0.00047571
3713.29	0.0005162
3722.93	0.0005752
3732.58	0.00045399
3742.22	0.0003187
3751.86	0.000414366
3761.51	0.00040524
3771.15	0.0003548
3780.8	0.00046524
3790.44	0.0006044
3800.09	0.0005235
3809.73	0.000548
3819.38	0.0005614
3829.02	0.0005016
3838.67	0.0003813
3848.31	0.0004636
3857.96	0.000522
3867.6	0.00044587
3877.25	0.00045
3886.89	0.0003748
3896.54	0.00042475
3906.18	0.0005637
3915.83	0.00049816
3925.47	0.00045738
3935.12	0.0003491
3944.76	0.0005402
3954.41	0.0003582
3964.05	0.0005188
3973.69	0.0005428
3983.34	0.0006098
3992.98	0.0006608
