Infrared Spectrum: Cyclododecylamine, N-methyl-,
Formula: C13 H27 N
CAS: 40221-53-2
State: LIQUID (NEAT)
Class: COBLENTZ III
Instrument: BECKMAN IR-9 (GRATING)
Instrument parameters: ORDER CHANGES: 670, 1200, 2000 CM^-^1
Sampling: TRANSMISSION
Path length: CAPILLARY
Resolution: 2
Origin: DOW CHEMICAL COMPANY
1/CM	TRANSMITTANCE
3800	0.8678
3791	0.8686
3782	0.8694
3773	0.8703
3764	0.8703
3755	0.8698
3746	0.8695
3737	0.869
3728	0.8686
3719	0.8681
3710	0.8677
3701	0.8673
3692	0.8671
3683	0.8668
3674	0.8666
3665	0.8663
3656	0.866
3647	0.8655
3638	0.8652
3629	0.8647
3620	0.8644
3611	0.8639
3602	0.8636
3593	0.8631
3584	0.8628
3575	0.8628
3566	0.8627
3557	0.8627
3548	0.8623
3539	0.8618
3530	0.8613
3521	0.8607
3512	0.8601
3503	0.8594
3494	0.8586
3485	0.8578
3476	0.8571
3467	0.8563
3458	0.8556
3449	0.8548
3440	0.854
3431	0.8533
3422	0.8525
3413	0.8512
3404	0.85
3395	0.8488
3386	0.8475
3377	0.8462
3368	0.8449
3359	0.8434
3350	0.8417
3341	0.8387
3332	0.8323
3323	0.825
3314	0.8188
3305	0.8151
3296	0.8182
3287	0.8264
3278	0.8325
3269	0.8375
3260	0.8402
3251	0.8428
3242	0.8441
3233	0.8451
3224	0.8461
3215	0.8468
3206	0.8474
3197	0.8478
3188	0.8485
3179	0.849
3170	0.8495
3161	0.8499
3152	0.8504
3143	0.8508
3134	0.8512
3125	0.8515
3116	0.8515
3107	0.8514
3098	0.8512
3089	0.8504
3080	0.8495
3071	0.8485
3062	0.8473
3053	0.8453
3044	0.8427
3035	0.8389
3026	0.8325
3017	0.8207
3008	0.7983
2999	0.7771
2990	0.7478
2981	0.6731
2972	0.5378
2963	0.3087
2954	0.1108
2945	0.0244
2936	0.0209
2927	0.03
2918	0.0634
2909	0.0872
2900	0.1
2891	0.1723
2882	0.294
2873	0.2458
2864	0.1332
2855	0.1382
2846	0.141
2837	0.377
2828	0.6233
2819	0.6696
2810	0.6661
2801	0.6204
2792	0.4964
2783	0.4843
2774	0.555
2765	0.7015
2756	0.7594
2747	0.7869
2738	0.7968
2729	0.8018
2720	0.8078
2711	0.8075
2702	0.8024
2693	0.7969
2684	0.7918
2675	0.7893
2666	0.7928
2657	0.798
2648	0.8033
2639	0.8092
2630	0.816
2621	0.8232
2612	0.828
2603	0.8324
2594	0.8366
2585	0.8402
2576	0.8443
2567	0.8484
2558	0.8518
2549	0.8513
2540	0.8494
2531	0.8489
2522	0.8528
2513	0.8571
2504	0.8611
2495	0.8645
2486	0.8673
2477	0.8698
2468	0.8718
2459	0.873
2450	0.8727
2441	0.8692
2432	0.868
2423	0.8696
2414	0.8713
2405	0.8721
2396	0.8725
2387	0.8728
2378	0.8733
2369	0.8734
2360	0.8736
2351	0.8738
2342	0.874
2333	0.8742
2324	0.8746
2315	0.8749
2306	0.8752
2297	0.8754
2288	0.8756
2279	0.8756
2270	0.8756
2261	0.8755
2252	0.8756
2243	0.8761
2234	0.8766
2225	0.8771
2216	0.8777
2207	0.878
2198	0.8783
2189	0.8786
2180	0.879
2171	0.8794
2162	0.8799
2153	0.8803
2144	0.8808
2135	0.881
2126	0.8811
2117	0.8811
2108	0.8812
2099	0.8813
2090	0.8815
2081	0.8817
2072	0.882
2063	0.8821
2054	0.8824
2045	0.8825
2036	0.8828
2027	0.8828
2018	0.883
2009	0.883
2000	0.8828
1991	0.8828
1982	0.8825
1973	0.8828
1964	0.8832
1955	0.8835
1946	0.8843
1937	0.8851
1928	0.8848
1919	0.8839
1910	0.8832
1901	0.8836
1892	0.884
1883	0.8843
1874	0.8846
1865	0.8849
1856	0.8856
1847	0.8864
1838	0.8871
1829	0.8878
1820	0.8884
1811	0.8882
1802	0.8875
1793	0.8868
1784	0.8884
1775	0.8901
1766	0.8903
1757	0.8909
1748	0.8911
1739	0.8909
1730	0.8906
1721	0.8899
1712	0.8893
1703	0.8889
1694	0.8884
1685	0.886
1676	0.8831
1667	0.8791
1658	0.8748
1649	0.8728
1640	0.8714
1631	0.8705
1622	0.8698
1613	0.869
1604	0.8683
1595	0.8677
1586	0.8678
1577	0.8684
1568	0.869
1559	0.8694
1550	0.8688
1541	0.868
1532	0.8659
1523	0.8618
1514	0.853
1505	0.84
1496	0.8157
1487	0.7622
1478	0.5671
1469	0.2752
1460	0.5796
1451	0.5271
1442	0.4176
1433	0.7137
1424	0.7975
1415	0.8253
1406	0.85
1397	0.8537
1388	0.8474
1379	0.8216
1370	0.7588
1361	0.7578
1352	0.738
1343	0.7183
1334	0.7434
1325	0.8018
1316	0.8218
1307	0.8183
1298	0.8284
1289	0.8359
1280	0.8423
1271	0.8314
1262	0.8231
1253	0.8346
1244	0.8178
1235	0.8356
1226	0.8333
1217	0.816
1208	0.8321
1199	0.8382
1190	0.8385
1181	0.8174
1172	0.7755
1163	0.8001
1154	0.7805
1145	0.7751
1136	0.7135
1127	0.6336
1118	0.7295
1109	0.7341
1100	0.7269
1091	0.7924
1082	0.8054
1073	0.814
1064	0.8338
1055	0.8401
1046	0.8211
1037	0.8198
1028	0.8512
1019	0.8563
1010	0.8646
1001	0.8685
992	0.8528
983	0.8404
974	0.8538
965	0.8465
956	0.8418
947	0.8391
938	0.8566
929	0.8718
920	0.8781
911	0.8736
902	0.8651
893	0.8725
884	0.8734
875	0.8704
866	0.8656
857	0.86
848	0.8553
839	0.8559
830	0.8377
821	0.8299
812	0.8274
803	0.8249
794	0.8032
785	0.7887
776	0.7784
767	0.7508
758	0.7199
749	0.6698
740	0.6744
731	0.6731
722	0.5573
713	0.5847
704	0.6904
695	0.6683
686	0.7325
677	0.7776
668	0.7964
659	0.841
650	0.8647
641	0.8773
632	0.8843
623	0.887
614	0.8868
605	0.881
596	0.8617
587	0.8375
578	0.8437
569	0.8688
560	0.8751
551	0.8667
542	0.8568
533	0.8703
524	0.8499
515	0.8397
506	0.8364
497	0.8368
488	0.8292
479	0.8101
470	0.7893
461	0.7594
452	0.7334
443	0.708
434	0.683
425	0.6748
416	0.6768
407	0.6914
