Infrared Spectrum: 7-Phenylheptanoic acid
Formula: C 13 H 18 O 2
CAS: 40228-90-8
State: gas
Origin: EPA-IR VAPOR PHASE LIBRARY
1/CM	ABSORBANCE
549.8	0.005468
559.445	0.005878
569.09	0.005398
578.734	0.005838
588.379	0.006178
598.024	0.006208
607.669	0.006238
617.313	0.006078
626.958	0.005928
636.603	0.004898
646.248	0.003928
655.893	0.003988
665.537	0.003328
675.182	0.003978
684.827	0.005068
694.472	0.008368
704.116	0.008148
713.761	0.006148
723.406	0.005998
733.051	0.006858
742.695	0.006368
752.34	0.004558
761.985	0.002828
771.63	0.001978
781.275	0.001798
790.919	0.0014852
800.564	0.0010148
810.209	0.0012355
819.854	0.001788
829.498	0.001678
839.143	0.0015503
848.788	0.0015564
858.433	0.0010236
868.078	0.0016102
877.722	0.001297
887.367	0.0010665
897.012	0.001532
906.657	0.0014785
916.301	0.001453
925.946	0.001668
935.591	0.0014589
945.236	0.0013386
954.88	0.0010859
964.525	0.001828
974.17	0.0013829
983.815	0.0012751
993.46	0.002078
1003.1	0.002328
1012.75	0.002648
1022.39	0.002398
1032.04	0.003638
1041.68	0.004548
1051.33	0.005238
1060.97	0.006118
1070.62	0.006848
1080.26	0.008518
1089.91	0.009518
1099.55	0.011548
1109.2	0.015108
1118.84	0.018938
1128.49	0.016248
1138.13	0.013068
1147.78	0.010688
1157.42	0.009698
1167.07	0.008998
1176.71	0.007468
1186.36	0.006508
1196	0.006118
1205.64	0.005388
1215.29	0.005778
1224.93	0.004458
1234.58	0.003498
1244.22	0.002968
1253.87	0.003238
1263.51	0.004028
1273.16	0.003588
1282.8	0.003218
1292.45	0.003558
1302.09	0.003188
1311.74	0.003078
1321.38	0.003328
1331.03	0.003698
1340.67	0.004068
1350.32	0.004548
1359.96	0.005088
1369.61	0.005248
1379.25	0.005298
1388.9	0.004588
1398.54	0.003678
1408.18	0.002788
1417.83	0.002478
1427.47	0.003068
1437.12	0.003278
1446.76	0.004238
1456.41	0.004888
1466.05	0.003938
1475.7	0.002678
1485.34	0.002488
1494.99	0.004228
1504.63	0.002528
1514.28	0.0011669
1523.92	0.0010649
1533.57	0.0011881
1543.21	0.0011355
1552.86	0.0010979
1562.5	0.0011498
1572.15	0.0012572
1581.79	0.001728
1591.44	0.002028
1601.08	0.002328
1610.73	0.001868
1620.37	0.0010751
1630.01	0.0011564
1639.66	0.001144
1649.3	0.0009954
1658.95	0.0011128
1668.59	0.0011717
1678.24	0.0010466
1687.88	0.0012458
1697.53	0.0016213
1707.17	0.001958
1716.82	0.002688
1726.46	0.003988
1736.11	0.006308
1745.75	0.009658
1755.4	0.014568
1765.04	0.022028
1774.69	0.031118
1784.33	0.026568
1793.98	0.017228
1803.62	0.010578
1813.27	0.005918
1822.91	0.003378
1832.55	0.002108
1842.2	0.001698
1851.84	0.0015392
1861.49	0.001519
1871.13	0.0013117
1880.78	0.0012189
1890.42	0.0010004
1900.07	0.0012104
1909.71	0.0011297
1919.36	0.0011012
1929	0.0011669
1938.65	0.0013674
1948.29	0.0014158
1957.94	0.0011791
1967.58	0.0008279
1977.23	0.0008416
1986.87	0.0007856
1996.52	0.001041
2006.16	0.0008218
2015.81	0.0010291
2025.45	0.0008227
2035.1	0.0008805
2044.74	0.0009773
2054.38	0.0007983
2064.03	0.0009043
2073.67	0.0008899
2083.32	0.0008472
2092.96	0.0008976
2102.61	0.0008882
2112.25	0.0008905
2121.9	0.0007939
2131.54	0.0006167
2141.19	0.0008943
2150.83	0.00069303
2160.48	0.0007854
2170.12	0.000833
2179.77	0.0007855
2189.41	0.00069684
2199.06	0.0008475
2208.7	0.0008004
2218.35	0.0006121
2227.99	0.00073806
2237.64	0.0008494
2247.28	0.0010402
2256.92	0.00071133
2266.57	0.00073241
2276.21	0.0006212
2285.86	0.00071544
2295.5	0.0008841
2305.15	0.0009904
2314.79	0.0008439
2324.44	0.0008407
2334.08	0.0005709
2343.73	0.0010491
2353.37	0.0009374
2363.02	0.0009965
2372.66	0.0006172
2382.31	0.00072484
2391.95	0.000828
2401.6	0.0008473
2411.24	0.0006475
2420.89	0.0009044
2430.53	0.000837
2440.18	0.0006337
2449.82	0.0009519
2459.47	0.0006408
2469.11	0.0008996
2478.75	0.00073651
2488.4	0.00073764
2498.04	0.00069863
2507.69	0.0010787
2517.33	0.00075067
2526.98	0.0009457
2536.62	0.000802
2546.27	0.0009233
2555.91	0.00069174
2565.56	0.000364
2575.2	0.0007796
2584.85	0.00073281
2594.49	0.0009075
2604.14	0.0007877
2613.78	0.00070644
2623.43	0.0007936
2633.07	0.00075091
2642.72	0.0008284
2652.36	0.0008663
2662.01	0.00072145
2671.65	0.0007602
2681.29	0.0008217
2690.94	0.0009136
2700.58	0.0010002
2710.23	0.0006031
2719.87	0.0009254
2729.52	0.0006423
2739.16	0.0008901
2748.81	0.0011719
2758.45	0.0009819
2768.1	0.0010519
2777.74	0.0005632
2787.39	0.001048
2797.03	0.0014119
2806.68	0.001444
2816.32	0.0013402
2825.97	0.001678
2835.61	0.002268
2845.26	0.003188
2854.9	0.006168
2864.55	0.009478
2874.19	0.008408
2883.84	0.005588
2893.48	0.004968
2903.12	0.005938
2912.77	0.009258
2922.41	0.015208
2932.06	0.022448
2941.7	0.024018
2951.35	0.016268
2960.99	0.009158
2970.64	0.005318
2980.28	0.003858
2989.93	0.003188
2999.57	0.002678
3009.22	0.002998
3018.86	0.003908
3028.51	0.006508
3038.15	0.005958
3047.8	0.003478
3057.44	0.003868
3067.09	0.005918
3076.73	0.005148
3086.38	0.003898
3096.02	0.002858
3105.67	0.001948
3115.31	0.001808
3124.95	0.0006046
3134.6	0.0010801
3144.24	0.0011152
3153.89	0.0011388
3163.53	0.00066864
3173.18	0.0008218
3182.82	0.00049
3192.47	0.000496
3202.11	0.000522
3211.76	0.0005907
3221.4	0.0006752
3231.05	0.000418
3240.69	0.0006329
3250.34	0.00066885
3259.98	0.00048
3269.63	0.0010296
3279.27	0.000321
3288.92	0.0009572
3298.56	0.000342
3308.21	0.00073846
3317.85	0.000554
3327.49	0.000204
3337.14	0.000521
3346.78	0.0005942
3356.43	0.00072646
3366.07	0.0006405
3375.72	0.0010912
3385.36	0.00070723
3395.01	0.0008289
3404.65	0.00045
3414.3	0.0007201
3423.94	0.0010358
3433.59	0.001009
3443.23	0.000519
3452.88	0.0008075
3462.52	0.0005823
3472.17	0.0007663
3481.81	0.0010866
3491.46	0.0006366
3501.1	0.000645
3510.75	0.0012534
3520.39	0.001123
3530.04	0.0010144
3539.68	0.0014604
3549.32	0.001768
3558.97	0.003338
3568.61	0.008918
3578.26	0.012488
3587.9	0.004528
3597.55	0.001848
3607.19	0.0016064
3616.84	0.0010569
3626.48	0.0009806
3636.13	0.0006053
3645.77	0.000451
3655.42	0.00071207
3665.06	0.000278
3674.71	0.0009458
3684.35	0.000674
3694	0.0008302
3703.64	0.00064934
3713.29	0.000837
3722.93	0.0009561
3732.58	0.00041
3742.22	0.0005738
3751.86	0.00068579
3761.51	0.0009028
3771.15	0.0006115
3780.8	0.0012916
3790.44	0.000474
3800.09	0.000236
3809.73	0.000493
3819.38	0.000777
3829.02	0.0012681
3838.67	0.0008021
3848.31	0.00072377
3857.96	0.0008921
3867.6	0.000499
3877.25	0.00068272
3886.89	0.0011696
3896.54	0.00072702
3906.18	0.000482
3915.83	0.00067164
3925.47	0.0010967
3935.12	0.00039
3944.76	0.0006012
3954.41	0.0009638
3964.05	0.000376
3973.69	0.0011588
3983.34	0.0005608
3992.98	0.0010982
