Infrared Spectrum: CYCLOPROPANE CARBOXYLIC ACID CHLORIDE
Formula: C4 H5 Cl O
CAS: 4023-34-1
State: GAS (10 mmHg, N2 ADDED, TOTAL PRESSURE 600 mmHg)
Class: COBLENTZ
Instrument: DOW KBr FOREPRISM-GRATING
Instrument parameters: GRATING CHANGED AT 5.0, 7.5, 15.0 MICRON
Sampling: TRANSMISSION
Path length: 5 CM
Resolution: 2
Origin: DOW CHEMICAL COMPANY
1/CM	TRANSMITTANCE
456.206	0.982
464.637	0.984
473.068	0.989
481.499	0.991
489.93	0.991
498.361	0.991
506.792	0.984
515.223	0.978
523.654	0.971
532.085	0.955
540.515	0.905
548.946	0.804
557.377	0.797
565.808	0.8659
574.239	0.975
582.67	0.984
591.101	0.985
599.532	0.989
607.963	0.992
616.394	0.988
624.825	0.985
633.256	0.984
641.687	0.991
650.118	0.976
658.549	0.968
666.98	0.959
675.411	0.946
683.842	0.924
692.273	0.833
700.703	0.562
709.134	0.586
717.565	0.7049
725.996	0.959
734.427	0.971
742.858	0.978
751.289	0.976
759.72	0.975
768.151	0.969
776.582	0.955
785.013	0.952
793.444	0.921
801.875	0.9
810.306	0.885
818.737	0.924
827.168	0.918
835.599	0.915
844.03	0.928
852.461	0.872
860.891	0.826
869.322	0.752
877.753	0.73
886.184	0.707
894.615	0.8459
903.046	0.94
911.477	0.949
919.908	0.924
928.339	0.885
936.77	0.866
945.201	0.807
953.632	0.728
962.063	0.631
970.494	0.3081
978.925	0.115
987.356	0.133
995.787	0.5458
1004.22	0.957
1012.65	0.975
1021.08	0.971
1029.51	0.953
1037.94	0.897
1046.37	0.71
1054.8	0.7099
1063.23	0.74
1071.67	0.915
1080.1	0.915
1088.53	0.942
1096.96	0.955
1105.39	0.942
1113.82	0.918
1122.25	0.918
1130.68	0.943
1139.11	0.959
1147.54	0.943
1155.97	0.915
1164.41	0.792
1172.84	0.791
1181.27	0.784
1189.7	0.855
1198.13	0.773
1206.56	0.784
1214.99	0.875
1223.42	0.971
1231.85	0.995
1240.28	1.005
1248.72	1.002
1257.15	0.994
1265.58	0.982
1274.01	0.963
1282.44	0.959
1290.87	0.969
1299.3	0.972
1307.73	0.962
1316.16	0.968
1324.59	0.975
1333.02	0.971
1341.46	0.956
1349.89	0.924
1358.32	0.863
1366.75	0.597
1375.18	0.6489
1383.61	0.7681
1392.04	0.959
1400.47	0.965
1408.9	0.957
1417.33	0.942
1425.76	0.937
1434.2	0.936
1442.63	0.94
1451.06	0.946
1459.49	0.939
1467.92	0.947
1476.35	0.969
1484.78	0.984
1493.21	0.986
1501.64	0.986
1510.07	0.991
1518.51	0.992
1526.94	0.991
1535.37	0.994
1543.8	0.992
1552.23	0.995
1560.66	0.995
1569.09	0.998
1577.52	0.998
1585.95	1.002
1594.38	1.004
1602.81	1.004
1611.25	1
1619.68	0.989
1628.11	0.986
1636.54	0.982
1644.97	0.988
1653.4	0.992
1661.83	0.998
1670.26	0.995
1678.69	0.989
1687.12	0.984
1695.56	0.982
1703.99	0.972
1712.42	0.971
1720.85	0.963
1729.28	0.957
1737.71	0.923
1746.14	0.875
1754.57	0.857
1763	0.847
1771.43	0.813
1779.86	0.634
1788.3	0.234
1796.73	0.156
1805.16	0.165
1813.59	0.371
1822.02	0.652
1830.45	0.704
1838.88	0.743
1847.31	0.798
1855.74	0.897
1864.17	0.962
1872.61	0.978
1881.04	0.981
1889.47	0.979
1897.9	0.976
1906.33	0.976
1914.76	0.979
1923.19	0.979
1931.62	0.981
1940.05	0.978
1948.48	0.975
1956.91	0.981
1965.35	0.985
1973.78	0.994
1982.21	1
1990.64	1.001
1999.07	1
2007.5	0.998
2015.93	0.998
2024.36	0.994
2032.79	0.992
2041.22	0.992
2049.65	0.9959
2058.09	0.997
2066.52	0.995
2074.95	0.9941
2083.38	0.992
2091.81	0.992
2100.24	0.991
2108.67	0.9881
2117.1	0.984
2125.53	0.985
2133.96	0.986
2142.4	0.9889
2150.83	0.989
2159.26	0.992
2167.69	0.992
2176.12	0.994
2184.55	0.9943
2192.98	0.997
2201.41	0.997
2209.84	0.997
2218.27	0.998
2226.7	0.998
2235.14	0.998
2243.57	0.997
2252	0.995
2260.43	0.9965
2268.86	0.998
2277.29	1.0008
2285.72	1.001
2294.15	1.0003
2302.58	0.998
2311.01	0.997
2319.45	0.995
2327.88	0.989
2336.31	0.9834
2344.74	0.994
2353.17	0.9912
2361.6	0.9964
2370.03	0.998
2378.46	0.998
2386.89	1
2395.32	1
2403.75	1.001
2412.19	1
2420.62	0.998
2429.05	0.998
2437.48	0.998
2445.91	0.998
2454.34	0.998
2462.77	0.997
2471.2	0.994
2479.63	0.992
2488.06	0.991
2496.5	0.989
2504.93	0.989
2513.36	0.988
2521.79	0.991
2530.22	0.9931
2538.65	0.995
2547.08	0.997
2555.51	0.997
2563.94	0.997
2572.37	0.998
2580.8	1.0005
2589.24	1.001
2597.67	1
2606.1	1
2614.53	1
2622.96	0.998
2631.39	0.997
2639.82	0.997
2648.25	0.995
2656.68	0.9968
2665.11	0.995
2673.55	0.997
2681.98	0.998
2690.41	0.998
2698.84	0.998
2707.27	0.998
2715.7	0.997
2724.13	0.997
2732.56	0.9947
2740.99	0.9937
2749.42	0.9933
2757.85	0.9894
2766.29	0.9896
2774.72	0.9912
2783.15	0.9887
2791.58	0.9844
2800.01	0.991
2808.44	0.9827
2816.87	0.991
2825.3	0.986
2833.73	0.976
2842.16	0.986
2850.59	0.9805
2859.03	0.9787
2867.46	0.9751
2875.89	0.9704
2884.32	0.978
2892.75	0.9753
2901.18	0.973
2909.61	0.9666
2918.04	0.9592
2926.47	0.966
2934.9	0.9524
2943.34	0.9543
2951.77	0.9526
2960.2	0.9558
2968.63	0.953
2977.06	0.957
2985.49	0.9625
2993.92	0.9593
3002.35	0.9626
3010.78	0.9542
3019.21	0.9596
3027.64	0.9248
3036.08	0.8873
3044.51	0.8771
3052.94	0.9059
3061.37	0.9529
3069.8	0.972
3078.23	0.9771
3086.66	0.979
3095.09	0.9815
3103.52	0.975
3111.95	0.9655
3120.39	0.956
3128.82	0.956
3137.25	0.9679
3145.68	0.98
3154.11	0.982
3162.54	0.9829
3170.97	0.984
3179.4	0.985
3187.83	0.986
3196.26	0.9869
3204.69	0.988
3213.13	0.989
3221.56	0.989
3229.99	0.9902
3238.42	0.989
3246.85	0.991
3255.28	0.992
3263.71	0.992
3272.14	0.994
3280.57	0.994
3289	0.9948
3297.44	0.995
3305.87	0.997
3314.3	0.997
3322.73	0.997
3331.16	0.997
3339.59	0.998
3348.02	0.998
3356.45	0.998
3364.88	1
3373.31	1
3381.74	1
3390.18	1
3398.61	1
3407.04	1.001
3415.47	1
3423.9	1
3432.33	1
3440.76	1
3449.19	0.998
3457.62	0.998
3466.05	0.997
3474.48	0.9956
3482.92	0.994
3491.35	0.994
3499.78	0.994
3508.21	0.994
3516.64	0.991
3525.07	0.991
3533.5	0.989
3541.93	0.988
3550.36	0.9807
3558.79	0.9672
3567.23	0.9623
3575.66	0.9722
3584.09	0.979
3592.52	0.9814
3600.95	0.9841
3609.38	0.9871
3617.81	0.989
3626.24	0.991
3634.67	0.992
3643.1	0.9915
3651.53	0.989
3659.97	0.99
3668.4	0.988
3676.83	0.989
3685.26	0.986
3693.69	0.985
3702.12	0.986
3710.55	0.986
3718.98	0.986
3727.41	0.986
3735.84	0.986
3744.28	0.989
3752.71	0.989
3761.14	0.991
3769.57	0.991
3778	0.988
3786.43	0.991
