Infrared Spectrum: 2,3,4,4,5,5,6,6-OCTACHLORO CYCLOHEX-2-ENE-1-ONE
Formula: C6 Cl8 O
CAS: 4024-81-1
State: SOLUTION (10% CCl4 FOR 2.5-7.5, 10% CS2 FOR 7.5-16 MICRON)
Class: COBLENTZ
Instrument: Not specified, most likely a prism, grating, or hybrid spectrometer.
Sampling: TRANSMISSION
Path length: 0.01 CM, 0.01 CM
Resolution: 4
Origin: DOW CHEMICAL COMPANY
MICROMETERS	TRANSMITTANCE
1.997	0.903
2.03711	0.903
2.07722	0.906
2.11732	0.906
2.15743	0.908
2.19754	0.911
2.23765	0.91
2.27775	0.911
2.31786	0.915
2.35797	0.926
2.39808	0.921
2.43818	0.926
2.47829	0.925
2.5184	0.926
2.55851	0.926
2.59861	0.926
2.63872	0.928
2.67883	0.928
2.71894	0.928
2.75904	0.928
2.79915	0.926
2.83926	0.925
2.87937	0.913
2.91947	0.901
2.95958	0.908
2.99969	0.911
3.0398	0.913
3.0799	0.925
3.12001	0.925
3.16012	0.925
3.20023	0.926
3.24034	0.928
3.28044	0.928
3.32055	0.93
3.36066	0.936
3.40077	0.935
3.44087	0.936
3.48098	0.94
3.52109	0.943
3.5612	0.943
3.6013	0.941
3.64141	0.945
3.68152	0.95
3.72163	0.951
3.76173	0.95
3.80184	0.953
3.84195	0.953
3.88206	0.953
3.92216	0.953
3.96227	0.955
4.00238	0.956
4.04249	0.958
4.08259	0.956
4.1227	0.958
4.16281	0.961
4.20292	0.971
4.24302	0.975
4.28313	0.973
4.32324	0.948
4.36335	0.935
4.40345	0.943
4.44356	0.955
4.48367	0.956
4.52378	0.968
4.56389	0.973
4.60399	0.975
4.6441	0.975
4.68421	0.973
4.72432	0.973
4.76442	0.971
4.80453	0.971
4.84464	0.971
4.88475	0.971
4.92485	0.968
4.96496	0.966
5.00507	0.963
5.04518	0.958
5.08528	0.958
5.12539	0.96
5.1655	0.951
5.20561	0.95
5.24571	0.951
5.28582	0.953
5.32593	0.953
5.36604	0.95
5.40614	0.945
5.44625	0.936
5.48636	0.921
5.52647	0.926
5.56657	0.921
5.60668	0.802
5.64679	0.76
5.6869	0.818
5.72701	0.438
5.76711	0.455
5.80722	0.872
5.84733	0.901
5.88744	0.91
5.92754	0.93
5.96765	0.935
6.00776	0.933
6.04787	0.921
6.08797	0.92
6.12808	0.918
6.16819	0.878
6.2083	0.82
6.2484	0.691
6.28851	0.574
6.32862	0.413
6.36873	0.363
6.40883	0.476
6.44894	0.493
6.48905	0.568
6.52916	0.651
6.56926	0.687
6.60937	0.744
6.64948	0.815
6.68959	0.867
6.72969	0.9
6.7698	0.915
6.80991	0.931
6.85002	0.933
6.89012	0.933
6.93023	0.935
6.97034	0.933
7.01045	0.935
7.05056	0.933
7.09066	0.935
7.13077	0.938
7.17088	0.94
7.21099	0.94
7.25109	0.94
7.2912	0.94
7.33131	0.941
7.37142	0.946
7.41152	0.95
7.45163	0.95
7.49174	0.95
7.53185	0.95
7.57195	0.95
7.61206	0.938
7.65217	0.93
7.69228	0.931
7.73238	0.93
7.77249	0.928
7.8126	0.925
7.85271	0.918
7.89281	0.901
7.93292	0.897
7.97303	0.901
8.01314	0.905
8.05324	0.898
8.09335	0.868
8.13346	0.817
8.17357	0.686
8.21368	0.3
8.25378	0.229
8.29389	0.611
8.334	0.739
8.37411	0.77
8.41421	0.646
8.45432	0.631
8.49443	0.787
8.53454	0.877
8.57464	0.901
8.61475	0.91
8.65486	0.91
8.69497	0.91
8.73507	0.908
8.77518	0.905
8.81529	0.89
8.8554	0.848
8.8955	0.79
8.93561	0.692
8.97572	0.662
9.01583	0.777
9.05593	0.853
9.09604	0.89
9.13615	0.91
9.17626	0.92
9.21636	0.923
9.25647	0.923
9.29658	0.916
9.33669	0.888
9.3768	0.868
9.4169	0.838
9.45701	0.754
9.49712	0.661
9.53723	0.692
9.57733	0.749
9.61744	0.725
9.65755	0.578
9.69766	0.377
9.73776	0.275
9.77787	0.397
9.81798	0.662
9.85809	0.764
9.89819	0.83
9.9383	0.82
9.97841	0.802
10.0185	0.857
10.0586	0.887
10.0987	0.903
10.1388	0.91
10.1789	0.911
10.2191	0.885
10.2592	0.853
10.2993	0.863
10.3394	0.897
10.3795	0.91
10.4196	0.92
10.4597	0.925
10.4998	0.925
10.5399	0.926
10.58	0.93
10.6201	0.93
10.6602	0.93
10.7003	0.923
10.7405	0.92
10.7806	0.911
10.8207	0.878
10.8608	0.818
10.9009	0.752
10.941	0.757
10.9811	0.812
11.0212	0.83
11.0613	0.822
11.1014	0.802
11.1415	0.749
11.1816	0.591
11.2217	0.441
11.2619	0.503
11.302	0.637
11.3421	0.666
11.3822	0.684
11.4223	0.734
11.4624	0.755
11.5025	0.764
11.5426	0.764
11.5827	0.754
11.6228	0.744
11.6629	0.737
11.703	0.734
11.7431	0.742
11.7832	0.764
11.8234	0.795
11.8635	0.825
11.9036	0.847
11.9437	0.863
11.9838	0.873
12.0239	0.873
12.064	0.878
12.1041	0.875
12.1442	0.863
12.1843	0.848
12.2244	0.808
12.2645	0.734
12.3046	0.598
12.3448	0.548
12.3849	0.576
12.425	0.558
12.4651	0.475
12.5052	0.488
12.5453	0.569
12.5854	0.598
12.6255	0.524
12.6656	0.453
12.7057	0.498
12.7458	0.631
12.7859	0.709
12.826	0.764
12.8662	0.789
12.9063	0.8
12.9464	0.802
12.9865	0.797
13.0266	0.757
13.0667	0.719
13.1068	0.667
13.1469	0.573
13.187	0.461
13.2271	0.259
13.2672	0.147
13.3073	0.139
13.3474	0.264
13.3876	0.333
13.4277	0.405
13.4678	0.445
13.5079	0.504
13.548	0.541
13.5881	0.571
13.6282	0.584
13.6683	0.581
13.7084	0.549
13.7485	0.473
13.7886	0.348
13.8287	0.2
13.8688	0.126
13.909	0.136
13.9491	0.244
13.9892	0.347
14.0293	0.426
14.0694	0.514
14.1095	0.544
14.1496	0.554
14.1897	0.539
14.2298	0.488
14.2699	0.4
14.31	0.272
14.3501	0.182
14.3902	0.136
14.4304	0.144
14.4705	0.199
14.5106	0.28
14.5507	0.338
14.5908	0.388
14.6309	0.408
14.671	0.401
14.7111	0.347
14.7512	0.269
14.7913	0.191
14.8314	0.172
14.8715	0.172
14.9116	0.207
14.9517	0.272
14.9919	0.357
15.032	0.421
15.0721	0.451
15.1122	0.463
15.1523	0.463
15.1924	0.458
15.2325	0.431
15.2726	0.395
15.3127	0.357
15.3528	0.322
15.3929	0.318
15.433	0.332
15.4731	0.355
15.5133	0.38
15.5534	0.393
15.5935	0.395
15.6336	0.395
15.6737	0.393
15.7138	0.388
15.7539	0.388
15.794	0.39
15.8341	0.398
15.8742	0.405
15.9143	0.406
