Infrared Spectrum: 2-Iodo-3-hydroxypyridine
Formula: C 5 H 4 I N O
CAS: 40263-57-8
State: gas
Origin: EPA-IR VAPOR PHASE LIBRARY
1/CM	ABSORBANCE
549.8	0.0011212
559.445	0.002016
569.09	0.0016895
578.734	0.001906
588.379	0.000515
598.024	0.000431
607.669	0.000267
617.313	0.0009917
626.958	0.00072869
636.603	0.002556
646.248	0.003236
655.893	0.002236
665.537	0.000702596
675.182	0.001395
684.827	0.0011243
694.472	0.0008696
704.116	0.0015885
713.761	0.0016893
723.406	0.0016608
733.051	0.0011077
742.695	0.000476
752.34	0.0010753
761.985	0.0009198
771.63	0.0011781
781.275	0.002646
790.919	0.004276
800.564	0.003976
810.209	0.002506
819.854	0.0008805
829.498	0.0015007
839.143	0.0012178
848.788	0.0006165
858.433	0.0012811
868.078	0.000307
877.722	0.000213
887.367	0.0011938
897.012	0.0009598
906.657	0.000373
916.301	0.000455
925.946	0.0006821
935.591	0.00075612
945.236	0.0009144
954.88	0.00037
964.525	0.0009158
974.17	0.00072766
983.815	0.0012023
993.46	0.000406
1003.1	0.000271
1012.75	0.0005967
1022.39	0.0014234
1032.04	0.006156
1041.68	0.006816
1051.33	0.002646
1060.97	0.001896
1070.62	0.0012088
1080.26	0.0012733
1089.91	0.000487
1099.55	0.002306
1109.2	0.003876
1118.84	0.0012313
1128.49	0.0009456
1138.13	0.001796
1147.78	0.002506
1157.42	0.003226
1167.07	0.005346
1176.71	0.005386
1186.36	0.003346
1196	0.002636
1205.64	0.002406
1215.29	0.004506
1224.93	0.009156
1234.58	0.010566
1244.22	0.009006
1253.87	0.006526
1263.51	0.004246
1273.16	0.002106
1282.8	0.001726
1292.45	0.0014317
1302.09	0.001341
1311.74	0.002186
1321.38	0.003046
1331.03	0.002056
1340.67	0.0010156
1350.32	0.0009799
1359.96	0.0008639
1369.61	0.0008542
1379.25	0.0010436
1388.9	0.001617
1398.54	0.004756
1408.18	0.013366
1417.83	0.021176
1427.47	0.016526
1437.12	0.005206
1446.76	0.002856
1456.41	0.002356
1466.05	0.0014259
1475.7	0.000974
1485.34	0.0008833
1494.99	0.0008435
1504.63	0.0009001
1514.28	0.0009902
1523.92	0.00079114
1533.57	0.0009085
1543.21	0.000992
1552.86	0.0014965
1562.5	0.002596
1572.15	0.003806
1581.79	0.002646
1591.44	0.0011449
1601.08	0.00071561
1610.73	0.00076091
1620.37	0.0006583
1630.01	0.001132
1639.66	0.0010296
1649.3	0.0010821
1658.95	0.00076603
1668.59	0.0008541
1678.24	0.0009535
1687.88	0.0009529
1697.53	0.0009864
1707.17	0.00073998
1716.82	0.0009644
1726.46	0.0009563
1736.11	0.00074523
1745.75	0.00074099
1755.4	0.0008181
1765.04	0.0006429
1774.69	0.0008149
1784.33	0.0008604
1793.98	0.00074513
1803.62	0.00073701
1813.27	0.00077993
1822.91	0.00074143
1832.55	0.0007657
1842.2	0.00074347
1851.84	0.00077595
1861.49	0.0006575
1871.13	0.00073806
1880.78	0.00076116
1890.42	0.0009776
1900.07	0.00071826
1909.71	0.0006471
1919.36	0.0008392
1929	0.00074422
1938.65	0.00075868
1948.29	0.0006583
1957.94	0.00073187
1967.58	0.00071774
1977.23	0.000576
1986.87	0.00059
1996.52	0.00072964
2006.16	0.0006184
2015.81	0.00078191
2025.45	0.0006362
2035.1	0.000702627
2044.74	0.0007644
2054.38	0.0006949
2064.03	0.0006698
2073.67	0.0006071
2083.32	0.00075308
2092.96	0.0007858
2102.61	0.000665
2112.25	0.00079121
2121.9	0.00073679
2131.54	0.0006421
2141.19	0.000697166
2150.83	0.00073625
2160.48	0.00075146
2170.12	0.00075681
2179.77	0.0008071
2189.41	0.00074726
2199.06	0.0006171
2208.7	0.0006421
2218.35	0.000705615
2227.99	0.00074517
2237.64	0.000824
2247.28	0.0008741
2256.92	0.0006391
2266.57	0.0006312
2276.21	0.00077462
2285.86	0.0008466
2295.5	0.00078983
2305.15	0.0008304
2314.79	0.000811
2324.44	0.0008842
2334.08	0.00073676
2343.73	0.0008924
2353.37	0.0008202
2363.02	0.000931
2372.66	0.0008024
2382.31	0.0008577
2391.95	0.00077778
2401.6	0.0008228
2411.24	0.0009916
2420.89	0.0008154
2430.53	0.0009712
2440.18	0.0006787
2449.82	0.00068
2459.47	0.00078525
2469.11	0.0010954
2478.75	0.0008364
2488.4	0.0009602
2498.04	0.0009057
2507.69	0.000700129
2517.33	0.000675
2526.98	0.00078328
2536.62	0.0009998
2546.27	0.000906
2555.91	0.00078398
2565.56	0.0008556
2575.2	0.000952
2584.85	0.000681
2594.49	0.0008363
2604.14	0.0008122
2613.78	0.0006705
2623.43	0.0009836
2633.07	0.000429
2642.72	0.0009304
2652.36	0.000905
2662.01	0.0008388
2671.65	0.0007326
2681.29	0.0008626
2690.94	0.0008837
2700.58	0.00076181
2710.23	0.000893
2719.87	0.0006855
2729.52	0.00078132
2739.16	0.000414
2748.81	0.0010304
2758.45	0.00068832
2768.1	0.0006431
2777.74	0.00070518
2787.39	0.00072821
2797.03	0.0008462
2806.68	0.0006756
2816.32	0.00075158
2825.97	0.000432
2835.61	0.0006623
2845.26	0.0006296
2854.9	0.00076533
2864.55	0.000954
2874.19	0.0009242
2883.84	0.0008698
2893.48	0.0009812
2903.12	0.0009065
2912.77	0.000699272
2922.41	0.0008502
2932.06	0.000509
2941.7	0.0008955
2951.35	0.000588
2960.99	0.0008875
2970.64	0.00076691
2980.28	0.0009327
2989.93	0.0006347
2999.57	0.0008691
3009.22	0.00073522
3018.86	0.0012317
3028.51	0.0008806
3038.15	0.0009306
3047.8	0.0015324
3057.44	0.001916
3067.09	0.003326
3076.73	0.002906
3086.38	0.0011954
3096.02	0.0008216
3105.67	0.0009983
3115.31	0.000522
3124.95	0.0012315
3134.6	0.0010807
3144.24	0.0008447
3153.89	0.0007985
3163.53	0.0011114
3173.18	0.0007191
3182.82	0.000601
3192.47	0.0010443
3202.11	0.0009986
3211.76	0.0008483
3221.4	0.0011319
3231.05	0.0009254
3240.69	0.00077852
3250.34	0.0008685
3259.98	0.0008483
3269.63	0.0006145
3279.27	0.0009406
3288.92	0.00074869
3298.56	0.0008714
3308.21	0.0010428
3317.85	0.0012755
3327.49	0.00079252
3337.14	0.0011347
3346.78	0.0008481
3356.43	0.0010941
3366.07	0.0009527
3375.72	0.000516
3385.36	0.0009521
3395.01	0.0008364
3404.65	0.0008695
3414.3	0.0006825
3423.94	0.00078878
3433.59	0.00071558
3443.23	0.000528
3452.88	0.0011679
3462.52	0.0009021
3472.17	0.00071842
3481.81	0.001786
3491.46	0.004956
3501.1	0.008936
3510.75	0.006866
3520.39	0.003806
3530.04	0.001886
3539.68	0.0014044
3549.32	0.001138
3558.97	0.0014765
3568.61	0.0009536
3578.26	0.0008492
3587.9	0.0011776
3597.55	0.0008758
3607.19	0.0006387
3616.84	0.0008674
3626.48	0.0009329
3636.13	0.001078
3645.77	0.0014025
3655.42	0.0011934
3665.06	0.0008526
3674.71	0.0008626
3684.35	0.0008643
3694	0.00075694
3703.64	0.0009429
3713.29	0.00073883
3722.93	0.0010788
3732.58	0.000999
3742.22	0.0010795
3751.86	0.001047
3761.51	0.0010746
3771.15	0.0006049
3780.8	0.000556
3790.44	0.000588
3800.09	0.0009177
3809.73	0.0008524
3819.38	0.00077026
3829.02	0.0008869
3838.67	0.00079502
3848.31	0.0008063
3857.96	0.0009831
3867.6	0.0010977
3877.25	0.0010899
3886.89	0.0009459
3896.54	0.0009167
3906.18	0.0008472
3915.83	0.0007981
3925.47	0.0006213
3935.12	0.0005983
3944.76	0.0008495
3954.41	0.0008872
3964.05	0.0010588
3973.69	0.0011181
3983.34	0.0010246
3992.98	0.0009347
