Infrared Spectrum: 3-Methyl-1-hexyne
Formula: C 7 H 12
CAS: 40276-93-5
State: gas
Origin: EPA-IR VAPOR PHASE LIBRARY
1/CM	ABSORBANCE
549.8	0.006054
559.445	0.005224
569.09	0.003584
578.734	0.002254
588.379	0.001724
598.024	0.005314
607.669	0.011824
617.313	0.035424
626.958	0.092094
636.603	0.114784
646.248	0.046764
655.893	0.014744
665.537	0.005284
675.182	0.002484
684.827	0.001964
694.472	0.001554
704.116	0.001744
713.761	0.002944
723.406	0.002514
733.051	0.003274
742.695	0.002294
752.34	0.002654
761.985	0.002434
771.63	0.002324
781.275	0.002494
790.919	0.002204
800.564	0.001884
810.209	0.002324
819.854	0.0006488
829.498	0.001784
839.143	0.001744
848.788	0.001494
858.433	0.001554
868.078	0.002194
877.722	0.001634
887.367	0.0013257
897.012	0.0012002
906.657	0.0011788
916.301	0.001774
925.946	0.003194
935.591	0.002884
945.236	0.002864
954.88	0.002054
964.525	0.001754
974.17	0.0005744
983.815	0.0010583
993.46	0.0010985
1003.1	0.001924
1012.75	0.0007747
1022.39	0.0013086
1032.04	0.00041932
1041.68	0.0013187
1051.33	0.0005884
1060.97	0.0008041
1070.62	0.0008574
1080.26	0.001464
1089.91	0.003294
1099.55	0.004014
1109.2	0.005394
1118.84	0.004374
1128.49	0.003084
1138.13	0.003724
1147.78	0.002914
1157.42	0.002584
1167.07	0.003424
1176.71	0.002684
1186.36	0.002894
1196	0.001654
1205.64	0.0010635
1215.29	0.004094
1224.93	0.007524
1234.58	0.020084
1244.22	0.033234
1253.87	0.031104
1263.51	0.019364
1273.16	0.008644
1282.8	0.006514
1292.45	0.005914
1302.09	0.006634
1311.74	0.008684
1321.38	0.010284
1331.03	0.010224
1340.67	0.009064
1350.32	0.006894
1359.96	0.006564
1369.61	0.007984
1379.25	0.010164
1388.9	0.009644
1398.54	0.006344
1408.18	0.004234
1417.83	0.003424
1427.47	0.004374
1437.12	0.007474
1446.76	0.012874
1456.41	0.017734
1466.05	0.016414
1475.7	0.012674
1485.34	0.007714
1494.99	0.004184
1504.63	0.002454
1514.28	0.002314
1523.92	0.001724
1533.57	0.001704
1543.21	0.001624
1552.86	0.0014193
1562.5	0.001434
1572.15	0.001228
1581.79	0.0010061
1591.44	0.001584
1601.08	0.001524
1610.73	0.001834
1620.37	0.001644
1630.01	0.001854
1639.66	0.001554
1649.3	0.001754
1658.95	0.002074
1668.59	0.002024
1678.24	0.001844
1687.88	0.001964
1697.53	0.001464
1707.17	0.001994
1716.82	0.0012089
1726.46	0.001412
1736.11	0.0013924
1745.75	0.001434
1755.4	0.0011559
1765.04	0.0011909
1774.69	0.001243
1784.33	0.0010215
1793.98	0.0008349
1803.62	0.0011127
1813.27	0.0010166
1822.91	0.0011475
1832.55	0.0011385
1842.2	0.0011489
1851.84	0.0011815
1861.49	0.0012682
1871.13	0.0012075
1880.78	0.0010385
1890.42	0.0010074
1900.07	0.0009171
1909.71	0.0010752
1919.36	0.0008019
1929	0.0011082
1938.65	0.0011029
1948.29	0.0009444
1957.94	0.0009556
1967.58	0.0010058
1977.23	0.0010961
1986.87	0.0010596
1996.52	0.0009187
2006.16	0.0008326
2015.81	0.0008111
2025.45	0.0009402
2035.1	0.0011608
2044.74	0.0012398
2054.38	0.0012168
2064.03	0.0011624
2073.67	0.0014002
2083.32	0.002264
2092.96	0.003624
2102.61	0.005304
2112.25	0.005854
2121.9	0.004844
2131.54	0.003154
2141.19	0.002044
2150.83	0.001171
2160.48	0.0013383
2170.12	0.0010055
2179.77	0.0013089
2189.41	0.0009459
2199.06	0.0013344
2208.7	0.0011934
2218.35	0.0010921
2227.99	0.0012593
2237.64	0.0013961
2247.28	0.0008739
2256.92	0.0013495
2266.57	0.001233
2276.21	0.0009503
2285.86	0.0012506
2295.5	0.0010352
2305.15	0.0011785
2314.79	0.0011981
2324.44	0.0011521
2334.08	0.0011113
2343.73	0.0011147
2353.37	0.001684
2363.02	0.0009917
2372.66	0.0013973
2382.31	0.0012669
2391.95	0.001714
2401.6	0.0013622
2411.24	0.001794
2420.89	0.0013185
2430.53	0.0013646
2440.18	0.001624
2449.82	0.0014157
2459.47	0.0012582
2469.11	0.001233
2478.75	0.0012704
2488.4	0.0011336
2498.04	0.0011123
2507.69	0.0011881
2517.33	0.0012043
2526.98	0.001444
2536.62	0.0014204
2546.27	0.001674
2555.91	0.0012733
2565.56	0.001524
2575.2	0.0013236
2584.85	0.0013713
2594.49	0.001604
2604.14	0.001854
2613.78	0.002074
2623.43	0.001584
2633.07	0.001514
2642.72	0.001904
2652.36	0.001814
2662.01	0.001684
2671.65	0.001994
2681.29	0.002204
2690.94	0.002494
2700.58	0.002584
2710.23	0.002384
2719.87	0.002164
2729.52	0.002654
2739.16	0.002474
2748.81	0.003084
2758.45	0.002904
2768.1	0.003104
2777.74	0.003184
2787.39	0.003774
2797.03	0.003884
2806.68	0.004404
2816.32	0.005184
2825.97	0.005914
2835.61	0.008274
2845.26	0.012434
2854.9	0.018824
2864.55	0.029164
2874.19	0.042834
2883.84	0.049424
2893.48	0.048424
2903.12	0.044184
2912.77	0.051344
2922.41	0.067424
2932.06	0.089904
2941.7	0.091564
2951.35	0.090444
2960.99	0.096324
2970.64	0.107574
2980.28	0.098124
2989.93	0.060954
2999.57	0.028404
3009.22	0.013474
3018.86	0.008684
3028.51	0.007544
3038.15	0.006814
3047.8	0.005454
3057.44	0.004594
3067.09	0.004084
3076.73	0.004024
3086.38	0.003434
3096.02	0.004044
3105.67	0.003024
3115.31	0.003234
3124.95	0.002814
3134.6	0.002514
3144.24	0.003074
3153.89	0.003034
3163.53	0.002924
3173.18	0.003054
3182.82	0.002734
3192.47	0.002324
3202.11	0.002594
3211.76	0.002254
3221.4	0.001504
3231.05	0.001764
3240.69	0.002074
3250.34	0.001804
3259.98	0.002674
3269.63	0.003474
3279.27	0.006514
3288.92	0.009304
3298.56	0.017744
3308.21	0.024694
3317.85	0.042114
3327.49	0.038904
3337.14	0.033204
3346.78	0.012414
3356.43	0.006684
3366.07	0.003254
3375.72	0.002184
3385.36	0.001504
3395.01	0.0012331
3404.65	0.001804
3414.3	0.0011927
3423.94	0.0013645
3433.59	0.001604
3443.23	0.001534
3452.88	0.001704
3462.52	0.0012841
3472.17	0.0009939
3481.81	0.0013219
3491.46	0.001734
3501.1	0.0012954
3510.75	0.001964
3520.39	0.0007676
3530.04	0.001634
3539.68	0.0011992
3549.32	0.0012274
3558.97	0.001524
3568.61	0.0008643
3578.26	0.0009386
3587.9	0.001644
3597.55	0.001724
3607.19	0.001754
3616.84	0.0010755
3626.48	0.0013631
3636.13	0.0010297
3645.77	0.0012302
3655.42	0.000878
3665.06	0.0008851
3674.71	0.001804
3684.35	0.0012753
3694	0.0006779
3703.64	0.0010565
3713.29	0.0009188
3722.93	0.0008166
3732.58	0.0012505
3742.22	0.0006361
3751.86	0.001654
3761.51	0.001784
3771.15	0.0008246
3780.8	0.0008032
3790.44	0.0010675
3800.09	0.0013823
3809.73	0.0010954
3819.38	0.0011537
3829.02	0.0010269
3838.67	0.0012222
3848.31	0.0012263
3857.96	0.001604
3867.6	0.001724
3877.25	0.001574
3886.89	0.0010812
3896.54	0.0014162
3906.18	0.001464
3915.83	0.002214
3925.47	0.002204
3935.12	0.002124
3944.76	0.001824
3954.41	0.0010174
3964.05	0.000865
3973.69	0.0008788
3983.34	0.001524
3992.98	0.001784
