Infrared Spectrum: Ethyl 3-methylpyrazole-5-carboxylate
Formula: C 7 H 10 N 2 O 2
CAS: 4027-57-0
State: gas
Origin: EPA-IR VAPOR PHASE LIBRARY
1/CM	ABSORBANCE
549.8	0.014902
559.445	0.012242
569.09	0.007382
578.734	0.004052
588.379	0.002322
598.024	0.002252
607.669	0.002092
617.313	0.002522
626.958	0.002922
636.603	0.004542
646.248	0.003752
655.893	0.003352
665.537	0.004562
675.182	0.005712
684.827	0.004422
694.472	0.002732
704.116	0.001862
713.761	0.0016795
723.406	0.0017621
733.051	0.002462
742.695	0.003352
752.34	0.007912
761.985	0.016532
771.63	0.023102
781.275	0.015972
790.919	0.008452
800.564	0.005832
810.209	0.007822
819.854	0.010742
829.498	0.009622
839.143	0.006952
848.788	0.004282
858.433	0.003762
868.078	0.003712
877.722	0.003172
887.367	0.002452
897.012	0.002252
906.657	0.001842
916.301	0.002192
925.946	0.002092
935.591	0.002872
945.236	0.003402
954.88	0.005312
964.525	0.008972
974.17	0.016002
983.815	0.021822
993.46	0.019482
1003.1	0.015372
1012.75	0.019312
1022.39	0.037612
1032.04	0.050242
1041.68	0.027632
1051.33	0.012302
1060.97	0.013412
1070.62	0.017362
1080.26	0.022312
1089.91	0.032762
1099.55	0.049392
1109.2	0.043792
1118.84	0.025622
1128.49	0.021072
1138.13	0.015272
1147.78	0.018302
1157.42	0.032942
1167.07	0.042342
1176.71	0.028972
1186.36	0.027312
1196	0.050402
1205.64	0.100712
1215.29	0.112492
1224.93	0.075022
1234.58	0.033412
1244.22	0.014122
1253.87	0.011822
1263.51	0.023252
1273.16	0.048712
1282.8	0.058052
1292.45	0.070742
1302.09	0.073722
1311.74	0.041342
1321.38	0.021092
1331.03	0.014702
1340.67	0.013552
1350.32	0.012162
1359.96	0.012022
1369.61	0.020262
1379.25	0.035052
1388.9	0.035752
1398.54	0.026942
1408.18	0.019182
1417.83	0.013292
1427.47	0.013342
1437.12	0.016572
1446.76	0.025192
1456.41	0.044742
1466.05	0.051232
1475.7	0.029002
1485.34	0.013282
1494.99	0.007862
1504.63	0.006192
1514.28	0.005242
1523.92	0.005122
1533.57	0.005922
1543.21	0.007312
1552.86	0.009522
1562.5	0.011102
1572.15	0.008702
1581.79	0.005432
1591.44	0.003732
1601.08	0.002862
1610.73	0.002762
1620.37	0.003072
1630.01	0.003512
1639.66	0.003942
1649.3	0.003782
1658.95	0.003552
1668.59	0.003502
1678.24	0.003842
1687.88	0.005142
1697.53	0.007312
1707.17	0.013152
1716.82	0.030682
1726.46	0.070662
1736.11	0.097222
1745.75	0.086562
1755.4	0.062522
1765.04	0.036222
1774.69	0.013982
1784.33	0.006422
1793.98	0.004522
1803.62	0.003862
1813.27	0.003552
1822.91	0.002912
1832.55	0.002612
1842.2	0.002232
1851.84	0.002162
1861.49	0.001922
1871.13	0.001822
1880.78	0.002022
1890.42	0.002082
1900.07	0.001882
1909.71	0.0015243
1919.36	0.0012917
1929	0.0012341
1938.65	0.0011556
1948.29	0.0011787
1957.94	0.0012874
1967.58	0.0015102
1977.23	0.0014406
1986.87	0.001299
1996.52	0.0011583
2006.16	0.0010251
2015.81	0.0010465
2025.45	0.0010597
2035.1	0.0012336
2044.74	0.001207
2054.38	0.0014688
2064.03	0.0015326
2073.67	0.0014969
2083.32	0.0014803
2092.96	0.0014032
2102.61	0.0012831
2112.25	0.0010968
2121.9	0.0012358
2131.54	0.0012443
2141.19	0.0011992
2150.83	0.00134
2160.48	0.0010506
2170.12	0.0008984
2179.77	0.0010682
2189.41	0.0010268
2199.06	0.0012761
2208.7	0.0012585
2218.35	0.0010558
2227.99	0.0009595
2237.64	0.001219
2247.28	0.001352
2256.92	0.0010771
2266.57	0.0011571
2276.21	0.0010421
2285.86	0.0010725
2295.5	0.0012888
2305.15	0.0012447
2314.79	0.0012884
2324.44	0.0013666
2334.08	0.0012345
2343.73	0.0010319
2353.37	0.0011529
2363.02	0.0011061
2372.66	0.0012668
2382.31	0.0014787
2391.95	0.0011258
2401.6	0.0011279
2411.24	0.0012816
2420.89	0.0014552
2430.53	0.0016507
2440.18	0.0014489
2449.82	0.001136
2459.47	0.0013049
2469.11	0.0009682
2478.75	0.000908
2488.4	0.0013454
2498.04	0.0011065
2507.69	0.0010738
2517.33	0.0010308
2526.98	0.0010222
2536.62	0.0011282
2546.27	0.0011892
2555.91	0.0011928
2565.56	0.001219
2575.2	0.0010708
2584.85	0.0011224
2594.49	0.0009474
2604.14	0.0012561
2613.78	0.0012678
2623.43	0.0014967
2633.07	0.0011526
2642.72	0.001217
2652.36	0.0009708
2662.01	0.0010966
2671.65	0.0012031
2681.29	0.0012945
2690.94	0.00086342
2700.58	0.0011724
2710.23	0.0012111
2719.87	0.0011105
2729.52	0.0014817
2739.16	0.0016138
2748.81	0.001425
2758.45	0.0017372
2768.1	0.0013788
2777.74	0.001822
2787.39	0.0011747
2797.03	0.001992
2806.68	0.001982
2816.32	0.002462
2825.97	0.003052
2835.61	0.002772
2845.26	0.003032
2854.9	0.003192
2864.55	0.003682
2874.19	0.005292
2883.84	0.007672
2893.48	0.008112
2903.12	0.008282
2912.77	0.009312
2922.41	0.010222
2932.06	0.014562
2941.7	0.020412
2951.35	0.018042
2960.99	0.013102
2970.64	0.014802
2980.28	0.021412
2989.93	0.023112
2999.57	0.016612
3009.22	0.011712
3018.86	0.008462
3028.51	0.005952
3038.15	0.004802
3047.8	0.004012
3057.44	0.003322
3067.09	0.003012
3076.73	0.002682
3086.38	0.002282
3096.02	0.001812
3105.67	0.001982
3115.31	0.001862
3124.95	0.001429
3134.6	0.0014399
3144.24	0.0014987
3153.89	0.0012766
3163.53	0.0010989
3173.18	0.0011305
3182.82	0.0007057
3192.47	0.0007136
3202.11	0.0011301
3211.76	0.0012593
3221.4	0.0009688
3231.05	0.0010369
3240.69	0.000915
3250.34	0.00087244
3259.98	0.0004
3269.63	0.0009486
3279.27	0.0007679
3288.92	0.0007515
3298.56	0.0009726
3308.21	0.001128
3317.85	0.0007552
3327.49	0.0009431
3337.14	0.0007383
3346.78	0.00086324
3356.43	0.000473
3366.07	0.0010907
3375.72	0.0015113
3385.36	0.0011239
3395.01	0.00088114
3404.65	0.000645
3414.3	0.000533
3423.94	0.0011865
3433.59	0.001842
3443.23	0.002972
3452.88	0.003912
3462.52	0.006942
3472.17	0.014032
3481.81	0.027662
3491.46	0.040392
3501.1	0.038932
3510.75	0.020862
3520.39	0.007702
3530.04	0.002862
3539.68	0.0015167
3549.32	0.0010796
3558.97	0.00088139
3568.61	0.0010034
3578.26	0.000483
3587.9	0.0010235
3597.55	0.00078287
3607.19	0.000602
3616.84	0.000392
3626.48	0.000675
3636.13	0.000545
3645.77	0.000344
3655.42	0.00078787
3665.06	0.000764
3674.71	0.000532
3684.35	0.000123
3694	0.0007271
3703.64	0.000389
3713.29	0.000654
3722.93	0.0008995
3732.58	0.000341
3742.22	0.0007071
3751.86	0.0009215
3761.51	0.00083897
3771.15	0.000556
3780.8	0.000584
3790.44	0.0007549
3800.09	0.000368
3809.73	0.000684
3819.38	0.000537
3829.02	0.0010359
3838.67	0.0013913
3848.31	0.000645
3857.96	0.0008401
3867.6	0.000673
3877.25	0.000512
3886.89	0.0004
3896.54	0.00042
3906.18	0.0010496
3915.83	0.0007288
3925.47	0.0007665
3935.12	0.0009057
3944.76	0.000684
3954.41	0.0009119
3964.05	0.00056
3973.69	0.00088032
3983.34	0.0007594
3992.98	0.0012639
