Infrared Spectrum: MESO-2,3-DICHLOROBUTANE
Formula: C4 H8 Cl2
CAS: 4028-56-2
Class: COBLENTZ
Instrument: Not specified, most likely a prism, grating, or hybrid spectrometer.
Sampling: TRANSMISSION
Path length: 0.0025 CM
Resolution: 4
Origin: W.T. BOLLETER
MICROMETERS	TRANSMITTANCE
14.523	0.001
14.5933	0.014
14.6637	0.03
14.734	0.069
14.8044	0.083
14.8747	0.087
14.9451	0.076
15.0154	0.046
15.0857	0.019
15.1561	0.007
15.2264	0
15.2968	0
15.3671	0
15.4375	0
15.5078	0
15.5781	0
15.6485	0
15.7188	0.008
15.7892	0.024
15.8595	0.076
15.9299	0.144
16.0002	0.204
16.0705	0.298
16.1409	0.395
16.2112	0.45
16.2816	0.498
16.3519	0.548
16.4223	0.59
16.4926	0.628
16.563	0.649
16.6333	0.686
16.7036	0.699
16.774	0.72
16.8443	0.747
16.9147	0.779
16.985	0.806
17.0554	0.836
17.1257	0.85
17.196	0.859
17.2664	0.87
17.3367	0.875
17.4071	0.877
17.4774	0.877
17.5478	0.875
17.6181	0.873
17.6884	0.873
17.7588	0.87
17.8291	0.871
17.8995	0.87
17.9698	0.868
18.0402	0.861
18.1105	0.852
18.1808	0.829
18.2512	0.8
18.3215	0.758
18.3919	0.695
18.4622	0.617
18.5326	0.478
18.6029	0.339
18.6732	0.209
18.7436	0.096
18.8139	0.035
18.8843	0.024
18.9546	0.044
19.025	0.104
19.0953	0.167
19.1656	0.265
19.236	0.379
19.3063	0.453
19.3767	0.535
19.447	0.599
19.5174	0.658
19.5877	0.734
19.658	0.774
19.7284	0.802
19.7987	0.834
19.8691	0.855
19.9394	0.873
20.0098	0.891
20.0801	0.902
20.1504	0.911
20.2208	0.919
20.2911	0.927
20.3615	0.928
20.4318	0.928
20.5022	0.93
20.5725	0.932
20.6429	0.923
20.7132	0.925
20.7835	0.921
20.8539	0.921
20.9242	0.923
20.9946	0.927
21.0649	0.925
21.1353	0.925
21.2056	0.932
21.2759	0.932
21.3463	0.934
21.4166	0.934
21.487	0.932
21.5573	0.93
21.6277	0.923
21.698	0.918
21.7683	0.912
21.8387	0.907
21.909	0.898
21.9794	0.891
22.0497	0.882
22.1201	0.87
22.1904	0.861
22.2607	0.852
22.3311	0.843
22.4014	0.829
22.4718	0.82
22.5421	0.806
22.6125	0.791
22.6828	0.766
22.7531	0.741
22.8235	0.72
22.8938	0.686
22.9642	0.654
23.0345	0.61
23.1049	0.564
23.1752	0.498
23.2455	0.434
23.3159	0.371
23.3862	0.306
23.4566	0.241
23.5269	0.165
23.5973	0.12
23.6676	0.071
23.7379	0.048
23.8083	0.028
23.8786	0.03
23.949	0.042
24.0193	0.078
24.0897	0.119
24.16	0.186
24.2303	0.27
24.3007	0.377
24.371	0.462
24.4414	0.539
24.5117	0.604
24.5821	0.663
24.6524	0.717
24.7228	0.752
24.7931	0.777
24.8634	0.82
24.9338	0.83
25.0041	0.846
25.0745	0.852
25.1448	0.859
25.2152	0.87
25.2855	0.875
25.3558	0.88
25.4262	0.887
25.4965	0.895
25.5669	0.898
25.6372	0.902
25.7076	0.903
25.7779	0.903
25.8482	0.905
25.9186	0.905
25.9889	0.903
26.0593	0.898
26.1296	0.895
26.2	0.891
26.2703	0.886
26.3406	0.879
26.411	0.871
26.4813	0.861
26.5517	0.845
26.622	0.832
26.6924	0.816
26.7627	0.802
26.833	0.782
26.9034	0.761
26.9737	0.738
27.0441	0.702
27.1144	0.672
27.1848	0.637
27.2551	0.599
27.3254	0.553
27.3958	0.5
27.4661	0.439
27.5365	0.386
27.6068	0.329
27.6772	0.274
27.7475	0.217
27.8178	0.172
27.8882	0.14
27.9585	0.131
28.0289	0.124
28.0992	0.126
28.1696	0.14
28.2399	0.165
28.3103	0.179
28.3806	0.197
28.4509	0.204
28.5213	0.211
28.5916	0.215
28.662	0.225
28.7323	0.238
28.8027	0.252
28.873	0.275
28.9433	0.3
29.0137	0.329
29.084	0.352
29.1544	0.366
29.2247	0.375
29.2951	0.377
29.3654	0.373
29.4357	0.354
29.5061	0.338
29.5764	0.323
29.6468	0.3
29.7171	0.274
29.7875	0.258
29.8578	0.247
29.9281	0.247
29.9985	0.258
30.0688	0.277
30.1392	0.318
30.2095	0.373
30.2799	0.416
30.3502	0.453
30.4205	0.498
30.4909	0.535
30.5612	0.581
30.6316	0.624
30.7019	0.651
30.7723	0.686
30.8426	0.704
30.9129	0.72
30.9833	0.743
31.0536	0.758
31.124	0.774
31.1943	0.784
31.2647	0.79
31.335	0.795
31.4053	0.802
31.4757	0.806
31.546	0.807
31.6164	0.806
31.6867	0.804
31.7571	0.795
31.8274	0.793
31.8977	0.79
31.9681	0.784
32.0384	0.775
32.1088	0.766
32.1791	0.758
32.2495	0.752
32.3198	0.74
32.3902	0.717
32.4605	0.699
32.5308	0.679
32.6012	0.667
32.6715	0.653
32.7419	0.637
32.8122	0.619
32.8826	0.604
32.9529	0.581
33.0232	0.556
33.0936	0.53
33.1639	0.519
33.2343	0.51
33.3046	0.512
33.375	0.521
33.4453	0.524
33.5156	0.539
33.586	0.551
33.6563	0.565
33.7267	0.58
33.797	0.603
33.8674	0.613
33.9377	0.628
34.008	0.637
34.0784	0.649
34.1487	0.654
34.2191	0.661
34.2894	0.67
34.3598	0.674
34.4301	0.672
34.5004	0.669
34.5708	0.667
34.6411	0.667
34.7115	0.667
34.7818	0.663
34.8522	0.661
34.9225	0.66
34.9928	0.656
35.0632	0.653
35.1335	0.649
35.2039	0.647
35.2742	0.644
35.3446	0.637
35.4149	0.626
35.4852	0.617
35.5556	0.612
35.6259	0.604
35.6963	0.599
35.7666	0.588
35.837	0.585
35.9073	0.58
35.9776	0.576
36.048	0.562
36.1183	0.558
36.1887	0.555
36.259	0.548
36.3294	0.535
36.3997	0.53
36.4701	0.526
36.5404	0.521
36.6107	0.519
36.6811	0.517
36.7514	0.503
36.8218	0.498
36.8921	0.492
36.9625	0.48
37.0328	0.473
37.1031	0.459
37.1735	0.45
37.2438	0.444
37.3142	0.434
37.3845	0.423
37.4549	0.409
37.5252	0.411
37.5955	0.411
37.6659	0.416
37.7362	0.427
37.8066	0.421
37.8769	0.419
37.9473	0.418
38.0176	0.421
