Infrared Spectrum: 2-Iodomesitylene
Formula: C 9 H 11 I
CAS: 4028-63-1
State: gas
Origin: EPA-IR VAPOR PHASE LIBRARY
1/CM	ABSORBANCE
549.8	0.012166
559.445	0.007016
569.09	0.0013707
578.734	0.001416
588.379	0.0005734
598.024	0.000566
607.669	0.0007028
617.313	0.001986
626.958	0.002386
636.603	0.0007003
646.248	0.0005288
655.893	0.00042661
665.537	0.00040405
675.182	0.0013726
684.827	0.003636
694.472	0.006506
704.116	0.003436
713.761	0.001596
723.406	0.0011986
733.051	0.0008596
742.695	0.0008746
752.34	0.001666
761.985	0.003136
771.63	0.002046
781.275	0.001656
790.919	0.001536
800.564	0.001426
810.209	0.001556
819.854	0.002406
829.498	0.008426
839.143	0.024756
848.788	0.032006
858.433	0.012876
868.078	0.003226
877.722	0.002216
887.367	0.002126
897.012	0.002186
906.657	0.002346
916.301	0.002896
925.946	0.003936
935.591	0.008136
945.236	0.014136
954.88	0.008556
964.525	0.003796
974.17	0.004036
983.815	0.010266
993.46	0.036406
1003.1	0.078186
1012.75	0.045366
1022.39	0.026436
1032.04	0.017646
1041.68	0.009216
1051.33	0.005696
1060.97	0.004106
1070.62	0.003256
1080.26	0.004226
1089.91	0.002766
1099.55	0.002176
1109.2	0.002096
1118.84	0.002076
1128.49	0.002016
1138.13	0.002236
1147.78	0.002136
1157.42	0.002446
1167.07	0.004726
1176.71	0.007696
1186.36	0.003816
1196	0.002346
1205.64	0.002456
1215.29	0.002516
1224.93	0.002166
1234.58	0.002136
1244.22	0.002206
1253.87	0.002476
1263.51	0.002606
1273.16	0.002896
1282.8	0.005166
1292.45	0.011376
1302.09	0.007976
1311.74	0.003076
1321.38	0.002886
1331.03	0.003106
1340.67	0.003026
1350.32	0.003356
1359.96	0.004426
1369.61	0.007666
1379.25	0.017706
1388.9	0.018506
1398.54	0.012836
1408.18	0.018086
1417.83	0.020896
1427.47	0.024686
1437.12	0.032626
1446.76	0.041606
1456.41	0.048136
1466.05	0.049566
1475.7	0.033556
1485.34	0.019926
1494.99	0.014836
1504.63	0.012316
1514.28	0.011976
1523.92	0.012026
1533.57	0.011506
1543.21	0.011846
1552.86	0.013396
1562.5	0.013686
1572.15	0.012186
1581.79	0.010556
1591.44	0.008916
1601.08	0.005876
1610.73	0.003666
1620.37	0.002726
1630.01	0.002316
1639.66	0.001956
1649.3	0.001866
1658.95	0.001936
1668.59	0.001826
1678.24	0.001406
1687.88	0.001636
1697.53	0.002246
1707.17	0.003966
1716.82	0.004406
1726.46	0.002996
1736.11	0.002366
1745.75	0.002326
1755.4	0.001456
1765.04	0.0010142
1774.69	0.0008637
1784.33	0.0009182
1793.98	0.0008855
1803.62	0.0008059
1813.27	0.0006441
1822.91	0.0006367
1832.55	0.0007156
1842.2	0.000747
1851.84	0.000797
1861.49	0.0009557
1871.13	0.0011028
1880.78	0.0013287
1890.42	0.001416
1900.07	0.0013058
1909.71	0.0012473
1919.36	0.0012362
1929	0.0011452
1938.65	0.001095
1948.29	0.0011265
1957.94	0.0012218
1967.58	0.0010842
1977.23	0.0008953
1986.87	0.0008086
1996.52	0.0008029
2006.16	0.0008879
2015.81	0.0007762
2025.45	0.0007231
2035.1	0.0006637
2044.74	0.0006026
2054.38	0.0006671
2064.03	0.0006152
2073.67	0.0006004
2083.32	0.0005185
2092.96	0.0006288
2102.61	0.0005557
2112.25	0.000537
2121.9	0.0005596
2131.54	0.0005599
2141.19	0.0006004
2150.83	0.0006071
2160.48	0.0004688
2170.12	0.00049657
2179.77	0.0005473
2189.41	0.000628
2199.06	0.0005777
2208.7	0.0005699
2218.35	0.000611
2227.99	0.0006015
2237.64	0.00048967
2247.28	0.0005636
2256.92	0.000618
2266.57	0.00046346
2276.21	0.0006852
2285.86	0.0005096
2295.5	0.000659
2305.15	0.0008324
2314.79	0.000987
2324.44	0.0008875
2334.08	0.0007379
2343.73	0.0007377
2353.37	0.0007583
2363.02	0.0008277
2372.66	0.0008205
2382.31	0.001107
2391.95	0.0012091
2401.6	0.001536
2411.24	0.001656
2420.89	0.0013519
2430.53	0.0011572
2440.18	0.0009258
2449.82	0.0010663
2459.47	0.0010327
2469.11	0.0010927
2478.75	0.0010244
2488.4	0.0010473
2498.04	0.000954
2507.69	0.0009232
2517.33	0.0006959
2526.98	0.0007356
2536.62	0.0008844
2546.27	0.000771
2555.91	0.0009093
2565.56	0.0009552
2575.2	0.0009516
2584.85	0.000942
2594.49	0.0011375
2604.14	0.0009845
2613.78	0.0008217
2623.43	0.0008807
2633.07	0.0006829
2642.72	0.0009454
2652.36	0.0008693
2662.01	0.0008615
2671.65	0.0011468
2681.29	0.0011657
2690.94	0.0009636
2700.58	0.0010322
2710.23	0.001145
2719.87	0.0012765
2729.52	0.001946
2739.16	0.003836
2748.81	0.004256
2758.45	0.002456
2768.1	0.001716
2777.74	0.001846
2787.39	0.002066
2797.03	0.002466
2806.68	0.002886
2816.32	0.003646
2825.97	0.004876
2835.61	0.006826
2845.26	0.009946
2854.9	0.015576
2864.55	0.023986
2874.19	0.026566
2883.84	0.021696
2893.48	0.020616
2903.12	0.024076
2912.77	0.033256
2922.41	0.053726
2932.06	0.072866
2941.7	0.057296
2951.35	0.038046
2960.99	0.036866
2970.64	0.038296
2980.28	0.045526
2989.93	0.043476
2999.57	0.033246
3009.22	0.029676
3018.86	0.037566
3028.51	0.046516
3038.15	0.036966
3047.8	0.022516
3057.44	0.014156
3067.09	0.008966
3076.73	0.006606
3086.38	0.005626
3096.02	0.004806
3105.67	0.004226
3115.31	0.003626
3124.95	0.002896
3134.6	0.002336
3144.24	0.001816
3153.89	0.001476
3163.53	0.0013144
3173.18	0.0011798
3182.82	0.0010788
3192.47	0.0009051
3202.11	0.000969
3211.76	0.0006798
3221.4	0.0006602
3231.05	0.0007162
3240.69	0.0007318
3250.34	0.0007412
3259.98	0.0006709
3269.63	0.0007137
3279.27	0.0006712
3288.92	0.0005502
3298.56	0.0006868
3308.21	0.000531
3317.85	0.0005706
3327.49	0.0005533
3337.14	0.0003713
3346.78	0.0005627
3356.43	0.000411198
3366.07	0.0003373
3375.72	0.00047199
3385.36	0.00039923
3395.01	0.00048456
3404.65	0.00047825
3414.3	0.00043395
3423.94	0.00039757
3433.59	0.0005338
3443.23	0.00049497
3452.88	0.0005672
3462.52	0.0005733
3472.17	0.00047597
3481.81	0.0005155
3491.46	0.0005075
3501.1	0.00045978
3510.75	0.0005766
3520.39	0.00044046
3530.04	0.000365
3539.68	0.00050448
3549.32	0.0005597
3558.97	0.00041802
3568.61	0.00045103
3578.26	0.0005251
3587.9	0.00043525
3597.55	0.0006478
3607.19	0.0003318
3616.84	0.000287
3626.48	0.0003694
3636.13	0.000112
3645.77	0.00049967
3655.42	0.0003887
3665.06	0.0003077
3674.71	0.0003455
3684.35	0.0003147
3694	0.00042568
3703.64	0.000225
3713.29	0.0003196
3722.93	0.000274
3732.58	0.0004488
3742.22	0.0003247
3751.86	0.0003743
3761.51	0.0005315
3771.15	0.0003133
3780.8	0.0003838
3790.44	0.000415652
3800.09	0.00050111
3809.73	0.0005937
3819.38	0.0005862
3829.02	0.0003628
3838.67	0.0005546
3848.31	0.00042334
3857.96	0.000552
3867.6	0.0003843
3877.25	0.0006839
3886.89	0.0008041
3896.54	0.0007232
3906.18	0.0006888
3915.83	0.0007613
3925.47	0.0007692
3935.12	0.0008461
3944.76	0.0010553
3954.41	0.0011561
3964.05	0.000853
3973.69	0.0011185
3983.34	0.0008607
3992.98	0.0005935
