Infrared Spectrum: Allylchlorodimethylsilane
Formula: C 5 H 11 Cl Si
CAS: 4028-23-3
State: gas
Instrument: HP-GC/MS/IRD
Origin: NIST Mass Spectrometry Data Center
1/CM	ABSORBANCE
550	0.0003304
562	0.0011944
574	0.0020464
586	0.0015968
598	0.0005136
610	0.0003752
622	0.0002704
634	0.0004208
646	0.0009008
658	0.0017072
670	0.0013336
682	0.0007272
694	0.0007104
706	0.0009384
718	0.000992
730	0.00094
742	0.0009384
754	0.0011848
766	0.0012792
778	0.0013064
790	0.0019624
802	0.0042552
814	0.0066376
826	0.007816
838	0.007844
850	0.0059448
862	0.00344
874	0.0020408
886	0.0017816
898	0.0024784
910	0.0027664
922	0.0020664
934	0.0014408
946	0.0007552
958	0.0004584
970	0.0004192
982	0.0006312
994	0.0006136
1006	0.000244
1018	0.0002368
1030	0.0005488
1042	0.0006272
1054	0.0002752
1066	0.0001128
1078	2.08e-05
1090	4.64e-05
1102	3.2e-05
1114	7.12e-05
1126	0.000152
1138	0.0002928
1150	0.000544
1162	0.0013336
1174	0.001532
1186	0.0009968
1198	0.000596
1210	0.0003504
1222	0.0004072
1234	0.0007
1246	0.0018
1258	0.0035376
1270	0.0029232
1282	0.0010096
1294	0.0003936
1306	0.0003264
1318	0.0002464
1330	0.000152
1342	0.0001944
1354	0.0001968
1366	0.000244
1378	0.000352
1390	0.0006352
1402	0.0007208
1414	0.0006496
1426	0.0005384
1438	0.0002784
1450	0.0001704
1462	0.0001144
1474	9.84e-05
1486	5.76e-05
1498	5.44e-05
1510	2.08e-05
1522	5.2e-05
1534	2.48e-05
1546	4.08e-05
1558	7.84e-05
1570	0.0001016
1582	9.44e-05
1594	0.000172
1606	0.0003016
1618	0.0007088
1630	0.0012672
1642	0.0009944
1654	0.0003064
1666	0.0001376
1678	0.0001192
1690	8.64e-05
1702	8.64e-05
1714	0.0001008
1726	3.92e-05
1738	7.84e-05
1750	5.92e-05
1762	5.92e-05
1774	6.96e-05
1786	6.32e-05
1798	0.0001248
1810	0.0002016
1822	0.0002536
1834	0.000128
1846	7.52e-05
1858	9.04e-05
1870	6e-05
1882	6.4e-05
1894	7.36e-05
1906	7.68e-05
1918	0.000124
1930	7.6e-05
1942	4.32e-05
1954	7.44e-05
1966	0.0001008
1978	9.2e-05
1990	6e-05
2002	4.48e-05
2014	7.28e-05
2026	5.2e-05
2038	3.2e-05
2050	2.32e-05
2062	3.6e-05
2074	3.84e-05
2086	6.4e-05
2098	6.4e-05
2110	5.6e-05
2122	4.64e-05
2134	1.92e-05
2146	0
2158	3.84e-05
2170	4.56e-05
2182	3.12e-05
2194	4.72e-05
2206	4e-05
2218	4.64e-05
2230	5.68e-05
2242	3.68e-05
2254	4.08e-05
2266	5.12e-05
2278	6.8e-05
2290	5.12e-05
2302	4.88e-05
2314	2.72e-05
2326	7.2e-05
2338	0.0001144
2350	8.48e-05
2362	6.88e-05
2374	6.24e-05
2386	5.36e-05
2398	7.84e-05
2410	4.72e-05
2422	3.2e-05
2434	5.36e-05
2446	7.84e-05
2458	6.72e-05
2470	3.68e-05
2482	6.08e-05
2494	6.96e-05
2506	6.48e-05
2518	6.24e-05
2530	6.08e-05
2542	8.96e-05
2554	9.2e-05
2566	7.12e-05
2578	8.72e-05
2590	8.96e-05
2602	0.0001008
2614	0.0001104
2626	9.2e-05
2638	7.84e-05
2650	7.04e-05
2662	5.12e-05
2674	0.0001104
2686	6.8e-05
2698	7.04e-05
2710	0.0001
2722	8.64e-05
2734	6.96e-05
2746	9.6e-05
2758	0.0001008
2770	0.0001616
2782	0.0002104
2794	0.0002136
2806	0.0001728
2818	0.000176
2830	0.00024
2842	0.000204
2854	0.0002888
2866	0.00038
2878	0.0006064
2890	0.0008048
2902	0.0009064
2914	0.0009792
2926	0.0008376
2938	0.0006176
2950	0.000664
2962	0.0013656
2974	0.0018392
2986	0.0014016
2998	0.0009272
3010	0.000724
3022	0.0005592
3034	0.0004744
3046	0.0004808
3058	0.0005304
3070	0.0007688
3082	0.001096
3094	0.0010368
3106	0.0004584
3118	0.0002576
3130	0.0002016
3142	0.0002184
3154	0.0002336
3166	0.0001048
3178	0.0001256
3190	0.000144
3202	0.0001168
3214	0.0001624
3226	0.0001304
3238	8.8e-05
3250	9.92e-05
3262	4.8e-05
3274	0.000112
3286	8e-05
3298	0.0001272
3310	3.68e-05
3322	0.0001192
3334	6.16e-05
3346	0.000104
3358	6.56e-05
3370	0.0001128
3382	0.000112
3394	8e-05
3406	8.24e-05
3418	3.12e-05
3430	6.64e-05
3442	6.08e-05
3454	0.000128
3466	0.0001328
3478	0.0001208
3490	0.0001008
3502	9.04e-05
3514	0.0001168
3526	8.72e-05
3538	9.76e-05
3550	0.0001344
3562	3.6e-05
3574	0.0001648
3586	9.28e-05
3598	0.0001296
3610	0.0001744
3622	0.0001408
3634	0.0001728
3646	0.00016
3658	0.000156
3670	0.0001512
3682	0.000124
3694	0.000188
3706	0.0001424
3718	0.0001048
3730	8.24e-05
3742	0.0001672
3754	4.72e-05
3766	0.0001216
3778	0.0001352
3790	0.0001848
3802	0.0001272
3814	0.000132
3826	0.0001648
3838	4.56e-05
