Infrared Spectrum: 1,2-DIPALMITIN
Formula: C35 H68 O5
CAS: 40290-32-2
State: (NEAT)
Class: COBLENTZ III
Instrument: PERKIN-ELMER 21 (GRATING)
Instrument parameters: NaCl PRISM
Sampling: TRANSMISSION
Resolution: 2
Origin: SMITH KLINE & FRENCH LABS.
MICROMETERS	TRANSMITTANCE
1.99	0.609
2.02383	0.609
2.05766	0.609
2.09149	0.608
2.12532	0.614
2.15914	0.615
2.19297	0.615
2.2268	0.618
2.26063	0.623
2.29446	0.625
2.32829	0.614
2.36212	0.608
2.39595	0.603
2.42978	0.603
2.4636	0.604
2.49743	0.609
2.53126	0.612
2.56509	0.615
2.59892	0.617
2.63275	0.621
2.66658	0.625
2.70041	0.629
2.73424	0.633
2.76806	0.633
2.80189	0.633
2.83572	0.611
2.86955	0.56
2.90338	0.506
2.93721	0.479
2.97104	0.468
3.00487	0.468
3.0387	0.483
3.07253	0.498
3.10635	0.502
3.14018	0.525
3.17401	0.549
3.20784	0.573
3.24167	0.584
3.2755	0.59
3.30933	0.584
3.34316	0.566
3.37699	0.532
3.41081	0.402
3.44464	0.266
3.47847	0.173
3.5123	0.17
3.54613	0.181
3.57996	0.187
3.61379	0.372
3.64762	0.534
3.68145	0.59
3.71527	0.61
3.7491	0.623
3.78293	0.632
3.81676	0.638
3.85059	0.639
3.88442	0.649
3.91825	0.658
3.95208	0.664
3.98591	0.674
4.01973	0.687
4.05356	0.689
4.08739	0.698
4.12122	0.698
4.15505	0.701
4.18888	0.701
4.22271	0.701
4.25654	0.701
4.29037	0.707
4.32419	0.709
4.35802	0.709
4.39185	0.709
4.42568	0.704
4.45951	0.705
4.49334	0.706
4.52717	0.707
4.561	0.71
4.59483	0.712
4.62866	0.712
4.66248	0.715
4.69631	0.717
4.73014	0.718
4.76397	0.718
4.7978	0.717
4.83163	0.717
4.86546	0.717
4.89929	0.717
4.93312	0.717
4.96694	0.718
5.00077	0.719
5.0346	0.721
5.06843	0.724
5.10226	0.724
5.13609	0.725
5.16992	0.728
5.20375	0.73
5.23758	0.73
5.2714	0.73
5.30523	0.73
5.33906	0.729
5.37289	0.73
5.40672	0.731
5.44055	0.735
5.47438	0.735
5.50821	0.723
5.54204	0.718
5.57586	0.701
5.60969	0.685
5.64352	0.664
5.67735	0.634
5.71118	0.549
5.74501	0.362
5.77884	0.216
5.81267	0.145
5.8465	0.171
5.88032	0.29
5.91415	0.343
5.94798	0.537
5.98181	0.551
6.01564	0.646
6.04947	0.679
6.0833	0.683
6.11713	0.706
6.15096	0.717
6.18478	0.719
6.21861	0.725
6.25244	0.73
6.28627	0.739
6.3201	0.74
6.35393	0.741
6.38776	0.745
6.42159	0.748
6.45542	0.75
6.48925	0.748
6.52307	0.743
6.5569	0.748
6.59073	0.741
6.62456	0.75
6.65839	0.737
6.69222	0.737
6.72605	0.717
6.75988	0.694
6.79371	0.611
6.82753	0.431
6.86136	0.234
6.89519	0.332
6.92902	0.437
6.96285	0.508
6.99668	0.522
7.03051	0.546
7.06434	0.531
7.09817	0.49
7.13199	0.5
7.16582	0.515
7.19965	0.513
7.23348	0.49
7.26731	0.444
7.30114	0.403
7.33497	0.415
7.3688	0.454
7.40263	0.463
7.43645	0.478
7.47028	0.473
7.50411	0.466
7.53794	0.489
7.57177	0.475
7.6056	0.48
7.63943	0.498
7.67326	0.48
7.70709	0.45
7.74091	0.453
7.77474	0.448
7.80857	0.436
7.8424	0.394
7.87623	0.4
7.91006	0.411
7.94389	0.359
7.97772	0.344
8.01155	0.394
8.04538	0.391
8.0792	0.338
8.11303	0.341
8.14686	0.388
8.18069	0.394
8.21452	0.358
8.24835	0.326
8.28218	0.373
8.31601	0.393
8.34984	0.372
8.38366	0.319
8.41749	0.289
8.45132	0.323
8.48515	0.311
8.51898	0.26
8.55281	0.243
8.58664	0.235
8.62047	0.234
8.6543	0.242
8.68812	0.274
8.72195	0.332
8.75578	0.391
8.78961	0.45
8.82344	0.489
8.85727	0.51
8.8911	0.519
8.92493	0.51
8.95876	0.507
8.99258	0.479
9.02641	0.439
9.06024	0.413
9.09407	0.405
9.1279	0.402
9.16173	0.394
9.19556	0.395
9.22939	0.408
9.26322	0.466
9.29704	0.498
9.33087	0.506
9.3647	0.504
9.39853	0.491
9.43236	0.468
9.46619	0.455
9.50002	0.45
9.53385	0.449
9.56768	0.449
9.60151	0.455
9.63533	0.462
9.66916	0.471
9.70299	0.489
9.73682	0.518
9.77065	0.538
9.80448	0.542
9.83831	0.558
9.87214	0.572
9.90597	0.57
9.93979	0.573
9.97362	0.584
10.0075	0.586
10.0413	0.591
10.0751	0.596
10.1089	0.594
10.1428	0.591
10.1766	0.593
10.2104	0.609
10.2443	0.62
10.2781	0.627
10.3119	0.631
10.3457	0.635
10.3796	0.638
10.4134	0.657
10.4472	0.664
10.4811	0.663
10.5149	0.658
10.5487	0.656
10.5825	0.656
10.6164	0.652
10.6502	0.65
10.684	0.653
10.7179	0.662
10.7517	0.671
10.7855	0.674
10.8193	0.687
10.8532	0.699
10.887	0.705
10.9208	0.707
10.9547	0.706
10.9885	0.712
11.0223	0.71
11.0561	0.717
11.09	0.717
11.1238	0.718
11.1576	0.719
11.1915	0.717
11.2253	0.71
11.2591	0.704
11.293	0.699
11.3268	0.697
11.3606	0.701
11.3944	0.71
11.4283	0.722
11.4621	0.721
11.4959	0.724
11.5298	0.719
11.5636	0.724
11.5974	0.728
11.6312	0.739
11.6651	0.742
11.6989	0.742
11.7327	0.742
11.7666	0.739
11.8004	0.733
11.8342	0.721
11.868	0.712
11.9019	0.727
11.9357	0.731
11.9695	0.735
12.0034	0.737
12.0372	0.739
12.071	0.741
12.1048	0.745
12.1387	0.75
12.1725	0.756
12.2063	0.758
12.2402	0.772
12.274	0.78
12.3078	0.782
12.3416	0.777
12.3755	0.776
12.4093	0.776
12.4431	0.781
12.477	0.787
12.5108	0.787
12.5446	0.788
12.5784	0.784
12.6123	0.781
12.6461	0.78
12.6799	0.778
12.7138	0.78
12.7476	0.776
12.7814	0.766
12.8153	0.748
12.8491	0.74
12.8829	0.735
12.9167	0.752
12.9506	0.764
12.9844	0.775
13.0182	0.776
13.0521	0.765
13.0859	0.753
13.1197	0.747
13.1535	0.743
13.1874	0.742
13.2212	0.74
13.255	0.735
13.2889	0.73
13.3227	0.73
13.3565	0.731
13.3903	0.727
13.4242	0.711
13.458	0.693
13.4918	0.68
13.5257	0.671
13.5595	0.661
13.5933	0.656
13.6271	0.659
13.661	0.659
13.6948	0.65
13.7286	0.628
13.7625	0.586
13.7963	0.558
13.8301	0.492
13.8639	0.438
13.8978	0.379
13.9316	0.362
13.9654	0.367
13.9993	0.471
14.0331	0.528
14.0669	0.573
14.1008	0.597
14.1346	0.611
14.1684	0.62
14.2022	0.628
14.2361	0.637
14.2699	0.64
14.3037	0.64
14.3376	0.645
14.3714	0.649
14.4052	0.647
14.439	0.646
14.4729	0.646
14.5067	0.645
14.5405	0.644
14.5744	0.639
14.6082	0.64
14.642	0.639
14.6758	0.635
14.7097	0.632
14.7435	0.629
14.7773	0.621
14.8112	0.621
14.845	0.62
14.8788	0.618
14.9126	0.616
14.9465	0.61
14.9803	0.602
