Infrared Spectrum: Benzoic acid, 3-fluoro-4-nitro-
Formula: C7 H4 F N O4
CAS: 403-21-4
State: SOLID (KBr DISC)
Class: COBLENTZ III
Instrument: PERKIN-ELMER 21 (GRATING)
Instrument parameters: FILTER CHANGE ABOUT 1090 CM^-^1
Sampling: TRANSMISSION
Resolution: 2
Origin: SOUTHERN RESEARCH INSTITUTE
1/CM	TRANSMITTANCE
598	0.8131
607	0.8042
616	0.799
625	0.7927
634	0.7827
643	0.7684
652	0.7513
661	0.74
670	0.7459
679	0.7656
688	0.8266
697	0.8332
706	0.821
715	0.8023
724	0.7762
733	0.6968
742	0.3075
751	0.4046
760	0.6474
769	0.5498
778	0.333
787	0.6664
796	0.7307
805	0.7503
814	0.7497
823	0.7406
832	0.6962
841	0.2968
850	0.645
859	0.6777
868	0.7559
877	0.7483
886	0.7099
895	0.6228
904	0.3116
913	0.6346
922	0.6409
931	0.5222
940	0.416
949	0.4068
958	0.5944
967	0.7318
976	0.7607
985	0.7701
994	0.7654
1003	0.7736
1012	0.767
1021	0.7721
1030	0.7868
1039	0.7843
1048	0.7843
1057	0.7784
1066	0.7541
1075	0.6991
1084	0.6587
1093	0.7646
1102	0.751
1111	0.7044
1120	0.6948
1129	0.723
1138	0.724
1147	0.6994
1156	0.6069
1165	0.6471
1174	0.6336
1183	0.6095
1192	0.5434
1201	0.4848
1210	0.4272
1219	0.3691
1228	0.1927
1237	0.1779
1246	0.3751
1255	0.3865
1264	0.4525
1273	0.4918
1282	0.4085
1291	0.2615
1300	0.1114
1309	0.0943
1318	0.0792
1327	0.114
1336	0.3312
1345	0.3152
1354	0.1883
1363	0.2071
1372	0.4462
1381	0.5523
1390	0.6088
1399	0.6028
1408	0.5869
1417	0.5205
1426	0.3518
1435	0.2297
1444	0.225
1453	0.5042
1462	0.6537
1471	0.6534
1480	0.6252
1489	0.4093
1498	0.4696
1507	0.6402
1516	0.6285
1525	0.4722
1534	0.3158
1543	0.193
1552	0.1912
1561	0.4897
1570	0.5466
1579	0.4833
1588	0.3248
1597	0.1884
1606	0.1309
1615	0.2709
1624	0.3303
1633	0.5477
1642	0.5865
1651	0.5887
1660	0.5765
1669	0.4588
1678	0.312
1687	0.114
1696	0.0325
1705	0.0662
1714	0.2438
1723	0.3809
1732	0.5764
1741	0.6681
1750	0.7032
1759	0.7265
1768	0.7425
1777	0.7414
1786	0.7378
1795	0.733
1804	0.7377
1813	0.752
1822	0.76
1831	0.7689
1840	0.7679
1849	0.7644
1858	0.7658
1867	0.7692
1876	0.7679
1885	0.7628
1894	0.7705
1903	0.7728
1912	0.7743
1921	0.7754
1930	0.7762
1939	0.773
1948	0.7762
1957	0.7809
1966	0.7819
1975	0.7824
1984	0.7897
1993	0.7893
2002	0.7841
2011	0.7822
2020	0.7813
2029	0.7807
2038	0.7783
2047	0.7724
2056	0.7723
2065	0.7724
2074	0.7741
2083	0.7756
2092	0.7766
2101	0.7763
2110	0.7761
2119	0.776
2128	0.7766
2137	0.7831
2146	0.7658
2155	0.7585
2164	0.7703
2173	0.7627
2182	0.7649
2191	0.7661
2200	0.7583
2209	0.7551
2218	0.7483
2227	0.7409
2236	0.7409
2245	0.7418
2254	0.7413
2263	0.7387
2272	0.735
2281	0.7299
2290	0.7202
2299	0.7082
2308	0.6934
2317	0.6784
2326	0.6722
2335	0.6768
2344	0.6784
2353	0.6678
2362	0.6594
2371	0.657
2380	0.6561
2389	0.656
2398	0.6554
2407	0.6507
2416	0.6377
2425	0.6325
2434	0.6091
2443	0.5919
2452	0.584
2461	0.5805
2470	0.5697
2479	0.5453
2488	0.5383
2497	0.5366
2506	0.5253
2515	0.5117
2524	0.5083
2533	0.488
2542	0.4863
2551	0.4807
2560	0.4722
2569	0.4704
2578	0.4707
2587	0.4613
2596	0.4533
2605	0.4523
2614	0.4691
2623	0.4738
2632	0.4813
2641	0.4826
2650	0.4815
2659	0.4804
2668	0.4793
2677	0.4792
2686	0.4787
2695	0.476
2704	0.4701
2713	0.4791
2722	0.4856
2731	0.4946
2740	0.517
2749	0.5068
2758	0.4997
2767	0.4993
2776	0.4918
2785	0.4728
2794	0.4633
2803	0.446
2812	0.436
2821	0.4331
2830	0.4194
2839	0.4041
2848	0.4005
2857	0.4
2866	0.4086
2875	0.4114
2884	0.4036
2893	0.4001
2902	0.3991
2911	0.3977
2920	0.3942
2929	0.391
2938	0.3892
2947	0.3871
2956	0.3798
2965	0.3718
2974	0.3711
2983	0.3834
2992	0.3866
3001	0.3887
3010	0.3897
3019	0.3792
3028	0.378
3037	0.3875
3046	0.3878
3055	0.388
3064	0.3875
3073	0.3809
3082	0.3574
3091	0.367
3100	0.3761
3109	0.3821
3118	0.398
3127	0.4218
3136	0.4421
3145	0.4716
3154	0.5072
3163	0.5255
3172	0.5306
3181	0.5314
3190	0.5313
3199	0.5515
3208	0.5578
3217	0.5653
3226	0.563
3235	0.5644
3244	0.5652
3253	0.5667
3262	0.565
3271	0.553
3280	0.5499
3289	0.5372
3298	0.5306
3307	0.5409
3316	0.5378
3325	0.5337
3334	0.5451
3343	0.544
3352	0.5461
3361	0.5487
3370	0.5287
3379	0.5143
3388	0.503
3397	0.501
3406	0.5002
3415	0.4863
3424	0.4655
3433	0.4653
3442	0.465
3451	0.4623
3460	0.4603
3469	0.467
3478	0.4742
3487	0.485
3496	0.4983
3505	0.5012
3514	0.5036
3523	0.509
3532	0.5181
3541	0.52
3550	0.538
3559	0.5454
3568	0.5651
3577	0.5879
3586	0.5982
3595	0.6124
3604	0.6199
3613	0.6303
3622	0.6479
3631	0.6587
3640	0.6924
3649	0.7049
3658	0.714
3667	0.7241
3676	0.7351
3685	0.7416
3694	0.7426
3703	0.7417
3712	0.7485
3721	0.7623
3730	0.7726
3739	0.774
3748	0.7704
3757	0.7672
3766	0.7658
3775	0.7662
3784	0.7669
3793	0.7671
3802	0.7664
3811	0.7653
3820	0.7637
3829	0.7586
3838	0.7474
3847	0.7481
3856	0.7488
3865	0.7437
3874	0.7417
3883	0.7458
3892	0.7511
3901	0.7606
3910	0.7634
3919	0.7634
3928	0.7574
3937	0.7557
3946	0.7575
3955	0.7605
3964	0.7626
3973	0.7592
3982	0.7517
3991	0.746
4000	0.7447
