Infrared Spectrum: 3-Chloro-4-fluorobenzoic acid
Formula: C 7 H 4 Cl F O 2
CAS: 403-16-7
State: gas
Origin: EPA-IR VAPOR PHASE LIBRARY
1/CM	ABSORBANCE
549.8	0.004452
559.445	0.006042
569.09	0.008122
578.734	0.010502
588.379	0.012592
598.024	0.024522
607.669	0.027252
617.313	0.012342
626.958	0.003962
636.603	0.002852
646.248	0.002382
655.893	0.002322
665.537	0.002062
675.182	0.005782
684.827	0.020032
694.472	0.017712
704.116	0.004482
713.761	0.002192
723.406	0.0017085
733.051	0.003402
742.695	0.006152
752.34	0.011802
761.985	0.020442
771.63	0.015222
781.275	0.006902
790.919	0.003262
800.564	0.002412
810.209	0.002132
819.854	0.003622
829.498	0.005762
839.143	0.005242
848.788	0.003112
858.433	0.003162
868.078	0.006262
877.722	0.006502
887.367	0.004242
897.012	0.004132
906.657	0.004802
916.301	0.002942
925.946	0.0016845
935.591	0.0011481
945.236	0.0015066
954.88	0.0015056
964.525	0.0012074
974.17	0.0016267
983.815	0.0009424
993.46	0.0010698
1003.1	0.0017273
1012.75	0.001832
1022.39	0.002462
1032.04	0.002312
1041.68	0.004122
1051.33	0.006002
1060.97	0.010422
1070.62	0.018002
1080.26	0.037202
1089.91	0.044692
1099.55	0.034672
1109.2	0.015882
1118.84	0.007162
1128.49	0.013122
1138.13	0.015262
1147.78	0.011732
1157.42	0.013632
1167.07	0.020282
1176.71	0.035622
1186.36	0.047132
1196	0.027982
1205.64	0.010052
1215.29	0.006342
1224.93	0.004482
1234.58	0.007022
1244.22	0.011202
1253.87	0.015822
1263.51	0.034582
1273.16	0.040702
1282.8	0.023372
1292.45	0.012882
1302.09	0.009842
1311.74	0.008882
1321.38	0.011892
1331.03	0.021202
1340.67	0.021342
1350.32	0.015392
1359.96	0.016402
1369.61	0.019922
1379.25	0.015212
1388.9	0.013402
1398.54	0.017192
1408.18	0.011682
1417.83	0.004902
1427.47	0.002982
1437.12	0.002532
1446.76	0.002262
1456.41	0.002052
1466.05	0.002992
1475.7	0.005442
1485.34	0.012562
1494.99	0.025742
1504.63	0.024252
1514.28	0.009372
1523.92	0.003442
1533.57	0.002952
1543.21	0.002742
1552.86	0.002552
1562.5	0.002752
1572.15	0.004502
1581.79	0.009362
1591.44	0.015942
1601.08	0.015292
1610.73	0.007712
1620.37	0.003372
1630.01	0.002432
1639.66	0.002262
1649.3	0.002092
1658.95	0.002282
1668.59	0.002092
1678.24	0.001727
1687.88	0.0017944
1697.53	0.002772
1707.17	0.004772
1716.82	0.006272
1726.46	0.005892
1736.11	0.008142
1745.75	0.020232
1755.4	0.069442
1765.04	0.108672
1774.69	0.055582
1784.33	0.012902
1793.98	0.006362
1803.62	0.005542
1813.27	0.006312
1822.91	0.005342
1832.55	0.002852
1842.2	0.001793
1851.84	0.00128
1861.49	0.0014176
1871.13	0.0013904
1880.78	0.0014831
1890.42	0.0014136
1900.07	0.0017807
1909.71	0.002072
1919.36	0.002012
1929	0.0015567
1938.65	0.0011645
1948.29	0.0010976
1957.94	0.0010117
1967.58	0.0010518
1977.23	0.0009593
1986.87	0.0010282
1996.52	0.0010305
2006.16	0.0010847
2015.81	0.0009959
2025.45	0.00088458
2035.1	0.0010179
2044.74	0.001006
2054.38	0.00093
2064.03	0.0009841
2073.67	0.00085333
2083.32	0.0009505
2092.96	0.00091046
2102.61	0.0010295
2112.25	0.0010292
2121.9	0.0010333
2131.54	0.00088473
2141.19	0.0010166
2150.83	0.0011045
2160.48	0.0009927
2170.12	0.0009243
2179.77	0.0011053
2189.41	0.001065
2199.06	0.0009528
2208.7	0.00092054
2218.35	0.0009485
2227.99	0.00088354
2237.64	0.0010304
2247.28	0.0009805
2256.92	0.0009605
2266.57	0.00092124
2276.21	0.0010154
2285.86	0.00090866
2295.5	0.0010085
2305.15	0.00084409
2314.79	0.000947
2324.44	0.0007718
2334.08	0.001
2343.73	0.0010326
2353.37	0.0010448
2363.02	0.0010766
2372.66	0.0009725
2382.31	0.001
2391.95	0.00091097
2401.6	0.000941
2411.24	0.000771
2420.89	0.00090089
2430.53	0.0007638
2440.18	0.00091713
2449.82	0.0010191
2459.47	0.0009768
2469.11	0.0010503
2478.75	0.0009352
2488.4	0.00090842
2498.04	0.0011358
2507.69	0.0011424
2517.33	0.0012302
2526.98	0.0009249
2536.62	0.0009698
2546.27	0.00091292
2555.91	0.00091254
2565.56	0.0010916
2575.2	0.0013147
2584.85	0.0012997
2594.49	0.0011609
2604.14	0.00088469
2613.78	0.00085899
2623.43	0.000684
2633.07	0.0007909
2642.72	0.0007621
2652.36	0.0009407
2662.01	0.00091989
2671.65	0.000717
2681.29	0.0007917
2690.94	0.0007
2700.58	0.000649
2710.23	0.00049
2719.87	0.00081807
2729.52	0.00090548
2739.16	0.00084578
2748.81	0.0008009
2758.45	0.00087515
2768.1	0.0008112
2777.74	0.000711
2787.39	0.000694
2797.03	0.000824503
2806.68	0.0007351
2816.32	0.0007689
2825.97	0.0007834
2835.61	0.00084266
2845.26	0.0009877
2854.9	0.0010088
2864.55	0.0009731
2874.19	0.0007616
2883.84	0.00081548
2893.48	0.0007643
2903.12	0.000683
2912.77	0.00081694
2922.41	0.0007323
2932.06	0.0007534
2941.7	0.000627
2951.35	0.00089556
2960.99	0.000629
2970.64	0.00087438
2980.28	0.00083295
2989.93	0.0009584
2999.57	0.0010533
3009.22	0.0010927
3018.86	0.000718
3028.51	0.0008415
3038.15	0.000705
3047.8	0.000748
3057.44	0.0009579
3067.09	0.0011793
3076.73	0.001842
3086.38	0.002092
3096.02	0.0014433
3105.67	0.000646
3115.31	0.000572
3124.95	0.00091475
3134.6	0.000824057
3144.24	0.00069
3153.89	0.00089491
3163.53	0.0007479
3173.18	0.0008795
3182.82	0.0007612
3192.47	0.0007543
3202.11	0.000332
3211.76	0.000595
3221.4	0.0007339
3231.05	0.000555
3240.69	0.000604
3250.34	0.0008015
3259.98	0.00088845
3269.63	0.0009453
3279.27	0.000711
3288.92	0.00088683
3298.56	0.000706
3308.21	0.00082076
3317.85	0.000585
3327.49	0.000784
3337.14	0.0007622
3346.78	0.000704
3356.43	0.00083918
3366.07	0.000508
3375.72	0.000581
3385.36	0.000496
3395.01	0.00043
3404.65	0.000522
3414.3	0.000699
3423.94	0.000496
3433.59	0.000451
3443.23	0.0008087
3452.88	0.000606
3462.52	0.00078
3472.17	0.0008004
3481.81	0.0010582
3491.46	0.001505
3501.1	0.0011898
3510.75	0.001443
3520.39	0.0015915
3530.04	0.0010779
3539.68	0.0012092
3549.32	0.0012863
3558.97	0.002132
3568.61	0.008102
3578.26	0.035192
3587.9	0.034992
3597.55	0.005872
3607.19	0.0015967
3616.84	0.0009647
3626.48	0.0011657
3636.13	0.000619
3645.77	0.00087476
3655.42	0.00083765
3665.06	0.0007378
3674.71	0.000679
3684.35	0.000664
3694	0.00085079
3703.64	0.000588
3713.29	0.0007631
3722.93	0.0007409
3732.58	0.0009573
3742.22	0.000587
3751.86	0.000698
3761.51	0.000671
3771.15	0.0008857
3780.8	0.000326
3790.44	0.00085459
3800.09	0.0007831
3809.73	0.00088838
3819.38	0.000669
3829.02	0.000546
3838.67	0.0008052
3848.31	0.0007697
3857.96	0.000688
3867.6	0.000658
3877.25	0.000536
3886.89	0.000516
3896.54	0.000648
3906.18	0.000253
3915.83	0.000652
3925.47	0.0007405
3935.12	0.000524
3944.76	0.000653
3954.41	0.000391
3964.05	0.00090906
3973.69	0.00086364
3983.34	0.00084609
3992.98	0.000665
