Infrared Spectrum: 1-(4-Fluorophenyl)ethylamine
Formula: C 8 H 10 F N
CAS: 403-40-7
State: gas
Origin: EPA-IR VAPOR PHASE LIBRARY
1/CM	ABSORBANCE
549.9	0.003936
559.547	0.003306
569.193	0.002176
578.84	0.001626
588.486	0.0012744
598.133	0.0011271
607.779	0.001089
617.426	0.0011724
627.072	0.0012042
636.719	0.0012869
646.365	0.0013098
656.012	0.001423
665.658	0.001856
675.305	0.002326
684.951	0.003116
694.598	0.003726
704.245	0.003586
713.891	0.002636
723.538	0.002346
733.184	0.002426
742.831	0.002686
752.477	0.003006
762.124	0.003416
771.77	0.003876
781.417	0.004576
791.063	0.005256
800.71	0.005786
810.356	0.006806
820.003	0.008736
829.649	0.011746
839.296	0.011406
848.943	0.006666
858.589	0.003056
868.236	0.002076
877.882	0.001756
887.529	0.001546
897.175	0.0014181
906.822	0.0012898
916.468	0.0011399
926.115	0.0009888
935.761	0.000892
945.408	0.000824
955.054	0.0008897
964.701	0.0007958
974.347	0.0007692
983.994	0.0007655
993.64	0.0009211
1003.29	0.0014582
1012.93	0.002146
1022.58	0.001916
1032.23	0.0014052
1041.87	0.0013375
1051.52	0.0014338
1061.17	0.001476
1070.81	0.001696
1080.46	0.002116
1090.11	0.002556
1099.75	0.002656
1109.4	0.002206
1119.05	0.0014233
1128.69	0.0010642
1138.34	0.0009954
1147.99	0.002836
1157.63	0.004946
1167.28	0.003586
1176.92	0.001516
1186.57	0.0011485
1196.22	0.0011357
1205.86	0.002416
1215.51	0.005686
1225.16	0.014996
1234.8	0.021826
1244.45	0.013496
1254.1	0.004146
1263.74	0.002556
1273.39	0.002146
1283.04	0.002066
1292.68	0.002326
1302.33	0.002256
1311.98	0.001986
1321.62	0.002276
1331.27	0.002536
1340.92	0.002596
1350.56	0.002686
1360.21	0.002976
1369.86	0.003236
1379.5	0.003006
1389.15	0.002186
1398.79	0.001726
1408.44	0.001626
1418.09	0.001586
1427.73	0.0014348
1437.38	0.001496
1447.03	0.001696
1456.67	0.001926
1466.32	0.002056
1475.97	0.002196
1485.61	0.002846
1495.26	0.006746
1504.91	0.017306
1514.55	0.018166
1524.2	0.006756
1533.85	0.002046
1543.49	0.0014283
1553.14	0.0013361
1562.79	0.0013878
1572.43	0.001696
1582.08	0.002676
1591.73	0.005086
1601.37	0.007846
1611.02	0.006496
1620.67	0.004316
1630.31	0.003196
1639.96	0.002386
1649.6	0.001736
1659.25	0.0012627
1668.9	0.0009512
1678.54	0.0008407
1688.19	0.0007742
1697.84	0.0007192
1707.48	0.000664
1717.13	0.0006178
1726.78	0.00056505
1736.42	0.000608
1746.07	0.0007297
1755.72	0.0007994
1765.36	0.0006929
1775.01	0.00047796
1784.66	0.0004003
1794.3	0.000389
1803.95	0.0003887
1813.6	0.000421
1823.24	0.00042
1832.89	0.00049481
1842.54	0.00046289
1852.18	0.00055053
1861.83	0.0007194
1871.47	0.0008617
1881.12	0.0009058
1890.77	0.0008348
1900.41	0.000658
1910.06	0.00054577
1919.71	0.00054469
1929.35	0.00051127
1939	0.00047619
1948.65	0.0004432
1958.29	0.0004513
1967.94	0.0004187
1977.59	0.00045867
1987.23	0.0004525
1996.88	0.0004289
2006.53	0.0004217
2016.17	0.000466043
2025.82	0.000467007
2035.47	0.00047668
2045.11	0.00052482
2054.76	0.00053927
2064.41	0.00050631
2074.05	0.00049097
2083.7	0.0004482
2093.35	0.0004451
2102.99	0.000424
2112.64	0.000409
2122.28	0.0004029
2131.93	0.0004091
2141.58	0.0004038
2151.22	0.0004039
2160.87	0.0003806
2170.52	0.0003938
2180.16	0.0004002
2189.81	0.0004068
2199.46	0.0003969
2209.1	0.000432
2218.75	0.0004091
2228.4	0.000455
2238.04	0.000472977
2247.69	0.00050927
2257.34	0.00053057
2266.98	0.000535
2276.63	0.00052213
2286.28	0.00048544
2295.92	0.00050876
2305.57	0.00050435
2315.22	0.00049978
2324.86	0.00049476
2334.51	0.000470903
2344.16	0.000470239
2353.8	0.000434
2363.45	0.0004341
2373.09	0.00049838
2382.74	0.00046111
2392.39	0.00049516
2402.03	0.00043
2411.68	0.0004777
2421.33	0.000473235
2430.97	0.000469721
2440.62	0.00050753
2450.27	0.0004991
2459.91	0.00054119
2469.56	0.00053699
2479.21	0.00048782
2488.85	0.00047787
2498.5	0.0004113
2508.15	0.0003995
2517.79	0.0004544
2527.44	0.000428
2537.09	0.000453
2546.73	0.000448
2556.38	0.000485
2566.03	0.000466267
2575.67	0.0005774
2585.32	0.00052985
2594.96	0.000469334
2604.61	0.00052518
2614.26	0.00049913
2623.9	0.00056463
2633.55	0.00054248
2643.2	0.000475396
2652.84	0.000471067
2662.49	0.00048118
2672.14	0.0004478
2681.78	0.0004307
2691.43	0.00052762
2701.08	0.00052598
2710.72	0.00050383
2720.37	0.00055659
2730.02	0.00048218
2739.66	0.00055735
2749.31	0.00053407
2758.96	0.00052579
2768.6	0.0006099
2778.25	0.0005864
2787.9	0.0006709
2797.54	0.0006858
2807.19	0.0007459
2816.84	0.0008799
2826.48	0.0010229
2836.13	0.0011298
2845.77	0.001626
2855.42	0.002046
2865.07	0.002536
2874.71	0.002836
2884.36	0.002836
2894.01	0.002596
2903.65	0.002486
2913.3	0.002416
2922.95	0.002556
2932.59	0.002916
2942.24	0.002756
2951.89	0.002786
2961.53	0.005076
2971.18	0.007066
2980.83	0.005606
2990.47	0.003466
3000.12	0.001886
3009.77	0.0013084
3019.41	0.0012774
3029.06	0.0014391
3038.71	0.001896
3048.35	0.002006
3058	0.001466
3067.64	0.0012672
3077.29	0.0012969
3086.94	0.0011698
3096.58	0.0008533
3106.23	0.000808
3115.88	0.000581
3125.52	0.0005912
3135.17	0.00045625
3144.82	0.000339
3154.46	0.000231
3164.11	0.000252
3173.76	0.000246
3183.4	0.000313
3193.05	0.000153
3202.7	0.000334
3212.34	0.000308
3221.99	0.00018
3231.64	0.00017
3241.28	0.000256
3250.93	0.000166
3260.58	9.4e-05
3270.22	0.00016
3279.87	0.000133
3289.52	5.2e-05
3299.16	0.000203
3308.81	5.9e-05
3318.45	0.000272
3328.1	0.000276
3337.75	0.000285
3347.39	0.000279
3357.04	0.000204
3366.69	0.000188
3376.33	0.000175
3385.98	0.000214
3395.63	0.000161
3405.27	0.000174
3414.92	0.000214
3424.57	0.00026
3434.21	0.000212
3443.86	9e-05
3453.51	0.000117
3463.15	0.000201
3472.8	0.000163
3482.45	0.000184
3492.09	0.000305
3501.74	0.000124
3511.39	0.000218
3521.03	0.000249
3530.68	7.3e-05
3540.33	3.5e-05
3549.97	0.000199
3559.62	0.000113
3569.26	0.000294
3578.91	0.000239
3588.56	7e-05
3598.2	0.000158
3607.85	0.00024
3617.5	0.000165
3627.14	0.000194
3636.79	0.000147
3646.44	0.000173
3656.08	0.000154
3665.73	0.000215
3675.38	0.00016
3685.02	0.000255
3694.67	0.00025
3704.32	0.000182
3713.96	7.3e-05
3723.61	0.000242
3733.26	0.000184
3742.9	0.000255
3752.55	0.000203
3762.2	0.00016
3771.84	0.000193
3781.49	0.000276
3791.13	0.000145
3800.78	0.000111
3810.43	0.000182
3820.07	0.000239
3829.72	0.000239
3839.37	0.0002
3849.01	0.00027
3858.66	0.0003
3868.31	0.000244
3877.95	0.000295
3887.6	0.000321
3897.25	0.000198
3906.89	0.000288
3916.54	0.000309
3926.19	0.000181
3935.83	0.00031
3945.48	0.000159
3955.13	0.000294
3964.77	0.000241
3974.42	0.000209
3984.07	0.000256
3993.71	0.000265
