Infrared Spectrum: Disulfide, ethyl phenyl
Formula: C8 H10 S2
CAS: 4032-81-9
State: SOLUTION (10% CCl4 FOR 3800-1330, 10% CS2 FOR 1330-400 CM^-^1)
Class: COBLENTZ III
Instrument: DOW KBr FOREPRISM-GRATING
Instrument parameters: BLAZED AT 3.5, 12.0, 20.0 MICRON AND CHANGED AT 5.0, 7.5, 14.9 MICRON
Sampling: TRANSMISSION
Path length: 0.011 CM, 0.011 CM
Resolution: 2
Origin: DOW CHEMICAL COMPANY
1/CM	TRANSMITTANCE
389	0.3093
398	0.3204
407	0.3828
416	0.4765
425	0.6993
434	0.7513
443	0.7787
452	0.7957
461	0.8004
470	0.7903
479	0.584
488	0.7151
497	0.8217
506	0.8583
515	0.8594
524	0.8703
533	0.8822
542	0.896
551	0.9054
560	0.9109
569	0.9161
578	0.9197
587	0.9222
596	0.922
605	0.9223
614	0.9197
623	0.9214
632	0.92
641	0.8955
650	0.8857
659	0.8753
668	0.8499
677	0.8398
686	0.6827
695	0.1642
704	0.6864
713	0.8722
722	0.8721
731	0.8211
740	0.0113
749	0.1592
758	0.6659
767	0.6886
776	0.8743
785	0.8674
794	0.8966
803	0.9051
812	0.9083
821	0.9049
830	0.8904
839	0.8662
848	0.8359
857	0.777
866	0.7665
875	0.7956
884	0.8351
893	0.8627
902	0.8087
911	0.8704
920	0.8962
929	0.8991
938	0.8943
947	0.8874
956	0.8716
965	0.8197
974	0.7408
983	0.8486
992	0.8682
1001	0.7865
1010	0.86
1019	0.8297
1028	0.2406
1037	0.8431
1046	0.8296
1055	0.7906
1064	0.8124
1073	0.7379
1082	0.7302
1091	0.8373
1100	0.8349
1109	0.8657
1118	0.8715
1127	0.8779
1136	0.8703
1145	0.8587
1154	0.8374
1163	0.8476
1172	0.8403
1181	0.8258
1190	0.8474
1199	0.8632
1208	0.8551
1217	0.849
1226	0.8386
1235	0.7857
1244	0.7101
1253	0.5069
1262	0.5948
1271	0.742
1280	0.7123
1289	0.8059
1298	0.7846
1307	0.8037
1316	0.8337
1325	0.8298
1334	0.7831
1343	0.8256
1352	0.8232
1361	0.8164
1370	0.7999
1379	0.6128
1388	0.7736
1397	0.7944
1406	0.7919
1415	0.7758
1424	0.6676
1433	0.7256
1442	0.6026
1451	0.4368
1460	0.448
1469	0.6416
1478	0.2931
1487	0.3368
1496	0.7063
1505	0.6955
1514	0.6612
1523	0.6139
1532	0.5616
1541	0.5047
1550	0.4322
1559	0.4217
1568	0.472
1577	0.4643
1586	0.2273
1595	0.4734
1604	0.6778
1613	0.7641
1622	0.7903
1631	0.7967
1640	0.7993
1649	0.8135
1658	0.8217
1667	0.8234
1676	0.8225
1685	0.8224
1694	0.8237
1703	0.8256
1712	0.8233
1721	0.8129
1730	0.7991
1739	0.8164
1748	0.8262
1757	0.8308
1766	0.8309
1775	0.829
1784	0.8212
1793	0.798
1802	0.8143
1811	0.834
1820	0.8401
1829	0.8444
1838	0.8412
1847	0.8343
1856	0.8155
1865	0.8114
1874	0.8127
1883	0.8182
1892	0.8399
1901	0.8438
1910	0.8431
1919	0.841
1928	0.8306
1937	0.8095
1946	0.7991
1955	0.8211
1964	0.83
1973	0.8392
1982	0.8415
1991	0.8412
2000	0.848
2009	0.8523
2018	0.8541
2027	0.8552
2036	0.8566
2045	0.8576
2054	0.8573
2063	0.8569
2072	0.8569
2081	0.8585
2090	0.8594
2099	0.8601
2108	0.8606
2117	0.861
2126	0.8617
2135	0.8621
2144	0.8617
2153	0.8612
2162	0.8608
2171	0.8603
2180	0.8596
2189	0.859
2198	0.8583
2207	0.8575
2216	0.8567
2225	0.8548
2234	0.8528
2243	0.851
2252	0.8496
2261	0.8482
2270	0.846
2279	0.8437
2288	0.842
2297	0.8413
2306	0.8426
2315	0.838
2324	0.8418
2333	0.8563
2342	0.859
2351	0.8594
2360	0.8595
2369	0.8588
2378	0.8581
2387	0.8575
2396	0.8569
2405	0.8565
2414	0.8562
2423	0.856
2432	0.8589
2441	0.8631
2450	0.8644
2459	0.8638
2468	0.8632
2477	0.8627
2486	0.8622
2495	0.8623
2504	0.8628
2513	0.863
2522	0.8628
2531	0.8626
2540	0.8624
2549	0.863
2558	0.8638
2567	0.8641
2576	0.8639
2585	0.8636
2594	0.8634
2603	0.863
2612	0.8624
2621	0.8618
2630	0.8612
2639	0.8606
2648	0.8597
2657	0.8584
2666	0.8572
2675	0.8559
2684	0.8547
2693	0.8536
2702	0.8527
2711	0.8519
2720	0.8512
2729	0.8511
2738	0.8509
2747	0.8515
2756	0.852
2765	0.852
2774	0.8529
2783	0.8523
2792	0.848
2801	0.843
2810	0.8355
2819	0.8185
2828	0.8064
2837	0.8238
2846	0.8253
2855	0.8175
2864	0.7899
2873	0.7489
2882	0.6119
2891	0.7379
2900	0.7634
2909	0.7159
2918	0.6409
2927	0.5756
2936	0.4065
2945	0.5754
2954	0.7165
2963	0.6828
2972	0.446
2981	0.42
2990	0.4253
2999	0.5767
3008	0.7243
3017	0.7324
3026	0.7555
3035	0.7718
3044	0.7682
3053	0.7431
3062	0.6287
3071	0.5378
3080	0.5874
3089	0.5742
3098	0.7701
3107	0.8274
3116	0.8384
3125	0.8422
3134	0.8442
3143	0.8451
3152	0.8452
3161	0.8454
3170	0.8474
3179	0.8508
3188	0.8541
3197	0.8561
3206	0.8569
3215	0.8579
3224	0.8589
3233	0.8602
3242	0.862
3251	0.8636
3260	0.8641
3269	0.8645
3278	0.8641
3287	0.8635
3296	0.8631
3305	0.8628
3314	0.8632
3323	0.8638
3332	0.8645
3341	0.865
3350	0.8657
3359	0.8663
3368	0.8669
3377	0.8674
3386	0.8676
3395	0.8678
3404	0.8681
3413	0.8683
3422	0.8685
3431	0.8687
3440	0.869
3449	0.8692
3458	0.8694
3467	0.8696
3476	0.8702
3485	0.8706
3494	0.8711
3503	0.8716
3512	0.8721
3521	0.8725
3530	0.8731
3539	0.8737
3548	0.8744
3557	0.875
3566	0.8757
3575	0.8764
3584	0.8769
3593	0.8771
3602	0.8774
3611	0.8776
3620	0.8779
3629	0.8782
3638	0.8779
3647	0.8774
3656	0.877
3665	0.8765
3674	0.8754
3683	0.8738
3692	0.8722
3701	0.8741
3710	0.8776
3719	0.8804
3728	0.882
3737	0.8815
3746	0.881
3755	0.8805
3764	0.8802
3773	0.8804
3782	0.8807
3791	0.881
