Infrared Spectrum: 5-VANILLYLIDENE BARBITURIC ACID
Formula: C12 H10 N2 O5
CAS: 40367-32-6
State: SOLID (SPLIT MULL), FLUOROLUBE FOR 3800-1330 CM^-^1, NUJOL FOR 1330-460 CM^-^1
Melting point: 293 C DECOMPOSES
Class: COBLENTZ III
Instrument: DOW KBr FOREPRISM-GRATING
Instrument parameters: BLAZED AT 3.5, 12.0, 20.0 MICRON AND CHANGED AT 5.0, 7.5, 14.9 MICRON
Sampling: TRANSMISSION
Resolution: 2
Origin: DOW CHEMICAL COMPANY
1/CM	TRANSMITTANCE
469.001	0.856
477.913	0.796
486.824	0.689
495.736	0.72
504.647	0.774
513.559	0.555
522.47	0.704
531.382	0.688
540.293	0.742
549.205	0.689
558.116	0.873
567.028	0.92
575.939	0.924
584.851	0.915
593.762	0.87
602.674	0.876
611.586	0.775
620.497	0.855
629.409	0.832
638.32	0.786
647.232	0.825
656.143	0.791
665.055	0.817
673.966	0.842
682.878	0.853
691.789	0.795
700.701	0.8
709.612	0.883
718.524	0.811
727.435	0.668
736.347	0.7839
745.259	0.749
754.17	0.618
763.082	0.718
771.993	0.796
780.905	0.802
789.816	0.3918
798.728	0.786
807.639	0.725
816.551	0.64
825.462	0.399
834.374	0.5091
843.285	0.733
852.197	0.699
861.108	0.809
870.02	0.856
878.932	0.825
887.843	0.44
896.755	0.866
905.666	0.898
914.578	0.896
923.489	0.884
932.401	0.869
941.312	0.725
950.224	0.5039
959.135	0.8141
968.047	0.849
976.958	0.6119
985.87	0.901
994.781	0.888
1003.69	0.7749
1012.6	0.6252
1021.52	0.874
1030.43	0.873
1039.34	0.869
1048.25	0.742
1057.16	0.88
1066.07	0.877
1074.99	0.869
1083.9	0.841
1092.81	0.7541
1101.72	0.849
1110.63	0.838
1119.54	0.795
1128.45	0.714
1137.37	0.534
1146.28	0.3439
1155.19	0.4479
1164.1	0.225
1173.01	0.298
1181.92	0.204
1190.84	0.3631
1199.75	0.295
1208.66	0.445
1217.57	0.442
1226.48	0.626
1235.39	0.5999
1244.3	0.3311
1253.22	0.658
1262.13	0.689
1271.04	0.5469
1279.95	0.155
1288.86	0.4481
1297.77	0.5399
1306.69	0.254
1315.6	0.1391
1324.51	0.685
1333.42	0.679
1342.33	0.598
1351.24	0.529
1360.15	0.455
1369.07	0.582
1377.98	0.559
1386.89	0.477
1395.8	0.3379
1404.71	0.181
1413.62	0.167
1422.53	0.307
1431.45	0.194
1440.36	0.151
1449.27	0.154
1458.18	0.214
1467.09	0.334
1476	0.423
1484.92	0.4009
1493.83	0.112
1502.74	0.086
1511.65	0.075
1520.56	0.4582
1529.47	0.565
1538.38	0.1808
1547.3	0.21
1556.21	0.6281
1565.12	0.727
1574.03	0.5679
1582.94	0.6184
1591.85	0.791
1600.77	0.7199
1609.68	0.7061
1618.59	0.713
1627.5	0.65
1636.41	0.596
1645.32	0.4789
1654.23	0.2569
1663.15	0.068
1672.06	0.08
1680.97	0.3061
1689.88	0.427
1698.79	0.3339
1707.7	0.3622
1716.62	0.611
1725.53	0.555
1734.44	0.337
1743.35	0.1989
1752.26	0.096
1761.17	0.415
1770.08	0.7471
1779	0.933
1787.91	0.984
1796.82	1.001
1805.73	1.005
1814.64	0.997
1823.55	0.994
1832.47	0.994
1841.38	0.994
1850.29	0.99
1859.2	0.981
1868.11	0.981
1877.02	0.979
1885.93	0.961
1894.85	0.961
1903.76	0.961
1912.67	0.955
1921.58	0.952
1930.49	0.949
1939.4	0.938
1948.32	0.919
1957.23	0.928
1966.14	0.931
1975.05	0.933
1983.96	0.928
1992.87	0.922
2001.78	0.915
2010.7	0.91
2019.61	0.903
2028.52	0.899
2037.43	0.894
2046.34	0.887
2055.25	0.88
2064.17	0.876
2073.08	0.871
2081.99	0.8661
2090.9	0.859
2099.81	0.844
2108.72	0.8459
2117.63	0.8461
2126.55	0.841
2135.46	0.8371
2144.37	0.832
2153.28	0.828
2162.19	0.823
2171.1	0.818
2180.02	0.8111
2188.93	0.8032
2197.84	0.7981
2206.75	0.7932
2215.66	0.7892
2224.57	0.786
2233.48	0.7792
2242.4	0.7702
2251.31	0.7612
2260.22	0.7521
2269.13	0.7451
2278.04	0.7391
2286.95	0.7332
2295.87	0.7253
2304.78	0.7171
2313.69	0.713
2322.6	0.7112
2331.51	0.7128
2340.42	0.713
2349.33	0.714
2358.25	0.714
2367.16	0.714
2376.07	0.714
2384.98	0.714
2393.89	0.714
2402.8	0.713
2411.72	0.711
2420.63	0.71
2429.54	0.708
2438.45	0.706
2447.36	0.7013
2456.27	0.6992
2465.18	0.6962
2474.1	0.694
2483.01	0.688
2491.92	0.6834
2500.83	0.6822
2509.74	0.681
2518.65	0.681
2527.57	0.681
2536.48	0.679
2545.39	0.679
2554.3	0.6806
2563.21	0.679
2572.12	0.679
2581.03	0.676
2589.95	0.6712
2598.86	0.667
2607.77	0.6624
2616.68	0.6584
2625.59	0.655
2634.5	0.653
2643.41	0.65
2652.33	0.646
2661.24	0.6407
2670.15	0.6375
2679.06	0.6352
2687.97	0.633
2696.88	0.6305
2705.8	0.628
2714.71	0.623
2723.62	0.6188
2732.53	0.614
2741.44	0.604
2750.35	0.5985
2759.26	0.5945
2768.18	0.5875
2777.09	0.5806
2786	0.5736
2794.91	0.5683
2803.82	0.5613
2812.73	0.5543
2821.65	0.5443
2830.56	0.5346
2839.47	0.5162
2848.38	0.4858
2857.29	0.4555
2866.2	0.4447
2875.11	0.4554
2884.03	0.4687
2892.94	0.4948
2901.85	0.5054
2910.76	0.5053
2919.67	0.4973
2928.58	0.485
2937.5	0.4777
2946.41	0.4707
2955.32	0.4653
2964.23	0.453
2973.14	0.4473
2982.05	0.4443
2990.96	0.4414
2999.88	0.4351
3008.79	0.4201
3017.7	0.4014
3026.61	0.3802
3035.52	0.3526
3044.43	0.3296
3053.35	0.2982
3062.26	0.2663
3071.17	0.2496
3080.08	0.2641
3088.99	0.2802
3097.9	0.284
3106.81	0.2784
3115.73	0.272
3124.64	0.271
3133.55	0.271
3142.46	0.2664
3151.37	0.26
3160.28	0.259
3169.2	0.261
3178.11	0.2683
3187.02	0.2744
3195.93	0.2607
3204.84	0.2494
3213.75	0.25
3222.66	0.2596
3231.58	0.2746
3240.49	0.279
3249.4	0.2709
3258.31	0.2522
3267.22	0.2044
3276.13	0.1508
3285.05	0.1577
3293.96	0.2094
3302.87	0.2457
3311.78	0.2852
3320.69	0.3197
3329.6	0.3531
3338.51	0.3821
3347.43	0.402
3356.34	0.4401
3365.25	0.4636
3374.16	0.4911
3383.07	0.5225
3391.98	0.5385
3400.9	0.567
3409.81	0.579
3418.72	0.5905
3427.63	0.599
3436.54	0.6115
3445.45	0.6155
3454.36	0.621
3463.28	0.621
3472.19	0.619
3481.1	0.619
3490.01	0.619
3498.92	0.619
3507.83	0.618
3516.75	0.618
3525.66	0.6171
3534.57	0.616
3543.48	0.615
3552.39	0.615
3561.3	0.614
3570.21	0.6116
3579.13	0.611
3588.04	0.611
3596.95	0.611
3605.86	0.612
3614.77	0.612
3623.68	0.612
3632.6	0.614
3641.51	0.615
3650.42	0.616
3659.33	0.6128
3668.24	0.615
3677.15	0.6132
3686.06	0.61
3694.98	0.607
3703.89	0.6036
3712.8	0.6022
3721.71	0.601
3730.62	0.601
3739.53	0.598
3748.45	0.5949
3757.36	0.59
3766.27	0.589
3775.18	0.5866
3784.09	0.586
3793	0.584
3801.91	0.5834
