Infrared Spectrum: 1,4-piperazinedipropionic acid, dimethyl ester
Formula: C12 H22 N2 O4
CAS: 4038-90-8
State: SOLID (OIL MULL)
Class: COBLENTZ III
Instrument: BAIRD (GRATING)
Instrument parameters: NaCl PRISM
Resolution: 2
Origin: WYANDOTTE CHEMICALS CORP.
1/CM	TRANSMITTANCE
626	0.7037
635	0.774
644	0.8254
653	0.8519
662	0.8677
671	0.8809
680	0.8655
689	0.8278
698	0.6831
707	0.3527
716	0.5205
725	0.6628
734	0.7108
743	0.7452
752	0.759
761	0.7398
770	0.6883
779	0.5672
788	0.0913
797	0.3947
806	0.6348
815	0.6747
824	0.6403
833	0.4091
842	0.6198
851	0.6734
860	0.6858
869	0.6785
878	0.6564
887	0.5744
896	0.1617
905	0.3925
914	0.6548
923	0.6189
932	0.374
941	0.4509
950	0.5704
959	0.5416
968	0.4806
977	0.3531
986	0.0544
995	0.2366
1004	0.3323
1013	0.0376
1022	0.2604
1031	0.4937
1040	0.5214
1049	0.484
1058	0.378
1067	0.4639
1076	0.2279
1085	0.3451
1094	0.266
1103	0.2182
1112	0.2179
1121	0.151
1130	0.0718
1139	0.0295
1148	0.0272
1157	0.0288
1166	0.0322
1175	0.0296
1184	0.0296
1193	0.0261
1202	0.0245
1211	0.0289
1220	0.0655
1229	0.1806
1238	0.294
1247	0.3928
1256	0.3709
1265	0.1404
1274	0.0393
1283	0.0564
1292	0.2471
1301	0.3173
1310	0.1302
1319	0.0363
1328	0.0349
1337	0.1293
1346	0.3374
1355	0.3184
1364	0.1051
1373	0.0453
1382	0.0678
1391	0.0404
1400	0.2526
1409	0.2093
1418	0.1253
1427	0.1017
1436	0.1708
1445	0.0336
1454	0.0347
1463	0.0374
1472	0.0336
1481	0.0925
1490	0.3272
1499	0.4906
1508	0.5999
1517	0.666
1526	0.7003
1535	0.7288
1544	0.7449
1553	0.7506
1562	0.7526
1571	0.7475
1580	0.7281
1589	0.7154
1598	0.6965
1607	0.6625
1616	0.6198
1625	0.5976
1634	0.6249
1643	0.6147
1652	0.5958
1661	0.5738
1670	0.5495
1679	0.5083
1688	0.4499
1697	0.3539
1706	0.2341
1715	0.2329
1724	0.1036
1733	0.0356
1742	0.029
1751	0.0488
1760	0.1952
1769	0.3401
1778	0.4835
1787	0.518
1796	0.4987
1805	0.6306
1814	0.7612
1823	0.856
1832	0.8963
1841	0.9184
1850	0.9287
1859	0.9541
1868	0.9356
1877	0.935
1886	0.9622
1895	0.9503
1904	0.9347
1913	0.9351
1922	0.9368
1931	0.9385
1940	0.9253
1949	0.8807
1958	0.9102
1967	0.925
1976	0.9153
1985	0.9017
1994	0.9139
2003	0.935
2012	0.931
2021	0.9114
2030	0.9026
2039	0.9095
2048	0.8891
2057	0.862
2066	0.839
2075	0.8137
2084	0.8066
2093	0.8278
2102	0.87
2111	0.8919
2120	0.9053
2129	0.9097
2138	0.9127
2147	0.9175
2156	0.9249
2165	0.9269
2174	0.9211
2183	0.9155
2192	0.9124
2201	0.9138
2210	0.9172
2219	0.9158
2228	0.9083
2237	0.9002
2246	0.9021
2255	0.9018
2264	0.8946
2273	0.8898
2282	0.8915
2291	0.9003
2300	0.9014
2309	0.899
2318	0.8938
2327	0.8873
2336	0.8771
2345	0.8627
2354	0.8403
2363	0.8081
2372	0.8061
2381	0.8229
2390	0.853
2399	0.861
2408	0.8615
2417	0.8595
2426	0.8576
2435	0.8554
2444	0.8519
2453	0.8468
2462	0.8448
2471	0.8446
2480	0.8447
2489	0.8445
2498	0.8432
2507	0.84
2516	0.8361
2525	0.8291
2534	0.8146
2543	0.7931
2552	0.7734
2561	0.7557
2570	0.7523
2579	0.7508
2588	0.7486
2597	0.7368
2606	0.7227
2615	0.706
2624	0.6935
2633	0.6737
2642	0.6416
2651	0.6144
2660	0.5419
2669	0.5145
2678	0.4997
2687	0.4772
2696	0.3029
2705	0.2871
2714	0.3495
2723	0.3896
2732	0.3179
2741	0.1973
2750	0.1899
2759	0.1817
2768	0.1516
2777	0.0924
2786	0.0482
2795	0.0363
2804	0.0316
2813	0.0293
2822	0.0285
2831	0.0278
2840	0.0277
2849	0.0275
2858	0.0274
2867	0.0272
2876	0.0271
2885	0.0257
2894	0.0243
2903	0.0228
2912	0.0213
2921	0.0199
2930	0.0185
2939	0.0171
2948	0.0159
2957	0.0147
2966	0.0231
2975	0.0694
2984	0.1154
2993	0.1611
3002	0.2066
3011	0.2294
3020	0.2331
3029	0.2384
3038	0.3209
3047	0.4214
3056	0.4972
3065	0.5197
3074	0.5956
3083	0.6198
3092	0.6349
3101	0.6459
3110	0.6558
3119	0.6636
3128	0.6696
3137	0.6746
3146	0.6784
3155	0.6819
3164	0.6841
3173	0.6863
3182	0.6886
3191	0.6911
3200	0.6947
3209	0.6989
3218	0.7047
3227	0.7116
3236	0.7175
3245	0.7222
3254	0.725
3263	0.7275
3272	0.7296
3281	0.7316
3290	0.7336
3299	0.7354
3308	0.7373
3317	0.7389
3326	0.7405
3335	0.742
3344	0.7422
3353	0.7423
3362	0.7423
3371	0.7416
3380	0.7408
3389	0.74
3398	0.7379
3407	0.7327
3416	0.7086
3425	0.6833
3434	0.6581
3443	0.6585
3452	0.6679
3461	0.6871
3470	0.7063
3479	0.7254
3488	0.7407
3497	0.7469
3506	0.7523
3515	0.757
3524	0.7616
3533	0.7672
3542	0.7732
3551	0.7768
3560	0.7798
3569	0.7825
3578	0.7848
3587	0.7872
3596	0.7895
3605	0.7917
3614	0.794
3623	0.7961
3632	0.7983
3641	0.8004
3650	0.8022
3659	0.8041
3668	0.8057
3677	0.8067
3686	0.8079
3695	0.809
3704	0.8096
3713	0.8096
3722	0.8096
3731	0.8096
3740	0.8092
3749	0.8088
3758	0.8084
3767	0.8077
3776	0.8067
3785	0.8057
3794	0.8046
3803	0.8029
3812	0.8011
3821	0.7993
3830	0.7975
3839	0.795
3848	0.7921
3857	0.7892
3866	0.7863
3875	0.7832
3884	0.7802
3893	0.7772
3902	0.7742
3911	0.7713
3920	0.7683
3929	0.7656
3938	0.7628
3947	0.7602
3956	0.7575
3965	0.7548
3974	0.7521
3983	0.7495
3992	0.7469
