Infrared Spectrum: 3-Ethyl-1-pentene
Formula: C 7 H 14
CAS: 4038-04-4
State: gas
Instrument: HP-GC/MS/IRD
Origin: NIST Mass Spectrometry Data Center
1/CM	ABSORBANCE
550	0.000399
562	0.0002604
574	3.78e-05
586	0.0001428
598	0.0001596
610	0.000231
622	0.0002772
634	0.0005502
646	0.0009366
658	0.0018606
670	0.0022008
682	0.0014028
694	0.0006048
706	0.0003864
718	0.000462
730	0.000504
742	0.00084
754	0.0011928
766	0.0012894
778	0.001239
790	0.000882
802	0.0005292
814	0.0004914
826	0.0007434
838	0.0009114
850	0.000987
862	0.0010542
874	0.0012264
886	0.0021756
898	0.0066738
910	0.0125034
922	0.0114534
934	0.0040866
946	0.002016
958	0.0015624
970	0.0018732
982	0.0037296
994	0.005439
1006	0.0047712
1018	0.0025452
1030	0.0019404
1042	0.0016674
1054	0.0012978
1066	0.0009156
1078	0.000777
1090	0.0008526
1102	0.000819
1114	0.000714
1126	0.0005838
1138	0.0006132
1150	0.000567
1162	0.000525
1174	0.0004284
1186	0.000294
1198	0.00021
1210	0.0002646
1222	0.000294
1234	0.0004116
1246	0.0005334
1258	0.0006132
1270	0.0007266
1282	0.0009324
1294	0.0011844
1306	0.001218
1318	0.0012684
1330	0.0013146
1342	0.001323
1354	0.0012768
1366	0.001785
1378	0.0029484
1390	0.0033306
1402	0.0024738
1414	0.0025326
1426	0.0027636
1438	0.0030072
1450	0.0044814
1462	0.005607
1474	0.004557
1486	0.002394
1498	0.0011634
1510	0.0007392
1522	0.0006216
1534	0.0005838
1546	0.0006174
1558	0.000672
1570	0.0007686
1582	0.0007476
1594	0.0006888
1606	0.000882
1618	0.0016884
1630	0.0031206
1642	0.0034692
1654	0.0020538
1666	0.000819
1678	0.0004872
1690	0.0002772
1702	0.0002394
1714	0.0001806
1726	0.000147
1738	0.0001596
1750	0.0001512
1762	0.0001512
1774	0.0001218
1786	0.0001722
1798	0.000231
1810	0.000483
1822	0.0010122
1834	0.0011172
1846	0.0006678
1858	0.0002688
1870	0.0001344
1882	9.66e-05
1894	8.4e-05
1906	9.24e-05
1918	0.0001008
1930	5.88e-05
1942	6.3e-05
1954	7.14e-05
1966	0.0001176
1978	0.0001386
1990	0.0001176
2002	0.0001092
2014	9.66e-05
2026	6.72e-05
2038	6.3e-05
2050	7.98e-05
2062	7.56e-05
2074	9.24e-05
2086	4.2e-05
2098	5.46e-05
2110	3.36e-05
2122	3.78e-05
2134	8.4e-06
2146	5.04e-05
2158	1.68e-05
2170	3.36e-05
2182	3.78e-05
2194	2.94e-05
2206	4.2e-05
2218	1.26e-05
2230	3.36e-05
2242	7.56e-05
2254	2.94e-05
2266	5.04e-05
2278	8.4e-05
2290	0.0001134
2302	0.0001134
2314	0.000126
2326	9.66e-05
2338	0.0001344
2350	0.000126
2362	0.0001512
2374	0.0001722
2386	0.0001638
2398	0.000147
2410	0.0001428
2422	0.0001428
2434	0.0001134
2446	9.24e-05
2458	0.0001386
2470	0.0001512
2482	0.0001596
2494	0.0001554
2506	0.000126
2518	0.0001386
2530	0.0001596
2542	0.0001806
2554	0.000231
2566	0.0002772
2578	0.0003066
2590	0.0003612
2602	0.0003108
2614	0.0002814
2626	0.0002898
2638	0.0003612
2650	0.0003276
2662	0.0004242
2674	0.000462
2686	0.0004788
2698	0.0004704
2710	0.0004788
2722	0.0006048
2734	0.0007938
2746	0.0009702
2758	0.0010248
2770	0.0010794
2782	0.0011802
2794	0.0013944
2806	0.0015876
2818	0.001869
2830	0.0025158
2842	0.0042882
2854	0.0086604
2866	0.0149058
2878	0.0206472
2890	0.019803
2902	0.017409
2914	0.0212814
2926	0.0308994
2938	0.0336546
2950	0.0313152
2962	0.0378168
2974	0.0395892
2986	0.0267162
2998	0.0121926
3010	0.0071358
3022	0.0046116
3034	0.0034314
3046	0.0033348
3058	0.0040824
3070	0.0060984
3082	0.0077994
3094	0.005544
3106	0.0025242
3118	0.0013356
3130	0.0011634
3142	0.0010416
3154	0.0009324
3166	0.0009282
3178	0.000756
3190	0.0005796
3202	0.0004284
3214	0.0003822
3226	0.000315
3238	0.0002646
3250	0.0002562
3262	0.000252
3274	0.0002142
3286	0.0001806
3298	0.0001806
3310	0.0002058
3322	0.0002058
3334	0.0001848
3346	0.000168
3358	0.0001344
3370	0.0001428
3382	0.0001596
3394	0.0001638
3406	0.000147
3418	9.66e-05
3430	0.0001428
3442	8.4e-05
3454	9.66e-05
3466	9.24e-05
3478	3.36e-05
3490	5.46e-05
3502	0.000105
3514	1.68e-05
3526	5.88e-05
3538	8.4e-05
3550	0.000105
3562	7.56e-05
3574	4.62e-05
3586	6.3e-05
3598	0.0001092
3610	0.0001176
3622	0.0001806
3634	9.24e-05
3646	0.0001512
3658	9.24e-05
3670	0.0001386
3682	0.0001806
3694	0.000168
3706	9.24e-05
3718	0.0001386
3730	0.0001596
3742	0.0001848
3754	0.0001302
3766	0.0001554
3778	0.0001008
3790	0.0001092
3802	0.0001428
3814	0.0001554
3826	0.0001008
3838	0.0001344
