Infrared Spectrum: S-PROPYLTHIOSULFURIC ACID, 2-AMINO-2-METHYL-
Formula: C4 H11 N O3 S2
CAS: 4039-24-1
State: SOLID (1 mg / 650 mg KBr DISC)
Class: COBLENTZ III
Instrument: PERKIN-ELMER 221 (GRATING)
Instrument parameters: GRATING FOR 4000-1428, FILTERS AT 2490, 980, NaCl PRISM FOR 1428-650 CM^-^1
Sampling: TRANSMISSION
Resolution: 4
Origin: SOUTHERN RESEARCH INSTITUTE
1/CM	TRANSMITTANCE
632.588	0.197
641.696	0.2419
650.804	0.444
659.911	0.6326
669.019	0.739
678.127	0.8005
687.235	0.8449
696.343	0.8678
705.45	0.8701
714.558	0.767
723.666	0.8996
732.774	0.906
741.882	0.905
750.989	0.8833
760.097	0.825
769.205	0.8602
778.313	0.883
787.421	0.88
796.528	0.8742
805.636	0.8583
814.744	0.8445
823.852	0.842
832.96	0.8345
842.067	0.8153
851.175	0.8206
860.283	0.811
869.391	0.795
878.499	0.7857
887.607	0.7667
896.714	0.7314
905.822	0.7043
914.93	0.7326
924.038	0.7098
933.146	0.6363
942.253	0.6751
951.361	0.6954
960.469	0.6733
969.577	0.6479
978.685	0.577
987.792	0.5853
996.9	0.5568
1006.01	0.4802
1015.12	0.3486
1024.22	0.105
1033.33	0.2228
1042.44	0.4741
1051.55	0.6514
1060.65	0.7146
1069.76	0.7446
1078.87	0.7316
1087.98	0.709
1097.09	0.6864
1106.19	0.6421
1115.3	0.6147
1124.41	0.5301
1133.52	0.5281
1142.63	0.5269
1151.73	0.4597
1160.84	0.3887
1169.95	0.2947
1179.06	0.2003
1188.16	0.1548
1197.27	0.2527
1206.38	0.2729
1215.49	0.2005
1224.6	0.1518
1233.7	0.1737
1242.81	0.2902
1251.92	0.3191
1261.03	0.4309
1270.13	0.5304
1279.24	0.5961
1288.35	0.549
1297.46	0.549
1306.57	0.5314
1315.67	0.6623
1324.78	0.7231
1333.89	0.7669
1343	0.8049
1352.1	0.8179
1361.21	0.8121
1370.32	0.5873
1379.43	0.7046
1388.54	0.5537
1397.64	0.7587
1406.75	0.8111
1415.86	0.7509
1424.97	0.836
1434.07	0.8333
1443.18	0.8102
1452.29	0.8299
1461.4	0.7775
1470.51	0.585
1479.61	0.7782
1488.72	0.7686
1497.83	0.7144
1506.94	0.616
1516.05	0.4151
1525.15	0.2916
1534.26	0.4228
1543.37	0.6263
1552.48	0.687
1561.58	0.6673
1570.69	0.5811
1579.8	0.3804
1588.91	0.3597
1598.02	0.3903
1607.12	0.5066
1616.23	0.6263
1625.34	0.6899
1634.45	0.7289
1643.55	0.7575
1652.66	0.7822
1661.77	0.8046
1670.88	0.817
1679.99	0.8275
1689.09	0.836
1698.2	0.845
1707.31	0.8535
1716.42	0.862
1725.52	0.871
1734.63	0.8653
1743.74	0.8728
1752.85	0.876
1761.96	0.876
1771.06	0.8733
1780.17	0.876
1789.28	0.8757
1798.39	0.874
1807.49	0.875
1816.6	0.871
1825.71	0.8707
1834.82	0.871
1843.93	0.8685
1853.03	0.872
1862.14	0.8742
1871.25	0.8762
1880.36	0.883
1889.46	0.8872
1898.57	0.889
1907.68	0.888
1916.79	0.885
1925.9	0.884
1935	0.8809
1944.11	0.879
1953.22	0.8738
1962.33	0.8701
1971.44	0.8722
1980.54	0.875
1989.65	0.875
1998.76	0.875
2007.87	0.875
2016.97	0.871
2026.08	0.87
2035.19	0.867
2044.3	0.867
2053.41	0.874
2062.51	0.875
2071.62	0.875
2080.73	0.875
2089.84	0.871
2098.94	0.8699
2108.05	0.868
2117.16	0.868
2126.27	0.871
2135.38	0.871
2144.48	0.871
2153.59	0.871
2162.7	0.87
2171.81	0.8659
2180.91	0.8609
2190.02	0.855
2199.13	0.849
2208.24	0.8421
2217.35	0.85
2226.45	0.851
2235.56	0.849
2244.67	0.8479
2253.78	0.8368
2262.88	0.8371
2271.99	0.857
2281.1	0.858
2290.21	0.858
2299.32	0.857
2308.42	0.858
2317.53	0.85
2326.64	0.838
2335.75	0.835
2344.86	0.835
2353.96	0.832
2363.07	0.835
2372.18	0.8381
2381.29	0.848
2390.39	0.849
2399.5	0.8459
2408.61	0.836
2417.72	0.828
2426.83	0.8219
2435.93	0.812
2445.04	0.806
2454.15	0.8
2463.26	0.798
2472.36	0.801
2481.47	0.8
2490.58	0.7877
2499.69	0.7499
2508.8	0.7512
2517.9	0.774
2527.01	0.772
2536.12	0.7681
2545.23	0.7618
2554.33	0.7398
2563.44	0.732
2572.55	0.735
2581.66	0.7412
2590.77	0.7611
2599.87	0.764
2608.98	0.758
2618.09	0.746
2627.2	0.742
2636.3	0.742
2645.41	0.7491
2654.52	0.757
2663.63	0.762
2672.74	0.762
2681.84	0.758
2690.95	0.751
2700.06	0.746
2709.17	0.7368
2718.28	0.72
2727.38	0.715
2736.49	0.712
2745.6	0.711
2754.71	0.71
2763.81	0.7029
2772.92	0.694
2782.03	0.6799
2791.14	0.664
2800.25	0.6539
2809.35	0.635
2818.46	0.628
2827.57	0.627
2836.68	0.627
2845.78	0.624
2854.89	0.61
2864	0.6018
2873.11	0.571
2882.22	0.562
2891.32	0.5609
2900.43	0.5549
2909.54	0.5408
2918.65	0.5188
2927.75	0.507
2936.86	0.4919
2945.97	0.4739
2955.08	0.4589
2964.19	0.438
2973.29	0.4106
2982.4	0.3834
2991.51	0.414
3000.62	0.4201
3009.72	0.4442
3018.83	0.455
3027.94	0.4529
3037.05	0.4439
3046.16	0.415
3055.26	0.3886
3064.37	0.367
3073.48	0.367
3082.59	0.37
3091.7	0.371
3100.8	0.368
3109.91	0.366
3119.02	0.366
3128.13	0.354
3137.23	0.3437
3146.34	0.324
3155.45	0.32
3164.56	0.32
3173.67	0.32
3182.77	0.32
3191.88	0.3353
3200.99	0.361
3210.1	0.396
3219.2	0.4464
3228.31	0.4833
3237.42	0.511
3246.53	0.5514
3255.64	0.5941
3264.74	0.6222
3273.85	0.6452
3282.96	0.6622
3292.07	0.6901
3301.17	0.7031
3310.28	0.706
3319.39	0.706
3328.5	0.703
3337.61	0.702
3346.71	0.698
3355.82	0.697
3364.93	0.6848
3374.04	0.677
3383.14	0.676
3392.25	0.6739
3401.36	0.672
3410.47	0.672
3419.58	0.671
3428.68	0.6721
3437.79	0.6851
3446.9	0.6933
3456.01	0.709
3465.12	0.7161
3474.22	0.722
3483.33	0.733
3492.44	0.74
3501.55	0.749
3510.65	0.755
3519.76	0.761
3528.87	0.767
3537.98	0.771
3547.09	0.777
3556.19	0.78
3565.3	0.802
3574.41	0.805
3583.52	0.814
3592.62	0.822
3601.73	0.824
3610.84	0.831
3619.95	0.841
3629.06	0.846
3638.16	0.859
3647.27	0.862
3656.38	0.863
3665.49	0.863
3674.59	0.863
3683.7	0.863
3692.81	0.864
3701.92	0.866
3711.03	0.866
3720.13	0.8659
3729.24	0.864
3738.35	0.863
3747.46	0.863
3756.56	0.863
3765.67	0.868
3774.78	0.866
3783.89	0.866
3793	0.866
3802.1	0.862
3811.21	0.861
3820.32	0.862
3829.43	0.862
3838.54	0.857
3847.64	0.858
3856.75	0.858
3865.86	0.858
3874.97	0.858
3884.07	0.858
3893.18	0.858
3902.29	0.857
3911.4	0.855
3920.51	0.855
3929.61	0.855
3938.72	0.854
3947.83	0.855
3956.94	0.855
3966.04	0.855
3975.15	0.854
3984.26	0.857
3993.37	0.858
4002.48	0.857
