Infrared Spectrum: 4-Chloro-3-nitrophenyl isocyanate
Formula: C 7 H 3 Cl N 2 O 3
CAS: 40397-96-4
State: gas
Origin: EPA-IR VAPOR PHASE LIBRARY
1/CM	ABSORBANCE
549.8	0.001471
559.445	0.003041
569.09	0.005081
578.734	0.005431
588.379	0.005551
598.024	0.005131
607.669	0.004081
617.313	0.003351
626.958	0.003111
636.603	0.002341
646.248	0.002131
655.893	0.002131
665.537	0.002971
675.182	0.004901
684.827	0.004531
694.472	0.003251
704.116	0.002361
713.761	0.001781
723.406	0.0010175
733.051	0.001191
742.695	0.001137
752.34	0.001311
761.985	0.001341
771.63	0.002051
781.275	0.004541
790.919	0.012211
800.564	0.009731
810.209	0.006141
819.854	0.010261
829.498	0.006681
839.143	0.001921
848.788	0.0010167
858.433	0.001211
868.078	0.002571
877.722	0.005611
887.367	0.005191
897.012	0.002461
906.657	0.002091
916.301	0.001421
925.946	0.0005949
935.591	0.00026354
945.236	0
954.88	0.00020802
964.525	0.0004442
974.17	0.0004574
983.815	0.0004133
993.46	0.0005357
1003.1	0.0004834
1012.75	0.0004669
1022.39	0.0007071
1032.04	0.001261
1041.68	0.004111
1051.33	0.006251
1060.97	0.002601
1070.62	0.001401
1080.26	0.001561
1089.91	0.001961
1099.55	0.005221
1109.2	0.014531
1118.84	0.014761
1128.49	0.005541
1138.13	0.004421
1147.78	0.003751
1157.42	0.003911
1167.07	0.003931
1176.71	0.003811
1186.36	0.002911
1196	0.002311
1205.64	0.001681
1215.29	0.001391
1224.93	0.0009409
1234.58	0.001421
1244.22	0.003431
1253.87	0.004001
1263.51	0.002871
1273.16	0.002311
1282.8	0.002091
1292.45	0.002581
1302.09	0.003111
1311.74	0.003551
1321.38	0.004141
1331.03	0.005861
1340.67	0.011641
1350.32	0.023371
1359.96	0.026431
1369.61	0.011681
1379.25	0.004331
1388.9	0.003001
1398.54	0.003061
1408.18	0.003171
1417.83	0.002461
1427.47	0.002451
1437.12	0.003071
1446.76	0.003651
1456.41	0.004171
1466.05	0.005281
1475.7	0.007771
1485.34	0.011461
1494.99	0.016051
1504.63	0.019691
1514.28	0.022081
1523.92	0.025001
1533.57	0.027931
1543.21	0.033691
1552.86	0.045781
1562.5	0.051261
1572.15	0.036811
1581.79	0.024411
1591.44	0.017071
1601.08	0.014171
1610.73	0.012141
1620.37	0.004981
1630.01	0.002441
1639.66	0.002001
1649.3	0.001621
1658.95	0.0011406
1668.59	0.0007128
1678.24	0.0006749
1687.88	0.0006921
1697.53	0.0007156
1707.17	0.0007594
1716.82	0.0006225
1726.46	0.0005424
1736.11	0.0005853
1745.75	0.0006474
1755.4	0.0007677
1765.04	0.0007921
1774.69	0.0007606
1784.33	0.0005238
1793.98	0.0004316
1803.62	0.0004216
1813.27	0.0004235
1822.91	0.0003933
1832.55	0.0004788
1842.2	0.0004234
1851.84	0.0003863
1861.49	0.0003769
1871.13	0.0004493
1880.78	0.0005561
1890.42	0.0008572
1900.07	0.0008481
1909.71	0.000702
1919.36	0.0004099
1929	0.0004395
1938.65	0.0003865
1948.29	0.0004089
1957.94	0.0004427
1967.58	0.0004194
1977.23	0.0003702
1986.87	0.0003427
1996.52	0.0003986
2006.16	0.0003521
2015.81	0.0004035
2025.45	0.0004487
2035.1	0.0005474
2044.74	0.0005221
2054.38	0.0006787
2064.03	0.0007764
2073.67	0.0009161
2083.32	0.0010652
2092.96	0.001441
2102.61	0.001791
2112.25	0.002091
2121.9	0.002451
2131.54	0.002871
2141.19	0.003381
2150.83	0.004401
2160.48	0.005911
2170.12	0.008161
2179.77	0.011251
2189.41	0.014881
2199.06	0.018841
2208.7	0.023611
2218.35	0.029041
2227.99	0.035261
2237.64	0.043051
2247.28	0.061511
2256.92	0.116191
2266.57	0.241781
2276.21	0.283311
2285.86	0.150691
2295.5	0.079361
2305.15	0.052211
2314.79	0.034951
2324.44	0.026761
2334.08	0.025051
2343.73	0.025161
2353.37	0.025891
2363.02	0.017701
2372.66	0.009481
2382.31	0.005951
2391.95	0.004571
2401.6	0.004081
2411.24	0.003921
2420.89	0.003581
2430.53	0.002961
2440.18	0.002241
2449.82	0.001601
2459.47	0.001241
2469.11	0.0010169
2478.75	0.0007932
2488.4	0.0007033
2498.04	0.000632
2507.69	0.0006438
2517.33	0.0008053
2526.98	0.0006221
2536.62	0.0005561
2546.27	0.0005359
2555.91	0.0005363
2565.56	0.0004067
2575.2	0.0005268
2584.85	0.0005805
2594.49	0.0006242
2604.14	0.0006467
2613.78	0.0008585
2623.43	0.0008917
2633.07	0.0008264
2642.72	0.0007305
2652.36	0.0007351
2662.01	0.0007356
2671.65	0.0008172
2681.29	0.0006213
2690.94	0.0007131
2700.58	0.000599
2710.23	0.0007034
2719.87	0.0004735
2729.52	0.000433
2739.16	0.0004282
2748.81	0.0004202
2758.45	0.0003834
2768.1	0.0004629
2777.74	0.0003169
2787.39	0.0004034
2797.03	0.0004544
2806.68	0.0006312
2816.32	0.0006347
2825.97	0.0004216
2835.61	0.0005184
2845.26	0.0005858
2854.9	0.000636
2864.55	0.0008063
2874.19	0.000796
2883.84	0.0008615
2893.48	0.0010253
2903.12	0.001221
2912.77	0.001351
2922.41	0.001191
2932.06	0.001451
2941.7	0.0011353
2951.35	0.0011118
2960.99	0.0011161
2970.64	0.000835
2980.28	0.000641
2989.93	0.0004565
2999.57	0.0003983
3009.22	0.0004214
3018.86	0.0003473
3028.51	0.0002925
3038.15	0.000615
3047.8	0.0006174
3057.44	0.000922
3067.09	0.001241
3076.73	0.001371
3086.38	0.001261
3096.02	0.0008275
3105.67	0.0006904
3115.31	0.0003617
3124.95	0.0003776
3134.6	0.0002977
3144.24	0.00022246
3153.89	0.0004024
3163.53	0.0005478
3173.18	0.0008312
3182.82	0.0006388
3192.47	0.0005608
3202.11	0.00025441
3211.76	0.000185698
3221.4	0.00022217
3231.05	0.0002713
3240.69	0.0001653
3250.34	0.0003322
3259.98	0.00020964
3269.63	0.0001016
3279.27	0.0002894
3288.92	0.00027529
3298.56	0.0001302
3308.21	0.00020923
3317.85	0.0005136
3327.49	0.0004538
3337.14	0.0004467
3346.78	0.0002453
3356.43	0.0004122
3366.07	0.0005845
3375.72	0.0007446
3385.36	0.0009847
3395.01	0.0009156
3404.65	0.0009613
3414.3	0.0008889
3423.94	0.0011613
3433.59	0.001391
3443.23	0.001191
3452.88	0.0008786
3462.52	0.0007336
3472.17	0.000699
3481.81	0.0004312
3491.46	0.0004432
3501.1	0.0003714
3510.75	0.0004496
3520.39	0.00027867
3530.04	0.0003322
3539.68	0.0003218
3549.32	0.000313
3558.97	0.00020889
3568.61	0.0003366
3578.26	0.0004615
3587.9	0.0003448
3597.55	0.0006004
3607.19	0.000422
3616.84	0.000611
3626.48	0.0006153
3636.13	0.0006171
3645.77	0.0008032
3655.42	0.0008021
3665.06	0.0008349
3674.71	0.0011215
3684.35	0.0010861
3694	0.001281
3703.64	0.001471
3713.29	0.0011012
3722.93	0.0009368
3732.58	0.0008117
3742.22	0.0007973
3751.86	0.0008031
3761.51	0.0008003
3771.15	0.0008961
3780.8	0.0009635
3790.44	0.0007003
3800.09	0.0007898
3809.73	0.0005641
3819.38	0.0004491
3829.02	0.0005188
3838.67	0.0004095
3848.31	0.0006954
3857.96	0.0004561
3867.6	0.0003309
3877.25	0.0003345
3886.89	0.0004128
3896.54	0.0004908
3906.18	0.00022514
3915.83	0.00025265
3925.47	0.00027936
3935.12	0.000184921
3944.76	0.0003118
3954.41	0.000155
3964.05	0.00025055
3973.69	0.000306
3983.34	0.0001326
3992.98	0.00027507
