Infrared Spectrum: 3-Fluorophenyl isothiocyanate
Formula: C 7 H 4 F N S
CAS: 404-72-8
State: gas
Origin: EPA-IR VAPOR PHASE LIBRARY
1/CM	ABSORBANCE
549.8	0.029004
559.445	0.025004
569.09	0.019744
578.734	0.014094
588.379	0.009344
598.024	0.006534
607.669	0.005724
617.313	0.005864
626.958	0.007964
636.603	0.008894
646.248	0.006724
655.893	0.009424
665.537	0.019794
675.182	0.031594
684.827	0.018774
694.472	0.007924
704.116	0.002724
713.761	0.001804
723.406	0.002724
733.051	0.003504
742.695	0.004894
752.34	0.011374
761.985	0.029004
771.63	0.051934
781.275	0.043004
790.919	0.021774
800.564	0.015164
810.209	0.028924
819.854	0.051594
829.498	0.085764
839.143	0.085224
848.788	0.060474
858.433	0.056194
868.078	0.039894
877.722	0.019614
887.367	0.009604
897.012	0.011394
906.657	0.013754
916.301	0.011464
925.946	0.008974
935.591	0.006344
945.236	0.004484
954.88	0.004014
964.525	0.004704
974.17	0.007574
983.815	0.012514
993.46	0.013404
1003.1	0.009764
1012.75	0.005284
1022.39	0.002624
1032.04	0.002804
1041.68	0.002364
1051.33	0.001954
1060.97	0.004864
1070.62	0.007084
1080.26	0.005634
1089.91	0.002174
1099.55	0.002074
1109.2	0.003014
1118.84	0.004104
1128.49	0.009414
1138.13	0.035134
1147.78	0.049834
1157.42	0.029754
1167.07	0.041644
1176.71	0.033144
1186.36	0.010054
1196	0.004344
1205.64	0.003904
1215.29	0.004404
1224.93	0.004094
1234.58	0.003564
1244.22	0.006194
1253.87	0.017424
1263.51	0.033484
1273.16	0.046504
1282.8	0.052454
1292.45	0.034784
1302.09	0.014474
1311.74	0.006144
1321.38	0.004374
1331.03	0.004094
1340.67	0.003164
1350.32	0.002324
1359.96	0.002014
1369.61	0.001707
1379.25	0.0015226
1388.9	0.001794
1398.54	0.003014
1408.18	0.004144
1417.83	0.005034
1427.47	0.009834
1437.12	0.025894
1446.76	0.041134
1456.41	0.030054
1466.05	0.019784
1475.7	0.054354
1485.34	0.122214
1494.99	0.073974
1504.63	0.017194
1514.28	0.015674
1523.92	0.015874
1533.57	0.013734
1543.21	0.019904
1552.86	0.025954
1562.5	0.030494
1572.15	0.056134
1581.79	0.111004
1591.44	0.160764
1601.08	0.203484
1610.73	0.202824
1620.37	0.112664
1630.01	0.040884
1639.66	0.016344
1649.3	0.009004
1658.95	0.006694
1668.59	0.005544
1678.24	0.004244
1687.88	0.004064
1697.53	0.003834
1707.17	0.004194
1716.82	0.005074
1726.46	0.005284
1736.11	0.004904
1745.75	0.005214
1755.4	0.006464
1765.04	0.006014
1774.69	0.004024
1784.33	0.003164
1793.98	0.003294
1803.62	0.004034
1813.27	0.005594
1822.91	0.007774
1832.55	0.008794
1842.2	0.009204
1851.84	0.007434
1861.49	0.006384
1871.13	0.006774
1880.78	0.007984
1890.42	0.010514
1900.07	0.014364
1909.71	0.020424
1919.36	0.029944
1929	0.040694
1938.65	0.054784
1948.29	0.077894
1957.94	0.110774
1967.58	0.150994
1977.23	0.187024
1986.87	0.230444
1996.52	0.288984
2006.16	0.341494
2015.81	0.404174
2025.45	0.506244
2035.1	0.675514
2044.74	0.669954
2054.38	0.433904
2064.03	0.272514
2073.67	0.244504
2083.32	0.296714
2092.96	0.354354
2102.61	0.335804
2112.25	0.242174
2121.9	0.163224
2131.54	0.125954
2141.19	0.109914
2150.83	0.098814
2160.48	0.090634
2170.12	0.065484
2179.77	0.039624
2189.41	0.024914
2199.06	0.017894
2208.7	0.013884
2218.35	0.010704
2227.99	0.008594
2237.64	0.007424
2247.28	0.007004
2256.92	0.008074
2266.57	0.010714
2276.21	0.011354
2285.86	0.008214
2295.5	0.005574
2305.15	0.004424
2314.79	0.004214
2324.44	0.003844
2334.08	0.003644
2343.73	0.003114
2353.37	0.002294
2363.02	0.002214
2372.66	0.002464
2382.31	0.002874
2391.95	0.003454
2401.6	0.004564
2411.24	0.006604
2420.89	0.009644
2430.53	0.010504
2440.18	0.009294
2449.82	0.008754
2459.47	0.006774
2469.11	0.004814
2478.75	0.004444
2488.4	0.004604
2498.04	0.004754
2507.69	0.004634
2517.33	0.004674
2526.98	0.005204
2536.62	0.005904
2546.27	0.006624
2555.91	0.007544
2565.56	0.008634
2575.2	0.010154
2584.85	0.010804
2594.49	0.007564
2604.14	0.003914
2613.78	0.002484
2623.43	0.002224
2633.07	0.002234
2642.72	0.002384
2652.36	0.002444
2662.01	0.002454
2671.65	0.002454
2681.29	0.002684
2690.94	0.003214
2700.58	0.003814
2710.23	0.004534
2719.87	0.005294
2729.52	0.005904
2739.16	0.005414
2748.81	0.003854
2758.45	0.002564
2768.1	0.002474
2777.74	0.002564
2787.39	0.002494
2797.03	0.002594
2806.68	0.002444
2816.32	0.002344
2825.97	0.002274
2835.61	0.002394
2845.26	0.002734
2854.9	0.003034
2864.55	0.003354
2874.19	0.003344
2883.84	0.003194
2893.48	0.002854
2903.12	0.002424
2912.77	0.002244
2922.41	0.002394
2932.06	0.002844
2941.7	0.003154
2951.35	0.002934
2960.99	0.002604
2970.64	0.002304
2980.28	0.001924
2989.93	0.001884
2999.57	0.001934
3009.22	0.002014
3018.86	0.002214
3028.51	0.002844
3038.15	0.003544
3047.8	0.004124
3057.44	0.004084
3067.09	0.004794
3076.73	0.006664
3086.38	0.007704
3096.02	0.005384
3105.67	0.003004
3115.31	0.002024
3124.95	0.0010308
3134.6	0.0008093
3144.24	0.000358
3153.89	0.00036
3163.53	0.000221
3173.18	0.000217
3182.82	0.000306
3192.47	0.000283
3202.11	0.000321
3211.76	0.000194
3221.4	0.000311
3231.05	0.000182
3240.69	0.000206
3250.34	0.000116
3259.98	9.4e-05
3269.63	0.000271
3279.27	0.000138
3288.92	0.000163
3298.56	0.000114
3308.21	0.000133
3317.85	0.000121
3327.49	0.000235
3337.14	0.000345
3346.78	0.000236
3356.43	0.000296
3366.07	0.000208
3375.72	0.000226
3385.36	0.000204
3395.01	0.000288
3404.65	0.000413
3414.3	0.000365
3423.94	0.000276
3433.59	0.000155
3443.23	0.000258
3452.88	0.000375
3462.52	0.000368
3472.17	0.000312
3481.81	0.000367
3491.46	0.000334
3501.1	0.000165
3510.75	0.000324
3520.39	0.000245
3530.04	0.000483
3539.68	0.000394
3549.32	0.000587
3558.97	0.000391
3568.61	0.000406
3578.26	0.000753486
3587.9	0.000594
3597.55	0.000556
3607.19	0.00046
3616.84	0.000561
3626.48	0.000591
3636.13	0.000474
3645.77	0.000515
3655.42	0.000504
3665.06	0.00052
3674.71	0.000319
3684.35	0.000492
3694	0.000754909
3703.64	0.000262
3713.29	0.000614
3722.93	0.000454
3732.58	0.000604
3742.22	0.0006553
3751.86	0.000494
3761.51	0.00075021
3771.15	0.0009047
3780.8	0.000556
3790.44	0.00083035
3800.09	0.0009374
3809.73	0.00084885
3819.38	0.00081255
3829.02	0.0009171
3838.67	0.0009204
3848.31	0.0009421
3857.96	0.00074717
3867.6	0.0011082
3877.25	0.001158
3886.89	0.0011894
3896.54	0.0013186
3906.18	0.0013705
3915.83	0.0014894
3925.47	0.0015644
3935.12	0.001894
3944.76	0.001834
3954.41	0.001774
3964.05	0.002134
3973.69	0.002164
3983.34	0.002234
3992.98	0.002534
