Infrared Spectrum: Alpha,Alpha,Alpha-TRIFLUOROACETANILIDE
Formula: C8 H6 F3 N O
CAS: 404-24-0
State: SOLUTION (1% CCl4 FOR 5000-1330, 1% CS2 FOR 1330-625 CM^-^1)
Class: COBLENTZ
Instrument: Not specified, most likely a prism, grating, or hybrid spectrometer.
Sampling: TRANSMISSION
Path length: 0.130 CM, 0.130 CM
Resolution: 4
Origin: DOW CHEMICAL COMPANY
MICROMETERS	TRANSMITTANCE
2.047	0.818
2.08706	0.817
2.12711	0.818
2.16717	0.83
2.20722	0.833
2.24728	0.828
2.28733	0.83
2.32739	0.83
2.36744	0.832
2.4075	0.835
2.44755	0.838
2.48761	0.845
2.52766	0.847
2.56772	0.85
2.60777	0.845
2.64783	0.852
2.68788	0.838
2.72794	0.847
2.76799	0.843
2.80805	0.833
2.8481	0.75
2.88816	0.458
2.92821	0.719
2.96827	0.699
3.00832	0.794
3.04838	0.827
3.08843	0.832
3.12849	0.832
3.16854	0.815
3.2086	0.769
3.24865	0.704
3.28871	0.752
3.32876	0.848
3.36882	0.852
3.40887	0.85
3.44893	0.848
3.48898	0.865
3.52904	0.87
3.56909	0.868
3.60915	0.872
3.6492	0.873
3.68926	0.872
3.72932	0.868
3.76937	0.872
3.80943	0.873
3.84948	0.882
3.88954	0.887
3.92959	0.888
3.96965	0.888
4.0097	0.895
4.04976	0.897
4.08981	0.892
4.12987	0.875
4.16992	0.868
4.20998	0.847
4.25003	0.794
4.29009	0.704
4.33014	0.689
4.3702	0.74
4.41025	0.827
4.45031	0.88
4.49036	0.898
4.53042	0.903
4.57047	0.903
4.61053	0.903
4.65058	0.908
4.69064	0.91
4.73069	0.911
4.77075	0.915
4.8108	0.9
4.85086	0.883
4.89091	0.862
4.93097	0.852
4.97102	0.832
5.01108	0.847
5.05113	0.847
5.09119	0.843
5.13124	0.845
5.1713	0.877
5.21135	0.865
5.25141	0.85
5.29146	0.825
5.33152	0.795
5.37158	0.767
5.41163	0.789
5.45169	0.799
5.49174	0.797
5.5318	0.79
5.57185	0.712
5.61191	0.637
5.65196	0.401
5.69202	0.126
5.73207	0.021
5.77213	0.056
5.81218	0.197
5.85224	0.431
5.89229	0.636
5.93235	0.724
5.9724	0.755
6.01246	0.762
6.05251	0.744
6.09257	0.676
6.13262	0.551
6.17268	0.32
6.21273	0.071
6.25279	0.036
6.29284	0.031
6.3329	0.023
6.37295	0.019
6.41301	0.013
6.45306	0.013
6.49312	0.018
6.53317	0.018
6.57323	0.033
6.61328	0.056
6.65334	0.066
6.69339	0.147
6.73345	0.405
6.7735	0.568
6.81356	0.606
6.85361	0.212
6.89367	0.289
6.93372	0.654
6.97378	0.732
7.01384	0.774
7.05389	0.794
7.09395	0.808
7.134	0.818
7.17406	0.81
7.21411	0.799
7.25417	0.81
7.29422	0.81
7.33428	0.79
7.37433	0.707
7.41439	0.541
7.45444	0.45
7.4945	0.571
7.53455	0.617
7.57461	0.617
7.61466	0.574
7.65472	0.463
7.69477	0.244
7.73483	0.071
7.77488	0.028
7.81494	0.142
7.85499	0.357
7.89505	0.408
7.9351	0.332
7.97516	0.187
8.01521	0.079
8.05527	0.031
8.09532	0.136
8.13538	0.222
8.17543	0.274
8.21549	0.205
8.25554	0.109
8.2956	0.044
8.33565	0.019
8.37571	0.016
8.41576	0.014
8.45582	0.014
8.49587	0.011
8.53593	0.009
8.57598	0.009
8.61604	0.009
8.6561	0.008
8.69615	0.008
8.73621	0.009
8.77626	0.021
8.81632	0.081
8.85637	0.209
8.89643	0.322
8.93648	0.445
8.97654	0.529
9.01659	0.566
9.05665	0.513
9.0967	0.524
9.13676	0.644
9.17681	0.707
9.21687	0.694
9.25692	0.583
9.29698	0.48
9.33703	0.602
9.37709	0.735
9.41714	0.775
9.4572	0.785
9.49725	0.785
9.53731	0.787
9.57736	0.789
9.61742	0.787
9.65747	0.774
9.69753	0.739
9.73758	0.762
9.77764	0.799
9.81769	0.805
9.85775	0.81
9.8978	0.815
9.93786	0.808
9.97791	0.795
10.018	0.813
10.058	0.822
10.0981	0.828
10.1381	0.822
10.1782	0.812
10.2182	0.803
10.2583	0.808
10.2984	0.822
10.3384	0.827
10.3785	0.822
10.4185	0.82
10.4586	0.823
10.4986	0.828
10.5387	0.83
10.5787	0.83
10.6188	0.83
10.6589	0.82
10.6989	0.808
10.739	0.797
10.779	0.784
10.8191	0.755
10.8591	0.724
10.8992	0.686
10.9392	0.646
10.9793	0.586
11.0193	0.506
11.0594	0.453
11.0995	0.401
11.1395	0.335
11.1796	0.277
11.2196	0.25
11.2597	0.255
11.2997	0.267
11.3398	0.26
11.3798	0.232
11.4199	0.21
11.46	0.184
11.5	0.156
11.5401	0.132
11.5801	0.111
11.6202	0.096
11.6602	0.083
11.7003	0.074
11.7403	0.086
11.7804	0.122
11.8204	0.189
11.8605	0.279
11.9006	0.378
11.9406	0.458
11.9807	0.521
12.0207	0.571
12.0608	0.602
12.1008	0.636
12.1409	0.649
12.1809	0.666
12.221	0.677
12.2611	0.677
12.3011	0.671
12.3412	0.661
12.3812	0.657
12.4213	0.662
12.4613	0.671
12.5014	0.671
12.5414	0.661
12.5815	0.644
12.6216	0.624
12.6616	0.609
12.7017	0.589
12.7417	0.588
12.7818	0.601
12.8218	0.621
12.8619	0.627
12.9019	0.626
12.942	0.596
12.982	0.546
13.0221	0.478
13.0622	0.338
13.1022	0.189
13.1423	0.098
13.1823	0.088
13.2224	0.134
13.2624	0.136
13.3025	0.061
13.3425	0.034
13.3826	0.063
13.4227	0.202
13.4627	0.318
13.5028	0.406
13.5428	0.431
13.5829	0.393
13.6229	0.289
13.663	0.169
13.703	0.149
13.7431	0.255
13.7832	0.372
13.8232	0.45
13.8633	0.49
13.9033	0.509
13.9434	0.521
13.9834	0.526
14.0235	0.526
14.0635	0.524
14.1036	0.519
14.1436	0.511
14.1837	0.5
14.2238	0.475
14.2638	0.448
14.3039	0.411
14.3439	0.368
14.384	0.323
14.424	0.245
14.4641	0.172
14.5041	0.112
14.5442	0.084
14.5843	0.111
14.6243	0.199
14.6644	0.265
14.7044	0.308
14.7445	0.332
14.7845	0.338
14.8246	0.338
14.8646	0.337
14.9047	0.338
14.9447	0.342
14.9848	0.342
15.0249	0.338
15.0649	0.33
15.105	0.315
15.145	0.297
15.1851	0.282
15.2251	0.267
15.2652	0.255
15.3052	0.25
15.3453	0.247
15.3854	0.244
15.4254	0.244
15.4655	0.247
15.5055	0.25
15.5456	0.255
15.5856	0.265
15.6257	0.272
15.6657	0.28
15.7058	0.287
15.7459	0.29
15.7859	0.295
15.826	0.302
15.866	0.303
15.9061	0.303
