Infrared Spectrum: 3-Fluoro-4-methoxyphenylacetonitrile
Formula: C 9 H 8 F N O
CAS: 404-90-0
State: gas
Origin: EPA-IR VAPOR PHASE LIBRARY
1/CM	ABSORBANCE
549.8	0.001949
559.445	0.002509
569.09	0.003319
578.734	0.004589
588.379	0.004339
598.024	0.003709
607.669	0.003419
617.313	0.003439
626.958	0.003159
636.603	0.002429
646.248	0.001879
655.893	0.001129
665.537	0.001279
675.182	0.001409
684.827	0.001729
694.472	0.001559
704.116	0.001839
713.761	0.002159
723.406	0.003119
733.051	0.005099
742.695	0.008559
752.34	0.012159
761.985	0.013339
771.63	0.007919
781.275	0.004999
790.919	0.007099
800.564	0.012369
810.209	0.014359
819.854	0.013139
829.498	0.008179
839.143	0.005129
848.788	0.005859
858.433	0.008889
868.078	0.007629
877.722	0.004579
887.367	0.003429
897.012	0.004199
906.657	0.005539
916.301	0.005859
925.946	0.005859
935.591	0.005479
945.236	0.005899
954.88	0.008519
964.525	0.010059
974.17	0.007549
983.815	0.005839
993.46	0.007209
1003.1	0.012429
1012.75	0.022759
1022.39	0.028159
1032.04	0.022529
1041.68	0.016049
1051.33	0.007989
1060.97	0.004719
1070.62	0.002789
1080.26	0.002169
1089.91	0.002529
1099.55	0.003899
1109.2	0.010009
1118.84	0.023309
1128.49	0.030009
1138.13	0.020879
1147.78	0.010419
1157.42	0.005659
1167.07	0.004779
1176.71	0.006339
1186.36	0.007349
1196	0.007769
1205.64	0.010949
1215.29	0.021999
1224.93	0.038399
1234.58	0.037849
1244.22	0.023949
1253.87	0.022719
1263.51	0.039729
1273.16	0.077349
1282.8	0.109849
1292.45	0.094129
1302.09	0.055009
1311.74	0.033399
1321.38	0.022639
1331.03	0.014899
1340.67	0.008749
1350.32	0.005739
1359.96	0.004409
1369.61	0.003829
1379.25	0.003549
1388.9	0.003709
1398.54	0.004749
1408.18	0.007729
1417.83	0.014669
1427.47	0.026709
1437.12	0.032239
1446.76	0.030109
1456.41	0.022119
1466.05	0.017689
1475.7	0.014169
1485.34	0.013859
1494.99	0.025019
1504.63	0.064049
1514.28	0.131239
1523.92	0.113609
1533.57	0.041799
1543.21	0.017729
1552.86	0.011969
1562.5	0.010449
1572.15	0.011679
1581.79	0.015529
1591.44	0.015789
1601.08	0.010659
1610.73	0.008399
1620.37	0.009009
1630.01	0.007169
1639.66	0.003769
1649.3	0.002399
1658.95	0.001899
1668.59	0.001439
1678.24	0.001379
1687.88	0.001289
1697.53	0.001489
1707.17	0.001979
1716.82	0.002149
1726.46	0.001889
1736.11	0.001509
1745.75	0.001309
1755.4	0.001339
1765.04	0.001439
1774.69	0.001569
1784.33	0.001559
1793.98	0.001279
1803.62	0.0010244
1813.27	0.0008515
1822.91	0.0008066
1832.55	0.000923
1842.2	0.0010525
1851.84	0.001319
1861.49	0.001529
1871.13	0.001579
1880.78	0.001589
1890.42	0.001359
1900.07	0.0010151
1909.71	0.0009257
1919.36	0.000809
1929	0.0007284
1938.65	0.0006809
1948.29	0.0006839
1957.94	0.0006305
1967.58	0.0008081
1977.23	0.0009925
1986.87	0.001119
1996.52	0.001219
2006.16	0.001429
2015.81	0.001809
2025.45	0.002519
2035.1	0.002859
2044.74	0.002619
2054.38	0.002189
2064.03	0.001809
2073.67	0.001389
2083.32	0.00108
2092.96	0.0008187
2102.61	0.0006471
2112.25	0.0006406
2121.9	0.0005974
2131.54	0.0005671
2141.19	0.0004942
2150.83	0.0005419
2160.48	0.0006047
2170.12	0.0006613
2179.77	0.0006173
2189.41	0.0005513
2199.06	0.0005603
2208.7	0.000475
2218.35	0.0005904
2227.99	0.0006835
2237.64	0.0008939
2247.28	0.001419
2256.92	0.001969
2266.57	0.001729
2276.21	0.001539
2285.86	0.001249
2295.5	0.0009014
2305.15	0.0008029
2314.79	0.0007439
2324.44	0.0007266
2334.08	0.0007308
2343.73	0.000796
2353.37	0.0008306
2363.02	0.0008353
2372.66	0.0008146
2382.31	0.0008124
2391.95	0.0007866
2401.6	0.0007261
2411.24	0.0005851
2420.89	0.0006005
2430.53	0.0005313
2440.18	0.0005213
2449.82	0.0005015
2459.47	0.0005106
2469.11	0.0004916
2478.75	0.0005046
2488.4	0.0007529
2498.04	0.0008687
2507.69	0.0008711
2517.33	0.000887
2526.98	0.0009533
2536.62	0.001239
2546.27	0.001389
2555.91	0.001589
2565.56	0.001829
2575.2	0.001909
2584.85	0.001759
2594.49	0.001409
2604.14	0.001189
2613.78	0.0009469
2623.43	0.0008183
2633.07	0.0006962
2642.72	0.0006337
2652.36	0.0004688
2662.01	0.000428
2671.65	0.0004602
2681.29	0.0004779
2690.94	0.0005355
2700.58	0.0006383
2710.23	0.0007287
2719.87	0.0007754
2729.52	0.0007697
2739.16	0.0008166
2748.81	0.00082
2758.45	0.0007572
2768.1	0.0007729
2777.74	0.0009071
2787.39	0.0010295
2797.03	0.001369
2806.68	0.001829
2816.32	0.002409
2825.97	0.003619
2835.61	0.006039
2845.26	0.010929
2854.9	0.010029
2864.55	0.005619
2874.19	0.004389
2883.84	0.004219
2893.48	0.004789
2903.12	0.006369
2912.77	0.008999
2922.41	0.011039
2932.06	0.013549
2941.7	0.017529
2951.35	0.017719
2960.99	0.015329
2970.64	0.012919
2980.28	0.010089
2989.93	0.008569
2999.57	0.008919
3009.22	0.011969
3018.86	0.012289
3028.51	0.007629
3038.15	0.006269
3047.8	0.006229
3057.44	0.005599
3067.09	0.004759
3076.73	0.003959
3086.38	0.003279
3096.02	0.002309
3105.67	0.001829
3115.31	0.001439
3124.95	0.001249
3134.6	0.0009625
3144.24	0.0008461
3153.89	0.0007817
3163.53	0.0007853
3173.18	0.0008688
3182.82	0.0005199
3192.47	0.0007539
3202.11	0.0007027
3211.76	0.0005958
3221.4	0.0003569
3231.05	0.0006511
3240.69	0.00046
3250.34	0.0002211
3259.98	0.0003235
3269.63	0.0003205
3279.27	0.0003273
3288.92	0.00013228
3298.56	0.000282
3308.21	0.0003196
3317.85	0.0002872
3327.49	0.0003391
3337.14	0.0003753
3346.78	0.00020599
3356.43	0.0002546
3366.07	0.0002761
3375.72	0.0002931
3385.36	0.0003285
3395.01	0.00018682
3404.65	0.0004653
3414.3	0.00017045
3423.94	0.0003502
3433.59	0.00012743
3443.23	0.000111255
3452.88	0.0003
3462.52	0.000387
3472.17	0.0003874
3481.81	0.00020169
3491.46	0.0002503
3501.1	0.0002112
3510.75	0.0003919
3520.39	0.0003031
3530.04	0.0003266
3539.68	0.00019812
3549.32	0.000352
3558.97	0.0003444
3568.61	0.00015659
3578.26	0.0004077
3587.9	0.0003098
3597.55	0.00013753
3607.19	0.0003763
3616.84	0.0002816
3626.48	0.00010764
3636.13	0.0003628
3645.77	0.0003415
3655.42	0.0002768
3665.06	0.0001503
3674.71	0.0003456
3684.35	0.000363
3694	0.00018471
3703.64	0.00020764
3713.29	0.0002422
3722.93	0.0003371
3732.58	0.0002644
3742.22	0.00019851
3751.86	0.0003663
3761.51	0.0004502
3771.15	0.0003424
3780.8	0.0005856
3790.44	0.0004308
3800.09	0.0004703
3809.73	0.00020061
3819.38	0.0003967
3829.02	0.0002444
3838.67	0.0004394
3848.31	0.0004147
3857.96	0.0002697
3867.6	0.0005995
3877.25	0.0003167
3886.89	0.0002711
3896.54	0.0002281
3906.18	0.0002881
3915.83	0.0003021
3925.47	0.0002996
3935.12	0.0004498
3944.76	0.0004318
3954.41	0.0003997
3964.05	0.0006693
3973.69	0.0004632
3983.34	0.0003664
3992.98	0.0005574
