Infrared Spectrum: 2-Iodophenylacetonitrile
Formula: C 8 H 6 I N
CAS: 40400-15-5
State: gas
Origin: EPA-IR VAPOR PHASE LIBRARY
1/CM	ABSORBANCE
549.8	0.002359
559.445	0.001984
569.09	0.0045
578.734	0.00374
588.379	0.00265893
598.024	0.00377
607.669	0.0037
617.313	0.0032311
626.958	0.0033332
636.603	0.0033533
646.248	0.00504
655.893	0.00714
665.537	0.00622
675.182	0.0029779
684.827	0.00395
694.472	0.0030232
704.116	0.00394
713.761	0.0030371
723.406	0.0054
733.051	0.01283
742.695	0.03011
752.34	0.01789
761.985	0.00556
771.63	0.0031938
781.275	0.00241
790.919	0.0032683
800.564	0.0032541
810.209	0.00404
819.854	0
829.498	0.00242
839.143	0.0032829
848.788	0.0027074
858.433	0.002422
868.078	0.0034049
877.722	0.0033579
887.367	0.0029338
897.012	0.00366
906.657	0.0025963
916.301	0.0027866
925.946	0.002826
935.591	0.00382
945.236	0.00366
954.88	0.0031878
964.525	0.0034651
974.17	0.0035728
983.815	0.0027766
993.46	0.00422
1003.1	0.0073
1012.75	0.01834
1022.39	0.01529
1032.04	0.00522
1041.68	0.0036193
1051.33	0.00557
1060.97	0.00478
1070.62	0.003455
1080.26	0.001808
1089.91	0.004
1099.55	0.00267181
1109.2	0.00422
1118.84	0.0030615
1128.49	0.002478
1138.13	0.001927
1147.78	0.00308
1157.42	0.0030914
1167.07	0.00126
1176.71	0.0034794
1186.36	0.002347
1196	0.00508
1205.64	0.00417
1215.29	0.00366
1224.93	0.002007
1234.58	0.0035084
1244.22	0.002108
1253.87	0.00386
1263.51	0.002485
1273.16	0.00271471
1282.8	0.0028383
1292.45	0.00267515
1302.09	0.003421
1311.74	0.0032719
1321.38	0.0033579
1331.03	0.002907
1340.67	0.0028918
1350.32	0.0032283
1359.96	0.0032854
1369.61	0.0032673
1379.25	0.0028375
1388.9	0.00363
1398.54	0.00427
1408.18	0.00527
1417.83	0.00715
1427.47	0.0096
1437.12	0.01341
1446.76	0.00976
1456.41	0.00759
1466.05	0.0113
1475.7	0.01058
1485.34	0.00583
1494.99	0.00386
1504.63	0.0030898
1514.28	0.0028013
1523.92	0.0027764
1533.57	0.0029001
1543.21	0.0032829
1552.86	0.00389
1562.5	0.00582
1572.15	0.0058
1581.79	0.00545
1591.44	0.0054
1601.08	0.00404
1610.73	0.0029296
1620.37	0.0029626
1630.01	0.0030575
1639.66	0.0029719
1649.3	0.0027432
1658.95	0.0030259
1668.59	0.0029408
1678.24	0.0030153
1687.88	0.003401
1697.53	0.0032175
1707.17	0.0028967
1716.82	0.0028115
1726.46	0.0028294
1736.11	0.0030072
1745.75	0.0026752
1755.4	0.002843
1765.04	0.003023
1774.69	0.0030444
1784.33	0.0028739
1793.98	0.0033016
1803.62	0.0031614
1813.27	0.0032243
1822.91	0.0031455
1832.55	0.0031829
1842.2	0.0029171
1851.84	0.0028237
1861.49	0.0029728
1871.13	0.0029002
1880.78	0.0028722
1890.42	0.0027649
1900.07	0.0029876
1909.71	0.0030814
1919.36	0.0032659
1929	0.0032143
1938.65	0.0033942
1948.29	0.0033498
1957.94	0.0029849
1967.58	0.002985
1977.23	0.0028365
1986.87	0.0029161
1996.52	0.0028598
2006.16	0.0025354
2015.81	0.0027433
2025.45	0.0031513
2035.1	0.0028825
2044.74	0.0027824
2054.38	0.0025593
2064.03	0.00271331
2073.67	0.0027962
2083.32	0.0027705
2092.96	0.0025797
2102.61	0.0025545
2112.25	0.00267191
2121.9	0.00263992
2131.54	0.00265388
2141.19	0.002899
2150.83	0.0030056
2160.48	0.00272995
2170.12	0.0028277
2179.77	0.0029674
2189.41	0.0028166
2199.06	0.00272302
2208.7	0.00249
2218.35	0.00270912
2227.99	0.00264314
2237.64	0.0031092
2247.28	0.0030674
2256.92	0.003278
2266.57	0.002776
2276.21	0.00271081
2285.86	0.0028122
2295.5	0.0029151
2305.15	0.002879
2314.79	0.00272532
2324.44	0.0028929
2334.08	0.0028775
2343.73	0.00266297
2353.37	0.0028149
2363.02	0.0030491
2372.66	0.0027409
2382.31	0.0029111
2391.95	0.0027376
2401.6	0.0027354
2411.24	0.0030295
2420.89	0.0027907
2430.53	0.0029562
2440.18	0.0029882
2449.82	0.0031881
2459.47	0.0025601
2469.11	0.0030247
2478.75	0.00269473
2488.4	0.0027517
2498.04	0.0030251
2507.69	0.0029491
2517.33	0.00266601
2526.98	0.00301
2536.62	0.00263826
2546.27	0.0028436
2555.91	0.0028676
2565.56	0.0031976
2575.2	0.0030298
2584.85	0.0029189
2594.49	0.0030754
2604.14	0.0034561
2613.78	0.0034012
2623.43	0.00272196
2633.07	0.0028201
2642.72	0.002964
2652.36	0.0025652
2662.01	0.0029861
2671.65	0.0029276
2681.29	0.0031081
2690.94	0.00268051
2700.58	0.002459
2710.23	0.0026199
2719.87	0.0027843
2729.52	0.0031558
2739.16	0.0032054
2748.81	0.0027704
2758.45	0.002314
2768.1	0.0027871
2777.74	0.0027686
2787.39	0.002496
2797.03	0.00270911
2806.68	0.002475
2816.32	0.00266752
2825.97	0.0028861
2835.61	0.002563
2845.26	0.0031457
2854.9	0.002
2864.55	0.002367
2874.19	0.0031677
2883.84	0.0031286
2893.48	0.002499
2903.12	0.00270955
2912.77	0.002347
2922.41	0.0032721
2932.06	0.00397
2941.7	0.00427
2951.35	0.00272395
2960.99	0.0036021
2970.64	0.0034791
2980.28	0.0029043
2989.93	0.003069
2999.57	0.0030499
3009.22	0.00344
3018.86	0.00367
3028.51	0.0034827
3038.15	0.0032667
3047.8	0.00391
3057.44	0.00568
3067.09	0.0086
3076.73	0.00891
3086.38	0.00521
3096.02	0.004
3105.67	0.0032523
3115.31	0.002787
3124.95	0.0031337
3134.6	0.00266559
3144.24	0.0025977
3153.89	0.0034589
3163.53	0.0032476
3173.18	0.0029351
3182.82	0.0025497
3192.47	0.00263175
3202.11	0.002342
3211.76	0.0033938
3221.4	0.00223
3231.05	0.002494
3240.69	0.0029823
3250.34	0.0027678
3259.98	0.0029366
3269.63	0.002391
3279.27	0.002107
3288.92	0.002335
3298.56	0.0029623
3308.21	0.002529
3317.85	0.00371
3327.49	0.0032716
3337.14	0.0031286
3346.78	0.001942
3356.43	0.0030156
3366.07	0.002493
3375.72	0.002195
3385.36	0.00272199
3395.01	0.00216
3404.65	0.0031252
3414.3	0.0033215
3423.94	0.0029079
3433.59	0.002914
3443.23	0.0029013
3452.88	0.002849
3462.52	0.0025534
3472.17	0.0025695
3481.81	0.0030037
3491.46	0.0026014
3501.1	0.00265355
3510.75	0.0032725
3520.39	0.00276
3530.04	0.0027391
3539.68	0.0033362
3549.32	0.002517
3558.97	0.002211
3568.61	0.00267768
3578.26	0.0032213
3587.9	0.002207
3597.55	0.002074
3607.19	0.002849
3616.84	0.002105
3626.48	0.002295
3636.13	0.0026182
3645.77	0.002273
3655.42	0.0025843
3665.06	0.0027372
3674.71	0.0025846
3684.35	0.0025803
3694	0.002415
3703.64	0.001925
3713.29	0.002075
3722.93	0.0027709
3732.58	0.00226
3742.22	0.0029505
3751.86	0.002425
3761.51	0.0030707
3771.15	0.0025631
3780.8	0.00267778
3790.44	0.00264985
3800.09	0.002459
3809.73	0.0027551
3819.38	0.0027806
3829.02	0.0029632
3838.67	0.00246
3848.31	0.0025841
3857.96	0.002441
3867.6	0.00368
3877.25	0.0027636
3886.89	0.0027397
3896.54	0.0030932
3906.18	0.0030985
3915.83	0.0031724
3925.47	0.0025841
3935.12	0.002246
3944.76	0.002299
3954.41	0.0034169
3964.05	0.001977
3973.69	0.00268816
3983.34	0.002315
3992.98	0.0035612
