Infrared Spectrum: Pipecolic acid
Formula: C6 H11 N O2
CAS: 4043-87-2
State: SOLID (SPLIT MULL)
Class: COBLENTZ III
Instrument: DOW KBr FOREPRISM-GRATING
Instrument parameters: BLAZED AT 3.5, 12.0, 20.0 MICRON AND CHANGED AT 5.0, 7.5, 14.9 MICRON
Sampling: TRANSMISSION
Resolution: 2
Origin: DOW CHEMICAL COMPANY
1/CM	TRANSMITTANCE
3812	0.7818
3803	0.7819
3794	0.7824
3785	0.7825
3776	0.7825
3767	0.7834
3758	0.7849
3749	0.7861
3740	0.7878
3731	0.7894
3722	0.791
3713	0.7915
3704	0.7922
3695	0.7928
3686	0.7935
3677	0.7936
3668	0.7935
3659	0.7934
3650	0.7928
3641	0.7921
3632	0.7915
3623	0.7908
3614	0.7901
3605	0.7896
3596	0.7889
3587	0.788
3578	0.7868
3569	0.7851
3560	0.7835
3551	0.7815
3542	0.7797
3533	0.7776
3524	0.7757
3515	0.7734
3506	0.7714
3497	0.7705
3488	0.7696
3479	0.7688
3470	0.7685
3461	0.7682
3452	0.768
3443	0.7678
3434	0.769
3425	0.7701
3416	0.7712
3407	0.7725
3398	0.7738
3389	0.7754
3380	0.7772
3371	0.7792
3362	0.7811
3353	0.783
3344	0.7849
3335	0.7858
3326	0.7871
3317	0.7884
3308	0.7885
3299	0.7878
3290	0.7867
3281	0.7857
3272	0.7848
3263	0.7838
3254	0.7837
3245	0.7837
3236	0.7831
3227	0.7798
3218	0.7758
3209	0.7695
3200	0.7621
3191	0.7534
3182	0.744
3173	0.734
3164	0.7211
3155	0.7042
3146	0.688
3137	0.6715
3128	0.6542
3119	0.6294
3110	0.6048
3101	0.5793
3092	0.5489
3083	0.5173
3074	0.4949
3065	0.4669
3056	0.4428
3047	0.4279
3038	0.4181
3029	0.4084
3020	0.3989
3011	0.3834
3002	0.3387
2993	0.3534
2984	0.341
2975	0.2402
2966	0.296
2957	0.3486
2948	0.216
2939	0.2875
2930	0.2928
2921	0.3046
2912	0.3399
2903	0.3588
2894	0.3698
2885	0.3786
2876	0.3821
2867	0.3175
2858	0.2917
2849	0.3393
2840	0.3582
2831	0.3672
2822	0.3823
2813	0.4009
2804	0.4103
2795	0.4102
2786	0.3959
2777	0.3759
2768	0.3632
2759	0.3544
2750	0.3477
2741	0.3412
2732	0.337
2723	0.3359
2714	0.3426
2705	0.3514
2696	0.3595
2687	0.3687
2678	0.3809
2669	0.3938
2660	0.4089
2651	0.4349
2642	0.4608
2633	0.4846
2624	0.5032
2615	0.5103
2606	0.5085
2597	0.4707
2588	0.4516
2579	0.4584
2570	0.4771
2561	0.4931
2552	0.4945
2543	0.4625
2534	0.4562
2525	0.4622
2516	0.4896
2507	0.514
2498	0.5384
2489	0.5628
2480	0.576
2471	0.5765
2462	0.5755
2453	0.601
2444	0.6212
2435	0.6349
2426	0.6438
2417	0.6464
2408	0.6471
2399	0.6487
2390	0.6587
2381	0.6684
2372	0.6775
2363	0.6871
2354	0.6974
2345	0.7065
2336	0.7145
2327	0.7208
2318	0.7261
2309	0.7317
2300	0.7378
2291	0.7442
2282	0.7505
2273	0.7551
2264	0.7587
2255	0.763
2246	0.7675
2237	0.7764
2228	0.7843
2219	0.7906
2210	0.7947
2201	0.7965
2192	0.7968
2183	0.7955
2174	0.7988
2165	0.8087
2156	0.8128
2147	0.8176
2138	0.8225
2129	0.8268
2120	0.8308
2111	0.8345
2102	0.8375
2093	0.8403
2084	0.8432
2075	0.846
2066	0.8488
2057	0.8516
2048	0.8547
2039	0.8577
2030	0.8604
2021	0.8628
2012	0.8642
2003	0.8652
1994	0.864
1985	0.8588
1976	0.8607
1967	0.8643
1958	0.8721
1949	0.8617
1940	0.8632
1931	0.8658
1922	0.869
1913	0.8689
1904	0.8693
1895	0.8698
1886	0.8702
1877	0.8713
1868	0.8731
1859	0.8725
1850	0.8718
1841	0.8716
1832	0.8732
1823	0.8749
1814	0.876
1805	0.8747
1796	0.8751
1787	0.8757
1778	0.8767
1769	0.8778
1760	0.8789
1751	0.8792
1742	0.8775
1733	0.8743
1724	0.8691
1715	0.8582
1706	0.8439
1697	0.8194
1688	0.799
1679	0.7521
1670	0.6511
1661	0.3444
1652	0.0496
1643	0.0312
1634	0.2387
1625	0.376
1616	0.4978
1607	0.514
1598	0.4526
1589	0.359
1580	0.2469
1571	0.2037
1562	0.3523
1553	0.5008
1544	0.6014
1535	0.65
1526	0.6889
1517	0.716
1508	0.7411
1499	0.7549
1490	0.7528
1481	0.7062
1472	0.5796
1463	0.4986
1454	0.3918
1445	0.5341
1436	0.6292
1427	0.6307
1418	0.5293
1409	0.0993
1400	0.0674
1391	0.1936
1382	0.2063
1373	0.1249
1364	0.2249
1355	0.3278
1346	0.3923
1337	0.419
1328	0.1679
1319	0.31
1310	0.5716
1301	0.6525
1292	0.3809
1283	0.5604
1274	0.6262
1265	0.7201
1256	0.7464
1247	0.7431
1238	0.7208
1229	0.7675
1220	0.7833
1211	0.7871
1202	0.7365
1193	0.779
1184	0.7874
1175	0.7903
1166	0.6687
1157	0.7749
1148	0.7889
1139	0.793
1130	0.601
1121	0.64
1112	0.7724
1103	0.7831
1094	0.7801
1085	0.7232
1076	0.5903
1067	0.6918
1058	0.7267
1049	0.4875
1040	0.6845
1031	0.7625
1022	0.6617
1013	0.7983
1004	0.8112
995	0.8105
986	0.7668
977	0.4912
968	0.7547
959	0.7993
950	0.8142
941	0.8078
932	0.6295
923	0.4368
914	0.7578
905	0.5199
896	0.7684
887	0.798
878	0.8097
869	0.8164
860	0.8171
851	0.7593
842	0.8081
833	0.7362
824	0.8051
815	0.8097
806	0.6234
797	0.8168
788	0.8214
779	0.7519
770	0.3248
761	0.7925
752	0.8121
743	0.8171
734	0.8015
725	0.7701
716	0.7982
707	0.8268
698	0.8268
689	0.6695
680	0.6855
671	0.7278
662	0.8354
653	0.8541
644	0.8621
635	0.8659
626	0.8699
617	0.8728
608	0.8739
599	0.8728
590	0.8697
581	0.8608
572	0.8414
563	0.7371
554	0.5836
545	0.7421
536	0.6999
527	0.7588
518	0.3033
509	0.7711
500	0.8683
491	0.8971
482	0.9056
473	0.9078
464	0.896
455	0.7386
446	0.8568
437	0.8725
428	0.6408
419	0.716
410	0.8487
401	0.8824
392	0.8952
383	0.903
