Infrared Spectrum: BENZOPHENONE, 2,4-DIHYDROXY-4'-METHYL
Formula: C14 H12 O3
CAS: 40444-43-7
State: SOLID (KBr PELLET)
Class: COBLENTZ
Instrument: Not specified, most likely a prism, grating, or hybrid spectrometer.
Sampling: TRANSMISSION
Resolution: 4
Origin: TENNESSEE EASTMAN COMPANY, RESEARCH LABORATORIES
MICROMETERS	TRANSMITTANCE
2.027	0.849
2.06818	0.852
2.10937	0.852
2.15055	0.857
2.19174	0.861
2.23292	0.861
2.27411	0.861
2.31529	0.866
2.35647	0.867
2.39766	0.878
2.43884	0.878
2.48003	0.879
2.52121	0.879
2.5624	0.879
2.60358	0.879
2.64476	0.881
2.68595	0.881
2.72713	0.871
2.76832	0.837
2.8095	0.804
2.85069	0.778
2.89187	0.713
2.93305	0.538
2.97424	0.396
3.01542	0.212
3.05661	0.283
3.09779	0.432
3.13898	0.523
3.18016	0.617
3.22134	0.687
3.26253	0.689
3.30371	0.691
3.3449	0.732
3.38608	0.723
3.42726	0.771
3.46845	0.787
3.50963	0.806
3.55082	0.823
3.592	0.826
3.63319	0.833
3.67437	0.831
3.71555	0.833
3.75674	0.847
3.79792	0.85
3.83911	0.861
3.88029	0.859
3.92148	0.852
3.96266	0.864
4.00384	0.883
4.04503	0.9
4.08621	0.902
4.1274	0.891
4.16858	0.891
4.20977	0.91
4.25095	0.915
4.29213	0.902
4.33332	0.909
4.3745	0.934
4.41569	0.939
4.45687	0.941
4.49806	0.943
4.53924	0.943
4.58042	0.941
4.62161	0.945
4.66279	0.948
4.70398	0.948
4.74516	0.939
4.78635	0.955
4.82753	0.951
4.86871	0.95
4.9099	0.948
4.95108	0.943
4.99227	0.951
5.03345	0.945
5.07464	0.936
5.11582	0.936
5.157	0.922
5.19819	0.934
5.23937	0.926
5.28056	0.939
5.32174	0.941
5.36293	0.938
5.40411	0.939
5.44529	0.943
5.48648	0.941
5.52766	0.943
5.56885	0.933
5.61003	0.936
5.65121	0.909
5.6924	0.902
5.73358	0.869
5.77477	0.862
5.81595	0.852
5.85714	0.879
5.89832	0.838
5.9395	0.826
5.98069	0.783
6.02187	0.753
6.06306	0.567
6.10424	0.161
6.14543	0.142
6.18661	0.274
6.22779	0.123
6.26898	0.162
6.31016	0.457
6.35135	0.559
6.39253	0.524
6.43372	0.576
6.4749	0.638
6.51608	0.456
6.55727	0.418
6.59845	0.456
6.63964	0.581
6.68082	0.679
6.72201	0.72
6.76319	0.692
6.80437	0.699
6.84556	0.66
6.88674	0.564
6.92793	0.389
6.96911	0.391
7.0103	0.499
7.05148	0.533
7.09266	0.61
7.13385	0.663
7.17503	0.548
7.21622	0.305
7.2574	0.259
7.29859	0.293
7.33977	0.207
7.38095	0.171
7.42214	0.322
7.46332	0.493
7.50451	0.586
7.54569	0.646
7.58688	0.672
7.62806	0.674
7.66924	0.643
7.71043	0.353
7.75161	0.2
7.7928	0.283
7.83398	0.493
7.87516	0.564
7.91635	0.6
7.95753	0.612
7.99872	0.607
8.0399	0.588
8.08109	0.454
8.12227	0.269
8.16345	0.147
8.20464	0.075
8.24582	0.054
8.28701	0.147
8.32819	0.262
8.36938	0.322
8.41056	0.234
8.45174	0.433
8.49293	0.547
8.53411	0.595
8.5753	0.634
8.61648	0.689
8.65767	0.74
8.69885	0.761
8.74003	0.782
8.78122	0.797
8.8224	0.773
8.86359	0.579
8.90477	0.408
8.94596	0.367
8.98714	0.6
9.02832	0.777
9.06951	0.804
9.11069	0.825
9.15188	0.83
9.19306	0.842
9.23425	0.854
9.27543	0.859
9.31661	0.859
9.3578	0.852
9.39898	0.849
9.44017	0.852
9.48135	0.852
9.52254	0.852
9.56372	0.837
9.6049	0.819
9.64609	0.813
9.68727	0.821
9.72846	0.801
9.76964	0.794
9.81083	0.845
9.85201	0.859
9.89319	0.866
9.93438	0.869
9.97556	0.871
10.0167	0.862
10.0579	0.849
10.0991	0.809
10.1403	0.675
10.1815	0.74
10.2227	0.806
10.2639	0.849
10.305	0.852
10.3462	0.813
10.3874	0.833
10.4286	0.857
10.4698	0.866
10.511	0.85
10.5521	0.852
10.5933	0.869
10.6345	0.873
10.6757	0.869
10.7169	0.849
10.7581	0.766
10.7992	0.578
10.8404	0.571
10.8816	0.797
10.9228	0.861
10.964	0.871
11.0052	0.881
11.0464	0.897
11.0875	0.902
11.1287	0.915
11.1699	0.917
11.2111	0.917
11.2523	0.903
11.2935	0.897
11.3346	0.893
11.3758	0.893
11.417	0.898
11.4582	0.902
11.4994	0.893
11.5406	0.842
11.5817	0.72
11.6229	0.615
11.6641	0.746
11.7053	0.801
11.7465	0.789
11.7877	0.723
11.8289	0.691
11.87	0.728
11.9112	0.634
11.9524	0.415
11.9936	0.55
12.0348	0.725
12.076	0.758
12.1171	0.777
12.1583	0.771
12.1995	0.732
12.2407	0.663
12.2819	0.6
12.3231	0.665
12.3642	0.758
12.4054	0.787
12.4466	0.792
12.4878	0.78
12.529	0.73
12.5702	0.756
12.6114	0.768
12.6525	0.734
12.6937	0.665
12.7349	0.538
12.7761	0.358
12.8173	0.293
12.8585	0.416
12.8996	0.571
12.9408	0.675
12.982	0.71
13.0232	0.728
13.0644	0.732
13.1056	0.701
13.1468	0.651
13.1879	0.595
13.2291	0.53
13.2703	0.579
13.3115	0.65
13.3527	0.699
13.3939	0.734
13.435	0.766
13.4762	0.79
13.5174	0.799
13.5586	0.811
13.5998	0.825
13.641	0.838
13.6821	0.842
13.7233	0.825
13.7645	0.768
13.8057	0.667
13.8469	0.627
13.8881	0.704
13.9293	0.768
13.9704	0.801
14.0116	0.811
14.0528	0.811
14.094	0.811
14.1352	0.811
14.1764	0.809
14.2175	0.804
14.2587	0.792
14.2999	0.78
14.3411	0.758
14.3823	0.713
14.4235	0.662
14.4646	0.602
14.5058	0.569
14.547	0.581
14.5882	0.66
14.6294	0.725
14.6706	0.766
14.7118	0.787
14.7529	0.801
14.7941	0.799
14.8353	0.797
14.8765	0.787
14.9177	0.775
14.9589	0.744
15	0.684
15.0412	0.662
15.0824	0.672
15.1236	0.72
15.1648	0.751
15.206	0.785
15.2471	0.801
15.2883	0.802
15.3295	0.799
15.3707	0.79
15.4119	0.78
15.4531	0.78
15.4943	0.782
15.5354	0.79
15.5766	0.794
15.6178	0.79
15.659	0.785
15.7002	0.78
15.7414	0.771
15.7825	0.758
15.8237	0.749
15.8649	0.742
15.9061	0.73
15.9473	0.722
