Infrared Spectrum: 2,5-Dimethylbenzophenone
Formula: C 15 H 14 O
CAS: 4044-60-4
State: gas
Origin: EPA-IR VAPOR PHASE LIBRARY
1/CM	ABSORBANCE
501.5	0.0025
513.074	0.0008416
524.648	0.0005406
536.222	0.0004881
547.796	0.0004863
559.37	0.0005464
570.944	0.0009294
582.518	0.00183
594.092	0.00264
605.666	0.00258
617.24	0.00153
628.814	0.00143
640.388	0.0048
651.962	0.02119
663.536	0.00542
675.11	0.00581
686.684	0.01678
698.258	0.02505
709.832	0.01175
721.406	0.00936
732.98	0.01504
744.554	0.01046
756.128	0.00468
767.702	0.00283
779.276	0.00318
790.85	0.00484
802.423	0.01234
813.997	0.01489
825.571	0.00605
837.145	0.01136
848.719	0.01642
860.293	0.00726
871.867	0.00311
883.441	0.00291
895.015	0.00279
906.589	0.00289
918.163	0.00517
929.737	0.00777
941.311	0.01201
952.885	0.01593
964.459	0.00837
976.033	0.00564
987.607	0.00562
999.181	0.00476
1010.76	0.00237
1022.33	0.00305
1033.9	0.00233
1045.48	0.00197
1057.05	0.00229
1068.63	0.00267
1080.2	0.00181
1091.77	0.00179
1103.35	0.00253
1114.92	0.00283
1126.49	0.00239
1138.07	0.00313
1149.64	0.00513
1161.22	0.00595
1172.79	0.01432
1184.36	0.01604
1195.94	0.0161
1207.51	0.02186
1219.09	0.01354
1230.66	0.00866
1242.23	0.01289
1253.81	0.02652
1265.38	0.04
1276.96	0.03433
1288.53	0.04107
1300.1	0.02531
1311.68	0.02269
1323.25	0.01095
1334.83	0.00502
1346.4	0.00379
1357.97	0.00352
1369.55	0.00413
1381.12	0.00627
1392.7	0.00778
1404.27	0.0067
1415.84	0.00511
1427.42	0.00498
1438.99	0.00824
1450.57	0.01365
1462.14	0.00695
1473.71	0.00655
1485.29	0.00815
1496.86	0.0099
1508.44	0.00629
1520.01	0.00408
1531.58	0.00389
1543.16	0.00408
1554.73	0.00441
1566.31	0.00596
1577.88	0.00847
1589.45	0.00892
1601.03	0.00978
1612.6	0.00709
1624.18	0.00532
1635.75	0.0046
1647.32	0.00619
1658.9	0.01154
1670.47	0.0316
1682.05	0.06637
1693.62	0.04049
1705.19	0.01396
1716.77	0.00629
1728.34	0.00386
1739.92	0.00294
1751.49	0.00261
1763.06	0.0022
1774.64	0.00209
1786.21	0.00155
1797.79	0.00163
1809.36	0.00214
1820.93	0.00161
1832.51	0.00119
1844.08	0.0010034
1855.66	0.0008822
1867.23	0.0008205
1878.8	0.0010545
1890.38	0.00182
1901.95	0.00215
1913.53	0.00158
1925.1	0.0009736
1936.67	0.0008313
1948.25	0.00128
1959.82	0.00154
1971.4	0.0011496
1982.97	0.0006226
1994.54	0.0004926
2006.12	0.0004181
2017.69	0.0003427
2029.27	0.0003092
2040.84	0.0003172
2052.41	0.0003337
2063.99	0.0003438
2075.56	0.000279
2087.14	0.0002859
2098.71	0.0002919
2110.28	0.0003067
2121.86	0.0003013
2133.43	0.00026794
2145.01	0.0002499
2156.58	0.00023455
2168.15	0.00023929
2179.73	0.00024596
2191.3	0.00026184
2202.88	0.00023511
2214.45	0.00024176
2226.02	0.0002963
2237.6	0.0003388
2249.17	0.0003438
2260.74	0.000357
2272.32	0.0003387
2283.89	0.0002976
2295.47	0.0003655
2307.04	0.0004138
2318.61	0.0005778
2330.19	0.0004556
2341.76	0.000481
2353.34	0.0004342
2364.91	0.0004305
2376.48	0.0004497
2388.06	0.0004822
2399.63	0.0005162
2411.21	0.0004974
2422.78	0.0004235
2434.35	0.0003703
2445.93	0.0003538
2457.5	0.0003376
2469.08	0.0003518
2480.65	0.0003604
2492.22	0.0003418
2503.8	0.0003055
2515.37	0.0003194
2526.95	0.0002768
2538.52	0.0002965
2550.09	0.0003325
2561.67	0.0003318
2573.24	0.0003925
2584.82	0.0004815
2596.39	0.0004539
2607.96	0.000363
2619.54	0.0003245
2631.11	0.0003023
2642.69	0.0002749
2654.26	0.0002854
2665.83	0.0003345
2677.41	0.0003296
2688.98	0.0003974
2700.56	0.0003914
2712.13	0.0004628
2723.7	0.000492
2735.28	0.0007715
2746.85	0.0011215
2758.43	0.0008059
2770	0.0006199
2781.57	0.0006278
2793.15	0.0007011
2804.72	0.0008141
2816.3	0.0009662
2827.87	0.00127
2839.44	0.00185
2851.02	0.00294
2862.59	0.0052
2874.17	0.00765
2885.74	0.00787
2897.31	0.00723
2908.89	0.00745
2920.46	0.0107
2932.04	0.01682
2943.61	0.01389
2955.18	0.00853
2966.76	0.00726
2978.33	0.00737
2989.91	0.00802
3001.48	0.00885
3013.05	0.01118
3024.63	0.01471
3036.2	0.01525
3047.78	0.01484
3059.35	0.01517
3070.92	0.01859
3082.5	0.01235
3094.07	0.00814
3105.65	0.00428
3117.22	0.00224
3128.79	0.00137
3140.37	0.0010133
3151.94	0.000853
3163.52	0.0007511
3175.09	0.000474
3186.66	0.0003716
3198.24	0.0002891
3209.81	0.00024736
3221.39	0.00018939
3232.96	0.0001564
3244.53	0.0001592
3256.11	0.000178522
3267.68	0.00018602
3279.26	0.00019782
3290.83	0.0002378
3302.4	0.00023481
3313.98	0.0002707
3325.55	0.0004259
3337.13	0.0008387
3348.7	0.0010543
3360.27	0.0007991
3371.85	0.0004966
3383.42	0.0003233
3395	0.0002717
3406.57	0.000177613
3418.14	0.00020775
3429.72	9.78e-05
3441.29	6.4e-05
3452.86	6.1e-05
3464.44	0.0001344
3476.01	8.98e-05
3487.59	7e-05
3499.16	9.55e-05
3510.73	0.0001363
3522.31	0.0001108
3533.88	5.5e-05
3545.46	9.13e-05
3557.03	9.52e-05
3568.6	8.34e-05
3580.18	7.16e-05
3591.75	3.4e-05
3603.33	2e-06
3614.9	3.2e-05
3626.47	2.9e-05
3638.05	9.8e-05
3649.62	0.0001377
3661.2	0.0001391
3672.77	0.0001301
3684.34	0.00020036
3695.92	0.0001287
3707.49	0.00025971
3719.07	0.00019486
3730.64	0.0001225
3742.21	6.2e-05
3753.79	0.0001339
3765.36	0.000103
3776.94	0.0001239
3788.51	0.0001159
3800.08	0.0001187
3811.66	0.0001289
3823.23	3.9e-05
3834.81	5.2e-05
3846.38	9.68e-05
3857.95	0.00018107
3869.53	7.82e-05
3881.1	8.7e-05
3892.68	9.26e-05
3904.25	0.0001431
3915.82	9.48e-05
3927.4	0.00021503
3938.97	0.0001544
3950.55	0.0001476
3962.12	0.0001536
3973.69	0.0001446
3985.27	0.000173302
3996.84	0.0002869
