Infrared Spectrum: 1,4-Phenylene diisothiocyanate
Formula: C 8 H 4 N 2 S 2
CAS: 4044-65-9
State: gas
Origin: EPA-IR VAPOR PHASE LIBRARY
1/CM	ABSORBANCE
549.8	0.003858
559.445	0.004528
569.09	0.003768
578.734	0.003068
588.379	0.003358
598.024	0.003258
607.669	0.003118
617.313	0.003518
626.958	0.003628
636.603	0.003508
646.248	0.003448
655.893	0.003918
665.537	0.003698
675.182	0.003948
684.827	0.002758
694.472	0.001558
704.116	0.0008633
713.761	0.0011845
723.406	0.001808
733.051	0.002878
742.695	0.001748
752.34	0.0009642
761.985	0.001283
771.63	0.003008
781.275	0.003218
790.919	0.002728
800.564	0.004468
810.209	0.009808
819.854	0.023768
829.498	0.042748
839.143	0.043228
848.788	0.026628
858.433	0.014198
868.078	0.006638
877.722	0.007018
887.367	0.015128
897.012	0.020908
906.657	0.026078
916.301	0.028468
925.946	0.035048
935.591	0.055028
945.236	0.063198
954.88	0.045648
964.525	0.027018
974.17	0.014478
983.815	0.008098
993.46	0.004838
1003.1	0.003258
1012.75	0.002708
1022.39	0.001438
1032.04	0.000628
1041.68	0.0002897
1051.33	0.0007529
1060.97	0.0008914
1070.62	0.0011685
1080.26	0.003058
1089.91	0.005388
1099.55	0.007158
1109.2	0.004998
1118.84	0.003438
1128.49	0.001398
1138.13	0.0009298
1147.78	0.000872
1157.42	0.0010735
1167.07	0.0011772
1176.71	0.001778
1186.36	0.002878
1196	0.002428
1205.64	0.003358
1215.29	0.004518
1224.93	0.006708
1234.58	0.014838
1244.22	0.036078
1253.87	0.038298
1263.51	0.017648
1273.16	0.008438
1282.8	0.005198
1292.45	0.004468
1302.09	0.003858
1311.74	0.003038
1321.38	0.002808
1331.03	0.002348
1340.67	0.001618
1350.32	0.0010864
1359.96	0.0009228
1369.61	0.0009034
1379.25	0.0009345
1388.9	0.0012509
1398.54	0.001468
1408.18	0.001848
1417.83	0.002688
1427.47	0.004338
1437.12	0.012198
1446.76	0.009388
1456.41	0.004678
1466.05	0.004688
1475.7	0.008418
1485.34	0.031718
1494.99	0.166418
1504.63	0.159068
1514.28	0.020388
1523.92	0.011848
1533.57	0.009638
1543.21	0.009958
1552.86	0.011328
1562.5	0.013208
1572.15	0.014108
1581.79	0.011808
1591.44	0.008568
1601.08	0.005868
1610.73	0.004328
1620.37	0.004438
1630.01	0.004778
1639.66	0.004408
1649.3	0.004248
1658.95	0.003388
1668.59	0.003008
1678.24	0.003108
1687.88	0.003178
1697.53	0.003208
1707.17	0.003198
1716.82	0.003338
1726.46	0.003808
1736.11	0.004448
1745.75	0.004918
1755.4	0.005108
1765.04	0.004798
1774.69	0.004778
1784.33	0.005338
1793.98	0.006268
1803.62	0.006538
1813.27	0.006718
1822.91	0.007638
1832.55	0.009498
1842.2	0.012458
1851.84	0.016258
1861.49	0.019248
1871.13	0.021048
1880.78	0.023378
1890.42	0.026168
1900.07	0.029348
1909.71	0.035548
1919.36	0.047008
1929	0.064378
1938.65	0.088768
1948.29	0.123388
1957.94	0.170828
1967.58	0.232758
1977.23	0.314188
1986.87	0.415308
1996.52	0.546248
2006.16	0.719338
2015.81	0.908408
2025.45	0.979548
2035.1	0.838738
2044.74	0.615788
2054.38	0.474858
2064.03	0.414408
2073.67	0.380448
2083.32	0.379368
2092.96	0.407438
2102.61	0.359818
2112.25	0.234488
2121.9	0.154318
2131.54	0.121848
2141.19	0.111278
2150.83	0.106538
2160.48	0.097238
2170.12	0.080138
2179.77	0.063148
2189.41	0.053318
2199.06	0.044438
2208.7	0.034378
2218.35	0.025938
2227.99	0.019408
2237.64	0.014838
2247.28	0.010658
2256.92	0.007958
2266.57	0.006558
2276.21	0.005748
2285.86	0.005478
2295.5	0.005518
2305.15	0.005808
2314.79	0.005888
2324.44	0.006038
2334.08	0.005878
2343.73	0.005448
2353.37	0.005168
2363.02	0.004968
2372.66	0.004868
2382.31	0.004508
2391.95	0.004258
2401.6	0.004038
2411.24	0.004418
2420.89	0.004318
2430.53	0.004088
2440.18	0.003948
2449.82	0.003808
2459.47	0.003848
2469.11	0.004408
2478.75	0.005118
2488.4	0.006428
2498.04	0.007798
2507.69	0.008318
2517.33	0.008058
2526.98	0.007808
2536.62	0.007108
2546.27	0.006868
2555.91	0.006958
2565.56	0.007118
2575.2	0.007458
2584.85	0.007918
2594.49	0.008488
2604.14	0.009048
2613.78	0.009698
2623.43	0.009918
2633.07	0.009488
2642.72	0.008618
2652.36	0.007798
2662.01	0.007088
2671.65	0.006338
2681.29	0.005758
2690.94	0.005328
2700.58	0.004988
2710.23	0.004958
2719.87	0.004928
2729.52	0.004978
2739.16	0.005278
2748.81	0.006078
2758.45	0.006578
2768.1	0.006248
2777.74	0.005078
2787.39	0.003858
2797.03	0.003268
2806.68	0.002868
2816.32	0.002618
2825.97	0.002358
2835.61	0.002038
2845.26	0.001688
2854.9	0.001558
2864.55	0.0013573
2874.19	0.001448
2883.84	0.001598
2893.48	0.001688
2903.12	0.001858
2912.77	0.002148
2922.41	0.002468
2932.06	0.002788
2941.7	0.003248
2951.35	0.004008
2960.99	0.004628
2970.64	0.004958
2980.28	0.004638
2989.93	0.004158
2999.57	0.003408
3009.22	0.002908
3018.86	0.002938
3028.51	0.003178
3038.15	0.004558
3047.8	0.006388
3057.44	0.004898
3067.09	0.002978
3076.73	0.002348
3086.38	0.002398
3096.02	0.002448
3105.67	0.002858
3115.31	0.002478
3124.95	0.0012651
3134.6	0.0006531
3144.24	0.0003567
3153.89	0.000263
3163.53	0.000273
3173.18	0.000235
3182.82	0.000257
3192.47	0.000245
3202.11	0.000186
3211.76	0.000104
3221.4	9.3e-05
3231.05	0.000202
3240.69	5.1e-05
3250.34	0.0003336
3259.98	0.00018
3269.63	0.00013
3279.27	0.000134
3288.92	0.000101
3298.56	0.000253
3308.21	0.000251
3317.85	8.9e-05
3327.49	0.000157
3337.14	0.00040057
3346.78	0.000311
3356.43	0.00041489
3366.07	0.000163
3375.72	0.000239
3385.36	0.000151
3395.01	0.000285
3404.65	0.00039124
3414.3	0.0003374
3423.94	0.000273
3433.59	0.0003726
3443.23	0.0003168
3452.88	0.0003616
3462.52	0.000235
3472.17	0.000393708
3481.81	0.000263
3491.46	0.000222
3501.1	0.00038552
3510.75	0.0003504
3520.39	0.000288
3530.04	0.0004098
3539.68	0.0003368
3549.32	0.000274
3558.97	0.0003612
3568.61	0.0003474
3578.26	0.0005564
3587.9	0.00045989
3597.55	0.0006053
3607.19	0.00041385
3616.84	0.00043085
3626.48	0.000387758
3636.13	0.0004922
3645.77	0.0003696
3655.42	0.0005117
3665.06	0.0005172
3674.71	0.0003401
3684.35	0.0006479
3694	0.0004862
3703.64	0.0005625
3713.29	0.0006826
3722.93	0.0006784
3732.58	0.0006864
3742.22	0.0006237
3751.86	0.00058
3761.51	0.0005645
3771.15	0.0007345
3780.8	0.0007051
3790.44	0.0008496
3800.09	0.0007141
3809.73	0.000871
3819.38	0.0008105
3829.02	0.0008748
3838.67	0.0009321
3848.31	0.0011491
3857.96	0.0010682
3867.6	0.0011913
3877.25	0.0013303
3886.89	0.001448
3896.54	0.001538
3906.18	0.001678
3915.83	0.001888
3925.47	0.001908
3935.12	0.002248
3944.76	0.002398
3954.41	0.002408
3964.05	0.002568
3973.69	0.002738
3983.34	0.003118
3992.98	0.003138
