Infrared Spectrum: as-Triazino[5,6-b]indole, 3-(3'-hydroxypropylamino)-5-methyl-
Formula: C13 H15 N5 O
CAS: 4046-86-0
State: SOLID (OIL MULL)
Class: COBLENTZ III
Instrument: PERKIN-ELMER 21 (GRATING)
Instrument parameters: NaCl PRISM
Sampling: TRANSMISSION
Resolution: 2
Origin: SMITH, KLINE & FRENCH LABS.
1/CM	TRANSMITTANCE
673	0.6471
682	0.664
691	0.6674
700	0.6511
709	0.5939
718	0.6282
727	0.6433
736	0.6257
745	0.3048
754	0.7033
763	0.7462
772	0.7576
781	0.7646
790	0.7454
799	0.5611
808	0.7631
817	0.7744
826	0.6967
835	0.7672
844	0.7682
853	0.7814
862	0.791
871	0.764
880	0.7953
889	0.7944
898	0.7947
907	0.79
916	0.7666
925	0.7547
934	0.7384
943	0.6225
952	0.6468
961	0.6154
970	0.6875
979	0.6354
988	0.7484
997	0.7332
1006	0.7348
1015	0.71
1024	0.638
1033	0.5354
1042	0.4799
1051	0.5718
1060	0.3879
1069	0.41
1078	0.3747
1087	0.3847
1096	0.1867
1105	0.4052
1114	0.5924
1123	0.5445
1132	0.2574
1141	0.5073
1150	0.599
1159	0.3942
1168	0.6812
1177	0.681
1186	0.7192
1195	0.6989
1204	0.6347
1213	0.5012
1222	0.6817
1231	0.7029
1240	0.6814
1249	0.6421
1258	0.651
1267	0.6184
1276	0.5897
1285	0.5588
1294	0.5761
1303	0.6012
1312	0.6372
1321	0.5759
1330	0.56
1339	0.4438
1348	0.4947
1357	0.5379
1366	0.5203
1375	0.4115
1384	0.4171
1393	0.2751
1402	0.1662
1411	0.5872
1420	0.543
1429	0.3126
1438	0.4748
1447	0.4401
1456	0.3787
1465	0.29
1474	0.3665
1483	0.5064
1492	0.5144
1501	0.3873
1510	0.3204
1519	0.403
1528	0.2412
1537	0.227
1546	0.5654
1555	0.5925
1564	0.5653
1573	0.4375
1582	0.2997
1591	0.1127
1600	0.1169
1609	0.3219
1618	0.5957
1627	0.6547
1636	0.7271
1645	0.7725
1654	0.7938
1663	0.8136
1672	0.8254
1681	0.825
1690	0.8265
1699	0.8309
1708	0.8335
1717	0.8351
1726	0.8363
1735	0.8348
1744	0.8313
1753	0.8286
1762	0.826
1771	0.8288
1780	0.8321
1789	0.8329
1798	0.8326
1807	0.8275
1816	0.8192
1825	0.8173
1834	0.8159
1843	0.8147
1852	0.8146
1861	0.8103
1870	0.8066
1879	0.8046
1888	0.8031
1897	0.8014
1906	0.7988
1915	0.7962
1924	0.7956
1933	0.7966
1942	0.7982
1951	0.7986
1960	0.7967
1969	0.7933
1978	0.7891
1987	0.7859
1996	0.784
2005	0.7821
2014	0.7816
2023	0.7804
2032	0.7777
2041	0.775
2050	0.7713
2059	0.7705
2068	0.7713
2077	0.7713
2086	0.7708
2095	0.7697
2104	0.7686
2113	0.7671
2122	0.7654
2131	0.7637
2140	0.7624
2149	0.7613
2158	0.7611
2167	0.7608
2176	0.7589
2185	0.7564
2194	0.7541
2203	0.7527
2212	0.7514
2221	0.7497
2230	0.7476
2239	0.746
2248	0.747
2257	0.7476
2266	0.7477
2275	0.7465
2284	0.7448
2293	0.7429
2302	0.7408
2311	0.7377
2320	0.7373
2329	0.7372
2338	0.7359
2347	0.7347
2356	0.7333
2365	0.7318
2374	0.7295
2383	0.7271
2392	0.7244
2401	0.7217
2410	0.719
2419	0.7162
2428	0.7134
2437	0.7106
2446	0.708
2455	0.7056
2464	0.7032
2473	0.7012
2482	0.6991
2491	0.6963
2500	0.6934
2509	0.69
2518	0.6867
2527	0.6823
2536	0.6735
2545	0.6676
2554	0.6617
2563	0.6574
2572	0.6533
2581	0.6492
2590	0.6453
2599	0.6415
2608	0.6374
2617	0.6331
2626	0.6282
2635	0.6233
2644	0.6177
2653	0.613
2662	0.6093
2671	0.6062
2680	0.594
2689	0.5904
2698	0.5882
2707	0.586
2716	0.5832
2725	0.5773
2734	0.5663
2743	0.552
2752	0.5362
2761	0.5204
2770	0.504
2779	0.4797
2788	0.4544
2797	0.4241
2806	0.3735
2815	0.2465
2824	0.1961
2833	0.1632
2842	0.1465
2851	0.1342
2860	0.1253
2869	0.1189
2878	0.1124
2887	0.1062
2896	0.1058
2905	0.1116
2914	0.1286
2923	0.1489
2932	0.1629
2941	0.1718
2950	0.2095
2959	0.2498
2968	0.2877
2977	0.3068
2986	0.3414
2995	0.3632
3004	0.3743
3013	0.3863
3022	0.3971
3031	0.4046
3040	0.4094
3049	0.4103
3058	0.4084
3067	0.4061
3076	0.4038
3085	0.4017
3094	0.403
3103	0.4062
3112	0.4109
3121	0.4137
3130	0.4142
3139	0.4099
3148	0.3979
3157	0.3828
3166	0.3661
3175	0.3462
3184	0.3244
3193	0.3083
3202	0.3038
3211	0.3023
3220	0.3031
3229	0.3055
3238	0.3203
3247	0.3431
3256	0.3738
3265	0.422
3274	0.4317
3283	0.4371
3292	0.4383
3301	0.4379
3310	0.4374
3319	0.4372
3328	0.4371
3337	0.4473
3346	0.4571
3355	0.4657
3364	0.4721
3373	0.4786
3382	0.4864
3391	0.4943
3400	0.5026
3409	0.5109
3418	0.534
3427	0.5518
3436	0.5635
3445	0.5711
3454	0.5786
3463	0.5853
3472	0.5914
3481	0.5974
3490	0.6025
3499	0.6073
3508	0.6105
3517	0.613
3526	0.6154
3535	0.6163
3544	0.6171
3553	0.6177
3562	0.6171
3571	0.6162
3580	0.6152
3589	0.6142
3598	0.6132
3607	0.6116
3616	0.6101
3625	0.6085
3634	0.607
3643	0.6054
3652	0.6037
3661	0.602
3670	0.6003
3679	0.5988
3688	0.5971
3697	0.5956
3706	0.5941
3715	0.5927
3724	0.5913
3733	0.59
3742	0.5883
3751	0.5866
3760	0.5849
3769	0.5833
3778	0.5812
3787	0.5783
3796	0.5754
3805	0.5726
3814	0.5698
3823	0.5672
3832	0.5646
3841	0.562
3850	0.5595
3859	0.557
3868	0.5545
3877	0.552
3886	0.5499
3895	0.548
3904	0.546
3913	0.5441
3922	0.5422
3931	0.5403
3940	0.5384
3949	0.5368
3958	0.5353
3967	0.5338
3976	0.5324
3985	0.531
3994	0.5295
