Infrared Spectrum: 3-Methyl-4-cyclohexene-cis-1,2-dicarboxylic acid anhydride
Formula: C 9 H 12 O 4
CAS: 40469-16-7
State: gas
Origin: EPA-IR VAPOR PHASE LIBRARY
1/CM	ABSORBANCE
549.8	0.009116
559.445	0.011516
569.09	0.007396
578.734	0.002186
588.379	0.001546
598.024	0.001556
607.669	0.002056
617.313	0.002646
626.958	0.003076
636.603	0.004866
646.248	0.007736
655.893	0.009616
665.537	0.011186
675.182	0.010166
684.827	0.006596
694.472	0.006266
704.116	0.007766
713.761	0.006686
723.406	0.007026
733.051	0.010566
742.695	0.010786
752.34	0.006386
761.985	0.005496
771.63	0.007536
781.275	0.007456
790.919	0.004556
800.564	0.003586
810.209	0.004676
819.854	0.004526
829.498	0.003396
839.143	0.002396
848.788	0.002986
858.433	0.003506
868.078	0.005366
877.722	0.010806
887.367	0.021926
897.012	0.035506
906.657	0.054216
916.301	0.080046
925.946	0.083796
935.591	0.051686
945.236	0.025466
954.88	0.026746
964.525	0.044796
974.17	0.061666
983.815	0.053506
993.46	0.029706
1003.1	0.016846
1012.75	0.011746
1022.39	0.014076
1032.04	0.020686
1041.68	0.023116
1051.33	0.028636
1060.97	0.044106
1070.62	0.044886
1080.26	0.023096
1089.91	0.010386
1099.55	0.008476
1109.2	0.009236
1118.84	0.009446
1128.49	0.010216
1138.13	0.007866
1147.78	0.006086
1157.42	0.006736
1167.07	0.011126
1176.71	0.023296
1186.36	0.034776
1196	0.037906
1205.64	0.044466
1215.29	0.046716
1224.93	0.040586
1234.58	0.034276
1244.22	0.032636
1253.87	0.027516
1263.51	0.017286
1273.16	0.010766
1282.8	0.009346
1292.45	0.009866
1302.09	0.010056
1311.74	0.009246
1321.38	0.009706
1331.03	0.010526
1340.67	0.008576
1350.32	0.005736
1359.96	0.004166
1369.61	0.004496
1379.25	0.005516
1388.9	0.005586
1398.54	0.004196
1408.18	0.002846
1417.83	0.002626
1427.47	0.003136
1437.12	0.005626
1446.76	0.009606
1456.41	0.011056
1466.05	0.008666
1475.7	0.005526
1485.34	0.002996
1494.99	0.001956
1504.63	0.001566
1514.28	0.001396
1523.92	0.001386
1533.57	0.001396
1543.21	0.001396
1552.86	0.001386
1562.5	0.001416
1572.15	0.001416
1581.79	0.001536
1591.44	0.001726
1601.08	0.001796
1610.73	0.002086
1620.37	0.002296
1630.01	0.002516
1639.66	0.002716
1649.3	0.002826
1658.95	0.002716
1668.59	0.002516
1678.24	0.002816
1687.88	0.003266
1697.53	0.003386
1707.17	0.003586
1716.82	0.004116
1726.46	0.005286
1736.11	0.007146
1745.75	0.010366
1755.4	0.017366
1765.04	0.031556
1774.69	0.057886
1784.33	0.118916
1793.98	0.208166
1803.62	0.251816
1813.27	0.196016
1822.91	0.096826
1832.55	0.042416
1842.2	0.030496
1851.84	0.031396
1861.49	0.037256
1871.13	0.040476
1880.78	0.033106
1890.42	0.019916
1900.07	0.010176
1909.71	0.005686
1919.36	0.003966
1929	0.003186
1938.65	0.002716
1948.29	0.002416
1957.94	0.002156
1967.58	0.001906
1977.23	0.001836
1986.87	0.001896
1996.52	0.001976
2006.16	0.001816
2015.81	0.001626
2025.45	0.001376
2035.1	0.0010943
2044.74	0.0009726
2054.38	0.0009597
2064.03	0.0009446
2073.67	0.0009125
2083.32	0.0010006
2092.96	0.001256
2102.61	0.001476
2112.25	0.001586
2121.9	0.001656
2131.54	0.001596
2141.19	0.001636
2150.83	0.001616
2160.48	0.001606
2170.12	0.001566
2179.77	0.001426
2189.41	0.001326
2199.06	0.001226
2208.7	0.001176
2218.35	0.0010357
2227.99	0.0010185
2237.64	0.0009468
2247.28	0.0009515
2256.92	0.0009522
2266.57	0.0009154
2276.21	0.0008923
2285.86	0.0008451
2295.5	0.0006728
2305.15	0.0006516
2314.79	0.0006719
2324.44	0.000644
2334.08	0.0004828
2343.73	0.0005284
2353.37	0.0005092
2363.02	0.0005619
2372.66	0.0004644
2382.31	0.00047
2391.95	0.0005124
2401.6	0.0005979
2411.24	0.0006568
2420.89	0.0006493
2430.53	0.0006794
2440.18	0.0005112
2449.82	0.0004521
2459.47	0.0004554
2469.11	0.000387
2478.75	0.0004084
2488.4	0.0003843
2498.04	0.0004443
2507.69	0.0005624
2517.33	0.0003715
2526.98	0.0003504
2536.62	0.0003965
2546.27	0.0003127
2555.91	0.0003862
2565.56	0.0003173
2575.2	0.000468
2584.85	0.0004147
2594.49	0.000515
2604.14	0.0004195
2613.78	0.0003471
2623.43	0.0002959
2633.07	0.0003581
2642.72	0.0003967
2652.36	0.0003851
2662.01	0.0003636
2671.65	0.0003609
2681.29	0.0003567
2690.94	0.00021087
2700.58	0.0003756
2710.23	0.0002336
2719.87	0.0003563
2729.52	0.0004225
2739.16	0.0004946
2748.81	0.0005832
2758.45	0.0007566
2768.1	0.0007646
2777.74	0.0007113
2787.39	0.0007357
2797.03	0.0005657
2806.68	0.0007976
2816.32	0.0009629
2825.97	0.001366
2835.61	0.002226
2845.26	0.004966
2854.9	0.011616
2864.55	0.014766
2874.19	0.010076
2883.84	0.008246
2893.48	0.009646
2903.12	0.010936
2912.77	0.011946
2922.41	0.012456
2932.06	0.014206
2941.7	0.018066
2951.35	0.017676
2960.99	0.015726
2970.64	0.021196
2980.28	0.022636
2989.93	0.014696
2999.57	0.007356
3009.22	0.003676
3018.86	0.002336
3028.51	0.003656
3038.15	0.009586
3047.8	0.013576
3057.44	0.008896
3067.09	0.004306
3076.73	0.002166
3086.38	0.001126
3096.02	0.0006748
3105.67	0.0005739
3115.31	0.0005147
3124.95	0.0005148
3134.6	0.0004159
3144.24	0.0003364
3153.89	0.0003923
3163.53	0.000386
3173.18	0.0005474
3182.82	0.0002634
3192.47	0.0004943
3202.11	0.0003347
3211.76	0.0003191
3221.4	0.0003838
3231.05	0.0003524
3240.69	0.0003607
3250.34	0.0002832
3259.98	0.0003337
3269.63	0.00015917
3279.27	0.00020469
3288.92	0.0003272
3298.56	0.0002745
3308.21	0.0002632
3317.85	0.00015197
3327.49	0.0001353
3337.14	0.00023
3346.78	0.0002386
3356.43	0.00021575
3366.07	0.00015279
3375.72	0.0002544
3385.36	0.00012712
3395.01	0.00019701
3404.65	0.0002789
3414.3	0.00019271
3423.94	0.00011006
3433.59	6.71e-05
3443.23	0.0002376
3452.88	0.0002014
3462.52	0.0003434
3472.17	0.0002823
3481.81	0.00019813
3491.46	0.0002978
3501.1	0.0002609
3510.75	0.0004043
3520.39	0.0002464
3530.04	0.0004267
3539.68	0.0002979
3549.32	0.0004572
3558.97	0.0005496
3568.61	0.000698
3578.26	0.0010156
3587.9	0.001156
3597.55	0.001336
3607.19	0.001696
3616.84	0.001956
3626.48	0.002346
3636.13	0.002736
3645.77	0.002786
3655.42	0.002446
3665.06	0.002086
3674.71	0.001536
3684.35	0.001246
3694	0.0008099
3703.64	0.0007361
3713.29	0.000802
3722.93	0.0005777
3732.58	0.0006118
3742.22	0.0007753
3751.86	0.0006004
3761.51	0.0005107
3771.15	0.00016627
3780.8	0.0002862
3790.44	0.0003183
3800.09	0.0003621
3809.73	0.0004256
3819.38	0.0002683
3829.02	0.0003897
3838.67	0.0005484
3848.31	0.0004709
3857.96	0.000398
3867.6	0.0003386
3877.25	0.0004063
3886.89	0.0005191
3896.54	0.000303
3906.18	0.0003306
3915.83	0.0001709
3925.47	0.0002603
3935.12	0.0003691
3944.76	0.0002845
3954.41	0.0003538
3964.05	0.000324
3973.69	0.0004142
3983.34	0.0003218
3992.98	0.0005916
