Infrared Spectrum: as-Triazino[5,6-b]indole-3-thiol, 5-methyl-
Formula: C10 H8 N4 S
CAS: 4046-70-2
State: SOLID (KBr DISC)
Class: COBLENTZ III
Instrument: PERKIN-ELMER 21 (GRATING)
Instrument parameters: NaCl PRISM
Sampling: TRANSMISSION
Resolution: 2
Origin: SMITH, KLINE & FRENCH LABS.
1/CM	TRANSMITTANCE
659	0.8817
668	0.9002
677	0.8124
686	0.9412
695	0.9465
704	0.9553
713	0.9526
722	0.8979
731	0.8617
740	0.6872
749	0.8327
758	0.9012
767	0.9273
776	0.8479
785	0.8947
794	0.964
803	0.9001
812	0.9388
821	0.9743
830	0.9748
839	0.9576
848	0.9318
857	0.8877
866	0.8985
875	0.9334
884	0.9515
893	0.9466
902	0.9429
911	0.9362
920	0.9286
929	0.9061
938	0.8958
947	0.8434
956	0.7739
965	0.8685
974	0.8692
983	0.8624
992	0.8374
1001	0.7529
1010	0.8068
1019	0.6969
1028	0.8377
1037	0.8242
1046	0.7955
1055	0.718
1064	0.7656
1073	0.774
1082	0.743
1091	0.7119
1100	0.6525
1109	0.4113
1118	0.5516
1127	0.5166
1136	0.2804
1145	0.2089
1154	0.5541
1163	0.4157
1172	0.7354
1181	0.7565
1190	0.6593
1199	0.66
1208	0.7709
1217	0.7569
1226	0.8385
1235	0.8374
1244	0.7232
1253	0.5983
1262	0.8787
1271	0.8961
1280	0.8592
1289	0.777
1298	0.6604
1307	0.5388
1316	0.6795
1325	0.7499
1334	0.7662
1343	0.7811
1352	0.76
1361	0.5267
1370	0.6478
1379	0.8528
1388	0.8516
1397	0.8072
1406	0.7194
1415	0.8313
1424	0.8203
1433	0.7621
1442	0.75
1451	0.8024
1460	0.7098
1469	0.5285
1478	0.6266
1487	0.8578
1496	0.8566
1505	0.8379
1514	0.7891
1523	0.7238
1532	0.7644
1541	0.7549
1550	0.7375
1559	0.6154
1568	0.332
1577	0.1819
1586	0.4464
1595	0.6259
1604	0.5062
1613	0.6652
1622	0.7952
1631	0.8326
1640	0.9071
1649	0.9365
1658	0.9556
1667	0.9533
1676	0.9494
1685	0.9452
1694	0.942
1703	0.9465
1712	0.9532
1721	0.9597
1730	0.966
1739	0.9713
1748	0.976
1757	0.9769
1766	0.9765
1775	0.9725
1784	0.9693
1793	0.9686
1802	0.9695
1811	0.9719
1820	0.9674
1829	0.9666
1838	0.9669
1847	0.9719
1856	0.972
1865	0.9681
1874	0.9674
1883	0.9644
1892	0.9602
1901	0.9621
1910	0.9639
1919	0.9627
1928	0.9611
1937	0.9594
1946	0.9588
1955	0.9582
1964	0.9576
1973	0.9571
1982	0.9555
1991	0.9534
2000	0.9521
2009	0.9517
2018	0.9515
2027	0.9513
2036	0.9504
2045	0.9494
2054	0.9488
2063	0.9487
2072	0.9485
2081	0.9484
2090	0.9482
2099	0.9481
2108	0.9473
2117	0.9459
2126	0.943
2135	0.9407
2144	0.9404
2153	0.94
2162	0.9397
2171	0.9397
2180	0.9396
2189	0.9397
2198	0.9404
2207	0.9404
2216	0.9386
2225	0.9365
2234	0.9334
2243	0.9298
2252	0.9262
2261	0.9232
2270	0.9203
2279	0.9174
2288	0.9148
2297	0.9142
2306	0.9139
2315	0.914
2324	0.9146
2333	0.9181
2342	0.9272
2351	0.9281
2360	0.9238
2369	0.9154
2378	0.9121
2387	0.9107
2396	0.9098
2405	0.9082
2414	0.9053
2423	0.9025
2432	0.8995
2441	0.8967
2450	0.8937
2459	0.8897
2468	0.8858
2477	0.8819
2486	0.8779
2495	0.8739
2504	0.8698
2513	0.8664
2522	0.8635
2531	0.8605
2540	0.8582
2549	0.8568
2558	0.8553
2567	0.8537
2576	0.8496
2585	0.845
2594	0.8404
2603	0.834
2612	0.8277
2621	0.8194
2630	0.8106
2639	0.8021
2648	0.7937
2657	0.786
2666	0.7786
2675	0.7714
2684	0.7642
2693	0.7569
2702	0.7497
2711	0.7421
2720	0.7327
2729	0.7236
2738	0.7149
2747	0.7061
2756	0.694
2765	0.6819
2774	0.6678
2783	0.6534
2792	0.6394
2801	0.6254
2810	0.6108
2819	0.6001
2828	0.5979
2837	0.5971
2846	0.5985
2855	0.6011
2864	0.6048
2873	0.6192
2882	0.6389
2891	0.6586
2900	0.6781
2909	0.6975
2918	0.7164
2927	0.7203
2936	0.7197
2945	0.7166
2954	0.7084
2963	0.7026
2972	0.6987
2981	0.6988
2990	0.705
2999	0.7129
3008	0.7184
3017	0.7217
3026	0.7183
3035	0.7144
3044	0.7176
3053	0.7197
3062	0.721
3071	0.7221
3080	0.7253
3089	0.7342
3098	0.7488
3107	0.762
3116	0.7708
3125	0.7785
3134	0.7842
3143	0.7871
3152	0.7958
3161	0.8065
3170	0.811
3179	0.8118
3188	0.812
3197	0.8121
3206	0.8119
3215	0.8112
3224	0.8103
3233	0.8086
3242	0.807
3251	0.8053
3260	0.8019
3269	0.7977
3278	0.7923
3287	0.7865
3296	0.7817
3305	0.7772
3314	0.7726
3323	0.7669
3332	0.7603
3341	0.7537
3350	0.7449
3359	0.7361
3368	0.7335
3377	0.7318
3386	0.7303
3395	0.7293
3404	0.7284
3413	0.7274
3422	0.7268
3431	0.7286
3440	0.7309
3449	0.7334
3458	0.7377
3467	0.7421
3476	0.7471
3485	0.7529
3494	0.7588
3503	0.7649
3512	0.771
3521	0.7772
3530	0.7832
3539	0.7893
3548	0.7958
3557	0.8046
3566	0.8135
3575	0.8192
3584	0.8245
3593	0.827
3602	0.8283
3611	0.8293
3620	0.8298
3629	0.8303
3638	0.8308
3647	0.8305
3656	0.83
3665	0.8294
3674	0.8289
3683	0.8283
3692	0.8278
3701	0.8274
3710	0.8272
3719	0.827
3728	0.827
3737	0.8285
3746	0.8304
3755	0.8307
3764	0.8281
3773	0.8252
3782	0.8221
3791	0.8192
3800	0.8164
3809	0.8135
3818	0.8113
3827	0.8104
3836	0.8104
3845	0.8104
3854	0.8105
3863	0.8106
3872	0.8107
3881	0.8108
3890	0.8109
3899	0.811
3908	0.8111
3917	0.8112
3926	0.8109
3935	0.8081
3944	0.8042
3953	0.7996
3962	0.7955
3971	0.7918
3980	0.7889
3989	0.7875
3998	0.7863
