Infrared Spectrum: 3,4-Dibromo-2,5-dichlorothiophene
Formula: C 4 Br 2 Cl 2 S
CAS: 40477-45-0
State: gas
Origin: EPA-IR VAPOR PHASE LIBRARY
1/CM	ABSORBANCE
549.9	0.001039
559.547	0.001023
569.193	0.000887
578.84	0.000932
588.486	0.001012
598.133	0.0011512
607.779	0.0016374
617.426	0.00482
627.072	0.01779
636.719	0.01895
646.365	0.00411
656.012	0.0018044
665.658	0.00163
675.305	0.0021927
684.951	0.0017842
694.598	0.001747
704.245	0.0017516
713.891	0.0021166
723.538	0.00252
733.184	0.00227
742.831	0.00337
752.477	0.01821
762.124	0.04673
771.77	0.01623
781.417	0.00351
791.063	0.0025
800.71	0.00229
810.356	0.0016163
820.003	0.0017748
829.649	0.00261
839.296	0.00706
848.943	0.02792
858.589	0.05207
868.236	0.02594
877.882	0.01273
887.529	0.00666
897.175	0.00312
906.822	0.0020673
916.468	0.0016101
926.115	0.0014409
935.761	0.0013792
945.408	0.0013019
955.054	0.0011535
964.701	0.0012147
974.347	0.0014073
983.994	0.0017912
993.64	0.00288
1003.29	0.00414
1012.93	0.00491
1022.58	0.005
1032.23	0.00544
1041.87	0.0117
1051.52	0.03611
1061.17	0.04124
1070.81	0.00707
1080.46	0.0018789
1090.11	0.0013258
1099.75	0.0019302
1109.4	0.00435
1119.05	0.00584
1128.69	0.00248
1138.34	0.0015958
1147.99	0.0011035
1157.63	0.000986
1167.28	0.000947
1176.92	0.000773
1186.57	0.000602
1196.22	0.000786
1205.86	0.000905
1215.51	0.00248
1225.16	0.00683
1234.8	0.00481
1244.45	0.00304
1254.1	0.00763
1263.74	0.01939
1273.39	0.04768
1283.04	0.05862
1292.68	0.01221
1302.33	0.00333
1311.98	0.00299
1321.62	0.00221
1331.27	0.001864
1340.92	0.0017249
1350.56	0.0013591
1360.21	0.0012589
1369.86	0.00121955
1379.5	0.0014309
1389.15	0.0018289
1398.79	0.0019317
1408.44	0.0026
1418.09	0.00504
1427.73	0.00792
1437.38	0.00677
1447.03	0.00543
1456.67	0.00281
1466.32	0.00262
1475.97	0.00641
1485.61	0.02168
1495.26	0.06564
1504.91	0.08364
1514.55	0.01636
1524.2	0.00275
1533.85	0.0021025
1543.49	0.001892
1553.14	0.0017884
1562.79	0.0021589
1572.43	0.00263
1582.08	0.002105
1591.73	0.0015799
1601.37	0.0014115
1611.02	0.0015574
1620.67	0.0016179
1630.31	0.0014113
1639.96	0.0013708
1649.6	0.0013453
1659.25	0.0014137
1668.9	0.0014093
1678.54	0.00124484
1688.19	0.00122779
1697.84	0.0011827
1707.48	0.0011218
1717.13	0.0011036
1726.78	0.00119711
1736.42	0.0011524
1746.07	0.00122202
1755.72	0.0013968
1765.36	0.0014124
1775.01	0.0015121
1784.66	0.001415
1794.3	0.0013912
1803.95	0.0014773
1813.6	0.0015139
1823.24	0.0014428
1832.89	0.0015346
1842.54	0.0015622
1852.18	0.0014403
1861.83	0.00128031
1871.47	0.00129805
1881.12	0.0013689
1890.77	0.0013204
1900.41	0.00126501
1910.06	0.00122591
1919.71	0.00125621
1929.35	0.00127263
1939	0.00125863
1948.65	0.00124425
1958.29	0.00120489
1967.94	0.0011578
1977.59	0.00120432
1987.23	0.0011932
1996.88	0.00124008
2006.53	0.00121355
2016.17	0.0013123
2025.82	0.001347
2035.47	0.0014322
2045.11	0.0016391
2054.76	0.0017951
2064.41	0.0018376
2074.05	0.0017206
2083.7	0.0014372
2093.35	0.00129354
2102.99	0.001376
2112.64	0.0013578
2122.28	0.0013479
2131.93	0.00127839
2141.58	0.00126854
2151.22	0.0013048
2160.87	0.0013069
2170.52	0.00128728
2180.16	0.0013262
2189.81	0.0013912
2199.46	0.00127145
2209.1	0.00128634
2218.75	0.00128828
2228.4	0.00128804
2238.04	0.0013053
2247.69	0.0013061
2257.34	0.00135
2266.98	0.0013511
2276.63	0.0013407
2286.28	0.0013856
2295.92	0.0013955
2305.57	0.0013841
2315.22	0.0013379
2324.86	0.0013611
2334.51	0.0013773
2344.16	0.0013902
2353.8	0.0013495
2363.45	0.0013214
2373.09	0.0013242
2382.74	0.00129026
2392.39	0.001321
2402.03	0.00128474
2411.68	0.0013132
2421.33	0.0013058
2430.97	0.0013438
2440.62	0.00122462
2450.27	0.0013241
2459.91	0.0013422
2469.56	0.0013567
2479.21	0.0014187
2488.85	0.0014234
2498.5	0.0014841
2508.15	0.0015952
2517.79	0.0015691
2527.44	0.0015492
2537.09	0.0014738
2546.73	0.0013999
2556.38	0.0014529
2566.03	0.0014183
2575.67	0.0013556
2585.32	0.00129581
2594.96	0.00123811
2604.61	0.00129454
2614.26	0.001377
2623.9	0.0013464
2633.55	0.0013987
2643.2	0.00125931
2652.84	0.0014054
2662.49	0.0013093
2672.14	0.0012958
2681.78	0.0013898
2691.43	0.0013516
2701.08	0.0013899
2710.72	0.0013761
2720.37	0.0013404
2730.02	0.0013587
2739.66	0.0013884
2749.31	0.0013726
2758.96	0.0014232
2768.6	0.0014055
2778.25	0.0013205
2787.9	0.0013418
2797.54	0.0014052
2807.19	0.0013305
2816.84	0.00128235
2826.48	0.00128783
2836.13	0.0013538
2845.77	0.0013751
2855.42	0.0014269
2865.07	0.0013396
2874.71	0.00126651
2884.36	0.0013567
2894.01	0.00121647
2903.65	0.00119637
2913.3	0.00128352
2922.95	0.00129719
2932.59	0.001171
2942.24	0.001181
2951.89	0.0011084
2961.53	0.001074
2971.18	0.00105
2980.83	0.000966
2990.47	0.000944
3000.12	0.001055
3009.77	0.001008
3019.41	0.000892
3029.06	0.001024
3038.71	0.000913
3048.35	0.000941
3058	0.000833
3067.64	0.000947
3077.29	0.000958
3086.94	0.000805
3096.58	0.000833
3106.23	0.000876
3115.88	0.000778
3125.52	0.000595
3135.17	0.000697
3144.82	0.000718
3154.46	0.000697
3164.11	0.00077
3173.76	0.000527
3183.4	0.000497
3193.05	0.000465
3202.7	0.000382
3212.34	0.00056
3221.99	0.000572
3231.64	0.000613
3241.28	0.000377
3250.93	0.00052
3260.58	0.000489
3270.22	0.0003
3279.87	0.000214
3289.52	0.000358
3299.16	0.000416
3308.81	0.000363
3318.45	0.000226
3328.1	0.00014
3337.75	0.000241
3347.39	0.00011
3357.04	0.00027
3366.69	0.00017
3376.33	7e-05
3385.98	0.000267
3395.63	0.000479
3405.27	0.000288
3414.92	0.000229
3424.57	7e-05
3434.21	0.0003
3443.86	0.000278
3453.51	0.00013
3463.15	0.0001
3472.8	0.000247
3482.45	0.000296
3492.09	0.000311
3501.74	0.000226
3511.39	0.00018
3521.03	0.000313
3530.68	0.000289
3540.33	0.000387
3549.97	0.000237
3559.62	0.000364
3569.26	0.000256
3578.91	0.000454
3588.56	0.000508
3598.2	0.000429
3607.85	0.000528
3617.5	0.000528
3627.14	0.000572
3636.79	0.000471
3646.44	0.000347
3656.08	0.00054
3665.73	0.000487
3675.38	0.000316
3685.02	0.000604
3694.67	0.000571
3704.32	0.000552
3713.96	0.000577
3723.61	0.000759
3733.26	0.000545
3742.9	0.000529
3752.55	0.00056
3762.2	0.000561
3771.84	0.000562
3781.49	0.000588
3791.13	0.000673
3800.78	0.000789
3810.43	0.000742
3820.07	0.000635
3829.72	0.000818
3839.37	0.000708
3849.01	0.000678
3858.66	0.000727
3868.31	0.000688
3877.95	0.00068
3887.6	0.000912
3897.25	0.000805
3906.89	0.000762
3916.54	0.000799
3926.19	0.000896
3935.83	0.000812
3945.48	0.000853
3955.13	0.000724
3964.77	0.000744
3974.42	0.000959
3984.07	0.000757
3993.71	0.000935
