Infrared Spectrum: Prowl
Formula: C 13 H 19 N 3 O 4
CAS: 40487-42-1
State: gas
Instrument: HP-GC/MS/IRD
Origin: NIST Mass Spectrometry Data Center
1/CM	ABSORBANCE
550	0.0003315
562	0.0001833
574	0
586	9.75e-05
598	0.000468
610	0.0005031
622	0.0005616
634	0.0007878
646	0.0012168
658	0.001053
670	0.0010023
682	0.0009282
694	0.0008112
706	0.00078
718	0.0008814
730	0.0009477
742	0.0019071
754	0.004407
766	0.0036309
778	0.0023049
790	0.0024765
802	0.0013026
814	0.0005304
826	0.0001755
838	0.0002652
850	0.000429
862	0.0008073
874	0.001131
886	0.001365
898	0.0018642
910	0.0026481
922	0.0033072
934	0.0014274
946	0.0004485
958	0.0003588
970	0.0007956
982	0.0008892
994	0.0007527
1006	0.0008892
1018	0.0008229
1030	0.0008658
1042	0.0008346
1054	0.0011037
1066	0.0023712
1078	0.0033072
1090	0.0015717
1102	0.0013611
1114	0.0021723
1126	0.0029328
1138	0.0027378
1150	0.001638
1162	0.0013455
1174	0.0018252
1186	0.0032331
1198	0.001755
1210	0.0017433
1222	0.0027378
1234	0.0049296
1246	0.0086658
1258	0.0126711
1270	0.0109629
1282	0.008034
1294	0.0068523
1306	0.0064974
1318	0.0076323
1330	0.0121329
1342	0.012753
1354	0.0104559
1366	0.0094341
1378	0.007488
1390	0.0058578
1402	0.0050505
1414	0.0047658
1426	0.004953
1438	0.0071058
1450	0.0092274
1462	0.0117195
1474	0.0151203
1486	0.021918
1498	0.0199836
1510	0.0152061
1522	0.0170703
1534	0.0318747
1546	0.0349089
1558	0.0171405
1570	0.0124917
1582	0.0094575
1594	0.0067314
1606	0.0080535
1618	0.0116064
1630	0.0071058
1642	0.0031551
1654	0.0017745
1666	0.0011739
1678	0.0008541
1690	0.0005577
1702	0.0004017
1714	0.0003081
1726	0.0002457
1738	0.0001911
1750	0.0002028
1762	0.000234
1774	0.0002847
1786	0.0002808
1798	0.000156
1810	9.36e-05
1822	7.41e-05
1834	7.02e-05
1846	5.85e-05
1858	7.8e-06
1870	5.46e-05
1882	4.68e-05
1894	3.12e-05
1906	4.68e-05
1918	6.63e-05
1930	5.07e-05
1942	3.9e-05
1954	5.46e-05
1966	5.07e-05
1978	5.07e-05
1990	3.51e-05
2002	7.8e-06
2014	1.56e-05
2026	7.8e-06
2038	0
2050	3.12e-05
2062	1.56e-05
2074	1.17e-05
2086	1.17e-05
2098	2.34e-05
2110	2.34e-05
2122	1.56e-05
2134	7.8e-06
2146	3.12e-05
2158	1.17e-05
2170	3.9e-05
2182	0
2194	2.73e-05
2206	5.85e-05
2218	4.29e-05
2230	5.46e-05
2242	3.12e-05
2254	5.07e-05
2266	5.07e-05
2278	2.34e-05
2290	3.12e-05
2302	1.95e-05
2314	5.46e-05
2326	6.24e-05
2338	6.24e-05
2350	5.07e-05
2362	8.19e-05
2374	7.41e-05
2386	9.75e-05
2398	0.0001443
2410	0.0001443
2422	0.000156
2434	0.0001638
2446	0.0001755
2458	0.0001911
2470	0.0002184
2482	0.0001833
2494	0.0001404
2506	0.0001872
2518	0.0001911
2530	0.0001872
2542	0.000195
2554	0.000195
2566	0.0001443
2578	0.0001833
2590	0.0002223
2602	0.0001872
2614	0.0001638
2626	0.000156
2638	0.0001404
2650	0.0001599
2662	0.0001794
2674	0.0002262
2686	0.0002964
2698	0.0003081
2710	0.0003627
2722	0.0003666
2734	0.0004017
2746	0.0005577
2758	0.0005889
2770	0.0005421
2782	0.0005343
2794	0.0006006
2806	0.000663
2818	0.0007644
2830	0.0009399
2842	0.0012597
2854	0.00195
2866	0.0032994
2878	0.0044577
2890	0.005499
2902	0.0042315
2914	0.0045357
2926	0.0064545
2938	0.0097305
2950	0.0090207
2962	0.0079911
2974	0.0132249
2986	0.0085488
2998	0.0035919
3010	0.002028
3022	0.0014898
3034	0.0012285
3046	0.0011193
3058	0.0010374
3070	0.0009516
3082	0.0008775
3094	0.0006981
3106	0.0005655
3118	0.0005265
3130	0.0004095
3142	0.0003978
3154	0.0003822
3166	0.0003822
3178	0.0002808
3190	0.0002613
3202	0.0002184
3214	0.0001833
3226	0.0001872
3238	0.0001911
3250	0.0002223
3262	0.0002691
3274	0.0002925
3286	0.0003354
3298	0.0004875
3310	0.0007644
3322	0.0009516
3334	0.0012441
3346	0.0015834
3358	0.0021645
3370	0.0022776
3382	0.0016926
3394	0.0011427
3406	0.000936
3418	0.000663
3430	0.0004251
3442	0.0003003
3454	0.0001872
3466	0.0002457
3478	0.0001599
3490	0.0001365
3502	0.000117
3514	0.0001014
3526	8.19e-05
3538	0.000117
3550	0.0001326
3562	0.0001716
3574	8.19e-05
3586	0.0001053
3598	0.0001365
3610	7.8e-05
3622	3.9e-05
3634	7.8e-05
3646	0.0001833
3658	8.58e-05
3670	0.0001092
3682	2.34e-05
3694	8.19e-05
3706	0.0001677
3718	2.34e-05
3730	5.07e-05
3742	1.56e-05
3754	0.0001287
3766	0.0001209
3778	0.0001365
3790	0.0001872
3802	0.0001794
3814	0.0002808
3826	0.000195
3838	0.0002262
