Infrared Spectrum: 3H-IMIDAZO[4,5-b]PYRIDINE-5-CARBAMIC ACID, 7-[(DIPHENYLMETHYL)AMINO]-, ETHYL ESTER, HYDROCHLORIDE
Formula: C22 H22 Cl N5 O2
CAS: 40497-70-9
State: SOLID (1 mg / 650 mg KBr DISC)
Class: COBLENTZ III
Instrument: PERKIN-ELMER 521 (GRATING)
Instrument parameters: FILTER CHANGES AT 3130, 2475, 2000, 1150, 700, 410 CM^-^1, GRATING CHANGES AT 2000, 620 CM^-^1
Sampling: TRANSMISSION
Resolution: 4
Origin: SOUTHERN RESEARCH INST.
1/CM	TRANSMITTANCE
286.971	0.628
297.196	0.671
307.422	0.714
317.647	0.738
327.873	0.76
338.098	0.774
348.323	0.775
358.549	0.772
368.774	0.796
378.999	0.824
389.225	0.851
399.45	0.847
409.676	0.848
419.901	0.866
430.126	0.871
440.352	0.868
450.577	0.869
460.803	0.861
471.028	0.864
481.253	0.87
491.479	0.853
501.704	0.861
511.93	0.859
522.155	0.824
532.38	0.825
542.606	0.865
552.831	0.855
563.056	0.813
573.282	0.704
583.507	0.803
593.733	0.805
603.958	0.672
614.183	0.785
624.409	0.777
634.634	0.705
644.86	0.761
655.085	0.787
665.31	0.809
675.536	0.803
685.761	0.735
695.986	0.568
706.212	0.672
716.437	0.794
726.663	0.787
736.888	0.604
747.113	0.642
757.339	0.642
767.564	0.627
777.79	0.754
788.015	0.799
798.24	0.791
808.466	0.717
818.691	0.728
828.917	0.763
839.142	0.796
849.367	0.862
859.593	0.869
869.818	0.865
880.043	0.861
890.269	0.862
900.494	0.865
910.72	0.87
920.945	0.87
931.17	0.862
941.396	0.759
951.621	0.87
961.847	0.869
972.072	0.858
982.297	0.836
992.523	0.81
1002.75	0.773
1012.97	0.634
1023.2	0.702
1033.42	0.787
1043.65	0.815
1053.88	0.829
1064.1	0.773
1074.33	0.712
1084.55	0.627
1094.78	0.679
1105	0.779
1115.23	0.79
1125.45	0.722
1135.68	0.772
1145.9	0.748
1156.13	0.696
1166.35	0.692
1176.58	0.667
1186.81	0.606
1197.03	0.521
1207.26	0.399
1217.48	0.344
1227.71	0.207
1237.93	0.311
1248.16	0.489
1258.38	0.697
1268.61	0.759
1278.83	0.727
1289.06	0.631
1299.28	0.542
1309.51	0.602
1319.74	0.725
1329.96	0.772
1340.19	0.752
1350.41	0.717
1360.64	0.651
1370.86	0.599
1381.09	0.736
1391.31	0.683
1401.54	0.66
1411.76	0.642
1421.99	0.598
1432.21	0.467
1442.44	0.287
1452.67	0.454
1462.89	0.61
1473.12	0.565
1483.34	0.603
1493.57	0.559
1503.79	0.521
1514.02	0.56
1524.24	0.637
1534.47	0.612
1544.69	0.517
1554.92	0.467
1565.14	0.486
1575.37	0.416
1585.6	0.61
1595.82	0.642
1606.05	0.563
1616.27	0.438
1626.5	0.341
1636.72	0.238
1646.95	0.186
1657.17	0.39
1667.4	0.697
1677.62	0.823
1687.85	0.84
1698.07	0.827
1708.3	0.765
1718.53	0.725
1728.75	0.627
1738.98	0.417
1749.2	0.637
1759.43	0.794
1769.65	0.888
1779.88	0.909
1790.1	0.914
1800.33	0.917
1810.55	0.918
1820.78	0.921
1831	0.924
1841.23	0.927
1851.46	0.928
1861.68	0.926
1871.91	0.922
1882.13	0.921
1892.36	0.922
1902.58	0.923
1912.81	0.924
1923.03	0.926
1933.26	0.923
1943.48	0.918
1953.71	0.917
1963.93	0.918
1974.16	0.919
1984.39	0.918
1994.61	0.915
2004.84	0.914
2015.06	0.913
2025.29	0.912
2035.51	0.912
2045.74	0.911
2055.96	0.907
2066.19	0.906
2076.41	0.905
2086.64	0.904
2096.86	0.903
2107.09	0.903
2117.32	0.903
2127.54	0.901
2137.77	0.898
2147.99	0.897
2158.22	0.896
2168.44	0.895
2178.67	0.893
2188.89	0.89
2199.12	0.889
2209.34	0.887
2219.57	0.885
2229.79	0.884
2240.02	0.882
2250.25	0.881
2260.47	0.88
2270.7	0.878
2280.92	0.876
2291.15	0.873
2301.37	0.871
2311.6	0.868
2321.82	0.865
2332.05	0.862
2342.27	0.86
2352.5	0.857
2362.72	0.856
2372.95	0.854
2383.18	0.852
2393.4	0.851
2403.63	0.85
2413.85	0.849
2424.08	0.847
2434.3	0.843
2444.53	0.838
2454.75	0.833
2464.98	0.828
2475.2	0.823
2485.43	0.819
2495.65	0.813
2505.88	0.808
2516.11	0.802
2526.33	0.796
2536.56	0.786
2546.78	0.777
2557.01	0.769
2567.23	0.761
2577.46	0.758
2587.68	0.755
2597.91	0.752
2608.13	0.748
2618.36	0.744
2628.58	0.736
2638.81	0.728
2649.04	0.719
2659.26	0.714
2669.49	0.709
2679.71	0.706
2689.94	0.699
2700.16	0.683
2710.39	0.675
2720.61	0.665
2730.84	0.655
2741.06	0.643
2751.29	0.63
2761.51	0.615
2771.74	0.598
2781.97	0.581
2792.19	0.562
2802.42	0.541
2812.64	0.534
2822.87	0.531
2833.09	0.532
2843.32	0.539
2853.54	0.553
2863.77	0.568
2873.99	0.576
2884.22	0.576
2894.44	0.565
2904.67	0.547
2914.9	0.53
2925.12	0.511
2935.35	0.506
2945.57	0.5
2955.8	0.486
2966.02	0.461
2976.25	0.452
2986.47	0.453
2996.7	0.464
3006.92	0.475
3017.15	0.475
3027.37	0.472
3037.6	0.476
3047.83	0.48
3058.05	0.484
3068.28	0.499
3078.5	0.501
3088.73	0.498
3098.95	0.489
3109.18	0.494
3119.4	0.509
3129.63	0.536
3139.85	0.545
3150.08	0.562
3160.3	0.57
3170.53	0.571
3180.76	0.576
3190.98	0.582
3201.21	0.602
3211.43	0.603
3221.66	0.586
3231.88	0.565
3242.11	0.583
3252.33	0.611
3262.56	0.642
3272.78	0.674
3283.01	0.704
3293.23	0.731
3303.46	0.758
3313.69	0.774
3323.91	0.788
3334.14	0.794
3344.36	0.799
3354.59	0.803
3364.81	0.805
3375.04	0.805
3385.26	0.804
3395.49	0.802
3405.71	0.803
3415.94	0.805
3426.16	0.806
3436.39	0.807
3446.62	0.807
3456.84	0.809
3467.07	0.811
3477.29	0.813
3487.52	0.815
3497.74	0.818
3507.97	0.821
3518.19	0.824
3528.42	0.828
3538.64	0.832
3548.87	0.836
3559.09	0.84
3569.32	0.844
3579.55	0.847
3589.77	0.85
3600	0.851
3610.22	0.852
3620.45	0.854
3630.67	0.858
3640.9	0.862
3651.12	0.863
3661.35	0.861
3671.57	0.859
3681.8	0.861
3692.02	0.862
3702.25	0.862
3712.48	0.861
3722.7	0.858
3732.93	0.854
3743.15	0.853
3753.38	0.855
3763.6	0.858
3773.83	0.861
3784.05	0.861
3794.28	0.857
