Infrared Spectrum: 2-Methyl-1,5-hexadiene
Formula: C 7 H 12
CAS: 4049-81-4
State: gas
Instrument: HP-GC/MS/IRD
Origin: NIST Mass Spectrometry Data Center
1/CM	ABSORBANCE
550	0.0007524
562	0.0001463
574	0.0001387
586	0.0001862
598	0.000532
610	0.0009747
622	0.0014079
634	0.0012407
646	0.0007942
658	0.0004522
670	0.0002964
682	0.0002033
694	0.0002489
706	0.0002356
718	0.0001311
730	3.8e-05
742	4.94e-05
754	9.12e-05
766	0.0001178
778	0.0001596
790	0.0002318
802	0.000228
814	0.0004085
826	0.0006384
838	0.0009557
850	0.0015428
862	0.0030799
874	0.0069331
886	0.0128801
898	0.0146509
910	0.0127148
922	0.0091542
934	0.0051547
946	0.0031578
958	0.00266
970	0.002831
982	0.0036423
994	0.0039976
1006	0.0030248
1018	0.0018848
1030	0.0013281
1042	0.0008987
1054	0.0006042
1066	0.00038
1078	0.0003401
1090	0.0003458
1102	0.0004484
1114	0.0005263
1126	0.0003838
1138	0.0002166
1150	0.0001691
1162	0.0001824
1174	0.0002679
1186	0.0004085
1198	0.0004921
1210	0.0005947
1222	0.0007999
1234	0.0008512
1246	0.0009272
1258	0.0009424
1270	0.0010773
1282	0.0011343
1294	0.0010925
1306	0.0009766
1318	0.0008056
1330	0.00076
1342	0.0008569
1354	0.0011514
1366	0.0021071
1378	0.0030343
1390	0.0028006
1402	0.0021109
1414	0.0025916
1426	0.0036119
1438	0.0050388
1450	0.0057418
1462	0.004598
1474	0.0026714
1486	0.001406
1498	0.0007866
1510	0.0005586
1522	0.0005168
1534	0.000513
1546	0.000532
1558	0.0004845
1570	0.0005947
1582	0.0007201
1594	0.0009766
1606	0.0015029
1618	0.0026904
1630	0.0056202
1642	0.0079705
1654	0.006327
1666	0.0030058
1678	0.0012027
1690	0.0005605
1702	0.0002888
1714	0.0002489
1726	0.0001843
1738	0.0001273
1750	0.0001729
1762	0.0003344
1774	0.0006023
1786	0.0008759
1798	0.0008018
1810	0.0007448
1822	0.0010146
1834	0.0010089
1846	0.0005795
1858	0.0002679
1870	0.0001425
1882	0.0001292
1894	0.0001083
1906	7.79e-05
1918	6.27e-05
1930	2.47e-05
1942	7.79e-05
1954	7.03e-05
1966	0.0001083
1978	0.0001197
1990	7.98e-05
2002	4.37e-05
2014	5.51e-05
2026	5.89e-05
2038	6.65e-05
2050	6.65e-05
2062	8.55e-05
2074	4.37e-05
2086	3.8e-05
2098	4.56e-05
2110	3.23e-05
2122	4.18e-05
2134	4.56e-05
2146	4.18e-05
2158	6.08e-05
2170	4.56e-05
2182	4.75e-05
2194	5.32e-05
2206	6.27e-05
2218	4.94e-05
2230	7.03e-05
2242	6.65e-05
2254	9.5e-05
2266	6.84e-05
2278	5.51e-05
2290	6.46e-05
2302	5.13e-05
2314	4.94e-05
2326	3.99e-05
2338	3.42e-05
2350	2.85e-05
2362	5.7e-06
2374	6.08e-05
2386	4.37e-05
2398	6.46e-05
2410	4.75e-05
2422	4.75e-05
2434	2.85e-05
2446	1.14e-05
2458	5.51e-05
2470	7.6e-05
2482	6.27e-05
2494	7.98e-05
2506	0.0001102
2518	4.75e-05
2530	5.32e-05
2542	0.0001045
2554	0.0001406
2566	0.000114
2578	9.5e-05
2590	0.0001102
2602	0.0001064
2614	0.0001292
2626	0.0001805
2638	0.0001976
2650	0.0002166
2662	0.0002451
2674	0.0002527
2686	0.0002546
2698	0.0003078
2710	0.0003971
2722	0.000399
2734	0.0004807
2746	0.0005301
2758	0.0004826
2770	0.0005225
2782	0.0006631
2794	0.0008322
2806	0.0010602
2818	0.0015808
2830	0.00266
2842	0.00437
2854	0.0062054
2866	0.0069768
2878	0.0072086
2890	0.0084493
2902	0.011248
2914	0.0151145
2926	0.0182077
2938	0.0187036
2950	0.0153539
2962	0.0120517
2974	0.0128573
2986	0.0125153
2998	0.0094183
3010	0.0069122
3022	0.0046645
3034	0.0034314
3046	0.0034276
3058	0.0048051
3070	0.0086621
3082	0.0120764
3094	0.009405
3106	0.0037202
3118	0.001653
3130	0.0010165
3142	0.0007619
3154	0.0005909
3166	0.0004256
3178	0.0003629
3190	0.0003097
3202	0.0002641
3214	0.0002546
3226	0.0002356
3238	0.0002223
3250	0.0002432
3262	0.0002375
3274	0.000171
3286	0.0001938
3298	0.0001995
3310	0.0001672
3322	0.0001273
3334	0.000171
3346	0.0001824
3358	0.0001406
3370	0.0001273
3382	0.0001444
3394	0.0001539
3406	0.0001501
3418	9.12e-05
3430	6.84e-05
3442	0.0001178
3454	8.74e-05
3466	0.0001292
3478	9.69e-05
3490	0.0001121
3502	0.0001007
3514	7.22e-05
3526	7.41e-05
3538	8.93e-05
3550	0.0001235
3562	8.36e-05
3574	8.74e-05
3586	8.36e-05
3598	0.000133
3610	4.18e-05
3622	6.84e-05
3634	9.5e-05
3646	3.99e-05
3658	4.37e-05
3670	6.08e-05
3682	2.28e-05
3694	1.71e-05
3706	6.46e-05
3718	7.98e-05
3730	3.99e-05
3742	5.32e-05
3754	6.65e-05
3766	0.0001121
3778	6.27e-05
3790	8.36e-05
3802	7.03e-05
3814	3.42e-05
3826	0
3838	8.74e-05
