Infrared Spectrum: p-Fluorophenoxyacetic acid
Formula: C 8 H 7 F O 3
CAS: 405-79-8
State: gas
Origin: EPA-IR VAPOR PHASE LIBRARY
1/CM	ABSORBANCE
501.5	0.004145
513.074	0.003765
524.648	0.003585
536.222	0.003675
547.796	0.004295
559.37	0.004505
570.944	0.003965
582.518	0.003805
594.092	0.004325
605.666	0.004875
617.24	0.005085
628.814	0.004695
640.388	0.003795
651.962	0.002985
663.536	0.002675
675.11	0.002315
686.684	0.001875
698.258	0.001745
709.832	0.001925
721.406	0.003205
732.98	0.005365
744.554	0.004195
756.128	0.003125
767.702	0.003915
779.276	0.003065
790.85	0.001665
802.423	0.001845
813.997	0.003625
825.571	0.006765
837.145	0.006915
848.719	0.004465
860.293	0.002845
871.867	0.002025
883.441	0.001605
895.015	0.0013002
906.589	0.0010064
918.163	0.0009167
929.737	0.0008623
941.311	0.0008285
952.885	0.0007707
964.459	0.0009436
976.033	0.0010404
987.607	0.0012498
999.181	0.001695
1010.76	0.002385
1022.33	0.002635
1033.9	0.003885
1045.48	0.006535
1057.05	0.009675
1068.63	0.012125
1080.2	0.011885
1091.77	0.008235
1103.35	0.006715
1114.92	0.009505
1126.49	0.012655
1138.07	0.010445
1149.64	0.009825
1161.22	0.009485
1172.79	0.009185
1184.36	0.011995
1195.94	0.017495
1207.51	0.021615
1219.09	0.029025
1230.66	0.021765
1242.23	0.009605
1253.81	0.006085
1265.38	0.004905
1276.96	0.004555
1288.53	0.004635
1300.1	0.004255
1311.68	0.004205
1323.25	0.004925
1334.83	0.005835
1346.4	0.005585
1357.97	0.004545
1369.55	0.003535
1381.12	0.002965
1392.7	0.002625
1404.27	0.002315
1415.84	0.002105
1427.42	0.002125
1438.99	0.002525
1450.57	0.002955
1462.14	0.002165
1473.71	0.002285
1485.29	0.004345
1496.86	0.020775
1508.44	0.045705
1520.01	0.013095
1531.58	0.003775
1543.16	0.001695
1554.73	0.0010487
1566.31	0.0008451
1577.88	0.000757
1589.45	0.0005605
1601.03	0.00039191
1612.6	0.000122
1624.18	0.000501
1635.75	0.0007724
1647.32	0.0007257
1658.9	0.0007096
1670.47	0.0006926
1682.05	0.0007636
1693.62	0.0008991
1705.19	0.0010739
1716.77	0.001435
1728.34	0.002055
1739.92	0.002935
1751.49	0.004615
1763.06	0.007355
1774.64	0.013315
1786.21	0.016565
1797.79	0.016635
1809.36	0.018395
1820.93	0.011495
1832.51	0.005335
1844.08	0.003145
1855.66	0.002195
1867.23	0.001545
1878.8	0.0011327
1890.38	0.0008132
1901.95	0.0006534
1913.53	0.0006001
1925.1	0.0005649
1936.67	0.0005466
1948.25	0.0005678
1959.82	0.0005798
1971.4	0.0005799
1982.97	0.0005635
1994.54	0.0005308
2006.12	0.0005505
2017.69	0.0005543
2029.27	0.0005366
2040.84	0.0005884
2052.41	0.0005851
2063.99	0.0005254
2075.56	0.0004959
2087.14	0.0004725
2098.71	0.0004403
2110.28	0.0004145
2121.86	0.0004363
2133.43	0.0004252
2145.01	0.0004067
2156.58	0.00038165
2168.15	0.00037108
2179.73	0.00033974
2191.3	0.0003469
2202.88	0.00033548
2214.45	0.00032103
2226.02	0.0003216
2237.6	0.0004067
2249.17	0.00037114
2260.74	0.0004079
2272.32	0.0004303
2283.89	0.0005051
2295.47	0.0006669
2307.04	0.0008998
2318.61	0.0011336
2330.19	0.0012305
2341.76	0.0011573
2353.34	0.001226
2364.91	0.001425
2376.48	0.0010159
2388.06	0.0004743
2399.63	0.00034286
2411.21	0.000313301
2422.78	0.00037213
2434.35	0.00037132
2445.93	0.0004252
2457.5	0.0004567
2469.08	0.0004225
2480.65	0.000415
2492.22	0.0003856
2503.8	0.0003344
2515.37	0.000338
2526.95	0.0003423
2538.52	0.000304828
2550.09	0.000309875
2561.67	0.00030285
2573.24	0.0002459
2584.82	0.0002359
2596.39	0.0002317
2607.96	0.0002315
2619.54	0.0002432
2631.11	0.000196
2642.69	0.0002365
2654.26	0.0002353
2665.83	0.000176
2677.41	0.0002092
2688.98	0.0002198
2700.56	0.0002668
2712.13	0.0002574
2723.7	0.000176
2735.28	0.000191
2746.85	0.0002223
2758.43	0.0002395
2770	0.0002508
2781.57	0.0002514
2793.15	0.0002502
2804.72	0.0002362
2816.3	0.0002316
2827.87	0.00029659
2839.44	0.00038765
2851.02	0.0004987
2862.59	0.000627
2874.17	0.0006954
2885.74	0.000672
2897.31	0.0006672
2908.89	0.000884
2920.46	0.001315
2932.04	0.001735
2943.61	0.001675
2955.18	0.001335
2966.76	0.0012401
2978.33	0.0009205
2989.91	0.000619
3001.48	0.000498
3013.05	0.0004416
3024.63	0.00039219
3036.2	0.0004528
3047.78	0.0007724
3059.35	0.0012844
3070.92	0.0008648
3082.5	0.0005758
3094.07	0.0004772
3105.65	0.00037849
3117.22	0.00039901
3128.79	0.00034353
3140.37	0.000236
3151.94	0.000158
3163.52	0.000106
3175.09	0.00019
3186.66	0.000201
3198.24	0.000131
3209.81	0.000135
3221.39	0.000123
3232.96	0.000127
3244.53	0.000101
3256.11	8.5e-05
3267.68	0.000124
3279.26	0.00016
3290.83	0.000141
3302.4	0.000133
3313.98	0.000135
3325.55	0.000136
3337.13	0.000131
3348.7	0.000142
3360.27	4e-05
3371.85	0.000156
3383.42	6e-05
3395	0.000188
3406.57	0.000117
3418.14	0.000193
3429.72	0.000144
3441.29	0.000203
3452.86	0.00013
3464.44	0.000249
3476.01	0.000306377
3487.59	0.0004056
3499.16	0.0006632
3510.73	0.0010749
3522.31	0.002055
3533.88	0.002845
3545.46	0.002205
3557.03	0.002615
3568.6	0.006475
3580.18	0.007935
3591.75	0.002845
3603.33	0.0010533
3614.9	0.0006414
3626.47	0.000448
3638.05	0.0002868
3649.62	0.000308393
3661.2	0.000211
3672.77	0.000119
3684.34	0.0002276
3695.92	0.000135
3707.49	0.0002269
3719.07	0.000127
3730.64	0.000197
3742.21	0.000167
3753.79	8.8e-05
3765.36	0.000154
3776.94	0.000132
3788.51	5.5e-05
3800.08	0.000124
3811.66	0.000139
3823.23	0.00012
3834.81	0.000154
3846.38	0.000181
3857.95	0.000149
3869.53	8.9e-05
3881.1	0.000147
3892.68	5.7e-05
3904.25	3.4e-05
3915.82	0.000141
3927.4	0.000112
3938.97	9.2e-05
3950.55	0.00016
3962.12	0.000178
3973.69	0.000152
3985.27	0.0002477
3996.84	0.000139
