Infrared Spectrum: 4-Fluorophenylacetic acid
Formula: C 8 H 7 F O 2
CAS: 405-50-5
State: gas
Origin: EPA-IR VAPOR PHASE LIBRARY
1/CM	ABSORBANCE
549.8	0.027052
559.445	0.032032
569.09	0.021892
578.734	0.014732
588.379	0.018512
598.024	0.024232
607.669	0.026332
617.313	0.023582
626.958	0.019932
636.603	0.015952
646.248	0.012152
655.893	0.009872
665.537	0.008622
675.182	0.008142
684.827	0.007942
694.472	0.007392
704.116	0.005102
713.761	0.003442
723.406	0.002702
733.051	0.002292
742.695	0.002092
752.34	0.002372
761.985	0.002592
771.63	0.005442
781.275	0.012682
790.919	0.018012
800.564	0.016212
810.209	0.018282
819.854	0.022112
829.498	0.018242
839.143	0.011962
848.788	0.010922
858.433	0.009982
868.078	0.006162
877.722	0.004752
887.367	0.004422
897.012	0.003702
906.657	0.003702
916.301	0.003562
925.946	0.003622
935.591	0.004162
945.236	0.003412
954.88	0.002742
964.525	0.002532
974.17	0.002332
983.815	0.001852
993.46	0.002022
1003.1	0.001992
1012.75	0.004782
1022.39	0.005082
1032.04	0.002752
1041.68	0.002852
1051.33	0.004062
1060.97	0.006672
1070.62	0.010722
1080.26	0.017932
1089.91	0.032482
1099.55	0.057562
1109.2	0.092692
1118.84	0.094732
1128.49	0.056942
1138.13	0.036332
1147.78	0.027792
1157.42	0.030392
1167.07	0.024902
1176.71	0.014272
1186.36	0.014312
1196	0.017382
1205.64	0.021142
1215.29	0.026812
1224.93	0.043562
1234.58	0.084982
1244.22	0.070762
1253.87	0.019792
1263.51	0.011372
1273.16	0.009622
1282.8	0.009592
1292.45	0.009602
1302.09	0.009022
1311.74	0.008532
1321.38	0.008982
1331.03	0.011052
1340.67	0.013872
1350.32	0.015482
1359.96	0.015532
1369.61	0.013072
1379.25	0.008872
1388.9	0.006482
1398.54	0.005762
1408.18	0.005862
1417.83	0.006702
1427.47	0.007432
1437.12	0.007642
1446.76	0.006322
1456.41	0.004412
1466.05	0.003382
1475.7	0.003472
1485.34	0.005082
1494.99	0.014752
1504.63	0.060122
1514.28	0.085922
1523.92	0.036302
1533.57	0.009902
1543.21	0.004562
1552.86	0.003282
1562.5	0.003302
1572.15	0.003352
1581.79	0.003762
1591.44	0.006572
1601.08	0.012992
1610.73	0.016162
1620.37	0.009582
1630.01	0.004472
1639.66	0.002592
1649.3	0.002012
1658.95	0.001862
1668.59	0.002002
1678.24	0.002262
1687.88	0.002812
1697.53	0.003702
1707.17	0.004762
1716.82	0.006642
1726.46	0.010062
1736.11	0.016712
1745.75	0.028742
1755.4	0.046282
1765.04	0.066662
1774.69	0.089042
1784.33	0.094052
1793.98	0.072572
1803.62	0.046132
1813.27	0.024202
1822.91	0.011822
1832.55	0.006322
1842.2	0.003922
1851.84	0.002952
1861.49	0.002802
1871.13	0.002982
1880.78	0.003072
1890.42	0.002732
1900.07	0.002052
1909.71	0.001442
1919.36	0.0012729
1929	0.0013537
1938.65	0.0012838
1948.29	0.0012041
1957.94	0.0010433
1967.58	0.0010856
1977.23	0.0010953
1986.87	0.001179
1996.52	0.0011219
2006.16	0.0012587
2015.81	0.0012632
2025.45	0.0011457
2035.1	0.0011503
2044.74	0.0009557
2054.38	0.0009051
2064.03	0.0008147
2073.67	0.0008333
2083.32	0.00086
2092.96	0.0008233
2102.61	0.0007133
2112.25	0.0006831
2121.9	0.0007357
2131.54	0.0007103
2141.19	0.0006215
2150.83	0.0006775
2160.48	0.0005609
2170.12	0.0006248
2179.77	0.0006853
2189.41	0.0006807
2199.06	0.0007707
2208.7	0.0008927
2218.35	0.0008636
2227.99	0.0009722
2237.64	0.0008137
2247.28	0.0008865
2256.92	0.0009198
2266.57	0.0007869
2276.21	0.0007664
2285.86	0.0007569
2295.5	0.000719
2305.15	0.0007545
2314.79	0.0007569
2324.44	0.000815
2334.08	0.0009223
2343.73	0.0007734
2353.37	0.0007791
2363.02	0.0007855
2372.66	0.0008237
2382.31	0.0009098
2391.95	0.0009722
2401.6	0.0009958
2411.24	0.0008373
2420.89	0.000686
2430.53	0.0007652
2440.18	0.0007348
2449.82	0.0008856
2459.47	0.0010616
2469.11	0.0011938
2478.75	0.0008602
2488.4	0.0007452
2498.04	0.000579
2507.69	0.0005771
2517.33	0.00043494
2526.98	0.0005087
2536.62	0.0006085
2546.27	0.0005781
2555.91	0.0005154
2565.56	0.0005342
2575.2	0.0006425
2584.85	0.0005521
2594.49	0.00044243
2604.14	0.0005617
2613.78	0.00043959
2623.43	0.00041649
2633.07	0.0005336
2642.72	0.0005506
2652.36	0.0005466
2662.01	0.00046533
2671.65	0.0004872
2681.29	0.00037907
2690.94	0.0003515
2700.58	0.00039597
2710.23	0.00037207
2719.87	0.0005392
2729.52	0.0004912
2739.16	0.00042734
2748.81	0.0004925
2758.45	0.0003307
2768.1	0.0004908
2777.74	0.000336
2787.39	0.0003623
2797.03	0.00044016
2806.68	0.0002838
2816.32	0.00043278
2825.97	0.0004904
2835.61	0.0006249
2845.26	0.0008373
2854.9	0.0006896
2864.55	0.0010062
2874.19	0.00095
2883.84	0.0006835
2893.48	0.0008323
2903.12	0.001392
2912.77	0.001852
2922.41	0.002852
2932.06	0.003522
2941.7	0.003732
2951.35	0.003322
2960.99	0.002622
2970.64	0.002222
2980.28	0.002182
2989.93	0.002262
2999.57	0.002602
3009.22	0.002882
3018.86	0.002682
3028.51	0.002742
3038.15	0.004132
3047.8	0.006112
3057.44	0.005132
3067.09	0.003432
3076.73	0.003152
3086.38	0.002752
3096.02	0.001562
3105.67	0.0013067
3115.31	0.0013185
3124.95	0.0013182
3134.6	0.0010158
3144.24	0.000663
3153.89	0.0003495
3163.53	0.000229
3173.18	0.000224
3182.82	0.0003176
3192.47	0.0004086
3202.11	0.0003504
3211.76	0.0003323
3221.4	0.00014
3231.05	0.000197
3240.69	0
3250.34	0.000271
3259.98	0.000144
3269.63	0.00028
3279.27	0.0002944
3288.92	0.000195
3298.56	0.000175
3308.21	0.000263
3317.85	0.0003366
3327.49	0.000305
3337.14	0.000228
3346.78	0.000166
3356.43	0.0003344
3366.07	0.000278
3375.72	0.000148
3385.36	0.0003658
3395.01	0.000286
3404.65	0.000236
3414.3	0.000199
3423.94	0.00019
3433.59	0.0005002
3443.23	0.00040618
3452.88	0.000166
3462.52	0.00042785
3472.17	0.00043166
3481.81	0.0004985
3491.46	0.000679
3501.1	0.0007918
3510.75	0.0010066
3520.39	0.0013475
3530.04	0.002092
3539.68	0.003232
3549.32	0.005472
3558.97	0.012432
3568.61	0.037872
3578.26	0.040982
3587.9	0.013912
3597.55	0.005322
3607.19	0.002472
3616.84	0.001392
3626.48	0.0009077
3636.13	0.0007841
3645.77	0.0007157
3655.42	0.0005228
3665.06	0.0003417
3674.71	0.000572
3684.35	0.0005198
3694	0.00039466
3703.64	0.0002998
3713.29	0.000498
3722.93	0.00044966
3732.58	0.00043429
3742.22	0.000148
3751.86	0.0003458
3761.51	0.0003626
3771.15	0.0004872
3780.8	0.00043335
3790.44	0.0003082
3800.09	0.0003064
3809.73	0.0003332
3819.38	0.0002894
3829.02	0.000127
3838.67	0.000214
3848.31	0.0003714
3857.96	0.0005508
3867.6	0.00044784
3877.25	0.0002887
3886.89	0.0003448
3896.54	0.000233
3906.18	0.000231
3915.83	0.0003555
3925.47	0.0003374
3935.12	0.000186
3944.76	0.0003303
3954.41	0.000171
3964.05	0.000226
3973.69	0.0003581
3983.34	0.0003221
3992.98	0.000143
