Infrared Spectrum: 1-Acetoxy-4-fluorobenzene
Formula: C 8 H 7 F O 2
CAS: 405-51-6
State: gas
Origin: EPA-IR VAPOR PHASE LIBRARY
1/CM	ABSORBANCE
549.8	0.001739
559.445	0.001839
569.09	0.001859
578.735	0.002199
588.38	0.002609
598.025	0.002719
607.67	0.002659
617.315	0.002429
626.96	0.002919
636.605	0.002889
646.251	0.001869
655.896	0.0013976
665.541	0.001499
675.186	0.001251
684.831	0.001479
694.476	0.002129
704.121	0.002089
713.766	0.001759
723.411	0.001489
733.056	0.002009
742.701	0.002939
752.346	0.006319
761.991	0.016899
771.636	0.014529
781.281	0.003929
790.926	0.003739
800.571	0.005509
810.216	0.011769
819.861	0.019479
829.507	0.021129
839.152	0.020859
848.797	0.020269
858.442	0.016259
868.087	0.011559
877.732	0.010319
887.377	0.013549
897.022	0.025079
906.667	0.027219
916.312	0.013699
925.957	0.008619
935.602	0.006639
945.247	0.003049
954.892	0.002159
964.537	0.002409
974.182	0.003779
983.827	0.006279
993.472	0.010779
1003.12	0.022279
1012.76	0.025529
1022.41	0.011929
1032.05	0.005789
1041.7	0.005189
1051.34	0.006249
1060.99	0.008369
1070.63	0.011969
1080.28	0.014919
1089.92	0.013409
1099.57	0.010409
1109.21	0.007649
1118.86	0.007379
1128.5	0.007879
1138.15	0.010949
1147.79	0.018509
1157.44	0.028199
1167.08	0.066489
1176.73	0.171149
1186.37	0.280739
1196.02	0.284009
1205.66	0.237939
1215.31	0.141369
1224.95	0.065459
1234.6	0.032289
1244.24	0.021689
1253.89	0.016229
1263.53	0.012399
1273.18	0.009169
1282.82	0.006879
1292.47	0.006229
1302.11	0.005749
1311.76	0.005069
1321.4	0.004059
1331.05	0.003379
1340.69	0.003609
1350.34	0.006129
1359.98	0.016059
1369.63	0.035559
1379.27	0.029889
1388.92	0.011169
1398.56	0.007129
1408.21	0.005979
1417.85	0.005979
1427.5	0.006489
1437.14	0.007809
1446.79	0.006779
1456.43	0.005249
1466.08	0.005449
1475.73	0.007219
1485.37	0.019189
1495.02	0.080839
1504.66	0.149099
1514.31	0.089279
1523.95	0.023539
1533.6	0.011869
1543.24	0.006499
1552.89	0.004119
1562.53	0.003519
1572.18	0.003349
1581.82	0.004239
1591.47	0.005249
1601.11	0.005509
1610.76	0.004649
1620.4	0.003939
1630.05	0.003849
1639.69	0.003509
1649.34	0.003099
1658.98	0.003169
1668.63	0.003549
1678.27	0.003329
1687.92	0.002949
1697.56	0.003249
1707.21	0.003539
1716.85	0.004259
1726.5	0.005799
1736.14	0.008419
1745.79	0.012779
1755.43	0.021279
1765.08	0.036499
1774.72	0.059739
1784.37	0.078769
1794.01	0.069719
1803.66	0.043319
1813.3	0.020719
1822.95	0.010519
1832.59	0.006799
1842.24	0.005379
1851.88	0.004849
1861.53	0.004979
1871.17	0.004639
1880.82	0.003519
1890.46	0.002289
1900.11	0.001739
1909.75	0.001629
1919.4	0.0013922
1929.04	0.0012997
1938.69	0.0014054
1948.33	0.001519
1957.98	0.001479
1967.62	0.0014086
1977.27	0.001509
1986.91	0.001749
1996.56	0.002149
2006.2	0.002619
2015.85	0.002189
2025.49	0.001789
2035.14	0.001849
2044.78	0.001769
2054.43	0.001509
2064.07	0.0011665
2073.72	0.0010828
2083.36	0.0010448
2093.01	0.001165
2102.65	0.0014135
2112.3	0.0011917
2121.94	0.0008882
2131.59	0.0007455
2141.23	0.0006647
2150.88	0.0005631
2160.52	0.00052718
2170.17	0.00050932
2179.81	0.00046045
2189.46	0.00053075
2199.1	0.00047899
2208.75	0.00053338
2218.39	0.00050917
2228.04	0.0004338
2237.68	0.0006204
2247.33	0.0005781
2256.97	0.00052848
2266.62	0.0005407
2276.26	0.0006119
2285.91	0.00052826
2295.55	0.00054475
2305.2	0.000551
2314.84	0.0006035
2324.49	0.0005996
2334.13	0.0007153
2343.78	0.0009113
2353.42	0.0011242
2363.07	0.0010704
2372.72	0.0010937
2382.36	0.0011688
2392.01	0.0010653
2401.65	0.0011958
2411.3	0.0011615
2420.94	0.0012327
2430.59	0.0010745
2440.23	0.000825
2449.88	0.0005893
2459.52	0.000634
2469.17	0.0006802
2478.81	0.0006072
2488.46	0.00054386
2498.1	0.0004011
2507.75	0.000401
2517.39	0.000257
2527.04	0.000217
2536.68	0.000246
2546.33	0.000282
2555.97	0.0004279
2565.62	0.00051756
2575.26	0.00049301
2584.91	0.000318
2594.55	0.000246
2604.2	0.000197
2613.84	0.000109
2623.49	0.000194
2633.13	0.000171
2642.78	0.000145
2652.42	0.000249
2662.07	0.00015
2671.71	0.000244
2681.36	0.000237
2691	0.000246
2700.65	0.000181
2710.29	0.000317
2719.94	0.000264
2729.58	0.0003808
2739.23	0.000169
2748.87	0.000218
2758.52	0.000212
2768.16	0.000294
2777.81	0.000252
2787.45	0.000293
2797.1	0.000344
2806.74	0.000294
2816.39	0.000194
2826.03	0.000225
2835.68	0.000192
2845.32	0.0004197
2854.97	0.0003553
2864.61	0.0007178
2874.26	0.00049618
2883.9	0.00046752
2893.55	0.0005821
2903.19	0.000253
2912.84	0.0004196
2922.48	0.00050111
2932.13	0.0005877
2941.77	0.0010682
2951.42	0.001759
2961.06	0.001299
2970.71	0.0007208
2980.35	0.0009008
2990	0.0006404
2999.64	0.0007973
3009.29	0.0011676
3018.93	0.001519
3028.58	0.001819
3038.22	0.001909
3047.87	0.002569
3057.51	0.003939
3067.16	0.003609
3076.8	0.002309
3086.45	0.002279
3096.09	0.001929
3105.74	0.001719
3115.38	0.0012742
3125.03	0.001016
3134.67	0.0008487
3144.32	0.0005807
3153.96	0.000319
3163.61	0.000431
3173.25	0.000329
3182.9	0.000257
3192.54	0.000189
3202.19	0.00036
3211.83	6.7e-05
3221.48	0.000273
3231.12	3.9e-05
3240.77	0.000151
3250.41	8.6e-05
3260.06	0
3269.7	4.4e-05
3279.35	0.000196
3289	0.000205
3298.64	0.000222
3308.29	7.5e-05
3317.93	0.000217
3327.58	9.7e-05
3337.22	0.00038
3346.87	0.000245
3356.51	0.000409
3366.16	0.000224
3375.8	0.000282
3385.45	0.000367
3395.09	0.00028
3404.74	0.000172
3414.38	0.000207
3424.03	0.000345
3433.67	0.00052488
3443.32	0.0003534
3452.96	0.00034
3462.61	0.00054344
3472.25	0.0006358
3481.9	0.0005633
3491.54	0.0007065
3501.19	0.0005713
3510.83	0.0008505
3520.48	0.000815
3530.12	0.000842
3539.77	0.0012128
3549.41	0.0014432
3559.06	0.001251
3568.7	0.0009509
3578.35	0.0007786
3587.99	0.0007091
3597.64	0.00044273
3607.28	0.000562
3616.93	0.00051587
3626.57	0.00052463
3636.22	0.000458909
3645.86	0.0006056
3655.51	0.0005649
3665.15	0.00054805
3674.8	0.0006314
3684.44	0.00043924
3694.09	0.0006038
3703.73	0.0006074
3713.38	0.0006045
3723.02	0.0006711
3732.67	0.0003835
3742.31	0.00050808
3751.96	0.00054488
3761.6	0.000228
3771.25	0.00053613
3780.89	0.0003774
3790.54	0.000452052
3800.18	0.000309
3809.83	0.000378
3819.47	0.00044413
3829.12	0.0004871
3838.76	0.0005723
3848.41	0.0005691
3858.05	0.0005863
3867.7	0.00048123
3877.34	0.00044387
3886.99	0.00053002
3896.63	0.0006298
3906.28	0.00046088
3915.92	0.0006269
3925.57	0.0006109
3935.21	0.0004284
3944.86	0.0006019
3954.5	0.0008575
3964.15	0.0005556
3973.79	0.0006089
3983.44	0.000597
3993.08	0.0003975
