Infrared Spectrum: ETHYLENEDIAMINE, N-ALLYL-
Formula: C5 H12 N2
CAS: 40510-22-3
State: LIQUID (NEAT)
Boiling point: 153-155 C
Class: COBLENTZ III
Instrument: BAIRD (GRATING)
Instrument parameters: NaCl PRISM
Sampling: TRANSMISSION
Path length: 0.003 CM
Resolution: 2
Origin: WYANDOTTE CHEMICALS CORP.
1/CM	TRANSMITTANCE
4000	0.9703
3991	0.9705
3982	0.9707
3973	0.9708
3964	0.9708
3955	0.9708
3946	0.9709
3937	0.971
3928	0.9713
3919	0.9716
3910	0.972
3901	0.9721
3892	0.9724
3883	0.9721
3874	0.9714
3865	0.9705
3856	0.9696
3847	0.9687
3838	0.9678
3829	0.9671
3820	0.9663
3811	0.9656
3802	0.9649
3793	0.9641
3784	0.9632
3775	0.9617
3766	0.9601
3757	0.9585
3748	0.9568
3739	0.9548
3730	0.9524
3721	0.95
3712	0.9466
3703	0.9425
3694	0.9382
3685	0.9318
3676	0.9254
3667	0.9186
3658	0.9106
3649	0.9025
3640	0.8953
3631	0.8892
3622	0.8831
3613	0.8775
3604	0.8724
3595	0.8671
3586	0.862
3577	0.8567
3568	0.85
3559	0.8428
3550	0.8355
3541	0.8282
3532	0.8208
3523	0.8135
3514	0.8061
3505	0.7985
3496	0.7894
3487	0.7801
3478	0.763
3469	0.736
3460	0.7058
3451	0.6688
3442	0.628
3433	0.587
3424	0.5458
3415	0.5044
3406	0.4651
3397	0.4599
3388	0.456
3379	0.4529
3370	0.4446
3361	0.4197
3352	0.3938
3343	0.3678
3334	0.3346
3325	0.3293
3316	0.3282
3307	0.3584
3298	0.3971
3289	0.4359
3280	0.4748
3271	0.511
3262	0.5252
3253	0.5442
3244	0.5662
3235	0.5876
3226	0.6093
3217	0.631
3208	0.6528
3199	0.6749
3190	0.6969
3181	0.7192
3172	0.7415
3163	0.7569
3154	0.7204
3145	0.6487
3136	0.5765
3127	0.5309
3118	0.5678
3109	0.6276
3100	0.6878
3091	0.7484
3082	0.7546
3073	0.7041
3064	0.6382
3055	0.5738
3046	0.5309
3037	0.4831
3028	0.4112
3019	0.353
3010	0.2963
3001	0.2392
2992	0.1817
2983	0.1282
2974	0.1202
2965	0.119
2956	0.1205
2947	0.1275
2938	0.1358
2929	0.1434
2920	0.1453
2911	0.1449
2902	0.1352
2893	0.1291
2884	0.1271
2875	0.1218
2866	0.114
2857	0.1051
2848	0.1022
2839	0.1075
2830	0.1759
2821	0.2471
2812	0.3185
2803	0.3907
2794	0.4632
2785	0.536
2776	0.583
2767	0.6152
2758	0.6497
2749	0.6696
2740	0.6891
2731	0.7136
2722	0.7388
2713	0.7676
2704	0.7892
2695	0.8064
2686	0.825
2677	0.8463
2668	0.8607
2659	0.8794
2650	0.8968
2641	0.9093
2632	0.9175
2623	0.9234
2614	0.9273
2605	0.9306
2596	0.934
2587	0.9374
2578	0.9408
2569	0.9442
2560	0.9475
2551	0.951
2542	0.9544
2533	0.9575
2524	0.9606
2515	0.9636
2506	0.9658
2497	0.9674
2488	0.9687
2479	0.9696
2470	0.97
2461	0.9704
2452	0.9708
2443	0.9711
2434	0.9715
2425	0.9717
2416	0.972
2407	0.9723
2398	0.9725
2389	0.9725
2380	0.9725
2371	0.9725
2362	0.9724
2353	0.9724
2344	0.9721
2335	0.9718
2326	0.9715
2317	0.9711
2308	0.9707
2299	0.9704
2290	0.9703
2281	0.9704
2272	0.9705
2263	0.9706
2254	0.9709
2245	0.9712
2236	0.9716
2227	0.972
2218	0.9725
2209	0.9728
2200	0.9731
2191	0.9735
2182	0.9739
2173	0.9744
2164	0.975
2155	0.9756
2146	0.9759
2137	0.9755
2128	0.9751
2119	0.9747
2110	0.9743
2101	0.974
2092	0.9736
2083	0.9733
2074	0.9732
2065	0.9731
2056	0.9728
2047	0.9725
2038	0.9721
2029	0.9698
2020	0.9644
2011	0.9571
2002	0.9494
1993	0.9431
1984	0.9404
1975	0.9408
1966	0.9452
1957	0.9489
1948	0.9495
1939	0.9471
1930	0.9418
1921	0.9371
1912	0.9357
1903	0.9352
1894	0.9327
1885	0.9248
1876	0.9134
1867	0.9017
1858	0.8944
1849	0.8882
1840	0.8912
1831	0.9065
1822	0.9254
1813	0.9381
1804	0.9434
1795	0.9488
1786	0.9528
1777	0.9418
1768	0.9366
1759	0.9332
1750	0.9305
1741	0.9224
1732	0.9082
1723	0.903
1714	0.8825
1705	0.874
1696	0.8495
1687	0.8104
1678	0.7841
1669	0.678
1660	0.4442
1651	0.6329
1642	0.599
1633	0.562
1624	0.5405
1615	0.5504
1606	0.5869
1597	0.6308
1588	0.6755
1579	0.7126
1570	0.7561
1561	0.7642
1552	0.7986
1543	0.7996
1534	0.7928
1525	0.7593
1516	0.7318
1507	0.6755
1498	0.5839
1489	0.4796
1480	0.3143
1471	0.2883
1462	0.3304
1453	0.4619
1444	0.5814
1435	0.4971
1426	0.5985
1417	0.7294
1408	0.7282
1399	0.7374
1390	0.7505
1381	0.6908
1372	0.6162
1363	0.631
1354	0.6277
1345	0.5925
1336	0.6058
1327	0.6795
1318	0.7143
1309	0.7099
1300	0.7197
1291	0.7326
1282	0.7192
1273	0.728
1264	0.7735
1255	0.7771
1246	0.7547
1237	0.7575
1228	0.7886
1219	0.8112
1210	0.8143
1201	0.7804
1192	0.7268
1183	0.7068
1174	0.724
1165	0.6415
1156	0.4848
1147	0.4502
1138	0.3659
1129	0.2862
1120	0.4226
1111	0.5147
1102	0.5394
1093	0.4997
1084	0.4201
1075	0.4141
1066	0.458
1057	0.4976
1048	0.5051
1039	0.4902
1030	0.5189
1021	0.496
1012	0.3609
1003	0.182
994	0.3245
985	0.5183
976	0.5309
967	0.4966
958	0.4532
949	0.3771
940	0.2767
931	0.1184
922	0.0406
913	0.0544
904	0.1452
895	0.1991
886	0.2263
877	0.2112
868	0.2033
859	0.206
850	0.21
841	0.2105
832	0.2056
823	0.2024
814	0.1987
805	0.1979
796	0.1851
787	0.199
778	0.206
769	0.2246
760	0.2501
751	0.2999
742	0.3373
733	0.3877
724	0.4502
715	0.5106
706	0.565
697	0.6127
688	0.6408
679	0.6662
670	0.6797
661	0.6703
652	0.6584
643	0.6575
634	0.6591
