Infrared Spectrum: 2-Phenethyl phenyl ether
Formula: C 14 H 14 O
CAS: 40515-89-7
State: gas
Origin: EPA-IR VAPOR PHASE LIBRARY
1/CM	ABSORBANCE
549.8	0.002299
559.445	0.003299
569.09	0.003169
578.734	0.002369
588.379	0.002399
598.024	0.003409
607.669	0.003619
617.313	0.001749
626.958	0.001399
636.603	0.001439
646.248	0.001959
655.893	0.003089
665.537	0.005729
675.182	0.011559
684.827	0.022879
694.472	0.031789
704.116	0.023229
713.761	0.014719
723.406	0.012459
733.051	0.016999
742.695	0.030839
752.34	0.034149
761.985	0.020589
771.63	0.012839
781.275	0.008949
790.919	0.006759
800.564	0.003909
810.209	0.002539
819.854	0.002019
829.498	0.002189
839.143	0.002499
848.788	0.003039
858.433	0.002699
868.078	0.004299
877.722	0.006279
887.367	0.006139
897.012	0.003959
906.657	0.003079
916.301	0.002019
925.946	0.001579
935.591	0.001359
945.236	0.001389
954.88	0.001739
964.525	0.001929
974.17	0.002539
983.815	0.003929
993.46	0.006969
1003.1	0.008699
1012.75	0.014109
1022.39	0.023189
1032.04	0.038979
1041.68	0.034989
1051.33	0.021399
1060.97	0.016479
1070.62	0.013429
1080.26	0.010199
1089.91	0.005879
1099.55	0.004169
1109.2	0.003289
1118.84	0.001719
1128.49	0.001849
1138.13	0.002279
1147.78	0.004069
1157.42	0.008209
1167.07	0.018749
1176.71	0.013779
1186.36	0.012169
1196	0.020099
1205.64	0.027199
1215.29	0.041329
1224.93	0.061659
1234.58	0.097719
1244.22	0.096439
1253.87	0.043229
1263.51	0.023659
1273.16	0.019879
1282.8	0.020439
1292.45	0.019209
1302.09	0.017879
1311.74	0.010799
1321.38	0.007249
1331.03	0.007209
1340.67	0.005629
1350.32	0.004039
1359.96	0.003849
1369.61	0.005219
1379.25	0.009969
1388.9	0.008709
1398.54	0.003679
1408.18	0.002349
1417.83	0.002489
1427.47	0.003699
1437.12	0.005739
1446.76	0.007459
1456.41	0.009959
1466.05	0.020189
1475.7	0.027739
1485.34	0.036049
1494.99	0.079209
1504.63	0.037299
1514.28	0.009959
1523.92	0.005059
1533.57	0.003449
1543.21	0.003429
1552.86	0.004229
1562.5	0.006429
1572.15	0.012119
1581.79	0.024649
1591.44	0.047239
1601.08	0.048249
1610.73	0.018379
1620.37	0.006159
1630.01	0.003369
1639.66	0.002239
1649.3	0.001939
1658.95	0.001599
1668.59	0.001369
1678.24	0.001419
1687.88	0.001729
1697.53	0.001659
1707.17	0.001539
1716.82	0.001399
1726.46	0.001519
1736.11	0.001349
1745.75	0.001459
1755.4	0.001799
1765.04	0.002029
1774.69	0.001719
1784.33	0.001869
1793.98	0.002349
1803.62	0.001869
1813.27	0.001649
1822.91	0.001699
1832.55	0.001749
1842.2	0.001879
1851.84	0.001949
1861.49	0.001909
1871.13	0.001689
1880.78	0.001609
1890.42	0.001279
1900.07	0.001389
1909.71	0.001889
1919.36	0.002409
1929	0.002729
1938.65	0.003059
1948.29	0.002599
1957.94	0.001919
1967.58	0.001269
1977.23	0.0011346
1986.87	0.001239
1996.52	0.001339
2006.16	0.001419
2015.81	0.001569
2025.45	0.001919
2035.1	0.001819
2044.74	0.001419
2054.38	0.001339
2064.03	0.001379
2073.67	0.001259
2083.32	0.001209
2092.96	0.0009859
2102.61	0.0007786
2112.25	0.0006554
2121.9	0.0005347
2131.54	0.0005212
2141.19	0.0005273
2150.83	0.000379
2160.48	0.0003727
2170.12	0.0004865
2179.77	0.0004373
2189.41	0.0004385
2199.06	0.0004879
2208.7	0.0005457
2218.35	0.0005265
2227.99	0.0005568
2237.64	0.0005648
2247.28	0.0006053
2256.92	0.0006781
2266.57	0.0008088
2276.21	0.0007515
2285.86	0.000673
2295.5	0.000795
2305.15	0.0008123
2314.79	0.0009404
2324.44	0.0007804
2334.08	0.0008422
2343.73	0.0008135
2353.37	0.0007968
2363.02	0.0008412
2372.66	0.0007913
2382.31	0.000796
2391.95	0.0007618
2401.6	0.0008386
2411.24	0.0008745
2420.89	0.0008486
2430.53	0.0008668
2440.18	0.0010953
2449.82	0.001052
2459.47	0.0010155
2469.11	0.0010615
2478.75	0.0010032
2488.4	0.0008882
2498.04	0.0007931
2507.69	0.0008908
2517.33	0.0007698
2526.98	0.0009122
2536.62	0.0009666
2546.27	0.0010334
2555.91	0.0008356
2565.56	0.0007786
2575.2	0.0005968
2584.85	0.0006295
2594.49	0.0006235
2604.14	0.000671
2613.78	0.0006851
2623.43	0.0005388
2633.07	0.0006963
2642.72	0.0006956
2652.36	0.0004291
2662.01	0.0005457
2671.65	0.0006431
2681.29	0.0006193
2690.94	0.0005919
2700.58	0.0005694
2710.23	0.0006389
2719.87	0.0007719
2729.52	0.0009389
2739.16	0.001179
2748.81	0.0010649
2758.45	0.0009707
2768.1	0.0008709
2777.74	0.0008989
2787.39	0.0009113
2797.03	0.0008986
2806.68	0.0009021
2816.32	0.00114
2825.97	0.001489
2835.61	0.001989
2845.26	0.002959
2854.9	0.003999
2864.55	0.005899
2874.19	0.009039
2883.84	0.010139
2893.48	0.009749
2903.12	0.009399
2912.77	0.011889
2922.41	0.014629
2932.06	0.014729
2941.7	0.015109
2951.35	0.015589
2960.99	0.013659
2970.64	0.010489
2980.28	0.006699
2989.93	0.004149
2999.57	0.003979
3009.22	0.006329
3018.86	0.010989
3028.51	0.019779
3038.15	0.024719
3047.8	0.019879
3057.44	0.017479
3067.09	0.025529
3076.73	0.026819
3086.38	0.017919
3096.02	0.013839
3105.67	0.009689
3115.31	0.005349
3124.95	0.002259
3134.6	0.0010984
3144.24	0.0006541
3153.89	0.0006797
3163.53	0.0006464
3173.18	0.0004846
3182.82	0.0003949
3192.47	0.0004117
3202.11	0.0004076
3211.76	0.00024852
3221.4	0.0001418
3231.05	0.0004026
3240.69	0.0003078
3250.34	0.0002826
3259.98	3.8e-05
3269.63	0.0001521
3279.27	4.5e-05
3288.92	0.0003052
3298.56	0.0001039
3308.21	9.49e-05
3317.85	1.9e-05
3327.49	0.00017971
3337.14	0.0003345
3346.78	0.0002774
3356.43	0.0003018
3366.07	2.6e-05
3375.72	0.00019893
3385.36	0.00019419
3395.01	0.0001347
3404.65	0.0001219
3414.3	0.0001381
3423.94	2.8e-05
3433.59	0.0002907
3443.23	0.00021714
3452.88	0.0003521
3462.52	6.2e-05
3472.17	0.0001165
3481.81	0.00019366
3491.46	5e-05
3501.1	0.00021555
3510.75	9.19e-05
3520.39	0.00019493
3530.04	0.0003476
3539.68	0.0001399
3549.32	5.5e-05
3558.97	0.0001222
3568.61	0.0001582
3578.26	2.1e-05
3587.9	0.000171459
3597.55	0.0001849
3607.19	0.00020331
3616.84	0.00022113
3626.48	0.00024559
3636.13	0.000355
3645.77	0.0003369
3655.42	0.0003139
3665.06	0.0004761
3674.71	0.0004204
3684.35	0.0003509
3694	0.0003608
3703.64	0.0003551
3713.29	0.0003684
3722.93	9.07e-05
3732.58	6.1e-05
3742.22	0.0002805
3751.86	1.7e-05
3761.51	7e-05
3771.15	0.000169231
3780.8	0.00023804
3790.44	3.9e-05
3800.09	0.0003338
3809.73	0.0003243
3819.38	0.0002707
3829.02	0.0003094
3838.67	0.00022079
3848.31	0.00018545
3857.96	0.0002765
3867.6	0.0001025
3877.25	0.0003276
3886.89	0.000216
3896.54	0.0003907
3906.18	0.000414
3915.83	0.0001388
3925.47	0.00026122
3935.12	0.0002849
3944.76	0.0003319
3954.41	0.0002992
3964.05	0.0003324
3973.69	0.0002488
3983.34	0.0004468
3992.98	0.00026763
