Infrared Spectrum: 2,5-Dimethoxyphenyl isothiocyanate
Formula: C 9 H 9 N O 2 S
CAS: 40532-06-7
State: gas
Origin: EPA-IR VAPOR PHASE LIBRARY
1/CM	ABSORBANCE
549.8	0.010689
559.445	0.009929
569.09	0.009699
578.734	0.008619
588.379	0.008439
598.024	0.011429
607.669	0.015099
617.313	0.014069
626.958	0.010769
636.603	0.008879
646.248	0.008109
655.893	0.007449
665.537	0.007869
675.182	0.009189
684.827	0.010129
694.472	0.008909
704.116	0.008779
713.761	0.013869
723.406	0.029719
733.051	0.052809
742.695	0.050819
752.34	0.029639
761.985	0.013509
771.63	0.008439
781.275	0.009099
790.919	0.015009
800.564	0.024559
810.209	0.033409
819.854	0.049359
829.498	0.058549
839.143	0.040229
848.788	0.028209
858.433	0.025429
868.078	0.024689
877.722	0.012599
887.367	0.007099
897.012	0.007359
906.657	0.008009
916.301	0.007349
925.946	0.006129
935.591	0.005469
945.236	0.006039
954.88	0.007669
964.525	0.014169
974.17	0.031179
983.815	0.039169
993.46	0.029139
1003.1	0.030229
1012.75	0.041519
1022.39	0.056329
1032.04	0.088189
1041.68	0.121049
1051.33	0.097529
1060.97	0.042249
1070.62	0.017579
1080.26	0.010489
1089.91	0.008489
1099.55	0.007539
1109.2	0.012009
1118.84	0.018429
1128.49	0.020629
1138.13	0.018789
1147.78	0.020679
1157.42	0.039269
1167.07	0.077259
1176.71	0.075699
1186.36	0.059459
1196	0.077239
1205.64	0.090729
1215.29	0.106279
1224.93	0.161369
1234.58	0.153729
1244.22	0.085899
1253.87	0.082229
1263.51	0.113049
1273.16	0.105009
1282.8	0.083919
1292.45	0.060159
1302.09	0.046609
1311.74	0.036779
1321.38	0.024329
1331.03	0.014359
1340.67	0.009749
1350.32	0.008019
1359.96	0.007249
1369.61	0.006789
1379.25	0.006709
1388.9	0.007879
1398.54	0.011699
1408.18	0.020809
1417.83	0.030769
1427.47	0.034609
1437.12	0.042759
1446.76	0.053899
1456.41	0.051089
1466.05	0.063629
1475.7	0.065629
1485.34	0.088059
1494.99	0.198109
1504.63	0.280879
1514.28	0.146509
1523.92	0.053199
1533.57	0.029129
1543.21	0.021349
1552.86	0.018999
1562.5	0.021639
1572.15	0.031589
1581.79	0.047359
1591.44	0.063359
1601.08	0.088389
1610.73	0.090709
1620.37	0.052019
1630.01	0.024109
1639.66	0.014359
1649.3	0.010069
1658.95	0.007729
1668.59	0.006339
1678.24	0.005659
1687.88	0.005249
1697.53	0.004799
1707.17	0.004729
1716.82	0.004939
1726.46	0.005379
1736.11	0.005099
1745.75	0.004799
1755.4	0.004549
1765.04	0.004379
1774.69	0.004469
1784.33	0.004689
1793.98	0.005459
1803.62	0.006539
1813.27	0.006829
1822.91	0.006489
1832.55	0.006659
1842.2	0.007109
1851.84	0.007369
1861.49	0.007639
1871.13	0.007709
1880.78	0.007999
1890.42	0.009409
1900.07	0.011749
1909.71	0.015499
1919.36	0.020709
1929	0.028279
1938.65	0.039849
1948.29	0.056079
1957.94	0.076189
1967.58	0.100699
1977.23	0.132469
1986.87	0.171099
1996.52	0.211699
2006.16	0.260509
2015.81	0.344019
2025.45	0.471519
2035.1	0.552899
2044.74	0.492289
2054.38	0.380839
2064.03	0.304029
2073.67	0.262789
2083.32	0.266689
2092.96	0.312429
2102.61	0.344949
2112.25	0.307179
2121.9	0.219959
2131.54	0.152069
2141.19	0.119519
2150.83	0.101799
2160.48	0.083269
2170.12	0.062099
2179.77	0.045799
2189.41	0.034409
2199.06	0.026089
2208.7	0.019749
2218.35	0.014929
2227.99	0.011409
2237.64	0.009429
2247.28	0.008479
2256.92	0.007939
2266.57	0.007629
2276.21	0.006909
2285.86	0.006159
2295.5	0.005759
2305.15	0.005269
2314.79	0.004899
2324.44	0.005219
2334.08	0.005279
2343.73	0.005039
2353.37	0.004779
2363.02	0.004429
2372.66	0.004399
2382.31	0.004479
2391.95	0.004799
2401.6	0.005099
2411.24	0.005229
2420.89	0.005149
2430.53	0.005019
2440.18	0.004939
2449.82	0.004929
2459.47	0.004889
2469.11	0.004979
2478.75	0.005259
2488.4	0.005449
2498.04	0.005889
2507.69	0.006409
2517.33	0.006849
2526.98	0.006769
2536.62	0.006849
2546.27	0.006929
2555.91	0.006819
2565.56	0.006659
2575.2	0.006459
2584.85	0.006389
2594.49	0.006149
2604.14	0.005589
2613.78	0.005129
2623.43	0.004679
2633.07	0.004339
2642.72	0.004189
2652.36	0.003659
2662.01	0.003299
2671.65	0.003199
2681.29	0.003229
2690.94	0.003479
2700.58	0.003799
2710.23	0.004139
2719.87	0.004619
2729.52	0.004809
2739.16	0.004479
2748.81	0.004099
2758.45	0.003919
2768.1	0.004209
2777.74	0.004579
2787.39	0.005349
2797.03	0.006439
2806.68	0.008199
2816.32	0.010659
2825.97	0.015919
2835.61	0.029909
2845.26	0.042509
2854.9	0.030519
2864.55	0.021259
2874.19	0.018679
2883.84	0.018049
2893.48	0.019809
2903.12	0.025349
2912.77	0.033009
2922.41	0.036909
2932.06	0.042139
2941.7	0.058639
2951.35	0.063499
2960.99	0.053159
2970.64	0.036239
2980.28	0.025469
2989.93	0.024049
2999.57	0.033519
3009.22	0.049059
3018.86	0.031919
3028.51	0.015569
3038.15	0.011919
3047.8	0.010629
3057.44	0.010409
3067.09	0.010069
3076.73	0.009599
3086.38	0.009249
3096.02	0.007349
3105.67	0.005259
3115.31	0.003899
3124.95	0.003129
3134.6	0.002529
3144.24	0.002069
3153.89	0.001569
3163.53	0.001539
3173.18	0.0008805
3182.82	0.0009244
3192.47	0.0008369
3202.11	0.0008106
3211.76	0.0005127
3221.4	0.0005228
3231.05	0.0004866
3240.69	0.0004327
3250.34	0.0003208
3259.98	0.00031767
3269.63	8.2e-05
3279.27	0.0001295
3288.92	0.00025114
3298.56	0.000103
3308.21	0.0001353
3317.85	0.0001792
3327.49	0.0003984
3337.14	0.0001388
3346.78	6.2e-05
3356.43	0.0003362
3366.07	0.000152
3375.72	0.0003831
3385.36	0.00027776
3395.01	0.000109
3404.65	0.0001739
3414.3	0.0005049
3423.94	0.00029733
3433.59	0.00026983
3443.23	0.0003668
3452.88	9.5e-05
3462.52	0.00029473
3472.17	0.00023703
3481.81	0.0004006
3491.46	0.0002817
3501.1	0.0003986
3510.75	0.00030869
3520.39	0.000326
3530.04	0.0003753
3539.68	0.0004569
3549.32	0.0006797
3558.97	0.0003979
3568.61	0.0004222
3578.26	0.000145
3587.9	0.0004132
3597.55	0.0005308
3607.19	0.0004675
3616.84	0.0004298
3626.48	0.0004665
3636.13	0.0003733
3645.77	0.000394
3655.42	0.0006353
3665.06	0.0005585
3674.71	0.0006141
3684.35	0.0005315
3694	0.0005342
3703.64	0.0002625
3713.29	0.0006486
3722.93	0.0006164
3732.58	0.0005853
3742.22	0.0006356
3751.86	0.0006967
3761.51	0.0006647
3771.15	0.0006028
3780.8	0.0007248
3790.44	0.0007641
3800.09	0.0006461
3809.73	0.0009462
3819.38	0.0005538
3829.02	0.0006247
3838.67	0.0010107
3848.31	0.0010184
3857.96	0.0009994
3867.6	0.0010832
3877.25	0.001569
3886.89	0.001239
3896.54	0.001349
3906.18	0.001399
3915.83	0.001349
3925.47	0.001739
3935.12	0.001799
3944.76	0.001949
3954.41	0.002049
3964.05	0.002229
3973.69	0.002269
3983.34	0.002799
3992.98	0.002719
