Infrared Spectrum: 4-Chloro-1,8-naphthalic anhydride
Formula: C 12 H 5 Cl O 3
CAS: 4053-08-1
State: gas
Origin: EPA-IR VAPOR PHASE LIBRARY
1/CM	ABSORBANCE
549.9	0.0004489
559.547	0.0010805
569.193	0.0010393
578.84	0.0007457
588.486	0.0004295
598.133	0.0005215
607.779	0.0004685
617.426	0.00031411
627.072	0.00040615
636.719	0.00034815
646.365	0.00033196
656.012	0.00039985
665.658	0.0003652
675.305	0.0002947
684.951	0.0004943
694.598	0.0004556
704.245	0.0004451
713.891	0.0011228
723.538	0.001601
733.184	0.0009446
742.831	0.001481
752.477	0.0008764
762.124	0.0007662
771.77	0.002681
781.417	0.004131
791.063	0.001591
800.71	0.0006185
810.356	0.00040636
820.003	0.0002657
829.649	0.0004229
839.296	0.0007781
848.943	0.001981
858.589	0.002181
868.236	0.0009762
877.882	0.00037841
887.529	0.00034298
897.175	0.00041718
906.822	0.0004563
916.468	0.00041761
926.115	0.0002967
935.761	0.00036723
945.408	0.00040704
955.054	0.0005886
964.701	0.0008095
974.347	0.0008848
983.994	0.0013023
993.64	0.002251
1003.29	0.004781
1012.93	0.008961
1022.58	0.015881
1032.23	0.013431
1041.87	0.003631
1051.52	0.001931
1061.17	0.0008784
1070.81	0.0007287
1080.46	0.0007318
1090.11	0.001781
1099.75	0.001541
1109.4	0.0008038
1119.05	0.001941
1128.69	0.005801
1138.34	0.007161
1147.99	0.007141
1157.63	0.005201
1167.28	0.001751
1176.92	0.003401
1186.57	0.002011
1196.22	0.0004248
1205.86	0.0008717
1215.51	0.002141
1225.16	0.002711
1234.8	0.001058
1244.45	0.0004793
1254.1	0.0006777
1263.74	0.00036534
1273.39	0.0009952
1283.04	0.003541
1292.68	0.007431
1302.33	0.003401
1311.98	0.001721
1321.62	0.004561
1331.27	0.003241
1340.92	0.0007091
1350.56	0.0005817
1360.21	0.0005513
1369.86	0.0004351
1379.5	0.0005139
1389.15	0.0007813
1398.79	0.0012013
1408.44	0.001791
1418.09	0.0010929
1427.73	0.00040783
1437.38	0.0004849
1447.03	0.0004474
1456.67	0.0007773
1466.32	0.0007005
1475.97	0.00035118
1485.61	0.0004795
1495.26	0.0009595
1504.91	0.001701
1514.55	0.0010132
1524.2	0.0004795
1533.85	0.0004838
1543.49	0.0005781
1553.14	0.0008881
1562.79	0.001791
1572.43	0.004041
1582.08	0.003441
1591.73	0.003701
1601.37	0.002031
1611.02	0.0009809
1620.67	0.0007301
1630.31	0.0005048
1639.96	0.000325958
1649.6	0.00035011
1659.25	0.0002877
1668.9	0.00041763
1678.54	0.0005181
1688.19	0.0005696
1697.84	0.0006706
1707.48	0.0009835
1717.13	0.0011481
1726.78	0.001391
1736.42	0.002321
1746.07	0.003661
1755.72	0.009581
1765.36	0.022211
1775.01	0.012481
1784.66	0.005741
1794.3	0.015961
1803.95	0.020491
1813.6	0.004381
1823.24	0.001771
1832.89	0.0006024
1842.54	0.0004549
1852.18	0.0005451
1861.83	0.0006059
1871.47	0.0005461
1881.12	0.0004987
1890.77	0.0004756
1900.41	0.0004699
1910.06	0.0005329
1919.71	0.0005165
1929.35	0.00039268
1939	0.000207
1948.65	0.0003369
1958.29	0.000298
1967.94	0.00031267
1977.59	0.0002731
1987.23	0.0003051
1996.88	0.000182
2006.53	0.0002298
2016.17	0.000192
2025.82	0.0002371
2035.47	0.000147
2045.11	0.000109
2054.76	0.000171
2064.41	0.000171
2074.05	0.0002315
2083.7	0.0002347
2093.35	0.000172
2102.99	0.0002399
2112.64	0.0002546
2122.28	0.0002348
2131.93	0.0002859
2141.58	0.0002299
2151.22	0.0002349
2160.87	0.00035662
2170.52	0.0002995
2180.16	0.0002962
2189.81	0.000205
2199.46	0.000204
2209.1	0.0002474
2218.75	0.0002286
2228.4	0.0002491
2238.04	0.000204
2247.69	0.0002307
2257.34	0.0002216
2266.98	0.0002743
2276.63	0.0003019
2286.28	0.0002828
2295.92	0.0002793
2305.57	0.00033606
2315.22	0.0002891
2324.86	0.0002701
2334.51	0.0002722
2344.16	0.0002928
2353.8	0.00034177
2363.45	0.00036936
2373.09	0.0003689
2382.74	0.0003065
2392.39	0.0002814
2402.03	0.0002786
2411.68	0.00031224
2421.33	0.0002451
2430.97	0.0002677
2440.62	0.0002726
2450.27	0.00022
2459.91	0.0002313
2469.56	0.0002756
2479.21	0.0002296
2488.85	0.0002841
2498.5	0.000241
2508.15	0.00036429
2517.79	0.0002218
2527.44	0.0003529
2537.09	0.0002949
2546.73	0.000287
2556.38	0.00031451
2566.03	0.0002854
2575.67	0.0002538
2585.32	0.0002854
2594.96	0.00036698
2604.61	0.0002728
2614.26	0.00033904
2623.9	0.00033903
2633.55	0.00033608
2643.2	0.00034035
2652.84	0.00031126
2662.49	0.00035821
2672.14	0.0002702
2681.78	0.00034934
2691.43	0.00034592
2701.08	0.00035075
2710.72	0.00033887
2720.37	0.0002488
2730.02	0.00034348
2739.66	0.00034621
2749.31	0.0003062
2758.96	0.00038788
2768.6	0.00035684
2778.25	0.00036699
2787.9	0.0004724
2797.54	0.00040684
2807.19	0.0004651
2816.84	0.0003565
2826.48	0.0004241
2836.13	0.0004258
2845.77	0.00038439
2855.42	0.0004742
2865.07	0.00038204
2874.71	0.0003092
2884.36	0.0005326
2894.01	0.00039474
2903.65	0.00039865
2913.3	0.00031946
2922.95	0.0004994
2932.59	0.0004352
2942.24	0.0002709
2951.89	0.000515
2961.53	0.0004568
2971.18	0.0004354
2980.83	0.00038683
2990.47	0.0004577
3000.12	0.0005589
3009.77	0.0004577
3019.41	0.0006429
3029.06	0.0005195
3038.71	0.0005241
3048.35	0.00037583
3058	0.000526
3067.64	0.000516
3077.29	0.0005032
3086.94	0.0007718
3096.58	0.0006536
3106.23	0.0004137
3115.88	0.0003105
3125.52	0.000309
3135.17	0.000324682
3144.82	0.00039473
3154.46	0.0002516
3164.11	0.000321182
3173.76	0.00040692
3183.4	0.0002278
3193.05	0.0002438
3202.7	0.00036052
3212.34	0.000156
3221.99	0.0003084
3231.64	0.0002849
3241.28	0.00033465
3250.93	0
3260.58	8.1e-05
3270.22	0.000203
3279.87	0.00035102
3289.52	0.000102
3299.16	0.000199
3308.81	0.00034312
3318.45	0.000213
3328.1	0.0002996
3337.75	0.00031576
3347.39	0.0004372
3357.04	0.0003561
3366.69	0.0002566
3376.33	0.0002588
3385.98	0.0002227
3395.63	0.000320902
3405.27	0.0002531
3414.92	0.000198
3424.57	0.0002474
3434.21	0.00040878
3443.86	0.000108
3453.51	0.00031759
3463.15	0.0002548
3472.8	0.00022
3482.45	0.0002348
3492.09	0.00040522
3501.74	0.0004411
3511.39	0.0004231
3521.03	0.0006486
3530.68	0.00037759
3540.33	0.0003568
3549.97	0.0005113
3559.62	0.00034976
3569.26	0.000169
3578.91	0.00035316
3588.56	0.000297
3598.2	0.000320973
3607.85	0.0002484
3617.5	0.00037469
3627.14	0.0002848
3636.79	0.000149
3646.44	0.000122
3656.08	0.0002548
3665.73	0.0002863
3675.38	0.0002655
3685.02	0.0004374
3694.67	0.0003032
3704.32	0.0002517
3713.96	0.00035983
3723.61	0.00034115
3733.26	0.0002607
3742.9	0.0002227
3752.55	0.00038581
3762.2	0.0002907
3771.84	0.0002304
3781.49	0.000255
3791.13	0.0002227
3800.78	0.0002724
3810.43	0.000330027
3820.07	0.0002218
3829.72	0.0002614
3839.37	0.000326157
3849.01	0.0002855
3858.66	0.0004527
3868.31	0.0004494
3877.95	0.0002765
3887.6	0.0002801
3897.25	0.0003358
3906.89	0.00040169
3916.54	0.000309
3926.19	0.000328187
3935.83	0.000191
3945.48	0.0003032
3955.13	0.0002623
3964.77	0.0002735
3974.42	0.0002745
3984.07	0.0002566
3993.71	0.0003436
