Infrared Spectrum: 1,3-cyclopentanedicarboxylic acid
Formula: C7 H10 O4
CAS: 4056-78-4
State: SOLID (1 mg / 650 mg KBr DISC)
Class: COBLENTZ III
Instrument: PERKIN-ELMER 21 (GRATING)
Instrument parameters: FILTER CHANGE ABOUT 980 CM^-^1
Sampling: TRANSMISSION
Resolution: 2
Origin: SOUTHERN RESEARCH INSTITUTE
1/CM	TRANSMITTANCE
597.384	0.6473
606.415	0.6431
615.445	0.6373
624.476	0.6309
633.507	0.6224
642.538	0.6062
651.568	0.5868
660.599	0.5823
669.63	0.6027
678.661	0.6097
687.691	0.6004
696.722	0.5797
705.753	0.5855
714.784	0.662
723.814	0.6838
732.845	0.6742
741.876	0.6699
750.907	0.7087
759.937	0.705
768.968	0.699
777.999	0.6935
787.03	0.6897
796.06	0.6899
805.091	0.6913
814.122	0.6934
823.152	0.6912
832.183	0.6835
841.214	0.6716
850.245	0.6566
859.275	0.6412
868.306	0.6285
877.337	0.6177
886.368	0.5948
895.398	0.5616
904.429	0.5177
913.46	0.4604
922.491	0.4084
931.521	0.3507
940.552	0.3387
949.583	0.3485
958.614	0.4134
967.644	0.4893
976.675	0.5667
985.706	0.6349
994.737	0.6808
1003.77	0.7006
1012.8	0.7149
1021.83	0.7089
1030.86	0.7156
1039.89	0.7228
1048.92	0.7138
1057.95	0.702
1066.98	0.6823
1076.01	0.6803
1085.04	0.6371
1094.07	0.6365
1103.11	0.7256
1112.14	0.7266
1121.17	0.7129
1130.2	0.684
1139.23	0.6549
1148.26	0.6212
1157.29	0.5777
1166.32	0.5094
1175.35	0.4374
1184.38	0.494
1193.41	0.5462
1202.44	0.5133
1211.47	0.3605
1220.51	0.2998
1229.54	0.4355
1238.57	0.4375
1247.6	0.3399
1256.63	0.32
1265.66	0.3208
1274.69	0.2926
1283.72	0.3125
1292.75	0.2888
1301.78	0.3564
1310.81	0.36
1319.84	0.5149
1328.87	0.6441
1337.9	0.6163
1346.94	0.5715
1355.97	0.6036
1365	0.6734
1374.03	0.672
1383.06	0.6587
1392.09	0.6209
1401.12	0.5511
1410.15	0.4395
1419.18	0.3398
1428.21	0.4066
1437.24	0.4415
1446.27	0.5531
1455.3	0.5692
1464.33	0.616
1473.37	0.6698
1482.4	0.6608
1491.43	0.7683
1500.46	0.7807
1509.49	0.786
1518.52	0.7883
1527.55	0.7879
1536.58	0.7822
1545.61	0.7809
1554.64	0.7702
1563.67	0.7624
1572.7	0.7501
1581.73	0.733
1590.77	0.7068
1599.8	0.6677
1608.83	0.6358
1617.86	0.5847
1626.89	0.535
1635.92	0.4889
1644.95	0.4245
1653.98	0.3432
1663.01	0.2863
1672.04	0.141
1681.07	0.0591
1690.1	0.0656
1699.13	0.081
1708.16	0.1046
1717.2	0.2096
1726.23	0.3279
1735.26	0.4199
1744.29	0.4961
1753.32	0.5626
1762.35	0.5876
1771.38	0.609
1780.41	0.6219
1789.44	0.6316
1798.47	0.6413
1807.5	0.6498
1816.53	0.6585
1825.56	0.6679
1834.6	0.6779
1843.63	0.6881
1852.66	0.6999
1861.69	0.7094
1870.72	0.7157
1879.75	0.7209
1888.78	0.7259
1897.81	0.729
1906.84	0.7302
1915.87	0.7364
1924.9	0.7424
1933.93	0.7454
1942.96	0.7481
1951.99	0.7524
1961.03	0.756
1970.06	0.7594
1979.09	0.7629
1988.12	0.7672
1997.15	0.7726
2006.18	0.7773
2015.21	0.7815
2024.24	0.7822
2033.27	0.7839
2042.3	0.7863
2051.33	0.7893
2060.36	0.7916
2069.39	0.7913
2078.43	0.7905
2087.46	0.7901
2096.49	0.7896
2105.52	0.7888
2114.55	0.7881
2123.58	0.7875
2132.61	0.7869
2141.64	0.7861
2150.67	0.7855
2159.7	0.7842
2168.73	0.7826
2177.76	0.7804
2186.79	0.7784
2195.82	0.7768
2204.86	0.7712
2213.89	0.7688
2222.92	0.7686
2231.95	0.7666
2240.98	0.7649
2250.01	0.7634
2259.04	0.7602
2268.07	0.7542
2277.1	0.7454
2286.13	0.7334
2295.16	0.7164
2304.19	0.7018
2313.22	0.6947
2322.26	0.6934
2331.29	0.693
2340.32	0.6929
2349.35	0.6923
2358.38	0.6914
2367.41	0.6888
2376.44	0.6839
2385.47	0.6761
2394.5	0.6644
2403.53	0.6537
2412.56	0.643
2421.59	0.6317
2430.62	0.6188
2439.65	0.6068
2448.69	0.5951
2457.72	0.5842
2466.75	0.5746
2475.78	0.5636
2484.81	0.552
2493.84	0.5343
2502.87	0.5111
2511.9	0.4972
2520.93	0.4881
2529.96	0.4805
2538.99	0.4732
2548.02	0.4689
2557.05	0.4662
2566.09	0.4628
2575.12	0.4596
2584.15	0.4599
2593.18	0.4588
2602.21	0.4578
2611.24	0.4575
2620.27	0.4587
2629.3	0.4595
2638.33	0.4612
2647.36	0.4641
2656.39	0.4651
2665.42	0.466
2674.45	0.4668
2683.48	0.467
2692.52	0.4664
2701.55	0.4651
2710.58	0.4604
2719.61	0.4565
2728.64	0.454
2737.67	0.4531
2746.7	0.4533
2755.73	0.4529
2764.76	0.4538
2773.79	0.4497
2782.82	0.4439
2791.85	0.4341
2800.88	0.4133
2809.92	0.3865
2818.95	0.361
2827.98	0.3478
2837.01	0.3367
2846.04	0.3308
2855.07	0.3263
2864.1	0.3213
2873.13	0.3172
2882.16	0.3143
2891.19	0.3119
2900.22	0.311
2909.25	0.3108
2918.28	0.311
2927.31	0.3107
2936.35	0.3053
2945.38	0.3046
2954.41	0.305
2963.44	0.3066
2972.47	0.3092
2981.5	0.3123
2990.53	0.3144
2999.56	0.3151
3008.59	0.3157
3017.62	0.315
3026.65	0.3168
3035.68	0.3212
3044.71	0.3229
3053.75	0.3241
3062.78	0.3253
3071.81	0.327
3080.84	0.3292
3089.87	0.3305
3098.9	0.3323
3107.93	0.3361
3116.96	0.3451
3125.99	0.3613
3135.02	0.3777
3144.05	0.4042
3153.08	0.4168
3162.11	0.4281
3171.14	0.4364
3180.18	0.4435
3189.21	0.4495
3198.24	0.4547
3207.27	0.4591
3216.3	0.4644
3225.33	0.4804
3234.36	0.4907
3243.39	0.4994
3252.42	0.5199
3261.45	0.5327
3270.48	0.5402
3279.51	0.5454
3288.54	0.5478
3297.58	0.5483
3306.61	0.5485
3315.64	0.5478
3324.67	0.5467
3333.7	0.5453
3342.73	0.5433
3351.76	0.5408
3360.79	0.5374
3369.82	0.5347
3378.85	0.5328
3387.88	0.5311
3396.91	0.53
3405.94	0.5299
3414.97	0.5324
3424.01	0.5357
3433.04	0.5406
3442.07	0.5468
3451.1	0.5539
3460.13	0.5619
3469.16	0.5705
3478.19	0.5795
3487.22	0.5894
3496.25	0.6001
3505.28	0.6113
3514.31	0.6244
3523.34	0.6371
3532.37	0.6491
3541.4	0.6587
3550.44	0.6661
3559.47	0.6751
3568.5	0.6917
3577.53	0.7112
3586.56	0.7305
3595.59	0.7412
3604.62	0.7561
3613.65	0.7732
3622.68	0.786
3631.71	0.7954
3640.74	0.8025
3649.77	0.8084
3658.8	0.8138
3667.84	0.8178
3676.87	0.8209
3685.9	0.8236
3694.93	0.8267
3703.96	0.8299
3712.99	0.8314
3722.02	0.8319
3731.05	0.8321
3740.08	0.8319
3749.11	0.8318
3758.14	0.8316
3767.17	0.8314
3776.2	0.8312
3785.23	0.8312
3794.27	0.8314
3803.3	0.8316
3812.33	0.8317
3821.36	0.8321
3830.39	0.8338
3839.42	0.8329
3848.45	0.8333
3857.48	0.8337
3866.51	0.8342
3875.54	0.8345
3884.57	0.8349
3893.6	0.8355
3902.63	0.8362
3911.67	0.8369
3920.7	0.8374
3929.73	0.8377
3938.76	0.8379
3947.79	0.8372
3956.82	0.8365
3965.85	0.8369
3974.88	0.8376
3983.91	0.8365
3992.94	0.8315
4001.97	0.823
