Infrared Spectrum: 2,6-DIMETHYL 2-OCTENE
Formula: C10 H20
CAS: 4057-42-5
Class: COBLENTZ
Instrument: Not specified, most likely a prism, grating, or hybrid spectrometer.
Sampling: TRANSMISSION
Resolution: 4
Origin: INTERNATIONAL FLAVORS & FRAGRANCES, INC.
MICROMETERS	TRANSMITTANCE
2.004	0.964
2.03657	0.961
2.06914	0.96
2.10171	0.96
2.13429	0.961
2.16686	0.961
2.19943	0.96
2.232	0.96
2.26457	0.945
2.29714	0.896
2.32971	0.875
2.36228	0.888
2.39486	0.906
2.42743	0.915
2.46	0.916
2.49257	0.927
2.52514	0.938
2.55771	0.942
2.59028	0.944
2.62285	0.945
2.65543	0.949
2.688	0.951
2.72057	0.953
2.75314	0.957
2.78571	0.958
2.81828	0.958
2.85085	0.957
2.88342	0.955
2.916	0.95
2.94857	0.945
2.98114	0.943
3.01371	0.944
3.04628	0.944
3.07885	0.943
3.11142	0.931
3.14399	0.911
3.17657	0.892
3.20914	0.873
3.24171	0.829
3.27428	0.731
3.30685	0.585
3.33942	0.295
3.37199	0.113
3.40456	0.109
3.43714	0.115
3.46971	0.121
3.50228	0.28
3.53485	0.574
3.56742	0.705
3.59999	0.802
3.63256	0.825
3.66513	0.777
3.69771	0.839
3.73028	0.876
3.76285	0.893
3.79542	0.9
3.82799	0.905
3.86056	0.908
3.89313	0.913
3.9257	0.925
3.95828	0.935
3.99085	0.943
4.02342	0.945
4.05599	0.944
4.08856	0.944
4.12113	0.943
4.1537	0.942
4.18627	0.941
4.21885	0.938
4.25142	0.933
4.28399	0.933
4.31656	0.937
4.34913	0.944
4.3817	0.953
4.41427	0.956
4.44684	0.959
4.47942	0.959
4.51199	0.959
4.54456	0.958
4.57713	0.958
4.6097	0.959
4.64227	0.959
4.67484	0.959
4.70742	0.959
4.73999	0.959
4.77256	0.959
4.80513	0.96
4.8377	0.961
4.87027	0.961
4.90284	0.961
4.93541	0.963
4.96799	0.964
5.00056	0.964
5.03313	0.964
5.0657	0.963
5.09827	0.961
5.13084	0.961
5.16341	0.963
5.19598	0.963
5.22856	0.963
5.26113	0.963
5.2937	0.964
5.32627	0.963
5.35884	0.963
5.39141	0.961
5.42398	0.96
5.45655	0.959
5.48913	0.959
5.5217	0.958
5.55427	0.956
5.58684	0.952
5.61941	0.949
5.65198	0.948
5.68455	0.944
5.71712	0.941
5.7497	0.941
5.78227	0.938
5.81484	0.934
5.84741	0.927
5.87998	0.913
5.91255	0.898
5.94512	0.853
5.97769	0.828
6.01027	0.866
6.04284	0.885
6.07541	0.893
6.10798	0.903
6.14055	0.907
6.17312	0.912
6.20569	0.914
6.23826	0.914
6.27084	0.912
6.30341	0.908
6.33598	0.906
6.36855	0.903
6.40112	0.897
6.43369	0.891
6.46626	0.885
6.49883	0.88
6.53141	0.874
6.56398	0.867
6.59655	0.854
6.62912	0.839
6.66169	0.82
6.69426	0.792
6.72683	0.737
6.7594	0.623
6.79198	0.31
6.82455	0.191
6.85712	0.176
6.88969	0.214
6.92226	0.271
6.95483	0.334
6.9874	0.502
7.01997	0.619
7.05255	0.682
7.08512	0.707
7.11769	0.72
7.15026	0.716
7.18283	0.648
7.2154	0.371
7.24797	0.239
7.28054	0.448
7.31312	0.587
7.34569	0.66
7.37826	0.681
7.41083	0.682
7.4434	0.727
7.47597	0.764
7.50854	0.797
7.54112	0.815
7.57369	0.824
7.60626	0.828
7.63883	0.823
7.6714	0.826
7.70397	0.838
7.73654	0.845
7.76911	0.852
7.80169	0.859
7.83426	0.861
7.86683	0.853
7.8994	0.853
7.93197	0.86
7.96454	0.866
7.99711	0.866
8.02968	0.86
8.06226	0.858
8.09483	0.856
8.1274	0.847
8.15997	0.84
8.19254	0.84
8.22511	0.848
8.25768	0.863
8.29025	0.878
8.32283	0.883
8.3554	0.883
8.38797	0.88
8.42054	0.853
8.45311	0.829
8.48568	0.838
8.51825	0.855
8.55082	0.866
8.5834	0.863
8.61597	0.837
8.64854	0.79
8.68111	0.791
8.71368	0.828
8.74625	0.858
8.77882	0.866
8.81139	0.863
8.84397	0.822
8.87654	0.761
8.90911	0.704
8.94168	0.696
8.97425	0.698
9.00682	0.717
9.03939	0.746
9.07196	0.763
9.10454	0.749
9.13711	0.704
9.16968	0.666
9.20225	0.681
9.23482	0.768
9.26739	0.807
9.29996	0.829
9.33253	0.85
9.36511	0.865
9.39768	0.874
9.43025	0.88
9.46282	0.883
9.49539	0.885
9.52796	0.885
9.56053	0.877
9.5931	0.868
9.62568	0.858
9.65825	0.847
9.69082	0.84
9.72339	0.836
9.75596	0.835
9.78853	0.831
9.8211	0.824
9.85367	0.817
9.88625	0.81
9.91882	0.807
9.95139	0.807
9.98396	0.811
10.0165	0.815
10.0491	0.807
10.0817	0.784
10.1142	0.743
10.1468	0.692
10.1794	0.688
10.212	0.705
10.2445	0.722
10.2771	0.739
10.3097	0.739
10.3422	0.733
10.3748	0.754
10.4074	0.776
10.44	0.799
10.4725	0.825
10.5051	0.844
10.5377	0.852
10.5702	0.858
10.6028	0.859
10.6354	0.856
10.668	0.856
10.7005	0.859
10.7331	0.863
10.7657	0.869
10.7982	0.878
10.8308	0.884
10.8634	0.888
10.896	0.883
10.9285	0.876
10.9611	0.875
10.9937	0.877
11.0262	0.884
11.0588	0.896
11.0914	0.905
11.124	0.907
11.1565	0.908
11.1891	0.908
11.2217	0.899
11.2542	0.88
11.2868	0.865
11.3194	0.861
11.352	0.869
11.3845	0.873
11.4171	0.876
11.4497	0.88
11.4822	0.882
11.5148	0.881
11.5474	0.881
11.58	0.877
11.6125	0.875
11.6451	0.878
11.6777	0.88
11.7102	0.877
11.7428	0.871
11.7754	0.86
11.808	0.839
11.8405	0.803
11.8731	0.762
11.9057	0.687
11.9382	0.611
11.9708	0.575
12.0034	0.568
12.0359	0.574
12.0685	0.587
12.1011	0.604
12.1337	0.625
12.1662	0.648
12.1988	0.688
12.2314	0.712
12.2639	0.738
12.2965	0.764
12.3291	0.79
12.3617	0.801
12.3942	0.809
12.4268	0.814
12.4594	0.816
12.4919	0.818
12.5245	0.82
12.5571	0.821
12.5897	0.822
12.6222	0.825
12.6548	0.832
12.6874	0.837
12.7199	0.84
12.7525	0.84
12.7851	0.838
12.8177	0.833
12.8502	0.822
12.8828	0.811
12.9154	0.795
12.9479	0.785
12.9805	0.776
13.0131	0.783
13.0457	0.798
13.0782	0.818
13.1108	0.84
13.1434	0.863
13.1759	0.88
13.2085	0.89
13.2411	0.896
13.2737	0.898
13.3062	0.893
13.3388	0.884
13.3714	0.877
13.4039	0.869
13.4365	0.861
13.4691	0.853
13.5017	0.846
13.5342	0.838
13.5668	0.835
13.5994	0.832
13.6319	0.837
13.6645	0.847
13.6971	0.861
13.7297	0.876
13.7622	0.893
13.7948	0.906
13.8274	0.915
13.8599	0.926
13.8925	0.935
13.9251	0.943
13.9577	0.949
13.9902	0.955
14.0228	0.957
14.0554	0.959
14.0879	0.963
14.1205	0.964
14.1531	0.965
14.1857	0.966
14.2182	0.97
14.2508	0.971
14.2834	0.972
14.3159	0.972
14.3485	0.974
14.3811	0.976
14.4137	0.979
14.4462	0.982
14.4788	0.981
14.5114	0.983
14.5439	0.986
14.5765	0.987
14.6091	0.988
14.6417	0.989
14.6742	0.991
14.7068	0.991
14.7394	0.995
14.7719	0.996
14.8045	0.997
14.8371	0.998
14.8696	0.998
14.9022	0.997
14.9348	0.995
14.9674	0.993
14.9999	0.991
