Infrared Spectrum: 1-Octen-4-ol
Formula: C 8 H 16 O
CAS: 40575-42-6
State: gas
Instrument: HP-GC/MS/IRD
Origin: NIST Mass Spectrometry Data Center
1/CM	ABSORBANCE
550	0.0002184
562	9.36e-05
574	8.84e-05
586	0.0001664
598	7.41e-05
610	0.0002626
622	0.0003796
634	0.0004264
646	0.0003731
658	0.0002964
670	0.0002223
682	0.0002106
694	0.0002366
706	0.0001755
718	0.0001859
730	0.0002639
742	0.0003029
754	0.0001859
766	0.0002106
778	0.000182
790	0.000299
802	0.0002548
814	0.0002938
826	0.0002717
838	0.0005499
850	0.0007306
862	0.0008138
874	0.0008255
886	0.0010153
898	0.0014599
910	0.002717
922	0.0030706
934	0.0016783
946	0.0010348
958	0.0010348
970	0.0013988
982	0.0021424
994	0.0030134
1006	0.0032344
1018	0.0035269
1030	0.0036283
1042	0.002847
1054	0.0021281
1066	0.0018564
1078	0.0016887
1090	0.0015002
1102	0.0013494
1114	0.0014755
1126	0.0014885
1138	0.0012038
1150	0.000936
1162	0.0007839
1174	0.0008229
1186	0.0010179
1198	0.0012025
1210	0.0012688
1222	0.0013039
1234	0.0013312
1246	0.0014001
1258	0.0014495
1270	0.0014144
1282	0.0012675
1294	0.0011271
1306	0.0009984
1318	0.0009451
1330	0.0009646
1342	0.0012298
1354	0.0015041
1366	0.0017121
1378	0.0019149
1390	0.0018434
1402	0.0013728
1414	0.0011245
1426	0.0011947
1438	0.0015392
1450	0.0015457
1462	0.0014209
1474	0.0010283
1486	0.0005538
1498	0.0003185
1510	0.0002197
1522	0.0002015
1534	0.0001729
1546	0.0001508
1558	0.0001248
1570	0.0001235
1582	0.0001196
1594	0.0001443
1606	0.0001924
1618	0.000325
1630	0.0007839
1642	0.0011414
1654	0.0005161
1666	0.0001703
1678	0.0001027
1690	8.45e-05
1702	4.81e-05
1714	4.68e-05
1726	2.47e-05
1738	2.34e-05
1750	4.16e-05
1762	3.51e-05
1774	3.38e-05
1786	2.21e-05
1798	5.98e-05
1810	7.02e-05
1822	0.0001768
1834	0.0003107
1846	0.0002678
1858	0.0001391
1870	7.02e-05
1882	5.98e-05
1894	6.11e-05
1906	5.2e-05
1918	3.64e-05
1930	3.51e-05
1942	2.47e-05
1954	2.6e-05
1966	5.07e-05
1978	4.16e-05
1990	4.55e-05
2002	3.77e-05
2014	4.81e-05
2026	2.73e-05
2038	2.86e-05
2050	2.99e-05
2062	2.08e-05
2074	2.73e-05
2086	4.55e-05
2098	4.55e-05
2110	2.6e-05
2122	4.42e-05
2134	3.64e-05
2146	3.77e-05
2158	5.2e-05
2170	5.46e-05
2182	4.03e-05
2194	3.38e-05
2206	1.82e-05
2218	5.07e-05
2230	3.51e-05
2242	4.16e-05
2254	4.68e-05
2266	5.72e-05
2278	6.37e-05
2290	5.98e-05
2302	4.16e-05
2314	6.76e-05
2326	6.37e-05
2338	8.06e-05
2350	6.76e-05
2362	8.19e-05
2374	6.76e-05
2386	6.63e-05
2398	5.2e-05
2410	6.24e-05
2422	4.55e-05
2434	4.55e-05
2446	4.55e-05
2458	5.46e-05
2470	6.63e-05
2482	7.15e-05
2494	6.24e-05
2506	5.33e-05
2518	7.41e-05
2530	8.32e-05
2542	7.67e-05
2554	0.0001053
2566	8.71e-05
2578	0.0001053
2590	0.0001209
2602	0.0001235
2614	0.0001391
2626	0.0001625
2638	0.0001911
2650	0.0002028
2662	0.0002379
2674	0.000234
2686	0.0002639
2698	0.0002769
2710	0.0002483
2722	0.0002808
2734	0.0003198
2746	0.0003458
2758	0.0003549
2770	0.0003874
2782	0.0004264
2794	0.0005174
2806	0.000663
2818	0.0008645
2830	0.0012701
2842	0.0020241
2854	0.0033527
2866	0.0050934
2878	0.0060827
2890	0.005629
2902	0.0057629
2914	0.007969
2926	0.0111592
2938	0.013
2950	0.0104806
2962	0.0090259
2974	0.0077805
2986	0.0041509
2998	0.0025441
3010	0.0019019
3022	0.0013442
3034	0.0009243
3046	0.0008177
3058	0.0008983
3070	0.0012363
3082	0.0020436
3094	0.0016237
3106	0.0005889
3118	0.0003263
3130	0.0002496
3142	0.0002041
3154	0.0001846
3166	0.0001807
3178	0.0001495
3190	0.0001638
3202	0.0001144
3214	9.62e-05
3226	9.1e-05
3238	6.24e-05
3250	2.99e-05
3262	7.28e-05
3274	2.73e-05
3286	7.02e-05
3298	5.72e-05
3310	2.73e-05
3322	3.38e-05
3334	6.5e-05
3346	5.2e-05
3358	6.37e-05
3370	5.98e-05
3382	6.63e-05
3394	7.02e-05
3406	7.28e-05
3418	8.97e-05
3430	0.0001274
3442	5.72e-05
3454	5.72e-05
3466	8.58e-05
3478	9.1e-05
3490	6.63e-05
3502	7.8e-05
3514	4.94e-05
3526	4.55e-05
3538	1.43e-05
3550	3.25e-05
3562	6.89e-05
3574	9.23e-05
3586	0.0001326
3598	0.0002093
3610	0.0004186
3622	0.0007111
3634	0.0007358
3646	0.0008905
3658	0.0007891
3670	0.0004329
3682	0.0001768
3694	9.36e-05
3706	9.36e-05
3718	6.24e-05
3730	5.33e-05
3742	5.07e-05
3754	6.24e-05
3766	5.85e-05
3778	5.46e-05
3790	6.24e-05
3802	4.29e-05
3814	5.59e-05
3826	9.1e-05
3838	2.99e-05
