Infrared Spectrum: 2-Methyl-4-octanol
Formula: C 9 H 20 O
CAS: 40575-41-5
State: gas
Instrument: HP-GC/MS/IRD
Origin: NIST Mass Spectrometry Data Center
1/CM	ABSORBANCE
550	0.000186
562	0.0002976
574	0.0002728
586	0.0002697
598	0.0002635
610	0.0001302
622	0.0001891
634	8.99e-05
646	8.99e-05
658	5.27e-05
670	9.92e-05
682	0.0001364
694	0.0001085
706	0.0001953
718	0.0002418
730	0.0002573
742	0.0003658
754	0.0003069
766	0.0002821
778	0.0003689
790	0.0003937
802	0.000434
814	0.0005301
826	0.0007564
838	0.0009207
850	0.0007967
862	0.0006355
874	0.0006138
886	0.0007192
898	0.0009393
910	0.0009486
922	0.000992
934	0.0009703
946	0.0011625
958	0.0014105
970	0.0016957
982	0.0020491
994	0.0024614
1006	0.0032922
1018	0.0042439
1030	0.0042005
1042	0.0033139
1054	0.0024676
1066	0.0020646
1078	0.0020429
1090	0.0020646
1102	0.0021948
1114	0.0023808
1126	0.0027404
1138	0.003007
1150	0.0024893
1162	0.0021173
1174	0.0018786
1186	0.001581
1198	0.0018879
1210	0.0020367
1222	0.0020367
1234	0.0019313
1246	0.0020119
1258	0.0020739
1270	0.0020832
1282	0.0019003
1294	0.0016957
1306	0.0015407
1318	0.0015004
1330	0.0017112
1342	0.0020894
1354	0.0026598
1366	0.0038254
1378	0.0045415
1390	0.0039432
1402	0.0023808
1414	0.0015438
1426	0.0014756
1438	0.001984
1450	0.0027776
1462	0.003813
1474	0.0033821
1486	0.0016957
1498	0.0008153
1510	0.0004836
1522	0.000341
1534	0.0002635
1546	0.000217
1558	0.0001643
1570	0.0001426
1582	0.0001581
1594	0.0001364
1606	0.0001116
1618	9.92e-05
1630	0.0001116
1642	8.99e-05
1654	7.13e-05
1666	7.13e-05
1678	7.13e-05
1690	8.06e-05
1702	4.34e-05
1714	4.65e-05
1726	6.51e-05
1738	3.72e-05
1750	3.72e-05
1762	2.17e-05
1774	2.79e-05
1786	3.1e-05
1798	9.3e-06
1810	3.72e-05
1822	3.1e-05
1834	1.86e-05
1846	2.17e-05
1858	4.03e-05
1870	9.3e-06
1882	4.03e-05
1894	4.03e-05
1906	1.55e-05
1918	1.55e-05
1930	0
1942	1.24e-05
1954	1.86e-05
1966	1.24e-05
1978	3.1e-06
1990	3.1e-06
2002	6.2e-06
2014	2.79e-05
2026	1.86e-05
2038	4.96e-05
2050	3.72e-05
2062	2.17e-05
2074	3.1e-05
2086	2.48e-05
2098	9.3e-06
2110	1.86e-05
2122	3.1e-05
2134	3.41e-05
2146	4.34e-05
2158	4.65e-05
2170	7.75e-05
2182	6.51e-05
2194	6.82e-05
2206	5.58e-05
2218	4.65e-05
2230	5.58e-05
2242	7.44e-05
2254	5.58e-05
2266	5.89e-05
2278	7.44e-05
2290	8.68e-05
2302	6.82e-05
2314	4.03e-05
2326	4.96e-05
2338	5.58e-05
2350	9.61e-05
2362	6.2e-05
2374	9.3e-05
2386	0.000124
2398	0.0001302
2410	0.0001023
2422	9.3e-05
2434	0.0001023
2446	8.68e-05
2458	0.0001116
2470	8.99e-05
2482	9.92e-05
2494	0.0001023
2506	9.92e-05
2518	0.0001178
2530	0.0001209
2542	0.0001519
2554	0.000155
2566	0.0001953
2578	0.0002294
2590	0.0002542
2602	0.0002945
2614	0.0002976
2626	0.0003224
2638	0.0003565
2650	0.0003906
2662	0.0004092
2674	0.0004371
2686	0.0004495
2698	0.000465
2710	0.000527
2722	0.0006293
2734	0.0007502
2746	0.0007347
2758	0.0007502
2770	0.0008184
2782	0.0009145
2794	0.0011315
2806	0.0013826
2818	0.0018011
2830	0.0025885
2842	0.0040641
2854	0.0064914
2866	0.0102052
2878	0.0139066
2890	0.0135253
2902	0.0140306
2914	0.0188139
2926	0.0251069
2938	0.0279434
2950	0.0250232
2962	0.030597
2974	0.0228842
2986	0.0081065
2998	0.0037975
3010	0.0023188
3022	0.0015996
3034	0.0012059
3046	0.0009331
3058	0.000775
3070	0.0006944
3082	0.0006324
3094	0.0005766
3106	0.0005177
3118	0.0004526
3130	0.0004247
3142	0.0003844
3154	0.0003658
3166	0.0003534
3178	0.0003596
3190	0.0003348
3202	0.0002573
3214	0.0002139
3226	0.0001767
3238	0.000124
3250	9.92e-05
3262	9.3e-05
3274	5.58e-05
3286	4.34e-05
3298	5.89e-05
3310	8.06e-05
3322	5.58e-05
3334	9.3e-05
3346	6.2e-05
3358	7.13e-05
3370	6.51e-05
3382	0.0001054
3394	0.0001116
3406	9.3e-05
3418	0.0001085
3430	0.0001209
3442	8.99e-05
3454	0.0001085
3466	8.37e-05
3478	8.68e-05
3490	9.61e-05
3502	5.89e-05
3514	4.96e-05
3526	5.89e-05
3538	5.58e-05
3550	4.34e-05
3562	3.72e-05
3574	4.03e-05
3586	5.27e-05
3598	0.0001147
3610	0.000186
3622	0.0003813
3634	0.000682
3646	0.0012555
3658	0.0013733
3670	0.0006696
3682	0.0002852
3694	0.0001891
3706	0.0001364
3718	8.99e-05
3730	8.37e-05
3742	5.58e-05
3754	8.37e-05
3766	7.75e-05
3778	9.61e-05
3790	8.99e-05
3802	0.0001395
3814	0.0001209
3826	0.0001023
3838	0.0001209
