Infrared Spectrum: (2,4,5-TRICHLOROPHENOXY)ACETIC ACID, MONOBUTYLENE GLYCOL ESTER
Formula: C12 H13 Cl3 O4
CAS: 40583-17-3
State: SOLUTION (10% CCl4 FOR 5000-1330, 10% CS2 FOR 1330-625 CM^-^1)
Class: COBLENTZ
Instrument: Not specified, most likely a prism, grating, or hybrid spectrometer.
Sampling: TRANSMISSION
Path length: 0.0123 CM, 0.0121 CM
Resolution: 4
Origin: DOW CHEMICAL COMPANY
MICROMETERS	TRANSMITTANCE
2.034	0.919
2.06825	0.919
2.10249	0.921
2.13674	0.921
2.17099	0.925
2.20524	0.919
2.23948	0.911
2.27373	0.908
2.30798	0.918
2.34223	0.916
2.37647	0.913
2.41072	0.919
2.44497	0.919
2.47922	0.916
2.51346	0.916
2.54771	0.921
2.58196	0.921
2.61621	0.908
2.65045	0.918
2.6847	0.904
2.71895	0.875
2.7532	0.798
2.78744	0.737
2.82169	0.693
2.85594	0.678
2.89019	0.678
2.92443	0.701
2.95868	0.737
2.99293	0.766
3.02718	0.797
3.06142	0.821
3.09567	0.836
3.12992	0.848
3.16417	0.851
3.19841	0.829
3.23266	0.831
3.26691	0.843
3.30116	0.802
3.3354	0.608
3.36965	0.471
3.4039	0.582
3.43815	0.66
3.47239	0.746
3.50664	0.826
3.54089	0.846
3.57514	0.87
3.60938	0.872
3.64363	0.873
3.67788	0.877
3.71213	0.884
3.74637	0.882
3.78062	0.882
3.81487	0.882
3.84912	0.887
3.88336	0.887
3.91761	0.882
3.95186	0.885
3.98611	0.887
4.02035	0.889
4.0546	0.89
4.08885	0.89
4.1231	0.882
4.15734	0.882
4.19159	0.887
4.22584	0.88
4.26009	0.875
4.29433	0.875
4.32858	0.873
4.36283	0.879
4.39708	0.887
4.43132	0.894
4.46557	0.896
4.49982	0.892
4.53407	0.89
4.56831	0.892
4.60256	0.89
4.63681	0.884
4.67106	0.889
4.7053	0.89
4.73955	0.894
4.7738	0.896
4.80805	0.899
4.84229	0.899
4.87654	0.896
4.91079	0.894
4.94504	0.89
4.97928	0.885
5.01353	0.885
5.04778	0.89
5.08203	0.892
5.11627	0.899
5.15052	0.897
5.18477	0.894
5.21902	0.89
5.25326	0.885
5.28751	0.884
5.32176	0.88
5.35601	0.873
5.39025	0.873
5.4245	0.863
5.45875	0.85
5.493	0.829
5.52724	0.795
5.56149	0.698
5.59574	0.466
5.62999	0.221
5.66423	0.12
5.69848	0.166
5.73273	0.243
5.76698	0.499
5.80122	0.625
5.83547	0.734
5.86972	0.788
5.90397	0.824
5.93821	0.833
5.97246	0.838
6.00671	0.841
6.04096	0.841
6.0752	0.839
6.10945	0.829
6.1437	0.81
6.17795	0.759
6.21219	0.686
6.24644	0.514
6.28069	0.361
6.31494	0.441
6.34918	0.499
6.38343	0.487
6.41768	0.448
6.45193	0.436
6.48617	0.494
6.52042	0.546
6.55467	0.568
6.58892	0.579
6.62316	0.557
6.65741	0.495
6.69166	0.349
6.72591	0.112
6.76015	0.074
6.7944	0.129
6.82865	0.16
6.8629	0.277
6.89714	0.315
6.93139	0.424
6.96564	0.582
6.99989	0.625
7.03413	0.64
7.06838	0.616
7.10263	0.577
7.13688	0.536
7.17112	0.468
7.20537	0.425
7.23962	0.448
7.27387	0.466
7.30811	0.431
7.34236	0.32
7.37661	0.337
7.41086	0.42
7.4451	0.519
7.47935	0.621
7.5136	0.635
7.54785	0.592
7.58209	0.54
7.61634	0.456
7.65059	0.376
7.68484	0.296
7.71908	0.265
7.75333	0.281
7.78758	0.301
7.82182	0.321
7.85607	0.337
7.89032	0.313
7.92457	0.257
7.95881	0.248
7.99306	0.258
8.02731	0.243
8.06156	0.226
8.0958	0.233
8.13005	0.241
8.1643	0.218
8.19855	0.168
8.23279	0.117
8.26704	0.074
8.30129	0.059
8.33554	0.059
8.36978	0.09
8.40403	0.155
8.43828	0.248
8.47253	0.35
8.50677	0.466
8.54102	0.531
8.57527	0.565
8.60952	0.57
8.64376	0.546
8.67801	0.475
8.71226	0.366
8.74651	0.212
8.78075	0.153
8.815	0.241
8.84925	0.327
8.8835	0.371
8.91774	0.419
8.95199	0.451
8.98624	0.458
9.02049	0.432
9.05473	0.357
9.08898	0.211
9.12323	0.097
9.15748	0.045
9.19172	0.047
9.22597	0.103
9.26022	0.199
9.29447	0.235
9.32871	0.209
9.36296	0.211
9.39721	0.248
9.43146	0.298
9.4657	0.345
9.49995	0.383
9.5342	0.425
9.56845	0.451
9.60269	0.468
9.63694	0.49
9.67119	0.519
9.70544	0.533
9.73968	0.546
9.77393	0.563
9.80818	0.597
9.84243	0.611
9.87667	0.62
9.91092	0.62
9.94517	0.611
9.97942	0.599
10.0137	0.587
10.0479	0.582
10.0822	0.582
10.1164	0.58
10.1507	0.58
10.1849	0.572
10.2191	0.567
10.2534	0.565
10.2876	0.572
10.3219	0.582
10.3561	0.599
10.3904	0.608
10.4246	0.623
10.4589	0.632
10.4931	0.642
10.5274	0.652
10.5616	0.66
10.5959	0.664
10.6301	0.659
10.6644	0.647
10.6986	0.649
10.7329	0.65
10.7671	0.649
10.8014	0.649
10.8356	0.643
10.8699	0.63
10.9041	0.613
10.9383	0.603
10.9726	0.613
11.0068	0.642
11.0411	0.666
11.0753	0.678
11.1096	0.683
11.1438	0.681
11.1781	0.666
11.2123	0.647
11.2466	0.616
11.2808	0.577
11.3151	0.534
11.3493	0.458
11.3836	0.325
11.4178	0.231
11.4521	0.306
11.4863	0.436
11.5206	0.517
11.5548	0.545
11.589	0.55
11.6233	0.548
11.6575	0.543
11.6918	0.54
11.726	0.54
11.7603	0.553
11.7945	0.575
11.8288	0.597
11.863	0.603
11.8973	0.591
11.9315	0.567
11.9658	0.55
12	0.562
12.0343	0.611
12.0685	0.683
12.1028	0.724
12.137	0.749
12.1713	0.761
12.2055	0.766
12.2398	0.766
12.274	0.764
12.3082	0.761
12.3425	0.754
12.3767	0.746
12.411	0.732
12.4452	0.717
12.4795	0.698
12.5137	0.674
12.548	0.66
12.5822	0.662
12.6165	0.672
12.6507	0.678
12.685	0.674
12.7192	0.664
12.7535	0.657
12.7877	0.65
12.822	0.643
12.8562	0.64
12.8905	0.635
12.9247	0.633
12.9589	0.637
12.9932	0.649
13.0274	0.664
13.0617	0.674
13.0959	0.688
13.1302	0.693
13.1644	0.698
13.1987	0.698
13.2329	0.696
13.2672	0.688
13.3014	0.674
13.3357	0.662
13.3699	0.649
13.4042	0.626
13.4384	0.604
13.4727	0.58
13.5069	0.541
13.5412	0.494
13.5754	0.436
13.6096	0.371
13.6439	0.321
13.6781	0.316
13.7124	0.362
13.7466	0.419
13.7809	0.477
13.8151	0.522
13.8494	0.551
13.8836	0.574
13.9179	0.589
13.9521	0.599
13.9864	0.603
14.0206	0.606
14.0549	0.608
14.0891	0.608
14.1234	0.606
14.1576	0.604
14.1919	0.603
14.2261	0.601
14.2604	0.597
14.2946	0.594
14.3288	0.591
14.3631	0.586
14.3973	0.58
14.4316	0.572
14.4658	0.557
14.5001	0.536
14.5343	0.499
14.5686	0.436
14.6028	0.362
14.6371	0.301
14.6713	0.277
14.7056	0.296
14.7398	0.349
14.7741	0.393
14.8083	0.434
14.8426	0.456
14.8768	0.475
14.9111	0.485
14.9453	0.492
14.9795	0.494
15.0138	0.495
15.048	0.494
15.0823	0.49
15.1165	0.483
15.1508	0.477
15.185	0.47
15.2193	0.459
15.2535	0.453
15.2878	0.446
15.322	0.441
15.3563	0.436
15.3905	0.432
15.4248	0.424
15.459	0.42
15.4933	0.415
15.5275	0.408
15.5618	0.402
15.596	0.398
15.6303	0.391
