Infrared Spectrum: 4,4,4-Trifluoro-1-bromobutane
Formula: C 4 H 6 Br F 3
CAS: 406-81-5
State: gas
Origin: EPA-IR VAPOR PHASE LIBRARY
1/CM	ABSORBANCE
549.8	0.005643
559.445	0.007013
569.09	0.009663
578.734	0.007553
588.379	0.002653
598.024	0.002553
607.669	0.003133
617.313	0.003893
626.958	0.004343
636.603	0.004043
646.248	0.004713
655.893	0.008333
665.537	0.006303
675.182	0.003223
684.827	0.002503
694.472	0.0014732
704.116	0.0012475
713.761	0.0016606
723.406	0.0014621
733.051	0.0017364
742.695	0.0016528
752.34	0.002453
761.985	0.003453
771.63	0.004303
781.275	0.002713
790.919	0.0012989
800.564	0.002023
810.209	0.002783
819.854	0.003503
829.498	0.004793
839.143	0.004433
848.788	0.003113
858.433	0.005083
868.078	0.006413
877.722	0.003783
887.367	0.002783
897.012	0.002673
906.657	0.002603
916.301	0.003093
925.946	0.004103
935.591	0.007003
945.236	0.012243
954.88	0.017943
964.525	0.018223
974.17	0.014673
983.815	0.013223
993.46	0.014523
1003.1	0.015143
1012.75	0.012083
1022.39	0.007413
1032.04	0.007753
1041.68	0.008533
1051.33	0.011533
1060.97	0.014883
1070.62	0.018793
1080.26	0.024813
1089.91	0.041183
1099.55	0.053303
1109.2	0.051823
1118.84	0.055793
1128.49	0.072383
1138.13	0.080893
1147.78	0.076783
1157.42	0.060443
1167.07	0.049613
1176.71	0.058663
1186.36	0.078993
1196	0.072713
1205.64	0.050543
1215.29	0.044833
1224.93	0.048143
1234.58	0.050153
1244.22	0.072993
1253.87	0.125123
1263.51	0.128883
1273.16	0.088553
1282.8	0.054693
1292.45	0.033403
1302.09	0.027483
1311.74	0.029663
1321.38	0.041143
1331.03	0.046153
1340.67	0.029563
1350.32	0.015713
1359.96	0.013753
1369.61	0.018523
1379.25	0.031883
1388.9	0.041003
1398.54	0.027733
1408.18	0.012313
1417.83	0.008313
1427.47	0.008023
1437.12	0.012153
1446.76	0.018973
1456.41	0.015933
1466.05	0.007903
1475.7	0.004553
1485.34	0.003123
1494.99	0.002383
1504.63	0.001823
1514.28	0.001943
1523.92	0.0016188
1533.57	0.001873
1543.21	0.0015178
1552.86	0.0012451
1562.5	0.0010308
1572.15	0.0008877
1581.79	0.001341
1591.44	0.0013249
1601.08	0.001417
1610.73	0.0010974
1620.37	0.0011147
1630.01	0.001111
1639.66	0.0009934
1649.3	0.0011086
1658.95	0.001184
1668.59	0.0009462
1678.24	0.001164
1687.88	0.0012382
1697.53	0.0012586
1707.17	0.001284
1716.82	0.0011736
1726.46	0.001146
1736.11	0.0013398
1745.75	0.0010329
1755.4	0.0011985
1765.04	0.001252
1774.69	0.0013512
1784.33	0.0011375
1793.98	0.001153
1803.62	0.0011963
1813.27	0.0012412
1822.91	0.0012281
1832.55	0.0012346
1842.2	0.0012248
1851.84	0.0009899
1861.49	0.0012697
1871.13	0.0010846
1880.78	0.0010952
1890.42	0.0013802
1900.07	0.0010998
1909.71	0.0014603
1919.36	0.0012548
1929	0.001362
1938.65	0.0012948
1948.29	0.000954
1957.94	0.0011148
1967.58	0.0013453
1977.23	0.001165
1986.87	0.0009519
1996.52	0.0011431
2006.16	0.0012848
2015.81	0.0012142
2025.45	0.0012664
2035.1	0.0012023
2044.74	0.0014454
2054.38	0.0013694
2064.03	0.0013761
2073.67	0.0015656
2083.32	0.0012029
2092.96	0.0014581
2102.61	0.0012681
2112.25	0.0011796
2121.9	0.0014252
2131.54	0.0011262
2141.19	0.0013756
2150.83	0.0011117
2160.48	0.0013194
2170.12	0.0011548
2179.77	0.0013723
2189.41	0.001343
2199.06	0.0014273
2208.7	0.0013094
2218.35	0.0013067
2227.99	0.0013456
2237.64	0.0013461
2247.28	0.0013458
2256.92	0.0015115
2266.57	0.0012789
2276.21	0.0016964
2285.86	0.0012955
2295.5	0.0013905
2305.15	0.0014747
2314.79	0.0012006
2324.44	0.0013187
2334.08	0.0010812
2343.73	0.0014979
2353.37	0.0013427
2363.02	0.001365
2372.66	0.0010836
2382.31	0.0011068
2391.95	0.00084743
2401.6	0.0012138
2411.24	0.0011211
2420.89	0.0011721
2430.53	0.0011645
2440.18	0.0011346
2449.82	0.000765
2459.47	0.0011351
2469.11	0.0010623
2478.75	0.0011197
2488.4	0.0009187
2498.04	0.00084876
2507.69	0.0010937
2517.33	0.0012025
2526.98	0.0009931
2536.62	0.00089002
2546.27	0.000989
2555.91	0.0009109
2565.56	0.0010223
2575.2	0.0009986
2584.85	0.000529
2594.49	0.0007635
2604.14	0.000684
2613.78	0.000561
2623.43	0.001026
2633.07	0.0009281
2642.72	0.0011078
2652.36	0.000946
2662.01	0.00081772
2671.65	0.0007413
2681.29	0.000954
2690.94	0.0011403
2700.58	0.0009359
2710.23	0.0011342
2719.87	0.0007719
2729.52	0.0011015
2739.16	0.000565
2748.81	0.0007156
2758.45	0.00089789
2768.1	0.0010253
2777.74	0.0011507
2787.39	0.0007799
2797.03	0.00083777
2806.68	0.0011616
2816.32	0.00081747
2825.97	0.0014643
2835.61	0.0013481
2845.26	0.0015472
2854.9	0.002193
2864.55	0.003573
2874.19	0.003803
2883.84	0.003083
2893.48	0.002223
2903.12	0.002463
2912.77	0.002503
2922.41	0.004093
2932.06	0.005193
2941.7	0.006423
2951.35	0.008433
2960.99	0.010713
2970.64	0.012733
2980.28	0.013803
2989.93	0.011463
2999.57	0.007463
3009.22	0.004813
3018.86	0.004133
3028.51	0.003433
3038.15	0.002223
3047.8	0.0015687
3057.44	0.0010013
3067.09	0.0013872
3076.73	0.0009617
3086.38	0.0011598
3096.02	0.000662
3105.67	0.0011123
3115.31	0.0009407
3124.95	0.0015165
3134.6	0.0014175
3144.24	0.000881
3153.89	0.0011526
3163.53	0.0007057
3173.18	0.0012637
3182.82	0.0013501
3192.47	0.0009336
3202.11	0.0010685
3211.76	0.000803918
3221.4	0.000641
3231.05	0.0010699
3240.69	0.0010583
3250.34	0.0007248
3259.98	0.000713
3269.63	0.000456
3279.27	0.000969
3288.92	0.000987
3298.56	0.0013236
3308.21	0.00080847
3317.85	0.0012625
3327.49	0.0010089
3337.14	0.0009275
3346.78	0.00082802
3356.43	0.0011242
3366.07	0.0010519
3375.72	0.00066
3385.36	0.0007341
3395.01	0.0010215
3404.65	0.0010278
3414.3	0.001105
3423.94	0.000764
3433.59	0.00062
3443.23	0.0014855
3452.88	0.0011247
3462.52	0.0014571
3472.17	0.0009521
3481.81	0.0009522
3491.46	0.0011738
3501.1	0.0013042
3510.75	0.0013555
3520.39	0.000555
3530.04	0.0009333
3539.68	0.0013463
3549.32	0.000763
3558.97	0.00056
3568.61	0.0013947
3578.26	0.0014417
3587.9	0.0011404
3597.55	0.0011442
3607.19	0.000379
3616.84	0.0010818
3626.48	0.000652
3636.13	0.000695
3645.77	0.0012027
3655.42	0.0009327
3665.06	0.000591
3674.71	0.0009448
3684.35	0.001278
3694	0.000374
3703.64	0.00079479
3713.29	0.0011117
3722.93	0.00081735
3732.58	0.0009483
3742.22	0.000677
3751.86	0.0013157
3761.51	0.0010461
3771.15	0.0015894
3780.8	0.0007072
3790.44	0.0010956
3800.09	0.0009598
3809.73	0.0009587
3819.38	0.00081498
3829.02	0.000691
3838.67	0.000807935
3848.31	0.0010907
3857.96	0.000523
3867.6	0.00063
3877.25	0.0012607
3886.89	0.0013638
3896.54	0.0014343
3906.18	0.0010669
3915.83	0.0014092
3925.47	0.00088716
3935.12	0.0009672
3944.76	0.0009675
3954.41	0.0013961
3964.05	0.0011658
3973.69	0.0016722
3983.34	0.0011929
3992.98	0.0012544
