Infrared Spectrum: 3-CHLORO-1,1,3,3-TETRAFLUORO PROPENE
Formula: C3 H Cl F4
CAS: 406-46-2
State: GAS (PRESSURE 20 mmHg)
Boiling point: 14.5 C
Class: COBLENTZ
Instrument: Not specified, most likely a prism, grating, or hybrid spectrometer.
Sampling: TRANSMISSION
Path length: 5 CM
Resolution: 4
Origin: DOW CHEMICAL COMPANY
MICROMETERS	TRANSMITTANCE
2.041	0.895
2.08218	0.895
2.12335	0.895
2.16453	0.895
2.2057	0.892
2.24688	0.887
2.28806	0.885
2.32923	0.887
2.37041	0.888
2.41158	0.888
2.45276	0.888
2.49394	0.89
2.53511	0.894
2.57629	0.895
2.61747	0.895
2.65864	0.895
2.69982	0.895
2.74099	0.895
2.78217	0.892
2.82335	0.89
2.86452	0.89
2.9057	0.892
2.94687	0.897
2.98805	0.899
3.02923	0.895
3.0704	0.89
3.11158	0.878
3.15275	0.847
3.19393	0.841
3.23511	0.87
3.27628	0.88
3.31746	0.88
3.35863	0.883
3.39981	0.876
3.44099	0.883
3.48216	0.885
3.52334	0.887
3.56451	0.89
3.60569	0.887
3.64687	0.88
3.68804	0.875
3.72922	0.875
3.7704	0.882
3.81157	0.888
3.85275	0.89
3.89392	0.888
3.9351	0.873
3.97628	0.882
4.01745	0.89
4.05863	0.888
4.0998	0.892
4.14098	0.892
4.18216	0.9
4.22333	0.917
4.26451	0.919
4.30568	0.89
4.34686	0.88
4.38804	0.88
4.42921	0.885
4.47039	0.887
4.51156	0.883
4.55274	0.88
4.59392	0.883
4.63509	0.887
4.67627	0.885
4.71745	0.883
4.75862	0.88
4.7998	0.882
4.84097	0.89
4.88215	0.888
4.92333	0.887
4.9645	0.89
5.00568	0.89
5.04685	0.892
5.08803	0.892
5.12921	0.892
5.17038	0.89
5.21156	0.887
5.25273	0.885
5.29391	0.885
5.33509	0.885
5.37626	0.88
5.41744	0.868
5.45861	0.863
5.49979	0.839
5.54097	0.827
5.58214	0.729
5.62332	0.521
5.66449	0.085
5.70567	0.034
5.74685	0.165
5.78802	0.574
5.8292	0.721
5.87038	0.801
5.91155	0.835
5.95273	0.861
5.9939	0.88
6.03508	0.882
6.07626	0.88
6.11743	0.875
6.15861	0.873
6.19978	0.876
6.24096	0.878
6.28214	0.878
6.32331	0.88
6.36449	0.88
6.40566	0.876
6.44684	0.876
6.48802	0.876
6.52919	0.88
6.57037	0.88
6.61154	0.88
6.65272	0.883
6.6939	0.883
6.73507	0.883
6.77625	0.882
6.81743	0.88
6.8586	0.875
6.89978	0.868
6.94095	0.856
6.98213	0.835
7.02331	0.805
7.06448	0.748
7.10566	0.702
7.14683	0.622
7.18801	0.458
7.22919	0.203
7.27036	0.09
7.31154	0.076
7.35271	0.299
7.39389	0.528
7.43507	0.695
7.47624	0.786
7.51742	0.818
7.55859	0.829
7.59977	0.811
7.64095	0.818
7.68212	0.784
7.7233	0.716
7.76448	0.63
7.80565	0.499
7.84683	0.425
7.888	0.429
7.92918	0.475
7.97036	0.466
8.01153	0.394
8.05271	0.317
8.09388	0.278
8.13506	0.259
8.17624	0.268
8.21741	0.321
8.25859	0.391
8.29976	0.468
8.34094	0.54
8.38212	0.6
8.42329	0.634
8.46447	0.641
8.50564	0.649
8.54682	0.704
8.588	0.736
8.62917	0.753
8.67035	0.767
8.71152	0.77
8.7527	0.776
8.79388	0.755
8.83505	0.705
8.87623	0.658
8.91741	0.577
8.95858	0.411
8.99976	0.213
9.04093	0.068
9.08211	0.054
9.12329	0.061
9.16446	0.158
9.20564	0.355
9.24681	0.497
9.28799	0.567
9.32917	0.601
9.37034	0.625
9.41152	0.627
9.45269	0.615
9.49387	0.596
9.53505	0.56
9.57622	0.536
9.6174	0.495
9.65857	0.446
9.69975	0.394
9.74093	0.35
9.7821	0.316
9.82328	0.266
9.86446	0.198
9.90563	0.169
9.94681	0.158
9.98798	0.2
10.0292	0.283
10.0703	0.415
10.1115	0.548
10.1527	0.642
10.1939	0.694
10.235	0.741
10.2762	0.75
10.3174	0.738
10.3586	0.68
10.3997	0.611
10.4409	0.54
10.4821	0.485
10.5233	0.452
10.5644	0.405
10.6056	0.304
10.6468	0.196
10.688	0.121
10.7292	0.117
10.7703	0.148
10.8115	0.172
10.8527	0.169
10.8939	0.15
10.935	0.177
10.9762	0.215
11.0174	0.292
11.0586	0.377
11.0997	0.495
11.1409	0.574
11.1821	0.639
11.2233	0.705
11.2644	0.764
11.3056	0.789
11.3468	0.82
11.388	0.832
11.4291	0.832
11.4703	0.829
11.5115	0.811
11.5527	0.782
11.5939	0.757
11.635	0.729
11.6762	0.709
11.7174	0.682
11.7586	0.659
11.7997	0.635
11.8409	0.611
11.8821	0.586
11.9233	0.552
11.9644	0.531
12.0056	0.519
12.0468	0.516
12.088	0.535
12.1291	0.56
12.1703	0.574
12.2115	0.582
12.2527	0.584
12.2938	0.586
12.335	0.596
12.3762	0.6
12.4174	0.606
12.4585	0.606
12.4997	0.598
12.5409	0.586
12.5821	0.577
12.6233	0.569
12.6644	0.569
12.7056	0.586
12.7468	0.605
12.788	0.622
12.8291	0.637
12.8703	0.652
12.9115	0.676
12.9527	0.704
12.9938	0.723
13.035	0.745
13.0762	0.764
13.1174	0.77
13.1585	0.777
13.1997	0.784
13.2409	0.786
13.2821	0.781
13.3232	0.774
13.3644	0.765
13.4056	0.758
13.4468	0.752
13.488	0.747
13.5291	0.745
13.5703	0.752
13.6115	0.758
13.6527	0.758
13.6938	0.762
13.735	0.764
13.7762	0.764
13.8174	0.765
13.8585	0.765
13.8997	0.767
13.9409	0.769
13.9821	0.77
14.0232	0.77
14.0644	0.772
14.1056	0.776
14.1468	0.774
14.1879	0.772
14.2291	0.776
14.2703	0.776
14.3115	0.772
14.3526	0.772
14.3938	0.772
14.435	0.772
14.4762	0.772
14.5174	0.77
14.5585	0.767
14.5997	0.76
14.6409	0.758
14.6821	0.758
14.7232	0.755
14.7644	0.748
14.8056	0.741
14.8468	0.736
14.8879	0.731
14.9291	0.724
14.9703	0.723
15.0115	0.719
15.0526	0.709
15.0938	0.702
15.135	0.697
15.1762	0.69
15.2173	0.685
15.2585	0.676
15.2997	0.671
15.3409	0.67
15.382	0.664
15.4232	0.658
15.4644	0.642
15.5056	0.632
15.5468	0.625
15.5879	0.62
15.6291	0.618
15.6703	0.61
15.7115	0.594
15.7526	0.586
15.7938	0.584
15.835	0.584
