Infrared Spectrum: UREA, 1,3-BIS (2,2,2-TRIFLUOROETHYL)-
Formula: C5 H6 F6 N2 O
CAS: 406-11-1
State: SOLID (0.7 mg / 650 mg KBr DISC)
Class: COBLENTZ III
Instrument: PERKIN-ELMER 221 (GRATING)
Instrument parameters: FILTER CHANGE AT 2490, 980 CM^-^1, GRATING FOR 4000-1428 CM^-^1, NaCl PRISM FOR 1428-650 CM^-^1
Sampling: TRANSMISSION
Resolution: 4
Origin: SOUTHERN RESEARCH INST.
1/CM	TRANSMITTANCE
609.662	0.8
618.849	0.798
628.036	0.785
637.223	0.768
646.41	0.748
655.597	0.721
664.783	0.66
673.97	0.676
683.157	0.608
692.344	0.682
701.531	0.772
710.718	0.821
719.905	0.858
729.092	0.884
738.279	0.904
747.466	0.919
756.653	0.929
765.84	0.934
775.026	0.866
784.213	0.934
793.4	0.955
802.587	0.961
811.774	0.959
820.961	0.95
830.148	0.729
839.335	0.625
848.522	0.871
857.709	0.933
866.896	0.945
876.083	0.942
885.269	0.875
894.456	0.737
903.643	0.906
912.83	0.956
922.017	0.958
931.204	0.953
940.391	0.945
949.578	0.932
958.765	0.819
967.952	0.875
977.139	0.934
986.326	0.919
995.512	0.884
1004.7	0.839
1013.89	0.714
1023.07	0.491
1032.26	0.778
1041.45	0.916
1050.63	0.918
1059.82	0.904
1069.01	0.897
1078.19	0.872
1087.38	0.841
1096.57	0.834
1105.76	0.799
1114.94	0.75
1124.13	0.664
1133.32	0.503
1142.5	0.346
1151.69	0.163
1160.88	0.065
1170.06	0.119
1179.25	0.201
1188.44	0.233
1197.62	0.423
1206.81	0.506
1216	0.535
1225.19	0.608
1234.37	0.608
1243.56	0.49
1252.75	0.369
1261.93	0.408
1271.12	0.372
1280.31	0.329
1289.49	0.49
1298.68	0.505
1307.87	0.471
1317.05	0.527
1326.24	0.63
1335.43	0.701
1344.62	0.726
1353.8	0.746
1362.99	0.753
1372.18	0.754
1381.36	0.761
1390.55	0.772
1399.74	0.74
1408.92	0.495
1418.11	0.666
1427.3	0.711
1436.48	0.563
1445.67	0.714
1454.86	0.791
1464.05	0.823
1473.23	0.84
1482.42	0.857
1491.61	0.864
1500.79	0.858
1509.98	0.87
1519.17	0.858
1528.35	0.855
1537.54	0.835
1546.73	0.756
1555.91	0.666
1565.1	0.698
1574.29	0.642
1583.48	0.581
1592.66	0.431
1601.85	0.282
1611.04	0.244
1620.22	0.347
1629.41	0.401
1638.6	0.387
1647.78	0.284
1656.97	0.125
1666.16	0.291
1675.34	0.416
1684.53	0.483
1693.72	0.527
1702.91	0.595
1712.09	0.612
1721.28	0.629
1730.47	0.676
1739.65	0.703
1748.84	0.723
1758.03	0.73
1767.21	0.749
1776.4	0.753
1785.59	0.761
1794.77	0.76
1803.96	0.766
1813.15	0.774
1822.33	0.779
1831.52	0.783
1840.71	0.786
1849.9	0.789
1859.08	0.791
1868.27	0.794
1877.46	0.796
1886.64	0.798
1895.83	0.8
1905.02	0.802
1914.2	0.805
1923.39	0.807
1932.58	0.81
1941.76	0.811
1950.95	0.811
1960.14	0.81
1969.33	0.809
1978.51	0.808
1987.7	0.807
1996.89	0.807
2006.07	0.808
2015.26	0.808
2024.45	0.809
2033.63	0.81
2042.82	0.81
2052.01	0.81
2061.19	0.81
2070.38	0.809
2079.57	0.809
2088.76	0.808
2097.94	0.808
2107.13	0.807
2116.32	0.807
2125.5	0.807
2134.69	0.807
2143.88	0.807
2153.06	0.807
2162.25	0.807
2171.44	0.807
2180.62	0.807
2189.81	0.807
2199	0.807
2208.19	0.807
2217.37	0.807
2226.56	0.807
2235.75	0.806
2244.93	0.806
2254.12	0.805
2263.31	0.805
2272.49	0.804
2281.68	0.803
2290.87	0.802
2300.05	0.801
2309.24	0.799
2318.43	0.797
2327.62	0.796
2336.8	0.797
2345.99	0.798
2355.18	0.798
2364.36	0.798
2373.55	0.797
2382.74	0.797
2391.92	0.797
2401.11	0.796
2410.3	0.796
2419.48	0.795
2428.67	0.794
2437.86	0.794
2447.05	0.792
2456.23	0.791
2465.42	0.791
2474.61	0.791
2483.79	0.791
2492.98	0.791
2502.17	0.79
2511.35	0.789
2520.54	0.789
2529.73	0.789
2538.91	0.788
2548.1	0.787
2557.29	0.786
2566.48	0.785
2575.66	0.784
2584.85	0.784
2594.04	0.783
2603.22	0.782
2612.41	0.782
2621.6	0.781
2630.78	0.782
2639.97	0.782
2649.16	0.782
2658.34	0.782
2667.53	0.781
2676.72	0.781
2685.91	0.78
2695.09	0.779
2704.28	0.775
2713.47	0.772
2722.65	0.771
2731.84	0.773
2741.03	0.772
2750.21	0.772
2759.4	0.775
2768.59	0.775
2777.77	0.772
2786.96	0.771
2796.15	0.769
2805.34	0.768
2814.52	0.766
2823.71	0.763
2832.9	0.759
2842.08	0.753
2851.27	0.751
2860.46	0.752
2869.64	0.753
2878.83	0.753
2888.02	0.753
2897.2	0.753
2906.39	0.751
2915.58	0.749
2924.76	0.747
2933.95	0.75
2943.14	0.755
2952.33	0.753
2961.51	0.745
2970.7	0.709
2979.89	0.71
2989.07	0.742
2998.26	0.748
3007.45	0.743
3016.63	0.743
3025.82	0.743
3035.01	0.738
3044.19	0.726
3053.38	0.705
3062.57	0.689
3071.76	0.684
3080.94	0.685
3090.13	0.689
3099.32	0.696
3108.5	0.705
3117.69	0.71
3126.88	0.708
3136.06	0.705
3145.25	0.697
3154.44	0.676
3163.62	0.662
3172.81	0.66
3182	0.664
3191.19	0.669
3200.37	0.671
3209.56	0.666
3218.75	0.659
3227.93	0.655
3237.12	0.653
3246.31	0.651
3255.49	0.648
3264.68	0.634
3273.87	0.613
3283.05	0.592
3292.24	0.564
3301.43	0.526
3310.62	0.485
3319.8	0.439
3328.99	0.394
3338.18	0.332
3347.36	0.337
3356.55	0.355
3365.74	0.372
3374.92	0.37
3384.11	0.352
3393.3	0.38
3402.48	0.411
3411.67	0.44
3420.86	0.466
3430.05	0.486
3439.23	0.5
3448.42	0.513
3457.61	0.524
3466.79	0.537
3475.98	0.544
3485.17	0.551
3494.35	0.557
3503.54	0.567
3512.73	0.573
3521.91	0.58
3531.1	0.586
3540.29	0.596
3549.48	0.608
3558.66	0.61
3567.85	0.615
3577.04	0.626
3586.22	0.63
3595.41	0.633
3604.6	0.641
3613.78	0.647
3622.97	0.656
3632.16	0.661
3641.34	0.665
3650.53	0.666
3659.72	0.666
3668.91	0.666
3678.09	0.666
3687.28	0.666
3696.47	0.666
3705.65	0.672
3714.84	0.673
3724.03	0.67
3733.21	0.669
3742.4	0.67
3751.59	0.673
3760.77	0.673
3769.96	0.671
3779.15	0.67
3788.34	0.669
3797.52	0.669
3806.71	0.669
3815.9	0.669
3825.08	0.669
3834.27	0.668
3843.46	0.667
3852.64	0.668
3861.83	0.669
3871.02	0.669
3880.2	0.669
3889.39	0.668
3898.58	0.666
3907.77	0.664
3916.95	0.663
3926.14	0.666
3935.33	0.667
3944.51	0.666
3953.7	0.663
3962.89	0.662
3972.07	0.664
3981.26	0.66
3990.45	0.66
3999.63	0.662
