Infrared Spectrum: 4,4'-Dimethoxytrityl chloride
Formula: C 21 H 19 Cl O 2
CAS: 40615-36-9
State: gas
Origin: EPA-IR VAPOR PHASE LIBRARY
1/CM	ABSORBANCE
549.9	0.002497
559.547	0.004047
569.193	0.005197
578.84	0.004857
588.486	0.003067
598.133	0.001807
607.779	0.0013536
617.426	0.001717
627.072	0.001537
636.719	0.0012976
646.365	0.0011994
656.012	0.0011278
665.658	0.0011398
675.305	0.001427
684.951	0.001587
694.598	0.004127
704.245	0.004237
713.891	0.002307
723.538	0.001817
733.184	0.002367
742.831	0.001577
752.477	0.0012762
762.124	0.0012793
771.77	0.001857
781.417	0.003047
791.063	0.002647
800.71	0.003597
810.356	0.003677
820.003	0.004447
829.649	0.004637
839.296	0.003597
848.943	0.002887
858.589	0.001847
868.236	0.001717
877.882	0.0011958
887.529	0.000953
897.175	0.0008603
906.822	0.000751
916.468	0.0008232
926.115	0.0006813
935.761	0.0006735
945.408	0.0007376
955.054	0.0008074
964.701	0.0009233
974.347	0.0010463
983.994	0.0011619
993.64	0.0013876
1003.29	0.001957
1012.93	0.003047
1022.58	0.004267
1032.23	0.008357
1041.87	0.009937
1051.52	0.005887
1061.17	0.002817
1070.81	0.002017
1080.46	0.001507
1090.11	0.00127
1099.75	0.001467
1109.4	0.002267
1119.05	0.001637
1128.69	0.0013658
1138.34	0.0012674
1147.99	0.001757
1157.63	0.002937
1167.28	0.007957
1176.92	0.016767
1186.57	0.006057
1196.22	0.003447
1205.86	0.003257
1215.51	0.004577
1225.16	0.008007
1234.8	0.017277
1244.45	0.033257
1254.1	0.029697
1263.74	0.014897
1273.39	0.008927
1283.04	0.007467
1292.68	0.007657
1302.33	0.005927
1311.98	0.003397
1321.62	0.002497
1331.27	0.002227
1340.92	0.001947
1350.56	0.001567
1360.21	0.001427
1369.86	0.0012701
1379.5	0.0011348
1389.15	0.0010823
1398.79	0.0011354
1408.44	0.0013725
1418.09	0.001617
1427.73	0.001937
1437.38	0.003067
1447.03	0.005007
1456.67	0.004387
1466.32	0.005577
1475.97	0.004887
1485.61	0.005587
1495.26	0.011297
1504.91	0.029197
1514.55	0.025717
1524.2	0.006067
1533.85	0.002897
1543.49	0.002077
1553.14	0.001837
1562.79	0.002007
1572.43	0.002797
1582.08	0.004047
1591.73	0.004487
1601.37	0.007507
1611.02	0.007877
1620.67	0.004057
1630.31	0.001947
1639.96	0.001427
1649.6	0.0012068
1659.25	0.0009622
1668.9	0.0009425
1678.54	0.0008159
1688.19	0.0007377
1697.84	0.0007508
1707.48	0.0006807
1717.13	0.0006636
1726.78	0.0006567
1736.42	0.0007221
1746.07	0.0008405
1755.72	0.0009736
1765.36	0.0008386
1775.01	0.0007173
1784.66	0.0007137
1794.3	0.000828
1803.95	0.0008477
1813.6	0.0007221
1823.24	0.0007501
1832.89	0.0006937
1842.54	0.0006511
1852.18	0.0006854
1861.83	0.0007761
1871.47	0.0008484
1881.12	0.0010841
1890.77	0.0010256
1900.41	0.000742
1910.06	0.000605
1919.71	0.0005502
1929.35	0.0006387
1939	0.0007634
1948.65	0.0007858
1958.29	0.0007041
1967.94	0.0006095
1977.59	0.0005361
1987.23	0.000595
1996.88	0.0005999
2006.53	0.0006738
2016.17	0.0007541
2025.82	0.0009151
2035.47	0.0008489
2045.11	0.0007701
2054.76	0.0008478
2064.41	0.0008487
2074.05	0.0008421
2083.7	0.0007037
2093.35	0.0005411
2102.99	0.00043428
2112.64	0.0004286
2122.28	0.0003718
2131.93	0.0003382
2141.58	0.000297
2151.22	0.0003389
2160.87	0.000282
2170.52	0.0003124
2180.16	0.0003228
2189.81	0.000287
2199.46	0.0003289
2209.1	0.000306
2218.75	0.000298
2228.4	0.0003148
2238.04	0.000271
2247.69	0.000282
2257.34	0.0003503
2266.98	0.0003642
2276.63	0.00044419
2286.28	0.00045697
2295.92	0.0003793
2305.57	0.000303
2315.22	0.0003389
2324.86	0.000268
2334.51	0.0003279
2344.16	0.000258
2353.8	0.000281
2363.45	0.000241
2373.09	0.00029
2382.74	0.0003126
2392.39	0.000282
2402.03	0.0003257
2411.68	0.0003254
2421.33	0.000338
2430.97	0.0003294
2440.62	0.0003391
2450.27	0.000282
2459.91	0.00028
2469.56	0.0003325
2479.21	0.0003432
2488.85	0.000304
2498.5	0.00039836
2508.15	0.0003763
2517.79	0.0003391
2527.44	0.0003656
2537.09	0.0003422
2546.73	0.0003909
2556.38	0.000239
2566.03	0.000215
2575.67	0.000238
2585.32	0.00023
2594.96	0.000288
2604.61	0.00021
2614.26	0.000153
2623.9	9.8e-05
2633.55	0.000185
2643.2	0.000114
2652.84	0.000145
2662.49	0.000168
2672.14	4.4e-05
2681.78	6.5e-05
2691.43	0.000135
2701.08	4.3e-05
2710.72	0.000116
2720.37	0.000142
2730.02	7e-05
2739.66	0.000142
2749.31	0.000228
2758.96	0.000253
2768.6	0.0003287
2778.25	0.000251
2787.9	0.0003404
2797.54	0.0003858
2807.19	0.0005605
2816.84	0.0008319
2826.48	0.0011931
2836.13	0.002747
2845.77	0.004537
2855.42	0.001957
2865.07	0.001427
2874.71	0.001607
2884.36	0.002387
2894.01	0.002067
2903.65	0.002377
2913.3	0.003317
2922.95	0.003237
2932.59	0.003467
2942.24	0.005037
2951.89	0.004857
2961.53	0.004107
2971.18	0.002557
2980.83	0.002407
2990.47	0.003017
3000.12	0.005387
3009.77	0.006137
3019.41	0.003677
3029.06	0.005407
3038.71	0.004297
3048.35	0.003097
3058	0.003157
3067.64	0.005867
3077.29	0.004057
3086.94	0.002937
3096.58	0.002447
3106.23	0.001617
3115.88	0.0010563
3125.52	0.0008754
3135.17	0.0008353
3144.82	0.0005765
3154.46	0.0006903
3164.11	0.0004027
3173.76	0.0007177
3183.4	0.00047496
3193.05	0.0006533
3202.7	0.0005531
3212.34	0.0005566
3221.99	0.00042588
3231.64	0.0005743
3241.28	0.000567
3250.93	0.0006849
3260.58	0.0006149
3270.22	0.0006812
3279.87	0.0005818
3289.52	0.0006951
3299.16	0.000735
3308.81	0.0006143
3318.45	0.0006734
3328.1	0.0009044
3337.75	0.0008215
3347.39	0.000746
3357.04	0.0007486
3366.69	0.0008623
3376.33	0.0009047
3385.98	0.000893
3395.63	0.0008239
3405.27	0.0008418
3414.92	0.0009767
3424.57	0.0009164
3434.21	0.0009497
3443.86	0.0009745
3453.51	0.001035
3463.15	0.0009516
3472.8	0.0009779
3482.45	0.0008813
3492.09	0.0010365
3501.74	0.0009743
3511.39	0.0009687
3521.03	0.0010569
3530.68	0.0009985
3540.33	0.0010232
3549.97	0.0010325
3559.62	0.0009345
3569.26	0.0011305
3578.91	0.0008333
3588.56	0.0007363
3598.2	0.0008429
3607.85	0.0008174
3617.5	0.0008555
3627.14	0.0009752
3636.79	0.0009169
3646.44	0.000942
3656.08	0.0007913
3665.73	0.0008537
3675.38	0.0007903
3685.02	0.0006624
3694.67	0.0008876
3704.32	0.0008831
3713.96	0.000839
3723.61	0.0008899
3733.26	0.0006547
3742.9	0.0007877
3752.55	0.0007693
3762.2	0.0008299
3771.84	0.0007515
3781.49	0.0006135
3791.13	0.0008574
3800.78	0.0007279
3810.43	0.000617
3820.07	0.0006335
3829.72	0.0006359
3839.37	0.0006574
3849.01	0.000787
3858.66	0.0006323
3868.31	0.0006646
3877.95	0.0006337
3887.6	0.0007236
3897.25	0.0007794
3906.89	0.0005795
3916.54	0.0006525
3926.19	0.0007809
3935.83	0.000616
3945.48	0.000568
3955.13	0.00049182
3964.77	0.0006416
3974.42	0.0006174
3984.07	0.0007498
3993.71	0.000767
