Infrared Spectrum: 2-Acetoxyisobutyryl chloride
Formula: C 6 H 9 Cl O 3
CAS: 40635-66-3
State: gas
Origin: EPA-IR VAPOR PHASE LIBRARY
1/CM	ABSORBANCE
549.8	0.0015159
559.445	0.00133211
569.09	0.00248
578.734	0.00306
588.379	0.00375
598.024	0.00294
607.669	0.00407
617.313	0.0019276
626.958	0.002037
636.603	0.0031
646.248	0.00306
655.893	0.00495
665.537	0.00314
675.182	0.0017661
684.827	0.00269
694.472	0.00279
704.116	0.00266
713.761	0.0016441
723.406	0.0016835
733.051	0.0018434
742.695	0.00136379
752.34	0.00318
761.985	0.00505
771.63	0.00677
781.275	0.0057
790.919	0.00448
800.564	0.00506
810.209	0.0085
819.854	0.00649
829.498	0.00761
839.143	0.00592
848.788	0.00445
858.433	0.00515
868.078	0.00849
877.722	0.01062
887.367	0.00921
897.012	0.00602
906.657	0.00566
916.301	0.00748
925.946	0.00953
935.591	0.01202
945.236	0.01318
954.88	0.01384
964.525	0.01279
974.17	0.01156
983.815	0.01069
993.46	0.01162
1003.1	0.01376
1012.75	0.01506
1022.39	0.01334
1032.04	0.00893
1041.68	0.01014
1051.33	0.01121
1060.97	0.01134
1070.62	0.0077
1080.26	0.00577
1089.91	0.0014605
1099.55	0.004
1109.2	0.00273
1118.84	0.00311
1128.49	0.00325
1138.13	0.00721
1147.78	0.01359
1157.42	0.02602
1167.07	0.03009
1176.71	0.02646
1186.36	0.02292
1196	0.01803
1205.64	0.01215
1215.29	0.01355
1224.93	0.0209
1234.58	0.02978
1244.22	0.02833
1253.87	0.01743
1263.51	0.01033
1273.16	0.01014
1282.8	0.01047
1292.45	0.00971
1302.09	0.00762
1311.74	0.00535
1321.38	0.00405
1331.03	0.00322
1340.67	0.00328
1350.32	0.00423
1359.96	0.00834
1369.61	0.01354
1379.25	0.01415
1388.9	0.01026
1398.54	0.0065
1408.18	0.00342
1417.83	0.0027
1427.47	0.00311
1437.12	0.00352
1446.76	0.00351
1456.41	0.00387
1466.05	0.00435
1475.7	0.00368
1485.34	0.00254
1494.99	0.0016629
1504.63	0.0016815
1514.28	0.0016871
1523.92	0.0018553
1533.57	0.00241
1543.21	0.00368
1552.86	0.00377
1562.5	0.0039
1572.15	0.00334
1581.79	0.00246
1591.44	0.001709
1601.08	0.0018326
1610.73	0.0015395
1620.37	0.0019098
1630.01	0.00235
1639.66	0.00261
1649.3	0.00295
1658.95	0.00397
1668.59	0.00499
1678.24	0.00963
1687.88	0.01872
1697.53	0.02812
1707.17	0.02941
1716.82	0.02025
1726.46	0.01123
1736.11	0.00762
1745.75	0.00942
1755.4	0.01945
1765.04	0.03359
1774.69	0.03066
1784.33	0.01895
1793.98	0.01773
1803.62	0.02341
1813.27	0.02467
1822.91	0.02077
1832.55	0.02057
1842.2	0.02395
1851.84	0.02243
1861.49	0.01337
1871.13	0.00557
1880.78	0.00394
1890.42	0.0035
1900.07	0.00323
1909.71	0.00273
1919.36	0.00249
1929	0.0019968
1938.65	0.002065
1948.29	0.0018296
1957.94	0.0018788
1967.58	0.0016955
1977.23	0.0015852
1986.87	0.0016735
1996.52	0.0017087
2006.16	0.0015398
2015.81	0.0016522
2025.45	0.0014465
2035.1	0.001606
2044.74	0.0017481
2054.38	0.0014169
2064.03	0.0019423
2073.67	0.0017918
2083.32	0.0017656
2092.96	0.0017006
2102.61	0.0016631
2112.25	0.0015405
2121.9	0.0015582
2131.54	0.0015009
2141.19	0.0014535
2150.83	0.00133119
2160.48	0.0015835
2170.12	0.0015874
2179.77	0.0016752
2189.41	0.0015861
2199.06	0.0015218
2208.7	0.0017031
2218.35	0.0016196
2227.99	0.001607
2237.64	0.0016592
2247.28	0.0019817
2256.92	0.0017446
2266.57	0.0014503
2276.21	0.001587
2285.86	0.0015009
2295.5	0.001689
2305.15	0.0015392
2314.79	0.001643
2324.44	0.0017764
2334.08	0.0017334
2343.73	0.0020519
2353.37	0.0018799
2363.02	0.0015
2372.66	0.0014189
2382.31	0.0015481
2391.95	0.0015219
2401.6	0.00134352
2411.24	0.0016921
2420.89	0.0016229
2430.53	0.0014131
2440.18	0.0018317
2449.82	0.0014101
2459.47	0.0016497
2469.11	0.0015795
2478.75	0.0016259
2488.4	0.0014006
2498.04	0.0017542
2507.69	0.0015175
2517.33	0.0017368
2526.98	0.0017889
2536.62	0.0018017
2546.27	0.0014122
2555.91	0.0017455
2565.56	0.0017859
2575.2	0.0017006
2584.85	0.0016298
2594.49	0.0022899
2604.14	0.0018592
2613.78	0.0016216
2623.43	0.0014683
2633.07	0.0012956
2642.72	0.0019051
2652.36	0.0018976
2662.01	0.0017365
2671.65	0.0014811
2681.29	0.0018381
2690.94	0.0015378
2700.58	0.0018024
2710.23	0.0018769
2719.87	0.0019041
2729.52	0.0017893
2739.16	0.001634
2748.81	0.00198
2758.45	0.001118
2768.1	0.0015031
2777.74	0.00231
2787.39	0.0019284
2797.03	0.0015554
2806.68	0.0016326
2816.32	0.0018728
2825.97	0.0017475
2835.61	0.00207
2845.26	0.0021391
2854.9	0.00234
2864.55	0.0022801
2874.19	0.00231
2883.84	0.0027
2893.48	0.0022804
2903.12	0.00276
2912.77	0.00262
2922.41	0.00232
2932.06	0.00439
2941.7	0.00485
2951.35	0.00546
2960.99	0.00471
2970.64	0.00353
2980.28	0.00417
2989.93	0.00635
2999.57	0.00866
3009.22	0.00661
3018.86	0.00402
3028.51	0.00297
3038.15	0.0021747
3047.8	0.00289
3057.44	0.0021076
3067.09	0.00239
3076.73	0.00247
3086.38	0.0018766
3096.02	0.0014178
3105.67	0.0017957
3115.31	0.00189
3124.95	0.001973
3134.6	0.0022858
3144.24	0.0022364
3153.89	0.0017577
3163.53	0.001451
3173.18	0.001486
3182.82	0.0018262
3192.47	0.0015208
3202.11	0.0015974
3211.76	0.0017811
3221.4	0.0017028
3231.05	0.0014465
3240.69	0.0018956
3250.34	0.0012499
3259.98	0.0020144
3269.63	0.0016077
3279.27	0.002094
3288.92	0.0014973
3298.56	0.0019466
3308.21	0.0013957
3317.85	0.0019497
3327.49	0.0019663
3337.14	0.001218
3346.78	0.00129507
3356.43	0.00137528
3366.07	0.0015681
3375.72	0.001539
3385.36	0.0015854
3395.01	0.00130779
3404.65	0.00098
3414.3	0.001136
3423.94	0.0012301
3433.59	0.000863
3443.23	0.001124
3452.88	0.00136234
3462.52	0.001105
3472.17	0.0018023
3481.81	0.00101
3491.46	0.001148
3501.1	0.0022126
3510.75	0.00135048
3520.39	0.0017826
3530.04	0.0014034
3539.68	0.0014547
3549.32	0.0016719
3558.97	0.0015601
3568.61	0.0016219
3578.26	0.0018449
3587.9	0.0019156
3597.55	0.00137148
3607.19	0.00229
3616.84	0.0019793
3626.48	0.000934
3636.13	0.001044
3645.77	0.00128199
3655.42	0.0014333
3665.06	0.0014799
3674.71	0.0016586
3684.35	0.001093
3694	0.0017357
3703.64	0.0014803
3713.29	0.0017571
3722.93	0.00129264
3732.58	0.0016029
3742.22	0.001429
3751.86	0.000657
3761.51	0.0014207
3771.15	0.0013934
3780.8	0.001145
3790.44	0.0014366
3800.09	0.001023
3809.73	0.000819
3819.38	0.0017222
3829.02	0.000974
3838.67	0.000822
3848.31	0.000964
3857.96	0.00137881
3867.6	0.0014261
3877.25	0.001116
3886.89	0.00134381
3896.54	0
3906.18	0.001167
3915.83	0.001168
3925.47	0.000829
3935.12	0.001052
3944.76	0.0019361
3954.41	0.0015595
3964.05	0.001183
3973.69	0.000818
3983.34	0.0017476
3992.98	0.00130338
