Infrared Spectrum: 4-Propylcyclohexanone
Formula: C 9 H 16 O
CAS: 40649-36-3
State: gas
Origin: EPA-IR VAPOR PHASE LIBRARY
1/CM	ABSORBANCE
549.8	0.00035569
559.445	0.0005106
569.09	0.000181
578.734	0.000145
588.379	6.7e-05
598.024	0.000132
607.669	0.0004045
617.313	0.000204
626.958	0.00031792
636.603	0.00035275
646.248	0.0002075
655.893	0.0004142
665.537	0.0005583
675.182	0.0005532
684.827	0.0007291
694.472	0.0005712
704.116	0.0005449
713.761	0.0008851
723.406	0.001931
733.051	0.003071
742.695	0.003621
752.34	0.002551
761.985	0.001611
771.63	0.0008054
781.275	0.000858
790.919	0.0008813
800.564	0.0010093
810.209	0.0012512
819.854	0.001541
829.498	0.001381
839.143	0.0010756
848.788	0.0008989
858.433	0.001331
868.078	0.001901
877.722	0.002651
887.367	0.002281
897.012	0.002091
906.657	0.0012326
916.301	0.001401
925.946	0.001941
935.591	0.003351
945.236	0.004161
954.88	0.003601
964.525	0.002081
974.17	0.0012635
983.815	0.0011656
993.46	0.0012212
1003.1	0.001661
1012.75	0.001581
1022.39	0.001391
1032.04	0.0009634
1041.68	0.001321
1051.33	0.002051
1060.97	0.002261
1070.62	0.003551
1080.26	0.003301
1089.91	0.002361
1099.55	0.004011
1109.2	0.005641
1118.84	0.008111
1128.49	0.006881
1138.13	0.005061
1147.78	0.004571
1157.42	0.007091
1167.07	0.010321
1176.71	0.008991
1186.36	0.006051
1196	0.004181
1205.64	0.003971
1215.29	0.003951
1224.93	0.005531
1234.58	0.006391
1244.22	0.006001
1253.87	0.004261
1263.51	0.003011
1273.16	0.002441
1282.8	0.002591
1292.45	0.003461
1302.09	0.004701
1311.74	0.006361
1321.38	0.007931
1331.03	0.007911
1340.67	0.006341
1350.32	0.004411
1359.96	0.003331
1369.61	0.003111
1379.25	0.003791
1388.9	0.003821
1398.54	0.003601
1408.18	0.005001
1417.83	0.008251
1427.47	0.011091
1437.12	0.011781
1446.76	0.011771
1456.41	0.012361
1466.05	0.011021
1475.7	0.007261
1485.34	0.003921
1494.99	0.002301
1504.63	0.001521
1514.28	0.0012384
1523.92	0.0011558
1533.57	0.001126
1543.21	0.0010089
1552.86	0.0009468
1562.5	0.0009327
1572.15	0.0009505
1581.79	0.0010218
1591.44	0.0009538
1601.08	0.000945
1610.73	0.0009227
1620.37	0.0011823
1630.01	0.001461
1639.66	0.001811
1649.3	0.002461
1658.95	0.003191
1668.59	0.004041
1678.24	0.005551
1687.88	0.007731
1697.53	0.010141
1707.17	0.014821
1716.82	0.033691
1726.46	0.098361
1736.11	0.122991
1745.75	0.055231
1755.4	0.018631
1765.04	0.008981
1774.69	0.005511
1784.33	0.003931
1793.98	0.003071
1803.62	0.002481
1813.27	0.002171
1822.91	0.001741
1832.55	0.001321
1842.2	0.0010061
1851.84	0.0008936
1861.49	0.0008621
1871.13	0.0007923
1880.78	0.0006559
1890.42	0.000696
1900.07	0.000687
1909.71	0.0008127
1919.36	0.0007276
1929	0.0006406
1938.65	0.0005122
1948.29	0.0005294
1957.94	0.0005816
1967.58	0.0004925
1977.23	0.0005696
1986.87	0.0005642
1996.52	0.0005548
2006.16	0.0005713
2015.81	0.0005063
2025.45	0.0005779
2035.1	0.0006424
2044.74	0.0006535
2054.38	0.0006888
2064.03	0.0007153
2073.67	0.0006106
2083.32	0.0005723
2092.96	0.0005105
2102.61	0.0004729
2112.25	0.0005011
2121.9	0.0005056
2131.54	0.0005327
2141.19	0.0005988
2150.83	0.0005794
2160.48	0.0005309
2170.12	0.0006213
2179.77	0.0004974
2189.41	0.0006123
2199.06	0.0006232
2208.7	0.0006071
2218.35	0.0005572
2227.99	0.0006475
2237.64	0.0006664
2247.28	0.000583
2256.92	0.0006743
2266.57	0.0005702
2276.21	0.0005236
2285.86	0.0005576
2295.5	0.0004842
2305.15	0.0005524
2314.79	0.0005896
2324.44	0.0006339
2334.08	0.0006063
2343.73	0.0006048
2353.37	0.0005627
2363.02	0.0006221
2372.66	0.0006678
2382.31	0.0005532
2391.95	0.000757
2401.6	0.0007689
2411.24	0.0007384
2420.89	0.0005946
2430.53	0.0005556
2440.18	0.0006315
2449.82	0.000621
2459.47	0.0005545
2469.11	0.000565
2478.75	0.0005001
2488.4	0.0006191
2498.04	0.0005743
2507.69	0.0005412
2517.33	0.0005771
2526.98	0.0006145
2536.62	0.0007192
2546.27	0.0007348
2555.91	0.0007283
2565.56	0.0007332
2575.2	0.0008215
2584.85	0.0008661
2594.49	0.0009761
2604.14	0.0009684
2613.78	0.0010264
2623.43	0.0012225
2633.07	0.0012214
2642.72	0.0012542
2652.36	0.0012453
2662.01	0.001411
2671.65	0.001461
2681.29	0.001511
2690.94	0.001501
2700.58	0.001441
2710.23	0.001511
2719.87	0.001541
2729.52	0.001481
2739.16	0.001811
2748.81	0.001821
2758.45	0.001871
2768.1	0.001861
2777.74	0.002141
2787.39	0.002461
2797.03	0.002931
2806.68	0.003411
2816.32	0.004351
2825.97	0.005991
2835.61	0.008741
2845.26	0.014081
2854.9	0.023951
2864.55	0.035411
2874.19	0.040381
2883.84	0.038401
2893.48	0.036281
2903.12	0.041971
2912.77	0.054271
2922.41	0.069381
2932.06	0.085631
2941.7	0.083911
2951.35	0.068461
2960.99	0.066501
2970.64	0.066801
2980.28	0.039961
2989.93	0.016211
2999.57	0.008361
3009.22	0.005731
3018.86	0.004671
3028.51	0.003931
3038.15	0.003371
3047.8	0.002671
3057.44	0.002381
3067.09	0.002111
3076.73	0.001821
3086.38	0.001691
3096.02	0.001531
3105.67	0.001531
3115.31	0.0012841
3124.95	0.0011978
3134.6	0.0011119
3144.24	0.0010162
3153.89	0.0010035
3163.53	0.0007789
3173.18	0.0009936
3182.82	0.0007974
3192.47	0.0009125
3202.11	0.0007176
3211.76	0.0007169
3221.4	0.0005934
3231.05	0.0006084
3240.69	0.0004683
3250.34	0.000428
3259.98	0.0005401
3269.63	0.0005693
3279.27	0.0004052
3288.92	0.0004987
3298.56	0.0005663
3308.21	0.0005524
3317.85	0.0004898
3327.49	0.0005377
3337.14	0.0005719
3346.78	0.0005633
3356.43	0.0007542
3366.07	0.0006505
3375.72	0.0006538
3385.36	0.0007592
3395.01	0.0006069
3404.65	0.0008432
3414.3	0.0007475
3423.94	0.0011003
3433.59	0.001641
3443.23	0.001901
3452.88	0.002201
3462.52	0.001731
3472.17	0.0008137
3481.81	0.000801
3491.46	0.0006834
3501.1	0.0004114
3510.75	0.000307286
3520.39	0.00035402
3530.04	0.0003315
3539.68	0.000452
3549.32	0.0002701
3558.97	0.0003827
3568.61	0.0002352
3578.26	0.0004987
3587.9	0.0005524
3597.55	0.0004104
3607.19	0.0004356
3616.84	0.0004828
3626.48	0.0005593
3636.13	0.000519
3645.77	0.0006116
3655.42	0.0005399
3665.06	0.0005944
3674.71	0.0005306
3684.35	0.0004664
3694	0.000484
3703.64	0.00039856
3713.29	0.0004052
3722.93	0.00034167
3732.58	0.0005847
3742.22	0.0005514
3751.86	0.0006239
3761.51	0.00036921
3771.15	0.0005155
3780.8	0.0004548
3790.44	0.000703
3800.09	0.0007055
3809.73	0.0007899
3819.38	0.0004084
3829.02	0.000421
3838.67	0.0004906
3848.31	0.0004388
3857.96	0.000513
3867.6	0.0005517
3877.25	0.00036921
3886.89	0.00038936
3896.54	0.0005333
3906.18	0.0005596
3915.83	0.0005804
3925.47	0.0004265
3935.12	0.0006012
3944.76	0.0006751
3954.41	0.000759
3964.05	0.0005681
3973.69	0.0008029
3983.34	0.0007032
3992.98	0.0005351
