Infrared Spectrum: Imidazole-5-carbonitrile, 1-methyl-4-nitro-
Formula: C5 H4 N4 O2
CAS: 40648-96-2
State: SOLID (1 mg / 650 mg KBr DISC)
Class: COBLENTZ III
Instrument: PERKIN-ELMER 21 (GRATING)
Instrument parameters: FILTER CHANGE ABOUT 1020 CM^-^1
Resolution: 2
Origin: SOUTHERN RESEARCH INSTITUTE
1/CM	TRANSMITTANCE
602.46	0.6365
611.498	0.6375
620.536	0.6134
629.575	0.5649
638.613	0.5302
647.651	0.6662
656.689	0.7798
665.728	0.7871
674.766	0.7895
683.804	0.7918
692.842	0.7936
701.881	0.7948
710.919	0.7941
719.957	0.7815
728.995	0.7526
738.034	0.722
747.072	0.8051
756.11	0.7767
765.148	0.7237
774.187	0.8331
783.225	0.826
792.263	0.8101
801.301	0.7841
810.34	0.753
819.378	0.7258
828.416	0.6599
837.454	0.3235
846.493	0.8128
855.531	0.648
864.569	0.9001
873.607	0.9048
882.646	0.9026
891.684	0.898
900.722	0.8864
909.76	0.8755
918.799	0.8684
927.837	0.8678
936.875	0.8657
945.913	0.8657
954.952	0.8662
963.99	0.8633
973.028	0.8578
982.066	0.8506
991.105	0.8404
1000.14	0.8247
1009.18	0.7806
1018.22	0.7291
1027.26	0.7124
1036.3	0.8313
1045.33	0.826
1054.37	0.8185
1063.41	0.8116
1072.45	0.8118
1081.49	0.822
1090.53	0.8201
1099.56	0.8166
1108.6	0.8093
1117.64	0.8014
1126.68	0.7924
1135.72	0.7883
1144.75	0.7857
1153.79	0.7757
1162.83	0.7602
1171.87	0.7372
1180.91	0.7007
1189.95	0.6359
1198.98	0.5467
1208.02	0.7818
1217.06	0.7675
1226.1	0.7311
1235.14	0.692
1244.18	0.7038
1253.21	0.7205
1262.25	0.6904
1271.29	0.6554
1280.33	0.6217
1289.37	0.5713
1298.4	0.4538
1307.44	0.3314
1316.48	0.3152
1325.52	0.4393
1334.56	0.2036
1343.6	0.238
1352.63	0.6935
1361.67	0.6327
1370.71	0.4552
1379.75	0.5078
1388.79	0.533
1397.83	0.471
1406.86	0.714
1415.9	0.6069
1424.94	0.5071
1433.98	0.6107
1443.02	0.6464
1452.05	0.6569
1461.09	0.5979
1470.13	0.5661
1479.17	0.5753
1488.21	0.5039
1497.25	0.4102
1506.28	0.2394
1515.32	0.1759
1524.36	0.2115
1533.4	0.2991
1542.44	0.6038
1551.48	0.6601
1560.51	0.5829
1569.55	0.5272
1578.59	0.7534
1587.63	0.8061
1596.67	0.8209
1605.71	0.8299
1614.74	0.833
1623.78	0.8368
1632.82	0.8489
1641.86	0.8612
1650.9	0.8665
1659.93	0.869
1668.97	0.8684
1678.01	0.8653
1687.05	0.8554
1696.09	0.8415
1705.13	0.8446
1714.16	0.8737
1723.2	0.8989
1732.24	0.9091
1741.28	0.9137
1750.32	0.9168
1759.36	0.9191
1768.39	0.9207
1777.43	0.923
1786.47	0.9247
1795.51	0.9249
1804.55	0.9241
1813.58	0.9229
1822.62	0.9214
1831.66	0.9199
1840.7	0.9184
1849.74	0.9168
1858.78	0.915
1867.81	0.9129
1876.85	0.911
1885.89	0.9098
1894.93	0.9086
1903.97	0.9078
1913.01	0.9073
1922.04	0.9067
1931.08	0.9055
1940.12	0.9045
1949.16	0.9053
1958.2	0.9056
1967.23	0.9051
1976.27	0.9044
1985.31	0.9036
1994.35	0.9028
2003.39	0.9018
2012.43	0.9007
2021.46	0.8995
2030.5	0.8968
2039.54	0.8938
2048.58	0.8905
2057.62	0.887
2066.66	0.8845
2075.69	0.8827
2084.73	0.881
2093.77	0.88
2102.81	0.8788
2111.85	0.8777
2120.89	0.8759
2129.92	0.8744
2138.96	0.8742
2148	0.8728
2157.04	0.8712
2166.08	0.8683
2175.11	0.8632
2184.15	0.8608
2193.19	0.86
2202.23	0.8598
2211.27	0.8572
2220.31	0.8406
2229.34	0.8279
2238.38	0.7708
2247.42	0.623
2256.46	0.7097
2265.5	0.8733
2274.54	0.8789
2283.57	0.8784
2292.61	0.8774
2301.65	0.8737
2310.69	0.8675
2319.73	0.8652
2328.76	0.8635
2337.8	0.8643
2346.84	0.8635
2355.88	0.8627
2364.92	0.862
2373.96	0.8619
2382.99	0.8618
2392.03	0.8617
2401.07	0.8613
2410.11	0.8604
2419.15	0.8596
2428.19	0.8588
2437.22	0.8578
2446.26	0.8563
2455.3	0.8536
2464.34	0.8512
2473.38	0.8509
2482.41	0.8519
2491.45	0.8531
2500.49	0.8536
2509.53	0.8495
2518.57	0.845
2527.61	0.8415
2536.64	0.8418
2545.68	0.8408
2554.72	0.8388
2563.76	0.8374
2572.8	0.8361
2581.84	0.8352
2590.87	0.8347
2599.91	0.8333
2608.95	0.8315
2617.99	0.8286
2627.03	0.825
2636.07	0.8225
2645.1	0.8223
2654.14	0.8228
2663.18	0.8234
2672.22	0.8247
2681.26	0.8263
2690.29	0.8279
2699.33	0.8295
2708.37	0.831
2717.41	0.8306
2726.45	0.8286
2735.49	0.8263
2744.52	0.8237
2753.56	0.8231
2762.6	0.8229
2771.64	0.8247
2780.68	0.8228
2789.72	0.8205
2798.75	0.8188
2807.79	0.8153
2816.83	0.8107
2825.87	0.8073
2834.91	0.8071
2843.94	0.8056
2852.98	0.7983
2862.02	0.7966
2871.06	0.7966
2880.1	0.797
2889.14	0.7977
2898.17	0.7991
2907.21	0.799
2916.25	0.7978
2925.29	0.7974
2934.33	0.7975
2943.37	0.798
2952.4	0.7986
2961.44	0.7991
2970.48	0.7997
2979.52	0.7998
2988.56	0.7999
2997.59	0.7998
3006.63	0.7993
3015.67	0.7983
3024.71	0.7972
3033.75	0.7959
3042.79	0.7938
3051.82	0.7908
3060.86	0.7863
3069.9	0.7795
3078.94	0.7724
3087.98	0.7644
3097.02	0.7563
3106.05	0.7483
3115.09	0.7406
3124.13	0.7305
3133.17	0.7166
3142.21	0.7052
3151.24	0.7049
3160.28	0.7069
3169.32	0.7149
3178.36	0.7337
3187.4	0.7629
3196.44	0.7642
3205.47	0.7619
3214.51	0.7583
3223.55	0.7555
3232.59	0.7523
3241.63	0.7476
3250.67	0.7431
3259.7	0.7393
3268.74	0.7363
3277.78	0.732
3286.82	0.7295
3295.86	0.7284
3304.9	0.7271
3313.93	0.7255
3322.97	0.7236
3332.01	0.7227
3341.05	0.7212
3350.09	0.7168
3359.12	0.7126
3368.16	0.7084
3377.2	0.704
3386.24	0.6999
3395.28	0.6958
3404.32	0.6914
3413.35	0.6874
3422.39	0.6844
3431.43	0.6834
3440.47	0.6832
3449.51	0.6827
3458.55	0.682
3467.58	0.6819
3476.62	0.6824
3485.66	0.6833
3494.7	0.6837
3503.74	0.6849
3512.77	0.6852
3521.81	0.6858
3530.85	0.6867
3539.89	0.688
3548.93	0.6911
3557.97	0.6992
3567	0.6995
3576.04	0.7019
3585.08	0.7065
3594.12	0.7099
3603.16	0.7126
3612.2	0.7153
3621.23	0.7191
3630.27	0.7235
3639.31	0.7309
3648.35	0.7384
3657.39	0.7455
3666.42	0.7502
3675.46	0.7519
3684.5	0.7529
3693.54	0.7586
3702.58	0.759
3711.62	0.7626
3720.65	0.7646
3729.69	0.7651
3738.73	0.7643
3747.77	0.7627
3756.81	0.7622
3765.85	0.7619
3774.88	0.7624
3783.92	0.7632
3792.96	0.7641
3802	0.7648
3811.04	0.7654
3820.08	0.7655
3829.11	0.7659
3838.15	0.7664
3847.19	0.7674
3856.23	0.7664
3865.27	0.7629
3874.3	0.7605
3883.34	0.7592
3892.38	0.7577
3901.42	0.7571
3910.46	0.7572
3919.5	0.757
