Infrared Spectrum: Galactopyranose, 1,2:3,4-di-O-isopropylidene-, D-
Formula: C12 H20 O6
CAS: 4064-06-6
State: SOLUTION (10% CCl4 FOR 3800-1335, 10% CS2 FOR 1335-460 CM^-^1) VS SOLVENT
Class: COBLENTZ III
Instrument: DOW KBr FOREPRISM-GRATING
Instrument parameters: BLAZED AT 3.5, 12.0, 20.0 MICRON AND CHANGED AT 5.0, 7.5, 14.9 MICRON
Sampling: TRANSMISSION
Path length: 0.011 CM, 0.012 CM
Resolution: 2
Origin: DOW CHEMICAL COMPANY
1/CM	TRANSMITTANCE
3796	0.8813
3787	0.8828
3778	0.8836
3769	0.8825
3760	0.8823
3751	0.8843
3742	0.8871
3733	0.8885
3724	0.8886
3715	0.8873
3706	0.8845
3697	0.8803
3688	0.8735
3679	0.8625
3670	0.8537
3661	0.8609
3652	0.859
3643	0.8492
3634	0.7971
3625	0.7834
3616	0.7651
3607	0.6551
3598	0.5858
3589	0.6445
3580	0.6817
3571	0.689
3562	0.6687
3553	0.6318
3544	0.6003
3535	0.5734
3526	0.5557
3517	0.5426
3508	0.5324
3499	0.5265
3490	0.529
3481	0.54
3472	0.5544
3463	0.57
3454	0.5877
3445	0.6051
3436	0.6202
3427	0.6315
3418	0.6428
3409	0.6558
3400	0.6703
3391	0.6848
3382	0.7028
3373	0.7186
3364	0.7328
3355	0.7465
3346	0.7596
3337	0.7724
3328	0.7848
3319	0.7971
3310	0.8078
3301	0.8169
3292	0.8231
3283	0.8294
3274	0.8359
3265	0.841
3256	0.8453
3247	0.8482
3238	0.8505
3229	0.8521
3220	0.8539
3211	0.8567
3202	0.8594
3193	0.8618
3184	0.8637
3175	0.8654
3166	0.8671
3157	0.8696
3148	0.8724
3139	0.8743
3130	0.8762
3121	0.8768
3112	0.8777
3103	0.8783
3094	0.8778
3085	0.8771
3076	0.8764
3067	0.874
3058	0.8711
3049	0.8682
3040	0.8623
3031	0.8521
3022	0.7968
3013	0.6771
3004	0.4052
2995	0.1509
2986	0.1468
2977	0.2433
2968	0.363
2959	0.3822
2950	0.3938
2941	0.2767
2932	0.2861
2923	0.3479
2914	0.3332
2905	0.3166
2896	0.3595
2887	0.466
2878	0.6022
2869	0.6885
2860	0.7451
2851	0.7853
2842	0.8161
2833	0.8204
2824	0.8301
2815	0.8415
2806	0.845
2797	0.8484
2788	0.8562
2779	0.8593
2770	0.8613
2761	0.862
2752	0.8604
2743	0.854
2734	0.8511
2725	0.8564
2716	0.8668
2707	0.8723
2698	0.8752
2689	0.876
2680	0.8763
2671	0.8761
2662	0.8783
2653	0.883
2644	0.8833
2635	0.8823
2626	0.8807
2617	0.8817
2608	0.8855
2599	0.8877
2590	0.8898
2581	0.8903
2572	0.8897
2563	0.8917
2554	0.8957
2545	0.9003
2536	0.9028
2527	0.9051
2518	0.9073
2509	0.9095
2500	0.9118
2491	0.912
2482	0.9109
2473	0.9057
2464	0.8983
2455	0.8984
2446	0.897
2437	0.8947
2428	0.8925
2419	0.8915
2410	0.8906
2401	0.8897
2392	0.8891
2383	0.8893
2374	0.8907
2365	0.8928
2356	0.8962
2347	0.8992
2338	0.8994
2329	0.8991
2320	0.8971
2311	0.8925
2302	0.8848
2293	0.8745
2284	0.8678
2275	0.8709
2266	0.8728
2257	0.8746
2248	0.8736
2239	0.8714
2230	0.8712
2221	0.8715
2212	0.8718
2203	0.87
2194	0.8678
2185	0.8652
2176	0.8628
2167	0.8613
2158	0.8621
2149	0.8599
2140	0.8559
2131	0.8566
2122	0.8599
2113	0.8625
2104	0.8643
2095	0.8648
2086	0.8647
2077	0.8646
2068	0.8595
2059	0.8589
2050	0.8606
2041	0.8608
2032	0.8589
2023	0.8571
2014	0.8594
2005	0.8656
1996	0.8455
1987	0.8295
1978	0.8274
1969	0.8267
1960	0.8233
1951	0.8205
1942	0.8175
1933	0.8228
1924	0.8275
1915	0.8293
1906	0.8297
1897	0.8273
1888	0.8244
1879	0.8252
1870	0.8265
1861	0.8282
1852	0.8303
1843	0.8308
1834	0.8312
1825	0.8304
1816	0.8295
1807	0.8275
1798	0.8249
1789	0.8228
1780	0.8213
1771	0.8178
1762	0.8037
1753	0.7988
1744	0.7983
1735	0.8034
1726	0.8039
1717	0.8075
1708	0.8145
1699	0.8203
1690	0.8245
1681	0.8253
1672	0.8209
1663	0.8137
1654	0.8101
1645	0.8065
1636	0.803
1627	0.7998
1618	0.8048
1609	0.8132
1600	0.8238
1591	0.833
1582	0.8368
1573	0.8371
1564	0.8433
1555	0.8555
1546	0.8671
1537	0.8675
1528	0.8499
1519	0.8378
1510	0.8301
1501	0.8189
1492	0.8018
1483	0.774
1474	0.7356
1465	0.6525
1456	0.4235
1447	0.664
1438	0.6298
1429	0.6699
1420	0.6671
1411	0.6212
1402	0.5943
1393	0.388
1384	0.0461
1375	0.068
1366	0.3816
1357	0.5628
1348	0.5691
1339	0.5508
1330	0.6186
1321	0.626
1312	0.4408
1303	0.4472
1294	0.5065
1285	0.4647
1276	0.5485
1267	0.3362
1258	0.0436
1249	0.0727
1240	0.224
1231	0.305
1222	0.1087
1213	0.0122
1204	0.0558
1195	0.2777
1186	0.3144
1177	0.0567
1168	0.0464
1159	0.2045
1150	0.3694
1141	0.2311
1132	0.3354
1123	0.2351
1114	0.097
1105	0.0968
1096	0.086
1087	0.0749
1078	0.0095
1069	0.0048
1060	0.0545
1051	0.192
1042	0.2213
1033	0.157
1024	0.3845
1015	0.2375
1006	0.0113
997	0.0437
988	0.1994
979	0.3542
970	0.5005
961	0.4415
952	0.5026
943	0.6687
934	0.6346
925	0.5893
916	0.2708
907	0.3946
898	0.1898
889	0.2687
880	0.343
871	0.5049
862	0.3492
853	0.4717
844	0.6895
835	0.7549
826	0.7578
817	0.7492
808	0.6935
799	0.7124
790	0.7471
781	0.7515
772	0.5636
763	0.6997
754	0.7828
745	0.8243
736	0.8321
727	0.8344
718	0.8239
709	0.7837
700	0.7441
691	0.7226
682	0.7425
673	0.7162
664	0.7412
655	0.6537
646	0.6212
637	0.6637
628	0.635
619	0.6731
610	0.6971
601	0.7184
592	0.7325
583	0.7372
574	0.7169
565	0.6946
556	0.6874
547	0.6549
538	0.6812
529	0.6253
520	0.4824
511	0.362
502	0.5946
493	0.6788
484	0.6951
475	0.6965
466	0.7075
