Infrared Spectrum: p-Allyloxybenzaldehyde
Formula: C 10 H 10 O 2
CAS: 40663-68-1
State: gas
Origin: EPA-IR VAPOR PHASE LIBRARY
1/CM	ABSORBANCE
549.8	0.00674
559.445	0.00584
569.09	0.00596
578.734	0.00805
588.379	0.01462
598.024	0.01805
607.669	0.01487
617.313	0.01265
626.958	0.00996
636.603	0.00778
646.248	0.01034
655.893	0.01151
665.537	0.00854
675.182	0.00468
684.827	0.00345
694.472	0.00305
704.116	0.00258
713.761	0.00251
723.406	0.00229
733.051	0.00273
742.695	0.00328
752.34	0.00622
761.985	0.00842
771.63	0.007
781.275	0.00844
790.919	0.01145
800.564	0.01507
810.209	0.02444
819.854	0.04151
829.498	0.05298
839.143	0.05219
848.788	0.05627
858.433	0.03757
868.078	0.01389
877.722	0.00796
887.367	0.00735
897.012	0.00889
906.657	0.01239
916.301	0.02001
925.946	0.03294
935.591	0.03076
945.236	0.01959
954.88	0.01527
964.525	0.01607
974.17	0.02141
983.815	0.03331
993.46	0.05294
1003.1	0.06395
1012.75	0.06372
1022.39	0.06399
1032.04	0.04738
1041.68	0.02441
1051.33	0.01338
1060.97	0.0099
1070.62	0.00893
1080.26	0.00917
1089.91	0.01161
1099.55	0.01512
1109.2	0.01538
1118.84	0.01312
1128.49	0.01209
1138.13	0.01762
1147.78	0.05017
1157.42	0.17687
1167.07	0.13386
1176.71	0.02742
1186.36	0.02435
1196	0.04833
1205.64	0.08829
1215.29	0.12958
1224.93	0.17281
1234.58	0.16943
1244.22	0.16966
1253.87	0.17118
1263.51	0.11382
1273.16	0.06459
1282.8	0.04738
1292.45	0.0631
1302.09	0.08284
1311.74	0.05409
1321.38	0.02564
1331.03	0.01674
1340.67	0.01428
1350.32	0.01464
1359.96	0.0164
1369.61	0.01619
1379.25	0.01836
1388.9	0.02301
1398.54	0.01701
1408.18	0.01694
1417.83	0.0269
1427.47	0.02947
1437.12	0.01438
1446.76	0.01063
1456.41	0.01478
1466.05	0.01717
1475.7	0.01262
1485.34	0.01501
1494.99	0.04059
1504.63	0.09638
1514.28	0.06146
1523.92	0.01701
1533.57	0.01121
1543.21	0.01047
1552.86	0.01228
1562.5	0.02182
1572.15	0.0549
1581.79	0.0997
1591.44	0.14977
1601.08	0.21479
1610.73	0.13607
1620.37	0.04903
1630.01	0.02216
1639.66	0.01643
1649.3	0.01503
1658.95	0.01263
1668.59	0.01423
1678.24	0.01977
1687.88	0.02801
1697.53	0.05205
1707.17	0.13253
1716.82	0.28807
1726.46	0.1678
1736.11	0.03253
1745.75	0.01218
1755.4	0.00741
1765.04	0.00595
1774.69	0.00494
1784.33	0.00398
1793.98	0.00381
1803.62	0.00357
1813.27	0.00323
1822.91	0.00307
1832.55	0.00305
1842.2	0.00348
1851.84	0.00432
1861.49	0.0053
1871.13	0.0047
1880.78	0.00426
1890.42	0.00465
1900.07	0.00438
1909.71	0.00348
1919.36	0.0029
1929	0.0028
1938.65	0.00271
1948.29	0.00259
1957.94	0.00292
1967.58	0.00329
1977.23	0.00353
1986.87	0.00387
1996.52	0.00422
2006.16	0.00463
2015.81	0.00466
2025.45	0.00367
2035.1	0.00328
2044.74	0.00314
2054.38	0.00307
2064.03	0.00281
2073.67	0.00244
2083.32	0.00228
2092.96	0.00211
2102.61	0.00191
2112.25	0.00145
2121.9	0.00129
2131.54	0.00108
2141.19	0.00105
2150.83	0.0009969
2160.48	0.0008909
2170.12	0.0008905
2179.77	0.0008027
2189.41	0.0007911
2199.06	0.000841
2208.7	0.0008397
2218.35	0.0009583
2227.99	0.0009422
2237.64	0.0009109
2247.28	0.0009978
2256.92	0.00122
2266.57	0.00148
2276.21	0.00138
2285.86	0.00132
2295.5	0.00129
2305.15	0.00124
2314.79	0.00136
2324.44	0.00132
2334.08	0.0009866
2343.73	0.0009673
2353.37	0.00103
2363.02	0.00112
2372.66	0.00132
2382.31	0.00125
2391.95	0.00153
2401.6	0.00189
2411.24	0.00223
2420.89	0.00221
2430.53	0.00216
2440.18	0.0024
2449.82	0.00264
2459.47	0.00253
2469.11	0.00215
2478.75	0.00207
2488.4	0.00216
2498.04	0.00233
2507.69	0.00249
2517.33	0.00256
2526.98	0.00244
2536.62	0.00284
2546.27	0.00346
2555.91	0.00361
2565.56	0.00354
2575.2	0.00362
2584.85	0.00364
2594.49	0.00338
2604.14	0.00303
2613.78	0.00278
2623.43	0.00254
2633.07	0.00242
2642.72	0.00233
2652.36	0.00263
2662.01	0.00323
2671.65	0.00504
2681.29	0.008
2690.94	0.01148
2700.58	0.01705
2710.23	0.02838
2719.87	0.04218
2729.52	0.04208
2739.16	0.02711
2748.81	0.01557
2758.45	0.01152
2768.1	0.01192
2777.74	0.01554
2787.39	0.02241
2797.03	0.02788
2806.68	0.0295
2816.32	0.03052
2825.97	0.02424
2835.61	0.01464
2845.26	0.00982
2854.9	0.00876
2864.55	0.01024
2874.19	0.0131
2883.84	0.01493
2893.48	0.01449
2903.12	0.01323
2912.77	0.01275
2922.41	0.01363
2932.06	0.01467
2941.7	0.01473
2951.35	0.01347
2960.99	0.01234
2970.64	0.01006
2980.28	0.00883
2989.93	0.00983
2999.57	0.01076
3009.22	0.01046
3018.86	0.01176
3028.51	0.01436
3038.15	0.01324
3047.8	0.00896
3057.44	0.00756
3067.09	0.00975
3076.73	0.0136
3086.38	0.01492
3096.02	0.01731
3105.67	0.01316
3115.31	0.0075
3124.95	0.00391
3134.6	0.00236
3144.24	0.00186
3153.89	0.0019
3163.53	0.00147
3173.18	0.0009588
3182.82	0.0009424
3192.47	0.00118
3202.11	0.00103
3211.76	0.000956
3221.4	0.0004864
3231.05	0.0005034
3240.69	0.0005503
3250.34	0.0003594
3259.98	0.0003889
3269.63	0.0001982
3279.27	0.0001198
3288.92	0.0003112
3298.56	0.0004126
3308.21	0.0003502
3317.85	0.0006266
3327.49	0.0004875
3337.14	0.0004204
3346.78	0.0004494
3356.43	0.0006715
3366.07	0.0005402
3375.72	0.000955
3385.36	0.00127
3395.01	0.00182
3404.65	0.00326
3414.3	0.00398
3423.94	0.00288
3433.59	0.0017
3443.23	0.0009078
3452.88	0.0006332
3462.52	0.0004393
3472.17	0.0004095
3481.81	0.0003782
3491.46	0.0005105
3501.1	0.0001321
3510.75	0.0003066
3520.39	0.0002593
3530.04	0.000218
3539.68	0.0002441
3549.32	9.506e-05
3558.97	0.0002767
3568.61	0.0002079
3578.26	0.0003436
3587.9	0.0003693
3597.55	0.0003282
3607.19	0.0004452
3616.84	0.0002434
3626.48	0.0002212
3636.13	0.00025
3645.77	0.0005306
3655.42	0.000223
3665.06	0.0004445
3674.71	0.0005068
3684.35	0.0004173
3694	0.0002724
3703.64	0.0002007
3713.29	0.0004923
3722.93	0.000183
3732.58	0.0003199
3742.22	0.000253
3751.86	0.0003013
3761.51	0.0002902
3771.15	0.0004032
3780.8	0.0004136
3790.44	0.0004865
3800.09	0.0003724
3809.73	0.0001708
3819.38	0.0005738
3829.02	0.0003195
3838.67	0.0004092
3848.31	0.0003328
3857.96	0.0004494
3867.6	0.0004709
3877.25	0.0001883
3886.89	0.0005006
3896.54	0.0005028
3906.18	0.0004807
3915.83	0.0005985
3925.47	0.0006384
3935.12	0.0005464
3944.76	0.0005167
3954.41	0.0004644
3964.05	0.0004933
3973.69	0.0003775
3983.34	0.0004014
3992.98	0.0004482
