Infrared Spectrum: Beta-PHENYLSERINE, ETHYL ESTER
Formula: C11 H15 N O3
CAS: 40682-56-2
State: SOLID (MINERAL OIL MULL)
Class: COBLENTZ
Instrument: Not specified, most likely a prism, grating, or hybrid spectrometer.
Sampling: TRANSMISSION
Resolution: 4
Origin: DOW CHEMICAL COMPANY
MICROMETERS	TRANSMITTANCE
2.048	0.794
2.08922	0.797
2.13044	0.799
2.17165	0.802
2.21287	0.787
2.25409	0.761
2.29531	0.766
2.33653	0.778
2.37774	0.778
2.41896	0.792
2.46018	0.814
2.5014	0.823
2.54262	0.828
2.58383	0.837
2.62505	0.83
2.66627	0.831
2.70749	0.84
2.74871	0.84
2.78992	0.833
2.83114	0.811
2.87236	0.768
2.91358	0.735
2.9548	0.557
2.99601	0.451
3.03723	0.394
3.07845	0.451
3.11967	0.334
3.16089	0.281
3.2021	0.246
3.24332	0.216
3.28454	0.216
3.32576	0.2
3.36698	0.041
3.40819	0.018
3.44941	0.032
3.49063	0.096
3.53185	0.277
3.57307	0.346
3.61428	0.389
3.6555	0.37
3.69672	0.418
3.73794	0.495
3.77915	0.593
3.82037	0.651
3.86159	0.698
3.90281	0.727
3.94403	0.751
3.98524	0.763
4.02646	0.789
4.06768	0.799
4.1089	0.826
4.15012	0.83
4.19133	0.837
4.23255	0.838
4.27377	0.854
4.31499	0.876
4.35621	0.879
4.39742	0.883
4.43864	0.888
4.47986	0.897
4.52108	0.897
4.5623	0.898
4.60351	0.9
4.64473	0.895
4.68595	0.897
4.72717	0.888
4.76839	0.876
4.8096	0.89
4.85082	0.898
4.89204	0.893
4.93326	0.886
4.97448	0.907
5.01569	0.909
5.05691	0.902
5.09813	0.885
5.13935	0.89
5.18057	0.915
5.22178	0.903
5.263	0.881
5.30422	0.873
5.34544	0.891
5.38666	0.905
5.42787	0.898
5.46909	0.871
5.51031	0.852
5.55153	0.85
5.59275	0.857
5.63396	0.813
5.67518	0.716
5.7164	0.459
5.75762	0.096
5.79884	0.384
5.84005	0.66
5.88127	0.715
5.92249	0.771
5.96371	0.792
6.00493	0.795
6.04614	0.785
6.08736	0.773
6.12858	0.756
6.1698	0.668
6.21102	0.483
6.25223	0.416
6.29345	0.269
6.33467	0.679
6.37589	0.761
6.41711	0.771
6.45832	0.775
6.49954	0.783
6.54076	0.79
6.58198	0.778
6.6232	0.744
6.66441	0.644
6.70563	0.545
6.74685	0.49
6.78807	0.296
6.82929	0.166
6.8705	0.147
6.91172	0.307
6.95294	0.542
6.99416	0.631
7.03537	0.612
7.07659	0.538
7.11781	0.507
7.15903	0.512
7.20025	0.367
7.24146	0.166
7.28268	0.427
7.3239	0.495
7.36512	0.514
7.40634	0.528
7.44755	0.535
7.48877	0.598
7.52999	0.6
7.57121	0.641
7.61243	0.643
7.65364	0.624
7.69486	0.591
7.73608	0.476
7.7773	0.38
7.81852	0.245
7.85973	0.413
7.90095	0.61
7.94217	0.667
7.98339	0.68
8.02461	0.66
8.06582	0.579
8.10704	0.387
8.14826	0.15
8.18948	0.13
8.2307	0.255
8.27191	0.348
8.31313	0.349
8.35435	0.339
8.39557	0.399
8.43679	0.339
8.478	0.229
8.51922	0.09
8.56044	0.07
8.60166	0.2
8.64288	0.384
8.68409	0.524
8.72531	0.6
8.76653	0.627
8.80775	0.626
8.84897	0.576
8.89018	0.471
8.9314	0.351
8.97262	0.276
9.01384	0.291
9.05506	0.44
9.09627	0.531
9.13749	0.545
9.17871	0.499
9.21993	0.343
9.26115	0.234
9.30236	0.307
9.34358	0.293
9.3848	0.183
9.42602	0.099
9.46724	0.06
9.50845	0.032
9.54967	0.068
9.59089	0.214
9.63211	0.279
9.67333	0.252
9.71454	0.231
9.75576	0.385
9.79698	0.519
9.8382	0.591
9.87942	0.617
9.92063	0.603
9.96185	0.483
10.0031	0.415
10.0443	0.387
10.0855	0.408
10.1267	0.469
10.1679	0.536
10.2092	0.578
10.2504	0.631
10.2916	0.672
10.3328	0.698
10.374	0.74
10.4152	0.754
10.4565	0.765
10.4977	0.766
10.5389	0.761
10.5801	0.754
10.6213	0.728
10.6626	0.662
10.7038	0.586
10.745	0.61
10.7862	0.708
10.8274	0.749
10.8686	0.749
10.9099	0.692
10.9511	0.593
10.9923	0.542
11.0335	0.608
11.0747	0.722
11.116	0.758
11.1572	0.77
11.1984	0.777
11.2396	0.782
11.2808	0.785
11.322	0.785
11.3633	0.773
11.4045	0.737
11.4457	0.67
11.4869	0.572
11.5281	0.548
11.5694	0.615
11.6106	0.682
11.6518	0.691
11.693	0.692
11.7342	0.694
11.7754	0.686
11.8167	0.644
11.8579	0.602
11.8991	0.588
11.9403	0.638
11.9815	0.67
12.0227	0.68
12.064	0.684
12.1052	0.684
12.1464	0.689
12.1876	0.694
12.2288	0.698
12.2701	0.699
12.3113	0.703
12.3525	0.706
12.3937	0.711
12.4349	0.716
12.4761	0.716
12.5174	0.716
12.5586	0.716
12.5998	0.716
12.641	0.715
12.6822	0.713
12.7235	0.708
12.7647	0.703
12.8059	0.698
12.8471	0.686
12.8883	0.658
12.9295	0.598
12.9708	0.476
13.012	0.315
13.0532	0.238
13.0944	0.186
13.1356	0.198
13.1769	0.291
13.2181	0.391
13.2593	0.459
13.3005	0.506
13.3417	0.531
13.3829	0.548
13.4242	0.559
13.4654	0.55
13.5066	0.528
13.5478	0.512
13.589	0.509
13.6303	0.533
13.6715	0.564
13.7127	0.59
13.7539	0.608
13.7951	0.617
13.8363	0.619
13.8776	0.626
13.9188	0.631
13.96	0.636
14.0012	0.641
14.0424	0.632
14.0836	0.614
14.1249	0.574
14.1661	0.497
14.2073	0.38
14.2485	0.241
14.2897	0.133
14.331	0.068
14.3722	0.111
14.4134	0.279
14.4546	0.452
14.4958	0.533
14.537	0.574
14.5783	0.591
14.6195	0.596
14.6607	0.598
14.7019	0.596
14.7431	0.591
14.7844	0.586
14.8256	0.583
14.8668	0.578
14.908	0.569
14.9492	0.569
14.9904	0.569
15.0317	0.571
15.0729	0.569
15.1141	0.566
15.1553	0.559
15.1965	0.557
15.2378	0.548
15.279	0.54
15.3202	0.535
15.3614	0.53
15.4026	0.523
15.4438	0.514
15.4851	0.507
15.5263	0.499
15.5675	0.488
15.6087	0.471
15.6499	0.449
15.6911	0.425
15.7324	0.403
15.7736	0.394
15.8148	0.392
15.856	0.389
