Infrared Spectrum: 2-Fluoro-6-methylpyridine
Formula: C 6 H 6 F N
CAS: 407-22-7
State: gas
Origin: EPA-IR VAPOR PHASE LIBRARY
1/CM	ABSORBANCE
549.8	0.003244
559.445	0.002834
569.09	0.0010155
578.735	0.00064283
588.38	0.0002
598.025	0.0004665
607.67	0.000448
617.315	0.0004799
626.96	0.0008056
636.605	0.000407
646.251	0.000304
655.896	0.00057494
665.541	0.00064744
675.186	0.0004619
684.831	0.0006339
694.476	0.001057
704.121	0.002284
713.766	0.004954
723.411	0.006024
733.056	0.005664
742.701	0.003274
752.346	0.002324
761.991	0.004684
771.636	0.010944
781.281	0.018354
790.926	0.024714
800.571	0.013464
810.216	0.006604
819.861	0.001764
829.507	0.0009564
839.152	0.0007285
848.797	0.00071
858.442	0.0008669
868.087	0.0007538
877.732	0.0007244
887.377	0.0006955
897.022	0.0007669
906.667	0.0011741
916.312	0.002314
925.957	0.005454
935.602	0.006334
945.247	0.005954
954.892	0.002664
964.537	0.002964
974.182	0.005404
983.827	0.006764
993.472	0.006774
1003.12	0.005014
1012.76	0.004784
1022.41	0.004104
1032.05	0.003464
1041.7	0.002434
1051.34	0.002304
1060.99	0.002394
1070.63	0.002974
1080.28	0.002944
1089.92	0.002984
1099.57	0.001824
1109.21	0.001225
1118.86	0.0009776
1128.5	0.0012901
1138.15	0.002264
1147.79	0.002264
1157.44	0.001744
1167.08	0.0009124
1176.73	0.0008505
1186.37	0.0009518
1196.02	0.0011395
1205.66	0.003464
1215.31	0.012304
1224.95	0.017984
1234.6	0.018984
1244.24	0.012124
1253.89	0.011434
1263.53	0.015134
1273.18	0.020354
1282.82	0.030494
1292.47	0.027014
1302.11	0.022714
1311.76	0.006814
1321.4	0.003384
1331.05	0.002134
1340.69	0.0013809
1350.34	0.0013613
1359.98	0.001784
1369.63	0.002654
1379.27	0.003454
1388.92	0.003714
1398.56	0.003274
1408.21	0.004404
1417.85	0.009594
1427.5	0.019534
1437.14	0.040674
1446.79	0.059444
1456.43	0.058564
1466.08	0.040004
1475.73	0.017874
1485.37	0.011204
1495.02	0.008904
1504.66	0.007144
1514.31	0.006584
1523.95	0.007764
1533.6	0.009864
1543.24	0.012274
1552.89	0.014864
1562.53	0.020284
1572.18	0.029614
1581.82	0.040704
1591.47	0.050584
1601.11	0.044424
1610.76	0.032814
1620.4	0.016584
1630.05	0.007474
1639.69	0.003044
1649.34	0.001834
1658.98	0.0013443
1668.63	0.0011581
1678.27	0.0008794
1687.92	0.0008758
1697.56	0.0008699
1707.21	0.0008312
1716.85	0.0009793
1726.5	0.001085
1736.14	0.001232
1745.79	0.0011272
1755.43	0.0010364
1765.08	0.0008417
1774.72	0.000837
1784.37	0.0007226
1794.01	0.0006866
1803.66	0.00057157
1813.3	0.00059231
1822.95	0.00060622
1832.59	0.0009395
1842.24	0.0010783
1851.88	0.0010575
1861.53	0.0008335
1871.17	0.00059426
1880.82	0.00055134
1890.46	0.0005427
1900.11	0.0006496
1909.75	0.0007475
1919.4	0.0007917
1929.04	0.0010316
1938.69	0.0013675
1948.33	0.0014795
1957.98	0.0014291
1967.62	0.0009647
1977.27	0.0006797
1986.91	0.0006951
1996.56	0.0006958
2006.2	0.0007561
2015.85	0.0007496
2025.49	0.000654
2035.14	0.00058104
2044.78	0.0005019
2054.43	0.0005008
2064.07	0.0004705
2073.72	0.0004975
2083.36	0.0005237
2093.01	0.00056076
2102.65	0.0005484
2112.3	0.000553552
2121.94	0.000454
2131.59	0.0005346
2141.23	0.0005135
2150.88	0.00065074
2160.52	0.0007899
2170.17	0.0008387
2179.81	0.0007994
2189.46	0.0007014
2199.1	0.00057994
2208.75	0.0007683
2218.39	0.0007796
2228.04	0.0007645
2237.68	0.0007202
2247.33	0.00060722
2256.97	0.00064388
2266.62	0.0006606
2276.26	0.0006669
2285.91	0.00088
2295.55	0.0009496
2305.2	0.000996
2314.84	0.0008882
2324.49	0.0008167
2334.13	0.000691
2343.78	0.00061978
2353.42	0.0005383
2363.07	0.00062731
2372.72	0.000672
2382.36	0.0006663
2392.01	0.0006416
2401.65	0.00062602
2411.3	0.00062486
2420.94	0.00062327
2430.59	0.0007028
2440.23	0.0007349
2449.88	0.0007724
2459.52	0.0006959
2469.17	0.0005404
2478.81	0.0005134
2488.46	0.000562883
2498.1	0.0006563
2507.75	0.0007056
2517.39	0.000704
2527.04	0.0007462
2536.68	0.0006778
2546.33	0.00063309
2555.97	0.000714
2565.62	0.00055255
2575.26	0.0007402
2584.91	0.0006672
2594.55	0.0006884
2604.2	0.00058451
2613.84	0.0005435
2623.49	0.0004606
2633.13	0.0004988
2642.78	0.0005114
2652.42	0.000433
2662.07	0.00065316
2671.71	0.000559222
2681.36	0.00059076
2691	0.00064779
2700.65	0.00059745
2710.29	0.0004826
2719.94	0.00064525
2729.58	0.0005357
2739.23	0.00062338
2748.87	0.0006693
2758.52	0.0005274
2768.16	0.0004794
2777.81	0.0004614
2787.45	0.0005494
2797.1	0.0005167
2806.74	0.00060288
2816.39	0.00060253
2826.03	0.0008348
2835.68	0.0007879
2845.32	0.0010312
2854.97	0.0013916
2864.61	0.001804
2874.26	0.001584
2883.9	0.0015196
2893.55	0.0014886
2903.19	0.001714
2912.84	0.002514
2922.48	0.003864
2932.13	0.005154
2941.77	0.005024
2951.42	0.003954
2961.06	0.002534
2970.71	0.002434
2980.35	0.002854
2990	0.003024
2999.64	0.002804
3009.29	0.002394
3018.93	0.002334
3028.58	0.002734
3038.22	0.003264
3047.87	0.003154
3057.51	0.003394
3067.16	0.004754
3076.8	0.005294
3086.45	0.005274
3096.09	0.003534
3105.74	0.001994
3115.38	0.0010365
3125.03	0.00061707
3134.67	0.0005817
3144.32	0.0004631
3153.96	0.0004854
3163.61	0.0004802
3173.25	0.000405
3182.9	0.000286
3192.54	0.000373
3202.19	0.000265
3211.83	0.000228
3221.48	0.000321
3231.12	0.000278
3240.77	0.000191
3250.41	0.000181
3260.06	7.8e-05
3269.7	0.000113
3279.35	9.1e-05
3289	0.000136
3298.64	0.000252
3308.29	0.000247
3317.93	0.00032
3327.58	0.000213
3337.22	0.000287
3346.87	0.00023
3356.51	0.000282
3366.16	0.000239
3375.8	0.000407
3385.45	0.00021
3395.09	0.000116
3404.74	0.000222
3414.38	8.1e-05
3424.03	0.000416
3433.67	0.000239
3443.32	0.000195
3452.96	0.000222
3462.61	0.000275
3472.25	0.000211
3481.9	8.5e-05
3491.54	0.000254
3501.19	0.000166
3510.83	0.00031
3520.48	0.00027
3530.12	0.000216
3539.77	0.000147
3549.41	0.000343
3559.06	0.000363
3568.7	0.000376
3578.35	0.000212
3587.99	0.000369
3597.64	0.000321
3607.28	0.000311
3616.93	0.000188
3626.57	0.000389
3636.22	0.000283
3645.86	0.000393
3655.51	0.000308
3665.15	0.000287
3674.8	0.000314
3684.44	0.000268
3694.09	0.000229
3703.73	5.7e-05
3713.38	0.000357
3723.02	0.000354
3732.67	0.00028
3742.31	0.000306
3751.96	0.000304
3761.6	0.000366
3771.25	0.000391
3780.89	0.000395
3790.54	0.000261
3800.18	0.000435
3809.83	0.000108
3819.47	0.00032
3829.12	0.000254
3838.76	0.000309
3848.41	0.000234
3858.05	0.000324
3867.7	0.00035
3877.34	0.00035
3886.99	0.000297
3896.63	0.000113
3906.28	0.000243
3915.92	0.000222
3925.57	0.000258
3935.21	0.000386
3944.86	0.00015
3954.5	0.000336
3964.15	0.000248
3973.79	0.0004758
3983.44	0.000138
3993.08	0.000384
