Infrared Spectrum: 4-(Trifluoromethoxy)bromobenzene
Formula: C 7 H 4 Br F 3 O
CAS: 407-14-7
State: gas
Origin: EPA-IR VAPOR PHASE LIBRARY
1/CM	ABSORBANCE
549.8	0.004066
559.445	0.002236
569.09	0.001936
578.734	0.0010532
588.379	0.001656
598.024	0.001258
607.669	0.002166
617.313	0.003626
626.958	0.003296
636.603	0.005016
646.248	0.005836
655.893	0.008496
665.537	0.008946
675.182	0.008366
684.827	0.004796
694.472	0.003746
704.116	0.003476
713.761	0.006346
723.406	0.008326
733.051	0.004516
742.695	0.003576
752.34	0.002506
761.985	0.002206
771.63	0.002586
781.275	0.004316
790.919	0.007836
800.564	0.013546
810.209	0.017106
819.854	0.019596
829.498	0.023826
839.143	0.024676
848.788	0.018236
858.433	0.009216
868.078	0.004236
877.722	0.001936
887.367	0.002326
897.012	0.002786
906.657	0.003856
916.301	0.013816
925.946	0.019056
935.591	0.007456
945.236	0.004436
954.88	0.004656
964.525	0.004616
974.17	0.005196
983.815	0.005856
993.46	0.005996
1003.1	0.012206
1012.75	0.073786
1022.39	0.024016
1032.04	0.004816
1041.68	0.005126
1051.33	0.009116
1060.97	0.032056
1070.62	0.076696
1080.26	0.046036
1089.91	0.020826
1099.55	0.016646
1109.2	0.013646
1118.84	0.011506
1128.49	0.012496
1138.13	0.019066
1147.78	0.031996
1157.42	0.060716
1167.07	0.113656
1176.71	0.192676
1186.36	0.292556
1196	0.291496
1205.64	0.287476
1215.29	0.439396
1224.93	0.478416
1234.58	0.304116
1244.22	0.239426
1253.87	0.375116
1263.51	0.626716
1273.16	0.687396
1282.8	0.345666
1292.45	0.119196
1302.09	0.054206
1311.74	0.034366
1321.38	0.024666
1331.03	0.018946
1340.67	0.014396
1350.32	0.010616
1359.96	0.007656
1369.61	0.005626
1379.25	0.004906
1388.9	0.005926
1398.54	0.006866
1408.18	0.007256
1417.83	0.007576
1427.47	0.009896
1437.12	0.008266
1446.76	0.007796
1456.41	0.011236
1466.05	0.019676
1475.7	0.047456
1485.34	0.149776
1494.99	0.127656
1504.63	0.022276
1514.28	0.010876
1523.92	0.007606
1533.57	0.005026
1543.21	0.004166
1552.86	0.003856
1562.5	0.004136
1572.15	0.005666
1581.79	0.006526
1591.44	0.006106
1601.08	0.005756
1610.73	0.005886
1620.37	0.005836
1630.01	0.006816
1639.66	0.006826
1649.3	0.005126
1658.95	0.004166
1668.59	0.003316
1678.24	0.002476
1687.88	0.002416
1697.53	0.002076
1707.17	0.002466
1716.82	0.002436
1726.46	0.002456
1736.11	0.003186
1745.75	0.003746
1755.4	0.004816
1765.04	0.003946
1774.69	0.002386
1784.33	0.002286
1793.98	0.002186
1803.62	0.002216
1813.27	0.002306
1822.91	0.002026
1832.55	0.001716
1842.2	0.001886
1851.84	0.002136
1861.49	0.002656
1871.13	0.004096
1880.78	0.005526
1890.42	0.005126
1900.07	0.003546
1909.71	0.002166
1919.36	0.001686
1929	0.001896
1938.65	0.001816
1948.29	0.001666
1957.94	0.001706
1967.58	0.001976
1977.23	0.001946
1986.87	0.002186
1996.52	0.002366
2006.16	0.003066
2015.81	0.003656
2025.45	0.003186
2035.1	0.002756
2044.74	0.002616
2054.38	0.002926
2064.03	0.003176
2073.67	0.002806
2083.32	0.002506
2092.96	0.002116
2102.61	0.002316
2112.25	0.002226
2121.9	0.002266
2131.54	0.002656
2141.19	0.002616
2150.83	0.002526
2160.48	0.001916
2170.12	0.002146
2179.77	0.002556
2189.41	0.002276
2199.06	0.001546
2208.7	0.001412
2218.35	0.0013762
2227.99	0.001138
2237.64	0.0010497
2247.28	0.0012107
2256.92	0.001496
2266.57	0.0014058
2276.21	0.001666
2285.86	0.001626
2295.5	0.001746
2305.15	0.001576
2314.79	0.0012754
2324.44	0.0014084
2334.08	0.0012561
2343.73	0.0013865
2353.37	0.001676
2363.02	0.001456
2372.66	0.002226
2382.31	0.002356
2391.95	0.002416
2401.6	0.002606
2411.24	0.003136
2420.89	0.003316
2430.53	0.003926
2440.18	0.004836
2449.82	0.004996
2459.47	0.003866
2469.11	0.003316
2478.75	0.003646
2488.4	0.004006
2498.04	0.003866
2507.69	0.003336
2517.33	0.002376
2526.98	0.002306
2536.62	0.001816
2546.27	0.001876
2555.91	0.001606
2565.56	0.001636
2575.2	0.0010825
2584.85	0.0012245
2594.49	0.0012753
2604.14	0.0012077
2613.78	0.0012984
2623.43	0.000695
2633.07	0.0009955
2642.72	0.0009256
2652.36	0.0009236
2662.01	0.0007655
2671.65	0.0007024
2681.29	0.0006244
2690.94	0.0008426
2700.58	0.0010327
2710.23	0.0007555
2719.87	0.0007531
2729.52	0.0011283
2739.16	0.0012222
2748.81	0.0009533
2758.45	0.0009536
2768.1	0.000981
2777.74	0.0010922
2787.39	0.0011959
2797.03	0.0010539
2806.68	0.001328
2816.32	0.0013455
2825.97	0.0014193
2835.61	0.001786
2845.26	0.0011714
2854.9	0.0009521
2864.55	0.0008376
2874.19	0.0007929
2883.84	0.000608
2893.48	0.0008828
2903.12	0.0010463
2912.77	0.0005947
2922.41	0.0011194
2932.06	0.000434359
2941.7	0.0006723
2951.35	0.00051759
2960.99	0.0011117
2970.64	0.000787
2980.28	0.000658
2989.93	0.00088
2999.57	0.0013472
3009.22	0.0008366
3018.86	0.0012258
3028.51	0.0007018
3038.15	0.0013208
3047.8	0.0011464
3057.44	0.001516
3067.09	0.0014107
3076.73	0.001876
3086.38	0.002606
3096.02	0.002156
3105.67	0.002036
3115.31	0.002076
3124.95	0.0007156
3134.6	0.0004112
3144.24	0.00046577
3153.89	0.0009415
3163.53	0.001446
3173.18	0.0007599
3182.82	0.0012339
3192.47	0.0006485
3202.11	0.0009937
3211.76	0.0011041
3221.4	0.0009484
3231.05	0.0005444
3240.69	0.0007665
3250.34	0.0010893
3259.98	0.00052465
3269.63	0.0003579
3279.27	0.0007168
3288.92	0.0007194
3298.56	0.0009395
3308.21	0.0006776
3317.85	0.00045807
3327.49	0.0010094
3337.14	0.0008073
3346.78	0.001516
3356.43	0.0007771
3366.07	0.0007996
3375.72	0.0007904
3385.36	0.0003
3395.01	0.0006597
3404.65	0.0003503
3414.3	0.0009918
3423.94	0.0010247
3433.59	0.0011156
3443.23	0.000316
3452.88	0.0010648
3462.52	0.001073
3472.17	0.0007797
3481.81	0.0007475
3491.46	0.0007098
3501.1	0.0006685
3510.75	0.000128
3520.39	0.0010629
3530.04	0.0011565
3539.68	0.0012264
3549.32	0.0005384
3558.97	0.0012077
3568.61	0.001148
3578.26	0.0010112
3587.9	0.001063
3597.55	0.0012992
3607.19	0.0009663
3616.84	0.0012046
3626.48	0.0006184
3636.13	0.0006212
3645.77	0.0011171
3655.42	0.000261
3665.06	0.001008
3674.71	0.0009284
3684.35	0.000904
3694	0.0008293
3703.64	0.0011917
3713.29	0.0014042
3722.93	0.0006618
3732.58	0.0007994
3742.22	0.0011827
3751.86	0.0010432
3761.51	0.0011684
3771.15	0.00042351
3780.8	0.001486
3790.44	0.000654
3800.09	0.0008599
3809.73	0.0005581
3819.38	0.0013076
3829.02	0.0012561
3838.67	0.00038
3848.31	0.0013237
3857.96	0.0010196
3867.6	0.001576
3877.25	0.0009575
3886.89	0.0005573
3896.54	0.0008472
3906.18	0.0008114
3915.83	0.0009283
3925.47	0.0008647
3935.12	0.001039
3944.76	0.00051822
3954.41	0.0012478
3964.05	0.0010621
3973.69	0.001372
3983.34	0.0009483
3992.98	0.001216
