Infrared Spectrum: 1,3,4-Trimethyl-3-cyclohexen-1-carboxaldehyde
Formula: C 10 H 16 O
CAS: 40702-26-9
State: gas
Instrument: HP-GC/MS/IRD
Origin: NIST Mass Spectrometry Data Center
1/CM	ABSORBANCE
550	0.0002079
562	0.0001701
574	0.0001596
586	7.56e-05
598	0.0001701
610	0.0001848
622	0.0001806
634	0.0001428
646	0.0001596
658	0.0002373
670	0.0004704
682	0.0004473
694	0.0004515
706	0.0002478
718	0.0002247
730	0.0002772
742	0.0005082
754	0.0009723
766	0.0012873
778	0.0009261
790	0.0004767
802	0.0003003
814	0.0003087
826	0.0003234
838	0.0005397
850	0.0007686
862	0.0011739
874	0.0011865
886	0.0012747
898	0.0023184
910	0.0026838
922	0.0016758
934	0.0009849
946	0.0007791
958	0.0008127
970	0.0009324
982	0.0008736
994	0.0007245
1006	0.0004935
1018	0.0005796
1030	0.0006342
1042	0.0005103
1054	0.0004578
1066	0.000357
1078	0.0004242
1090	0.0005166
1102	0.0004725
1114	0.000483
1126	0.0008904
1138	0.0011655
1150	0.0009303
1162	0.0007014
1174	0.0004473
1186	0.0003129
1198	0.0003633
1210	0.0005964
1222	0.0008211
1234	0.0007497
1246	0.0005775
1258	0.0006069
1270	0.0005061
1282	0.0004536
1294	0.0004956
1306	0.0004494
1318	0.0005397
1330	0.0006678
1342	0.000882
1354	0.0011592
1366	0.0016842
1378	0.0025284
1390	0.0024906
1402	0.0015351
1414	0.0011529
1426	0.0016863
1438	0.0028455
1450	0.0036561
1462	0.0034356
1474	0.001974
1486	0.000882
1498	0.0005985
1510	0.0005985
1522	0.0006048
1534	0.0006384
1546	0.0006363
1558	0.0005544
1570	0.0004578
1582	0.0004032
1594	0.0003066
1606	0.0003045
1618	0.0003045
1630	0.0003633
1642	0.0004053
1654	0.0005439
1666	0.000798
1678	0.0011655
1690	0.0016275
1702	0.0021735
1714	0.0036477
1726	0.0102942
1738	0.0204918
1750	0.0138915
1762	0.0046347
1774	0.0024297
1786	0.0016695
1798	0.0011256
1810	0.0007329
1822	0.0004977
1834	0.0003402
1846	0.0002604
1858	0.0001785
1870	0.0001596
1882	0.0001302
1894	0.0001281
1906	0.0001155
1918	0.0001029
1930	9.45e-05
1942	8.19e-05
1954	8.4e-05
1966	6.72e-05
1978	7.56e-05
1990	7.98e-05
2002	6.93e-05
2014	7.98e-05
2026	6.09e-05
2038	7.56e-05
2050	6.93e-05
2062	7.35e-05
2074	4.62e-05
2086	7.35e-05
2098	3.15e-05
2110	5.88e-05
2122	4.83e-05
2134	6.09e-05
2146	6.93e-05
2158	6.09e-05
2170	2.31e-05
2182	2.1e-05
2194	5.46e-05
2206	3.36e-05
2218	1.47e-05
2230	2.31e-05
2242	3.57e-05
2254	1.89e-05
2266	1.47e-05
2278	3.36e-05
2290	4.41e-05
2302	5.04e-05
2314	4.83e-05
2326	5.25e-05
2338	7.56e-05
2350	7.35e-05
2362	9.45e-05
2374	0.0001071
2386	9.45e-05
2398	7.14e-05
2410	9.87e-05
2422	8.61e-05
2434	8.82e-05
2446	8.82e-05
2458	0.0001113
2470	0.0001512
2482	0.0001365
2494	0.000147
2506	0.0001512
2518	0.0001512
2530	0.0001827
2542	0.0001974
2554	0.0002205
2566	0.0002709
2578	0.0003192
2590	0.0003906
2602	0.0005103
2614	0.0006888
2626	0.0009576
2638	0.0012474
2650	0.0015561
2662	0.0020412
2674	0.0034797
2686	0.0060165
2698	0.0061761
2710	0.0039354
2722	0.0028224
2734	0.0025515
2746	0.0024213
2758	0.0023688
2770	0.002457
2782	0.0029757
2794	0.0039669
2806	0.0039942
2818	0.0038199
2830	0.0057036
2842	0.0085386
2854	0.0098028
2866	0.0113484
2878	0.013545
2890	0.01344
2902	0.0140679
2914	0.0183624
2926	0.0209853
2938	0.0152754
2950	0.008925
2962	0.0075831
2974	0.0071694
2986	0.005481
2998	0.004578
3010	0.0038409
3022	0.0030639
3034	0.0024948
3046	0.0018522
3058	0.0012453
3070	0.0008694
3082	0.0006888
3094	0.0005964
3106	0.0005292
3118	0.0005124
3130	0.0005229
3142	0.0004179
3154	0.0003612
3166	0.0003948
3178	0.0003318
3190	0.0002709
3202	0.000273
3214	0.0002541
3226	0.0002142
3238	0.000231
3250	0.0002373
3262	0.0002142
3274	0.0001701
3286	0.0001764
3298	0.0001575
3310	0.0001638
3322	0.0001428
3334	0.0001029
3346	0.0001449
3358	0.0001533
3370	0.0001428
3382	0.000147
3394	8.82e-05
3406	0.0002058
3418	0.0002079
3430	0.0001953
3442	0.0003234
3454	0.000399
3466	0.0004389
3478	0.0002835
3490	0.00021
3502	0.000126
3514	0.0001449
3526	0.0001176
3538	4.41e-05
3550	0.0001134
3562	2.1e-05
3574	5.25e-05
3586	3.99e-05
3598	0.0001008
3610	8.61e-05
3622	5.25e-05
3634	0.0001029
3646	2.1e-05
3658	5.88e-05
3670	5.46e-05
3682	5.67e-05
3694	4.62e-05
3706	7.98e-05
3718	9.87e-05
3730	6.51e-05
3742	8.82e-05
3754	8.4e-05
3766	4.62e-05
3778	6.51e-05
3790	8.82e-05
3802	0.0001113
3814	7.98e-05
3826	0.0001302
3838	0.0001071
