Infrared Spectrum: trans-1,2-Dibenzoylethylene
Formula: C 16 H 12 O 2
CAS: 4070-75-1
State: gas
Origin: EPA-IR VAPOR PHASE LIBRARY
1/CM	ABSORBANCE
501.5	0.0010854
513.074	0.0014134
524.648	0.002248
536.222	0.002298
547.796	0.002218
559.37	0.002608
570.944	0.005198
582.518	0.014918
594.092	0.011548
605.666	0.007978
617.24	0.008268
628.814	0.009138
640.388	0.013478
651.962	0.008898
663.536	0.008348
675.11	0.012068
686.684	0.021318
698.258	0.035568
709.832	0.040678
721.406	0.017738
732.98	0.010958
744.554	0.008938
756.128	0.009178
767.702	0.007678
779.276	0.006348
790.85	0.005548
802.423	0.003378
813.997	0.002348
825.571	0.002008
837.145	0.002498
848.719	0.002818
860.293	0.002368
871.867	0.002278
883.441	0.002308
895.015	0.002518
906.589	0.002518
918.163	0.003128
929.737	0.004008
941.311	0.004318
952.885	0.006498
964.459	0.011888
976.033	0.015028
987.607	0.012908
999.181	0.017098
1010.76	0.041988
1022.33	0.035758
1033.9	0.016638
1045.48	0.009548
1057.05	0.008428
1068.63	0.007838
1080.2	0.005098
1091.77	0.003478
1103.35	0.003368
1114.92	0.002888
1126.49	0.002638
1138.07	0.002878
1149.64	0.004108
1161.22	0.006708
1172.79	0.018138
1184.36	0.035048
1195.94	0.027598
1207.51	0.015378
1219.09	0.017818
1230.66	0.023818
1242.23	0.028458
1253.81	0.043818
1265.38	0.062178
1276.96	0.056248
1288.53	0.086978
1300.1	0.082878
1311.68	0.055798
1323.25	0.056198
1334.83	0.022798
1346.4	0.009468
1357.97	0.005308
1369.55	0.004938
1381.12	0.004818
1392.7	0.003988
1404.27	0.003338
1415.84	0.003148
1427.42	0.003678
1438.99	0.008538
1450.57	0.018738
1462.14	0.004678
1473.71	0.002908
1485.29	0.002868
1496.86	0.003388
1508.44	0.002958
1520.01	0.002808
1531.58	0.002858
1543.16	0.003008
1554.73	0.003338
1566.31	0.004868
1577.88	0.009178
1589.45	0.011538
1601.03	0.015438
1612.6	0.011248
1624.18	0.008278
1635.75	0.008428
1647.32	0.012428
1658.9	0.025458
1670.47	0.067218
1682.05	0.082318
1693.62	0.041568
1705.19	0.017838
1716.77	0.008238
1728.34	0.004788
1739.92	0.003298
1751.49	0.002758
1763.06	0.002678
1774.64	0.002278
1786.21	0.001778
1797.79	0.002398
1809.36	0.003218
1820.93	0.002048
1832.51	0.001498
1844.08	0.0012933
1855.66	0.0011932
1867.23	0.0011151
1878.8	0.0012513
1890.38	0.001788
1901.95	0.002118
1913.53	0.001918
1925.1	0.0012198
1936.67	0.0011551
1948.25	0.001768
1959.82	0.002208
1971.4	0.002188
1982.97	0.0011894
1994.54	0.000978
2006.12	0.000838
2017.69	0.000673
2029.27	0.0005903
2040.84	0.0005266
2052.41	0.00052125
2063.99	0.00048081
2075.56	0.0004034
2087.14	0.0003841
2098.71	0.0003668
2110.28	0.000318
2121.86	0.000335
2133.43	0.000321
2145.01	0.000299
2156.58	0.000351
2168.15	0.0004225
2179.73	0.0003648
2191.3	0.0003595
2202.88	0.0003541
2214.45	0.0003772
2226.02	0.0004039
2237.6	0.0003872
2249.17	0.0004362
2260.74	0.00049157
2272.32	0.0005539
2283.89	0.0006121
2295.47	0.00050812
2307.04	0.0006008
2318.61	0.0009705
2330.19	0.0007418
2341.76	0.0007459
2353.34	0.00053137
2364.91	0.00046217
2376.48	0.00044166
2388.06	0.00047745
2399.63	0.00053811
2411.21	0.0005791
2422.78	0.0006111
2434.35	0.0004898
2445.93	0.0004296
2457.5	0.0003621
2469.08	0.000347
2480.65	0.000321
2492.22	0.000333
2503.8	0.000325
2515.37	0.000381
2526.95	0.0003575
2538.52	0.0003899
2550.09	0.0003617
2561.67	0.0003902
2573.24	0.0004092
2584.82	0.00047549
2596.39	0.00054306
2607.96	0.00044598
2619.54	0.000454491
2631.11	0.00049261
2642.69	0.000356
2654.26	0.000324
2665.83	0.000311
2677.41	0.0003865
2688.98	0.0003592
2700.56	0.000336
2712.13	0.00032
2723.7	0.000324
2735.28	0.0003912
2746.85	0.000305
2758.43	0.000379
2770	0.0004172
2781.57	0.00054481
2793.15	0.0004791
2804.72	0.0003961
2816.3	0.000455829
2827.87	0.00048557
2839.44	0.0005436
2851.02	0.00058
2862.59	0.0006655
2874.17	0.0007509
2885.74	0.0006872
2897.31	0.0007128
2908.89	0.0006753
2920.46	0.0006219
2932.04	0.0005875
2943.61	0.00054583
2955.18	0.0004375
2966.76	0.00051127
2978.33	0.000629
2989.91	0.0008098
3001.48	0.0012139
3013.05	0.002028
3024.63	0.004428
3036.2	0.008618
3047.78	0.008678
3059.35	0.011218
3070.92	0.019778
3082.5	0.014498
3094.07	0.011278
3105.65	0.006038
3117.22	0.002438
3128.79	0.0010989
3140.37	0.000822
3151.94	0.0008561
3163.52	0.0007716
3175.09	0.00047982
3186.66	0.0003775
3198.24	0.000294
3209.81	0.000265
3221.39	0.000227
3232.96	0.000251
3244.53	0.000266
3256.11	0.000309
3267.68	0.0003945
3279.26	0.0004183
3290.83	0.000578
3302.4	0.0005146
3313.98	0.0006891
3325.55	0.0008773
3337.13	0.0012555
3348.7	0.0013517
3360.27	0.0012046
3371.85	0.0007639
3383.42	0.0004313
3395	0.000267
3406.57	0.000232
3418.14	0.00023
3429.72	0.000207
3441.29	0.000159
3452.86	0.000101
3464.44	0.000131
3476.01	0.000186
3487.59	0.000126
3499.16	0.000126
3510.73	0.000104
3522.31	0.00014
3533.88	3.9e-05
3545.46	0.000115
3557.03	5.2e-05
3568.6	0.000119
3580.18	0.000179
3591.75	6.7e-05
3603.33	0.000115
3614.9	8.7e-05
3626.47	0.00014
3638.05	0.000132
3649.62	0.000245
3661.2	0.000193
3672.77	0.000189
3684.34	0.000179
3695.92	0.000251
3707.49	0.000305
3719.07	0.000247
3730.64	0.000119
3742.21	0.000203
3753.79	0.000163
3765.36	0.000223
3776.94	0.000196
3788.51	0.000153
3800.08	0.000171
3811.66	9.9e-05
3823.23	0.00021
3834.81	9.5e-05
3846.38	6.7e-05
3857.95	7.6e-05
3869.53	0.000103
3881.1	0.000211
3892.68	0.000153
3904.25	0.000187
3915.82	0.000138
3927.4	0.000218
3938.97	0.000138
3950.55	0.000205
3962.12	0.000167
3973.69	0.000125
3985.27	0.000218
3996.84	0.00021
