Infrared Spectrum: 3-Cyclopentyl-1-propyne
Formula: C 8 H 12
CAS: 40702-18-9
State: gas
Origin: EPA-IR VAPOR PHASE LIBRARY
1/CM	ABSORBANCE
549.8	0.0018634
559.445	0.00352
569.09	0.0020392
578.734	0.00386
588.379	0.00486
598.024	0.00946
607.669	0.01963
617.313	0.04614
626.958	0.1184
636.603	0.1511
646.248	0.06814
655.893	0.02351
665.537	0.00863
675.182	0.00516
684.827	0.00275
694.472	0.00326
704.116	0.00267
713.761	0.0020569
723.406	0.00284
733.051	0.0015637
742.695	0.00227
752.34	0.0017494
761.985	0.00252
771.63	0.00245
781.275	0.001968
790.919	0.00261
800.564	0.00293
810.209	0.0018582
819.854	0.00265
829.498	0.00244
839.143	0.00278
848.788	0.0021258
858.433	0.00237
868.078	0.00321
877.722	0.00342
887.367	0.00362
897.012	0.00428
906.657	0.00364
916.301	0.00342
925.946	0.00326
935.591	0.00291
945.236	0.00273
954.88	0.0021787
964.525	0.00262
974.17	0.0021486
983.815	0.0018075
993.46	0.0018636
1003.1	0.0016642
1012.75	0.0011173
1022.39	0.0015852
1032.04	0.000826
1041.68	0.00263
1051.33	0.001439
1060.97	0.00120849
1070.62	0.001064
1080.26	0.000878
1089.91	0.0014518
1099.55	0.0018479
1109.2	0.00248
1118.84	0.00226
1128.49	0.00389
1138.13	0.00232
1147.78	0.00378
1157.42	0.00282
1167.07	0.00402
1176.71	0.00229
1186.36	0.00367
1196	0.00435
1205.64	0.00445
1215.29	0.0053
1224.93	0.0128
1234.58	0.02914
1244.22	0.04198
1253.87	0.03995
1263.51	0.01889
1273.16	0.01088
1282.8	0.00929
1292.45	0.00862
1302.09	0.00777
1311.74	0.0081
1321.38	0.00792
1331.03	0.00712
1340.67	0.00648
1350.32	0.00724
1359.96	0.00716
1369.61	0.00504
1379.25	0.00349
1388.9	0.00316
1398.54	0.0035
1408.18	0.00463
1417.83	0.00665
1427.47	0.01135
1437.12	0.01454
1446.76	0.01488
1456.41	0.01321
1466.05	0.01121
1475.7	0.00908
1485.34	0.00721
1494.99	0.00474
1504.63	0.0031
1514.28	0.00244
1523.92	0.0017918
1533.57	0.001713
1543.21	0.0017774
1552.86	0.0016497
1562.5	0.0019309
1572.15	0.0017121
1581.79	0.0017293
1591.44	0.0018997
1601.08	0.0018851
1610.73	0.0018715
1620.37	0.0015463
1630.01	0.0016952
1639.66	0.001593
1649.3	0.0017373
1658.95	0.0015039
1668.59	0.0016328
1678.24	0.0014218
1687.88	0.0016926
1697.53	0.0017018
1707.17	0.0016905
1716.82	0.0014736
1726.46	0.0016582
1736.11	0.0015929
1745.75	0.0015663
1755.4	0.001576
1765.04	0.0016284
1774.69	0.0016728
1784.33	0.0015412
1793.98	0.001551
1803.62	0.0014256
1813.27	0.0014529
1822.91	0.00119642
1832.55	0.0014174
1842.2	0.00122337
1851.84	0.0013958
1861.49	0.0013352
1871.13	0.0013908
1880.78	0.0013795
1890.42	0.0014527
1900.07	0.0016201
1909.71	0.00129914
1919.36	0.00122461
1929	0.0014142
1938.65	0.0011145
1948.29	0.0014493
1957.94	0.0013581
1967.58	0.0014473
1977.23	0.0013646
1986.87	0.0013384
1996.52	0.001349
2006.16	0.0014001
2015.81	0.00123786
2025.45	0.0013384
2035.1	0.0015044
2044.74	0.0015373
2054.38	0.0015974
2064.03	0.0015151
2073.67	0.0020103
2083.32	0.00284
2092.96	0.00395
2102.61	0.0065
2112.25	0.00952
2121.9	0.00908
2131.54	0.00538
2141.19	0.00232
2150.83	0.0017821
2160.48	0.0017307
2170.12	0.0015538
2179.77	0.0018584
2189.41	0.0019498
2199.06	0.0016753
2208.7	0.0016913
2218.35	0.0019702
2227.99	0.0014636
2237.64	0.0018204
2247.28	0.0016911
2256.92	0.0017212
2266.57	0.0017365
2276.21	0.0019427
2285.86	0.0017586
2295.5	0.001631
2305.15	0.001552
2314.79	0.0019493
2324.44	0.0015721
2334.08	0.0016702
2343.73	0.0019035
2353.37	0.0015415
2363.02	0.0018722
2372.66	0.0020416
2382.31	0.0015924
2391.95	0.0017955
2401.6	0.00129792
2411.24	0.0015325
2420.89	0.0013324
2430.53	0.0012326
2440.18	0.0013334
2449.82	0.0016736
2459.47	0.0013542
2469.11	0.0013063
2478.75	0.00128781
2488.4	0.0014927
2498.04	0.0013835
2507.69	0.0015756
2517.33	0.001645
2526.98	0.0014821
2536.62	0.0017192
2546.27	0.0013704
2555.91	0.0016939
2565.56	0.0019401
2575.2	0.002017
2584.85	0.0023
2594.49	0.0023
2604.14	0.0021502
2613.78	0.0023
2623.43	0.001755
2633.07	0.002062
2642.72	0.0019389
2652.36	0.0020305
2662.01	0.0021677
2671.65	0.0019635
2681.29	0.0019974
2690.94	0.0025
2700.58	0.00273
2710.23	0.00266
2719.87	0.00249
2729.52	0.00237
2739.16	0.00231
2748.81	0.00291
2758.45	0.00233
2768.1	0.00285
2777.74	0.00335
2787.39	0.00395
2797.03	0.00403
2806.68	0.00536
2816.32	0.00679
2825.97	0.0104
2835.61	0.01577
2845.26	0.02178
2854.9	0.03263
2864.55	0.05051
2874.19	0.06926
2883.84	0.07309
2893.48	0.06718
2903.12	0.0699
2912.77	0.0903
2922.41	0.1107
2932.06	0.12911
2941.7	0.1524
2951.35	0.1862
2960.99	0.20719
2970.64	0.15448
2980.28	0.08992
2989.93	0.04439
2999.57	0.02438
3009.22	0.01591
3018.86	0.01076
3028.51	0.00792
3038.15	0.006
3047.8	0.00477
3057.44	0.0043
3067.09	0.0042
3076.73	0.0025
3086.38	0.00226
3096.02	0.00279
3105.67	0.00268
3115.31	0.00234
3124.95	0.0017436
3134.6	0.0013522
3144.24	0.0019332
3153.89	0.0014033
3163.53	0.00119778
3173.18	0.0013048
3182.82	0.0018487
3192.47	0.0019727
3202.11	0.001086
3211.76	0.0016299
3221.4	0.0015558
3231.05	0.0015618
3240.69	0.00278
3250.34	0.00255
3259.98	0.00322
3269.63	0.00443
3279.27	0.00772
3288.92	0.01114
3298.56	0.02166
3308.21	0.02961
3317.85	0.05502
3327.49	0.05663
3337.14	0.04704
3346.78	0.0147
3356.43	0.00758
3366.07	0.00396
3375.72	0.00234
3385.36	0.0023
3395.01	0.0017486
3404.65	0.0017425
3414.3	0.0017856
3423.94	0.00124879
3433.59	0.001357
3443.23	0.0020349
3452.88	0.0018819
3462.52	0.0020839
3472.17	0.001549
3481.81	0.001567
3491.46	0.001029
3501.1	0.00129433
3510.75	0.0015167
3520.39	0.0016391
3530.04	0.0016081
3539.68	0.0017121
3549.32	0.0017131
3558.97	0.0013993
3568.61	0.0018043
3578.26	0.000781
3587.9	0.001515
3597.55	0.00125108
3607.19	0.0011199
3616.84	0.000819
3626.48	0.0013233
3636.13	0.00125703
3645.77	0.0019456
3655.42	0.0014076
3665.06	0.0013946
3674.71	0.0019383
3684.35	0.00120886
3694	0.00127248
3703.64	0.00122716
3713.29	0.0011086
3722.93	0.00124417
3732.58	0.000928
3742.22	0.0015475
3751.86	0.000805
3761.51	0.001084
3771.15	0.0014676
3780.8	0.001712
3790.44	0.0017611
3800.09	0.0013997
3809.73	0.0018046
3819.38	0.0016914
3829.02	0.00119864
3838.67	0.001828
3848.31	0.0014012
3857.96	0.0018914
3867.6	0.001679
3877.25	0.000897
3886.89	0.0019229
3896.54	0.00126902
3906.18	0.001847
3915.83	0.00228
3925.47	0.00228
3935.12	0.00249
3944.76	0.0019331
3954.41	0.0014285
3964.05	0.0014328
3973.69	0.0017507
3983.34	0.00273
3992.98	0.001064
