Infrared Spectrum: 1-Methanesulfonylimidazole
Formula: C 4 H 6 N 2 O 2 S
CAS: 40736-26-3
State: gas
Origin: EPA-IR VAPOR PHASE LIBRARY
1/CM	ABSORBANCE
549.8	0.026643
559.445	0.042533
569.09	0.035813
578.734	0.004713
588.379	0.002373
598.024	0.004363
607.669	0.006033
617.313	0.004303
626.958	0.003183
636.603	0.005243
646.248	0.008693
655.893	0.006123
665.537	0.003043
675.182	0.001493
684.827	0.0006219
694.472	0.0006572
704.116	0.001343
713.761	0.003253
723.406	0.006553
733.051	0.010583
742.695	0.014043
752.34	0.024753
761.985	0.033103
771.63	0.023833
781.275	0.008183
790.919	0.002523
800.564	0.002563
810.209	0.004743
819.854	0.007373
829.498	0.007193
839.143	0.003913
848.788	0.001913
858.433	0.0011563
868.078	0.001323
877.722	0.002303
887.367	0.003423
897.012	0.003153
906.657	0.002093
916.301	0.001753
925.946	0.001543
935.591	0.002213
945.236	0.008883
954.88	0.016813
964.525	0.015643
974.17	0.004143
983.815	0.003503
993.46	0.004863
1003.1	0.004583
1012.75	0.002723
1022.39	0.003453
1032.04	0.013213
1041.68	0.044073
1051.33	0.045933
1060.97	0.020513
1070.62	0.003933
1080.26	0.005593
1089.91	0.009783
1099.55	0.009383
1109.2	0.005923
1118.84	0.003873
1128.49	0.007653
1138.13	0.021693
1147.78	0.036843
1157.42	0.035003
1167.07	0.019223
1176.71	0.043073
1186.36	0.078143
1196	0.067423
1205.64	0.023093
1215.29	0.006723
1224.93	0.003813
1234.58	0.004803
1244.22	0.006113
1253.87	0.006223
1263.51	0.004823
1273.16	0.003223
1282.8	0.001733
1292.45	0.001493
1302.09	0.001693
1311.74	0.003043
1321.38	0.005743
1331.03	0.008763
1340.67	0.008463
1350.32	0.006173
1359.96	0.004753
1369.61	0.008403
1379.25	0.021043
1388.9	0.043153
1398.54	0.058223
1408.18	0.048543
1417.83	0.022953
1427.47	0.009783
1437.12	0.007543
1446.76	0.008723
1456.41	0.010263
1466.05	0.012153
1475.7	0.011443
1485.34	0.007193
1494.99	0.003503
1504.63	0.003653
1514.28	0.005073
1523.92	0.004943
1533.57	0.002803
1543.21	0.001493
1552.86	0.001483
1562.5	0.001373
1572.15	0.0010923
1581.79	0.001333
1591.44	0.002333
1601.08	0.002413
1610.73	0.001843
1620.37	0.0010955
1630.01	0.001393
1639.66	0.001803
1649.3	0.001813
1658.95	0.001303
1668.59	0.0009176
1678.24	0.0010184
1687.88	0.001433
1697.53	0.001383
1707.17	0.0009183
1716.82	0.0009711
1726.46	0.0010788
1736.11	0.001065
1745.75	0.0007687
1755.4	0.00046
1765.04	0.0004218
1774.69	0.00026347
1784.33	0.0003549
1793.98	0.00031638
1803.62	0.0004008
1813.27	0.00030399
1822.91	0.00036629
1832.55	0.00032848
1842.2	0.0004422
1851.84	0.000374
1861.49	0.00028381
1871.13	0.0002199
1880.78	0.000278039
1890.42	0.00033581
1900.07	0.000382
1909.71	0.0003182
1919.36	0.00030933
1929	0.00028492
1938.65	0.0003869
1948.29	0.00032512
1957.94	0.0003942
1967.58	0.00034024
1977.23	0.00031724
1986.87	0.000280522
1996.52	0.0001815
2006.16	0.00030733
2015.81	0.00033163
2025.45	0.0003785
2035.1	0.000467
2044.74	0.0005694
2054.38	0.0005046
2064.03	0.0004017
2073.67	0.0004252
2083.32	0.000548
2092.96	0.000567
2102.61	0.0004939
2112.25	0.00033296
2121.9	0.0004756
2131.54	0.0005803
2141.19	0.0006988
2150.83	0.0006376
2160.48	0.0005673
2170.12	0.0004554
2179.77	0.0005138
2189.41	0.0004629
2199.06	0.0004714
2208.7	0.00036915
2218.35	0.00032324
2227.99	0.0004275
2237.64	0.0004374
2247.28	0.0004481
2256.92	0.0004956
2266.57	0.0004095
2276.21	0.0005032
2285.86	0.0006916
2295.5	0.000604
2305.15	0.0006546
2314.79	0.0005341
2324.44	0.0005732
2334.08	0.0007545
2343.73	0.0006747
2353.37	0.0006731
2363.02	0.0005804
2372.66	0.0005923
2382.31	0.0004976
2391.95	0.0004614
2401.6	0.0004614
2411.24	0.0004072
2420.89	0.0005205
2430.53	0.0004757
2440.18	0.0003629
2449.82	0.0005271
2459.47	0.0006224
2469.11	0.0007041
2478.75	0.0007876
2488.4	0.0007039
2498.04	0.0008184
2507.69	0.000858
2517.33	0.0007567
2526.98	0.0006091
2536.62	0.0004364
2546.27	0.0005691
2555.91	0.0007317
2565.56	0.0007428
2575.2	0.0006908
2584.85	0.0007208
2594.49	0.0007294
2604.14	0.000515
2613.78	0.000547
2623.43	0.0004984
2633.07	0.00033794
2642.72	0.000534
2652.36	0.0004104
2662.01	0.0004788
2671.65	0.0005468
2681.29	0.000413
2690.94	0.0004423
2700.58	0.0004923
2710.23	0.0004149
2719.87	0.0004124
2729.52	0.0005223
2739.16	0.0005226
2748.81	0.0004477
2758.45	0.00030887
2768.1	0.00031666
2777.74	0.0003811
2787.39	0.000463
2797.03	0.0004972
2806.68	0.0004102
2816.32	0.00028724
2825.97	0.00031506
2835.61	0.00032089
2845.26	0.00035054
2854.9	0.0004909
2864.55	0.000274084
2874.19	0.00035635
2883.84	0.0004581
2893.48	0.0004717
2903.12	0.0005861
2912.77	0.0004538
2922.41	0.0005215
2932.06	0.0004362
2941.7	0.0003927
2951.35	0.00029638
2960.99	0.0005543
2970.64	0.0003844
2980.28	0.000452
2989.93	0.0003806
2999.57	0.0004516
3009.22	0.0004536
3018.86	0.0004699
3028.51	0.0004273
3038.15	0.0005516
3047.8	0.00034732
3057.44	0.0004494
3067.09	0.0002498
3076.73	0.0004286
3086.38	0.0004094
3096.02	0.0003944
3105.67	0.00035082
3115.31	0.0010271
3124.95	0.001803
3134.6	0.002053
3144.24	0.001943
3153.89	0.001903
3163.53	0.001463
3173.18	0.0009583
3182.82	0.0005159
3192.47	0.00030359
3202.11	0.0004984
3211.76	0.00036705
3221.4	0.0005147
3231.05	0.0003473
3240.69	0.00030222
3250.34	0.000274662
3259.98	0.00036882
3269.63	0.0004029
3279.27	0.0003183
3288.92	0.00034562
3298.56	0.0002584
3308.21	0.0003791
3317.85	0.00033573
3327.49	0.00032039
3337.14	0.0003435
3346.78	0.000157
3356.43	0.000195
3366.07	0.000282668
3375.72	0.00029925
3385.36	0.00013
3395.01	0.00035815
3404.65	9.2e-05
3414.3	0.0003976
3423.94	0.0004596
3433.59	0.0004583
3443.23	0.000112
3452.88	0.0001988
3462.52	0.0003273
3472.17	0.00027038
3481.81	0.00026546
3491.46	0.0004298
3501.1	0.00031881
3510.75	0.0003926
3520.39	0.00026535
3530.04	0.0004904
3539.68	0.00030195
3549.32	0.00034418
3558.97	5.3e-05
3568.61	9.5e-05
3578.26	0.0001735
3587.9	0.000101
3597.55	0.00029948
3607.19	0.00032186
3616.84	0.0002543
3626.48	0.000118
3636.13	0.00034055
3645.77	0.00029875
3655.42	0.0003813
3665.06	0.0005099
3674.71	0.000177
3684.35	0.00028502
3694	0.0001826
3703.64	0.0005997
3713.29	0.0004461
3722.93	0.0004998
3732.58	0.00031783
3742.22	0.00027485
3751.86	0.0003984
3761.51	0.000282488
3771.15	0.00032236
3780.8	0.00036552
3790.44	0.00028828
3800.09	0.0003766
3809.73	0.00035492
3819.38	7.9e-05
3829.02	0.0002399
3838.67	0.00028791
3848.31	0.000111
3857.96	0.0002538
3867.6	0.000115
3877.25	0.000172
3886.89	0.00028946
3896.54	0.0002301
3906.18	0.00035247
3915.83	0.0004563
3925.47	0.0002174
3935.12	0.00035795
3944.76	0.0005323
3954.41	0.0002594
3964.05	0.0004616
3973.69	0.0004148
3983.34	0.000143
3992.98	0.0002138
