Infrared Spectrum: 1,5-Dihydroxy-1,2,3,4-tetrahydronaphthalene
Formula: C 10 H 12 O 2
CAS: 40771-26-4
State: gas
Origin: EPA-IR VAPOR PHASE LIBRARY
1/CM	ABSORBANCE
501.5	0.001911
513.074	0.002321
524.648	0.002331
536.222	0.001701
547.796	0.001321
559.37	0.0011268
570.944	0.001291
582.518	0.0011494
594.092	0.0009959
605.666	0.001018
617.24	0.0009826
628.814	0.000871
640.388	0.0007527
651.962	0.000782
663.536	0.0009744
675.11	0.001281
686.684	0.001941
698.258	0.002331
709.832	0.003161
721.406	0.007441
732.98	0.008141
744.554	0.003911
756.128	0.002641
767.702	0.004491
779.276	0.009211
790.85	0.009331
802.423	0.005721
813.997	0.002661
825.571	0.001761
837.145	0.002181
848.719	0.002881
860.293	0.003111
871.867	0.004221
883.441	0.004621
895.015	0.003691
906.589	0.003881
918.163	0.007751
929.737	0.012021
941.311	0.006941
952.885	0.002851
964.459	0.002501
976.033	0.003631
987.607	0.006241
999.181	0.006241
1010.76	0.005281
1022.33	0.006141
1033.9	0.005961
1045.48	0.007401
1057.05	0.009981
1068.63	0.010471
1080.2	0.008721
1091.77	0.006351
1103.35	0.003781
1114.92	0.003061
1126.49	0.003861
1138.07	0.007311
1149.64	0.013701
1161.22	0.015271
1172.79	0.014061
1184.36	0.014931
1195.94	0.015761
1207.51	0.014141
1219.09	0.014301
1230.66	0.016411
1242.23	0.013811
1253.81	0.014541
1265.38	0.022081
1276.96	0.019261
1288.53	0.009741
1300.1	0.009201
1311.68	0.010411
1323.25	0.008341
1334.83	0.007141
1346.4	0.007341
1357.97	0.006771
1369.55	0.006811
1381.12	0.006771
1392.7	0.004951
1404.27	0.003201
1415.84	0.002721
1427.42	0.003491
1438.99	0.006301
1450.57	0.011941
1462.14	0.019741
1473.71	0.014441
1485.29	0.005401
1496.86	0.002741
1508.44	0.001751
1520.01	0.001341
1531.58	0.0011946
1543.16	0.001511
1554.73	0.002421
1566.31	0.004971
1577.88	0.009991
1589.45	0.010931
1601.03	0.005681
1612.6	0.002861
1624.18	0.001301
1635.75	0.0007966
1647.32	0.0007076
1658.9	0.0006009
1670.47	0.0006361
1682.05	0.0006197
1693.62	0.0005045
1705.19	0.0004575
1716.77	0.0004935
1728.34	0.0004602
1739.92	0.0005176
1751.49	0.0005407
1763.06	0.0004822
1774.64	0.0004051
1786.21	0.0003398
1797.79	0.0003395
1809.36	0.0004028
1820.93	0.0005332
1832.51	0.000572
1844.08	0.0005151
1855.66	0.00030145
1867.23	0.00028344
1878.8	0.00028566
1890.38	0.0004418
1901.95	0.000682
1913.53	0.0007308
1925.1	0.0005082
1936.67	0.00024518
1948.25	0.0001966
1959.82	0.0001781
1971.4	0.0001569
1982.97	0.0001542
1994.54	0.0001542
2006.12	0.000117
2017.69	0.000165
2029.27	9.6e-05
2040.84	0.0001442
2052.41	0.0001402
2063.99	0.0001454
2075.56	0.0001857
2087.14	0.0001705
2098.71	0.0001513
2110.28	0.0001573
2121.86	0.0001613
2133.43	0.0001734
2145.01	0.000225679
2156.58	0.00021478
2168.15	0.0002045
2179.73	0.0001981
2191.3	0.0001984
2202.88	0.0002029
2214.45	0.00021291
2226.02	0.0001977
2237.6	0.000227046
2249.17	0.000222031
2260.74	0.00024301
2272.32	0.00023507
2283.89	0.0001839
2295.47	0.00024215
2307.04	0.00030601
2318.61	0.000338
2330.19	0.0003338
2341.76	0.0003503
2353.34	0.0003354
2364.91	0.00029379
2376.48	0.00032073
2388.06	0.0003309
2399.63	0.0003572
2411.21	0.0003304
2422.78	0.0003526
2434.35	0.0003499
2445.93	0.0003786
2457.5	0.0003689
2469.08	0.000398
2480.65	0.0003468
2492.22	0.0004005
2503.8	0.0003763
2515.37	0.0003718
2526.95	0.0003706
2538.52	0.00030971
2550.09	0.00030125
2561.67	0.0002883
2573.24	0.00027651
2584.82	0.0002859
2596.39	0.0003149
2607.96	0.0003889
2619.54	0.0003728
2631.11	0.0004219
2642.69	0.0004688
2654.26	0.0005137
2665.83	0.0005752
2677.41	0.0005434
2688.98	0.0004946
2700.56	0.0004613
2712.13	0.0004034
2723.7	0.0004405
2735.28	0.000451
2746.85	0.0004915
2758.43	0.0005359
2770	0.0006543
2781.57	0.0007135
2793.15	0.000901
2804.72	0.0010768
2816.3	0.001371
2827.87	0.002401
2839.44	0.004581
2851.02	0.006561
2862.59	0.008041
2874.17	0.009911
2885.74	0.010811
2897.31	0.011521
2908.89	0.011631
2920.46	0.012781
2932.04	0.015611
2943.61	0.025801
2955.18	0.027321
2966.76	0.010381
2978.33	0.002871
2989.91	0.001661
3001.48	0.001541
3013.05	0.002291
3024.63	0.003381
3036.2	0.004571
3047.78	0.004681
3059.35	0.004171
3070.92	0.004361
3082.5	0.003651
3094.07	0.001901
3105.65	0.0006071
3117.22	0.0003406
3128.79	0.000227636
3140.37	0.00021398
3151.94	0.00021885
3163.52	0.0001868
3175.09	0.0001369
3186.66	0.0001406
3198.24	6.7e-05
3209.81	8e-05
3221.39	0.0001426
3232.96	7.1e-05
3244.53	3e-06
3256.11	1.9e-05
3267.68	7.1e-05
3279.26	7e-05
3290.83	9.2e-05
3302.4	0.0001439
3313.98	0.000107
3325.55	0.0001735
3337.13	0.000227025
3348.7	0.000285
3360.27	0.00024521
3371.85	0.00029441
3383.42	0.0003307
3395	0.00028915
3406.57	0.0001988
3418.14	0.00026217
3429.72	0.000224892
3441.29	0.000230233
3452.86	0.00023589
3464.44	0.0001792
3476.01	0.00023673
3487.59	0.0001804
3499.16	0.0001675
3510.73	0.0001435
3522.31	0.0001731
3533.88	9e-05
3545.46	0.0002042
3557.03	0.0001418
3568.6	0.00028806
3580.18	0.00021902
3591.75	0.0003556
3603.33	0.000631
3614.9	0.001401
3626.47	0.003751
3638.05	0.010741
3649.62	0.019181
3661.2	0.009581
3672.77	0.001571
3684.34	0.0006211
3695.92	0.0003816
3707.49	0.00031591
3719.07	0.00024962
3730.64	0.0002346
3742.21	0.00024869
3753.79	0.00029449
3765.36	0.00023452
3776.94	0.0001838
3788.51	0.00023347
3800.08	0.00028081
3811.66	0.0003485
3823.23	0.0003437
3834.81	0.0004059
3846.38	0.00025769
3857.95	0.0003483
3869.53	0.0003981
3881.1	0.00027562
3892.68	0.0003343
3904.25	0.0004012
3915.82	0.00027001
3927.4	0.00029946
3938.97	0.00025093
3950.55	0.0002328
3962.12	0.00025533
3973.69	9.8e-05
3985.27	0.0001496
3996.84	7.9e-05
