Infrared Spectrum: 2-Isoamylpyrazine
Formula: C 9 H 14 N 2
CAS: 40790-22-5
State: gas
Origin: EPA-IR VAPOR PHASE LIBRARY
1/CM	ABSORBANCE
549.8	0.0007229
559.445	0.0004741
569.09	0.0005615
578.734	0.0004917
588.379	0.0005015
598.024	0.0006197
607.669	0.0005377
617.313	0.0005512
626.958	0.0001567
636.603	0.001612
646.248	0.002062
655.893	0.002462
665.537	0.0005327
675.182	0.0005962
684.827	0.00027818
694.472	0.0005284
704.116	0.0005577
713.761	0.0006376
723.406	0.0009623
733.051	0.001682
742.695	0.002992
752.34	0.004012
761.985	0.004372
771.63	0.003952
781.275	0.003212
790.919	0.003222
800.564	0.003672
810.209	0.006512
819.854	0.011982
829.498	0.017542
839.143	0.013922
848.788	0.008252
858.433	0.006112
868.078	0.004762
877.722	0.003372
887.367	0.004002
897.012	0.003802
906.657	0.002802
916.301	0.002832
925.946	0.003292
935.591	0.003212
945.236	0.002942
954.88	0.003252
964.525	0.003272
974.17	0.002992
983.815	0.004532
993.46	0.008772
1003.1	0.018692
1012.75	0.033932
1022.39	0.028182
1032.04	0.013832
1041.68	0.011532
1051.33	0.014392
1060.97	0.014982
1070.62	0.012452
1080.26	0.012442
1089.91	0.010752
1099.55	0.008692
1109.2	0.008402
1118.84	0.011132
1128.49	0.015012
1138.13	0.022712
1147.78	0.027172
1157.42	0.022212
1167.07	0.017852
1176.71	0.014642
1186.36	0.010332
1196	0.006462
1205.64	0.007672
1215.29	0.009412
1224.93	0.015922
1234.58	0.015442
1244.22	0.006452
1253.87	0.004872
1263.51	0.004802
1273.16	0.005802
1282.8	0.006442
1292.45	0.008282
1302.09	0.009242
1311.74	0.008722
1321.38	0.008372
1331.03	0.009132
1340.67	0.009012
1350.32	0.009882
1359.96	0.013992
1369.61	0.019382
1379.25	0.024992
1388.9	0.036642
1398.54	0.058502
1408.18	0.049962
1417.83	0.018312
1427.47	0.011872
1437.12	0.013922
1446.76	0.018712
1456.41	0.025652
1466.05	0.039112
1475.7	0.038202
1485.34	0.016462
1494.99	0.008022
1504.63	0.006842
1514.28	0.010582
1523.92	0.018522
1533.57	0.015082
1543.21	0.004902
1552.86	0.003432
1562.5	0.006162
1572.15	0.010292
1581.79	0.006652
1591.44	0.002382
1601.08	0.001692
1610.73	0.001492
1620.37	0.001282
1630.01	0.001312
1639.66	0.001412
1649.3	0.001462
1658.95	0.001692
1668.59	0.001612
1678.24	0.001432
1687.88	0.001472
1697.53	0.001372
1707.17	0.001262
1716.82	0.001272
1726.46	0.001352
1736.11	0.001542
1745.75	0.001742
1755.4	0.002042
1765.04	0.001922
1774.69	0.001912
1784.33	0.002052
1793.98	0.001952
1803.62	0.001412
1813.27	0.001242
1822.91	0.0011301
1832.55	0.0011181
1842.2	0.001187
1851.84	0.001362
1861.49	0.001592
1871.13	0.001572
1880.78	0.001552
1890.42	0.001802
1900.07	0.001862
1909.71	0.002212
1919.36	0.002852
1929	0.002752
1938.65	0.001662
1948.29	0.0010418
1957.94	0.0007539
1967.58	0.0007488
1977.23	0.0008358
1986.87	0.000639
1996.52	0.000704
2006.16	0.000879
2015.81	0.0008516
2025.45	0.0008671
2035.1	0.0008739
2044.74	0.0010228
2054.38	0.0009821
2064.03	0.0010496
2073.67	0.0009062
2083.32	0.0008556
2092.96	0.0009322
2102.61	0.0010323
2112.25	0.0009914
2121.9	0.0008373
2131.54	0.0008502
2141.19	0.0007204
2150.83	0.00066
2160.48	0.0007427
2170.12	0.0008479
2179.77	0.000811
2189.41	0.0008492
2199.06	0.0008551
2208.7	0.000941
2218.35	0.0009835
2227.99	0.0009745
2237.64	0.0010131
2247.28	0.0010386
2256.92	0.0010522
2266.57	0.0007933
2276.21	0.0009074
2285.86	0.0010321
2295.5	0.0008713
2305.15	0.0009363
2314.79	0.0007252
2324.44	0.0008138
2334.08	0.0007678
2343.73	0.0008268
2353.37	0.0009581
2363.02	0.0008171
2372.66	0.0010338
2382.31	0.0009865
2391.95	0.0009377
2401.6	0.0008147
2411.24	0.0009589
2420.89	0.000932
2430.53	0.0009513
2440.18	0.0008682
2449.82	0.0009252
2459.47	0.0009424
2469.11	0.0008313
2478.75	0.0009463
2488.4	0.000871
2498.04	0.00083
2507.69	0.0008936
2517.33	0.000859
2526.98	0.0007872
2536.62	0.0009582
2546.27	0.0009993
2555.91	0.0010769
2565.56	0.0010302
2575.2	0.0011736
2584.85	0.001332
2594.49	0.001602
2604.14	0.001612
2613.78	0.001772
2623.43	0.001872
2633.07	0.001902
2642.72	0.001912
2652.36	0.001862
2662.01	0.002002
2671.65	0.002122
2681.29	0.001892
2690.94	0.002042
2700.58	0.002162
2710.23	0.002262
2719.87	0.002482
2729.52	0.002962
2739.16	0.003232
2748.81	0.003062
2758.45	0.002942
2768.1	0.003222
2777.74	0.003592
2787.39	0.003592
2797.03	0.004152
2806.68	0.004822
2816.32	0.005692
2825.97	0.006882
2835.61	0.009082
2845.26	0.014162
2854.9	0.023452
2864.55	0.034792
2874.19	0.049582
2883.84	0.054882
2893.48	0.050342
2903.12	0.054972
2912.77	0.071092
2922.41	0.085442
2932.06	0.092452
2941.7	0.097052
2951.35	0.110552
2960.99	0.159722
2970.64	0.150092
2980.28	0.065392
2989.93	0.030962
2999.57	0.023442
3009.22	0.019942
3018.86	0.015242
3028.51	0.015562
3038.15	0.020782
3047.8	0.034182
3057.44	0.052362
3067.09	0.047312
3076.73	0.024502
3086.38	0.010962
3096.02	0.006782
3105.67	0.004872
3115.31	0.003532
3124.95	0.003102
3134.6	0.002632
3144.24	0.002762
3153.89	0.002562
3163.53	0.002452
3173.18	0.002542
3182.82	0.002322
3192.47	0.002172
3202.11	0.001842
3211.76	0.001382
3221.4	0.001232
3231.05	0.0008652
3240.69	0.0007784
3250.34	0.0004886
3259.98	0.0005513
3269.63	0.0007225
3279.27	0.0007175
3288.92	0.0006042
3298.56	0.000811
3308.21	0.0007323
3317.85	0.000767
3327.49	0.0008582
3337.14	0.0009685
3346.78	0.0010669
3356.43	0.0008038
3366.07	0.0008778
3375.72	0.0008174
3385.36	0.0008945
3395.01	0.0005479
3404.65	0.0006107
3414.3	0.0007241
3423.94	0.0005353
3433.59	0.0006464
3443.23	0.0005648
3452.88	0.0004145
3462.52	0.0005996
3472.17	0.0003443
3481.81	0.0004289
3491.46	0.0004481
3501.1	0.00022281
3510.75	0.00018426
3520.39	0.0003145
3530.04	0.0004805
3539.68	0.0004844
3549.32	0.0001501
3558.97	0.0001473
3568.61	0.00025122
3578.26	0.0003892
3587.9	0.0003915
3597.55	0.0001509
3607.19	0.0003063
3616.84	0.0004088
3626.48	0.0002963
3636.13	0.0003792
3645.77	0.00027364
3655.42	0.000503
3665.06	0.0004902
3674.71	0.0005208
3684.35	0.0004521
3694	0.0003282
3703.64	0.0004317
3713.29	0.0001675
3722.93	0.0004577
3732.58	0.000624
3742.22	0.0004692
3751.86	0.0003544
3761.51	0.0003026
3771.15	0.0003385
3780.8	0.0005173
3790.44	0.0004597
3800.09	0.0009392
3809.73	0.0009966
3819.38	0.0007518
3829.02	0.0008623
3838.67	0.0006774
3848.31	0.0008865
3857.96	0.000725
3867.6	0.0008821
3877.25	0.0008699
3886.89	0.0007244
3896.54	0.0008397
3906.18	0.0006122
3915.83	0.0008663
3925.47	0.0004086
3935.12	0.0003079
3944.76	0.0005387
3954.41	0.0006003
3964.05	0.0005808
3973.69	0.0005912
3983.34	0.0008194
3992.98	0.0007758
