Infrared Spectrum: 1,2-Dodecanedioyldihydrazide
Formula: C 12 H 26 N 4 O 2
CAS: 4080-98-2
State: gas
Origin: EPA-IR VAPOR PHASE LIBRARY
1/CM	ABSORBANCE
549.8	0.001314
559.445	0.0010008
569.09	0.001504
578.734	0.001414
588.379	0.0010589
598.024	0.0012586
607.669	0.0011169
617.313	0.0009261
626.958	0.0008656
636.603	0.0007305
646.248	0.0008801
655.893	0.0010251
665.537	0.0009532
675.182	0.000915
684.827	0.0009043
694.472	0.000789
704.116	0.000945
713.761	0.0008621
723.406	0.000659
733.051	0.0011474
742.695	0.0009962
752.34	0.0007672
761.985	0.0011629
771.63	0.0011747
781.275	0.0009113
790.919	0.0009084
800.564	0.0008843
810.209	0.0009638
819.854	0.0012207
829.498	0.0012711
839.143	0.001504
848.788	0.001624
858.433	0.001664
868.078	0.001654
877.722	0.001424
887.367	0.001744
897.012	0.001344
906.657	0.001564
916.301	0.001374
925.946	0.001424
935.591	0.001514
945.236	0.001504
954.88	0.0011995
964.525	0.001784
974.17	0.001854
983.815	0.001914
993.46	0.002064
1003.1	0.001874
1012.75	0.002194
1022.39	0.001734
1032.04	0.001574
1041.68	0.001594
1051.33	0.0012289
1060.97	0.001314
1070.62	0.001504
1080.26	0.001484
1089.91	0.001674
1099.55	0.002084
1109.2	0.002134
1118.84	0.002554
1128.49	0.002464
1138.13	0.003324
1147.78	0.004394
1157.42	0.005704
1167.07	0.006104
1176.71	0.006464
1186.36	0.006054
1196	0.005954
1205.64	0.006024
1215.29	0.006184
1224.93	0.005644
1234.58	0.005984
1244.22	0.006084
1253.87	0.005534
1263.51	0.004704
1273.16	0.004234
1282.8	0.003334
1292.45	0.003074
1302.09	0.002894
1311.74	0.002624
1321.38	0.002634
1331.03	0.002564
1340.67	0.002714
1350.32	0.003114
1359.96	0.003024
1369.61	0.002554
1379.25	0.001884
1388.9	0.001494
1398.54	0.001424
1408.18	0.001954
1417.83	0.002624
1427.47	0.004304
1437.12	0.006674
1446.76	0.007284
1456.41	0.006774
1466.05	0.005594
1475.7	0.003654
1485.34	0.002524
1494.99	0.001844
1504.63	0.001424
1514.28	0.0011835
1523.92	0.0010055
1533.57	0.000884
1543.21	0.0007527
1552.86	0.0007496
1562.5	0.0007253
1572.15	0.0007609
1581.79	0.0009011
1591.44	0.0010294
1601.08	0.0010609
1610.73	0.001414
1620.37	0.001884
1630.01	0.002394
1639.66	0.002534
1649.3	0.001924
1658.95	0.001674
1668.59	0.001814
1678.24	0.002314
1687.88	0.003604
1697.53	0.005794
1707.17	0.008514
1716.82	0.008464
1726.46	0.007024
1736.11	0.006794
1745.75	0.008034
1755.4	0.010214
1765.04	0.008754
1774.69	0.005334
1784.33	0.002944
1793.98	0.001574
1803.62	0.0010029
1813.27	0.0007611
1822.91	0.000672
1832.55	0.0005789
1842.2	0.0006368
1851.84	0.000535
1861.49	0.0004733
1871.13	0.0005296
1880.78	0.0005516
1890.42	0.0005213
1900.07	0.0005372
1909.71	0.000531
1919.36	0.0005503
1929	0.0005098
1938.65	0.0005633
1948.29	0.0005422
1957.94	0.0005364
1967.58	0.0004973
1977.23	0.0005569
1986.87	0.0005919
1996.52	0.0005009
2006.16	0.0004975
2015.81	0.0005823
2025.45	0.0005521
2035.1	0.0005416
2044.74	0.000599
2054.38	0.0005693
2064.03	0.0005033
2073.67	0.0005705
2083.32	0.000564
2092.96	0.0005666
2102.61	0.0005228
2112.25	0.0004978
2121.9	0.0005013
2131.54	0.000526
2141.19	0.000462
2150.83	0.000414
2160.48	0.0004709
2170.12	0.000493
2179.77	0.0004427
2189.41	0.00047
2199.06	0.00036785
2208.7	0.000446
2218.35	0.00037721
2227.99	0.0004521
2237.64	0.000446
2247.28	0.0005124
2256.92	0.0005213
2266.57	0.0004301
2276.21	0.0004074
2285.86	0.00036472
2295.5	0.00036802
2305.15	0.0004191
2314.79	0.0005104
2324.44	0.0003986
2334.08	0.0004389
2343.73	0.0004805
2353.37	0.0004553
2363.02	0.0004296
2372.66	0.00038505
2382.31	0.0004262
2391.95	0.00037388
2401.6	0.0004573
2411.24	0.0004644
2420.89	0.00037322
2430.53	0.000456
2440.18	0.0004259
2449.82	0.0004859
2459.47	0.0004806
2469.11	0.0004273
2478.75	0.000404
2488.4	0.0004687
2498.04	0.0004378
2507.69	0.0004455
2517.33	0.00036974
2526.98	0.0004255
2536.62	0.0004766
2546.27	0.0004204
2555.91	0.00038419
2565.56	0.0004123
2575.2	0.0005089
2584.85	0.0005067
2594.49	0.000482
2604.14	0.0005132
2613.78	0.0005009
2623.43	0.000539
2633.07	0.0004332
2642.72	0.0005521
2652.36	0.0006187
2662.01	0.000645
2671.65	0.0006322
2681.29	0.0006689
2690.94	0.0005913
2700.58	0.0005539
2710.23	0.0005915
2719.87	0.0005234
2729.52	0.0005638
2739.16	0.0005407
2748.81	0.0005793
2758.45	0.0005644
2768.1	0.0005129
2777.74	0.0005356
2787.39	0.0006891
2797.03	0.0006844
2806.68	0.0008334
2816.32	0.0011363
2825.97	0.001304
2835.61	0.001524
2845.26	0.002394
2854.9	0.004544
2864.55	0.006664
2874.19	0.004924
2883.84	0.003494
2893.48	0.003414
2903.12	0.004674
2912.77	0.007314
2922.41	0.011414
2932.06	0.016374
2941.7	0.014844
2951.35	0.010424
2960.99	0.007734
2970.64	0.004404
2980.28	0.002754
2989.93	0.002184
2999.57	0.001874
3009.22	0.001494
3018.86	0.0012509
3028.51	0.001148
3038.15	0.0009388
3047.8	0.000812
3057.44	0.0007874
3067.09	0.0006199
3076.73	0.0007057
3086.38	0.0005555
3096.02	0.0005908
3105.67	0.0004237
3115.31	0.0005343
3124.95	0.000446
3134.6	0.0005269
3144.24	0.0004335
3153.89	0.00030819
3163.53	0.0003951
3173.18	0.0005016
3182.82	0.0004802
3192.47	0.0004139
3202.11	0.0005991
3211.76	0.00034084
3221.4	0.00038284
3231.05	0.0006216
3240.69	0.00038923
3250.34	0.00030738
3259.98	0.0005412
3269.63	0.000296084
3279.27	0.00037764
3288.92	0.00035449
3298.56	0.0005893
3308.21	0.00038592
3317.85	0.0002721
3327.49	0.0003989
3337.14	0.0005403
3346.78	0.00031816
3356.43	0.0004617
3366.07	0.00036936
3375.72	0.0003992
3385.36	0.0005988
3395.01	0.0006316
3404.65	0.0005214
3414.3	0.0007414
3423.94	0.0006986
3433.59	0.0007741
3443.23	0.0010402
3452.88	0.001344
3462.52	0.001364
3472.17	0.001514
3481.81	0.0012736
3491.46	0.0008681
3501.1	0.0008611
3510.75	0.0005261
3520.39	0.0004941
3530.04	0.00035411
3539.68	0.0006536
3549.32	0.0002317
3558.97	0.0004572
3568.61	0.00034526
3578.26	0.0004303
3587.9	0.0004815
3597.55	0.0004256
3607.19	0.00037548
3616.84	0.00035698
3626.48	0.0002575
3636.13	0.0002694
3645.77	0.00032522
3655.42	0.00037418
3665.06	0.0002085
3674.71	2.9e-05
3684.35	0.0003953
3694	0.0003428
3703.64	0.000302422
3713.29	0.00031251
3722.93	0.00035062
3732.58	0.0002502
3742.22	0.0004447
3751.86	0.00033802
3761.51	0.000174
3771.15	0.0004248
3780.8	0.000295336
3790.44	0.00037749
3800.09	0.0004045
3809.73	0.00036937
3819.38	0.0002219
3829.02	0.0004671
3838.67	0.00036051
3848.31	0.00033717
3857.96	0.000414
3867.6	0.0001972
3877.25	0.0002467
3886.89	0.000402
3896.54	0.0003515
3906.18	0.0002754
3915.83	9e-05
3925.47	0.0005365
3935.12	0.00036258
3944.76	0.0002778
3954.41	0.0004064
3964.05	0.0004628
3973.69	0.0005367
3983.34	0.0005099
3992.98	0.0004686
