Infrared Spectrum: 2-(Isopropylthio)ethanol
Formula: C 5 H 12 O S
CAS: 40811-49-2
State: gas
Origin: EPA-IR VAPOR PHASE LIBRARY
1/CM	ABSORBANCE
549.9	0.00199
559.547	0.00227
569.193	0.0016
578.84	0.00182
588.486	0.00193
598.133	0.00204
607.779	0.00218
617.426	0.00235
627.072	0.00264
636.719	0.00305
646.365	0.00269
656.012	0.00243
665.658	0.0022
675.305	0.00263
684.951	0.00239
694.598	0.00188
704.245	0.00151
713.891	0.00142
723.538	0.00146
733.184	0.00163
742.831	0.00206
752.477	0.00271
762.124	0.00318
771.77	0.00305
781.417	0.00215
791.063	0.00159
800.71	0.00159
810.356	0.00181
820.003	0.00206
829.649	0.00208
839.296	0.00204
848.943	0.00182
858.589	0.00192
868.236	0.00232
877.882	0.00272
887.529	0.00295
897.175	0.00321
906.822	0.00443
916.468	0.0071
926.115	0.00971
935.761	0.01001
945.408	0.00818
955.054	0.0069
964.701	0.007
974.347	0.00884
983.994	0.01197
993.64	0.01634
1003.29	0.02233
1012.93	0.0299
1022.58	0.04086
1032.23	0.05375
1041.87	0.05956
1051.52	0.05751
1061.17	0.05445
1070.81	0.04418
1080.46	0.02719
1090.11	0.01456
1099.75	0.01006
1109.4	0.00874
1119.05	0.00826
1128.69	0.00842
1138.34	0.01055
1147.99	0.01547
1157.63	0.0179
1167.28	0.01689
1176.92	0.01421
1186.57	0.012
1196.22	0.00953
1205.86	0.00859
1215.51	0.0103
1225.16	0.01432
1234.8	0.02091
1244.45	0.02537
1254.1	0.02426
1263.74	0.01826
1273.39	0.01557
1283.04	0.01319
1292.68	0.01157
1302.33	0.01023
1311.98	0.00941
1321.62	0.00941
1331.27	0.0102
1340.92	0.01094
1350.56	0.01217
1360.21	0.01606
1369.86	0.02274
1379.5	0.03065
1389.15	0.03073
1398.79	0.02361
1408.44	0.01602
1418.09	0.01358
1427.73	0.0127
1437.38	0.0127
1447.03	0.01417
1456.67	0.01564
1466.32	0.01489
1475.97	0.01181
1485.61	0.00741
1495.26	0.00435
1504.91	0.00283
1514.55	0.00206
1524.2	0.00148
1533.85	0.0010386
1543.49	0.0008042
1553.14	0.0006918
1562.79	0.0005366
1572.43	0.0004799
1582.08	0.0005171
1591.73	0.00044184
1601.37	0.00043955
1611.02	0.00046661
1620.67	0.0005109
1630.31	0.00048068
1639.96	0.0005119
1649.6	0.0004549
1659.25	0.0005133
1668.9	0.0005324
1678.54	0.0005741
1688.19	0.0005136
1697.84	0.0003351
1707.48	0.0003252
1717.13	0.000139
1726.78	0.000213
1736.42	0.000138
1746.07	0.000134
1755.72	0.000158
1765.36	3.6e-05
1775.01	7e-06
1784.66	4.7e-05
1794.3	7.8e-05
1803.95	8.2e-05
1813.6	7.7e-05
1823.24	0.000111
1832.89	0.000164
1842.54	0.000141
1852.18	0.0002
1861.83	0.000276
1871.47	0.0003576
1881.12	0.0003068
1890.77	0.000235
1900.41	0.000202
1910.06	0.000166
1919.71	4.7e-05
1929.35	9.1e-05
1939	9.3e-05
1948.65	9.8e-05
1958.29	0.000119
1967.94	0.000178
1977.59	0.000275
1987.23	0.000212
1996.88	0.000275
2006.53	0.00038816
2016.17	0.0005232
2025.82	0.0005519
2035.47	0.0006549
2045.11	0.0005203
2054.76	0.0005303
2064.41	0.000397022
2074.05	0.0003373
2083.7	0.0003031
2093.35	0.000268
2102.99	0.000279
2112.64	0.0003645
2122.28	0.0003068
2131.93	0.000219
2141.58	0.000241
2151.22	0.000166
2160.87	0.00019
2170.52	0.000234
2180.16	0.000237
2189.81	0.0003181
2199.46	0.0003255
2209.1	0.00041782
2218.75	0.0004464
2228.4	0.00047191
2238.04	0.0006006
2247.69	0.0006587
2257.34	0.0005906
2266.98	0.0005195
2276.63	0.00047576
2286.28	0.00047756
2295.92	0.0005671
2305.57	0.00046793
2315.22	0.0004983
2324.86	0.00041439
2334.51	0.0003223
2344.16	0.0003797
2353.8	0.0003865
2363.45	0.0003765
2373.09	0.00046602
2382.74	0.000511
2392.39	0.000519
2402.03	0.000599
2411.68	0.0005338
2421.33	0.0006122
2430.97	0.0006035
2440.62	0.0006403
2450.27	0.0006934
2459.91	0.000646
2469.56	0.0007079
2479.21	0.0006347
2488.85	0.0007295
2498.5	0.0006037
2508.15	0.0005265
2517.79	0.0005941
2527.44	0.0005535
2537.09	0.000552
2546.73	0.0005894
2556.38	0.0005762
2566.03	0.0006411
2575.67	0.0007455
2585.32	0.0006865
2594.96	0.0008414
2604.61	0.000986
2614.26	0.0010544
2623.9	0.0010343
2633.55	0.0010354
2643.2	0.0010695
2652.84	0.0011088
2662.49	0.0011927
2672.14	0.0012657
2681.78	0.00143
2691.43	0.00153
2701.08	0.00166
2710.72	0.00192
2720.37	0.00243
2730.02	0.0027
2739.66	0.00281
2749.31	0.00287
2758.96	0.00304
2768.6	0.00307
2778.25	0.00309
2787.9	0.00318
2797.54	0.00379
2807.19	0.00482
2816.84	0.00573
2826.48	0.00696
2836.13	0.00881
2845.77	0.0116
2855.42	0.01777
2865.07	0.03121
2874.71	0.04534
2884.36	0.04807
2894.01	0.04292
2903.65	0.0446
2913.3	0.05573
2922.95	0.07202
2932.59	0.08174
2942.24	0.07628
2951.89	0.07398
2961.53	0.08829
2971.18	0.09553
2980.83	0.07247
2990.47	0.04202
3000.12	0.01875
3009.77	0.0095
3019.41	0.00578
3029.06	0.00411
3038.71	0.0029
3048.35	0.00231
3058	0.00206
3067.64	0.00164
3077.29	0.00154
3086.94	0.00144
3096.58	0.00143
3106.23	0.0013826
3115.88	0.0012901
3125.52	0.0012561
3135.17	0.0012769
3144.82	0.0010911
3154.46	0.0010315
3164.11	0.0012394
3173.76	0.001246
3183.4	0.00144
3193.05	0.0013834
3202.7	0.0012887
3212.34	0.0009178
3221.99	0.0007363
3231.64	0.000392631
3241.28	0.000233
3250.93	0.0002925
3260.58	0.0003419
3270.22	0.0005198
3279.87	0.000254
3289.52	0.000217
3299.16	0.000504
3308.81	0.000225
3318.45	0.000245
3328.1	0.0003324
3337.75	0.000231
3347.39	5.7e-05
3357.04	0.000139
3366.69	0.000233
3376.33	0.0003284
3385.98	0.00039024
3395.63	0.0004956
3405.27	0.0006877
3414.92	0.0005703
3424.57	0.00044337
3434.21	0.00046762
3443.86	0.0005883
3453.51	0.0007196
3463.15	0.0009588
3472.8	0.0008239
3482.45	0.0007844
3492.09	0.0010391
3501.74	0.0012124
3511.39	0.00148
3521.03	0.0012674
3530.68	0.00158
3540.33	0.00232
3549.97	0.00363
3559.62	0.00499
3569.26	0.00583
3578.91	0.00609
3588.56	0.00594
3598.2	0.00535
3607.85	0.00447
3617.5	0.00393
3627.14	0.00338
3636.79	0.00363
3646.44	0.00515
3656.08	0.00845
3665.73	0.0101
3675.38	0.00748
3685.02	0.00415
3694.67	0.00213
3704.32	0.0017
3713.96	0.0011618
3723.61	0.0009146
3733.26	0.0010384
3742.9	0.0007848
3752.55	0.0007619
3762.2	0.0007446
3771.84	0.0004916
3781.49	0.00048754
3791.13	0.00045858
3800.78	0.0005336
3810.43	0.00048471
3820.07	0.0005718
3829.72	0.0005022
3839.37	0.0006415
3849.01	0.0005979
3858.66	0.0006055
3868.31	0.0007034
3877.95	0.0006741
3887.6	0.0005257
3897.25	0.00041383
3906.89	0.0005163
3916.54	0.0005463
3926.19	0.00048738
3935.83	0.0005857
3945.48	0.00040961
3955.13	0.0005379
3964.77	0.0005925
3974.42	0.000497
3984.07	0.0003757
3993.71	0.0003549
