Infrared Spectrum: 4-AMINO-3-NITRO BIPHENYL
Formula: C12 H10 N2 O2
CAS: 4085-18-1
State: SOLID (MULL)
Melting point: 169-171 C
Class: COBLENTZ
Instrument: Not specified, most likely a prism, grating, or hybrid spectrometer.
Sampling: TRANSMISSION
Resolution: 4
Origin: WYANDOTTE CHEMICALS CORP., WYANDOTTE, MICHIGAN, USA
MICROMETERS	TRANSMITTANCE
2.015	0.303
2.05495	0.308
2.09489	0.311
2.13484	0.311
2.17478	0.315
2.21473	0.31
2.25467	0.318
2.29462	0.326
2.33457	0.326
2.37451	0.323
2.41446	0.335
2.4544	0.331
2.49435	0.336
2.53429	0.351
2.57424	0.353
2.61419	0.355
2.65413	0.363
2.69408	0.363
2.73402	0.373
2.77397	0.386
2.81391	0.378
2.85386	0.253
2.89381	0.18
2.93375	0.323
2.9737	0.351
3.01364	0.138
3.05359	0.265
3.09353	0.29
3.13348	0.276
3.17343	0.283
3.21337	0.303
3.25332	0.288
3.29326	0.266
3.33321	0.153
3.37315	0.04
3.4131	0.046
3.45305	0.081
3.49299	0.093
3.53294	0.318
3.57288	0.406
3.61283	0.438
3.65277	0.443
3.69272	0.44
3.73267	0.443
3.77261	0.44
3.81256	0.44
3.8525	0.451
3.89245	0.47
3.93239	0.478
3.97234	0.488
4.01229	0.493
4.05223	0.495
4.09218	0.49
4.13212	0.483
4.17207	0.495
4.21201	0.493
4.25196	0.485
4.29191	0.495
4.33185	0.501
4.3718	0.516
4.41174	0.531
4.45169	0.533
4.49163	0.538
4.53158	0.55
4.57153	0.551
4.61147	0.553
4.65142	0.553
4.69136	0.563
4.73131	0.576
4.77125	0.583
4.8112	0.591
4.85115	0.595
4.89109	0.603
4.93104	0.608
4.97098	0.613
5.01093	0.618
5.05087	0.621
5.09082	0.625
5.13077	0.628
5.17071	0.628
5.21066	0.636
5.2506	0.658
5.29055	0.668
5.33049	0.67
5.37044	0.676
5.41039	0.69
5.45033	0.701
5.49028	0.703
5.53022	0.711
5.57017	0.718
5.61011	0.723
5.65006	0.698
5.69001	0.771
5.72995	0.8
5.7699	0.86
5.80984	0.885
5.84979	0.911
5.88973	0.955
5.92968	0.951
5.96963	0.825
6.00957	0.536
6.04952	0.12
6.08946	0.206
6.12941	0.351
6.16935	0.438
6.2093	0.285
6.24925	0.28
6.28919	0.436
6.32914	0.445
6.36908	0.223
6.40903	0.325
6.44897	0.498
6.48892	0.441
6.52887	0.268
6.56881	0.403
6.60876	0.61
6.6487	0.133
6.68865	0.223
6.72859	0.235
6.76854	0.155
6.80849	0.145
6.84843	0.126
6.88838	0.153
6.92832	0.351
6.96827	0.5
7.00821	0.438
7.04816	0.226
7.08811	0.24
7.12805	0.331
7.168	0.401
7.20794	0.336
7.24789	0.198
7.28783	0.285
7.32778	0.583
7.36773	0.5
7.40767	0.118
7.44762	0.115
7.48756	0.305
7.52751	0.428
7.56745	0.486
7.6074	0.5
7.64735	0.366
7.68729	0.231
7.72724	0.375
7.76718	0.428
7.80713	0.308
7.84707	0.296
7.88702	0.278
7.92697	0.241
7.96691	0.188
8.00686	0.12
8.0468	0.085
8.08675	0.068
8.12669	0.058
8.16664	0.053
8.20659	0.055
8.24653	0.063
8.28648	0.096
8.32642	0.111
8.36637	0.115
8.40631	0.133
8.44626	0.15
8.48621	0.145
8.52615	0.173
8.5661	0.25
8.60604	0.24
8.64599	0.3
8.68593	0.383
8.72588	0.445
8.76583	0.47
8.80577	0.48
8.84572	0.498
8.88566	0.49
8.92561	0.44
8.96555	0.338
9.0055	0.255
9.04545	0.17
9.08539	0.14
9.12534	0.148
9.16528	0.201
9.20523	0.286
9.24517	0.331
9.28512	0.396
9.32507	0.456
9.36501	0.495
9.40496	0.505
9.4449	0.513
9.48485	0.516
9.52479	0.476
9.56474	0.458
9.60469	0.506
9.64463	0.528
9.68458	0.533
9.72452	0.511
9.76447	0.486
9.80441	0.531
9.84436	0.56
9.88431	0.571
9.92425	0.581
9.9642	0.543
10.0041	0.558
10.0441	0.573
10.084	0.575
10.124	0.568
10.1639	0.568
10.2039	0.565
10.2438	0.485
10.2838	0.496
10.3237	0.538
10.3637	0.538
10.4036	0.546
10.4435	0.56
10.4835	0.568
10.5234	0.573
10.5634	0.581
10.6033	0.581
10.6433	0.59
10.6832	0.591
10.7232	0.596
10.7631	0.6
10.8031	0.605
10.843	0.601
10.8829	0.578
10.9229	0.553
10.9628	0.586
11.0028	0.593
11.0427	0.576
11.0827	0.531
11.1226	0.465
11.1626	0.466
11.2025	0.433
11.2425	0.4
11.2824	0.478
11.3224	0.588
11.3623	0.618
11.4022	0.63
11.4422	0.635
11.4821	0.633
11.5221	0.633
11.562	0.633
11.602	0.633
11.6419	0.633
11.6819	0.631
11.7218	0.623
11.7618	0.63
11.8017	0.63
11.8416	0.623
11.8816	0.6
11.9215	0.513
11.9615	0.465
12.0014	0.371
12.0414	0.333
12.0813	0.518
12.1213	0.62
12.1612	0.655
12.2012	0.666
12.2411	0.688
12.281	0.698
12.321	0.701
12.3609	0.706
12.4009	0.711
12.4408	0.723
12.4808	0.721
12.5207	0.723
12.5607	0.726
12.6006	0.733
12.6406	0.736
12.6805	0.736
12.7205	0.731
12.7604	0.725
12.8003	0.715
12.8403	0.685
12.8802	0.62
12.9202	0.511
12.9601	0.356
13.0001	0.221
13.04	0.201
13.08	0.16
13.1199	0.071
13.1599	0.11
13.1998	0.323
13.2397	0.485
13.2797	0.6
13.3196	0.676
13.3596	0.716
13.3995	0.715
13.4395	0.588
13.4794	0.495
13.5194	0.518
13.5593	0.588
13.5993	0.648
13.6392	0.693
13.6791	0.716
13.7191	0.741
13.759	0.753
13.799	0.765
13.8389	0.775
13.8789	0.785
13.9188	0.79
13.9588	0.806
13.9987	0.818
14.0387	0.82
14.0786	0.805
14.1186	0.77
14.1585	0.696
14.1984	0.623
14.2384	0.595
14.2783	0.561
14.3183	0.473
14.3582	0.358
14.3982	0.26
14.4381	0.221
14.4781	0.25
14.518	0.385
14.558	0.533
14.5979	0.603
14.6378	0.633
14.6778	0.628
14.7177	0.55
14.7577	0.443
14.7976	0.356
14.8376	0.351
14.8775	0.433
14.9175	0.533
14.9574	0.601
14.9974	0.625
15.0373	0.625
15.0772	0.63
15.1172	0.66
15.1571	0.698
15.1971	0.72
15.237	0.733
15.277	0.73
15.3169	0.733
15.3569	0.728
15.3968	0.721
15.4368	0.715
15.4767	0.708
15.5167	0.698
15.5566	0.691
15.5965	0.683
15.6365	0.671
15.6764	0.665
15.7164	0.65
15.7563	0.636
15.7963	0.625
15.8362	0.605
15.8762	0.59
15.9161	0.581
15.9561	0.57
15.996	0.545
