Infrared Spectrum: N,N-Bis(4-chlorobenzyl)hydroxylamine
Formula: C 14 H 13 Cl 2 N O
CAS: 40861-08-3
State: gas
Origin: EPA-IR VAPOR PHASE LIBRARY
1/CM	ABSORBANCE
549.8	0.004393
559.445	0.003703
569.09	0.003033
578.734	0.003603
588.379	0.003023
598.024	0.003713
607.669	0.004633
617.313	0.004653
626.958	0.005573
636.603	0.005673
646.248	0.005463
655.893	0.004403
665.537	0.004743
675.182	0.004453
684.827	0.004643
694.472	0.006003
704.116	0.005733
713.761	0.005983
723.406	0.005643
733.051	0.006453
742.695	0.005353
752.34	0.004943
761.985	0.004833
771.63	0.005113
781.275	0.007493
790.919	0.013613
800.564	0.018823
810.209	0.022963
819.854	0.022213
829.498	0.021573
839.143	0.018233
848.788	0.009853
858.433	0.005943
868.078	0.003903
877.722	0.003013
887.367	0.002353
897.012	0.002223
906.657	0.002393
916.301	0.002293
925.946	0.002453
935.591	0.002983
945.236	0.003023
954.88	0.003183
964.525	0.003093
974.17	0.002583
983.815	0.003263
993.46	0.003693
1003.1	0.005973
1012.75	0.029093
1022.39	0.012033
1032.04	0.003993
1041.68	0.002973
1051.33	0.003393
1060.97	0.004243
1070.62	0.008253
1080.26	0.018013
1089.91	0.047983
1099.55	0.050563
1109.2	0.030563
1118.84	0.020283
1128.49	0.011323
1138.13	0.005923
1147.78	0.004393
1157.42	0.002973
1167.07	0.003523
1176.71	0.003843
1186.36	0.003703
1196	0.005393
1205.64	0.004733
1215.29	0.004643
1224.93	0.004403
1234.58	0.004613
1244.22	0.003293
1253.87	0.003043
1263.51	0.002763
1273.16	0.003733
1282.8	0.004123
1292.45	0.004813
1302.09	0.004803
1311.74	0.004503
1321.38	0.005843
1331.03	0.007633
1340.67	0.007913
1350.32	0.008473
1359.96	0.008443
1369.61	0.005883
1379.25	0.004663
1388.9	0.004333
1398.54	0.005833
1408.18	0.007593
1417.83	0.005333
1427.47	0.005503
1437.12	0.008273
1446.76	0.014523
1456.41	0.016813
1466.05	0.013793
1475.7	0.015733
1485.34	0.037233
1494.99	0.050863
1504.63	0.011503
1514.28	0.004383
1523.92	0.002453
1533.57	0.002043
1543.21	0.001663
1552.86	0.001993
1562.5	0.001993
1572.15	0.003043
1581.79	0.003923
1591.44	0.007063
1601.08	0.007343
1610.73	0.003483
1620.37	0.002983
1630.01	0.003103
1639.66	0.004293
1649.3	0.007113
1658.95	0.003283
1668.59	0.001703
1678.24	0.0012308
1687.88	0.0010022
1697.53	0.0011968
1707.17	0.0011885
1716.82	0.0011177
1726.46	0.0011323
1736.11	0.001403
1745.75	0.0013287
1755.4	0.001673
1765.04	0.001783
1774.69	0.002323
1784.33	0.001703
1793.98	0.0010618
1803.62	0.0009325
1813.27	0.0008365
1822.91	0.0007289
1832.55	0.000793
1842.2	0.0007637
1851.84	0.0008613
1861.49	0.001209
1871.13	0.001633
1880.78	0.002113
1890.42	0.002553
1900.07	0.002233
1909.71	0.001363
1919.36	0.0011325
1929	0.0009945
1938.65	0.0008323
1948.29	0.0007583
1957.94	0.0007653
1967.58	0.0005526
1977.23	0.0005325
1986.87	0.0005273
1996.52	0.0006274
2006.16	0.0006158
2015.81	0.0005358
2025.45	0.000614
2035.1	0.0005355
2044.74	0.0005442
2054.38	0.0005779
2064.03	0.0005466
2073.67	0.0005768
2083.32	0.000557
2092.96	0.0006471
2102.61	0.0006241
2112.25	0.0006607
2121.9	0.0006033
2131.54	0.0005159
2141.19	0.0004723
2150.83	0.0006605
2160.48	0.0005772
2170.12	0.0005421
2179.77	0.0005491
2189.41	0.0005757
2199.06	0.0002959
2208.7	0.00062
2218.35	0.0006669
2227.99	0.0006508
2237.64	0.0005305
2247.28	0.0007046
2256.92	0.0006274
2266.57	0.0004528
2276.21	0.0008894
2285.86	0.0006835
2295.5	0.0008451
2305.15	0.0006621
2314.79	0.0006604
2324.44	0.0004919
2334.08	0.0006161
2343.73	0.0006394
2353.37	0.0005114
2363.02	0.00041471
2372.66	0.00036175
2382.31	0.0006003
2391.95	0.0005643
2401.6	0.0007185
2411.24	0.0005018
2420.89	0.0007197
2430.53	0.000634
2440.18	0.0005362
2449.82	0.0004311
2459.47	0.0004908
2469.11	0.00042864
2478.75	0.000543
2488.4	0.000594
2498.04	0.0006247
2507.69	0.0005133
2517.33	0.00038877
2526.98	0.000738
2536.62	0.0008741
2546.27	0.0005737
2555.91	0.0008271
2565.56	0.0007173
2575.2	0.0006876
2584.85	0.000765
2594.49	0.0006563
2604.14	0.0008733
2613.78	0.0005038
2623.43	0.0008002
2633.07	0.0007325
2642.72	0.0006796
2652.36	0.0009001
2662.01	0.0010793
2671.65	0.0008591
2681.29	0.0011212
2690.94	0.001423
2700.58	0.0011787
2710.23	0.0012807
2719.87	0.0012791
2729.52	0.001723
2739.16	0.001753
2748.81	0.001713
2758.45	0.001933
2768.1	0.002443
2777.74	0.003013
2787.39	0.003813
2797.03	0.005133
2806.68	0.007363
2816.32	0.010613
2825.97	0.013453
2835.61	0.014173
2845.26	0.011813
2854.9	0.008793
2864.55	0.007373
2874.19	0.006973
2883.84	0.007593
2893.48	0.007833
2903.12	0.007713
2912.77	0.007713
2922.41	0.009393
2932.06	0.010053
2941.7	0.006893
2951.35	0.004083
2960.99	0.003053
2970.64	0.002153
2980.28	0.002333
2989.93	0.001903
2999.57	0.001913
3009.22	0.002433
3018.86	0.004183
3028.51	0.007483
3038.15	0.006873
3047.8	0.005493
3057.44	0.003633
3067.09	0.003043
3076.73	0.004193
3086.38	0.005753
3096.02	0.004643
3105.67	0.002913
3115.31	0.001543
3124.95	0.0010288
3134.6	0.0005166
3144.24	0.0002488
3153.89	0.0006288
3163.53	0.0003286
3173.18	0.0007565
3182.82	0.0006476
3192.47	0.0004755
3202.11	0.0005181
3211.76	0.00036924
3221.4	0.00039489
3231.05	0.000337358
3240.69	0.0004869
3250.34	0.00038404
3259.98	0.0005823
3269.63	0.00037971
3279.27	0.00040229
3288.92	0.0009001
3298.56	0.000193
3308.21	0.00038137
3317.85	0.000557
3327.49	0.000147
3337.14	0.000627
3346.78	0.00039259
3356.43	0.0007066
3366.07	5.5e-05
3375.72	0.0006081
3385.36	0.0005666
3395.01	0.0005578
3404.65	0.0005814
3414.3	0.0009277
3423.94	0.00043066
3433.59	0.000433
3443.23	0.0007725
3452.88	0.0002609
3462.52	0.00036136
3472.17	0.00032448
3481.81	7.3e-05
3491.46	0.0004656
3501.1	0.0005228
3510.75	0.0005466
3520.39	0.000338211
3530.04	0.000128
3539.68	0.00034967
3549.32	0.000338557
3558.97	3e-05
3568.61	0.0004566
3578.26	0.0005246
3587.9	0.0006346
3597.55	0.0004613
3607.19	0.0004665
3616.84	0.0005113
3626.48	0.0009169
3636.13	0.00034303
3645.77	0.0007856
3655.42	0.0005345
3665.06	0.0005629
3674.71	0.0005687
3684.35	0.0002794
3694	0.0007006
3703.64	0.0006754
3713.29	0.0003878
3722.93	0.0006362
3732.58	0.0007658
3742.22	0.0008609
3751.86	0.0008055
3761.51	9e-06
3771.15	0.0005357
3780.8	0.0007058
3790.44	0.0007382
3800.09	0.0008344
3809.73	0.0008888
3819.38	0.0002901
3829.02	0.000339801
3838.67	0.000201
3848.31	0.000509
3857.96	0.0005029
3867.6	0.0006617
3877.25	0.0005955
3886.89	0.0007662
3896.54	0.0005668
3906.18	0.0007357
3915.83	0.0006698
3925.47	0.0006679
3935.12	0.0006053
3944.76	0.000342821
3954.41	0.0006808
3964.05	0.000471
3973.69	0.0006161
3983.34	0.00035441
3992.98	0.0008752
