Infrared Spectrum: 2-Fluoro-5-(trifluoromethyl)benzonitrile
Formula: C 8 H 3 F 4 N
CAS: 4088-84-0
State: gas
Origin: EPA-IR VAPOR PHASE LIBRARY
1/CM	ABSORBANCE
549.8	0.002011
559.445	0.002721
569.09	0.0010376
578.734	0.002331
588.379	0.008101
598.024	0.013681
607.669	0.006151
617.313	0.004671
626.958	0.012641
636.603	0.029731
646.248	0.015931
655.893	0.006521
665.537	0.003171
675.182	0.001901
684.827	0.001921
694.472	0.001801
704.116	0.002481
713.761	0.004671
723.406	0.022691
733.051	0.027931
742.695	0.006531
752.34	0.003321
761.985	0.005611
771.63	0.014181
781.275	0.008431
790.919	0.002221
800.564	0.002001
810.209	0.003601
819.854	0.015231
829.498	0.036221
839.143	0.034611
848.788	0.013851
858.433	0.005531
868.078	0.004771
877.722	0.004581
887.367	0.008691
897.012	0.015301
906.657	0.023401
916.301	0.016271
925.946	0.006041
935.591	0.002431
945.236	0.001851
954.88	0.001971
964.525	0.001841
974.17	0.002091
983.815	0.001731
993.46	0.001831
1003.1	0.001721
1012.75	0.002561
1022.39	0.003611
1032.04	0.003781
1041.68	0.003741
1051.33	0.007671
1060.97	0.025881
1070.62	0.053951
1080.26	0.033361
1089.91	0.011911
1099.55	0.015741
1109.2	0.039461
1118.84	0.094581
1128.49	0.089261
1138.13	0.087141
1147.78	0.190331
1157.42	0.308331
1167.07	0.256071
1176.71	0.263431
1186.36	0.185681
1196	0.072581
1205.64	0.028981
1215.29	0.024791
1224.93	0.020121
1234.58	0.013501
1244.22	0.017651
1253.87	0.023771
1263.51	0.039181
1273.16	0.123951
1282.8	0.095961
1292.45	0.027401
1302.09	0.027081
1311.74	0.058891
1321.38	0.236821
1331.03	0.390841
1340.67	0.140901
1350.32	0.029781
1359.96	0.022561
1369.61	0.022831
1379.25	0.012901
1388.9	0.008741
1398.54	0.012141
1408.18	0.015701
1417.83	0.015641
1427.47	0.010141
1437.12	0.005471
1446.76	0.004121
1456.41	0.003821
1466.05	0.004261
1475.7	0.005091
1485.34	0.009281
1494.99	0.023821
1504.63	0.055991
1514.28	0.050591
1523.92	0.011981
1533.57	0.006161
1543.21	0.005141
1552.86	0.006001
1562.5	0.006201
1572.15	0.006751
1581.79	0.014101
1591.44	0.022751
1601.08	0.022891
1610.73	0.022221
1620.37	0.026251
1630.01	0.023011
1639.66	0.017421
1649.3	0.007381
1658.95	0.004471
1668.59	0.004561
1678.24	0.002971
1687.88	0.001611
1697.53	0.001581
1707.17	0.001301
1716.82	0.001411
1726.46	0.001411
1736.11	0.0011082
1745.75	0.0011984
1755.4	0.001301
1765.04	0.001391
1774.69	0.001851
1784.33	0.003311
1793.98	0.003261
1803.62	0.002971
1813.27	0.003641
1822.91	0.002601
1832.55	0.001471
1842.2	0.0010794
1851.84	0.0011855
1861.49	0.001501
1871.13	0.001571
1880.78	0.001481
1890.42	0.001791
1900.07	0.002501
1909.71	0.004081
1919.36	0.003691
1929	0.002041
1938.65	0.001321
1948.29	0.0011351
1957.94	0.0008395
1967.58	0.0010796
1977.23	0.0009041
1986.87	0.000849
1996.52	0.0010763
2006.16	0.0012371
2015.81	0.001421
2025.45	0.001561
2035.1	0.001541
2044.74	0.001671
2054.38	0.001801
2064.03	0.001601
2073.67	0.001341
2083.32	0.0012795
2092.96	0.001461
2102.61	0.0012725
2112.25	0.0011579
2121.9	0.0010012
2131.54	0.0009855
2141.19	0.0010399
2150.83	0.0010596
2160.48	0.001291
2170.12	0.001471
2179.77	0.0011508
2189.41	0.0012367
2199.06	0.0011404
2208.7	0.001471
2218.35	0.001841
2227.99	0.002301
2237.64	0.002871
2247.28	0.003031
2256.92	0.001781
2266.57	0.001731
2276.21	0.001921
2285.86	0.002221
2295.5	0.002331
2305.15	0.001951
2314.79	0.002021
2324.44	0.001911
2334.08	0.002161
2343.73	0.001781
2353.37	0.001891
2363.02	0.001611
2372.66	0.001601
2382.31	0.001501
2391.95	0.001621
2401.6	0.0012673
2411.24	0.0010498
2420.89	0.001291
2430.53	0.0011148
2440.18	0.001311
2449.82	0.001321
2459.47	0.001381
2469.11	0.001361
2478.75	0.001471
2488.4	0.001701
2498.04	0.001821
2507.69	0.001711
2517.33	0.001781
2526.98	0.001721
2536.62	0.001331
2546.27	0.001591
2555.91	0.0010846
2565.56	0.0012765
2575.2	0.001391
2584.85	0.001531
2594.49	0.001581
2604.14	0.001621
2613.78	0.001671
2623.43	0.001381
2633.07	0.001501
2642.72	0.001351
2652.36	0.001471
2662.01	0.0010709
2671.65	0.0010763
2681.29	0.0010999
2690.94	0.0012772
2700.58	0.0008448
2710.23	0.0011152
2719.87	0.0008565
2729.52	0.0010593
2739.16	0.0008659
2748.81	0.0008451
2758.45	0.001321
2768.1	0.0011401
2777.74	0.001351
2787.39	0.001461
2797.03	0.0012624
2806.68	0.001331
2816.32	0.0009147
2825.97	0.0010158
2835.61	0.0007505
2845.26	0.0005613
2854.9	0.0009342
2864.55	0.0009954
2874.19	0.0011423
2883.84	0.0006795
2893.48	0.000979
2903.12	0.0011387
2912.77	0.0009629
2922.41	0.0009187
2932.06	0.001
2941.7	0.0012555
2951.35	0.00124
2960.99	0.001351
2970.64	0.0008315
2980.28	0.001049
2989.93	0.0012665
2999.57	0.0011536
3009.22	0.0012282
3018.86	0.0011431
3028.51	0.0010193
3038.15	0.0010722
3047.8	0.000852
3057.44	0.001263
3067.09	0.0012111
3076.73	0.001531
3086.38	0.001951
3096.02	0.001971
3105.67	0.001301
3115.31	0.0009266
3124.95	0.0011906
3134.6	0.0010691
3144.24	0.0009261
3153.89	0.0008688
3163.53	0.0006119
3173.18	0.0008848
3182.82	0.0007351
3192.47	0.000945
3202.11	0.001246
3211.76	0.0006256
3221.4	0.001491
3231.05	0.0011997
3240.69	0.0007827
3250.34	0.0005551
3259.98	0.0010621
3269.63	0.0008402
3279.27	0.0010125
3288.92	0.0011251
3298.56	0.0007003
3308.21	0.0004314
3317.85	0.000832
3327.49	0.001026
3337.14	0.0011422
3346.78	0.0011205
3356.43	0.0008614
3366.07	0
3375.72	0.0007507
3385.36	0.001351
3395.01	0.001481
3404.65	0.001481
3414.3	0.001301
3423.94	0.0012444
3433.59	0.0009805
3443.23	0.0010681
3452.88	0.0010069
3462.52	0.001581
3472.17	0.0008741
3481.81	0.0010185
3491.46	0.0010693
3501.1	0.0008825
3510.75	0.0009416
3520.39	0.0012071
3530.04	0.001351
3539.68	0.0010278
3549.32	0.001371
3558.97	0.0011015
3568.61	0.001381
3578.26	0.0009717
3587.9	0.0008578
3597.55	0.0011166
3607.19	0.000501
3616.84	0.0009845
3626.48	0.001711
3636.13	0.0005722
3645.77	0.001491
3655.42	0.0008266
3665.06	0.0008579
3674.71	0.001401
3684.35	0.0012366
3694	0.0012861
3703.64	0.0005393
3713.29	0.001411
3722.93	0.0010723
3732.58	0.0010715
3742.22	0.0012052
3751.86	0.001471
3761.51	0.001311
3771.15	0.0012551
3780.8	0.0007395
3790.44	0.0002373
3800.09	0.001079
3809.73	0.0009754
3819.38	0.0008657
3829.02	0.0012801
3838.67	0.000614
3848.31	0.0006207
3857.96	0.0005034
3867.6	0.0011372
3877.25	0.0008548
3886.89	0.0008877
3896.54	0.0006483
3906.18	0.00030888
3915.83	0.0006315
3925.47	0.0011581
3935.12	0.000852
3944.76	0.001541
3954.41	0.0010152
3964.05	0.001741
3973.69	0.0012816
3983.34	0.0012463
3992.98	0.0008528
