Infrared Spectrum: cis-2-Buten-1-ol
Formula: C 4 H 8 O
CAS: 4088-60-2
State: gas
Instrument: HP-GC/MS/IRD
Origin: NIST Mass Spectrometry Data Center
1/CM	ABSORBANCE
550	0.00049
562	0.0005908
574	0.0005194
586	0.0005642
598	0.0005586
610	0.000525
622	0.0007266
634	0.0010276
646	0.001442
658	0.0019068
670	0.0025536
682	0.0032508
694	0.003493
706	0.0031234
718	0.00231
730	0.001498
742	0.0009086
754	0.0004634
766	0.0002366
778	0.000126
790	8.54e-05
802	9.24e-05
814	6.86e-05
826	7.98e-05
838	0.000266
850	0.0004102
862	0.0007168
874	0.0010388
886	0.0012824
898	0.0015386
910	0.0017724
922	0.002296
934	0.003605
946	0.005495
958	0.0070266
970	0.007651
982	0.0076468
994	0.008078
1006	0.0097678
1018	0.0128142
1030	0.0139776
1042	0.0119308
1054	0.0079604
1066	0.004669
1078	0.0030212
1090	0.0021504
1102	0.0017164
1114	0.0014812
1126	0.0014658
1138	0.0014826
1150	0.001561
1162	0.0017402
1174	0.0019712
1186	0.0021728
1198	0.0023142
1210	0.0023408
1222	0.0023744
1234	0.0022652
1246	0.0021518
1258	0.0021098
1270	0.00196
1282	0.0018326
1294	0.0017892
1306	0.0018158
1318	0.0019908
1330	0.0025396
1342	0.0034412
1354	0.0042238
1366	0.0045528
1378	0.0044324
1390	0.0039186
1402	0.0034258
1414	0.0026138
1426	0.0022792
1438	0.001981
1450	0.0017752
1462	0.0016282
1474	0.0014098
1486	0.0011242
1498	0.0008064
1510	0.000686
1522	0.0006356
1534	0.0006118
1546	0.0005796
1558	0.0005698
1570	0.0004676
1582	0.0004158
1594	0.0003724
1606	0.0003948
1618	0.0005166
1630	0.0006958
1642	0.0010304
1654	0.0011746
1666	0.0010962
1678	0.0007714
1690	0.0004382
1702	0.0003668
1714	0.0002996
1726	0.0001974
1738	0.0001862
1750	0.0001134
1762	8.68e-05
1774	5.04e-05
1786	2.52e-05
1798	2.24e-05
1810	3.22e-05
1822	1.12e-05
1834	2.94e-05
1846	6.16e-05
1858	3.78e-05
1870	7.42e-05
1882	5.18e-05
1894	7e-05
1906	0.0001036
1918	0.0001288
1930	0.0001442
1942	0.0001554
1954	0.0001652
1966	0.0001932
1978	0.0002114
1990	0.0002646
2002	0.0002786
2014	0.000231
2026	0.0002226
2038	0.000182
2050	0.0001624
2062	0.000161
2074	0.0001512
2086	0.0001442
2098	0.0001106
2110	8.96e-05
2122	9.1e-05
2134	8.68e-05
2146	9.24e-05
2158	6.58e-05
2170	6.72e-05
2182	8.4e-05
2194	7.98e-05
2206	7e-05
2218	8.96e-05
2230	7.98e-05
2242	7.98e-05
2254	8.82e-05
2266	0.0001022
2278	0.000133
2290	0.0001372
2302	0.0001064
2314	0.0001414
2326	0.0001582
2338	0.000189
2350	0.0001708
2362	0.0002128
2374	0.000182
2386	0.0001722
2398	0.0001708
2410	0.0001582
2422	0.00014
2434	0.0001652
2446	0.0001974
2458	0.0001568
2470	0.000175
2482	0.0001778
2494	0.0002002
2506	0.0001988
2518	0.0001638
2530	0.0001708
2542	0.0001792
2554	0.0001806
2566	0.0001652
2578	0.0001596
2590	0.0001848
2602	0.0001638
2614	0.0001722
2626	0.0002254
2638	0.0001974
2650	0.000196
2662	0.0002114
2674	0.0002338
2686	0.0002646
2698	0.0003024
2710	0.0003416
2722	0.0004592
2734	0.000525
2746	0.0006146
2758	0.000679
2770	0.0007518
2782	0.0008274
2794	0.000987
2806	0.0012572
2818	0.0016394
2830	0.0022694
2842	0.0031948
2854	0.0045066
2866	0.0059346
2878	0.0070126
2890	0.0076594
2902	0.0080808
2914	0.0088074
2926	0.0093436
2938	0.0091168
2950	0.0080486
2962	0.006475
2974	0.0056434
2986	0.0050876
2998	0.005117
3010	0.0058996
3022	0.0068754
3034	0.0069678
3046	0.006055
3058	0.0038794
3070	0.0022918
3082	0.001435
3094	0.000903
3106	0.0005908
3118	0.0004004
3130	0.0002674
3142	0.0002716
3154	0.000182
3166	0.0001148
3178	9.8e-05
3190	0.0001526
3202	0.0001204
3214	7.56e-05
3226	0.000133
3238	0.0001218
3250	9.52e-05
3262	0.0001484
3274	0.0001372
3286	0.0001036
3298	0.0001498
3310	0.000105
3322	0.0001386
3334	7.98e-05
3346	7.7e-05
3358	0.0001596
3370	0.0001162
3382	0.0001218
3394	0.0001778
3406	0.00021
3418	0.0002142
3430	0.0001974
3442	0.0001946
3454	0.0002212
3466	0.0002226
3478	0.0002604
3490	0.0002156
3502	0.0002744
3514	0.0002422
3526	0.0002492
3538	0.0002282
3550	0.000259
3562	0.0002184
3574	0.0002282
3586	0.0003402
3598	0.0003794
3610	0.0005796
3622	0.0009744
3634	0.0014476
3646	0.0022232
3658	0.0026838
3670	0.0025802
3682	0.0019208
3694	0.0010472
3706	0.0005838
3718	0.0004144
3730	0.000322
3742	0.0002506
3754	0.000252
3766	0.0002044
3778	0.0002226
3790	0.0002548
3802	0.0002338
3814	0.000245
3826	0.000245
3838	0.0003094
