Infrared Spectrum: 1,6-HEXANEDIOL, 3-METHYL-
Formula: C7 H16 O2
CAS: 4089-71-8
Class: COBLENTZ
Instrument: Not specified, most likely a prism, grating, or hybrid spectrometer.
Sampling: TRANSMISSION
Path length: SMEAR
Resolution: 4
Origin: TENNESSEE EASTMAN COMPANY, RESEARCH LABORATORIES
MICROMETERS	TRANSMITTANCE
2.031	0.948
2.0696	0.948
2.1082	0.943
2.1468	0.941
2.1854	0.94
2.224	0.94
2.2626	0.94
2.3012	0.933
2.3398	0.919
2.3784	0.919
2.417	0.919
2.4556	0.919
2.4942	0.919
2.5328	0.919
2.5714	0.919
2.61	0.924
2.6486	0.929
2.6872	0.925
2.7258	0.925
2.7644	0.909
2.803	0.862
2.8416	0.779
2.8802	0.664
2.9188	0.479
2.9574	0.34
2.996	0.279
3.0346	0.233
3.0732	0.222
3.1118	0.229
3.1504	0.295
3.189	0.398
3.2276	0.509
3.2662	0.59
3.3048	0.679
3.3434	0.714
3.382	0.653
3.4206	0.248
3.4592	0.216
3.4978	0.309
3.5364	0.303
3.575	0.588
3.6136	0.693
3.6522	0.743
3.6908	0.759
3.7294	0.761
3.768	0.788
3.8066	0.811
3.8452	0.82
3.8838	0.83
3.9224	0.84
3.961	0.846
3.9996	0.851
4.0382	0.856
4.0768	0.869
4.1154	0.88
4.154	0.88
4.1926	0.885
4.2312	0.893
4.2698	0.941
4.3084	0.948
4.347	0.948
4.3856	0.911
4.4242	0.911
4.4628	0.911
4.5014	0.911
4.54	0.911
4.5786	0.911
4.6172	0.911
4.6558	0.911
4.6944	0.911
4.733	0.909
4.7716	0.909
4.8102	0.909
4.8488	0.908
4.8874	0.906
4.926	0.904
4.9646	0.906
5.0032	0.909
5.0418	0.914
5.0804	0.914
5.119	0.911
5.1576	0.914
5.1962	0.912
5.2348	0.912
5.2734	0.912
5.312	0.912
5.3506	0.911
5.3892	0.908
5.4278	0.916
5.4664	0.916
5.505	0.914
5.5436	0.911
5.5822	0.911
5.6208	0.908
5.6594	0.909
5.698	0.901
5.7366	0.872
5.7752	0.822
5.8138	0.798
5.8524	0.788
5.891	0.825
5.9296	0.835
5.9682	0.845
6.0068	0.838
6.0454	0.83
6.084	0.837
6.1226	0.83
6.1612	0.837
6.1998	0.846
6.2384	0.851
6.277	0.861
6.3156	0.861
6.3542	0.861
6.3928	0.861
6.4314	0.848
6.47	0.861
6.5086	0.841
6.5472	0.846
6.5858	0.84
6.6244	0.83
6.663	0.793
6.7016	0.75
6.7402	0.654
6.7788	0.616
6.8174	0.562
6.856	0.53
6.8946	0.554
6.9332	0.598
6.9718	0.595
7.0104	0.593
7.049	0.601
7.0876	0.617
7.1262	0.635
7.1648	0.643
7.2034	0.633
7.242	0.561
7.2806	0.53
7.3192	0.593
7.3578	0.617
7.3964	0.635
7.435	0.648
7.4736	0.656
7.5122	0.656
7.5508	0.667
7.5894	0.682
7.628	0.701
7.6666	0.712
7.7052	0.712
7.7438	0.719
7.7824	0.722
7.821	0.729
7.8596	0.74
7.8982	0.74
7.9368	0.74
7.9754	0.737
8.014	0.737
8.0526	0.738
8.0912	0.738
8.1298	0.741
8.1684	0.741
8.207	0.741
8.2456	0.741
8.2842	0.741
8.3228	0.748
8.3614	0.753
8.4	0.756
8.4386	0.75
8.4772	0.756
8.5158	0.756
8.5544	0.762
8.593	0.777
8.6316	0.779
8.6702	0.779
8.7088	0.77
8.7474	0.764
8.786	0.759
8.8246	0.754
8.8632	0.75
8.9018	0.735
8.9404	0.724
8.979	0.72
9.0176	0.719
9.0562	0.725
9.0948	0.729
9.1334	0.729
9.172	0.703
9.2106	0.64
9.2492	0.524
9.2878	0.429
9.3264	0.369
9.365	0.327
9.4036	0.3
9.4422	0.275
9.4808	0.275
9.5194	0.341
9.558	0.39
9.5966	0.427
9.6352	0.44
9.6738	0.451
9.7124	0.469
9.751	0.474
9.7896	0.474
9.8282	0.469
9.8668	0.467
9.9054	0.472
9.944	0.503
9.9826	0.533
10.0212	0.593
10.0598	0.62
10.0984	0.648
10.137	0.672
10.1756	0.69
10.2142	0.717
10.2528	0.719
10.2914	0.719
10.33	0.717
10.3686	0.712
10.4072	0.714
10.4458	0.72
10.4844	0.732
10.523	0.759
10.5616	0.779
10.6002	0.793
10.6388	0.798
10.6774	0.801
10.716	0.808
10.7546	0.822
10.7932	0.827
10.8318	0.829
10.8704	0.829
10.909	0.827
10.9476	0.809
10.9862	0.798
11.0248	0.772
11.0634	0.759
11.102	0.751
11.1406	0.75
11.1792	0.759
11.2178	0.777
11.2564	0.787
11.295	0.798
11.3336	0.8
11.3722	0.8
11.4108	0.8
11.4494	0.8
11.488	0.8
11.5266	0.8
11.5652	0.8
11.6038	0.8
11.6424	0.8
11.681	0.801
11.7196	0.801
11.7582	0.796
11.7968	0.787
11.8354	0.775
11.874	0.772
11.9126	0.77
11.9512	0.772
11.9898	0.777
12.0284	0.779
12.067	0.783
12.1056	0.785
12.1442	0.787
12.1828	0.787
12.2214	0.788
12.26	0.787
12.2986	0.787
12.3372	0.783
12.3758	0.78
12.4144	0.779
12.453	0.774
12.4916	0.767
12.5302	0.766
12.5688	0.761
12.6074	0.759
12.646	0.754
12.6846	0.75
12.7232	0.748
12.7618	0.743
12.8004	0.738
12.839	0.735
12.8776	0.732
12.9162	0.73
12.9548	0.727
12.9934	0.722
13.032	0.717
13.0706	0.714
13.1092	0.709
13.1478	0.708
13.1864	0.703
13.225	0.696
13.2636	0.685
13.3022	0.68
13.3408	0.679
13.3794	0.675
13.418	0.677
13.4566	0.675
13.4952	0.675
13.5338	0.674
13.5724	0.672
13.611	0.669
13.6496	0.669
13.6882	0.667
13.7268	0.664
13.7654	0.661
13.804	0.658
13.8426	0.656
13.8812	0.654
13.9198	0.645
13.9584	0.643
13.997	0.64
14.0356	0.637
14.0742	0.63
14.1128	0.629
14.1514	0.625
14.19	0.622
14.2286	0.619
14.2672	0.617
14.3058	0.616
14.3444	0.614
14.383	0.611
14.4216	0.609
14.4602	0.604
14.4988	0.601
14.5374	0.6
14.576	0.596
14.6146	0.595
14.6532	0.591
14.6918	0.588
14.7304	0.587
14.769	0.585
14.8076	0.58
14.8462	0.577
14.8848	0.574
14.9234	0.572
14.962	0.572
15.0006	0.572
15.0392	0.572
15.0778	0.567
15.1164	0.562
15.155	0.561
15.1936	0.559
15.2322	0.558
15.2708	0.558
15.3094	0.558
15.348	0.558
15.3866	0.558
15.4252	0.558
15.4638	0.558
15.5024	0.558
15.541	0.558
15.5796	0.558
15.6182	0.559
15.6568	0.559
15.6954	0.559
15.734	0.559
15.7726	0.561
15.8112	0.561
15.8498	0.562
15.8884	0.564
15.927	0.567
15.9656	0.569
