Infrared Spectrum: 1,3-PROPANEDIOL, 2,2-DIMETHYL-, CYCLIC PHOSPHOROCHLORIDATE
Formula: C5 H10 Cl O3 P
CAS: 4090-55-5
State: SOLID (KBr PELLET)
Melting point: 102-103 C
Class: COBLENTZ
Instrument: Not specified, most likely a prism, grating, or hybrid spectrometer.
Sampling: TRANSMISSION
Resolution: 4
Origin: TENNESSEE EASTMAN COMPANY, RESEARCH LABORATORIES
MICROMETERS	TRANSMITTANCE
2.053	0.786
2.09302	0.791
2.13304	0.801
2.17306	0.813
2.21308	0.814
2.25311	0.811
2.29313	0.818
2.33315	0.829
2.37317	0.834
2.41319	0.849
2.45321	0.863
2.49323	0.866
2.53325	0.869
2.57327	0.869
2.6133	0.869
2.65332	0.874
2.69334	0.883
2.73336	0.889
2.77338	0.889
2.8134	0.889
2.85342	0.884
2.89344	0.888
2.93346	0.874
2.97349	0.876
3.01351	0.881
3.05353	0.884
3.09355	0.886
3.13357	0.886
3.17359	0.878
3.21361	0.876
3.25363	0.858
3.29365	0.808
3.33367	0.474
3.3737	0.47
3.41372	0.545
3.45374	0.687
3.49376	0.849
3.53378	0.868
3.5738	0.876
3.61382	0.878
3.65384	0.863
3.69386	0.866
3.73389	0.873
3.77391	0.873
3.81393	0.876
3.85395	0.876
3.89397	0.876
3.93399	0.889
3.97401	0.893
4.01403	0.898
4.05405	0.904
4.09408	0.913
4.1341	0.916
4.17412	0.909
4.21414	0.898
4.25416	0.871
4.29418	0.859
4.3342	0.854
4.37422	0.854
4.41424	0.854
4.45427	0.846
4.49429	0.836
4.53431	0.819
4.57433	0.823
4.61435	0.814
4.65437	0.824
4.69439	0.831
4.73441	0.829
4.77443	0.836
4.81446	0.853
4.85448	0.858
4.8945	0.858
4.93452	0.861
4.97454	0.866
5.01456	0.883
5.05458	0.883
5.0946	0.886
5.13462	0.904
5.17465	0.909
5.21467	0.916
5.25469	0.933
5.29471	0.944
5.33473	0.948
5.37475	0.946
5.41477	0.871
5.45479	0.799
5.49481	0.906
5.53484	0.919
5.57486	0.863
5.61488	0.889
5.6549	0.873
5.69492	0.881
5.73494	0.854
5.77496	0.841
5.81498	0.806
5.855	0.779
5.89502	0.757
5.93505	0.729
5.97507	0.704
6.01509	0.696
6.05511	0.677
6.09513	0.674
6.13515	0.684
6.17517	0.716
6.21519	0.772
6.25521	0.806
6.29524	0.836
6.33526	0.846
6.37528	0.863
6.4153	0.873
6.45532	0.861
6.49534	0.874
6.53536	0.864
6.57538	0.854
6.6154	0.839
6.65543	0.722
6.69545	0.367
6.73547	0.265
6.77549	0.302
6.81551	0.642
6.85553	0.858
6.89555	0.848
6.93557	0.891
6.97559	0.919
7.01562	0.859
7.05564	0.721
7.09566	0.739
7.13568	0.792
7.1757	0.808
7.21572	0.529
7.25574	0.287
7.29576	0.377
7.33578	0.659
7.37581	0.701
7.41583	0.644
7.45585	0.527
7.49587	0.414
7.53589	0.337
7.57591	0.036
7.61593	0.026
7.65595	0.025
7.69597	0.125
7.736	0.285
7.77602	0.459
7.81604	0.464
7.85606	0.487
7.89608	0.575
7.9361	0.637
7.97612	0.689
8.01614	0.717
8.05616	0.716
8.09619	0.58
8.13621	0.449
8.17623	0.565
8.21625	0.457
8.25627	0.474
8.29629	0.609
8.33631	0.639
8.37633	0.611
8.41635	0.56
8.45637	0.611
8.4964	0.587
8.53642	0.547
8.57644	0.51
8.61646	0.455
8.65648	0.4
8.6965	0.33
8.73652	0.297
8.77654	0.27
8.81656	0.252
8.85659	0.267
8.89661	0.295
8.93663	0.323
8.97665	0.337
9.01667	0.338
9.05669	0.345
9.09671	0.357
9.13673	0.355
9.17675	0.342
9.21678	0.322
9.2568	0.26
9.29682	0.198
9.33684	0.115
9.37686	0.051
9.41688	0.026
9.4569	0.021
9.49692	0.023
9.53694	0.098
9.57697	0.207
9.61699	0.232
9.65701	0.136
9.69703	0.09
9.73705	0.068
9.77707	0.053
9.81709	0.031
9.85711	0.023
9.89713	0.023
9.93716	0.021
9.97718	0.025
10.0172	0.063
10.0572	0.05
10.0972	0.021
10.1373	0.021
10.1773	0.056
10.2173	0.148
10.2573	0.26
10.2973	0.33
10.3374	0.36
10.3774	0.372
10.4174	0.41
10.4574	0.404
10.4975	0.312
10.5375	0.385
10.5775	0.584
10.6175	0.672
10.6575	0.696
10.6976	0.662
10.7376	0.517
10.7776	0.26
10.8176	0.227
10.8576	0.29
10.8977	0.607
10.9377	0.724
10.9777	0.777
11.0177	0.841
11.0577	0.873
11.0978	0.876
11.1378	0.881
11.1778	0.888
11.2178	0.896
11.2579	0.899
11.2979	0.904
11.3379	0.908
11.3779	0.911
11.4179	0.909
11.458	0.881
11.498	0.824
11.538	0.697
11.578	0.479
11.618	0.123
11.6581	0.071
11.6981	0.093
11.7381	0.171
11.7781	0.29
11.8181	0.484
11.8582	0.597
11.8982	0.642
11.9382	0.697
11.9782	0.766
12.0183	0.833
12.0583	0.873
12.0983	0.884
12.1383	0.896
12.1783	0.906
12.2184	0.888
12.2584	0.839
12.2984	0.828
12.3384	0.856
12.3784	0.844
12.4185	0.796
12.4585	0.756
12.4985	0.652
12.5385	0.405
12.5785	0.125
12.6186	0.048
12.6586	0.045
12.6986	0.068
12.7386	0.175
12.7787	0.282
12.8187	0.4
12.8587	0.487
12.8987	0.564
12.9387	0.641
12.9788	0.736
13.0188	0.814
13.0588	0.874
13.0988	0.908
13.1388	0.944
13.1789	0.956
13.2189	0.964
13.2589	0.968
13.2989	0.969
13.3389	0.971
13.379	0.971
13.419	0.969
13.459	0.969
13.499	0.969
13.5391	0.968
13.5791	0.968
13.6191	0.964
13.6591	0.964
13.6991	0.966
13.7392	0.964
13.7792	0.969
13.8192	0.968
13.8592	0.959
13.8992	0.959
13.9393	0.959
13.9793	0.961
14.0193	0.961
14.0593	0.961
14.0993	0.961
14.1394	0.963
14.1794	0.963
14.2194	0.963
14.2594	0.963
14.2995	0.963
14.3395	0.963
14.3795	0.961
14.4195	0.959
14.4595	0.956
14.4996	0.953
14.5396	0.949
14.5796	0.943
14.6196	0.941
14.6596	0.936
14.6997	0.933
14.7397	0.926
14.7797	0.914
14.8197	0.914
14.8597	0.911
14.8998	0.886
14.9398	0.849
14.9798	0.816
15.0198	0.824
15.0599	0.838
15.0999	0.843
15.1399	0.833
15.1799	0.813
15.2199	0.787
15.26	0.776
15.3	0.759
15.34	0.739
15.38	0.731
15.42	0.714
15.4601	0.696
15.5001	0.689
15.5401	0.671
15.5801	0.659
15.6202	0.641
15.6602	0.624
15.7002	0.604
15.7402	0.58
15.7802	0.557
15.8203	0.53
15.8603	0.512
15.9003	0.495
15.9403	0.474
