Infrared Spectrum: 3-Acetyl-2-methyl-5-phenylthiophene
Formula: C 13 H 12 O S
CAS: 40932-63-6
State: gas
Origin: EPA-IR VAPOR PHASE LIBRARY
1/CM	ABSORBANCE
549.8	0.002771
559.445	0.005541
569.09	0.008031
578.735	0.008421
588.38	0.019811
598.025	0.014231
607.67	0.006151
617.315	0.006091
626.96	0.004731
636.605	0.003021
646.251	0.002301
655.896	0.003341
665.541	0.005751
675.186	0.008991
684.831	0.016311
694.476	0.018541
704.121	0.012831
713.766	0.010491
723.411	0.007661
733.056	0.006851
742.701	0.011671
752.346	0.025281
761.991	0.020411
771.636	0.007731
781.281	0.004351
790.926	0.002741
800.571	0.001951
810.216	0.002541
819.861	0.006341
829.507	0.009721
839.152	0.008561
848.797	0.004131
858.442	0.003151
868.087	0.002441
877.732	0.001781
887.377	0.001701
897.022	0.001911
906.667	0.002371
916.312	0.002261
925.957	0.003241
935.602	0.005611
945.247	0.010091
954.892	0.015431
964.537	0.012341
974.182	0.005931
983.827	0.003911
993.472	0.003371
1003.12	0.003391
1012.76	0.003591
1022.41	0.004931
1032.05	0.006701
1041.7	0.004001
1051.34	0.002991
1060.99	0.003451
1070.63	0.003681
1080.28	0.002971
1089.92	0.002591
1099.57	0.002461
1109.21	0.002321
1118.86	0.002071
1128.5	0.002281
1138.15	0.002951
1147.79	0.004301
1157.44	0.006161
1167.08	0.009081
1176.73	0.010781
1186.37	0.011901
1196.02	0.013671
1205.66	0.025721
1215.31	0.069751
1224.95	0.101011
1234.6	0.046821
1244.24	0.016531
1253.89	0.007991
1263.53	0.006961
1273.18	0.006941
1282.82	0.004801
1292.47	0.004491
1302.11	0.004721
1311.76	0.004381
1321.4	0.004781
1331.05	0.005661
1340.69	0.008321
1350.34	0.015941
1359.98	0.029021
1369.63	0.033641
1379.27	0.020211
1388.92	0.010331
1398.56	0.008371
1408.21	0.008021
1417.85	0.009191
1427.5	0.012741
1437.14	0.014851
1446.79	0.018321
1456.43	0.030211
1466.08	0.042351
1475.73	0.023281
1485.37	0.013801
1495.02	0.016231
1504.66	0.013481
1514.31	0.009971
1523.95	0.010911
1533.6	0.017101
1543.24	0.024061
1552.89	0.014501
1562.53	0.006821
1572.18	0.006151
1581.82	0.008471
1591.47	0.014111
1601.11	0.016981
1610.76	0.008461
1620.4	0.005071
1630.05	0.004791
1639.69	0.006381
1649.34	0.009771
1658.98	0.014241
1668.63	0.016211
1678.27	0.027281
1687.92	0.093461
1697.56	0.129611
1707.21	0.028301
1716.85	0.011171
1726.5	0.009901
1736.14	0.009451
1745.79	0.005431
1755.43	0.002921
1765.08	0.002411
1774.72	0.002441
1784.37	0.002781
1794.01	0.002531
1803.66	0.002201
1813.3	0.002121
1822.95	0.001721
1832.59	0.001671
1842.24	0.001661
1851.88	0.001791
1861.53	0.002011
1871.17	0.002031
1880.82	0.002331
1890.46	0.0014829
1900.11	0.0011579
1909.75	0.0012525
1919.4	0.0014021
1929.04	0.001811
1938.69	0.002081
1948.33	0.002311
1957.98	0.002231
1967.62	0.0011775
1977.27	0.0009928
1986.91	0.0009034
1996.56	0.0008568
2006.2	0.0007994
2015.85	0.0006879
2025.49	0.0007255
2035.14	0.0007789
2044.78	0.0008248
2054.43	0.0008362
2064.07	0.0008164
2073.72	0.0007162
2083.36	0.000719
2093.01	0.00064118
2102.65	0.0006958
2112.3	0.0006065
2121.94	0.0006472
2131.59	0.00061901
2141.23	0.0005949
2150.88	0.0006903
2160.52	0.0007705
2170.17	0.0007908
2179.81	0.0008448
2189.46	0.0008015
2199.1	0.0007752
2208.75	0.0007198
2218.39	0.000719
2228.04	0.00064458
2237.68	0.0008123
2247.33	0.0008455
2256.97	0.0008069
2266.62	0.0007843
2276.26	0.0009021
2285.91	0.0009579
2295.55	0.001019
2305.2	0.0012038
2314.84	0.001302
2324.49	0.0010906
2334.13	0.0007883
2343.78	0.0008726
2353.42	0.000833
2363.07	0.0008036
2372.72	0.0008362
2382.36	0.0009083
2392.01	0.0008512
2401.65	0.0008827
2411.3	0.000954
2420.94	0.0008169
2430.59	0.0008646
2440.23	0.0008151
2449.88	0.0008854
2459.52	0.0007884
2469.17	0.0007165
2478.81	0.00064195
2488.46	0.0007135
2498.1	0.00063524
2507.75	0.0007112
2517.39	0.0008397
2527.04	0.0008579
2536.68	0.0009042
2546.33	0.0009044
2555.97	0.0007792
2565.62	0.000883
2575.26	0.0008382
2584.91	0.0008505
2594.55	0.0008767
2604.2	0.0008405
2613.84	0.0007864
2623.49	0.0007745
2633.13	0.0007809
2642.78	0.0006805
2652.42	0.00058672
2662.07	0.000705
2671.71	0.00056951
2681.36	0.0007427
2691	0.0006511
2700.65	0.0007582
2710.29	0.0006752
2719.94	0.0008048
2729.58	0.0008418
2739.23	0.001054
2748.87	0.0011706
2758.52	0.0009574
2768.16	0.0008927
2777.81	0.0008057
2787.45	0.0008122
2797.1	0.0008515
2806.74	0.0009144
2816.39	0.0011276
2826.03	0.0013665
2835.68	0.001681
2845.32	0.002311
2854.97	0.002961
2864.61	0.003591
2874.26	0.003651
2883.9	0.003481
2893.55	0.003401
2903.19	0.003471
2912.84	0.004471
2922.48	0.007521
2932.13	0.013091
2941.77	0.011351
2951.42	0.006251
2961.06	0.005171
2970.71	0.005761
2980.35	0.005921
2990	0.005321
2999.64	0.006041
3009.29	0.008221
3018.93	0.009261
3028.58	0.011241
3038.22	0.011511
3047.87	0.008291
3057.51	0.011021
3067.16	0.021451
3076.8	0.018421
3086.45	0.011931
3096.09	0.009301
3105.74	0.006291
3115.38	0.003411
3125.03	0.001861
3134.67	0.0013652
3144.32	0.0011752
3153.96	0.001016
3163.61	0.0007284
3173.25	0.0006609
3182.9	0.00060614
3192.54	0.0005776
3202.19	0.0005255
3211.83	0.00042
3221.48	0.00042
3231.12	0.00054129
3240.77	0.000444
3250.41	0.000367
3260.06	0.00054978
3269.7	0.000483
3279.35	0.000385
3289	0.0004568
3298.64	0.000438
3308.29	0.000407
3317.93	0.0005118
3327.58	0.0005365
3337.22	0.0007163
3346.87	0.0008795
3356.51	0.0012478
3366.16	0.001881
3375.8	0.001771
3385.45	0.0010034
3395.09	0.00061906
3404.74	0.000433
3414.38	0.000355
3424.03	0.00031
3433.67	0.000407
3443.32	0.000279
3452.96	0.000415
3462.61	0.000266
3472.25	0.0004882
3481.9	0.000405
3491.54	0.0004726
3501.19	0.000417
3510.83	0.000401
3520.48	0.000335
3530.12	0.000255
3539.77	0.000263
3549.41	0.000372
3559.06	0.00031
3568.7	0.000202
3578.35	0.000313
3587.99	0.000388
3597.64	0.000409
3607.28	0.000393
3616.93	0.000411
3626.57	0.000391
3636.22	0.000334
3645.86	0.000398
3655.51	0.00042
3665.15	0.00061151
3674.8	0.000354
3684.44	0.000396
3694.09	0.0005185
3703.73	0.000449
3713.38	0.000321
3723.02	0.000257
3732.67	0.000413
3742.31	0.000401
3751.96	0.000246
3761.6	0.0005327
3771.25	0.0005211
3780.89	0.00064569
3790.54	0.0004581
3800.18	0.000372
3809.83	0.000347
3819.47	0.000262
3829.12	0.00032
3838.76	0.00038
3848.41	0.000341
3858.05	0.000272
3867.7	0.000397
3877.34	0.0004666
3886.99	0.000372
3896.63	0.000462
3906.28	0.0004675
3915.92	0.00057406
3925.57	0.0005346
3935.21	0.000419
3944.86	0.0004922
3954.5	0.0007482
3964.15	0.00057034
3973.79	0.000449
3983.44	0.0005383
3993.08	0.0007423
