Infrared Spectrum: TRIBROMO(METHYL)SILANE
Formula: C H3 Br3 Si
CAS: 4095-09-4
State: SOLUTION (7% IN CCl4 FOR 3800-1300, 3% IN CS2 FOR 1300-650, AND 7% IN CCl4 FOR 650-230 CM^-^1)
Class: COBLENTZ III
Instrument: PERKIN-ELMER 521 (GRATING)
Instrument parameters: FILTERS AT 3150, 2500, 2000, 1150, 700, 410. GRATING CHANGES: 2000, 630 CM^-^1
Sampling: TRANSMISSION
Path length: 0.011 CM, 0.011 CM, AND 0.020 CM
Resolution: 2
Origin: DOW CORNING CORP.
1/CM	TRANSMITTANCE
231.531	0.877
240.737	0.879
249.943	0.881
259.149	0.879
268.355	0.873
277.561	0.863
286.767	0.854
295.973	0.842
305.179	0.799
314.385	0.556
323.591	0.7011
332.797	0.873
342.003	0.868
351.209	0.849
360.415	0.858
369.621	0.856
378.827	0.854
388.033	0.855
397.239	0.844
406.445	0.834
415.651	0.802
424.857	0.663
434.063	0.651
443.269	0.493
452.475	0.042
461.681	0.037
470.887	0.373
480.092	0.701
489.298	0.77
498.504	0.775
507.71	0.785
516.916	0.832
526.122	0.844
535.328	0.83
544.534	0.817
553.74	0.822
562.946	0.819
572.152	0.85
581.358	0.854
590.564	0.841
599.77	0.841
608.976	0.85
618.182	0.853
627.388	0.853
636.594	0.853
645.8	0.849
655.006	0.844
664.212	0.846
673.418	0.856
682.624	0.861
691.83	0.865
701.036	0.88
710.242	0.88
719.448	0.878
728.654	0.856
737.86	0.741
747.066	0.857
756.272	0.886
765.478	0.885
774.684	0.869
783.89	0.815
793.096	0.423
802.302	0.841
811.508	0.904
820.714	0.911
829.92	0.909
839.126	0.908
848.332	0.918
857.538	0.92
866.744	0.922
875.95	0.923
885.156	0.924
894.362	0.923
903.568	0.923
912.774	0.923
921.98	0.92
931.186	0.92
940.392	0.922
949.598	0.919
958.804	0.918
968.01	0.918
977.215	0.916
986.421	0.909
995.627	0.902
1004.83	0.895
1014.04	0.889
1023.25	0.885
1032.45	0.877
1041.66	0.873
1050.86	0.864
1060.07	0.86
1069.28	0.858
1078.48	0.855
1087.69	0.854
1096.89	0.856
1106.1	0.861
1115.31	0.87
1124.51	0.885
1133.72	0.897
1142.92	0.904
1152.13	0.91
1161.34	0.916
1170.54	0.919
1179.75	0.92
1188.95	0.924
1198.16	0.923
1207.37	0.919
1216.57	0.916
1225.78	0.913
1234.98	0.905
1244.19	0.893
1253.39	0.825
1262.6	0.896
1271.81	0.907
1281.01	0.912
1290.22	0.915
1299.42	0.917
1308.63	0.916
1317.84	0.912
1327.04	0.911
1336.25	0.909
1345.45	0.904
1354.66	0.9
1363.87	0.889
1373.07	0.878
1382.28	0.846
1391.48	0.672
1400.69	0.819
1409.9	0.871
1419.1	0.891
1428.31	0.893
1437.51	0.893
1446.72	0.893
1455.93	0.893
1465.13	0.895
1474.34	0.897
1483.54	0.9
1492.75	0.9
1501.96	0.899
1511.16	0.897
1520.37	0.893
1529.57	0.891
1538.78	0.889
1547.99	0.891
1557.19	0.892
1566.4	0.893
1575.6	0.894
1584.81	0.896
1594.02	0.896
1603.22	0.899
1612.43	0.899
1621.63	0.899
1630.84	0.899
1640.05	0.899
1649.25	0.899
1658.46	0.897
1667.66	0.897
1676.87	0.897
1686.08	0.899
1695.28	0.899
1704.49	0.897
1713.69	0.896
1722.9	0.896
1732.11	0.896
1741.31	0.896
1750.52	0.896
1759.72	0.897
1768.93	0.897
1778.14	0.899
1787.34	0.899
1796.55	0.899
1805.75	0.9
1814.96	0.9
1824.17	0.899
1833.37	0.897
1842.58	0.897
1851.78	0.899
1860.99	0.9
1870.2	0.899
1879.4	0.897
1888.61	0.896
1897.81	0.896
1907.02	0.896
1916.23	0.895
1925.43	0.895
1934.64	0.894
1943.84	0.893
1953.05	0.893
1962.26	0.893
1971.46	0.892
1980.67	0.884
1989.87	0.872
1999.08	0.913
2008.29	0.915
2017.49	0.913
2026.7	0.913
2035.9	0.913
2045.11	0.913
2054.32	0.916
2063.52	0.916
2072.73	0.916
2081.93	0.916
2091.14	0.916
2100.35	0.915
2109.55	0.915
2118.76	0.915
2127.96	0.915
2137.17	0.915
2146.38	0.913
2155.58	0.913
2164.79	0.913
2173.99	0.913
2183.2	0.915
2192.41	0.915
2201.61	0.915
2210.82	0.915
2220.02	0.915
2229.23	0.915
2238.43	0.915
2247.64	0.915
2256.85	0.915
2266.05	0.915
2275.26	0.915
2284.46	0.916
2293.67	0.916
2302.88	0.915
2312.08	0.915
2321.29	0.915
2330.49	0.915
2339.7	0.915
2348.91	0.913
2358.11	0.912
2367.32	0.911
2376.52	0.911
2385.73	0.9102
2394.94	0.91
2404.14	0.91
2413.35	0.91
2422.55	0.91
2431.76	0.91
2440.97	0.9091
2450.17	0.908
2459.38	0.904
2468.58	0.9031
2477.79	0.9039
2487	0.902
2496.2	0.902
2505.41	0.902
2514.61	0.902
2523.82	0.902
2533.03	0.902
2542.23	0.901
2551.44	0.902
2560.64	0.902
2569.85	0.902
2579.06	0.902
2588.26	0.902
2597.47	0.901
2606.67	0.9
2615.88	0.899
2625.09	0.899
2634.29	0.9
2643.5	0.9
2652.7	0.899
2661.91	0.899
2671.12	0.899
2680.32	0.899
2689.53	0.8988
2698.73	0.897
2707.94	0.896
2717.15	0.8969
2726.35	0.895
2735.56	0.893
2744.76	0.891
2753.97	0.8888
2763.18	0.8848
2772.38	0.881
2781.59	0.8788
2790.79	0.877
2800	0.876
2809.21	0.8746
2818.41	0.8718
2827.62	0.8698
2836.82	0.8675
2846.03	0.8638
2855.24	0.8618
2864.44	0.857
2873.65	0.855
2882.85	0.8537
2892.06	0.8485
2901.27	0.8337
2910.47	0.8443
2919.68	0.8457
2928.88	0.8447
2938.09	0.842
2947.3	0.8374
2956.5	0.8307
2965.71	0.8323
2974.91	0.8384
2984.12	0.845
2993.33	0.846
3002.53	0.846
3011.74	0.8446
3020.94	0.842
3030.15	0.84
3039.36	0.841
3048.56	0.8444
3057.77	0.85
3066.97	0.853
3076.18	0.852
3085.39	0.8486
3094.59	0.8455
3103.8	0.8405
3113	0.837
3122.21	0.836
3131.42	0.8335
3140.62	0.83
3149.83	0.832
3159.03	0.835
3168.24	0.8385
3177.45	0.842
3186.65	0.8475
3195.86	0.8535
3205.06	0.856
3214.27	0.8591
3223.47	0.8616
3232.68	0.8636
3241.89	0.8656
3251.09	0.869
3260.3	0.87
3269.5	0.871
3278.71	0.872
3287.92	0.872
3297.12	0.871
3306.33	0.871
3315.53	0.872
3324.74	0.873
3333.95	0.873
3343.15	0.875
3352.36	0.875
3361.56	0.876
3370.77	0.876
3379.98	0.877
3389.18	0.878
3398.39	0.879
3407.59	0.879
3416.8	0.88
3426.01	0.88
3435.21	0.88
3444.42	0.88
3453.62	0.8825
3462.83	0.884
3472.04	0.885
3481.24	0.8858
3490.45	0.8868
3499.65	0.888
3508.86	0.888
3518.07	0.888
3527.27	0.889
3536.48	0.889
3545.68	0.889
3554.89	0.8907
3564.1	0.891
3573.3	0.8929
3582.51	0.8969
3591.71	0.894
3600.92	0.893
3610.13	0.893
3619.33	0.893
3628.54	0.8959
3637.74	0.8891
3646.95	0.892
3656.16	0.892
3665.36	0.894
3674.57	0.894
3683.77	0.891
3692.98	0.887
3702.19	0.886
3711.39	0.891
3720.6	0.894
3729.8	0.896
3739.01	0.899
3748.22	0.896
3757.42	0.889
3766.63	0.887
3775.83	0.886
3785.04	0.8851
3794.25	0.8891
