Infrared Spectrum: Tris(2-aminoethyl)amine
Formula: C 6 H 18 N 4
CAS: 4097-89-6
State: gas
Origin: EPA-IR VAPOR PHASE LIBRARY
1/CM	ABSORBANCE
549.8	0.00308
559.445	0.00326
569.09	0.00321
578.735	0.00302
588.38	0.00301
598.025	0.00287
607.67	0.00293
617.315	0.00282
626.96	0.00297
636.605	0.00312
646.251	0.0032
655.896	0.00324
665.541	0.0033
675.186	0.00352
684.831	0.00393
694.476	0.00422
704.121	0.0047
713.766	0.00552
723.411	0.00663
733.056	0.00769
742.701	0.0091
752.346	0.01108
761.991	0.01173
771.636	0.01126
781.281	0.01017
790.926	0.00932
800.571	0.0087
810.216	0.00797
819.861	0.00669
829.507	0.00573
839.152	0.00485
848.797	0.00473
858.442	0.00449
868.087	0.00461
877.732	0.00412
887.377	0.00393
897.022	0.00332
906.667	0.00323
916.312	0.00322
925.957	0.00355
935.602	0.00323
945.247	0.00305
954.892	0.00323
964.537	0.00435
974.182	0.00322
983.827	0.00348
993.472	0.00395
1003.12	0.00432
1012.76	0.00501
1022.41	0.00552
1032.05	0.00651
1041.7	0.00701
1051.34	0.0073
1060.99	0.0067
1070.63	0.00593
1080.28	0.00544
1089.92	0.0053
1099.57	0.00485
1109.21	0.00448
1118.86	0.00382
1128.5	0.00324
1138.15	0.003
1147.79	0.00268
1157.44	0.00276
1167.08	0.00226
1176.73	0.00273
1186.37	0.00254
1196.02	0.00287
1205.66	0.00258
1215.31	0.00293
1224.95	0.00288
1234.6	0.00281
1244.24	0.00289
1253.89	0.00292
1263.53	0.00329
1273.18	0.00346
1282.82	0.00354
1292.47	0.00341
1302.11	0.00344
1311.76	0.00351
1321.4	0.0036
1331.05	0.00371
1340.69	0.00436
1350.34	0.00457
1359.98	0.00456
1369.63	0.00382
1379.27	0.00316
1388.92	0.00272
1398.56	0.00249
1408.21	0.00227
1417.85	0.00247
1427.5	0.00234
1437.14	0.00285
1446.79	0.00329
1456.43	0.00406
1466.08	0.0039
1475.73	0.0034
1485.37	0.00272
1495.02	0.00241
1504.66	0.00233
1514.31	0.00234
1523.95	0.0021
1533.6	0.00223
1543.24	0.00228
1552.89	0.00231
1562.53	0.00229
1572.18	0.00249
1581.82	0.00272
1591.47	0.00323
1601.11	0.00395
1610.76	0.0047
1620.4	0.00528
1630.05	0.0048
1639.69	0.0037
1649.34	0.00291
1658.98	0.0023
1668.63	0.00209
1678.27	0.00197
1687.92	0.00177
1697.56	0.00159
1707.21	0.00146
1716.85	0.00157
1726.5	0.00137
1736.14	0.00126
1745.79	0.00124
1755.43	0.00114
1765.08	0.00116
1774.72	0.00111
1784.37	0.00115
1794.01	0.00105
1803.66	0.0012
1813.3	0.00113
1822.95	0.00109
1832.59	0.00118
1842.24	0.0012
1851.88	0.00109
1861.53	0.00112
1871.17	0.00113
1880.82	0.00109
1890.46	0.00111
1900.11	0.00106
1909.75	0.00102
1919.4	0.00108
1929.04	0.001
1938.69	0.00101
1948.33	0.0009746
1957.98	0.00104
1967.62	0.00104
1977.27	0.00101
1986.91	0.0009834
1996.56	0.0009671
2006.2	0.0009341
2015.85	0.0009473
2025.49	0.0009079
2035.14	0.0009569
2044.78	0.00101
2054.43	0.0009747
2064.07	0.0009634
2073.72	0.0009644
2083.36	0.0009739
2093.01	0.0009247
2102.65	0.0009003
2112.3	0.0009307
2121.94	0.0009477
2131.59	0.0008856
2141.23	0.0009079
2150.88	0.0009367
2160.52	0.0009066
2170.17	0.0009367
2179.81	0.0009562
2189.46	0.0008507
2199.1	0.0009949
2208.75	0.0009604
2218.39	0.0009228
2228.04	0.0009402
2237.68	0.0009667
2247.33	0.0009898
2256.97	0.0009423
2266.62	0.00102
2276.26	0.0009476
2285.91	0.000988
2295.55	0.00102
2305.2	0.00105
2314.84	0.00101
2324.49	0.00104
2334.13	0.0009615
2343.78	0.00105
2353.42	0.0009467
2363.07	0.00102
2372.72	0.00105
2382.36	0.0009822
2392.01	0.0009323
2401.65	0.000859
2411.3	0.0009309
2420.94	0.0009263
2430.59	0.00101
2440.23	0.0009215
2449.88	0.0009211
2459.52	0.0009241
2469.17	0.0009276
2478.81	0.0009772
2488.46	0.0009957
2498.1	0.00105
2507.75	0.0009848
2517.39	0.00109
2527.04	0.0009844
2536.68	0.00108
2546.33	0.00112
2555.97	0.00102
2565.62	0.00103
2575.26	0.00109
2584.91	0.00113
2594.55	0.00115
2604.2	0.00122
2613.84	0.00134
2623.49	0.00139
2633.13	0.00147
2642.78	0.0015
2652.42	0.00162
2662.07	0.00191
2671.71	0.00176
2681.36	0.00202
2691	0.00225
2700.65	0.00234
2710.29	0.00259
2719.94	0.0027
2729.58	0.00283
2739.23	0.00307
2748.87	0.00329
2758.52	0.00354
2768.16	0.00393
2777.81	0.00472
2787.45	0.00623
2797.1	0.00862
2806.74	0.01062
2816.39	0.01086
2826.03	0.01002
2835.68	0.00893
2845.32	0.00907
2854.97	0.0099
2864.61	0.01049
2874.26	0.01046
2883.9	0.01008
2893.55	0.01003
2903.19	0.01038
2912.84	0.01118
2922.48	0.01211
2932.13	0.01327
2941.77	0.0146
2951.42	0.01396
2961.06	0.01057
2970.71	0.0066
2980.35	0.00406
2990	0.00298
2999.64	0.0024
3009.29	0.00231
3018.93	0.00192
3028.58	0.00179
3038.22	0.00166
3047.87	0.00156
3057.51	0.00153
3067.16	0.00171
3076.8	0.00144
3086.45	0.00146
3096.09	0.00142
3105.74	0.00147
3115.38	0.00145
3125.03	0.00143
3134.67	0.00145
3144.32	0.00146
3153.96	0.00144
3163.61	0.00141
3173.25	0.00159
3182.9	0.00176
3192.54	0.00151
3202.19	0.0016
3211.83	0.00155
3221.48	0.00158
3231.12	0.00173
3240.77	0.00148
3250.41	0.00152
3260.06	0.00169
3269.7	0.00158
3279.35	0.00181
3289	0.00189
3298.64	0.0017
3308.29	0.00172
3317.93	0.0018
3327.58	0.00212
3337.22	0.00227
3346.87	0.00232
3356.51	0.00213
3366.16	0.00194
3375.8	0.00174
3385.45	0.00193
3395.09	0.00194
3404.74	0.00199
3414.38	0.00199
3424.03	0.00195
3433.67	0.00194
3443.32	0.00201
3452.96	0.00188
3462.61	0.00175
3472.25	0.00178
3481.9	0.00178
3491.54	0.00177
3501.19	0.00173
3510.83	0.0019
3520.48	0.00189
3530.12	0.00188
3539.77	0.00169
3549.41	0.00158
3559.06	0.00175
3568.7	0.00182
3578.35	0.00152
3587.99	0.00178
3597.64	0.00171
3607.28	0.00171
3616.93	0.00148
3626.57	0.00163
3636.22	0.00165
3645.86	0.00175
3655.51	0.00183
3665.15	0.00163
3674.8	0.00175
3684.44	0.00179
3694.09	0.00163
3703.73	0.00174
3713.38	0.00163
3723.02	0.00162
3732.67	0.00179
3742.31	0.00173
3751.96	0.00162
3761.6	0.00175
3771.25	0.00187
3780.89	0.00145
3790.54	0.00173
3800.18	0.00167
3809.83	0.00153
3819.47	0.00156
3829.12	0.00162
3838.76	0.00153
3848.41	0.00163
3858.05	0.00161
3867.7	0.00171
3877.34	0.00188
3886.99	0.00196
3896.63	0.00175
3906.28	0.00153
3915.92	0.00163
3925.57	0.00178
3935.21	0.00176
3944.86	0.00186
3954.5	0.00181
3964.15	0.00177
3973.79	0.00184
3983.44	0.00168
3993.08	0.00172
