Infrared Spectrum: 2,2,4-TRIMETHYL-1,3-PENTANEDIOL DIACETATE
Formula: C12 H22 O4
CAS: 4100-09-8
Boiling point: 65-70 C AT 0.5-1.0 mmHg
Class: COBLENTZ
Instrument: Not specified, most likely a prism, grating, or hybrid spectrometer.
Sampling: TRANSMISSION
Path length: SMEAR
Resolution: 4
Origin: TENNESSEE EASTMAN COMPANY, RESEARCH LABORATORIES
MICROMETERS	TRANSMITTANCE
2.054	0.979
2.09484	0.977
2.13568	0.979
2.17651	0.981
2.21735	0.953
2.25819	0.91
2.29903	0.905
2.33987	0.914
2.3807	0.921
2.42154	0.939
2.46238	0.941
2.50322	0.948
2.54406	0.955
2.58489	0.963
2.62573	0.974
2.66657	0.982
2.70741	0.982
2.74825	0.975
2.78908	0.974
2.82992	0.969
2.87076	0.924
2.9116	0.909
2.95244	0.962
2.99328	0.969
3.03411	0.97
3.07495	0.962
3.11579	0.938
3.15663	0.926
3.19747	0.921
3.2383	0.891
3.27914	0.816
3.31998	0.559
3.36082	0.133
3.40166	0.276
3.44249	0.353
3.48333	0.653
3.52417	0.83
3.56501	0.898
3.60585	0.914
3.64668	0.903
3.68752	0.898
3.72836	0.936
3.7692	0.953
3.81004	0.955
3.85087	0.965
3.89171	0.97
3.93255	0.981
3.97339	0.987
4.01423	0.982
4.05506	0.953
4.0959	0.939
4.13674	0.965
4.17758	0.967
4.21842	0.975
4.25925	0.975
4.30009	0.975
4.34093	0.975
4.38177	0.977
4.42261	0.972
4.46344	0.981
4.50428	0.984
4.54512	0.981
4.58596	0.958
4.6268	0.909
4.66764	0.924
4.70847	0.967
4.74931	0.977
4.79015	0.981
4.83099	0.987
4.87183	0.991
4.91266	0.987
4.9535	0.977
4.99434	0.979
5.03518	0.984
5.07602	0.972
5.11685	0.953
5.15769	0.941
5.19853	0.917
5.23937	0.922
5.28021	0.931
5.32104	0.922
5.36188	0.902
5.40272	0.885
5.44356	0.854
5.4844	0.811
5.52523	0.749
5.56607	0.677
5.60691	0.584
5.64775	0.392
5.68859	0.128
5.72942	0.024
5.77026	0.054
5.8111	0.245
5.85194	0.43
5.89278	0.5
5.93361	0.61
5.97445	0.708
6.01529	0.739
6.05613	0.742
6.09697	0.768
6.1378	0.799
6.17864	0.821
6.21948	0.845
6.26032	0.864
6.30116	0.881
6.342	0.881
6.38283	0.855
6.42367	0.826
6.46451	0.809
6.50535	0.792
6.54619	0.783
6.58702	0.768
6.62786	0.732
6.6687	0.682
6.70954	0.507
6.75038	0.271
6.79121	0.274
6.83205	0.351
6.87289	0.408
6.91373	0.413
6.95457	0.397
6.9954	0.411
7.03624	0.483
7.07708	0.521
7.11792	0.437
7.15876	0.3
7.19959	0.257
7.24043	0.13
7.28127	0.09
7.32211	0.142
7.36295	0.233
7.40378	0.379
7.44462	0.559
7.48546	0.672
7.5263	0.703
7.56714	0.679
7.60797	0.634
7.64881	0.605
7.68965	0.545
7.73049	0.487
7.77133	0.421
7.81216	0.341
7.853	0.289
7.89384	0.212
7.93468	0.099
7.97552	0.042
8.01636	0.027
8.05719	0.025
8.09803	0.025
8.13887	0.034
8.17971	0.063
8.22055	0.126
8.26138	0.168
8.30222	0.243
8.34306	0.327
8.3839	0.406
8.42474	0.442
8.46557	0.449
8.50641	0.487
8.54725	0.576
8.58809	0.636
8.62893	0.684
8.66976	0.704
8.7106	0.715
8.75144	0.72
8.79228	0.716
8.83312	0.692
8.87395	0.663
8.91479	0.603
8.95563	0.451
8.99647	0.315
9.03731	0.341
9.07814	0.409
9.11898	0.499
9.15982	0.564
9.20066	0.576
9.2415	0.567
9.28233	0.543
9.32317	0.511
9.36401	0.468
9.40485	0.421
9.44569	0.334
9.48652	0.234
9.52736	0.144
9.5682	0.096
9.60904	0.09
9.64988	0.111
9.69072	0.126
9.73155	0.138
9.77239	0.132
9.81323	0.138
9.85407	0.19
9.89491	0.253
9.93574	0.3
9.97658	0.327
10.0174	0.339
10.0583	0.334
10.0991	0.334
10.1399	0.327
10.1808	0.307
10.2216	0.284
10.2624	0.279
10.3033	0.272
10.3441	0.265
10.385	0.274
10.4258	0.313
10.4666	0.368
10.5075	0.44
10.5483	0.493
10.5892	0.516
10.63	0.542
10.6708	0.598
10.7117	0.65
10.7525	0.643
10.7933	0.559
10.8342	0.481
10.875	0.48
10.9159	0.54
10.9567	0.586
10.9975	0.602
11.0384	0.581
11.0792	0.538
11.12	0.514
11.1609	0.554
11.2017	0.622
11.2426	0.684
11.2834	0.734
11.3242	0.763
11.3651	0.782
11.4059	0.794
11.4468	0.807
11.4876	0.823
11.5284	0.837
11.5693	0.85
11.6101	0.854
11.6509	0.852
11.6918	0.843
11.7326	0.826
11.7735	0.816
11.8143	0.809
11.8551	0.809
11.896	0.814
11.9368	0.821
11.9776	0.825
12.0185	0.826
12.0593	0.838
12.1002	0.862
12.141	0.891
12.1818	0.917
12.2227	0.938
12.2635	0.948
12.3044	0.958
12.3452	0.963
12.386	0.967
12.4269	0.969
12.4677	0.97
12.5085	0.97
12.5494	0.97
12.5902	0.969
12.6311	0.967
12.6719	0.957
12.7127	0.943
12.7536	0.938
12.7944	0.936
12.8352	0.943
12.8761	0.95
12.9169	0.955
12.9578	0.96
12.9986	0.963
13.0394	0.965
13.0803	0.967
13.1211	0.97
13.1619	0.972
13.2028	0.972
13.2436	0.972
13.2845	0.972
13.3253	0.972
13.3661	0.972
13.407	0.97
13.4478	0.969
13.4887	0.967
13.5295	0.963
13.5703	0.962
13.6112	0.962
13.652	0.958
13.6928	0.957
13.7337	0.955
13.7745	0.951
13.8154	0.95
13.8562	0.948
13.897	0.941
13.9379	0.941
13.9787	0.939
14.0195	0.936
14.0604	0.931
14.1012	0.931
14.1421	0.927
14.1829	0.924
14.2237	0.921
14.2646	0.917
14.3054	0.912
14.3463	0.912
14.3871	0.902
14.4279	0.9
14.4688	0.897
14.5096	0.891
14.5504	0.886
14.5913	0.879
14.6321	0.876
14.673	0.866
14.7138	0.864
14.7546	0.861
14.7955	0.849
14.8363	0.843
14.8771	0.83
14.918	0.823
14.9588	0.814
14.9997	0.801
15.0405	0.787
15.0813	0.782
15.1222	0.773
15.163	0.759
15.2039	0.742
15.2447	0.723
15.2855	0.699
15.3264	0.68
15.3672	0.658
15.408	0.638
15.4489	0.619
15.4897	0.602
15.5306	0.588
15.5714	0.581
15.6122	0.578
15.6531	0.578
15.6939	0.578
15.7347	0.588
15.7756	0.596
15.8164	0.607
15.8573	0.617
15.8981	0.626
15.9389	0.631
15.9798	0.638
