Infrared Spectrum: 1,10-Dibromodecane
Formula: C 10 H 20 Br 2
CAS: 4101-68-2
State: gas
Instrument: HP-GC/MS/IRD
Origin: NIST Mass Spectrometry Data Center
1/CM	ABSORBANCE
550	0.0011514
562	0.0015048
574	0.001824
586	0.0004712
598	7.6e-05
610	3.8e-05
622	0.0003382
634	0.0010374
646	0.0024016
658	0.0019836
670	0.0004826
682	0.0002204
694	0.0003192
706	0.000646
718	0.001045
730	0.0011628
742	0.0010982
754	0.0008664
766	0.0006688
778	0.0005168
790	0.000475
802	0.0005396
814	0.0005054
826	0.000361
838	0.0004066
850	0.0003686
862	0.0003686
874	0.0003876
886	0.000418
898	0.0003572
910	0.0003572
922	0.0003116
934	0.0003002
946	0.0003116
958	0.000323
970	0.0003268
982	0.000304
994	0.0003116
1006	0.000342
1018	0.0003838
1030	0.0003762
1042	0.0003306
1054	0.000323
1066	0.000228
1078	0.00019
1090	0.0001862
1102	0.0001026
1114	9.88e-05
1126	9.88e-05
1138	0.0001748
1150	0.0002242
1162	0.0003306
1174	0.0004066
1186	0.000722
1198	0.0014022
1210	0.0025726
1222	0.003914
1234	0.004275
1246	0.0048108
1258	0.0055176
1270	0.0050312
1282	0.0039368
1294	0.0029564
1306	0.0022762
1318	0.0015846
1330	0.0012312
1342	0.0014858
1354	0.0018164
1366	0.0013262
1378	0.0007562
1390	0.0004142
1402	0.000456
1414	0.0006878
1426	0.0014022
1438	0.0032414
1450	0.004009
1462	0.003933
1474	0.001938
1486	0.0007752
1498	0.0003876
1510	0.0002128
1522	0.0001102
1534	0.0001406
1546	8.36e-05
1558	7.6e-06
1570	0.0001026
1582	9.5e-05
1594	9.12e-05
1606	0.0001216
1618	5.7e-05
1630	8.74e-05
1642	7.98e-05
1654	0
1666	8.36e-05
1678	7.98e-05
1690	7.22e-05
1702	7.6e-06
1714	6.46e-05
1726	0.000114
1738	4.18e-05
1750	7.98e-05
1762	4.56e-05
1774	5.32e-05
1786	0.0001026
1798	9.12e-05
1810	8.74e-05
1822	7.98e-05
1834	5.32e-05
1846	3.04e-05
1858	7.6e-05
1870	4.56e-05
1882	4.18e-05
1894	5.32e-05
1906	6.84e-05
1918	3.42e-05
1930	4.18e-05
1942	4.56e-05
1954	4.56e-05
1966	7.22e-05
1978	8.36e-05
1990	7.22e-05
2002	7.98e-05
2014	9.12e-05
2026	9.12e-05
2038	0.0001102
2050	8.74e-05
2062	9.12e-05
2074	8.36e-05
2086	9.12e-05
2098	5.32e-05
2110	4.56e-05
2122	4.18e-05
2134	4.56e-05
2146	3.8e-05
2158	5.7e-05
2170	3.42e-05
2182	5.32e-05
2194	4.18e-05
2206	3.04e-05
2218	0
2230	3.8e-05
2242	5.7e-05
2254	5.32e-05
2266	5.7e-05
2278	5.32e-05
2290	6.84e-05
2302	5.32e-05
2314	4.18e-05
2326	3.04e-05
2338	1.52e-05
2350	4.18e-05
2362	7.6e-06
2374	6.08e-05
2386	7.98e-05
2398	7.98e-05
2410	6.84e-05
2422	9.12e-05
2434	9.88e-05
2446	9.5e-05
2458	7.98e-05
2470	9.88e-05
2482	0.0001178
2494	0.0001026
2506	0.0001216
2518	0.0001596
2530	0.0001672
2542	0.0001748
2554	0.0001748
2566	0.000152
2578	0.0001596
2590	0.000209
2602	0.0002128
2614	0.0002736
2626	0.0002964
2638	0.000361
2650	0.0003838
2662	0.0004332
2674	0.0005054
2686	0.0005358
2698	0.0005282
2710	0.000475
2722	0.0004826
2734	0.000475
2746	0.0004446
2758	0.0005282
2770	0.00057
2782	0.0007106
2794	0.000931
2806	0.0011666
2818	0.0015428
2830	0.0023484
2842	0.0042408
2854	0.0092568
2866	0.0149302
2878	0.0097166
2890	0.0077748
2902	0.0098382
2914	0.0149834
2926	0.0284962
2938	0.038
2950	0.02337
2962	0.0116394
2974	0.0089642
2986	0.0045942
2998	0.0030894
3010	0.0038532
3022	0.0025498
3034	0.0012844
3046	0.0008398
3058	0.0006422
3070	0.0005016
3082	0.0004256
3094	0.0003762
3106	0.0003724
3118	0.0003268
3130	0.0003078
3142	0.0003192
3154	0.0003154
3166	0.0002584
3178	0.000247
3190	0.0002204
3202	0.0001976
3214	0.0002128
3226	0.000209
3238	0.0002166
3250	0.0002166
3262	0.000152
3274	0.0002052
3286	0.0001634
3298	0.0001482
3310	0.000133
3322	0.000171
3334	0.000152
3346	0.0001102
3358	0.0001444
3370	0.000152
3382	0.0001064
3394	0.0001026
3406	0.0001178
3418	0.0001178
3430	0.000133
3442	0.000133
3454	9.88e-05
3466	7.22e-05
3478	0.0001064
3490	5.32e-05
3502	7.98e-05
3514	6.46e-05
3526	0.0001102
3538	9.12e-05
3550	0.0001064
3562	6.46e-05
3574	8.36e-05
3586	8.74e-05
3598	6.08e-05
3610	4.94e-05
3622	0.0001102
3634	4.94e-05
3646	7.6e-05
3658	0.0001482
3670	6.84e-05
3682	4.56e-05
3694	9.88e-05
3706	0.0001254
3718	0.0001444
3730	7.22e-05
3742	6.46e-05
3754	3.8e-05
3766	9.88e-05
3778	0.0001368
3790	0.000114
3802	9.12e-05
3814	0.0001064
3826	7.98e-05
3838	4.56e-05
