Infrared Spectrum: DIETHYL 3-METHYLCYCLOPROPANE-1,2-DICARBOXYLATE
Formula: C10 H16 O4
CAS: 4104-67-0
State: LIQUID
Class: COBLENTZ
Instrument: PERKIN-ELMER
Sampling: TRANSMISSION
Path length: CAPILLARY
Resolution: 4
Origin: ABBOTT LABORATORIES - WASHBURN
MICROMETERS	TRANSMITTANCE
2.056	0.913
2.09579	0.918
2.13557	0.9161
2.17536	0.923
2.21514	0.9312
2.25493	0.929
2.29472	0.933
2.3345	0.928
2.37429	0.928
2.41407	0.929
2.45386	0.934
2.49365	0.9359
2.53343	0.934
2.57322	0.938
2.61301	0.9409
2.65279	0.939
2.69258	0.934
2.73236	0.936
2.77215	0.934
2.81194	0.923
2.85172	0.923
2.89151	0.919
2.93129	0.914
2.97108	0.909
3.01087	0.9191
3.05065	0.923
3.09044	0.924
3.13022	0.924
3.17001	0.923
3.2098	0.921
3.24958	0.923
3.28937	0.923
3.32916	0.909
3.36894	0.7862
3.40873	0.6901
3.44851	0.7257
3.4883	0.775
3.52809	0.8486
3.56787	0.9127
3.60766	0.941
3.64744	0.9482
3.68723	0.9591
3.72702	0.958
3.7668	0.9678
3.80659	0.959
3.84637	0.9589
3.88616	0.953
3.92595	0.9526
3.96573	0.948
4.00552	0.941
4.04531	0.938
4.08509	0.934
4.12488	0.9228
4.16466	0.9177
4.20445	0.916
4.24424	0.904
4.28402	0.903
4.32381	0.901
4.36359	0.8989
4.40338	0.8939
4.44317	0.886
4.48295	0.879
4.52274	0.8789
4.56252	0.876
4.60231	0.8721
4.6421	0.871
4.68188	0.864
4.72167	0.862
4.76146	0.8609
4.80124	0.8563
4.84103	0.852
4.88081	0.847
4.9206	0.847
4.96039	0.8491
5.00017	0.8509
5.03996	0.847
5.07974	0.849
5.11953	0.851
5.15932	0.851
5.1991	0.8476
5.23889	0.844
5.27867	0.839
5.31846	0.836
5.35825	0.839
5.39803	0.841
5.43782	0.8357
5.4776	0.834
5.51739	0.831
5.55718	0.8216
5.59696	0.8067
5.63675	0.79
5.67654	0.7514
5.71632	0.6407
5.75611	0.2621
5.79589	0.1098
5.83568	0.2559
5.87547	0.5714
5.91525	0.6915
5.95504	0.73
5.99482	0.7715
6.03461	0.789
6.0744	0.7949
6.11418	0.799
6.15397	0.804
6.19375	0.8082
6.23354	0.8116
6.27333	0.814
6.31311	0.816
6.3529	0.8154
6.39269	0.8162
6.43247	0.819
6.47226	0.8161
6.51204	0.8169
6.55183	0.821
6.59162	0.817
6.6314	0.8144
6.67119	0.811
6.71097	0.7918
6.75076	0.7415
6.79055	0.6523
6.83033	0.5713
6.87012	0.551
6.9099	0.5455
6.94969	0.5205
6.98948	0.5691
7.02926	0.6137
7.06905	0.6589
7.10884	0.6749
7.14862	0.6357
7.18841	0.5405
7.22819	0.5307
7.26798	0.573
7.30777	0.3862
7.34755	0.4707
7.38734	0.6488
7.42712	0.5449
7.46691	0.6274
7.5067	0.6849
7.54648	0.6753
7.58627	0.5904
7.62605	0.3809
7.66584	0.187
7.70563	0.2424
7.74541	0.4137
7.7852	0.5475
7.82499	0.5421
7.86477	0.5279
7.90456	0.5354
7.94434	0.4653
7.98413	0.4672
8.02392	0.5413
8.0637	0.5898
8.10349	0.6213
8.14327	0.638
8.18306	0.6195
8.22285	0.5514
8.26263	0.4672
8.30242	0.4073
8.3422	0.3648
8.38199	0.2468
8.42178	0.1389
8.46156	0.1077
8.50135	0.1206
8.54113	0.1823
8.58092	0.2698
8.62071	0.3435
8.66049	0.4306
8.70028	0.5127
8.74007	0.6117
8.77985	0.632
8.81964	0.569
8.85942	0.4793
8.89921	0.5168
8.939	0.5781
8.97878	0.5045
9.01857	0.4116
9.05835	0.4768
9.09814	0.5722
9.13793	0.5715
9.17771	0.5831
9.2175	0.6595
9.25728	0.682
9.29707	0.6582
9.33686	0.6008
9.37664	0.5852
9.41643	0.5769
9.45622	0.5682
9.496	0.5972
9.53579	0.6115
9.57557	0.5599
9.61536	0.4688
9.65515	0.4091
9.69493	0.3969
9.73472	0.4578
9.7745	0.573
9.81429	0.6553
9.85408	0.7044
9.89386	0.7428
9.93365	0.7585
9.97343	0.755
10.0132	0.757
10.053	0.7617
10.0928	0.7773
10.1326	0.7928
10.1724	0.7869
10.2122	0.7801
10.2519	0.775
10.2917	0.777
10.3315	0.777
10.3713	0.7788
10.4111	0.779
10.4509	0.7816
10.4907	0.7946
10.5304	0.811
10.5702	0.8196
10.61	0.8246
10.6498	0.829
10.6896	0.831
10.7294	0.832
10.7692	0.831
10.8089	0.837
10.8487	0.832
10.8885	0.831
10.9283	0.8299
10.9681	0.829
11.0079	0.8257
11.0477	0.816
11.0874	0.8021
11.1272	0.7903
11.167	0.792
11.2068	0.8076
11.2466	0.816
11.2864	0.811
11.3262	0.7996
11.3659	0.7816
11.4057	0.7717
11.4455	0.767
11.4853	0.7788
11.5251	0.7848
11.5649	0.774
11.6047	0.7521
11.6445	0.7146
11.6842	0.6569
11.724	0.6066
11.7638	0.603
11.8036	0.6468
11.8434	0.7092
11.8832	0.7635
11.923	0.79
11.9627	0.8065
12.0025	0.814
12.0423	0.8135
12.0821	0.807
12.1219	0.789
12.1617	0.7821
12.2015	0.7703
12.2412	0.7747
12.281	0.7811
12.3208	0.784
12.3606	0.792
12.4004	0.7925
12.4402	0.792
12.48	0.7947
12.5197	0.794
12.5595	0.7964
12.5993	0.795
12.6391	0.801
12.6789	0.809
12.7187	0.8146
12.7585	0.807
12.7982	0.8137
12.838	0.807
12.8778	0.7952
12.9176	0.7774
12.9574	0.7605
12.9972	0.7559
13.037	0.7544
13.0768	0.764
13.1165	0.7735
13.1563	0.7791
13.1961	0.794
13.2359	0.797
13.2757	0.8037
13.3155	0.809
13.3553	0.809
13.395	0.805
13.4348	0.799
13.4746	0.792
13.5144	0.79
13.5542	0.787
13.594	0.78
13.6338	0.775
13.6735	0.767
13.7133	0.7533
13.7531	0.741
13.7929	0.7247
13.8327	0.7048
13.8725	0.697
13.9123	0.6981
13.952	0.705
13.9918	0.7199
14.0316	0.7315
14.0714	0.742
14.1112	0.7545
14.151	0.7576
14.1908	0.765
14.2305	0.765
14.2703	0.764
14.3101	0.764
14.3499	0.7633
14.3897	0.759
14.4295	0.7579
14.4693	0.753
14.5091	0.7512
14.5488	0.7442
14.5886	0.74
14.6284	0.7321
14.6682	0.7191
14.708	0.715
14.7478	0.7008
14.7876	0.694
14.8273	0.6875
14.8671	0.675
14.9069	0.6678
14.9467	0.6603
14.9865	0.6679
15.0263	0.663
15.0661	0.658
15.1058	0.657
15.1456	0.6574
15.1854	0.653
15.2252	0.6559
15.265	0.652
15.3048	0.6529
15.3446	0.648
15.3843	0.645
