Infrared Spectrum: trans-2-Methyl-1,5-heptadiene
Formula: C 8 H 14
CAS: 41044-63-7
State: gas
Instrument: HP-GC/MS/IRD
Origin: NIST Mass Spectrometry Data Center
1/CM	ABSORBANCE
550	0.0009855
562	0.000618
574	0.0003795
586	0.0002025
598	0.0001305
610	0.000177
622	7.95e-05
634	0.0001125
646	0.000102
658	0.0001575
670	7.5e-05
682	0.0001335
694	0.0001155
706	0.0001125
718	3.45e-05
730	7.65e-05
742	3.6e-05
754	0.0001515
766	0.000162
778	0.000111
790	0.0001545
802	0.000126
814	0.0002235
826	0.000291
838	0.0003885
850	0.0006675
862	0.001284
874	0.0030165
886	0.006048
898	0.005397
910	0.00273
922	0.001866
934	0.0020505
946	0.0029445
958	0.0043785
970	0.004269
982	0.0026865
994	0.001611
1006	0.001044
1018	0.0008055
1030	0.0007755
1042	0.0007065
1054	0.000654
1066	0.000906
1078	0.0007515
1090	0.0004065
1102	0.000408
1114	0.0003585
1126	0.0002085
1138	0.000243
1150	0.000219
1162	0.0001995
1174	0.00024
1186	0.0003105
1198	0.000297
1210	0.0004305
1222	0.000597
1234	0.0005595
1246	0.0005925
1258	0.000714
1270	0.000789
1282	0.0007785
1294	0.0007335
1306	0.000804
1318	0.000741
1330	0.0006645
1342	0.000735
1354	0.0009105
1366	0.0014175
1378	0.0021255
1390	0.0017445
1402	0.001251
1414	0.0014115
1426	0.0021
1438	0.003075
1450	0.003597
1462	0.002979
1474	0.001851
1486	0.0010755
1498	0.0007545
1510	0.000534
1522	0.000447
1534	0.000366
1546	0.000366
1558	0.000381
1570	0.000426
1582	0.0004515
1594	0.000486
1606	0.000609
1618	0.000894
1630	0.001524
1642	0.0024315
1654	0.002349
1666	0.001257
1678	0.0005925
1690	0.000372
1702	0.0003225
1714	0.000288
1726	0.000279
1738	0.000291
1750	0.0002565
1762	0.0003135
1774	0.000381
1786	0.0004995
1798	0.000405
1810	0.0002415
1822	0.0001305
1834	0.0001065
1846	8.85e-05
1858	9.45e-05
1870	7.95e-05
1882	7.35e-05
1894	6.75e-05
1906	3.9e-05
1918	7.8e-05
1930	5.7e-05
1942	6e-05
1954	5.85e-05
1966	4.35e-05
1978	7.5e-05
1990	0.0001215
2002	0.0001035
2014	0.000105
2026	6e-05
2038	5.55e-05
2050	5.1e-05
2062	3.6e-05
2074	4.35e-05
2086	6e-05
2098	3e-05
2110	4.35e-05
2122	3.3e-05
2134	6e-06
2146	7.5e-06
2158	3.15e-05
2170	2.4e-05
2182	1.65e-05
2194	1.2e-05
2206	4.2e-05
2218	3.6e-05
2230	5.4e-05
2242	1.65e-05
2254	2.7e-05
2266	3.15e-05
2278	2.4e-05
2290	4.8e-05
2302	3.6e-05
2314	2.1e-05
2326	4.95e-05
2338	4.65e-05
2350	5.1e-05
2362	6.3e-05
2374	7.2e-05
2386	8.85e-05
2398	6.9e-05
2410	9e-05
2422	7.2e-05
2434	7.5e-05
2446	9.75e-05
2458	7.95e-05
2470	7.2e-05
2482	8.4e-05
2494	6.3e-05
2506	6.3e-05
2518	1.5e-05
2530	4.35e-05
2542	5.4e-05
2554	5.1e-05
2566	6.75e-05
2578	7.5e-05
2590	6.75e-05
2602	1.8e-05
2614	4.5e-05
2626	5.7e-05
2638	8.4e-05
2650	9.75e-05
2662	8.4e-05
2674	0.000117
2686	0.0001575
2698	0.00012
2710	0.000159
2722	0.000222
2734	0.000387
2746	0.0004485
2758	0.0003345
2770	0.000324
2782	0.0003795
2794	0.000531
2806	0.000705
2818	0.0010245
2830	0.0016725
2842	0.0029895
2854	0.0046755
2866	0.0061785
2878	0.006246
2890	0.0066105
2902	0.008547
2914	0.011196
2926	0.014505
2938	0.0145005
2950	0.011196
2962	0.008724
2974	0.00882
2986	0.0076035
2998	0.005607
3010	0.0046965
3022	0.004143
3034	0.003444
3046	0.002601
3058	0.0024345
3070	0.0034425
3082	0.004173
3094	0.002568
3106	0.001161
3118	0.0007215
3130	0.00051
3142	0.0003315
3154	0.000237
3166	0.000168
3178	0.000126
3190	0.0001335
3202	0.0001215
3214	9.3e-05
3226	1.2e-05
3238	4.05e-05
3250	3.9e-05
3262	7.5e-05
3274	5.55e-05
3286	5.25e-05
3298	8.4e-05
3310	5.7e-05
3322	5.85e-05
3334	8.85e-05
3346	2.1e-05
3358	1.05e-05
3370	2.25e-05
3382	7.35e-05
3394	0.000123
3406	9.6e-05
3418	6.3e-05
3430	8.1e-05
3442	8.1e-05
3454	3.9e-05
3466	0.0001005
3478	0.0001275
3490	0.0001245
3502	5.55e-05
3514	8.85e-05
3526	8.1e-05
3538	0.0001155
3550	0.0001245
3562	0.000111
3574	0.000111
3586	9e-05
3598	0.000102
3610	0.0001365
3622	6e-05
3634	0.000102
3646	8.85e-05
3658	0.000135
3670	0.0001185
3682	0.000159
3694	0.000147
3706	0.000156
3718	0.0001095
3730	0.0001395
3742	0.0001485
3754	0.000165
3766	0.000117
3778	0.000105
3790	0.0001605
3802	0.0001605
3814	0.0001035
3826	0.000168
3838	0.00012
