Infrared Spectrum: Methyl 4-methoxyacetoacetate
Formula: C 6 H 10 O 4
CAS: 41051-15-4
State: gas
Origin: EPA-IR VAPOR PHASE LIBRARY
1/CM	ABSORBANCE
549.9	0.002742
559.547	0.002742
569.193	0.002562
578.84	0.002392
588.486	0.002192
598.133	0.002082
607.779	0.002062
617.426	0.002382
627.072	0.002102
636.719	0.002262
646.365	0.002502
656.012	0.002552
665.658	0.003182
675.305	0.001962
684.951	0.0016437
694.598	0.00127
704.245	0.0012115
713.891	0.0011555
723.538	0.001178
733.184	0.0011819
742.831	0.0011822
752.477	0.001053
762.124	0.0009504
771.77	0.0009833
781.417	0.0010494
791.063	0.0013814
800.71	0.001992
810.356	0.002502
820.003	0.002282
829.649	0.002132
839.296	0.002142
848.943	0.002192
858.589	0.002322
868.236	0.002362
877.882	0.002352
887.529	0.002222
897.175	0.002332
906.822	0.002662
916.468	0.003252
926.115	0.003652
935.761	0.003932
945.408	0.003962
955.054	0.004062
964.701	0.004712
974.347	0.005982
983.994	0.007342
993.64	0.008252
1003.29	0.008852
1012.93	0.009632
1022.58	0.010922
1032.23	0.014942
1041.87	0.010302
1051.52	0.010002
1061.17	0.011022
1070.81	0.011782
1080.46	0.013532
1090.11	0.017422
1099.75	0.023252
1109.4	0.028422
1119.05	0.029792
1128.69	0.027842
1138.34	0.026062
1147.99	0.025072
1157.63	0.024332
1167.28	0.023452
1176.92	0.022942
1186.57	0.024662
1196.22	0.027932
1205.86	0.029012
1215.51	0.028982
1225.16	0.029512
1234.8	0.027812
1244.45	0.023602
1254.1	0.020822
1263.74	0.019102
1273.39	0.017312
1283.04	0.015692
1292.68	0.015712
1302.33	0.017582
1311.98	0.020822
1321.62	0.021802
1331.27	0.017772
1340.92	0.013442
1350.56	0.012822
1360.21	0.012712
1369.86	0.011802
1379.5	0.009362
1389.15	0.007272
1398.79	0.006252
1408.44	0.006262
1418.09	0.005892
1427.73	0.007522
1437.38	0.010442
1447.03	0.010752
1456.67	0.007442
1466.32	0.005372
1475.97	0.003932
1485.61	0.002912
1495.26	0.002232
1504.91	0.0017774
1514.55	0.0016365
1524.2	0.0015412
1533.85	0.0014751
1543.49	0.0014048
1553.14	0.0015433
1562.79	0.0015652
1572.43	0.0016752
1582.08	0.0018215
1591.73	0.001962
1601.37	0.002362
1611.02	0.002882
1620.67	0.003632
1630.31	0.004992
1639.96	0.006442
1649.6	0.006552
1659.25	0.006782
1668.9	0.008952
1678.54	0.013712
1688.19	0.018022
1697.84	0.018892
1707.48	0.016592
1717.13	0.015542
1726.78	0.023362
1736.42	0.033702
1746.07	0.039112
1755.72	0.038472
1765.36	0.036672
1775.01	0.029302
1784.66	0.017312
1794.3	0.008472
1803.95	0.004842
1813.6	0.003182
1823.24	0.002172
1832.89	0.0016419
1842.54	0.0012781
1852.18	0.001162
1861.83	0.0010042
1871.47	0.00089953
1881.12	0.00087815
1890.77	0.00081619
1900.41	0.0007488
1910.06	0.000684
1919.71	0.000652
1929.35	0.000648
1939	0.000658
1948.65	0.000647
1958.29	0.000637
1967.94	0.000683
1977.59	0.0007336
1987.23	0.00083583
1996.88	0.00088774
2006.53	0.0010081
2016.17	0.0010725
2025.82	0.0011138
2035.47	0.001123
2045.11	0.0011671
2054.76	0.0013348
2064.41	0.0014585
2074.05	0.0017538
2083.7	0.002022
2093.35	0.002462
2102.99	0.004252
2112.64	0.010232
2122.28	0.023342
2131.93	0.034352
2141.58	0.037252
2151.22	0.020682
2160.87	0.005942
2170.52	0.002302
2180.16	0.001656
2189.81	0.0013793
2199.46	0.0011288
2209.1	0.0009232
2218.75	0.00081708
2228.4	0.0007534
2238.04	0.0007682
2247.69	0.0007987
2257.34	0.00084469
2266.98	0.00089979
2276.63	0.0011093
2286.28	0.0016426
2295.92	0.002762
2305.57	0.004242
2315.22	0.005842
2324.86	0.006812
2334.51	0.006432
2344.16	0.005702
2353.8	0.006682
2363.45	0.008932
2373.09	0.006972
2382.74	0.002732
2392.39	0.000671
2402.03	0.000506
2411.68	0.00047
2421.33	0.000464
2430.97	0.000477
2440.62	0.00046
2450.27	0.00041
2459.91	0.000405
2469.56	0.000341
2479.21	0.000403
2488.85	0.000333
2498.5	0.000291
2508.15	0.000252
2517.79	0.000308
2527.44	0.000284
2537.09	0.000261
2546.73	0.000321
2556.38	0.000325
2566.03	0.00034
2575.67	0.000404
2585.32	0.000428
2594.96	0.000396
2604.61	0.000433
2614.26	0.000392
2623.9	0.000379
2633.55	0.000348
2643.2	0.000333
2652.84	0.000393
2662.49	0.000376
2672.14	0.000401
2681.78	0.000344
2691.43	0.000437
2701.08	0.000408
2710.72	0.000425
2720.37	0.000454
2730.02	0.000556
2739.66	0.000642
2749.31	0.000661
2758.96	0.0008604
2768.6	0.0010107
2778.25	0.0012955
2787.9	0.0017717
2797.54	0.002492
2807.19	0.003702
2816.84	0.005422
2826.48	0.008262
2836.13	0.009792
2845.77	0.009352
2855.42	0.007712
2865.07	0.007382
2874.71	0.007742
2884.36	0.008752
2894.01	0.009922
2903.65	0.011182
2913.3	0.012432
2922.95	0.013732
2932.59	0.014222
2942.24	0.014602
2951.89	0.014812
2961.53	0.014662
2971.18	0.011782
2980.83	0.008752
2990.47	0.008792
3000.12	0.009212
3009.77	0.008082
3019.41	0.005672
3029.06	0.004382
3038.71	0.003742
3048.35	0.002832
3058	0.002492
3067.64	0.002342
3077.29	0.002012
3086.94	0.00177
3096.58	0.0016124
3106.23	0.0013983
3115.88	0.00085674
3125.52	0.000688
3135.17	0.000651
3144.82	0.000356
3154.46	0.000371
3164.11	0.000243
3173.76	0.000343
3183.4	0.000434
3193.05	0.000243
3202.7	0.000403
3212.34	0.000241
3221.99	0.000155
3231.64	0.000134
3241.28	0.000174
3250.93	0.000141
3260.58	0.000358
3270.22	5.5e-05
3279.87	0.000106
3289.52	0.000193
3299.16	0.000169
3308.81	0.000134
3318.45	0.000279
3328.1	0.000314
3337.75	0.000259
3347.39	0.000283
3357.04	0.000348
3366.69	0.000328
3376.33	0.000329
3385.98	0.000444
3395.63	0.000312
3405.27	0.000424
3414.92	0.000415
3424.57	0.00035
3434.21	0.000642
3443.86	0.000594
3453.51	0.00073
3463.15	0.00085179
3472.8	0.0009449
3482.45	0.00087825
3492.09	0.0007745
3501.74	0.0007887
3511.39	0.000702
3521.03	0.000694
3530.68	0.000642
3540.33	0.000348
3549.97	0.000356
3559.62	0.000394
3569.26	0.000422
3578.91	0.000581
3588.56	0.000405
3598.2	0.000436
3607.85	0.000264
3617.5	0.000412
3627.14	0.000541
3636.79	0.00064
3646.44	0.0007322
3656.08	0.0007702
3665.73	0.000702
3675.38	0.000686
3685.02	0.0007259
3694.67	0.0007703
3704.32	0.0007406
3713.96	0.0007464
3723.61	0.0007619
3733.26	0.000654
3742.9	0.000475
3752.55	0.000265
3762.2	0.000374
3771.84	0.000335
3781.49	0.000404
3791.13	0.000336
3800.78	0.000243
3810.43	0.000492
3820.07	0.000341
3829.72	0.00035
3839.37	0.000364
3849.01	0.00033
3858.66	0.000414
3868.31	0.000277
3877.95	0.000342
3887.6	0.000286
3897.25	0.000305
3906.89	0.000217
3916.54	0.000239
3926.19	0.000369
3935.83	0.000515
3945.48	0.000418
3955.13	0.000417
3964.77	0.000382
3974.42	0.000336
3984.07	0.00037
3993.71	0.000463
