Infrared Spectrum: 3-AMINO DIBENZOFURAN
Formula: C12 H9 N O
CAS: 4106-66-5
State: SOLID (1.0% IN KBr PELLET)
Class: COBLENTZ
Instrument: Not specified, most likely a prism, grating, or hybrid spectrometer.
Sampling: TRANSMISSION
Path length: 0.0355 CM
Resolution: 4
Origin: ANDERSON PHYSICAL LABORATORY
1/CM	TRANSMITTANCE
675.203	0.43
683.635	0.418
692.067	0.379
700.5	0.338
708.932	0.307
717.364	0.269
725.796	0.178
734.229	0.331
742.661	0.254
751.093	0.13
759.525	0.301
767.958	0.392
776.39	0.605
784.822	0.4601
793.254	0.4689
801.687	0.538
810.119	0.532
818.551	0.2621
826.983	0.434
835.416	0.641
843.848	0.629
852.28	0.388
860.712	0.358
869.145	0.5178
877.577	0.7389
886.009	0.802
894.441	0.817
902.874	0.817
911.306	0.818
919.738	0.818
928.17	0.784
936.603	0.6739
945.035	0.683
953.467	0.5771
961.899	0.7028
970.332	0.853
978.764	0.883
987.196	0.883
995.628	0.866
1004.06	0.853
1012.49	0.811
1020.92	0.6321
1029.36	0.6139
1037.79	0.845
1046.22	0.848
1054.65	0.824
1063.09	0.814
1071.52	0.79
1079.95	0.755
1088.38	0.736
1096.82	0.713
1105.25	0.65
1113.68	0.595
1122.11	0.466
1130.54	0.422
1138.98	0.428
1147.41	0.415
1155.84	0.32
1164.27	0.227
1172.71	0.677
1181.14	0.76
1189.57	0.6622
1198	0.425
1206.43	0.61
1214.87	0.5779
1223.3	0.722
1231.73	0.848
1240.16	0.856
1248.6	0.833
1257.03	0.797
1265.46	0.746
1273.89	0.6491
1282.32	0.478
1290.76	0.718
1299.19	0.6321
1307.62	0.421
1316.05	0.656
1324.49	0.668
1332.92	0.568
1341.35	0.455
1349.78	0.737
1358.21	0.6641
1366.65	0.449
1375.08	0.7089
1383.51	0.764
1391.94	0.772
1400.38	0.758
1408.81	0.737
1417.24	0.698
1425.67	0.641
1434.1	0.602
1442.54	0.4331
1450.97	0.4
1459.4	0.4901
1467.83	0.3321
1476.27	0.5079
1484.7	0.76
1493.13	0.751
1501.56	0.71
1510	0.643
1518.43	0.581
1526.86	0.6349
1535.29	0.721
1543.72	0.751
1552.16	0.743
1560.59	0.721
1569.02	0.7
1577.45	0.641
1585.89	0.553
1594.32	0.512
1602.75	0.4
1611.18	0.233
1619.61	0.379
1628.05	0.383
1636.48	0.247
1644.91	0.185
1653.34	0.316
1661.78	0.689
1670.21	0.752
1678.64	0.761
1687.07	0.763
1695.5	0.781
1703.94	0.788
1712.37	0.808
1720.8	0.82
1729.23	0.833
1737.67	0.835
1746.1	0.833
1754.53	0.83
1762.96	0.811
1771.39	0.796
1779.83	0.791
1788.26	0.79
1796.69	0.79
1805.12	0.79
1813.56	0.787
1821.99	0.787
1830.42	0.785
1838.85	0.77
1847.28	0.763
1855.72	0.758
1864.15	0.748
1872.58	0.736
1881.01	0.707
1889.45	0.713
1897.88	0.734
1906.31	0.737
1914.74	0.734
1923.17	0.727
1931.61	0.731
1940.04	0.733
1948.47	0.731
1956.9	0.73
1965.34	0.727
1973.77	0.722
1982.2	0.718
1990.63	0.715
1999.07	0.713
2007.5	0.71
2015.93	0.7085
2024.36	0.7056
2032.79	0.704
2041.23	0.703
2049.66	0.701
2058.09	0.7
2066.52	0.698
2074.96	0.697
2083.39	0.695
2091.82	0.6945
2100.25	0.694
2108.68	0.692
2117.12	0.6906
2125.55	0.6871
2133.98	0.6853
2142.41	0.6802
2150.85	0.6768
2159.28	0.6736
2167.71	0.6703
2176.14	0.6651
2184.57	0.6618
2193.01	0.6586
2201.44	0.653
2209.87	0.652
2218.3	0.6498
2226.74	0.647
2235.17	0.646
2243.6	0.644
2252.03	0.6427
2260.46	0.64
2268.9	0.638
2277.33	0.637
2285.76	0.635
2294.19	0.634
2302.63	0.6327
2311.06	0.6311
2319.49	0.628
2327.92	0.6272
2336.35	0.6254
2344.79	0.6232
2353.22	0.622
2361.65	0.6196
2370.08	0.6178
2378.52	0.6161
2386.95	0.614
2395.38	0.6123
2403.81	0.6104
2412.25	0.6083
2420.68	0.6068
2429.11	0.6047
2437.54	0.604
2445.97	0.602
2454.41	0.6008
2462.84	0.598
2471.27	0.596
2479.7	0.595
2488.14	0.5929
2496.57	0.59
2505	0.589
2513.43	0.587
2521.86	0.5859
2530.3	0.5837
2538.73	0.581
2547.16	0.5784
2555.59	0.5769
2564.03	0.5734
2572.46	0.5714
2580.89	0.5682
2589.32	0.566
2597.75	0.565
2606.19	0.5639
2614.62	0.5604
2623.05	0.559
2631.48	0.559
2639.92	0.557
2648.35	0.5562
2656.78	0.556
2665.21	0.5537
2673.64	0.552
2682.08	0.5502
2690.51	0.547
2698.94	0.5447
2707.37	0.5425
2715.81	0.5357
2724.24	0.532
2732.67	0.527
2741.1	0.526
2749.53	0.526
2757.97	0.524
2766.4	0.524
2774.83	0.523
2783.26	0.523
2791.7	0.521
2800.13	0.5178
2808.56	0.5161
2816.99	0.512
2825.43	0.512
2833.86	0.5118
2842.29	0.508
2850.72	0.5053
2859.15	0.5031
2867.59	0.4998
2876.02	0.497
2884.45	0.496
2892.88	0.494
2901.32	0.4926
2909.75	0.4876
2918.18	0.4843
2926.61	0.4753
2935.04	0.4728
2943.48	0.4711
2951.91	0.468
2960.34	0.4642
2968.77	0.461
2977.21	0.4592
2985.64	0.4573
2994.07	0.4552
3002.5	0.4488
3010.93	0.4456
3019.37	0.438
3027.8	0.4256
3036.23	0.4203
3044.66	0.4028
3053.1	0.3938
3061.53	0.3851
3069.96	0.382
3078.39	0.3824
3086.82	0.3875
3095.26	0.3975
3103.69	0.404
3112.12	0.406
3120.55	0.406
3128.99	0.4043
3137.42	0.3997
3145.85	0.3888
3154.28	0.3698
3162.71	0.3375
3171.15	0.304
3179.58	0.2832
3188.01	0.2758
3196.44	0.2767
3204.88	0.2837
3213.31	0.2983
3221.74	0.3075
3230.17	0.3163
3238.6	0.3233
3247.04	0.325
3255.47	0.3191
3263.9	0.3102
3272.33	0.3009
3280.77	0.297
3289.2	0.2883
3297.63	0.2844
3306.06	0.2861
3314.5	0.2951
3322.93	0.3137
3331.36	0.324
3339.79	0.3342
3348.22	0.3386
3356.66	0.341
3365.09	0.34
3373.52	0.3349
3381.95	0.3279
3390.39	0.3225
3398.82	0.3074
3407.25	0.2858
3415.68	0.2634
3424.11	0.2565
3432.55	0.2662
3440.98	0.2951
3449.41	0.3191
3457.84	0.3345
3466.28	0.3485
3474.71	0.352
3483.14	0.356
3491.57	0.3615
3500	0.3662
3508.44	0.371
3516.87	0.3762
3525.3	0.3795
3533.73	0.3827
3542.17	0.386
3550.6	0.3882
3559.03	0.391
3567.46	0.392
3575.89	0.394
3584.33	0.395
3592.76	0.397
3601.19	0.3994
3609.62	0.401
3618.06	0.403
3626.49	0.4049
3634.92	0.4084
3643.35	0.4119
3651.78	0.413
3660.22	0.415
3668.65	0.415
3677.08	0.415
3685.51	0.4152
3693.95	0.418
3702.38	0.419
3710.81	0.4208
3719.24	0.4207
3727.68	0.4186
3736.11	0.416
3744.54	0.413
3752.97	0.412
3761.4	0.41
3769.84	0.4093
3778.27	0.4099
3786.7	0.41
3795.13	0.4088
3803.57	0.406
3812	0.403
3820.43	0.4027
3828.86	0.401
3837.29	0.4
3845.73	0.3971
3854.16	0.397
3862.59	0.397
3871.02	0.395
3879.46	0.395
3887.89	0.3941
3896.32	0.395
3904.75	0.394
3913.18	0.394
3921.62	0.3938
3930.05	0.3903
3938.48	0.389
3946.91	0.389
3955.35	0.391
3963.78	0.391
3972.21	0.3884
3980.64	0.3852
