Infrared Spectrum: 3-Cyanopropionic acid, methyl ester
Formula: C5 H7 N O2
CAS: 4107-62-4
State: LIQUID (NEAT)
Boiling point: 211 C
Class: COBLENTZ III
Instrument: DOW KBr FOREPRISM-GRATING
Instrument parameters: BLAZED AT 3.5, 12.0, 20.0 MICRON AND CHANGED AT 5.0, 7.5, 14.9 MICRON
Sampling: TRANSMISSION
Path length: CAPILLARY
Resolution: 2
Origin: DOW CHEMICAL COMPANY
1/CM	TRANSMITTANCE
3800	0.9033
3791	0.901
3782	0.8985
3773	0.897
3764	0.8964
3755	0.8968
3746	0.8983
3737	0.9045
3728	0.9101
3719	0.9083
3710	0.9035
3701	0.8986
3692	0.8939
3683	0.8897
3674	0.8873
3665	0.8863
3656	0.8839
3647	0.8697
3638	0.8607
3629	0.8591
3620	0.8515
3611	0.8541
3602	0.8556
3593	0.8574
3584	0.8593
3575	0.8609
3566	0.8615
3557	0.8599
3548	0.8568
3539	0.854
3530	0.8536
3521	0.8553
3512	0.8568
3503	0.8584
3494	0.86
3485	0.8597
3476	0.8574
3467	0.854
3458	0.8505
3449	0.8506
3440	0.8555
3431	0.8614
3422	0.8665
3413	0.8691
3404	0.871
3395	0.871
3386	0.871
3377	0.8704
3368	0.8699
3359	0.8695
3350	0.8695
3341	0.8694
3332	0.8693
3323	0.8692
3314	0.869
3305	0.8689
3296	0.8687
3287	0.8685
3278	0.8684
3269	0.8682
3260	0.8677
3251	0.8658
3242	0.8647
3233	0.8634
3224	0.8621
3215	0.861
3206	0.8598
3197	0.8584
3188	0.8571
3179	0.856
3170	0.8558
3161	0.8557
3152	0.8555
3143	0.8556
3134	0.8558
3125	0.8553
3116	0.8543
3107	0.8534
3098	0.8518
3089	0.8501
3080	0.8483
3071	0.8465
3062	0.8432
3053	0.8351
3044	0.8261
3035	0.816
3026	0.8015
3017	0.7848
3008	0.7704
2999	0.7585
2990	0.7574
2981	0.7539
2972	0.7401
2963	0.6689
2954	0.6348
2945	0.7026
2936	0.7547
2927	0.7801
2918	0.7975
2909	0.8101
2900	0.8198
2891	0.8268
2882	0.8333
2873	0.8373
2864	0.8347
2855	0.8232
2846	0.8206
2837	0.8408
2828	0.8518
2819	0.857
2810	0.8578
2801	0.8585
2792	0.8592
2783	0.8598
2774	0.8602
2765	0.8606
2756	0.8613
2747	0.8618
2738	0.8625
2729	0.8631
2720	0.8628
2711	0.8625
2702	0.8624
2693	0.8621
2684	0.8616
2675	0.8609
2666	0.8603
2657	0.8597
2648	0.8593
2639	0.859
2630	0.859
2621	0.8589
2612	0.8589
2603	0.8587
2594	0.8586
2585	0.8583
2576	0.858
2567	0.8577
2558	0.8573
2549	0.8575
2540	0.8588
2531	0.8595
2522	0.8598
2513	0.8601
2504	0.8605
2495	0.8609
2486	0.8618
2477	0.8614
2468	0.86
2459	0.8568
2450	0.8558
2441	0.8558
2432	0.8555
2423	0.8549
2414	0.8543
2405	0.8548
2396	0.8555
2387	0.8558
2378	0.8568
2369	0.8578
2360	0.8584
2351	0.8582
2342	0.855
2333	0.8592
2324	0.8544
2315	0.8541
2306	0.8544
2297	0.8543
2288	0.8532
2279	0.8499
2270	0.8343
2261	0.7628
2252	0.6876
2243	0.8146
2234	0.8452
2225	0.8507
2216	0.8507
2207	0.8503
2198	0.8505
2189	0.8509
2180	0.8513
2171	0.8505
2162	0.8498
2153	0.8491
2144	0.8484
2135	0.8478
2126	0.8473
2117	0.8464
2108	0.8456
2099	0.8444
2090	0.843
2081	0.8417
2072	0.8405
2063	0.8391
2054	0.8374
2045	0.8375
2036	0.8374
2027	0.8373
2018	0.8383
2009	0.8438
2000	0.8442
1991	0.8421
1982	0.8427
1973	0.842
1964	0.8398
1955	0.8336
1946	0.8363
1937	0.8378
1928	0.8378
1919	0.838
1910	0.838
1901	0.8377
1892	0.8375
1883	0.8359
1874	0.8354
1865	0.8343
1856	0.8298
1847	0.8291
1838	0.8268
1829	0.8241
1820	0.82
1811	0.8111
1802	0.8006
1793	0.7876
1784	0.7651
1775	0.7361
1766	0.6728
1757	0.4323
1748	0.0591
1739	0.0432
1730	0.1957
1721	0.4523
1712	0.6621
1703	0.7107
1694	0.7437
1685	0.7707
1676	0.7888
1667	0.8012
1658	0.8111
1649	0.8178
1640	0.8142
1631	0.8048
1622	0.8017
1613	0.8044
1604	0.8099
1595	0.8137
1586	0.8153
1577	0.8178
1568	0.8214
1559	0.8232
1550	0.8243
1541	0.8248
1532	0.8247
1523	0.823
1514	0.8194
1505	0.8135
1496	0.8067
1487	0.7978
1478	0.7808
1469	0.7358
1460	0.6662
1451	0.5932
1442	0.3193
1433	0.4839
1424	0.5027
1415	0.6435
1406	0.7411
1397	0.7515
1388	0.6839
1379	0.5201
1370	0.5283
1361	0.6567
1352	0.7026
1343	0.7328
1334	0.7522
1325	0.7631
1316	0.7534
1307	0.6876
1298	0.5492
1289	0.5227
1280	0.5338
1271	0.5006
1262	0.451
1253	0.4214
1244	0.465
1235	0.5075
1226	0.4324
1217	0.2806
1208	0.251
1199	0.3718
1190	0.413
1181	0.3138
1172	0.3696
1163	0.5294
1154	0.7008
1145	0.7631
1136	0.7965
1127	0.8198
1118	0.8303
1109	0.836
1100	0.8388
1091	0.8393
1082	0.8378
1073	0.8236
1064	0.7888
1055	0.7221
1046	0.7675
1037	0.7686
1028	0.7444
1019	0.7348
1010	0.7692
1001	0.6998
992	0.7522
983	0.645
974	0.7515
965	0.8168
956	0.8245
947	0.7945
938	0.8181
929	0.8354
920	0.851
911	0.847
902	0.8405
893	0.8394
884	0.8368
875	0.7946
866	0.8302
857	0.8245
848	0.806
839	0.6917
830	0.7761
821	0.8244
812	0.837
803	0.8384
794	0.83
785	0.7878
776	0.8246
767	0.8427
758	0.844
749	0.8442
740	0.8428
731	0.8415
722	0.8397
713	0.8264
704	0.8115
695	0.8241
686	0.8295
677	0.8266
668	0.8215
659	0.8191
650	0.8213
641	0.8232
632	0.8213
623	0.8143
614	0.803
605	0.7811
596	0.7736
587	0.7865
578	0.7919
569	0.7919
560	0.7871
551	0.7822
542	0.7792
533	0.7776
524	0.7761
515	0.773
506	0.7704
497	0.7683
488	0.7656
479	0.7634
470	0.7621
461	0.7601
