Infrared Spectrum: 6-METHYL-4-OXO-1,2,3a,7-TETRAZAINDENE
Formula: C6 H6 N4 O
CAS: 41081-90-7
State: SOLID (KBr PRESSING)
Melting point: 254 C
Class: COBLENTZ
Instrument: Not specified, most likely a prism, grating, or hybrid spectrometer.
Sampling: TRANSMISSION
Resolution: 4
Origin: EASTMAN KODAK COMPANY, RESEARCH LABORATORIES, ROCHESTER, N.Y.
MICROMETERS	TRANSMITTANCE
2.039	0.803
2.07408	0.809
2.10916	0.81
2.14423	0.817
2.17931	0.823
2.21439	0.828
2.24947	0.831
2.28454	0.84
2.31962	0.847
2.3547	0.851
2.38978	0.845
2.42486	0.844
2.45993	0.851
2.49501	0.852
2.53009	0.856
2.56517	0.856
2.60024	0.865
2.63532	0.868
2.6704	0.87
2.70548	0.859
2.74056	0.774
2.77563	0.628
2.81071	0.43
2.84579	0.299
2.88087	0.288
2.91594	0.418
2.95102	0.511
2.9861	0.555
3.02118	0.588
3.05626	0.625
3.09133	0.66
3.12641	0.667
3.16149	0.644
3.19657	0.429
3.23164	0.371
3.26672	0.43
3.3018	0.443
3.33688	0.481
3.37196	0.408
3.40703	0.348
3.44211	0.394
3.47719	0.401
3.51227	0.395
3.54734	0.387
3.58242	0.385
3.6175	0.373
3.65258	0.364
3.68766	0.369
3.72273	0.416
3.75781	0.472
3.79289	0.502
3.82797	0.528
3.86304	0.558
3.89812	0.581
3.9332	0.623
3.96828	0.658
4.00336	0.69
4.03843	0.719
4.07351	0.739
4.10859	0.763
4.14367	0.779
4.17874	0.779
4.21382	0.777
4.2489	0.777
4.28398	0.802
4.31906	0.831
4.35413	0.851
4.38921	0.861
4.42429	0.866
4.45937	0.873
4.49444	0.88
4.52952	0.884
4.5646	0.889
4.59968	0.893
4.63476	0.896
4.66983	0.907
4.70491	0.921
4.73999	0.922
4.77507	0.924
4.81014	0.931
4.84522	0.935
4.8803	0.935
4.91538	0.938
4.95046	0.95
4.98553	0.95
5.02061	0.943
5.05569	0.942
5.09077	0.938
5.12584	0.938
5.16092	0.938
5.196	0.938
5.23108	0.931
5.26616	0.929
5.30123	0.928
5.33631	0.921
5.37139	0.917
5.40647	0.907
5.44154	0.905
5.47662	0.903
5.5117	0.894
5.54678	0.882
5.58185	0.87
5.61693	0.835
5.65201	0.812
5.68709	0.781
5.72217	0.737
5.75724	0.563
5.79232	0.232
5.8274	0.089
5.86248	0.07
5.89755	0.071
5.93263	0.068
5.96771	0.077
6.00279	0.145
6.03787	0.25
6.07294	0.281
6.10802	0.194
6.1431	0.14
6.17818	0.238
6.21325	0.204
6.24833	0.197
6.28341	0.14
6.31849	0.073
6.35357	0.099
6.38864	0.234
6.42372	0.336
6.4588	0.443
6.49388	0.546
6.52895	0.609
6.56403	0.558
6.59911	0.348
6.63419	0.353
6.66927	0.497
6.70434	0.556
6.73942	0.679
6.7745	0.595
6.80958	0.544
6.84465	0.584
6.87973	0.544
6.91481	0.429
6.94989	0.471
6.98497	0.357
7.02004	0.206
7.05512	0.248
7.0902	0.43
7.12528	0.546
7.16035	0.56
7.19543	0.436
7.23051	0.413
7.26559	0.499
7.30067	0.532
7.33574	0.619
7.37082	0.707
7.4059	0.753
7.44098	0.789
7.47605	0.814
7.51113	0.824
7.54621	0.826
7.58129	0.826
7.61637	0.798
7.65144	0.661
7.68652	0.598
7.7216	0.688
7.75668	0.721
7.79175	0.732
7.82683	0.772
7.86191	0.798
7.89699	0.81
7.93207	0.814
7.96714	0.774
8.00222	0.716
8.0373	0.756
8.07238	0.809
8.10745	0.824
8.14253	0.814
8.17761	0.742
8.21269	0.781
8.24777	0.795
8.28284	0.774
8.31792	0.667
8.353	0.633
8.38808	0.711
8.42315	0.744
8.45823	0.744
8.49331	0.702
8.52839	0.763
8.56347	0.802
8.59854	0.812
8.63362	0.817
8.6687	0.807
8.70378	0.8
8.73885	0.763
8.77393	0.753
8.80901	0.8
8.84409	0.812
8.87917	0.823
8.91424	0.824
8.94932	0.828
8.9844	0.824
9.01948	0.823
9.05455	0.828
9.08963	0.845
9.12471	0.852
9.15979	0.854
9.19487	0.856
9.22994	0.854
9.26502	0.854
9.3001	0.854
9.33518	0.852
9.37025	0.851
9.40533	0.851
9.44041	0.852
9.47549	0.854
9.51057	0.852
9.54564	0.823
9.58072	0.779
9.6158	0.768
9.65088	0.756
9.68595	0.663
9.72103	0.663
9.75611	0.754
9.79119	0.768
9.82627	0.709
9.86134	0.691
9.89642	0.747
9.9315	0.781
9.96658	0.777
10.0017	0.732
10.0367	0.639
10.0718	0.621
10.1069	0.733
10.142	0.786
10.177	0.796
10.2121	0.754
10.2472	0.579
10.2823	0.672
10.3174	0.756
10.3524	0.761
10.3875	0.684
10.4226	0.705
10.4577	0.742
10.4927	0.732
10.5278	0.732
10.5629	0.753
10.598	0.784
10.6331	0.8
10.6681	0.81
10.7032	0.828
10.7383	0.84
10.7734	0.852
10.8084	0.854
10.8435	0.854
10.8786	0.854
10.9137	0.84
10.9488	0.828
10.9838	0.816
11.0189	0.788
11.054	0.775
11.0891	0.753
11.1241	0.735
11.1592	0.712
11.1943	0.698
11.2294	0.691
11.2645	0.684
11.2995	0.658
11.3346	0.593
11.3697	0.511
11.4048	0.451
11.4398	0.45
11.4749	0.479
11.51	0.521
11.5451	0.551
11.5802	0.569
11.6152	0.591
11.6503	0.604
11.6854	0.625
11.7205	0.625
11.7555	0.623
11.7906	0.625
11.8257	0.626
11.8608	0.628
11.8959	0.626
11.9309	0.625
11.966	0.623
12.0011	0.647
12.0362	0.684
12.0712	0.721
12.1063	0.742
12.1414	0.756
12.1765	0.772
12.2116	0.777
12.2466	0.791
12.2817	0.803
12.3168	0.809
12.3519	0.821
12.3869	0.83
12.422	0.837
12.4571	0.858
12.4922	0.861
12.5273	0.866
12.5623	0.866
12.5974	0.861
12.6325	0.863
12.6676	0.856
12.7026	0.859
12.7377	0.858
12.7728	0.849
12.8079	0.851
12.843	0.844
12.878	0.838
12.9131	0.833
12.9482	0.809
12.9833	0.798
13.0183	0.779
13.0534	0.767
13.0885	0.765
13.1236	0.735
13.1587	0.637
13.1937	0.497
13.2288	0.509
13.2639	0.586
13.299	0.628
13.334	0.632
13.3691	0.605
13.4042	0.637
13.4393	0.716
13.4744	0.763
13.5094	0.803
13.5445	0.817
13.5796	0.83
13.6147	0.84
13.6497	0.852
13.6848	0.856
13.7199	0.861
13.755	0.866
13.7901	0.868
13.8251	0.863
13.8602	0.861
13.8953	0.859
13.9304	0.858
13.9654	0.845
14.0005	0.83
14.0356	0.816
14.0707	0.802
14.1058	0.777
14.1408	0.751
14.1759	0.718
14.211	0.677
14.2461	0.633
14.2811	0.597
14.3162	0.562
14.3513	0.542
14.3864	0.555
14.4215	0.621
14.4565	0.704
14.4916	0.761
14.5267	0.803
14.5618	0.814
14.5968	0.821
14.6319	0.83
14.667	0.831
14.7021	0.835
14.7372	0.835
14.7722	0.837
14.8073	0.842
14.8424	0.842
14.8775	0.837
14.9125	0.837
14.9476	0.83
14.9827	0.821
15.0178	0.816
15.0529	0.814
15.0879	0.812
15.123	0.809
15.1581	0.8
15.1932	0.782
15.2282	0.753
15.2633	0.711
15.2984	0.651
15.3335	0.59
15.3686	0.551
15.4036	0.537
15.4387	0.542
15.4738	0.551
15.5089	0.563
15.5439	0.598
15.579	0.644
15.6141	0.693
15.6492	0.728
15.6843	0.744
15.7193	0.758
15.7544	0.761
15.7895	0.76
15.8246	0.758
15.8596	0.76
15.8947	0.76
15.9298	0.756
15.9649	0.74
16	0.739
