Infrared Spectrum: 3,3-Dimethyloctane
Formula: C 10 H 22
CAS: 4110-44-5
State: gas
Instrument: HP-GC/MS/IRD
Origin: NIST Mass Spectrometry Data Center
1/CM	ABSORBANCE
550	0
562	6.16e-05
574	1.68e-05
586	4.48e-05
598	0.0001008
610	0.0001232
622	5.6e-05
634	0.0001512
646	7.56e-05
658	0.0001176
670	0.0001316
682	0.0001512
694	0.0002296
706	0.0002464
718	0.000308
730	0.0004004
742	0.0002996
754	0.0002744
766	0.000322
778	0.000434
790	0.0004032
802	0.0001792
814	0.0001792
826	8.96e-05
838	0.0002016
850	0.0002044
862	0.0001988
874	0.000238
886	0.0002464
898	0.0002324
910	0.0002268
922	0.0002492
934	0.0002408
946	0.0002352
958	0.0002744
970	0.0002548
982	0.0002716
994	0.0004088
1006	0.000574
1018	0.0005964
1030	0.0003948
1042	0.0003108
1054	0.0003024
1066	0.0002688
1078	0.0002128
1090	0.0002016
1102	0.0002492
1114	0.0001904
1126	0.0001204
1138	0.000196
1150	0.0001904
1162	0.0002772
1174	0.000434
1186	0.0005712
1198	0.000532
1210	0.000588
1222	0.0004872
1234	0.0003808
1246	0.0003304
1258	0.0002912
1270	0.0003248
1282	0.000406
1294	0.0004956
1306	0.0005264
1318	0.0005376
1330	0.0005852
1342	0.0007672
1354	0.0011228
1366	0.0020076
1378	0.0025116
1390	0.0022736
1402	0.0010948
1414	0.000616
1426	0.0006804
1438	0.0010612
1450	0.0019992
1462	0.003458
1474	0.003458
1486	0.001778
1498	0.0007448
1510	0.0004312
1522	0.0003164
1534	0.0002464
1546	0.0002016
1558	0.0002352
1570	0.000182
1582	0.0001568
1594	0.0001512
1606	0.0001372
1618	0.0001372
1630	0.0001148
1642	0.000112
1654	8.96e-05
1666	0.0001176
1678	9.8e-05
1690	0.0001008
1702	7.28e-05
1714	5.32e-05
1726	6.16e-05
1738	5.6e-05
1750	4.2e-05
1762	5.32e-05
1774	4.48e-05
1786	4.2e-05
1798	5.04e-05
1810	5.88e-05
1822	6.44e-05
1834	3.64e-05
1846	6.16e-05
1858	4.2e-05
1870	4.48e-05
1882	2.24e-05
1894	3.36e-05
1906	3.92e-05
1918	3.08e-05
1930	3.36e-05
1942	1.4e-05
1954	3.64e-05
1966	1.96e-05
1978	3.92e-05
1990	2.52e-05
2002	3.08e-05
2014	1.68e-05
2026	2.8e-05
2038	3.08e-05
2050	3.64e-05
2062	0
2074	5.6e-05
2086	1.68e-05
2098	1.12e-05
2110	2.24e-05
2122	5.6e-06
2134	2.24e-05
2146	3.64e-05
2158	2.8e-05
2170	1.12e-05
2182	2.52e-05
2194	3.92e-05
2206	1.4e-05
2218	2.24e-05
2230	1.4e-05
2242	2.8e-05
2254	1.4e-05
2266	3.92e-05
2278	2.24e-05
2290	4.48e-05
2302	3.36e-05
2314	4.76e-05
2326	6.72e-05
2338	7e-05
2350	6.44e-05
2362	8.96e-05
2374	7.56e-05
2386	5.32e-05
2398	7e-05
2410	6.44e-05
2422	5.32e-05
2434	6.44e-05
2446	4.48e-05
2458	6.44e-05
2470	5.32e-05
2482	7e-05
2494	7e-05
2506	7.28e-05
2518	7.56e-05
2530	7e-05
2542	6.72e-05
2554	0.0001092
2566	0.0001092
2578	0.00014
2590	0.0001484
2602	0.0001708
2614	0.000182
2626	0.00021
2638	0.0002296
2650	0.00028
2662	0.0003276
2674	0.0003332
2686	0.000308
2698	0.0003108
2710	0.00035
2722	0.0004396
2734	0.000504
2746	0.000518
2758	0.0005348
2770	0.0005768
2782	0.000658
2794	0.000868
2806	0.0010808
2818	0.0014084
2830	0.0019964
2842	0.0033852
2854	0.0064148
2866	0.0094108
2878	0.0108836
2890	0.0113204
2902	0.0122752
2914	0.0155092
2926	0.0198324
2938	0.023968
2950	0.0227724
2962	0.0269444
2974	0.0229292
2986	0.008792
2998	0.00364
3010	0.0021868
3022	0.0015232
3034	0.0011536
3046	0.0009296
3058	0.0008596
3070	0.0007784
3082	0.000686
3094	0.000616
3106	0.0005152
3118	0.0004788
3130	0.0004228
3142	0.0003696
3154	0.000322
3166	0.0003668
3178	0.0003892
3190	0.0003332
3202	0.000322
3214	0.0002576
3226	0.0002184
3238	0.000182
3250	0.0001624
3262	0.0001428
3274	7.56e-05
3286	8.4e-05
3298	7.84e-05
3310	0.0001036
3322	0.0001008
3334	9.24e-05
3346	0.0001092
3358	8.12e-05
3370	8.96e-05
3382	0.0001288
3394	0.0001036
3406	6.44e-05
3418	5.32e-05
3430	5.32e-05
3442	8.4e-05
3454	6.44e-05
3466	5.04e-05
3478	4.2e-05
3490	4.48e-05
3502	5.04e-05
3514	3.92e-05
3526	2.52e-05
3538	1.4e-05
3550	6.72e-05
3562	5.04e-05
3574	6.72e-05
3586	2.52e-05
3598	3.92e-05
3610	2.52e-05
3622	1.96e-05
3634	4.48e-05
3646	5.32e-05
3658	6.44e-05
3670	8.68e-05
3682	8.12e-05
3694	6.72e-05
3706	7.28e-05
3718	7.28e-05
3730	7.28e-05
3742	8.12e-05
3754	3.36e-05
3766	7.28e-05
3778	0.0001176
3790	5.6e-05
3802	9.8e-05
3814	0.0001008
3826	4.2e-05
3838	8.96e-05
