Infrared Spectrum: Ethyl carbazate
Formula: C 3 H 8 N 2 O 2
CAS: 4114-31-2
State: gas
Instrument: HP-GC/MS/IRD
Origin: NIST Mass Spectrometry Data Center
1/CM	ABSORBANCE
550	0.0005453
562	0.0002037
574	0.0001456
586	0.0001197
598	0.000119
610	6.79e-05
622	7.49e-05
634	0.0001512
646	0.0001673
658	8.05e-05
670	0.0008078
682	0.0001624
694	0.000119
706	3.36e-05
718	0.0001246
730	4.83e-05
742	0.0001386
754	0.000182
766	0.0001743
778	0.0001652
790	0.0001323
802	0.0001288
814	0.0001008
826	4.13e-05
838	0.0001442
850	0.0001869
862	0.0001953
874	0.000266
886	0.0003885
898	0.0005712
910	0.000616
922	0.0004123
934	0.0001862
946	6.93e-05
958	4.76e-05
970	8.61e-05
982	9.59e-05
994	0.0002058
1006	0.0002877
1018	0.0004963
1030	0.0008785
1042	0.0018865
1054	0.0030135
1066	0.0028952
1078	0.0020181
1090	0.0012845
1102	0.0010759
1114	0.0009219
1126	0.0009044
1138	0.0012901
1150	0.0020279
1162	0.0030786
1174	0.0038325
1186	0.0035798
1198	0.0025046
1210	0.001848
1222	0.0019859
1234	0.0030359
1246	0.0047033
1258	0.0051184
1270	0.0033754
1282	0.001428
1294	0.0008127
1306	0.0009548
1318	0.0013167
1330	0.0012299
1342	0.0007028
1354	0.0003773
1366	0.0005369
1378	0.0007756
1390	0.0009401
1402	0.0008456
1414	0.0007637
1426	0.0009702
1438	0.0019481
1450	0.0034118
1462	0.0039326
1474	0.0029624
1486	0.0017535
1498	0.0009919
1510	0.0007056
1522	0.0005733
1534	0.0004018
1546	0.0002877
1558	0.0002548
1570	0.0001659
1582	0.0001575
1594	0.000154
1606	0.0002079
1618	0.0003577
1630	0.0005096
1642	0.0005719
1654	0.0005355
1666	0.000343
1678	0.0002702
1690	0.0003129
1702	0.0005474
1714	0.0011284
1726	0.002569
1738	0.0051429
1750	0.0067564
1762	0.0066948
1774	0.0036813
1786	0.0015589
1798	0.0006545
1810	0.0002975
1822	0.0001806
1834	0.0001148
1846	8.4e-05
1858	5.04e-05
1870	3.36e-05
1882	2.1e-06
1894	1.82e-05
1906	1.96e-05
1918	3.71e-05
1930	3.71e-05
1942	3.99e-05
1954	1.4e-06
1966	1.47e-05
1978	3.29e-05
1990	2.73e-05
2002	0
2014	1.05e-05
2026	4.9e-06
2038	7e-06
2050	7.7e-06
2062	1.61e-05
2074	3.29e-05
2086	6.58e-05
2098	7.07e-05
2110	6.37e-05
2122	7.35e-05
2134	4.2e-05
2146	5.6e-06
2158	7.28e-05
2170	0.0001071
2182	0.0001155
2194	0.0001323
2206	0.0001169
2218	9.8e-05
2230	0.0001057
2242	0.00014
2254	0.0001463
2266	0.0001855
2278	0.0003185
2290	0.000623
2302	0.0011536
2314	0.0018494
2326	0.0022995
2338	0.0021322
2350	0.0017115
2362	0.0029988
2374	0.0021735
2386	0.0005096
2398	6.65e-05
2410	4.55e-05
2422	5.53e-05
2434	3.15e-05
2446	2.59e-05
2458	4.2e-05
2470	3.92e-05
2482	2.8e-05
2494	3.85e-05
2506	2.24e-05
2518	6.02e-05
2530	4.55e-05
2542	3.29e-05
2554	2.17e-05
2566	2.38e-05
2578	5.39e-05
2590	1.05e-05
2602	7e-06
2614	3.22e-05
2626	2.45e-05
2638	4.41e-05
2650	4.83e-05
2662	3.5e-05
2674	8.82e-05
2686	7.7e-05
2698	4.34e-05
2710	6.44e-05
2722	7.14e-05
2734	7.35e-05
2746	9.87e-05
2758	8.96e-05
2770	3.99e-05
2782	0.0001183
2794	0.0001008
2806	0.0001155
2818	0.0001246
2830	0.0001638
2842	0.0001981
2854	0.0002954
2866	0.0003647
2878	0.0004802
2890	0.0006377
2902	0.0007889
2914	0.0008911
2926	0.0010479
2938	0.0011879
2950	0.0012425
2962	0.0012166
2974	0.001491
2986	0.0016436
2998	0.0014791
3010	0.000994
3022	0.0006272
3034	0.0003185
3046	0.0002653
3058	0.0001862
3070	0.0001281
3082	9.31e-05
3094	7.42e-05
3106	5.74e-05
3118	5.6e-05
3130	2.59e-05
3142	9.24e-05
3154	8.26e-05
3166	7.56e-05
3178	6.3e-05
3190	5.95e-05
3202	6.3e-05
3214	0.0001106
3226	7.21e-05
3238	7.07e-05
3250	4.97e-05
3262	7.35e-05
3274	8.61e-05
3286	5.53e-05
3298	7.77e-05
3310	0.0001274
3322	4.69e-05
3334	7.56e-05
3346	3.78e-05
3358	4.41e-05
3370	8.61e-05
3382	7.49e-05
3394	9.24e-05
3406	0.00014
3418	0.0001442
3430	0.0001869
3442	0.0002688
3454	0.0005089
3466	0.000707
3478	0.0008582
3490	0.0007077
3502	0.0004865
3514	0.0003024
3526	0.0002527
3538	0.0001841
3550	0.0002037
3562	0.0002016
3574	0.0001638
3586	0.0001876
3598	0.0001974
3610	0.0001624
3622	0.0002079
3634	0.0002149
3646	0.00028
3658	0.0001547
3670	0.0002149
3682	0.0001981
3694	0.0002527
3706	0.0002002
3718	0.0001568
3730	0.0002464
3742	0.0002205
3754	0.0001666
3766	0.0001323
3778	0.0001141
3790	0.0001057
3802	0.0001575
3814	0.0001848
3826	0.000175
3838	0.0001638
