Infrared Spectrum: 2,8-Decadiyne
Formula: C 10 H 14
CAS: 4116-93-2
State: gas
Instrument: HP-GC/MS/IRD
Origin: NIST Mass Spectrometry Data Center
1/CM	ABSORBANCE
550	0.000357
562	0.0006384
574	0.0005418
586	0.000504
598	0.000273
610	0.0002184
622	0.0001596
634	0.0001806
646	0.0001008
658	0.0001176
670	0.0001344
682	0.0001974
694	0.0001638
706	0.0001512
718	0.0001302
730	0.000189
742	0.0002478
754	0.000273
766	0.000231
778	0.0003024
790	0.0003276
802	0.0003696
814	0.0003486
826	0.0002352
838	0.0001974
850	0.0001302
862	0.0001008
874	0.0001302
886	0.0001344
898	7.56e-05
910	9.24e-05
922	9.24e-05
934	3.78e-05
946	2.94e-05
958	8.82e-05
970	0.000126
982	0.000126
994	0.0001428
1006	0.0002268
1018	0.0002898
1030	0.0003738
1042	0.000357
1054	0.0003654
1066	0.0002604
1078	0.0002394
1090	0.0001806
1102	0.0001302
1114	0.0001092
1126	0.0001554
1138	0.0002016
1150	0.0001974
1162	0.00021
1174	0.0002436
1186	0.0002982
1198	0.00042
1210	0.000462
1222	0.0005376
1234	0.0006174
1246	0.000777
1258	0.0010038
1270	0.0013272
1282	0.0015288
1294	0.001764
1306	0.0021378
1318	0.0037002
1330	0.0062412
1342	0.0046032
1354	0.0032592
1366	0.0029316
1378	0.0035112
1390	0.0025158
1402	0.0016716
1414	0.0021126
1426	0.0030996
1438	0.005523
1450	0.0055986
1462	0.0043974
1474	0.0025116
1486	0.0017556
1498	0.0018564
1510	0.0013818
1522	0.0011172
1534	0.0011298
1546	0.0010458
1558	0.0007392
1570	0.0006846
1582	0.0006174
1594	0.0004746
1606	0.000357
1618	0.0003234
1630	0.0002436
1642	0.0001764
1654	0.0001302
1666	0.0001092
1678	6.72e-05
1690	8.4e-05
1702	7.56e-05
1714	5.04e-05
1726	3.78e-05
1738	2.94e-05
1750	1.68e-05
1762	1.68e-05
1774	1.26e-05
1786	2.52e-05
1798	2.52e-05
1810	3.78e-05
1822	4.62e-05
1834	4.2e-05
1846	2.1e-05
1858	2.52e-05
1870	1.68e-05
1882	1.26e-05
1894	4.2e-06
1906	0
1918	0
1930	3.78e-05
1942	2.94e-05
1954	1.68e-05
1966	2.52e-05
1978	2.1e-05
1990	2.52e-05
2002	2.1e-05
2014	4.2e-05
2026	7.14e-05
2038	0.0001512
2050	0.0003234
2062	0.0002982
2074	0.000105
2086	7.56e-05
2098	8.4e-05
2110	7.56e-05
2122	8.4e-05
2134	5.46e-05
2146	5.46e-05
2158	4.62e-05
2170	4.62e-05
2182	4.62e-05
2194	4.2e-05
2206	6.72e-05
2218	6.72e-05
2230	7.56e-05
2242	6.72e-05
2254	4.62e-05
2266	5.04e-05
2278	2.94e-05
2290	5.88e-05
2302	6.72e-05
2314	5.46e-05
2326	5.46e-05
2338	7.14e-05
2350	7.56e-05
2362	0.0001092
2374	0.0001428
2386	0.000147
2398	0.0001596
2410	0.0001722
2422	0.0001806
2434	0.0001932
2446	0.0001554
2458	0.0002016
2470	0.0002268
2482	0.0002394
2494	0.0002604
2506	0.0002646
2518	0.0002982
2530	0.0002604
2542	0.0001932
2554	0.0001638
2566	0.0001974
2578	0.00021
2590	0.000252
2602	0.0002436
2614	0.0002226
2626	0.0002982
2638	0.0003318
2650	0.0003864
2662	0.0003906
2674	0.0004032
2686	0.0004116
2698	0.0004116
2710	0.0004746
2722	0.0005334
2734	0.0007476
2746	0.0011676
2758	0.0010248
2770	0.0007686
2782	0.0007686
2794	0.0008568
2806	0.0010752
2818	0.0014658
2830	0.0022848
2842	0.0045822
2854	0.0090972
2866	0.013692
2878	0.0136962
2890	0.0094122
2902	0.010563
2914	0.0185892
2926	0.0342594
2938	0.041685
2950	0.0312732
2962	0.0154266
2974	0.0074382
2986	0.0043092
2998	0.0036162
3010	0.0032382
3022	0.0025158
3034	0.0026964
3046	0.0018018
3058	0.0016842
3070	0.001197
3082	0.0009534
3094	0.0007602
3106	0.0005082
3118	0.0004956
3130	0.0003486
3142	0.000315
3154	0.0002856
3166	0.0002436
3178	0.0002352
3190	0.0002142
3202	0.000231
3214	0.0001848
3226	0.0001512
3238	0.0001512
3250	0.0001428
3262	0.0001218
3274	0.0001344
3286	0.0001764
3298	0.0001932
3310	0.0001974
3322	0.0002226
3334	0.0002268
3346	0.0002604
3358	0.0002268
3370	0.0001428
3382	0.0001092
3394	0.000126
3406	0.000126
3418	0.000168
3430	0.0002184
3442	0.0002352
3454	0.0002352
3466	0.0002058
3478	0.000168
3490	0.0001092
3502	7.98e-05
3514	5.88e-05
3526	4.62e-05
3538	7.56e-05
3550	7.56e-05
3562	2.94e-05
3574	4.62e-05
3586	5.88e-05
3598	0.000105
3610	7.56e-05
3622	8.82e-05
3634	7.98e-05
3646	8.4e-05
3658	6.72e-05
3670	0.0001008
3682	8.4e-05
3694	7.56e-05
3706	0.000105
3718	0.0001092
3730	6.72e-05
3742	7.56e-05
3754	6.72e-05
3766	0.0001092
3778	0.000147
3790	0.000105
3802	0.0001092
3814	9.24e-05
3826	0.0001134
3838	0.0001092
