Infrared Spectrum: 2-Decyn-1-ol
Formula: C 10 H 18 O
CAS: 4117-14-0
State: gas
Instrument: HP-GC/MS/IRD
Origin: NIST Mass Spectrometry Data Center
1/CM	ABSORBANCE
550	0.0004836
562	0.0002964
574	0.0001794
586	0.0001443
598	9.36e-05
610	0.0001326
622	8.58e-05
634	2.73e-05
646	0.0001287
658	0.0001365
670	7.8e-05
682	0.0001911
694	0.0004134
706	0.0007527
718	0.0008424
730	0.0007293
742	0.0005109
754	0.0003705
766	0.0003588
778	0.0004056
790	0.0003783
802	0.0002691
814	0.0002886
826	0.0002613
838	0.0003393
850	0.0003432
862	0.0003198
874	0.0003315
886	0.0004485
898	0.0005538
910	0.0006591
922	0.0008697
934	0.0011271
946	0.0016419
958	0.002496
970	0.0039234
982	0.0059475
994	0.0086931
1006	0.0117351
1018	0.0111267
1030	0.0067899
1042	0.0040131
1054	0.0024414
1066	0.0016029
1078	0.0012168
1090	0.0010959
1102	0.0012597
1114	0.0015639
1126	0.0022932
1138	0.0033306
1150	0.0017823
1162	0.0010686
1174	0.0008697
1186	0.0008268
1198	0.0009243
1210	0.0010803
1222	0.0011856
1234	0.0013338
1246	0.0015444
1258	0.0017745
1270	0.0018642
1282	0.0020124
1294	0.0020865
1306	0.0021996
1318	0.002652
1330	0.0034437
1342	0.0037245
1354	0.0044889
1366	0.0056238
1378	0.0069693
1390	0.0073437
1402	0.0055458
1414	0.0034008
1426	0.0025077
1438	0.0030225
1450	0.0032955
1462	0.0034944
1474	0.0024375
1486	0.001209
1498	0.0006864
1510	0.0004914
1522	0.0003666
1534	0.0003003
1546	0.0002496
1558	0.0002262
1570	0.000156
1582	0.0001482
1594	0.0001287
1606	0.0001404
1618	9.75e-05
1630	9.75e-05
1642	7.02e-05
1654	8.58e-05
1666	7.41e-05
1678	5.85e-05
1690	8.19e-05
1702	6.63e-05
1714	4.29e-05
1726	3.51e-05
1738	2.34e-05
1750	1.17e-05
1762	3.12e-05
1774	1.95e-05
1786	7.8e-06
1798	1.56e-05
1810	3.9e-05
1822	1.95e-05
1834	3.12e-05
1846	2.73e-05
1858	0
1870	1.17e-05
1882	2.73e-05
1894	4.29e-05
1906	3.9e-06
1918	3.51e-05
1930	4.29e-05
1942	5.46e-05
1954	7.02e-05
1966	8.97e-05
1978	0.0001131
1990	0.0001326
2002	0.0001638
2014	0.0001482
2026	0.0001482
2038	0.0001131
2050	0.0001014
2062	8.58e-05
2074	5.85e-05
2086	2.34e-05
2098	3.51e-05
2110	1.56e-05
2122	5.07e-05
2134	7.41e-05
2146	5.46e-05
2158	8.19e-05
2170	0.0001131
2182	0.0002106
2194	0.0004251
2206	0.0007683
2218	0.0011505
2230	0.0008658
2242	0.0004914
2254	0.00039
2266	0.0004641
2278	0.0007098
2290	0.0006825
2302	0.0002964
2314	0.0001326
2326	7.41e-05
2338	5.46e-05
2350	3.12e-05
2362	5.46e-05
2374	6.24e-05
2386	7.41e-05
2398	3.9e-05
2410	0
2422	2.73e-05
2434	1.95e-05
2446	3.51e-05
2458	4.29e-05
2470	3.51e-05
2482	4.29e-05
2494	4.29e-05
2506	3.51e-05
2518	6.63e-05
2530	8.19e-05
2542	0.0001053
2554	9.75e-05
2566	0.000117
2578	0.0001521
2590	0.0001716
2602	0.0001521
2614	0.0001794
2626	0.0002535
2638	0.0002808
2650	0.0003354
2662	0.0003705
2674	0.0003861
2686	0.0004251
2698	0.0003861
2710	0.0004173
2722	0.0004251
2734	0.000546
2746	0.0006123
2758	0.0006396
2770	0.0007215
2782	0.0008697
2794	0.0011115
2806	0.0014001
2818	0.0018915
2830	0.0027417
2842	0.0047502
2854	0.0095355
2866	0.014547
2878	0.0141882
2890	0.012441
2902	0.013065
2914	0.0190203
2926	0.0303966
2938	0.039
2950	0.0291447
2962	0.0194727
2974	0.0141843
2986	0.0062556
2998	0.003315
3010	0.0020436
3022	0.0014157
3034	0.0011115
3046	0.0008346
3058	0.0006903
3070	0.0005889
3082	0.0004953
3094	0.0003939
3106	0.0003588
3118	0.0002925
3130	0.000273
3142	0.0002418
3154	0.0001755
3166	0.0001989
3178	0.0001638
3190	0.0001716
3202	8.19e-05
3214	0.0001209
3226	8.97e-05
3238	6.24e-05
3250	4.68e-05
3262	6.63e-05
3274	1.95e-05
3286	4.68e-05
3298	7.02e-05
3310	3.51e-05
3322	0
3334	3.9e-05
3346	3.9e-05
3358	6.63e-05
3370	7.02e-05
3382	7.41e-05
3394	6.63e-05
3406	7.41e-05
3418	7.41e-05
3430	0.0001209
3442	7.41e-05
3454	5.85e-05
3466	0.0001131
3478	0.0001053
3490	0.000117
3502	6.63e-05
3514	0.0001365
3526	0.0001326
3538	0.0001209
3550	0.0001209
3562	0.000156
3574	0.0001482
3586	0.000195
3598	0.0002847
3610	0.000429
3622	0.0007059
3634	0.0010569
3646	0.0014235
3658	0.001677
3670	0.0015678
3682	0.0012207
3694	0.0007293
3706	0.0004992
3718	0.0003393
3730	0.0002262
3742	0.0002223
3754	0.0002223
3766	0.000195
3778	0.0002535
3790	0.0002379
3802	0.0002535
3814	0.000234
3826	0.0002028
3838	0.0002145
