Infrared Spectrum: Dichloromethanesulphonyl chloride
Formula: C H Cl 3 O 2 S
CAS: 41197-29-9
State: gas
Origin: EPA-IR VAPOR PHASE LIBRARY
1/CM	ABSORBANCE
549.9	0.010944
559.547	0.021964
569.193	0.033714
578.84	0.036654
588.486	0.021974
598.133	0.006064
607.779	0.003084
617.426	0.002744
627.072	0.002444
636.719	0.0017234
646.365	0.0014888
656.012	0.002234
665.658	0.003824
675.305	0.006384
684.951	0.008644
694.598	0.009304
704.245	0.007124
713.891	0.003694
723.538	0.002694
733.184	0.002904
742.831	0.003204
752.477	0.004894
762.124	0.007654
771.77	0.008444
781.417	0.006094
791.063	0.006454
800.71	0.011264
810.356	0.017214
820.003	0.016674
829.649	0.009204
839.296	0.003944
848.943	0.002144
858.589	0.0015884
868.236	0.0012913
877.882	0.0011868
887.529	0.0011076
897.175	0.0011054
906.822	0.0010394
916.468	0.0010498
926.115	0.0010945
935.761	0.0010555
945.408	0.0011385
955.054	0.0011869
964.701	0.0010783
974.347	0.0008637
983.994	0.000897937
993.64	0.00092138
1003.29	0.0009123
1012.93	0.000897041
1022.58	0.0009409
1032.23	0.0008763
1041.87	0.0009281
1051.52	0.0010079
1061.17	0.0010109
1070.81	0.0010117
1080.46	0.0012349
1090.11	0.0013068
1099.75	0.0014127
1109.4	0.0016707
1119.05	0.002084
1128.69	0.003014
1138.34	0.006354
1147.99	0.011424
1157.63	0.012624
1167.28	0.010404
1176.92	0.010574
1186.57	0.015474
1196.22	0.020384
1205.86	0.018764
1215.51	0.013904
1225.16	0.007494
1234.8	0.003044
1244.45	0.0017598
1254.1	0.0014925
1263.74	0.001266
1273.39	0.0011641
1283.04	0.0011476
1292.68	0.001255
1302.33	0.0015772
1311.98	0.002634
1321.62	0.004524
1331.27	0.006844
1340.92	0.008354
1350.56	0.007604
1360.21	0.008424
1369.86	0.008684
1379.5	0.010614
1389.15	0.009704
1398.79	0.016584
1408.44	0.030984
1418.09	0.035704
1427.73	0.018274
1437.38	0.005644
1447.03	0.0015994
1456.67	0.0013743
1466.32	0.0012698
1475.97	0.0011199
1485.61	0.0010661
1495.26	0.0010584
1504.91	0.0010685
1514.55	0.0010185
1524.2	0.0010208
1533.85	0.0010628
1543.49	0.0011243
1553.14	0.0010359
1562.79	0.001063
1572.43	0.0010709
1582.08	0.0010904
1591.73	0.0010563
1601.37	0.0010782
1611.02	0.001033
1620.67	0.0010461
1630.31	0.0010022
1639.96	0.00092258
1649.6	0.001038
1659.25	0.0009988
1668.9	0.0010551
1678.54	0.0009963
1688.19	0.00094068
1697.84	0.0010438
1707.48	0.0010306
1717.13	0.0010392
1726.78	0.00091026
1736.42	0.00097856
1746.07	0.00096146
1755.72	0.00094174
1765.36	0.00094677
1775.01	0.00093435
1784.66	0.00099101
1794.3	0.00098493
1803.95	0.00097934
1813.6	0.0010009
1823.24	0.00096786
1832.89	0.0010613
1842.54	0.001036
1852.18	0.00093636
1861.83	0.00099092
1871.47	0.00089163
1881.12	0.0008448
1890.77	0.00091727
1900.41	0.00091364
1910.06	0.00094423
1919.71	0.0008762
1929.35	0.0009453
1939	0.0008698
1948.65	0.0008811
1958.29	0.0008758
1967.94	0.00088592
1977.59	0.0008727
1987.23	0.000900783
1996.88	0.0008405
2006.53	0.0008558
2016.17	0.0008433
2025.82	0.0008353
2035.47	0.0008707
2045.11	0.0008287
2054.76	0.0008491
2064.41	0.00093717
2074.05	0.0008684
2083.7	0.000895769
2093.35	0.000894275
2102.99	0.0008369
2112.64	0.0008698
2122.28	0.0007995
2131.93	0.0007978
2141.58	0.000852
2151.22	0.000792
2160.87	0.000774
2170.52	0.000764
2180.16	0.0008322
2189.81	0.0008095
2199.46	0.0008612
2209.1	0.0008182
2218.75	0.0008064
2228.4	0.0008052
2238.04	0.0008537
2247.69	0.0008007
2257.34	0.0008281
2266.98	0.0008618
2276.63	0.000767
2286.28	0.0008414
2295.92	0.0008828
2305.57	0.00093667
2315.22	0.00095639
2324.86	0.0009295
2334.51	0.0010663
2344.16	0.0010096
2353.8	0.0011098
2363.45	0.0011437
2373.09	0.001007
2382.74	0.00094126
2392.39	0.00090526
2402.03	0.0008093
2411.68	0.00079
2421.33	0.000778
2430.97	0.000763
2440.62	0.000793
2450.27	0.00077
2459.91	0.000781
2469.56	0.0008235
2479.21	0.000812
2488.85	0.0008362
2498.5	0.00079
2508.15	0.0008111
2517.79	0.0008299
2527.44	0.000707
2537.09	0.000696
2546.73	0.000745
2556.38	0.000699
2566.03	0.000682
2575.67	0.000622
2585.32	0.000735
2594.96	0.000771
2604.61	0.0008137
2614.26	0.000723
2623.9	0.00069
2633.55	0.000631
2643.2	0.000606
2652.84	0.000584
2662.49	0.000514
2672.14	0.000512
2681.78	0.000514
2691.43	0.000518
2701.08	0.000607
2710.72	0.000477
2720.37	0.000531
2730.02	0.000415
2739.66	0.000368
2749.31	0.000504
2758.96	0.000399
2768.6	0.000385
2778.25	0.000431
2787.9	0.000385
2797.54	0.000532
2807.19	0.000353
2816.84	0.000466
2826.48	0.000285
2836.13	0.000278
2845.77	0.000324
2855.42	0.000221
2865.07	0.000488
2874.71	0.000256
2884.36	0.000213
2894.01	0.000203
2903.65	0.000319
2913.3	0.000189
2922.95	0.000336
2932.59	0.000339
2942.24	0.000336
2951.89	0.00036
2961.53	0.000777
2971.18	0.0008403
2980.83	0.0012015
2990.47	0.0008449
3000.12	0.0011531
3009.77	0.00095738
3019.41	0.000471
3029.06	0.00038
3038.71	0.000237
3048.35	0.000277
3058	0.000223
3067.64	0.000194
3077.29	0.000163
3086.94	0.000257
3096.58	0.000274
3106.23	0.000134
3115.88	0.000113
3125.52	0.000188
3135.17	0.000261
3144.82	0.000113
3154.46	0.000236
3164.11	0
3173.76	0.000192
3183.4	0.000241
3193.05	0.000276
3202.7	0.000103
3212.34	0.000195
3221.99	0.000442
3231.64	0.000304
3241.28	0.000304
3250.93	0.000305
3260.58	0.000322
3270.22	0.000392
3279.87	0.000501
3289.52	0.000432
3299.16	0.000286
3308.81	0.000603
3318.45	0.000508
3328.1	0.000538
3337.75	0.000363
3347.39	0.000386
3357.04	0.000584
3366.69	0.000448
3376.33	0.000534
3385.98	0.000734
3395.63	0.000611
3405.27	0.000393
3414.92	0.000492
3424.57	0.000526
3434.21	0.000658
3443.86	0.000573
3453.51	0.000635
3463.15	0.000569
3472.8	0.0008059
3482.45	0.00064
3492.09	0.000508
3501.74	0.000646
3511.39	0.000684
3521.03	0.000624
3530.68	0.000593
3540.33	0.000604
3549.97	0.000622
3559.62	0.000709
3569.26	0.000602
3578.91	0.0008041
3588.56	0.000672
3598.2	0.000685
3607.85	0.000689
3617.5	0.000792
3627.14	0.0008506
3636.79	0.000626
3646.44	0.0008344
3656.08	0.000832
3665.73	0.000614
3675.38	0.000788
3685.02	0.0008001
3694.67	0.000637
3704.32	0.000751
3713.96	0.00076
3723.61	0.0008412
3733.26	0.000642
3742.9	0.000723
3752.55	0.000764
3762.2	0.000637
3771.84	0.000683
3781.49	0.000644
3791.13	0.00062
3800.78	0.000642
3810.43	0.000659
3820.07	0.000607
3829.72	0.000689
3839.37	0.000532
3849.01	0.000643
3858.66	0.000745
3868.31	0.00067
3877.95	0.000605
3887.6	0.000608
3897.25	0.000651
3906.89	0.000651
3916.54	0.000692
3926.19	0.00058
3935.83	0.000461
3945.48	0.000598
3955.13	0.000723
3964.77	0.000576
3974.42	0.000742
3984.07	0.000612
3993.71	0.000667
