Infrared Spectrum: RHODANINE, 5-(P-NITROBENZYLIDENE)-
Formula: C10 H6 N2 O3 S2
CAS: 4120-64-3
State: SOLID (KBr PELLET)
Melting point: 261 C DECOMPOSES
Class: COBLENTZ
Instrument: Not specified, most likely a prism, grating, or hybrid spectrometer.
Sampling: TRANSMISSION
Resolution: 4
Origin: TENNESSEE EASTMAN COMPANY, RESEARCH LABORATORIES
MICROMETERS	TRANSMITTANCE
2.014	0.748
2.05505	0.752
2.09611	0.752
2.13716	0.755
2.17821	0.762
2.21926	0.767
2.26032	0.77
2.30137	0.772
2.34242	0.779
2.38348	0.781
2.42453	0.786
2.46558	0.789
2.50664	0.798
2.54769	0.801
2.58874	0.805
2.62979	0.808
2.67085	0.818
2.7119	0.82
2.75295	0.788
2.79401	0.764
2.83506	0.733
2.87611	0.714
2.91716	0.692
2.95822	0.721
2.99927	0.752
3.04032	0.765
3.08138	0.767
3.12243	0.748
3.16348	0.675
3.20454	0.629
3.24559	0.533
3.28664	0.355
3.32769	0.285
3.36875	0.461
3.4098	0.473
3.45085	0.54
3.49191	0.28
3.53296	0.276
3.57401	0.456
3.61506	0.558
3.65612	0.579
3.69717	0.62
3.73822	0.637
3.77928	0.666
3.82033	0.709
3.86138	0.782
3.90244	0.823
3.94349	0.839
3.98454	0.842
4.02559	0.841
4.06665	0.854
4.1077	0.852
4.14875	0.878
4.18981	0.902
4.23086	0.902
4.27191	0.9
4.31296	0.902
4.35402	0.905
4.39507	0.924
4.43612	0.931
4.47718	0.94
4.51823	0.943
4.55928	0.945
4.60034	0.945
4.64139	0.945
4.68244	0.945
4.72349	0.95
4.76455	0.958
4.8056	0.962
4.84665	0.96
4.88771	0.96
4.92876	0.955
4.96981	0.943
5.01086	0.958
5.05192	0.96
5.09297	0.957
5.13402	0.928
5.17508	0.926
5.21613	0.943
5.25718	0.943
5.29824	0.936
5.33929	0.924
5.38034	0.924
5.42139	0.921
5.46245	0.911
5.5035	0.905
5.54455	0.871
5.58561	0.849
5.62666	0.825
5.66771	0.806
5.70876	0.654
5.74982	0.358
5.79087	0.153
5.83192	0.029
5.87298	0.083
5.91403	0.547
5.95508	0.716
5.99614	0.772
6.03719	0.841
6.07824	0.841
6.11929	0.818
6.16035	0.81
6.2014	0.555
6.24245	0.488
6.28351	0.299
6.32456	0.735
6.36561	0.83
6.40666	0.83
6.44772	0.786
6.48877	0.61
6.52982	0.336
6.57088	0.041
6.61193	0.459
6.65298	0.608
6.69404	0.548
6.73509	0.649
6.77614	0.514
6.81719	0.357
6.85825	0.264
6.8993	0.088
6.94035	0.307
6.98141	0.492
7.02246	0.639
7.06351	0.538
7.10456	0.704
7.14562	0.779
7.18667	0.806
7.22772	0.707
7.26878	0.625
7.30983	0.723
7.35088	0.69
7.39194	0.434
7.43299	0.061
7.47404	0.073
7.51509	0.358
7.55615	0.511
7.5972	0.444
7.63825	0.601
7.67931	0.441
7.72036	0.317
7.76141	0.247
7.80246	0.405
7.84352	0.634
7.88457	0.659
7.92562	0.598
7.96668	0.598
8.00773	0.526
8.04878	0.239
8.08984	0.073
8.13089	0.034
8.17194	0.112
8.21299	0.478
8.25405	0.471
8.2951	0.258
8.33615	0.059
8.37721	0.029
8.41826	0.034
8.45931	0.145
8.50036	0.345
8.54142	0.497
8.58247	0.634
8.62352	0.714
8.66458	0.738
8.70563	0.758
8.74668	0.782
8.78774	0.789
8.82879	0.779
8.86984	0.716
8.91089	0.54
8.95195	0.285
8.993	0.258
9.03405	0.358
9.07511	0.555
9.11616	0.673
9.15721	0.682
9.19826	0.623
9.23932	0.326
9.28037	0.415
9.32142	0.413
9.36248	0.211
9.40353	0.234
9.44458	0.528
9.48564	0.702
9.52669	0.733
9.56774	0.688
9.60879	0.772
9.64985	0.823
9.6909	0.841
9.73195	0.842
9.77301	0.822
9.81406	0.741
9.85511	0.517
9.89616	0.362
9.93722	0.593
9.97827	0.772
10.0193	0.834
10.0604	0.846
10.1014	0.852
10.1425	0.87
10.1835	0.883
10.2246	0.882
10.2656	0.882
10.3067	0.883
10.3477	0.883
10.3888	0.885
10.4299	0.894
10.4709	0.902
10.512	0.904
10.553	0.904
10.5941	0.902
10.6351	0.902
10.6762	0.895
10.7172	0.892
10.7583	0.883
10.7993	0.859
10.8404	0.832
10.8814	0.789
10.9225	0.747
10.9635	0.699
11.0046	0.629
11.0456	0.553
11.0867	0.466
11.1278	0.423
11.1688	0.565
11.2099	0.704
11.2509	0.779
11.292	0.83
11.333	0.858
11.3741	0.854
11.4151	0.781
11.4562	0.647
11.4972	0.417
11.5383	0.352
11.5793	0.285
11.6204	0.131
11.6614	0.341
11.7025	0.516
11.7435	0.429
11.7846	0.435
11.8257	0.632
11.8667	0.709
11.9078	0.729
11.9488	0.733
11.9899	0.738
12.0309	0.765
12.072	0.786
12.113	0.791
12.1541	0.835
12.1951	0.871
12.2362	0.883
12.2772	0.892
12.3183	0.897
12.3593	0.902
12.4004	0.909
12.4414	0.923
12.4825	0.928
12.5236	0.935
12.5646	0.938
12.6057	0.938
12.6467	0.938
12.6878	0.938
12.7288	0.938
12.7699	0.94
12.8109	0.94
12.852	0.941
12.893	0.941
12.9341	0.943
12.9751	0.941
13.0162	0.935
13.0572	0.916
13.0983	0.866
13.1393	0.719
13.1804	0.475
13.2215	0.48
13.2625	0.805
13.3036	0.895
13.3446	0.931
13.3857	0.947
13.4267	0.952
13.4678	0.952
13.5088	0.953
13.5499	0.931
13.5909	0.905
13.632	0.892
13.673	0.883
13.7141	0.9
13.7551	0.907
13.7962	0.904
13.8372	0.846
13.8783	0.757
13.9194	0.704
13.9604	0.709
14.0015	0.808
14.0425	0.878
14.0836	0.909
14.1246	0.938
14.1657	0.95
14.2067	0.953
14.2478	0.953
14.2888	0.952
14.3299	0.94
14.3709	0.873
14.412	0.789
14.453	0.685
14.4941	0.576
14.5351	0.558
14.5762	0.6
14.6173	0.671
14.6583	0.685
14.6994	0.67
14.7404	0.594
14.7815	0.497
14.8225	0.434
14.8636	0.434
14.9046	0.49
14.9457	0.528
14.9867	0.507
15.0278	0.461
15.0688	0.499
15.1099	0.606
15.1509	0.733
15.192	0.796
15.233	0.854
15.2741	0.873
15.3152	0.88
15.3562	0.883
15.3973	0.882
15.4383	0.882
15.4794	0.882
15.5204	0.882
15.5615	0.882
15.6025	0.875
15.6436	0.87
15.6846	0.864
15.7257	0.847
15.7667	0.839
15.8078	0.83
15.8488	0.818
15.8899	0.798
15.9309	0.779
15.972	0.776
