Infrared Spectrum: N-Propionylimidazole
Formula: C 6 H 8 N 2 O
CAS: 4122-52-5
State: gas
Origin: EPA-IR VAPOR PHASE LIBRARY
1/CM	ABSORBANCE
549.8	0.0015662
559.445	0.0013861
569.09	0.001865
578.735	0.002855
588.38	0.005445
598.025	0.009125
607.67	0.011295
617.315	0.009655
626.96	0.008945
636.605	0.011355
646.251	0.017995
655.896	0.011345
665.541	0.006495
675.186	0.003435
684.831	0.003455
694.476	0.006155
704.121	0.010395
713.766	0.016445
723.411	0.015845
733.056	0.013275
742.701	0.011605
752.346	0.012585
761.991	0.007575
771.636	0.004795
781.281	0.004405
790.926	0.007785
800.571	0.011635
810.216	0.015075
819.861	0.011335
829.507	0.008905
839.152	0.009085
848.797	0.006605
858.442	0.004915
868.087	0.003985
877.732	0.004875
887.377	0.007805
897.022	0.008735
906.667	0.009975
916.312	0.030955
925.957	0.050305
935.602	0.041915
945.247	0.010595
954.892	0.004175
964.537	0.003635
974.182	0.005745
983.827	0.011375
993.472	0.015505
1003.12	0.014045
1012.76	0.009525
1022.41	0.009675
1032.05	0.012385
1041.7	0.016555
1051.34	0.026205
1060.99	0.033425
1070.63	0.028595
1080.28	0.021435
1089.92	0.030195
1099.57	0.031205
1109.21	0.021595
1118.86	0.012255
1128.5	0.005395
1138.15	0.003535
1147.79	0.003205
1157.44	0.003285
1167.08	0.003995
1176.73	0.005785
1186.37	0.009975
1196.02	0.023265
1205.66	0.062615
1215.31	0.112505
1224.95	0.134035
1234.6	0.101445
1244.24	0.061085
1253.89	0.035655
1263.53	0.054385
1273.18	0.070585
1282.82	0.064045
1292.47	0.057975
1302.11	0.038755
1311.76	0.026365
1321.4	0.023705
1331.05	0.019555
1340.69	0.013495
1350.34	0.014255
1359.98	0.032575
1369.63	0.069995
1379.27	0.094055
1388.92	0.071535
1398.56	0.027805
1408.21	0.013675
1417.85	0.011465
1427.5	0.012315
1437.14	0.017905
1446.79	0.024835
1456.43	0.039235
1466.08	0.062255
1475.73	0.063735
1485.37	0.037755
1495.02	0.019595
1504.66	0.014575
1514.31	0.012235
1523.95	0.010865
1533.6	0.008955
1543.24	0.005635
1552.89	0.005745
1562.53	0.005895
1572.18	0.005585
1581.82	0.005135
1591.47	0.004525
1601.11	0.005515
1610.76	0.007365
1620.4	0.007455
1630.05	0.005325
1639.69	0.003355
1649.34	0.003015
1658.98	0.003285
1668.63	0.004335
1678.27	0.005205
1687.92	0.005595
1697.56	0.006725
1707.21	0.008485
1716.85	0.012425
1726.5	0.024775
1736.14	0.062005
1745.79	0.125085
1755.43	0.133615
1765.08	0.088245
1774.72	0.026085
1784.37	0.008975
1794.01	0.004815
1803.66	0.003695
1813.3	0.003335
1822.95	0.003125
1832.59	0.002785
1842.24	0.002475
1851.88	0.002195
1861.53	0.001935
1871.17	0.0018077
1880.82	0.0017422
1890.46	0.0017139
1900.11	0.0015174
1909.75	0.0013448
1919.4	0.0012902
1929.04	0.0012469
1938.69	0.0012595
1948.33	0.0013085
1957.98	0.0013694
1967.62	0.0013696
1977.27	0.0012911
1986.91	0.001181
1996.56	0.0009757
2006.2	0.00087373
2015.85	0.00084979
2025.49	0.0008022
2035.14	0.0007986
2044.78	0.000828299
2054.43	0.0008681
2064.07	0.00090589
2073.72	0.00091743
2083.36	0.00087961
2093.01	0.0009566
2102.65	0.0012048
2112.3	0.0013804
2121.94	0.0014288
2131.59	0.001472
2141.23	0.0015409
2150.88	0.001296
2160.52	0.0010081
2170.17	0.000829979
2179.81	0.0007856
2189.46	0.0007591
2199.1	0.000718
2208.75	0.000681
2218.39	0.000641
2228.04	0.00059
2237.68	0.000664
2247.33	0.000694
2256.97	0.0007701
2266.62	0.00086658
2276.26	0.0009497
2285.91	0.0010466
2295.55	0.0010027
2305.2	0.0010318
2314.84	0.000962
2324.49	0.0009718
2334.13	0.00088437
2343.78	0.0009435
2353.42	0.0009561
2363.07	0.0010778
2372.72	0.001065
2382.36	0.0010021
2392.01	0.0009045
2401.65	0.00086115
2411.3	0.0007966
2420.94	0.0008916
2430.59	0.00091267
2440.23	0.00081711
2449.88	0.00087446
2459.52	0.00087142
2469.17	0.00086677
2478.81	0.00082039
2488.46	0.0008785
2498.1	0.0009895
2507.75	0.0009819
2517.39	0.0009907
2527.04	0.0010915
2536.68	0.0011165
2546.33	0.0013184
2555.97	0.0012828
2565.62	0.0012949
2575.26	0.0013267
2584.91	0.0012667
2594.55	0.0012142
2604.2	0.0009497
2613.84	0.00091986
2623.49	0.0007816
2633.13	0.00081648
2642.78	0.000679
2652.42	0.000669
2662.07	0.000658
2671.71	0.0007434
2681.36	0.00086765
2691	0.00087639
2700.65	0.000648
2710.29	0.000647
2719.94	0.000589
2729.58	0.000694
2739.23	0.00084901
2748.87	0.0009825
2758.52	0.0010484
2768.16	0.0009798
2777.81	0.0008224
2787.45	0.000921
2797.1	0.00087129
2806.74	0.0009767
2816.39	0.0011392
2826.03	0.0011492
2835.68	0.0013802
2845.32	0.0015206
2854.97	0.0015057
2864.61	0.001845
2874.26	0.002585
2883.9	0.004335
2893.55	0.005775
2903.19	0.005925
2912.84	0.005785
2922.48	0.007645
2932.13	0.009375
2941.77	0.011205
2951.42	0.013635
2961.06	0.012845
2970.71	0.008925
2980.35	0.011325
2990	0.015975
2999.64	0.016445
3009.29	0.010075
3018.93	0.005535
3028.58	0.003295
3038.22	0.002475
3047.87	0.002065
3057.51	0.0015254
3067.16	0.0012053
3076.8	0.0010599
3086.45	0.0009772
3096.09	0.0009616
3105.74	0.0012223
3115.38	0.002055
3125.03	0.003545
3134.67	0.003775
3144.32	0.003155
3153.96	0.002485
3163.61	0.002815
3173.25	0.002385
3182.9	0.0010487
3192.54	0.000473
3202.19	0.00029
3211.83	0.000222
3221.48	0.000263
3231.12	8.7e-05
3240.77	5e-05
3250.41	0.000122
3260.06	0.000231
3269.7	0.000186
3279.35	0.000296
3289	0.000307
3298.64	0.000266
3308.29	9.5e-05
3317.93	0.000276
3327.58	0.000121
3337.22	0.000174
3346.87	0.000272
3356.51	7.4e-05
3366.16	6.5e-05
3375.8	3.5e-05
3385.45	0.000201
3395.09	0.000111
3404.74	0.00017
3414.38	0.000187
3424.03	0.000255
3433.67	0.000261
3443.32	0.000375
3452.96	0.000574
3462.61	0.0010485
3472.25	0.001641
3481.9	0.002225
3491.54	0.002115
3501.19	0.001438
3510.83	0.0007468
3520.48	0.000639
3530.12	0.000577
3539.77	0.000433
3549.41	0.000381
3559.06	0.0004
3568.7	0.000291
3578.35	0.000253
3587.99	0.000372
3597.64	0.000243
3607.28	0.000316
3616.93	0.000379
3626.57	0.000291
3636.22	0.000302
3645.86	0.000237
3655.51	0.000267
3665.15	0.000233
3674.8	0.000298
3684.44	0.000321
3694.09	0.000361
3703.73	0.000265
3713.38	0.000295
3723.02	0.000267
3732.67	0.00016
3742.31	0.000357
3751.96	0.000357
3761.6	0.0002
3771.25	0.000226
3780.89	0.000178
3790.54	0.000265
3800.18	0.000374
3809.83	0.000252
3819.47	0.000237
3829.12	0.000326
3838.76	0.000237
3848.41	0.000248
3858.05	0.000222
3867.7	0.000181
3877.34	0.000199
3886.99	0.000383
3896.63	0.000255
3906.28	0.000395
3915.92	0.000462
3925.57	0.000222
3935.21	0.000303
3944.86	0.000365
3954.5	0.000433
3964.15	0.000433
3973.79	0.000263
3983.44	0.000411
3993.08	0.000493
