Infrared Spectrum: 2-Iodo-4-Nitrotoluene
Formula: C 7 H 6 I N O 2
CAS: 41252-97-5
State: gas
Origin: EPA-IR VAPOR PHASE LIBRARY
1/CM	ABSORBANCE
549.8	0.0005943
559.445	0.00031159
569.09	0.0007656
578.734	0.0005397
588.379	0.0001733
598.024	0.0006995
607.669	0.0012292
617.313	0.002444
626.958	0.011164
636.603	0.006934
646.248	0.002384
655.893	0.009864
665.537	0.027744
675.182	0.010684
684.827	0.003574
694.472	0.003114
704.116	0.003324
713.761	0.003694
723.406	0.007634
733.051	0.023074
742.695	0.019964
752.34	0.004914
761.985	0.001924
771.63	0.002364
781.275	0.012404
790.919	0.033574
800.564	0.010714
810.209	0.005614
819.854	0.014774
829.498	0.014584
839.143	0.005764
848.788	0.005544
858.433	0.009114
868.078	0.017564
877.722	0.017754
887.367	0.009964
897.012	0.012644
906.657	0.008084
916.301	0.002854
925.946	0.001804
935.591	0.001644
945.236	0.001574
954.88	0.001444
964.525	0.001794
974.17	0.001854
983.815	0.002574
993.46	0.004544
1003.1	0.003584
1012.75	0.003694
1022.39	0.010784
1032.04	0.024384
1041.68	0.013534
1051.33	0.003634
1060.97	0.002404
1070.62	0.001614
1080.26	0.001954
1089.91	0.003064
1099.55	0.008174
1109.2	0.022774
1118.84	0.025594
1128.49	0.008944
1138.13	0.005914
1147.78	0.003634
1157.42	0.001494
1167.07	0.001814
1176.71	0.002204
1186.36	0.002324
1196	0.002544
1205.64	0.003474
1215.29	0.002314
1224.93	0.002964
1234.58	0.003134
1244.22	0.004344
1253.87	0.007374
1263.51	0.016994
1273.16	0.011904
1282.8	0.005424
1292.45	0.004034
1302.09	0.004374
1311.74	0.005134
1321.38	0.010974
1331.03	0.032704
1340.67	0.124084
1350.32	0.222704
1359.96	0.082304
1369.61	0.022414
1379.25	0.018504
1388.9	0.016784
1398.54	0.009764
1408.18	0.008724
1417.83	0.009234
1427.47	0.007884
1437.12	0.009694
1446.76	0.016344
1456.41	0.029314
1466.05	0.033804
1475.7	0.029014
1485.34	0.020154
1494.99	0.018314
1504.63	0.017344
1514.28	0.025414
1523.92	0.070524
1533.57	0.172854
1543.21	0.184424
1552.86	0.068574
1562.5	0.031024
1572.15	0.030164
1581.79	0.036504
1591.44	0.028864
1601.08	0.013944
1610.73	0.008014
1620.37	0.006944
1630.01	0.006424
1639.66	0.006394
1649.3	0.004914
1658.95	0.003254
1668.59	0.002434
1678.24	0.001974
1687.88	0.001794
1697.53	0.001844
1707.17	0.001734
1716.82	0.001284
1726.46	0.0012104
1736.11	0.0009743
1745.75	0.0009946
1755.4	0.0009617
1765.04	0.001654
1774.69	0.002634
1784.33	0.002624
1793.98	0.002294
1803.62	0.001644
1813.27	0.0008503
1822.91	0.0005659
1832.55	0.0005087
1842.2	0.0005437
1851.84	0.0005787
1861.49	0.0006455
1871.13	0.0006571
1880.78	0.000717
1890.42	0.0012295
1900.07	0.002194
1909.71	0.002564
1919.36	0.001504
1929	0.0006796
1938.65	0.0004608
1948.29	0.0004846
1957.94	0.0004544
1967.58	0.00045
1977.23	0.0007206
1986.87	0.0007852
1996.52	0.0007657
2006.16	0.0005039
2015.81	0.000407
2025.45	0.0003704
2035.1	0.0003911
2044.74	0.00034393
2054.38	0.0004241
2064.03	0.0005463
2073.67	0.0004202
2083.32	0.0004399
2092.96	0.0003712
2102.61	0.00027395
2112.25	0.0003001
2121.9	0.00032054
2131.54	0.00027557
2141.19	0.00033019
2150.83	0.00028417
2160.48	0.00032889
2170.12	0.00032771
2179.77	0.00027956
2189.41	0.0003806
2199.06	0.0004321
2208.7	0.00051
2218.35	0.0005059
2227.99	0.0005379
2237.64	0.0004146
2247.28	0.00031369
2256.92	0.0004601
2266.57	0.0003908
2276.21	0.0005544
2285.86	0.0004611
2295.5	0.0004786
2305.15	0.0003871
2314.79	0.00032073
2324.44	0.0004262
2334.08	0.00032184
2343.73	0.0003657
2353.37	0.0003533
2363.02	0.0004981
2372.66	0.0006823
2382.31	0.0007149
2391.95	0.0007333
2401.6	0.0009256
2411.24	0.0010407
2420.89	0.000749
2430.53	0.0005274
2440.18	0.0006794
2449.82	0.0010919
2459.47	0.001374
2469.11	0.0012026
2478.75	0.0008
2488.4	0.0006401
2498.04	0.0006356
2507.69	0.0005673
2517.33	0.0004606
2526.98	0.0004819
2536.62	0.0006081
2546.27	0.0008387
2555.91	0.0009945
2565.56	0.0007667
2575.2	0.0008313
2584.85	0.0008026
2594.49	0.000693
2604.14	0.0005972
2613.78	0.0006743
2623.43	0.0005628
2633.07	0.0004427
2642.72	0.000485
2652.36	0.0005172
2662.01	0.0005477
2671.65	0.0009008
2681.29	0.001344
2690.94	0.001714
2700.58	0.001484
2710.23	0.0011259
2719.87	0.000784
2729.52	0.0007053
2739.16	0.000698
2748.81	0.0009467
2758.45	0.0007341
2768.1	0.0005133
2777.74	0.0004665
2787.39	0.0006869
2797.03	0.0008098
2806.68	0.0010306
2816.32	0.0009833
2825.97	0.001394
2835.61	0.001654
2845.26	0.002274
2854.9	0.003164
2864.55	0.004374
2874.19	0.005764
2883.84	0.005214
2893.48	0.003594
2903.12	0.003134
2912.77	0.003464
2922.41	0.005324
2932.06	0.009114
2941.7	0.008154
2951.35	0.005244
2960.99	0.005564
2970.64	0.006004
2980.28	0.006574
2989.93	0.007894
2999.57	0.006234
3009.22	0.003834
3018.86	0.003484
3028.51	0.003494
3038.15	0.003374
3047.8	0.003964
3057.44	0.006234
3067.09	0.008214
3076.73	0.006404
3086.38	0.004154
3096.02	0.004504
3105.67	0.003204
3115.31	0.001524
3124.95	0.0008869
3134.6	0.0006505
3144.24	0.00026165
3153.89	0.0006492
3163.53	0.0005131
3173.18	0.0009302
3182.82	0.0007948
3192.47	0.0006652
3202.11	0.0005165
3211.76	0.00029381
3221.4	0.00032493
3231.05	0.0002263
3240.69	0.00029307
3250.34	0.00026724
3259.98	0.0002279
3269.63	0.0002809
3279.27	0.0002128
3288.92	0.0003929
3298.56	0.00029824
3308.21	0.00030832
3317.85	0.0002165
3327.49	5.8e-05
3337.14	0.00014
3346.78	0.00027493
3356.43	0.00023854
3366.07	0.000111
3375.72	0.000133
3385.36	0.00032794
3395.01	0.00025574
3404.65	0.0003774
3414.3	2.6e-05
3423.94	0.0001892
3433.59	0.0002269
3443.23	5.3e-05
3452.88	0.0003682
3462.52	0.0004143
3472.17	0.0003888
3481.81	0.0001503
3491.46	0.0002204
3501.1	0.000139
3510.75	0.00031704
3520.39	0.0004058
3530.04	0.00027062
3539.68	0.0001986
3549.32	0.000122
3558.97	0.000253133
3568.61	0.0002076
3578.26	0.00026018
3587.9	6.1e-05
3597.55	0.00030925
3607.19	0.0001537
3616.84	0.0001906
3626.48	0.000187
3636.13	7.4e-05
3645.77	8.9e-05
3655.42	0.000247487
3665.06	0.0004015
3674.71	0.0001778
3684.35	0.000169
3694	0.00032388
3703.64	0.00027061
3713.29	0.0001891
3722.93	0.00029804
3732.58	0.00029723
3742.22	0.0004212
3751.86	0.0003913
3761.51	0.00031967
3771.15	0.00028767
3780.8	0.000128
3790.44	0.00028534
3800.09	0.0002052
3809.73	0.0001762
3819.38	0.00027836
3829.02	0.00028581
3838.67	0.0004157
3848.31	0.0002332
3857.96	0.00025509
3867.6	0.0004386
3877.25	0.0005375
3886.89	0.0005499
3896.54	0.00025804
3906.18	0.0003678
3915.83	0.0003717
3925.47	0.0003592
3935.12	0.00026536
3944.76	0.0004737
3954.41	0.00029882
3964.05	0.00029854
3973.69	0.0003465
3983.34	0.0004301
3992.98	0.000236
