Infrared Spectrum: PYRIMIDINE-5-AMINE, 4-BUTYLAMINO, 6-CHLORO-
Formula: C8 H13 Cl N4
CAS: 41259-67-0
State: SOLID (0.9 mg / 650 mg, KBr DISC)
Class: COBLENTZ III
Instrument: PERKIN-ELMER 21 (GRATING)
Instrument parameters: FILTER CHANGE AT 1080 CM^-^1
Sampling: TRANSMISSION
Resolution: 2
Origin: SOUTHERN RESEARCH INSTITUTE (W.C. COBURN, JR.)
1/CM	TRANSMITTANCE
604.194	0.895
613.265	0.8902
622.337	0.886
631.408	0.884
640.479	0.8816
649.55	0.871
658.622	0.871
667.693	0.8652
676.764	0.8494
685.835	0.8328
694.907	0.8168
703.978	0.7832
713.049	0.7409
722.12	0.6467
731.192	0.5419
740.263	0.67
749.334	0.6492
758.405	0.696
767.477	0.6807
776.548	0.522
785.619	0.6994
794.691	0.694
803.762	0.6744
812.833	0.6732
821.904	0.6718
830.976	0.6338
840.047	0.4812
849.118	0.5139
858.189	0.5828
867.261	0.6244
876.332	0.622
885.403	0.5954
894.474	0.5756
903.546	0.583
912.617	0.6267
921.688	0.599
930.759	0.536
939.831	0.4818
948.902	0.6111
957.973	0.6548
967.045	0.6734
976.116	0.6948
985.187	0.692
994.258	0.69
1003.33	0.69
1012.4	0.6886
1021.47	0.6774
1030.54	0.6777
1039.61	0.664
1048.69	0.663
1057.76	0.6559
1066.83	0.6311
1075.9	0.5955
1084.97	0.5657
1094.04	0.5397
1103.11	0.4689
1112.18	0.3533
1121.26	0.3275
1130.33	0.4413
1139.4	0.5577
1148.47	0.5851
1157.54	0.6232
1166.61	0.624
1175.68	0.6179
1184.75	0.5981
1193.83	0.5336
1202.9	0.5501
1211.97	0.5609
1221.04	0.3307
1230.11	0.4646
1239.18	0.6665
1248.25	0.6724
1257.32	0.701
1266.4	0.6985
1275.47	0.673
1284.54	0.6715
1293.61	0.6309
1302.68	0.5264
1311.75	0.3791
1320.82	0.5621
1329.9	0.6435
1338.97	0.5483
1348.04	0.3791
1357.11	0.3859
1366.18	0.5603
1375.25	0.5271
1384.32	0.4151
1393.39	0.57
1402.47	0.5569
1411.54	0.548
1420.61	0.3604
1429.68	0.2938
1438.75	0.446
1447.82	0.3886
1456.89	0.2737
1465.96	0.1584
1475.04	0.2109
1484.11	0.4605
1493.18	0.4687
1502.25	0.3916
1511.32	0.4262
1520.39	0.4873
1529.46	0.485
1538.53	0.4007
1547.61	0.2907
1556.68	0.2195
1565.75	0.106
1574.82	0.052
1583.89	0.055
1592.96	0.0911
1602.03	0.2024
1611.1	0.336
1620.18	0.4259
1629.25	0.4883
1638.32	0.4869
1647.39	0.4316
1656.46	0.3209
1665.53	0.4064
1674.6	0.5623
1683.67	0.6406
1692.75	0.6996
1701.82	0.7413
1710.89	0.7624
1719.96	0.7857
1729.03	0.7952
1738.1	0.8042
1747.17	0.8133
1756.24	0.825
1765.32	0.827
1774.39	0.83
1783.46	0.83
1792.53	0.8276
1801.6	0.826
1810.67	0.825
1819.74	0.826
1828.81	0.826
1837.89	0.826
1846.96	0.8151
1856.03	0.805
1865.1	0.8201
1874.17	0.831
1883.24	0.834
1892.31	0.834
1901.38	0.8262
1910.46	0.827
1919.53	0.8306
1928.6	0.833
1937.67	0.834
1946.74	0.8346
1955.81	0.8307
1964.88	0.829
1973.95	0.827
1983.03	0.826
1992.1	0.826
2001.17	0.825
2010.24	0.821
2019.31	0.816
2028.38	0.814
2037.45	0.813
2046.52	0.813
2055.6	0.812
2064.67	0.8092
2073.74	0.808
2082.81	0.807
2091.88	0.803
2100.95	0.8002
2110.02	0.8
2119.09	0.799
2128.17	0.798
2137.24	0.796
2146.31	0.793
2155.38	0.793
2164.45	0.793
2173.52	0.79
2182.59	0.787
2191.67	0.787
2200.74	0.787
2209.81	0.786
2218.88	0.7841
2227.95	0.782
2237.02	0.782
2246.09	0.781
2255.16	0.781
2264.24	0.776
2273.31	0.775
2282.38	0.776
2291.45	0.7761
2300.52	0.7708
2309.59	0.7748
2318.66	0.775
2327.73	0.772
2336.81	0.7671
2345.88	0.7602
2354.95	0.758
2364.02	0.7512
2373.09	0.7462
2382.16	0.746
2391.23	0.7509
2400.3	0.751
2409.38	0.7411
2418.45	0.7351
2427.52	0.7282
2436.59	0.7309
2445.66	0.737
2454.73	0.741
2463.8	0.741
2472.87	0.74
2481.95	0.7361
2491.02	0.7321
2500.09	0.7242
2509.16	0.717
2518.23	0.7131
2527.3	0.715
2536.37	0.7309
2545.44	0.732
2554.52	0.732
2563.59	0.7311
2572.66	0.73
2581.73	0.727
2590.8	0.7221
2599.87	0.718
2608.94	0.713
2618.01	0.7168
2627.09	0.715
2636.16	0.7102
2645.23	0.708
2654.3	0.7032
2663.37	0.701
2672.44	0.7
2681.51	0.6961
2690.58	0.694
2699.66	0.694
2708.73	0.6882
2717.8	0.683
2726.87	0.6772
2735.94	0.674
2745.01	0.676
2754.08	0.6681
2763.15	0.663
2772.23	0.663
2781.3	0.661
2790.37	0.6511
2799.44	0.646
2808.51	0.6362
2817.58	0.624
2826.65	0.6011
2835.72	0.5613
2844.8	0.5176
2853.87	0.4742
2862.94	0.4461
2872.01	0.4559
2881.08	0.4745
2890.15	0.5246
2899.22	0.532
2908.29	0.5037
2917.37	0.426
2926.44	0.3983
2935.51	0.4069
2944.58	0.41
2953.65	0.3992
2962.72	0.4251
2971.79	0.5019
2980.86	0.5654
2989.94	0.6016
2999.01	0.602
3008.08	0.6
3017.15	0.5911
3026.22	0.5781
3035.29	0.5642
3044.36	0.5521
3053.44	0.548
3062.51	0.548
3071.58	0.552
3080.65	0.555
3089.72	0.553
3098.79	0.5431
3107.86	0.5372
3116.93	0.5029
3126.01	0.4803
3135.08	0.4622
3144.15	0.457
3153.22	0.438
3162.29	0.4192
3171.36	0.392
3180.43	0.376
3189.5	0.3621
3198.58	0.3561
3207.65	0.352
3216.72	0.3344
3225.79	0.3095
3234.86	0.3002
3243.93	0.3027
3253	0.3309
3262.07	0.3732
3271.15	0.3989
3280.22	0.4079
3289.29	0.4042
3298.36	0.3844
3307.43	0.3534
3316.5	0.3205
3325.57	0.2917
3334.64	0.2634
3343.72	0.2501
3352.79	0.244
3361.86	0.244
3370.93	0.2575
3380	0.3157
3389.07	0.3958
3398.14	0.4521
3407.21	0.456
3416.29	0.4462
3425.36	0.4343
3434.43	0.3923
3443.5	0.3938
3452.57	0.4836
3461.64	0.5552
3470.71	0.6141
3479.78	0.641
3488.86	0.6581
3497.93	0.6729
3507	0.678
3516.07	0.682
3525.14	0.69
3534.21	0.69
3543.28	0.701
3552.35	0.704
3561.43	0.7089
3570.5	0.717
3579.57	0.7207
3588.64	0.7231
3597.71	0.7329
3606.78	0.7399
3615.85	0.7449
3624.92	0.7402
3634	0.737
3643.07	0.7459
3652.14	0.75
3661.21	0.75
3670.28	0.749
3679.35	0.7462
3688.42	0.74
3697.49	0.7388
3706.57	0.744
3715.64	0.746
3724.71	0.745
3733.78	0.7391
3742.85	0.735
3751.92	0.735
3760.99	0.735
3770.06	0.736
3779.14	0.735
3788.21	0.7311
3797.28	0.73
3806.35	0.73
3815.42	0.728
3824.49	0.73
3833.56	0.728
3842.63	0.7261
3851.71	0.727
3860.78	0.721
3869.85	0.718
3878.92	0.714
3887.99	0.714
3897.06	0.713
3906.13	0.71
3915.21	0.709
3924.28	0.7062
3933.35	0.712
3942.42	0.712
3951.49	0.71
3960.56	0.709
3969.63	0.7041
3978.7	0.7
3987.78	0.703
3996.85	0.6961
