Infrared Spectrum: Triisobutylphosphine
Formula: C 12 H 27 P
CAS: 4125-25-1
State: gas
Origin: EPA-IR VAPOR PHASE LIBRARY
1/CM	ABSORBANCE
549.8	0.00337
559.445	0.00382
569.09	0.00326
578.734	0.0025934
588.379	0.002413
598.024	0.00377
607.669	0.0026708
617.313	0.00361
626.958	0.0025299
636.603	0.00304
646.248	0.0022763
655.893	0.00375
665.537	0.00327
675.182	0.0024437
684.827	0.00323
694.472	0.0026109
704.116	0.00356
713.761	0.00382
723.406	0.00286
733.051	0.00381
742.695	0.0031
752.34	0.00361
761.985	0.00277
771.63	0.0025881
781.275	0.00357
790.919	0.00335
800.564	0.00368
810.209	0.0025537
819.854	0.0021965
829.498	0.00282
839.143	0.0025937
848.788	0.0029
858.433	0.0025436
868.078	0.0026293
877.722	0.001289
887.367	0.0016827
897.012	0.00182752
906.657	0.00181802
916.301	0.001624
925.946	0.0024681
935.591	0.0021076
945.236	0.0017999
954.88	0.0022751
964.525	0.001177
974.17	0.0021362
983.815	0.0017094
993.46	0.001599
1003.1	0.001404
1012.75	0.0025225
1022.39	0.001241
1032.04	0.0023004
1041.68	0.00275
1051.33	0.00365
1060.97	0.00305
1070.62	0.0025004
1080.26	0.0022775
1089.91	0.00411
1099.55	0.00528
1109.2	0.00385
1118.84	0.00474
1128.49	0.00649
1138.13	0.00835
1147.78	0.0085
1157.42	0.0082
1167.07	0.00902
1176.71	0.00762
1186.36	0.00683
1196	0.00776
1205.64	0.00961
1215.29	0.01106
1224.93	0.00943
1234.58	0.00883
1244.22	0.00663
1253.87	0.00614
1263.51	0.00567
1273.16	0.0056
1282.8	0.00449
1292.45	0.00387
1302.09	0.00412
1311.74	0.0038
1321.38	0.00447
1331.03	0.00454
1340.67	0.00395
1350.32	0.00336
1359.96	0.0043
1369.61	0.00599
1379.25	0.0059
1388.9	0.00546
1398.54	0.00373
1408.18	0.00371
1417.83	0.00382
1427.47	0.00372
1437.12	0.00348
1446.76	0.0041
1456.41	0.005
1466.05	0.00593
1475.7	0.00484
1485.34	0.0032
1494.99	0.0026663
1504.63	0.0023052
1514.28	0.0024057
1523.92	0.0019538
1533.57	0.002176
1543.21	0.0020787
1552.86	0.0021019
1562.5	0.0024685
1572.15	0.0026776
1581.79	0.0024366
1591.44	0.0019361
1601.08	0.0023957
1610.73	0.0023546
1620.37	0.0025785
1630.01	0.0024329
1639.66	0.0025505
1649.3	0.0024583
1658.95	0.0022782
1668.59	0.0026654
1678.24	0.0023655
1687.88	0.0025073
1697.53	0.0023802
1707.17	0.0023773
1716.82	0.0025747
1726.46	0.0023299
1736.11	0.0024935
1745.75	0.002471
1755.4	0.0025044
1765.04	0.0026159
1774.69	0.0024728
1784.33	0.0022332
1793.98	0.0022377
1803.62	0.0025026
1813.27	0.0026145
1822.91	0.0022986
1832.55	0.0023811
1842.2	0.0023454
1851.84	0.0023191
1861.49	0.0022834
1871.13	0.0023149
1880.78	0.0023459
1890.42	0.0021992
1900.07	0.0021368
1909.71	0.0021658
1919.36	0.0020179
1929	0.0019485
1938.65	0.0016801
1948.29	0.001628
1957.94	0.001692
1967.58	0.001572
1977.23	0.0017147
1986.87	0.0017152
1996.52	0.0016824
2006.16	0.001683
2015.81	0.00174972
2025.45	0.001467
2035.1	0.00183385
2044.74	0.0016762
2054.38	0.00173116
2064.03	0.001633
2073.67	0.001626
2083.32	0.001661
2092.96	0.001323
2102.61	0.001608
2112.25	0.0016532
2121.9	0.001555
2131.54	0.0016495
2141.19	0.001333
2150.83	0.001335
2160.48	0.001438
2170.12	0.001101
2179.77	0.001568
2189.41	0.001264
2199.06	0.0016467
2208.7	0.001557
2218.35	0.00125
2227.99	0.001475
2237.64	0.001215
2247.28	0.00176781
2256.92	0.001599
2266.57	0.001576
2276.21	0.0017254
2285.86	0.000892
2295.5	0.00161
2305.15	0.000827
2314.79	0.001154
2324.44	0.001116
2334.08	0.00074
2343.73	0.001221
2353.37	0.001262
2363.02	0.001455
2372.66	0.001415
2382.31	0.001042
2391.95	0.001502
2401.6	0.001317
2411.24	0.001031
2420.89	0.001071
2430.53	0.001352
2440.18	0.001123
2449.82	0.001363
2459.47	0.000999
2469.11	0.001465
2478.75	0.00093
2488.4	0.000955
2498.04	0.001215
2507.69	0.001101
2517.33	0.00139
2526.98	0.001217
2536.62	0.001311
2546.27	0.000882
2555.91	0.001439
2565.56	0.001263
2575.2	0.001382
2584.85	0.001116
2594.49	0.001038
2604.14	0.001189
2613.78	0.001424
2623.43	0.001227
2633.07	0.001193
2642.72	0.00179063
2652.36	0.001047
2662.01	0.001144
2671.65	0.001079
2681.29	0.001111
2690.94	0.001098
2700.58	0.000949
2710.23	0.001178
2719.87	0.001258
2729.52	0.001446
2739.16	0.00175983
2748.81	0.001139
2758.45	0.001101
2768.1	0.000879
2777.74	0.00173745
2787.39	0.001628
2797.03	0.0018626
2806.68	0.0021308
2816.32	0.0024785
2825.97	0.0020233
2835.61	0.0024425
2845.26	0.00294
2854.9	0.00366
2864.55	0.00616
2874.19	0.01347
2883.84	0.01515
2893.48	0.01157
2903.12	0.01129
2912.77	0.01315
2922.41	0.01297
2932.06	0.014
2941.7	0.01298
2951.35	0.01927
2960.99	0.03421
2970.64	0.02256
2980.28	0.00793
2989.93	0.00377
2999.57	0.0025953
3009.22	0.0023834
3018.86	0.0020928
3028.51	0.001657
3038.15	0.001569
3047.8	0.0016843
3057.44	0.001381
3067.09	0.001112
3076.73	0.001526
3086.38	0.0016803
3096.02	0.000855
3105.67	0.001905
3115.31	0.000898
3124.95	0.0020574
3134.6	0.000749
3144.24	0.001729
3153.89	0.001141
3163.53	0.0019037
3173.18	0.00137
3182.82	0.001261
3192.47	0.0014
3202.11	0.001192
3211.76	0.001454
3221.4	0.001108
3231.05	0.001517
3240.69	0.001039
3250.34	0.000855
3259.98	0.000856
3269.63	0.0018614
3279.27	0.001216
3288.92	0.000826
3298.56	0.00113
3308.21	0.0020148
3317.85	0.001308
3327.49	0.001396
3337.14	0.001051
3346.78	0.00102
3356.43	0.002073
3366.07	0.0020388
3375.72	0.001318
3385.36	0.0023847
3395.01	0.00037
3404.65	0.00175122
3414.3	0.00180488
3423.94	0.0016863
3433.59	0.001131
3443.23	0.0018191
3452.88	0.001245
3462.52	0.001292
3472.17	0.001364
3481.81	0.00175552
3491.46	0.001234
3501.1	0.0020983
3510.75	0.0022327
3520.39	0.00178667
3530.04	0.0023178
3539.68	0.001556
3549.32	0.0023801
3558.97	0.0018502
3568.61	0.001443
3578.26	0.0022674
3587.9	0.001634
3597.55	0.001048
3607.19	0.001849
3616.84	0.001534
3626.48	0.001561
3636.13	0.0018786
3645.77	0.001523
3655.42	0.001216
3665.06	0.00175465
3674.71	0.0022295
3684.35	0.001413
3694	0.001059
3703.64	0.0019491
3713.29	0.0024412
3722.93	0.0019234
3732.58	0.001644
3742.22	0.001285
3751.86	0.002059
3761.51	0.000789
3771.15	0.0003
3780.8	0.0016526
3790.44	0.001295
3800.09	0.001618
3809.73	0.001395
3819.38	0.0019653
3829.02	0.001207
3838.67	0.00174673
3848.31	0.0018652
3857.96	0.000898
3867.6	0.00179829
3877.25	0.001106
3886.89	0.0019035
3896.54	0.00176637
3906.18	0.0018645
3915.83	0.00174795
3925.47	0.000981
3935.12	0.001104
3944.76	0.001317
3954.41	0.001378
3964.05	0.0015
3973.69	0.001647
3983.34	0.001481
3992.98	0.0017468
