Infrared Spectrum: 1-HYDROXY HEPTADECANONE-2
Formula: C17 H34 O2
CAS: 41265-63-8
State: SOLID (KBr PELLET)
Melting point: 74.5-75 C
Class: COBLENTZ
Instrument: PERKIN-ELMER
Sampling: TRANSMISSION
Resolution: 4
Origin: HORMEL INSTITUTE
MICROMETERS	TRANSMITTANCE
2.014	0.964
2.04785	0.969
2.08171	0.967
2.11556	0.966
2.14941	0.966
2.18327	0.967
2.21712	0.967
2.25097	0.961
2.28482	0.949
2.31868	0.922
2.35253	0.927
2.38638	0.923
2.42024	0.922
2.45409	0.929
2.48794	0.932
2.5218	0.94
2.55565	0.94
2.5895	0.94
2.62336	0.944
2.65721	0.945
2.69106	0.951
2.72491	0.949
2.75877	0.922
2.79262	0.858
2.82647	0.766
2.86033	0.668
2.89418	0.564
2.92803	0.456
2.96189	0.408
2.99574	0.413
3.02959	0.445
3.06345	0.496
3.0973	0.579
3.13115	0.675
3.16501	0.766
3.19886	0.819
3.23271	0.842
3.26656	0.858
3.30042	0.837
3.33427	0.792
3.36812	0.44
3.40198	0.123
3.43583	0.05
3.46968	0.202
3.50354	0.121
3.53739	0.592
3.57124	0.746
3.6051	0.832
3.63895	0.864
3.6728	0.88
3.70665	0.9
3.74051	0.903
3.77436	0.898
3.80821	0.903
3.84207	0.913
3.87592	0.925
3.90977	0.932
3.94363	0.94
3.97748	0.944
4.01133	0.945
4.04519	0.954
4.07904	0.956
4.11289	0.957
4.14674	0.954
4.1806	0.954
4.21445	0.951
4.2483	0.944
4.28216	0.942
4.31601	0.942
4.34986	0.949
4.38372	0.952
4.41757	0.952
4.45142	0.954
4.48528	0.956
4.51913	0.957
4.55298	0.956
4.58684	0.956
4.62069	0.954
4.65454	0.954
4.68839	0.954
4.72225	0.954
4.7561	0.954
4.78995	0.954
4.82381	0.954
4.85766	0.954
4.89151	0.954
4.92537	0.947
4.95922	0.951
4.99307	0.956
5.02693	0.959
5.06078	0.959
5.09463	0.959
5.12848	0.959
5.16234	0.959
5.19619	0.959
5.23004	0.952
5.2639	0.952
5.29775	0.959
5.3316	0.959
5.36546	0.959
5.39931	0.959
5.43316	0.957
5.46702	0.952
5.50087	0.949
5.53472	0.944
5.56857	0.939
5.60243	0.93
5.63628	0.917
5.67013	0.907
5.70399	0.859
5.73784	0.768
5.77169	0.339
5.80555	0.14
5.8394	0.182
5.87325	0.66
5.90711	0.798
5.94096	0.834
5.97481	0.873
6.00866	0.885
6.04252	0.873
6.07637	0.868
6.11022	0.863
6.14408	0.871
6.17793	0.883
6.21178	0.9
6.24564	0.912
6.27949	0.92
6.31334	0.923
6.3472	0.925
6.38105	0.927
6.4149	0.927
6.44876	0.929
6.48261	0.923
6.51646	0.913
6.55031	0.91
6.58417	0.9
6.61802	0.886
6.65187	0.859
6.68573	0.831
6.71958	0.773
6.75343	0.587
6.78729	0.319
6.82114	0.354
6.85499	0.572
6.88885	0.658
6.9227	0.685
6.95655	0.682
6.9904	0.675
7.02426	0.675
7.05811	0.581
7.09196	0.565
7.12582	0.601
7.15967	0.653
7.19352	0.643
7.22738	0.518
7.26123	0.584
7.29508	0.655
7.32894	0.714
7.36279	0.753
7.39664	0.783
7.43049	0.787
7.46435	0.812
7.4982	0.829
7.53205	0.824
7.56591	0.831
7.59976	0.824
7.63361	0.805
7.66747	0.768
7.70132	0.8
7.73517	0.793
7.76903	0.78
7.80288	0.771
7.83673	0.773
7.87059	0.77
7.90444	0.689
7.93829	0.68
7.97214	0.77
8.006	0.755
8.03985	0.716
8.0737	0.75
8.10756	0.778
8.14141	0.743
8.17526	0.768
8.20912	0.77
8.24297	0.78
8.27682	0.795
8.31068	0.815
8.34453	0.824
8.37838	0.8
8.41223	0.812
8.44609	0.824
8.47994	0.826
8.51379	0.827
8.54765	0.827
8.5815	0.826
8.61535	0.822
8.64921	0.815
8.68306	0.807
8.71691	0.793
8.75077	0.78
8.78462	0.746
8.81847	0.695
8.85232	0.631
8.88618	0.609
8.92003	0.638
8.95388	0.63
8.98774	0.579
9.02159	0.488
9.05544	0.4
9.0893	0.471
9.12315	0.564
9.157	0.636
9.19086	0.662
9.22471	0.63
9.25856	0.496
9.29241	0.363
9.32627	0.449
9.36012	0.532
9.39397	0.567
9.42783	0.621
9.46168	0.633
9.49553	0.611
9.52939	0.623
9.56324	0.592
9.59709	0.601
9.63095	0.5
9.6648	0.479
9.69865	0.594
9.73251	0.658
9.76636	0.658
9.80021	0.618
9.83406	0.633
9.86792	0.658
9.90177	0.648
9.93562	0.569
9.96948	0.613
10.0033	0.665
10.0372	0.623
10.071	0.599
10.1049	0.694
10.1387	0.746
10.1726	0.773
10.2064	0.768
10.2403	0.714
10.2742	0.65
10.308	0.714
10.3419	0.777
10.3757	0.819
10.4096	0.839
10.4434	0.847
10.4773	0.849
10.5111	0.837
10.545	0.82
10.5788	0.795
10.6127	0.817
10.6465	0.841
10.6804	0.863
10.7142	0.869
10.7481	0.875
10.782	0.878
10.8158	0.878
10.8497	0.876
10.8835	0.876
10.9174	0.869
10.9512	0.861
10.9851	0.858
11.0189	0.868
11.0528	0.873
11.0866	0.873
11.1205	0.873
11.1543	0.869
11.1882	0.864
11.222	0.849
11.2559	0.856
11.2897	0.858
11.3236	0.858
11.3575	0.851
11.3913	0.851
11.4252	0.849
11.459	0.849
11.4929	0.849
11.5267	0.853
11.5606	0.854
11.5944	0.856
11.6283	0.858
11.6621	0.861
11.696	0.868
11.7298	0.869
11.7637	0.869
11.7975	0.869
11.8314	0.869
11.8652	0.871
11.8991	0.868
11.933	0.863
11.9668	0.859
12.0007	0.856
12.0345	0.849
12.0684	0.851
12.1022	0.842
12.1361	0.827
12.1699	0.824
12.2038	0.824
12.2376	0.822
12.2715	0.819
12.3053	0.817
12.3392	0.812
12.373	0.807
12.4069	0.804
12.4408	0.804
12.4746	0.807
12.5085	0.809
12.5423	0.812
12.5762	0.817
12.61	0.826
12.6439	0.827
12.6777	0.837
12.7116	0.846
12.7454	0.849
12.7793	0.863
12.8131	0.858
12.847	0.864
12.8808	0.868
12.9147	0.859
12.9485	0.863
12.9824	0.858
13.0163	0.856
13.0501	0.858
13.084	0.868
13.1178	0.868
13.1517	0.859
13.1855	0.866
13.2194	0.856
13.2532	0.859
13.2871	0.853
13.3209	0.849
13.3548	0.842
13.3886	0.847
13.4225	0.839
13.4563	0.837
13.4902	0.829
13.5241	0.826
13.5579	0.817
13.5918	0.805
13.6256	0.778
13.6595	0.716
13.6933	0.638
13.7272	0.569
13.761	0.597
13.7949	0.609
13.8287	0.587
13.8626	0.516
13.8964	0.451
13.9303	0.437
13.9641	0.538
13.998	0.606
14.0318	0.689
14.0657	0.731
14.0996	0.758
14.1334	0.778
14.1673	0.787
14.2011	0.795
14.235	0.797
14.2688	0.797
14.3027	0.795
14.3365	0.788
14.3704	0.768
14.4042	0.75
14.4381	0.722
14.4719	0.699
14.5058	0.692
14.5396	0.692
14.5735	0.702
14.6074	0.716
14.6412	0.731
14.6751	0.743
14.7089	0.751
14.7428	0.76
14.7766	0.77
14.8105	0.777
14.8443	0.771
14.8782	0.777
14.912	0.78
14.9459	0.771
14.9797	0.771
15.0136	0.79
15.0474	0.788
15.0813	0.778
15.1151	0.778
15.149	0.778
