Infrared Spectrum: 1,1,2,2-Tetramethylcyclopropane
Formula: C 7 H 14
CAS: 4127-47-3
State: gas
Instrument: HP-GC/MS/IRD
Origin: NIST Mass Spectrometry Data Center
1/CM	ABSORBANCE
550	0.0001131
562	0.0001443
574	1.17e-05
586	0.0002223
598	0.0002379
610	0.000234
622	0.0002574
634	0.0003237
646	0.0004407
658	0.0003939
670	0.0003003
682	0.000351
694	0.0002262
706	0.0002769
718	0.0002574
730	0.0002691
742	0.0001833
754	0.0002769
766	0.0003081
778	0.0003042
790	0.0003354
802	0.0003783
814	0.0004368
826	0.0006123
838	0.0010374
850	0.0013494
862	0.0010374
874	0.0006786
886	0.0004017
898	0.00039
910	0.0005304
922	0.0013221
934	0.0024141
946	0.0026208
958	0.0017784
970	0.0009438
982	0.0007176
994	0.000624
1006	0.0009828
1018	0.0013338
1030	0.001209
1042	0.0007605
1054	0.0004368
1066	0.000507
1078	0.0005655
1090	0.0009438
1102	0.0016302
1114	0.0024141
1126	0.0026091
1138	0.0019266
1150	0.001092
1162	0.0006708
1174	0.0007527
1186	0.0013455
1198	0.0019539
1210	0.0017316
1222	0.0009321
1234	0.0005382
1246	0.0004017
1258	0.0004446
1270	0.0005109
1282	0.0006357
1294	0.0007137
1306	0.0006435
1318	0.0006084
1330	0.0006396
1342	0.0007059
1354	0.0010725
1366	0.0025311
1378	0.0045006
1390	0.0047151
1402	0.0025389
1414	0.0014196
1426	0.0020124
1438	0.0042978
1450	0.0072852
1462	0.0076401
1474	0.0062088
1486	0.0038454
1498	0.002145
1510	0.0012441
1522	0.0007722
1534	0.0006084
1546	0.0004836
1558	0.0004251
1570	0.0004407
1582	0.0004875
1594	0.0005265
1606	0.0005967
1618	0.0006201
1630	0.000624
1642	0.0005343
1654	0.0004563
1666	0.0004056
1678	0.0003705
1690	0.0003276
1702	0.0002847
1714	0.0002457
1726	0.0002379
1738	0.0001716
1750	0.0002106
1762	0.0002613
1774	0.0002964
1786	0.0003315
1798	0.0002574
1810	0.0002496
1822	0.0002184
1834	0.0002223
1846	0.000195
1858	0.0001989
1870	0.0002028
1882	0.0002223
1894	0.0002379
1906	0.0002457
1918	0.0001911
1930	0.0001677
1942	0.0001911
1954	0.000234
1966	0.0002574
1978	0.0002418
1990	0.0001911
2002	0.0002184
2014	0.0003003
2026	0.0004056
2038	0.0004758
2050	0.0004056
2062	0.0002418
2074	0.0001755
2086	0.0001287
2098	0.0001248
2110	0.0001131
2122	0.0001092
2134	0.0001365
2146	0.0001443
2158	0.0001209
2170	0.0001014
2182	6.24e-05
2194	0.0001092
2206	0.0001092
2218	0.0001131
2230	9.75e-05
2242	0.0001131
2254	9.36e-05
2266	0.0001053
2278	6.63e-05
2290	5.46e-05
2302	8.97e-05
2314	0.000117
2326	4.68e-05
2338	6.24e-05
2350	8.19e-05
2362	6.63e-05
2374	8.19e-05
2386	8.19e-05
2398	0.0001482
2410	0.0001053
2422	7.41e-05
2434	8.97e-05
2446	8.97e-05
2458	0.0001092
2470	9.75e-05
2482	0.000117
2494	0.0001131
2506	7.8e-05
2518	8.97e-05
2530	5.46e-05
2542	3.12e-05
2554	4.29e-05
2566	5.85e-05
2578	9.75e-05
2590	0.0001287
2602	7.41e-05
2614	0.0001092
2626	0.0001092
2638	8.19e-05
2650	0.0001404
2662	0.0002145
2674	0.0002028
2686	0.0002301
2698	0.0003159
2710	0.0004485
2722	0.0007995
2734	0.0014586
2746	0.0019032
2758	0.001716
2770	0.0013143
2782	0.0013182
2794	0.0014625
2806	0.0018876
2818	0.0025623
2830	0.0034359
2842	0.0043797
2854	0.0067704
2866	0.0145743
2878	0.0229671
2890	0.0256581
2902	0.0245115
2914	0.0267735
2926	0.0331578
2938	0.0386685
2950	0.0366327
2962	0.0269919
2974	0.0250731
2986	0.0282126
2998	0.0234741
3010	0.0122889
3022	0.0051012
3034	0.0054873
3046	0.0076167
3058	0.0072072
3070	0.0042978
3082	0.0022815
3094	0.0020163
3106	0.0020397
3118	0.0018486
3130	0.0016302
3142	0.0012402
3154	0.0008892
3166	0.0006396
3178	0.00039
3190	0.000273
3202	0.000195
3214	0.000234
3226	0.0002223
3238	0.0002262
3250	0.0002418
3262	0.000195
3274	0.0001677
3286	0.0001911
3298	0.0001092
3310	0.0001677
3322	0.0001794
3334	0.0002184
3346	0.000195
3358	0.0002145
3370	0.0001638
3382	0.0001989
3394	0.0002028
3406	8.19e-05
3418	0.0001053
3430	0.0001521
3442	0.0001209
3454	9.36e-05
3466	0.0001131
3478	8.97e-05
3490	5.85e-05
3502	0.0001131
3514	0.0001287
3526	9.36e-05
3538	8.58e-05
3550	7.02e-05
3562	6.63e-05
3574	8.97e-05
3586	7.8e-05
3598	0.0001248
3610	0.0001053
3622	0.0001248
3634	7.02e-05
3646	6.63e-05
3658	5.46e-05
3670	7.8e-06
3682	8.19e-05
3694	0.000117
3706	5.46e-05
3718	6.24e-05
3730	9.36e-05
3742	3.9e-06
3754	5.85e-05
3766	0.0001092
3778	0.000156
3790	0.0001248
3802	0.0001443
3814	0.0001404
3826	0.0002613
3838	0.0002496
