Infrared Spectrum: N-METHYL-N'-PHENACYLPIPERAZINE
Formula: C13 H18 N2 O
CAS: 41298-85-5
State: SOLUTION (7% IN CHCl3)
Class: COBLENTZ
Instrument: PERKIN-ELMER
Sampling: TRANSMISSION
Path length: 0.010 CM
Resolution: 4
Origin: ABBOTT LABORATORIES - WASHBURN
MICROMETERS	TRANSMITTANCE
2.045	0.918
2.08458	0.916
2.12415	0.916
2.16373	0.923
2.2033	0.93
2.24288	0.936
2.28246	0.943
2.32203	0.945
2.36161	0.94
2.40118	0.9459
2.44076	0.9413
2.48034	0.9381
2.51991	0.935
2.55949	0.9459
2.59906	0.95
2.63864	0.9548
2.67822	0.9579
2.71779	0.9548
2.75737	0.9497
2.79694	0.9534
2.83652	0.9488
2.8761	0.913
2.91567	0.903
2.95525	0.8929
2.99482	0.8728
3.0344	0.8609
3.07398	0.8631
3.11355	0.861
3.15313	0.858
3.1927	0.8612
3.23228	0.8731
3.27186	0.8548
3.31143	0.8379
3.35101	0.7158
3.39058	0.5748
3.43016	0.3957
3.46974	0.4311
3.50931	0.5251
3.54889	0.476
3.58846	0.3849
3.62804	0.5211
3.66762	0.6628
3.70719	0.7979
3.74677	0.8279
3.78635	0.8778
3.82592	0.911
3.8655	0.9279
3.90507	0.9251
3.94465	0.9081
3.98423	0.8882
4.0238	0.8632
4.06338	0.8609
4.10295	0.8749
4.14253	0.8879
4.18211	0.8958
4.22168	0.911
4.26126	0.916
4.30083	0.9063
4.34041	0.8954
4.37999	0.885
4.41956	0.8801
4.45914	0.878
4.49871	0.8729
4.53829	0.87
4.57787	0.8659
4.61744	0.8629
4.65702	0.8609
4.69659	0.856
4.73617	0.8579
4.77575	0.856
4.81532	0.851
4.8549	0.8429
4.89447	0.841
4.93405	0.843
4.97363	0.8399
5.0132	0.836
5.05278	0.8205
5.09235	0.8135
5.13193	0.825
5.17151	0.8284
5.21108	0.823
5.25066	0.82
5.29023	0.821
5.32981	0.8277
5.36939	0.83
5.40896	0.83
5.44854	0.8221
5.48811	0.8118
5.52769	0.8115
5.56727	0.82
5.60684	0.8161
5.64642	0.8133
5.68599	0.8067
5.72557	0.8036
5.76515	0.795
5.80472	0.7538
5.8443	0.5607
5.88387	0.2525
5.92345	0.2494
5.96303	0.318
6.0026	0.5652
6.04218	0.669
6.08175	0.6998
6.12133	0.7151
6.16091	0.725
6.20048	0.7184
6.24006	0.5703
6.27963	0.6246
6.31921	0.6401
6.35879	0.7445
6.39836	0.778
6.43794	0.7948
6.47751	0.7999
6.51709	0.811
6.55667	0.8116
6.59624	0.8089
6.63582	0.802
6.67539	0.7899
6.71497	0.7847
6.75455	0.7647
6.79412	0.7019
6.8337	0.5777
6.87327	0.3772
6.91285	0.305
6.95243	0.5692
6.992	0.6804
7.03158	0.7045
7.07116	0.7248
7.11073	0.741
7.15031	0.7341
7.18988	0.7121
7.22946	0.7036
7.26904	0.5151
7.30861	0.6658
7.34819	0.725
7.38776	0.716
7.42734	0.7153
7.46692	0.7092
7.50649	0.7028
7.54607	0.695
7.58564	0.6839
7.62522	0.5891
7.6648	0.536
7.70437	0.3977
7.74395	0.248
7.78352	0.345
7.8231	0.2608
7.86268	0.4352
7.90225	0.5014
7.94183	0.5454
7.9814	0.576
8.02098	0.5539
8.06056	0.4872
8.10013	0.473
8.13971	0.4621
8.17928	0.4657
8.21886	0.503
8.25844	0.5224
8.29801	0.5594
8.33759	0.575
8.37716	0.5863
8.41674	0.6403
8.45632	0.6298
8.49589	0.5011
8.53547	0.3744
8.57504	0.2478
8.61462	0.2761
8.6542	0.4542
8.69377	0.4994
8.73335	0.401
8.77292	0.448
8.8125	0.3872
8.85208	0.3823
8.89165	0.4672
8.93123	0.5605
8.9708	0.6332
9.01038	0.6748
9.04996	0.6903
9.08953	0.693
9.12911	0.6811
9.16868	0.661
9.20826	0.6165
9.24784	0.6638
9.28741	0.6491
9.32699	0.6553
9.36656	0.7168
9.40614	0.7629
9.44572	0.7844
9.48529	0.759
9.52487	0.6818
9.56444	0.706
9.60402	0.7911
9.6436	0.81
9.68317	0.8161
9.72275	0.8101
9.76232	0.7422
9.8019	0.722
9.84148	0.6076
9.88105	0.4
9.92063	0.5204
9.9602	0.663
9.99978	0.588
10.0394	0.6345
10.0789	0.6484
10.1185	0.6007
10.1581	0.5373
10.1977	0.468
10.2372	0.4482
10.2768	0.3759
10.3164	0.3742
10.356	0.5302
10.3955	0.6218
10.4351	0.6964
10.4747	0.7369
10.5143	0.7586
10.5538	0.766
10.5934	0.7759
10.633	0.776
10.6726	0.7686
10.7121	0.7364
10.7517	0.7405
10.7913	0.7603
10.8309	0.7606
10.8705	0.7222
10.91	0.6654
10.9496	0.6582
10.9892	0.745
11.0288	0.7706
11.0683	0.781
11.1079	0.783
11.1475	0.785
11.1871	0.793
11.2266	0.7948
11.2662	0.7945
11.3058	0.8006
11.3454	0.808
11.3849	0.8204
11.4245	0.83
11.4641	0.826
11.5037	0.8082
11.5432	0.7972
11.5828	0.7938
11.6224	0.7905
11.662	0.7806
11.7015	0.7699
11.7411	0.755
11.7807	0.756
11.8203	0.7419
11.8599	0.7024
11.8994	0.6302
11.939	0.5425
11.9786	0.4858
12.0182	0.5042
12.0577	0.5804
12.0973	0.6382
12.1369	0.6869
12.1765	0.718
12.216	0.7381
12.2556	0.761
12.2952	0.7686
12.3348	0.7761
12.3743	0.778
12.4139	0.781
12.4535	0.7807
12.4931	0.7906
12.5326	0.79
12.5722	0.791
12.6118	0.791
12.6514	0.79
12.691	0.791
12.7305	0.791
12.7701	0.791
12.8097	0.79
12.8493	0.79
12.8888	0.791
12.9284	0.79
12.968	0.788
13.0076	0.79
13.0471	0.79
13.0867	0.79
13.1263	0.7893
13.1659	0.7865
13.2054	0.79
13.245	0.7899
13.2846	0.791
13.3242	0.791
13.3637	0.7906
13.4033	0.791
13.4429	0.79
13.4825	0.79
13.522	0.79
13.5616	0.79
13.6012	0.79
13.6408	0.79
13.6804	0.7904
13.7199	0.791
13.7595	0.795
13.7991	0.7897
13.8387	0.79
13.8782	0.79
13.9178	0.79
13.9574	0.783
13.997	0.78
14.0365	0.78
14.0761	0.7708
14.1157	0.768
14.1553	0.7597
14.1948	0.7564
14.2344	0.7309
14.274	0.6899
14.3136	0.6441
14.3531	0.5856
14.3927	0.5247
14.4323	0.4546
14.4719	0.383
14.5114	0.327
14.551	0.3169
14.5906	0.4039
14.6302	0.5309
14.6698	0.6224
14.7093	0.6786
14.7489	0.727
14.7885	0.751
14.8281	0.7644
14.8676	0.7719
14.9072	0.7803
14.9468	0.7795
14.9864	0.778
15.0259	0.7653
15.0655	0.7066
15.1051	0.5693
15.1447	0.4965
15.1842	0.54
15.2238	0.6289
15.2634	0.696
15.303	0.7598
15.3425	0.7898
15.3821	0.8075
