Infrared Spectrum: 1,2,4-BENZENETRICARBOXYLIC ACID, TRIDECYL ESTER (ISO)
Formula: C39 H66 O6
CAS: 4130-35-2
State: SOLUTION (10% IN CCl4 FOR 4000-1330, 10% IN CS2 FOR 1330-420 CM^-^1) VS. SOLVENT
Class: COBLENTZ III
Instrument: PERKIN-ELMER 180
Sampling: TRANSMISSION
Path length: 0.011, 0.011 CM
Resolution: 4
Origin: DOW CHEMICAL COMPANY
1/CM	TRANSMITTANCE
422.307	0.911
431.432	0.921
440.558	0.927
449.683	0.927
458.809	0.925
467.934	0.925
477.06	0.915
486.185	0.911
495.311	0.9
504.436	0.906
513.562	0.916
522.687	0.92
531.813	0.921
540.938	0.926
550.064	0.922
559.189	0.915
568.315	0.92
577.44	0.92
586.566	0.914
595.691	0.924
604.817	0.945
613.942	0.957
623.068	0.962
632.193	0.961
641.319	0.955
650.444	0.945
659.57	0.934
668.695	0.904
677.821	0.954
686.946	0.939
696.072	0.869
705.197	0.873
714.323	0.879
723.448	0.796
732.574	0.798
741.699	0.6812
750.825	0.426
759.95	0.627
769.076	0.741
778.201	0.791
787.327	0.811
796.452	0.8169
805.578	0.867
814.703	0.862
823.829	0.851
832.954	0.85
842.08	0.848
851.205	0.794
860.331	0.767
869.456	0.844
878.582	0.865
887.707	0.865
896.833	0.854
905.958	0.837
915.084	0.8
924.209	0.77
933.335	0.754
942.46	0.738
951.586	0.68
960.711	0.627
969.837	0.575
978.962	0.562
988.088	0.629
997.213	0.716
1006.34	0.784
1015.46	0.786
1024.59	0.773
1033.72	0.752
1042.84	0.735
1051.97	0.661
1061.09	0.3989
1070.22	0.3429
1079.34	0.609
1088.47	0.679
1097.59	0.535
1106.72	0.123
1115.84	0.125
1124.97	0.214
1134.1	0.306
1143.22	0.312
1152.35	0.4911
1161.47	0.6769
1170.6	0.744
1179.72	0.789
1188.85	0.773
1197.97	0.715
1207.1	0.606
1216.23	0.387
1225.35	0.047
1234.48	0.026
1243.6	0.057
1252.73	0.102
1261.85	0.111
1270.98	0.096
1280.1	0.078
1289.23	0.142
1298.35	0.121
1307.48	0.124
1316.61	0.309
1325.73	0.534
1334.86	0.638
1343.98	0.68
1353.11	0.682
1362.23	0.545
1371.36	0.485
1380.48	0.404
1389.61	0.612
1398.74	0.714
1407.86	0.666
1416.99	0.773
1426.11	0.753
1435.24	0.681
1444.36	0.5361
1453.49	0.309
1462.61	0.248
1471.74	0.503
1480.86	0.732
1489.99	0.715
1499.12	0.809
1508.24	0.836
1517.37	0.867
1526.49	0.871
1535.62	0.881
1544.74	0.875
1553.87	0.87
1562.99	0.854
1572.12	0.822
1581.25	0.864
1590.37	0.871
1599.5	0.86
1608.62	0.817
1617.75	0.865
1626.87	0.875
1636	0.87
1645.12	0.865
1654.25	0.858
1663.37	0.845
1672.5	0.814
1681.63	0.752
1690.75	0.71
1699.88	0.6169
1709	0.3391
1718.13	0.011
1727.25	0.007
1736.38	0.056
1745.5	0.295
1754.63	0.639
1763.75	0.762
1772.88	0.81
1782.01	0.841
1791.13	0.86
1800.26	0.871
1809.38	0.883
1818.51	0.887
1827.63	0.89
1836.76	0.898
1845.88	0.903
1855.01	0.906
1864.14	0.908
1873.26	0.915
1882.39	0.915
1891.51	0.914
1900.64	0.915
1909.76	0.918
1918.89	0.918
1928.01	0.914
1937.14	0.91
1946.26	0.911
1955.39	0.918
1964.52	0.922
1973.64	0.922
1982.77	0.925
1991.89	0.922
2001.02	0.92
2010.14	0.92
2019.27	0.92
2028.39	0.918
2037.52	0.9145
2046.65	0.915
2055.77	0.9165
2064.9	0.913
2074.02	0.9145
2083.15	0.916
2092.27	0.9165
2101.4	0.915
2110.52	0.917
2119.65	0.919
2128.77	0.919
2137.9	0.916
2147.03	0.92
2156.15	0.9201
2165.28	0.918
2174.4	0.918
2183.53	0.919
2192.65	0.919
2201.78	0.918
2210.9	0.919
2220.03	0.9154
2229.16	0.9172
2238.28	0.92
2247.41	0.92
2256.53	0.92
2265.66	0.92
2274.78	0.918
2283.91	0.921
2293.03	0.92
2302.16	0.9199
2311.28	0.9186
2320.41	0.9209
2329.54	0.921
2338.66	0.9139
2347.79	0.9146
2356.91	0.9171
2366.04	0.9134
2375.16	0.9091
2384.29	0.912
2393.41	0.914
2402.54	0.915
2411.67	0.915
2420.79	0.916
2429.92	0.9182
2439.04	0.9203
2448.17	0.922
2457.29	0.922
2466.42	0.9218
2475.54	0.92
2484.67	0.922
2493.79	0.922
2502.92	0.92
2512.05	0.919
2521.17	0.9158
2530.3	0.9133
2539.42	0.912
2548.55	0.912
2557.67	0.91
2566.8	0.908
2575.92	0.904
2585.05	0.9003
2594.18	0.9004
2603.3	0.9016
2612.43	0.9
2621.55	0.899
2630.68	0.9022
2639.8	0.9023
2648.93	0.9008
2658.05	0.8973
2667.18	0.896
2676.3	0.894
2685.43	0.8917
2694.56	0.8892
2703.68	0.8855
2712.81	0.8765
2721.93	0.8677
2731.06	0.8698
2740.18	0.8795
2749.31	0.8812
2758.43	0.8787
2767.56	0.877
2776.69	0.8707
2785.81	0.8588
2794.94	0.8409
2804.06	0.8142
2813.19	0.7875
2822.31	0.7369
2831.44	0.6421
2840.56	0.4247
2849.69	0.2601
2858.81	0.1959
2867.94	0.141
2877.07	0.2355
2886.19	0.2148
2895.32	0.1393
2904.44	0.091
2913.57	0.0579
2922.69	0.0373
2931.82	0.058
2940.94	0.0636
2950.07	0.015
2959.19	0.0256
2968.32	0.1096
2977.45	0.3668
2986.57	0.5763
2995.7	0.717
3004.82	0.7846
3013.95	0.8294
3023.07	0.8566
3032.2	0.8688
3041.32	0.8749
3050.45	0.8818
3059.58	0.889
3068.7	0.8854
3077.83	0.8957
3086.95	0.9028
3096.08	0.9099
3105.2	0.912
3114.33	0.9121
3123.45	0.913
3132.58	0.9139
3141.7	0.915
3150.83	0.915
3159.96	0.9144
3169.08	0.915
3178.21	0.9129
3187.33	0.9179
3196.46	0.9229
3205.58	0.928
3214.71	0.9305
3223.83	0.933
3232.96	0.9335
3242.09	0.935
3251.21	0.9365
3260.34	0.94
3269.46	0.9385
3278.59	0.938
3287.71	0.9395
3296.84	0.942
3305.96	0.941
3315.09	0.94
3324.21	0.9415
3333.34	0.942
3342.47	0.943
3351.59	0.943
3360.72	0.943
3369.84	0.943
3378.97	0.943
3388.09	0.942
3397.22	0.941
3406.34	0.9359
3415.47	0.9279
3424.6	0.9159
3433.72	0.913
3442.85	0.9211
3451.97	0.9295
3461.1	0.9371
3470.22	0.944
3479.35	0.947
3488.47	0.948
3497.6	0.951
3506.72	0.952
3515.85	0.953
3524.98	0.953
3534.1	0.953
3543.23	0.953
3552.35	0.954
3561.48	0.9556
3570.6	0.9623
3579.73	0.9654
3588.85	0.9519
3597.98	0.951
3607.11	0.9461
3616.23	0.9512
3625.36	0.953
3634.48	0.953
3643.61	0.9499
3652.73	0.949
3661.86	0.9489
3670.98	0.948
3680.11	0.948
3689.23	0.9503
3698.36	0.952
3707.49	0.9487
3716.61	0.9521
3725.74	0.951
3734.86	0.9521
3743.99	0.953
3753.11	0.953
3762.24	0.953
3771.36	0.952
3780.49	0.9537
3789.62	0.954
3798.74	0.9527
3807.87	0.9558
3816.99	0.953
3826.12	0.9538
3835.24	0.953
3844.37	0.953
3853.49	0.953
3862.62	0.953
3871.74	0.954
3880.87	0.953
3890	0.9537
3899.12	0.9538
3908.25	0.953
3917.37	0.9532
3926.5	0.953
3935.62	0.954
3944.75	0.954
3953.87	0.954
3963	0.9543
3972.13	0.954
3981.25	0.9535
3990.38	0.953
