Infrared Spectrum: Stearic acid hydrazide
Formula: C18 H38 N2 O
CAS: 4130-54-5
State: gas
Origin: EPA-IR VAPOR PHASE LIBRARY
1/CM	ABSORBANCE
549.8	0.002842
559.445	0.003502
569.09	0.002672
578.734	0.002802
588.379	0.002372
598.024	0.002232
607.669	0.002132
617.313	0.002242
626.958	0.002252
636.603	0.002122
646.248	0.002202
655.893	0.002162
665.537	0.001812
675.182	0.001912
684.827	0.001942
694.472	0.002042
704.116	0.002402
713.761	0.003142
723.406	0.003182
733.051	0.002722
742.695	0.002752
752.34	0.002312
761.985	0.002262
771.63	0.002302
781.275	0.002242
790.919	0.002282
800.564	0.002242
810.209	0.002462
819.854	0.002822
829.498	0.002842
839.143	0.003032
848.788	0.003012
858.433	0.003392
868.078	0.003682
877.722	0.004102
887.367	0.004262
897.012	0.004412
906.657	0.004652
916.301	0.004272
925.946	0.004242
935.591	0.004162
945.236	0.004202
954.88	0.004432
964.525	0.004562
974.17	0.004972
983.815	0.004842
993.46	0.004272
1003.1	0.003522
1012.75	0.002822
1022.39	0.002762
1032.04	0.002622
1041.68	0.002162
1051.33	0.002142
1060.97	0.001542
1070.62	0.002222
1080.26	0.002082
1089.91	0.002062
1099.55	0.002182
1109.2	0.002152
1118.84	0.002332
1128.49	0.002062
1138.13	0.001582
1147.78	0.001572
1157.42	0.001662
1167.07	0.002472
1176.71	0.002662
1186.36	0.003592
1196	0.004262
1205.64	0.005252
1215.29	0.005622
1224.93	0.006392
1234.58	0.006992
1244.22	0.006732
1253.87	0.006542
1263.51	0.006042
1273.16	0.005652
1282.8	0.005082
1292.45	0.004722
1302.09	0.004292
1311.74	0.004042
1321.38	0.003772
1331.03	0.003802
1340.67	0.004532
1350.32	0.005362
1359.96	0.005112
1369.61	0.004292
1379.25	0.003522
1388.9	0.003252
1398.54	0.003332
1408.18	0.004292
1417.83	0.006542
1427.47	0.010892
1437.12	0.016772
1446.76	0.021722
1456.41	0.023012
1466.05	0.019502
1475.7	0.012152
1485.34	0.007422
1494.99	0.004912
1504.63	0.003432
1514.28	0.002672
1523.92	0.002142
1533.57	0.001762
1543.21	0.001492
1552.86	0.001372
1562.5	0.001392
1572.15	0.001352
1581.79	0.001492
1591.44	0.001802
1601.08	0.002422
1610.73	0.003362
1620.37	0.004982
1630.01	0.006752
1639.66	0.006942
1649.3	0.005572
1658.95	0.004462
1668.59	0.004642
1678.24	0.006522
1687.88	0.010652
1697.53	0.017262
1707.17	0.025502
1716.82	0.024952
1726.46	0.016032
1736.11	0.009022
1745.75	0.004552
1755.4	0.002422
1765.04	0.001462
1774.69	0.0011193
1784.33	0.0007524
1793.98	0.0006254
1803.62	0.0005849
1813.27	0.0004794
1822.91	0.0004565
1832.55	0.0003824
1842.2	0.0003638
1851.84	0.00023216
1861.49	0.0003581
1871.13	0.0003528
1880.78	0.0003236
1890.42	0.0002856
1900.07	0.0003134
1909.71	0.0003038
1919.36	0.0003456
1929	0.0002653
1938.65	0.00022025
1948.29	0.00020853
1957.94	0.00022982
1967.58	0.00018791
1977.23	0.00019871
1986.87	0.00020791
1996.52	0.0002604
2006.16	0.00021429
2015.81	0.000317
2025.45	0.000311
2035.1	0.000287
2044.74	0.0003055
2054.38	0.0003177
2064.03	0.00020811
2073.67	0.0002505
2083.32	0.00017462
2092.96	0.00022902
2102.61	0.00017593
2112.25	0.000185
2121.9	0.00017923
2131.54	0.00018934
2141.19	7.87e-05
2150.83	0.0001297
2160.48	0.0001736
2170.12	6.68e-05
2179.77	0.00016008
2189.41	8.41e-05
2199.06	0.000108
2208.7	0.0001544
2218.35	0.00018587
2227.99	0.00013429
2237.64	0.00017029
2247.28	0.000150689
2256.92	0.00013858
2266.57	0.00015816
2276.21	8.75e-05
2285.86	8.08e-05
2295.5	0.00016718
2305.15	5.59e-05
2314.79	0.00015878
2324.44	0.0001075
2334.08	7.03e-05
2343.73	6.61e-05
2353.37	0.0001219
2363.02	0.0001366
2372.66	0.00016001
2382.31	6.79e-05
2391.95	0.0001156
2401.6	6.58e-05
2411.24	4.4e-05
2420.89	0.00017302
2430.53	9.15e-05
2440.18	4.42e-05
2449.82	6.9e-05
2459.47	7.2e-05
2469.11	0
2478.75	0.0001195
2488.4	0.00019439
2498.04	2.8e-05
2507.69	0.0002515
2517.33	0.00019539
2526.98	0.00016205
2536.62	0.000256
2546.27	0.00023177
2555.91	0.00022802
2565.56	0.0003442
2575.2	0.0002849
2584.85	0.0002592
2594.49	0.0003201
2604.14	0.0004178
2613.78	0.0004699
2623.43	0.000563
2633.07	0.0006364
2642.72	0.0007282
2652.36	0.0008105
2662.01	0.0008214
2671.65	0.0008874
2681.29	0.0010006
2690.94	0.0010324
2700.58	0.0008778
2710.23	0.0008715
2719.87	0.0008492
2729.52	0.001009
2739.16	0.0009715
2748.81	0.0011215
2758.45	0.0011247
2768.1	0.001312
2777.74	0.001602
2787.39	0.002002
2797.03	0.002382
2806.68	0.002912
2816.32	0.003762
2825.97	0.005152
2835.61	0.007322
2845.26	0.013232
2854.9	0.031112
2864.55	0.044932
2874.19	0.029952
2883.84	0.022132
2893.48	0.021572
2903.12	0.029922
2912.77	0.047432
2922.41	0.082432
2932.06	0.123772
2941.7	0.088722
2951.35	0.047622
2960.99	0.031592
2970.64	0.023532
2980.28	0.012722
2989.93	0.007392
2999.57	0.004892
3009.22	0.003552
3018.86	0.002532
3028.51	0.002092
3038.15	0.001792
3047.8	0.001432
3057.44	0.001262
3067.09	0.001172
3076.73	0.0009113
3086.38	0.0007422
3096.02	0.0006852
3105.67	0.0005781
3115.31	0.000562
3124.95	0.0004773
3134.6	0.00041
3144.24	0.0002961
3153.89	0.0004937
3163.53	0.0005706
3173.18	0.0004206
3182.82	0.0004914
3192.47	0.0005474
3202.11	0.0005609
3211.76	0.0005499
3221.4	0.0004573
3231.05	0.0004652
3240.69	0.0003751
3250.34	0.0004783
3259.98	0.000259
3269.63	0.0003976
3279.27	0.0003775
3288.92	0.0003222
3298.56	0.0004374
3308.21	0.0003321
3317.85	0.0003975
3327.49	0.0004581
3337.14	0.0005551
3346.78	0.0004569
3356.43	0.0005275
3366.07	0.0004624
3375.72	0.0006088
3385.36	0.0005375
3395.01	0.0007179
3404.65	0.000873
3414.3	0.0009618
3423.94	0.0009951
3433.59	0.001652
3443.23	0.002392
3452.88	0.003362
3462.52	0.003912
3472.17	0.003952
3481.81	0.002822
3491.46	0.001862
3501.1	0.001242
3510.75	0.001049
3520.39	0.0005017
3530.04	0.0002566
3539.68	0.0006452
3549.32	0.0003526
3558.97	0.0002961
3568.61	0.0004322
3578.26	0.0004983
3587.9	0.0005885
3597.55	0.0004562
3607.19	0.0006121
3616.84	0.000343
3626.48	0.0004282
3636.13	0.0002904
3645.77	0.0004956
3655.42	0.000403
3665.06	0.0004582
3674.71	0.0006298
3684.35	0.000412
3694	0.0002694
3703.64	0.0005604
3713.29	0.0004667
3722.93	0.0002762
3732.58	0.0004048
3742.22	0.0004562
3751.86	0.0004696
3761.51	0.0004079
3771.15	0.0005441
3780.8	0.0003662
3790.44	0.0002797
3800.09	0.0005519
3809.73	0.0002628
3819.38	0.0005782
3829.02	0.0005978
3838.67	0.000404
3848.31	0.0004168
3857.96	0.0005827
3867.6	0.0004206
3877.25	0.0003286
3886.89	0.0004585
3896.54	0.0008069
3906.18	0.000358
3915.83	0.0004365
3925.47	0.0005963
3935.12	0.0004829
3944.76	0.0004993
3954.41	0.000428
3964.05	0.000627
3973.69	0.0004666
3983.34	0.0005773
3992.98	0.0004924
