Infrared Spectrum: p-Cyanobenzylidene p-octyloxyaniline
Formula: C 22 H 26 N 2 O
CAS: 41335-35-7
State: gas
Origin: EPA-IR VAPOR PHASE LIBRARY
1/CM	ABSORBANCE
549.8	0.003162
559.445	0.002782
569.09	0.001472
578.734	0.001122
588.379	0.0009117
598.024	0.0007684
607.669	0.0005351
617.313	0.000399
626.958	0.0005222
636.603	0.00012438
646.248	0.0003123
655.893	0.0003282
665.537	0.0002902
675.182	0.0002266
684.827	0.0003021
694.472	0.0005132
704.116	0.0008386
713.761	0.0009012
723.406	0.0009639
733.051	0.0009929
742.695	0.0009208
752.34	0.000875
761.985	0.0010251
771.63	0.001312
781.275	0.001412
790.919	0.001612
800.564	0.002002
810.209	0.001962
819.854	0.003282
829.498	0.005792
839.143	0.006482
848.788	0.004232
858.433	0.002372
868.078	0.001982
877.722	0.002512
887.367	0.001892
897.012	0.001362
906.657	0.001172
916.301	0.0010564
925.946	0.001142
935.591	0.001162
945.236	0.001372
954.88	0.001482
964.525	0.002012
974.17	0.002162
983.815	0.002342
993.46	0.002382
1003.1	0.002692
1012.75	0.003472
1022.39	0.004362
1032.04	0.004712
1041.68	0.004242
1051.33	0.003472
1060.97	0.002622
1070.62	0.001882
1080.26	0.001742
1089.91	0.001612
1099.55	0.001762
1109.2	0.001632
1118.84	0.001112
1128.49	0.0010465
1138.13	0.001132
1147.78	0.001302
1157.42	0.003632
1167.07	0.003982
1176.71	0.002712
1186.36	0.005622
1196	0.004412
1205.64	0.004902
1215.29	0.007402
1224.93	0.013822
1234.58	0.021282
1244.22	0.021872
1253.87	0.011742
1263.51	0.006882
1273.16	0.007312
1282.8	0.007962
1292.45	0.006242
1302.09	0.005262
1311.74	0.003552
1321.38	0.002152
1331.03	0.001772
1340.67	0.001752
1350.32	0.001932
1359.96	0.002342
1369.61	0.002002
1379.25	0.002312
1388.9	0.002652
1398.54	0.001762
1408.18	0.001572
1417.83	0.001392
1427.47	0.001302
1437.12	0.001632
1446.76	0.002262
1456.41	0.003222
1466.05	0.004502
1475.7	0.006572
1485.34	0.005022
1494.99	0.013362
1504.63	0.023902
1514.28	0.006882
1523.92	0.002552
1533.57	0.001712
1543.21	0.001462
1552.86	0.001592
1562.5	0.002182
1572.15	0.002722
1581.79	0.003122
1591.44	0.004612
1601.08	0.003912
1610.73	0.002612
1620.37	0.004812
1630.01	0.007982
1639.66	0.003212
1649.3	0.001842
1658.95	0.001292
1668.59	0.0010462
1678.24	0.0008993
1687.88	0.0007882
1697.53	0.0007055
1707.17	0.0006352
1716.82	0.0005988
1726.46	0.0005877
1736.11	0.0006375
1745.75	0.0006549
1755.4	0.0005213
1765.04	0.0005085
1774.69	0.000519
1784.33	0.0005571
1793.98	0.0005678
1803.62	0.0006463
1813.27	0.0005133
1822.91	0.0004994
1832.55	0.0004525
1842.2	0.0005076
1851.84	0.0005417
1861.49	0.0005359
1871.13	0.0006766
1880.78	0.0006096
1890.42	0.0006841
1900.07	0.0006344
1909.71	0.000748
1919.36	0.0006488
1929	0.000633
1938.65	0.0005972
1948.29	0.0005483
1957.94	0.0005375
1967.58	0.0005598
1977.23	0.0006022
1986.87	0.0005552
1996.52	0.0005719
2006.16	0.0005779
2015.81	0.0006217
2025.45	0.0005837
2035.1	0.0005096
2044.74	0.0005204
2054.38	0.0005173
2064.03	0.0005945
2073.67	0.0005269
2083.32	0.0005696
2092.96	0.0004656
2102.61	0.0004018
2112.25	0.0004018
2121.9	0.0003634
2131.54	0.0003914
2141.19	0.0003674
2150.83	0.0003678
2160.48	0.0003502
2170.12	0.00039
2179.77	0.0003659
2189.41	0.0003381
2199.06	0.0003683
2208.7	0.0005424
2218.35	0.0006482
2227.99	0.001992
2237.64	0.001432
2247.28	0.0005938
2256.92	0.0005117
2266.57	0.0003531
2276.21	0.0003844
2285.86	0.0004381
2295.5	0.00044
2305.15	0.0004202
2314.79	0.0004463
2324.44	0.0003984
2334.08	0.000475
2343.73	0.0004961
2353.37	0.0004447
2363.02	0.0003931
2372.66	0.0004869
2382.31	0.000396
2391.95	0.0005383
2401.6	0.0004046
2411.24	0.0004774
2420.89	0.0005117
2430.53	0.0004749
2440.18	0.0004764
2449.82	0.0005764
2459.47	0.0004659
2469.11	0.0005619
2478.75	0.0005285
2488.4	0.0005163
2498.04	0.0004821
2507.69	0.0004854
2517.33	0.0005937
2526.98	0.0006768
2536.62	0.0005862
2546.27	0.0004759
2555.91	0.0005091
2565.56	0.0005293
2575.2	0.0004566
2584.85	0.0004798
2594.49	0.0005492
2604.14	0.0005633
2613.78	0.0004412
2623.43	0.0005232
2633.07	0.0004778
2642.72	0.0003134
2652.36	0.0005081
2662.01	0.0004836
2671.65	0.0005986
2681.29	0.000548
2690.94	0.0005884
2700.58	0.0005722
2710.23	0.0005602
2719.87	0.0007355
2729.52	0.0005776
2739.16	0.0007334
2748.81	0.0008655
2758.45	0.0007647
2768.1	0.0007703
2777.74	0.0006849
2787.39	0.0008007
2797.03	0.0009221
2806.68	0.0009124
2816.32	0.001252
2825.97	0.001562
2835.61	0.002022
2845.26	0.003032
2854.9	0.005412
2864.55	0.008252
2874.19	0.008402
2883.84	0.007672
2893.48	0.006472
2903.12	0.006762
2912.77	0.009252
2922.41	0.012992
2932.06	0.017782
2941.7	0.016682
2951.35	0.012722
2960.99	0.010422
2970.64	0.008962
2980.28	0.004872
2989.93	0.002912
2999.57	0.002042
3009.22	0.001642
3018.86	0.001372
3028.51	0.001512
3038.15	0.002362
3047.8	0.002082
3057.44	0.001422
3067.09	0.001502
3076.73	0.001902
3086.38	0.001492
3096.02	0.001562
3105.67	0.001162
3115.31	0.0009569
3124.95	0.0007631
3134.6	0.0004926
3144.24	0.0005832
3153.89	0.0006277
3163.53	0.0004403
3173.18	0.0005782
3182.82	0.0004613
3192.47	0.0003206
3202.11	0.0005326
3211.76	0.0006338
3221.4	0.0005369
3231.05	0.0004773
3240.69	0.0003344
3250.34	0.0002576
3259.98	0.0003678
3269.63	0.00031
3279.27	0.0002143
3288.92	0.0001719
3298.56	0.0002382
3308.21	0.000238
3317.85	0.0003714
3327.49	0.0003479
3337.14	0.0002785
3346.78	0.0005286
3356.43	0.0001879
3366.07	0.0002502
3375.72	0.0002562
3385.36	0.0003993
3395.01	0.0001656
3404.65	0.0003409
3414.3	0.0003683
3423.94	0.000357
3433.59	0.0001904
3443.23	0.0002182
3452.88	0.0002265
3462.52	6.9971e-05
3472.17	0
3481.81	0.0003167
3491.46	0.00015036
3501.1	0.000225
3510.75	0.0002461
3520.39	0.0002664
3530.04	0.0003849
3539.68	0.0002238
3549.32	0.0003729
3558.97	0.0002475
3568.61	0.0003605
3578.26	0.0003611
3587.9	0.0003163
3597.55	0.0002193
3607.19	0.0003211
3616.84	0.0001519
3626.48	0.000356
3636.13	0.0002527
3645.77	0.0002848
3655.42	0.0002383
3665.06	0.0002488
3674.71	0.000291
3684.35	0.0004409
3694	0.0003117
3703.64	0.0001806
3713.29	0.0003116
3722.93	0.0003272
3732.58	0.0002083
3742.22	0.000276
3751.86	0.00011664
3761.51	0.0003267
3771.15	0.0002002
3780.8	0.0002741
3790.44	8.595e-05
3800.09	0.0001652
3809.73	0.0002322
3819.38	0.0002596
3829.02	0.0003124
3838.67	0.0003888
3848.31	0.0003651
3857.96	0.00024
3867.6	0.0003928
3877.25	0.0001949
3886.89	0.0003083
3896.54	0.0002583
3906.18	0.0002813
3915.83	0.0004135
3925.47	0.00012352
3935.12	6.5219e-05
3944.76	0.0003488
3954.41	0.0002529
3964.05	0.0002764
3973.69	0.0003961
3983.34	0.0003359
3992.98	0.0003631
