Infrared Spectrum: 3Beta,17Beta-DIACETOXYANDROST-5-ENE
Formula: C23 H34 O4
CAS: 4136-03-2
State: SOLID (KBr DISC)
Class: COBLENTZ III
Instrument: BECKMAN IR-7
Sampling: TRANSMISSION
Resolution: 4
Origin: THE WORCESTER FOUNDATION FOR EXPERIMENTAL BIOLOGY
1/CM	TRANSMITTANCE
595.645	0.623
604.354	0.546
613.063	0.53
621.773	0.527
630.482	0.532
639.191	0.677
647.9	0.733
656.609	0.723
665.318	0.749
674.028	0.701
682.737	0.845
691.446	0.886
700.155	0.87
708.864	0.933
717.574	0.947
726.283	0.925
734.992	0.924
743.701	0.955
752.41	0.977
761.119	0.973
769.829	0.968
778.538	0.951
787.247	0.925
795.956	0.8161
804.665	0.887
813.375	0.885
822.084	0.803
830.793	0.815
839.502	0.7481
848.211	0.8639
856.92	0.917
865.63	0.914
874.339	0.877
883.048	0.7509
891.757	0.721
900.466	0.752
909.176	0.827
917.885	0.81
926.594	0.865
935.303	0.831
944.012	0.758
952.721	0.724
961.431	0.674
970.14	0.755
978.849	0.655
987.558	0.706
996.267	0.633
1004.98	0.544
1013.69	0.515
1022.39	0.3971
1031.1	0.277
1039.81	0.265
1048.52	0.272
1057.23	0.5219
1065.94	0.668
1074.65	0.658
1083.36	0.723
1092.07	0.731
1100.78	0.769
1109.49	0.754
1118.2	0.687
1126.91	0.713
1135.61	0.601
1144.32	0.745
1153.03	0.733
1161.74	0.726
1170.45	0.713
1179.16	0.671
1187.87	0.625
1196.58	0.534
1205.29	0.448
1214	0.31
1222.71	0.27
1231.42	0.19
1240.12	0.159
1248.83	0.144
1257.54	0.209
1266.25	0.361
1274.96	0.506
1283.67	0.575
1292.38	0.652
1301.09	0.698
1309.8	0.734
1318.51	0.718
1327.22	0.736
1335.93	0.717
1344.63	0.694
1353.34	0.652
1362.05	0.4671
1370.76	0.352
1379.47	0.329
1388.18	0.47
1396.89	0.575
1405.6	0.656
1414.31	0.652
1423.02	0.536
1431.73	0.537
1440.44	0.52
1449.14	0.522
1457.85	0.5849
1466.56	0.556
1475.27	0.658
1483.98	0.754
1492.69	0.792
1501.4	0.793
1510.11	0.798
1518.82	0.797
1527.53	0.807
1536.24	0.805
1544.95	0.798
1553.65	0.801
1562.36	0.801
1571.07	0.806
1579.78	0.813
1588.49	0.823
1597.2	0.832
1605.91	0.83
1614.62	0.822
1623.33	0.806
1632.04	0.788
1640.75	0.774
1649.46	0.757
1658.17	0.742
1666.87	0.692
1675.58	0.718
1684.29	0.7
1693	0.64
1701.71	0.637
1710.42	0.56
1719.13	0.4
1727.84	0.175
1736.55	0.215
1745.26	0.363
1753.97	0.519
1762.68	0.615
1771.38	0.664
1780.09	0.676
1788.8	0.668
1797.51	0.694
1806.22	0.738
1814.93	0.769
1823.64	0.779
1832.35	0.798
1841.06	0.798
1849.77	0.81
1858.48	0.809
1867.19	0.809
1875.89	0.822
1884.6	0.827
1893.31	0.83
1902.02	0.83
1910.73	0.83
1919.44	0.829
1928.15	0.826
1936.86	0.821
1945.57	0.813
1954.28	0.812
1962.99	0.814
1971.7	0.822
1980.4	0.822
1989.11	0.822
1997.82	0.822
2006.53	0.822
2015.24	0.822
2023.95	0.822
2032.66	0.822
2041.37	0.822
2050.08	0.822
2058.79	0.822
2067.5	0.822
2076.21	0.822
2084.92	0.822
2093.62	0.822
2102.33	0.822
2111.04	0.822
2119.75	0.822
2128.46	0.822
2137.17	0.822
2145.88	0.822
2154.59	0.822
2163.3	0.822
2172.01	0.822
2180.72	0.8207
2189.43	0.8188
2198.13	0.816
2206.84	0.8132
2215.55	0.8064
2224.26	0.8003
2232.97	0.7976
2241.68	0.7956
2250.39	0.7945
2259.1	0.793
2267.81	0.7914
2276.52	0.7874
2285.23	0.7844
2293.94	0.783
2302.64	0.7803
2311.35	0.779
2320.06	0.7772
2328.77	0.7751
2337.48	0.7712
2346.19	0.7534
2354.9	0.749
2363.61	0.7521
2372.32	0.7612
2381.03	0.7651
2389.74	0.7672
2398.45	0.769
2407.15	0.769
2415.86	0.771
2424.57	0.7713
2433.28	0.7716
2441.99	0.7696
2450.7	0.7685
2459.41	0.7665
2468.12	0.7609
2476.83	0.7554
2485.54	0.753
2494.25	0.751
2502.96	0.7527
2511.66	0.7548
2520.37	0.758
2529.08	0.758
2537.79	0.7589
2546.5	0.7581
2555.21	0.758
2563.92	0.756
2572.63	0.7549
2581.34	0.7509
2590.05	0.748
2598.76	0.745
2607.47	0.7428
2616.18	0.741
2624.88	0.74
2633.59	0.7386
2642.3	0.737
2651.01	0.734
2659.72	0.7335
2668.43	0.732
2677.14	0.7304
2685.85	0.729
2694.56	0.7263
2703.27	0.725
2711.98	0.724
2720.69	0.724
2729.39	0.724
2738.1	0.725
2746.81	0.726
2755.52	0.726
2764.23	0.724
2772.94	0.72
2781.65	0.7169
2790.36	0.7128
2799.07	0.7012
2807.78	0.6881
2816.49	0.5646
2825.2	0.4914
2833.9	0.5283
2842.61	0.509
2851.32	0.4524
2860.03	0.414
2868.74	0.4619
2877.45	0.3471
2886.16	0.3228
2894.87	0.3524
2903.58	0.3926
2912.29	0.419
2921	0.3652
2929.71	0.3247
2938.41	0.2948
2947.12	0.282
2955.83	0.342
2964.54	0.2809
2973.25	0.3216
2981.96	0.382
2990.67	0.499
2999.38	0.5807
3008.09	0.596
3016.8	0.6251
3025.51	0.6383
3034.22	0.6437
3042.92	0.6491
3051.63	0.6612
3060.34	0.6733
3069.05	0.6825
3077.76	0.689
3086.47	0.691
3095.18	0.692
3103.89	0.692
3112.6	0.6913
3121.31	0.691
3130.02	0.692
3138.73	0.693
3147.44	0.693
3156.14	0.694
3164.85	0.694
3173.56	0.694
3182.27	0.694
3190.98	0.694
3199.69	0.694
3208.4	0.6942
3217.11	0.695
3225.82	0.696
3234.53	0.697
3243.24	0.697
3251.95	0.697
3260.65	0.697
3269.36	0.697
3278.07	0.697
3286.78	0.697
3295.49	0.697
3304.2	0.696
3312.91	0.696
3321.62	0.695
3330.33	0.694
3339.04	0.694
3347.75	0.693
3356.46	0.6921
3365.16	0.692
3373.87	0.692
3382.58	0.691
3391.29	0.69
3400	0.689
3408.71	0.688
3417.42	0.687
3426.13	0.683
3434.84	0.6692
3443.55	0.6533
3452.26	0.6605
3460.97	0.6743
3469.67	0.6865
3478.38	0.689
3487.09	0.6925
3495.8	0.694
3504.51	0.6946
3513.22	0.696
3521.93	0.697
3530.64	0.6978
3539.35	0.699
3548.06	0.7
3556.77	0.7009
3565.48	0.702
3574.19	0.702
3582.89	0.704
3591.6	0.705
3600.31	0.705
3609.02	0.706
3617.73	0.7072
3626.44	0.708
3635.15	0.708
3643.86	0.709
3652.57	0.709
3661.28	0.71
3669.99	0.71
3678.7	0.71
3687.4	0.71
3696.11	0.709
3704.82	0.709
3713.53	0.7083
3722.24	0.708
3730.95	0.708
3739.66	0.708
3748.37	0.708
3757.08	0.708
3765.79	0.7071
3774.5	0.707
3783.21	0.706
3791.91	0.705
3800.62	0.705
3809.33	0.705
3818.04	0.704
3826.75	0.703
3835.46	0.703
3844.17	0.702
3852.88	0.702
3861.59	0.702
3870.3	0.702
3879.01	0.701
3887.72	0.7005
3896.42	0.7
3905.13	0.7
3913.84	0.699
3922.55	0.6983
3931.26	0.698
3939.97	0.697
3948.68	0.697
3957.39	0.697
3966.1	0.697
3974.81	0.697
3983.52	0.696
