Infrared Spectrum: PROPIONALDEHYDE, 3-AMINO-, DIETHYL ACETAL
Formula: C7 H17 N O2
CAS: 41365-75-7
State: LIQUID (NEAT)
Class: COBLENTZ III
Instrument: CARY 90 (GRATING)
Instrument parameters: ORDER CHANGES: 3000, 2000, 1200 CM^-^1
Sampling: TRANSMISSION
Path length: 0.0029 CM
Resolution: 2
Origin: WESTERN REGIONAL RES. USDA
1/CM	TRANSMITTANCE
4004	0.8975
3995	0.899
3986	0.9008
3977	0.9025
3968	0.9053
3959	0.9086
3950	0.9125
3941	0.9165
3932	0.9207
3923	0.925
3914	0.9277
3905	0.9298
3896	0.9311
3887	0.9315
3878	0.9318
3869	0.9314
3860	0.9299
3851	0.9278
3842	0.9256
3833	0.9228
3824	0.9202
3815	0.9175
3806	0.9148
3797	0.913
3788	0.9118
3779	0.9105
3770	0.9104
3761	0.9106
3752	0.9108
3743	0.9109
3734	0.9111
3725	0.9108
3716	0.91
3707	0.9081
3698	0.8989
3689	0.8862
3680	0.8832
3671	0.8818
3662	0.8802
3653	0.8765
3644	0.864
3635	0.8495
3626	0.83
3617	0.8105
3608	0.7925
3599	0.7756
3590	0.7633
3581	0.7597
3572	0.7584
3563	0.7596
3554	0.7618
3545	0.7648
3536	0.7656
3527	0.7653
3518	0.7635
3509	0.7603
3500	0.7518
3491	0.7444
3482	0.7368
3473	0.7307
3464	0.7247
3455	0.7165
3446	0.7082
3437	0.6942
3428	0.6758
3419	0.6505
3410	0.6151
3401	0.5185
3392	0.4199
3383	0.3884
3374	0.3839
3365	0.4354
3356	0.5138
3347	0.5423
3338	0.5401
3329	0.5228
3320	0.4868
3311	0.4735
3302	0.4775
3293	0.4923
3284	0.5105
3275	0.5275
3266	0.5451
3257	0.5622
3248	0.5774
3239	0.5886
3230	0.5929
3221	0.5944
3212	0.5959
3203	0.5977
3194	0.5996
3185	0.6085
3176	0.624
3167	0.6399
3158	0.6571
3149	0.6719
3140	0.6801
3131	0.6874
3122	0.6937
3113	0.6975
3104	0.6994
3095	0.7011
3086	0.7006
3077	0.6971
3068	0.6896
3059	0.6795
3050	0.6628
3041	0.6392
3032	0.6074
3023	0.5534
3014	0.4641
3005	0.349
2996	0.2299
2987	0.0871
2978	0.0052
2969	0.0057
2960	0.0074
2951	0.0077
2942	0.0061
2933	0.0051
2924	0.0048
2915	0.0065
2906	0.0072
2897	0.0073
2888	0.0069
2879	0.0066
2870	0.0073
2861	0.0128
2852	0.0299
2843	0.0786
2834	0.1324
2825	0.2156
2816	0.3227
2807	0.3826
2798	0.4231
2789	0.4525
2780	0.4912
2771	0.4994
2762	0.4839
2753	0.5179
2744	0.5436
2735	0.5729
2726	0.609
2717	0.6461
2708	0.6726
2699	0.6905
2690	0.6971
2681	0.6984
2672	0.7011
2663	0.7101
2654	0.7231
2645	0.7425
2636	0.7564
2627	0.7587
2618	0.7671
2609	0.7832
2600	0.8043
2591	0.8218
2582	0.838
2573	0.8442
2564	0.847
2555	0.8493
2546	0.8506
2537	0.8518
2528	0.8532
2519	0.8551
2510	0.8571
2501	0.8582
2492	0.8585
2483	0.8588
2474	0.8588
2465	0.8589
2456	0.8585
2447	0.8571
2438	0.8558
2429	0.8545
2420	0.8577
2411	0.8575
2402	0.8632
2393	0.8688
2384	0.8749
2375	0.8801
2366	0.8832
2357	0.8839
2348	0.8843
2339	0.8839
2330	0.8836
2321	0.8832
2312	0.8825
2303	0.8817
2294	0.8811
2285	0.8794
2276	0.8738
2267	0.8582
2258	0.8542
2249	0.8535
2240	0.8548
2231	0.8562
2222	0.8563
2213	0.8542
2204	0.851
2195	0.846
2186	0.8409
2177	0.84
2168	0.8405
2159	0.8409
2150	0.8401
2141	0.8363
2132	0.8268
2123	0.8171
2114	0.8101
2105	0.8074
2096	0.818
2087	0.8292
2078	0.8375
2069	0.8405
2060	0.8395
2051	0.8366
2042	0.8321
2033	0.826
2024	0.8183
2015	0.8121
2006	0.8076
1997	0.8687
1988	0.853
1979	0.8423
1970	0.8311
1961	0.8242
1952	0.8223
1943	0.8278
1934	0.8344
1925	0.8411
1916	0.848
1907	0.8507
1898	0.8528
1889	0.8557
1880	0.8586
1871	0.866
1862	0.8775
1853	0.8827
1844	0.8831
1835	0.8828
1826	0.883
1817	0.8837
1808	0.8846
1799	0.8843
1790	0.8835
1781	0.8831
1772	0.8831
1763	0.8827
1754	0.8821
1745	0.8803
1736	0.8781
1727	0.8736
1718	0.8575
1709	0.839
1700	0.8178
1691	0.7907
1682	0.7681
1673	0.7397
1664	0.7004
1655	0.651
1646	0.5986
1637	0.5659
1628	0.516
1619	0.4829
1610	0.4564
1601	0.4501
1592	0.4664
1583	0.5285
1574	0.5767
1565	0.6194
1556	0.6606
1547	0.6869
1538	0.7068
1529	0.7175
1520	0.7201
1511	0.7136
1502	0.6905
1493	0.6071
1484	0.4123
1475	0.376
1466	0.3592
1457	0.1818
1448	0.1319
1439	0.2026
1430	0.4691
1421	0.5128
1412	0.464
1403	0.2797
1394	0.1368
1385	0.0899
1376	0.026
1367	0.2163
1358	0.2146
1349	0.1119
1340	0.1319
1331	0.3162
1322	0.4523
1313	0.4624
1304	0.4101
1295	0.3766
1286	0.4309
1277	0.4336
1268	0.4485
1259	0.4922
1250	0.5088
1241	0.4644
1232	0.4066
1223	0.3441
1214	0.3349
1205	0.3466
1196	0.296
1187	0.1895
1178	0.1096
1169	0.0504
1160	0.0243
1151	0.0138
1142	0.0045
1133	0.0004
1124	0.0009
1115	0.0023
1106	0.004
1097	0.0065
1088	0.004
1079	0.0024
1070	0.0011
1061	0.0004
1052	0.0006
1043	0.0029
1034	0.0105
1025	0.0297
1016	0.0423
1007	0.0356
998	0.0362
989	0.0458
980	0.0451
971	0.0502
962	0.1042
953	0.1604
944	0.2173
935	0.2688
926	0.2961
917	0.2963
908	0.277
899	0.2547
890	0.2267
881	0.2078
872	0.2028
863	0.1964
854	0.1884
845	0.1693
836	0.1625
827	0.151
818	0.1259
809	0.1168
800	0.1335
791	0.1924
782	0.2904
773	0.3588
764	0.4048
755	0.4099
746	0.4334
737	0.5288
728	0.578
719	0.6048
710	0.6227
701	0.6326
692	0.6321
683	0.6281
674	0.6208
665	0.617
656	0.6144
647	0.6187
638	0.621
629	0.6162
620	0.6089
611	0.5947
602	0.5768
593	0.5636
584	0.5312
575	0.5073
566	0.4596
557	0.456
548	0.4964
539	0.5057
530	0.5024
521	0.4781
512	0.4539
503	0.4485
494	0.4329
485	0.4191
476	0.3872
467	0.3666
458	0.3296
