Infrared Spectrum: Nipecotamide
Formula: C6 H12 N2 O
CAS: 4138-26-5
State: SOLID (SPLIT MULL)
Class: COBLENTZ II
Instrument: BECKMAN IR-9 (GRATING)
Instrument parameters: ORDER CHANGES: 670, 1200, 2000 CM^-^1
Sampling: TRANSMISSION
Resolution: 2
Origin: DOW CHEMICAL COMPANY
1/CM	TRANSMITTANCE
3786	0.5739
3777	0.5767
3768	0.58
3759	0.5833
3750	0.5869
3741	0.5916
3732	0.5959
3723	0.5998
3714	0.6038
3705	0.607
3696	0.6098
3687	0.6127
3678	0.616
3669	0.6192
3660	0.6225
3651	0.6245
3642	0.6265
3633	0.6285
3624	0.6309
3615	0.6339
3606	0.6364
3597	0.637
3588	0.6364
3579	0.6381
3570	0.641
3561	0.6421
3552	0.6435
3543	0.6438
3534	0.6441
3525	0.6441
3516	0.6442
3507	0.6442
3498	0.6443
3489	0.6443
3480	0.6444
3471	0.6438
3462	0.6424
3453	0.6396
3444	0.6342
3435	0.6276
3426	0.619
3417	0.6039
3408	0.5749
3399	0.5272
3390	0.4969
3381	0.4579
3372	0.4192
3363	0.3732
3354	0.3318
3345	0.2958
3336	0.2585
3327	0.2085
3318	0.1528
3309	0.0965
3300	0.0273
3291	0.043
3282	0.0663
3273	0.0689
3264	0.073
3255	0.0816
3246	0.0859
3237	0.0862
3228	0.0865
3219	0.0862
3210	0.086
3201	0.0872
3192	0.0895
3183	0.0939
3174	0.0997
3165	0.1086
3156	0.118
3147	0.1257
3138	0.1273
3129	0.1277
3120	0.1275
3111	0.1273
3102	0.1283
3093	0.1313
3084	0.1363
3075	0.1442
3066	0.1596
3057	0.1799
3048	0.202
3039	0.2242
3030	0.2464
3021	0.2685
3012	0.2908
3003	0.313
2994	0.3352
2985	0.3574
2976	0.3659
2967	0.3516
2958	0.2562
2949	0.1819
2940	0.0668
2931	0.0872
2922	0.1512
2913	0.1618
2904	0.1759
2895	0.2406
2886	0.3056
2877	0.3387
2868	0.3096
2859	0.2671
2850	0.262
2841	0.2343
2832	0.1356
2823	0.1241
2814	0.1579
2805	0.1965
2796	0.2401
2787	0.2755
2778	0.3091
2769	0.3523
2760	0.3782
2751	0.3745
2742	0.3475
2733	0.3664
2724	0.3939
2715	0.425
2706	0.4497
2697	0.4684
2688	0.4836
2679	0.496
2670	0.5067
2661	0.5157
2652	0.5241
2643	0.5327
2634	0.541
2625	0.5466
2616	0.5521
2607	0.5576
2598	0.5628
2589	0.5678
2580	0.573
2571	0.5776
2562	0.5819
2553	0.5862
2544	0.591
2535	0.5959
2526	0.6007
2517	0.6055
2508	0.6102
2499	0.6147
2490	0.6191
2481	0.6227
2472	0.626
2463	0.6291
2454	0.6318
2445	0.6335
2436	0.634
2427	0.6338
2418	0.6328
2409	0.6315
2400	0.6335
2391	0.6392
2382	0.6453
2373	0.6497
2364	0.6515
2355	0.6519
2346	0.6518
2337	0.6515
2328	0.6518
2319	0.6521
2310	0.6525
2301	0.6556
2292	0.6588
2283	0.6619
2274	0.6675
2265	0.6731
2256	0.6788
2247	0.6845
2238	0.6896
2229	0.6936
2220	0.6976
2211	0.7017
2202	0.706
2193	0.7104
2184	0.7149
2175	0.7193
2166	0.7247
2157	0.7301
2148	0.7358
2139	0.7411
2130	0.746
2121	0.7506
2112	0.755
2103	0.7592
2094	0.7635
2085	0.7674
2076	0.7715
2067	0.7751
2058	0.7793
2049	0.7838
2040	0.788
2031	0.7918
2022	0.7956
2013	0.7992
2004	0.8028
1995	0.7999
1986	0.8103
1977	0.8125
1968	0.8157
1959	0.8211
1950	0.8257
1941	0.83
1932	0.8328
1923	0.8352
1914	0.838
1905	0.8411
1896	0.843
1887	0.8456
1878	0.8449
1869	0.8494
1860	0.8539
1851	0.8557
1842	0.8571
1833	0.8582
1824	0.858
1815	0.8584
1806	0.8571
1797	0.8521
1788	0.8513
1779	0.8485
1770	0.8421
1761	0.8295
1752	0.8136
1743	0.7908
1734	0.761
1725	0.708
1716	0.616
1707	0.5003
1698	0.375
1689	0.1736
1680	0.0675
1671	0.0447
1662	0.0409
1653	0.0477
1644	0.0751
1635	0.1035
1626	0.1254
1617	0.2051
1608	0.3016
1599	0.4392
1590	0.5038
1581	0.531
1572	0.5252
1563	0.4812
1554	0.4497
1545	0.4656
1536	0.4658
1527	0.4588
1518	0.3476
1509	0.3306
1500	0.4205
1491	0.488
1482	0.4762
1473	0.3149
1464	0.3959
1455	0.145
1446	0.304
1437	0.2715
1428	0.2132
1419	0.0742
1410	0.1821
1401	0.3216
1392	0.4278
1383	0.4592
1374	0.475
1365	0.3942
1356	0.4317
1347	0.4008
1338	0.2408
1329	0.5892
1320	0.398
1311	0.6547
1302	0.6725
1293	0.7193
1284	0.6411
1275	0.5378
1266	0.4358
1257	0.5122
1248	0.2234
1239	0.5639
1230	0.6726
1221	0.723
1212	0.7182
1203	0.5891
1194	0.7104
1185	0.7492
1176	0.7458
1167	0.7196
1158	0.6383
1149	0.3964
1140	0.7075
1131	0.7654
1122	0.7345
1113	0.3747
1104	0.7532
1095	0.6886
1086	0.6017
1077	0.7025
1068	0.6561
1059	0.6231
1050	0.7737
1041	0.7915
1032	0.7257
1023	0.7043
1014	0.8178
1005	0.8337
996	0.8085
987	0.8314
978	0.8235
969	0.7978
960	0.7356
951	0.6542
942	0.7785
933	0.7776
924	0.6865
915	0.7741
906	0.6695
897	0.4443
888	0.4778
879	0.7006
870	0.7614
861	0.636
852	0.6675
843	0.6318
834	0.4951
825	0.241
816	0.2434
807	0.4022
798	0.5642
789	0.6758
780	0.7107
771	0.6965
762	0.698
753	0.6705
744	0.6169
735	0.531
726	0.4758
717	0.444
708	0.3484
699	0.3284
690	0.359
681	0.4126
672	0.2725
663	0.4378
654	0.5852
645	0.63
636	0.6684
627	0.6982
618	0.7238
609	0.7422
600	0.7565
591	0.7694
582	0.7861
573	0.7984
564	0.8051
555	0.8011
546	0.6833
537	0.8174
528	0.8175
519	0.7201
510	0.5503
501	0.7819
492	0.8203
483	0.8336
474	0.8389
465	0.8203
456	0.784
447	0.76
438	0.711
429	0.6384
420	0.5659
411	0.514
402	0.546
