Infrared Spectrum: Metamitron
Formula: C 10 H 10 N 4 O
CAS: 41394-05-2
State: gas
Instrument: HP-GC/MS/IRD
Origin: NIST Mass Spectrometry Data Center
1/CM	ABSORBANCE
550	0.0019422
562	0.0003276
574	9.36e-05
586	5.46e-05
598	0.000247
610	0.00156
622	0.0026494
634	0.0008736
646	0.0005746
658	0.0017914
670	0.0039754
682	0.0041288
694	0.0047112
706	0.0020826
718	0.0010218
730	0.0009906
742	0.0018798
754	0.0024102
766	0.0009412
778	0.0007462
790	0.0014482
802	0.0020774
814	0.00065
826	0.0003926
838	0.0004316
850	0.000585
862	0.0011336
874	0.0036478
886	0.0055796
898	0.0015002
910	0.0007826
922	0.0008164
934	0.000702
946	0.0008112
958	0.001521
970	0.0030498
982	0.0046982
994	0.0038272
1006	0.0027924
1018	0.0064454
1030	0.0028288
1042	0.0014612
1054	0.0013208
1066	0.0017056
1078	0.0020176
1090	0.0018798
1102	0.0012818
1114	0.0008216
1126	0.0007202
1138	0.0007254
1150	0.0012558
1162	0.0019396
1174	0.0017836
1186	0.0016978
1198	0.0016484
1210	0.003003
1222	0.0032812
1234	0.0022308
1246	0.001716
1258	0.0016198
1270	0.0014898
1282	0.0023348
1294	0.0048022
1306	0.0048724
1318	0.0045838
1330	0.0047632
1342	0.0042354
1354	0.0018564
1366	0.0014404
1378	0.001625
1390	0.0023712
1402	0.0041704
1414	0.0047502
1426	0.0044434
1438	0.005486
1450	0.0042692
1462	0.0024232
1474	0.0018616
1486	0.0023504
1498	0.0031408
1510	0.0029458
1522	0.0053534
1534	0.0138814
1546	0.0232154
1558	0.0103688
1570	0.003796
1582	0.003094
1594	0.0037232
1606	0.004693
1618	0.0065468
1630	0.0084552
1642	0.0066222
1654	0.004355
1666	0.0057642
1678	0.0140504
1690	0.026
1702	0.014755
1714	0.0051012
1726	0.0025064
1738	0.0015392
1750	0.0011882
1762	0.0009542
1774	0.0007592
1786	0.0005928
1798	0.0007488
1810	0.0006864
1822	0.0004238
1834	0.0003094
1846	0.0002678
1858	0.0002808
1870	0.0002496
1882	0.000299
1894	0.0003536
1906	0.0003536
1918	0.000169
1930	0.0001742
1942	0.0003224
1954	0.0004316
1966	0.0003198
1978	0.000143
1990	0.0001066
2002	0.0001014
2014	0.00013
2026	0.000156
2038	0.000169
2050	0.0001794
2062	0.0001508
2074	0.0001274
2086	8.84e-05
2098	7.28e-05
2110	6.5e-05
2122	7.8e-05
2134	2.34e-05
2146	8.06e-05
2158	9.1e-05
2170	8.58e-05
2182	7.8e-05
2194	2.6e-05
2206	4.16e-05
2218	3.38e-05
2230	1.3e-05
2242	7.8e-06
2254	2.86e-05
2266	6.5e-05
2278	7.28e-05
2290	0.0001066
2302	9.62e-05
2314	0.0001248
2326	8.84e-05
2338	8.84e-05
2350	9.1e-05
2362	6.24e-05
2374	9.88e-05
2386	9.62e-05
2398	0.00013
2410	0.0001222
2422	9.62e-05
2434	0.0001248
2446	0.0001118
2458	7.02e-05
2470	3.38e-05
2482	4.42e-05
2494	6.5e-05
2506	7.54e-05
2518	9.1e-05
2530	8.32e-05
2542	0.0001118
2554	8.06e-05
2566	0.0001482
2578	0.0001378
2590	0.0001326
2602	0.0001534
2614	0.0001404
2626	0.0001326
2638	7.54e-05
2650	6.5e-05
2662	6.24e-05
2674	2.86e-05
2686	5.2e-05
2698	0.0001014
2710	0.0001092
2722	9.1e-05
2734	0.0001014
2746	9.1e-05
2758	0.0001378
2770	9.36e-05
2782	0.0001248
2794	0.0001612
2806	0.000182
2818	0.0001326
2830	0.0001898
2842	0.0001924
2854	0.0002262
2866	0.0002392
2878	0.000234
2890	0.0001924
2902	0.0002548
2914	0.000299
2926	0.0003198
2938	0.0007202
2950	0.0008502
2962	0.0004446
2974	0.0006292
2986	0.0006916
2998	0.000572
3010	0.0006422
3022	0.0009906
3034	0.0012922
3046	0.0018668
3058	0.0028782
3070	0.0038844
3082	0.0032058
3094	0.0016614
3106	0.0011362
3118	0.0006448
3130	0.0004524
3142	0.0003068
3154	0.00039
3166	0.000325
3178	0.000364
3190	0.000481
3202	0.0006552
3214	0.0006552
3226	0.0006396
3238	0.0005382
3250	0.0005486
3262	0.0004888
3274	0.000455
3286	0.0004576
3298	0.0003718
3310	0.000286
3322	0.00052
3334	0.0007826
3346	0.0005798
3358	0.000455
3370	0.0004836
3382	0.000351
3394	0.0002626
3406	0.0002028
3418	0.0002678
3430	0.0003094
3442	0.0002184
3454	0.0002808
3466	0.0002626
3478	0.000221
3490	0.0001534
3502	7.8e-05
3514	9.62e-05
3526	9.36e-05
3538	8.58e-05
3550	3.9e-05
3562	4.94e-05
3574	4.16e-05
3586	7.28e-05
3598	7.8e-05
3610	0.0001144
3622	5.46e-05
3634	9.36e-05
3646	9.36e-05
3658	0.0001118
3670	0.0001196
3682	8.06e-05
3694	0.000117
3706	0.0001066
3718	0.0001144
3730	0.0001378
3742	9.36e-05
3754	0.0001014
3766	0.0001274
3778	0.0001742
3790	0.0001222
3802	2.86e-05
3814	0.00013
3826	0.0001898
3838	0.0001508
