Infrared Spectrum: Acetamide, N,N'-(4,6-difluoro-2-nitro-m-phenylene)bis-
Formula: C10 H9 F2 N3 O4
CAS: 4140-70-9
State: SOLID (0.8 mg / 650 mg KBr DISC)
Class: COBLENTZ III
Instrument: PERKIN-ELMER 21 (GRATING)
Instrument parameters: FILTER CHANGE ABOUT 1020 CM^-^1
Sampling: TRANSMISSION
Resolution: 2
Origin: SOUTHERN RESEARCH INSTITUTE
1/CM	TRANSMITTANCE
599	0.6928
608.034	0.698
617.069	0.6933
626.103	0.6827
635.138	0.6706
644.172	0.6668
653.206	0.6605
662.241	0.6364
671.275	0.5793
680.31	0.5552
689.344	0.5568
698.379	0.5793
707.413	0.6318
716.447	0.7496
725.482	0.7727
734.516	0.7633
743.551	0.7901
752.585	0.8108
761.619	0.7559
770.654	0.3429
779.688	0.8347
788.723	0.8822
797.757	0.8914
806.791	0.8899
815.826	0.8838
824.86	0.9004
833.895	0.8965
842.929	0.8537
851.964	0.7721
860.998	0.5647
870.032	0.8207
879.067	0.8823
888.101	0.8928
897.136	0.89
906.17	0.8756
915.204	0.8689
924.239	0.8838
933.273	0.8771
942.308	0.8476
951.342	0.8469
960.376	0.8464
969.411	0.8215
978.445	0.759
987.48	0.7732
996.514	0.6738
1005.55	0.5761
1014.58	0.5319
1023.62	0.5789
1032.65	0.748
1041.69	0.7943
1050.72	0.8537
1059.76	0.8757
1068.79	0.8863
1077.82	0.8897
1086.86	0.8887
1095.89	0.8879
1104.93	0.8821
1113.96	0.8642
1123	0.8137
1132.03	0.5844
1141.06	0.4756
1150.1	0.7936
1159.13	0.8485
1168.17	0.8446
1177.2	0.8306
1186.24	0.8181
1195.27	0.8203
1204.31	0.8197
1213.34	0.7872
1222.37	0.718
1231.41	0.638
1240.44	0.5266
1249.48	0.3863
1258.51	0.2707
1267.55	0.2333
1276.58	0.2322
1285.62	0.2564
1294.65	0.3978
1303.68	0.5659
1312.72	0.6691
1321.75	0.6825
1330.79	0.6741
1339.82	0.6423
1348.86	0.4354
1357.89	0.207
1366.93	0.1902
1375.96	0.2723
1384.99	0.3754
1394.03	0.4763
1403.06	0.5361
1412.1	0.4449
1421.13	0.4384
1430.17	0.5174
1439.2	0.5635
1448.23	0.6133
1457.27	0.6091
1466.3	0.5745
1475.34	0.4921
1484.37	0.361
1493.41	0.2199
1502.44	0.0486
1511.48	0.0532
1520.51	0.0654
1529.54	0.0586
1538.58	0.0607
1547.61	0.0939
1556.65	0.1925
1565.68	0.3231
1574.72	0.5965
1583.75	0.6489
1592.79	0.6458
1601.82	0.5968
1610.85	0.5529
1619.89	0.5211
1628.92	0.5367
1637.96	0.5311
1646.99	0.355
1656.03	0.1786
1665.06	0.0487
1674.1	0.038
1683.13	0.0829
1692.16	0.3139
1701.2	0.4569
1710.23	0.6793
1719.27	0.7554
1728.3	0.7979
1737.34	0.8232
1746.37	0.8385
1755.4	0.8475
1764.44	0.8542
1773.47	0.8695
1782.51	0.8786
1791.54	0.8894
1800.58	0.8992
1809.61	0.907
1818.65	0.9133
1827.68	0.9182
1836.71	0.9223
1845.75	0.9247
1854.78	0.9265
1863.82	0.9281
1872.85	0.9286
1881.89	0.9288
1890.92	0.9289
1899.96	0.9291
1908.99	0.929
1918.02	0.9288
1927.06	0.9288
1936.09	0.9292
1945.13	0.9297
1954.16	0.93
1963.2	0.9303
1972.23	0.9305
1981.27	0.9303
1990.3	0.9301
1999.33	0.9298
2008.37	0.9294
2017.4	0.9292
2026.44	0.9313
2035.47	0.9322
2044.51	0.9324
2053.54	0.9342
2062.57	0.9362
2071.61	0.9375
2080.64	0.9379
2089.68	0.9392
2098.71	0.9386
2107.75	0.9357
2116.78	0.9335
2125.82	0.9316
2134.85	0.9337
2143.88	0.9314
2152.92	0.9314
2161.95	0.9314
2170.99	0.9314
2180.02	0.9317
2189.06	0.9329
2198.09	0.933
2207.13	0.9342
2216.16	0.9347
2225.19	0.9347
2234.23	0.9352
2243.26	0.9352
2252.3	0.9352
2261.33	0.9349
2270.37	0.9342
2279.4	0.9333
2288.44	0.9333
2297.47	0.9334
2306.5	0.9336
2315.54	0.934
2324.57	0.9342
2333.61	0.9348
2342.64	0.9355
2351.68	0.9356
2360.71	0.9352
2369.74	0.9349
2378.78	0.9345
2387.81	0.9342
2396.85	0.9343
2405.88	0.9351
2414.92	0.9368
2423.95	0.935
2432.99	0.9322
2442.02	0.9303
2451.05	0.9294
2460.09	0.9285
2469.12	0.9276
2478.16	0.9269
2487.19	0.9263
2496.23	0.9257
2505.26	0.9251
2514.3	0.9244
2523.33	0.9235
2532.36	0.9226
2541.4	0.9218
2550.43	0.9216
2559.47	0.9217
2568.5	0.9229
2577.54	0.9241
2586.57	0.922
2595.61	0.9195
2604.64	0.9166
2613.67	0.9141
2622.71	0.9122
2631.74	0.9114
2640.78	0.9106
2649.81	0.91
2658.85	0.9103
2667.88	0.9116
2676.91	0.912
2685.95	0.9113
2694.98	0.9079
2704.02	0.9001
2713.05	0.8896
2722.09	0.8787
2731.12	0.8654
2740.16	0.8543
2749.19	0.8432
2758.22	0.8338
2767.26	0.8321
2776.29	0.8321
2785.33	0.8342
2794.36	0.839
2803.4	0.8437
2812.43	0.8479
2821.47	0.8511
2830.5	0.8487
2839.53	0.8409
2848.57	0.8332
2857.6	0.8258
2866.64	0.8194
2875.67	0.8132
2884.71	0.8055
2893.74	0.7965
2902.78	0.7853
2911.81	0.7665
2920.84	0.7523
2929.88	0.7396
2938.91	0.7275
2947.95	0.7152
2956.98	0.7015
2966.02	0.6796
2975.05	0.6399
2984.08	0.602
2993.12	0.5704
3002.15	0.5618
3011.19	0.5619
3020.22	0.5632
3029.26	0.5664
3038.29	0.5706
3047.33	0.5759
3056.36	0.5803
3065.39	0.584
3074.43	0.589
3083.46	0.6047
3092.5	0.6068
3101.53	0.5969
3110.57	0.5789
3119.6	0.561
3128.64	0.5367
3137.67	0.4982
3146.7	0.4603
3155.74	0.4234
3164.77	0.3471
3173.81	0.2649
3182.84	0.2135
3191.88	0.1912
3200.91	0.1746
3209.95	0.1627
3218.98	0.154
3228.01	0.1466
3237.05	0.1477
3246.08	0.1522
3255.12	0.1688
3264.15	0.2041
3273.19	0.2381
3282.22	0.2995
3291.25	0.3566
3300.29	0.4102
3309.32	0.4771
3318.36	0.5192
3327.39	0.5594
3336.43	0.5962
3345.46	0.6168
3354.5	0.6279
3363.53	0.6378
3372.56	0.6488
3381.6	0.6523
3390.63	0.6547
3399.67	0.6567
3408.7	0.6584
3417.74	0.6605
3426.77	0.6631
3435.81	0.6657
3444.84	0.6682
3453.87	0.6704
3462.91	0.6724
3471.94	0.6758
3480.98	0.6801
3490.01	0.6848
3499.05	0.6896
3508.08	0.6961
3517.12	0.7045
3526.15	0.7142
3535.18	0.7261
3544.22	0.738
3553.25	0.7496
3562.29	0.7615
3571.32	0.7709
3580.36	0.7837
3589.39	0.7936
3598.42	0.8028
3607.46	0.8114
3616.49	0.8191
3625.53	0.8266
3634.56	0.8334
3643.6	0.8391
3652.63	0.8445
3661.67	0.8495
3670.7	0.8543
3679.73	0.8562
3688.77	0.8578
3697.8	0.8591
3706.84	0.8603
3715.87	0.8615
3724.91	0.8627
3733.94	0.8637
3742.98	0.8646
3752.01	0.8655
3761.04	0.8664
3770.08	0.8672
3779.11	0.8678
3788.15	0.8684
3797.18	0.8689
3806.22	0.8693
3815.25	0.8697
3824.29	0.8696
3833.32	0.8691
3842.35	0.8684
3851.39	0.8669
3860.42	0.8654
3869.46	0.8642
3878.49	0.8634
3887.53	0.8625
3896.56	0.8616
3905.59	0.8612
3914.63	0.8621
3923.66	0.863
3932.7	0.8639
3941.73	0.8651
3950.77	0.8664
3959.8	0.8676
3968.84	0.8676
3977.87	0.8663
3986.9	0.8644
3995.94	0.8609
4004.97	0.8569
