Infrared Spectrum: BENZIMIDAZOLE, 4-ACETAMIDO-5,7-DIFLUORO-
Formula: C9 H7 F2 N3 O
CAS: 4140-71-0
State: SOLID (1.0 mg / 650 mg KBr DISC)
Class: COBLENTZ III
Instrument: PERKIN-ELMER 21 (GRATING)
Instrument parameters: FILTER CHANGE ABOUT 1085 CM^-^1
Sampling: TRANSMISSION
Resolution: 4
Origin: SOUTHERN RESEARCH INSTITUTE
1/CM	TRANSMITTANCE
602.484	0.52
611.103	0.4334
619.722	0.4365
628.342	0.4968
636.961	0.921
645.58	0.8909
654.199	0.8363
662.818	0.7448
671.437	0.6765
680.057	0.7046
688.676	0.5714
697.295	0.396
705.914	0.518
714.533	0.5778
723.153	0.68
731.772	0.7
740.391	0.692
749.01	0.687
757.629	0.6881
766.248	0.6947
774.868	0.725
783.487	0.7377
792.106	0.7489
800.725	0.7437
809.344	0.7115
817.964	0.6867
826.583	0.571
835.202	0.2027
843.821	0.6969
852.44	0.6569
861.059	0.6476
869.679	0.6779
878.298	0.7171
886.917	0.745
895.536	0.7274
904.155	0.6721
912.775	0.5781
921.394	0.3578
930.013	0.443
938.632	0.7182
947.251	0.6859
955.87	0.5547
964.49	0.6654
973.109	0.7679
981.728	0.747
990.347	0.6996
998.966	0.5469
1007.59	0.5002
1016.2	0.4029
1024.82	0.6254
1033.44	0.6922
1042.06	0.6053
1050.68	0.638
1059.3	0.5021
1067.92	0.3117
1076.54	0.5926
1085.16	0.5334
1093.78	0.6825
1102.4	0.6659
1111.02	0.6406
1119.63	0.5832
1128.25	0.4717
1136.87	0.1644
1145.49	0.3875
1154.11	0.6006
1162.73	0.7459
1171.35	0.7531
1179.97	0.7316
1188.59	0.643
1197.21	0.5644
1205.83	0.6592
1214.45	0.648
1223.07	0.6152
1231.68	0.5665
1240.3	0.4588
1248.92	0.4618
1257.54	0.4657
1266.16	0.3118
1274.78	0.1882
1283.4	0.3384
1292.02	0.3617
1300.64	0.161
1309.26	0.2043
1317.88	0.5652
1326.5	0.618
1335.11	0.6009
1343.73	0.5396
1352.35	0.4499
1360.97	0.2287
1369.59	0.1799
1378.21	0.157
1386.83	0.3539
1395.45	0.3517
1404.07	0.2165
1412.69	0.2791
1421.31	0.219
1429.93	0.365
1438.54	0.2454
1447.16	0.2638
1455.78	0.3786
1464.4	0.2715
1473.02	0.3568
1481.64	0.3932
1490.26	0.3659
1498.88	0.4026
1507.5	0.4319
1516.12	0.2871
1524.74	0.1506
1533.36	0.0532
1541.97	0.0515
1550.59	0.1264
1559.21	0.2536
1567.83	0.4549
1576.45	0.5614
1585.07	0.594
1593.69	0.5741
1602.31	0.5203
1610.93	0.4173
1619.55	0.3322
1628.17	0.2933
1636.79	0.215
1645.41	0.098
1654.02	0.0586
1662.64	0.0503
1671.26	0.1265
1679.88	0.2739
1688.5	0.4077
1697.12	0.4982
1705.74	0.5997
1714.36	0.6336
1722.98	0.676
1731.6	0.7126
1740.22	0.7355
1748.84	0.7576
1757.45	0.774
1766.07	0.7874
1774.69	0.7894
1783.31	0.7941
1791.93	0.777
1800.55	0.7813
1809.17	0.79
1817.79	0.8006
1826.41	0.8075
1835.03	0.8344
1843.65	0.8461
1852.27	0.8491
1860.88	0.853
1869.5	0.853
1878.12	0.8529
1886.74	0.852
1895.36	0.8588
1903.98	0.8593
1912.6	0.8584
1921.22	0.855
1929.84	0.857
1938.46	0.862
1947.08	0.86
1955.7	0.86
1964.31	0.858
1972.93	0.853
1981.55	0.8541
1990.17	0.857
1998.79	0.854
2007.41	0.858
2016.03	0.857
2024.65	0.854
2033.27	0.857
2041.89	0.8529
2050.51	0.847
2059.13	0.844
2067.74	0.842
2076.36	0.842
2084.98	0.844
2093.6	0.844
2102.22	0.839
2110.84	0.836
2119.46	0.834
2128.08	0.834
2136.7	0.827
2145.32	0.822
2153.94	0.822
2162.56	0.823
2171.18	0.822
2179.79	0.809
2188.41	0.805
2197.03	0.804
2205.65	0.79
2214.27	0.795
2222.89	0.791
2231.51	0.791
2240.13	0.791
2248.75	0.775
2257.37	0.773
2265.99	0.77
2274.61	0.763
2283.22	0.757
2291.84	0.756
2300.46	0.753
2309.08	0.741
2317.7	0.73
2326.32	0.717
2334.94	0.705
2343.56	0.695
2352.18	0.69
2360.8	0.69
2369.42	0.693
2378.04	0.703
2386.65	0.699
2395.27	0.692
2403.89	0.687
2412.51	0.683
2421.13	0.6759
2429.75	0.665
2438.37	0.658
2446.99	0.646
2455.61	0.633
2464.23	0.628
2472.85	0.626
2481.47	0.623
2490.08	0.614
2498.7	0.5969
2507.32	0.578
2515.94	0.562
2524.56	0.545
2533.18	0.534
2541.8	0.52
2550.42	0.513
2559.04	0.501
2567.66	0.497
2576.28	0.496
2584.9	0.492
2593.52	0.492
2602.13	0.491
2610.75	0.486
2619.37	0.485
2627.99	0.477
2636.61	0.47
2645.23	0.455
2653.85	0.448
2662.47	0.431
2671.09	0.433
2679.71	0.438
2688.33	0.437
2696.95	0.439
2705.56	0.435
2714.18	0.433
2722.8	0.415
2731.42	0.3989
2740.04	0.378
2748.66	0.369
2757.28	0.3429
2765.9	0.331
2774.52	0.305
2783.14	0.293
2791.76	0.293
2800.38	0.305
2808.99	0.314
2817.61	0.328
2826.23	0.352
2834.85	0.385
2843.47	0.402
2852.09	0.412
2860.71	0.413
2869.33	0.415
2877.95	0.418
2886.57	0.416
2895.19	0.423
2903.81	0.423
2912.42	0.418
2921.04	0.402
2929.66	0.395
2938.28	0.384
2946.9	0.38
2955.52	0.374
2964.14	0.362
2972.76	0.3549
2981.38	0.3219
2990	0.2989
2998.62	0.284
3007.24	0.278
3015.86	0.256
3024.47	0.252
3033.09	0.25
3041.71	0.2691
3050.33	0.2951
3058.95	0.316
3067.57	0.325
3076.19	0.338
3084.81	0.343
3093.43	0.337
3102.05	0.3219
3110.67	0.3
3119.29	0.3212
3127.9	0.363
3136.52	0.354
3145.14	0.33
3153.76	0.306
3162.38	0.295
3171	0.293
3179.62	0.3
3188.24	0.299
3196.86	0.288
3205.48	0.2729
3214.1	0.2399
3222.72	0.1978
3231.33	0.161
3239.95	0.151
3248.57	0.1711
3257.19	0.2301
3265.81	0.302
3274.43	0.368
3283.05	0.4291
3291.67	0.4591
3300.29	0.516
3308.91	0.5571
3317.53	0.5911
3326.15	0.626
3334.76	0.646
3343.38	0.6631
3352	0.679
3360.62	0.687
3369.24	0.698
3377.86	0.7
3386.48	0.706
3395.1	0.708
3403.72	0.706
3412.34	0.708
3420.96	0.709
3429.58	0.709
3438.19	0.713
3446.81	0.714
3455.43	0.719
3464.05	0.727
3472.67	0.731
3481.29	0.735
3489.91	0.735
3498.53	0.735
3507.15	0.745
3515.77	0.751
3524.39	0.757
3533.01	0.757
3541.63	0.757
3550.24	0.763
3558.86	0.773
3567.48	0.778
3576.1	0.783
3584.72	0.785
3593.34	0.796
3601.96	0.798
3610.58	0.801
3619.2	0.8
3627.82	0.809
3636.44	0.806
3645.06	0.81
3653.67	0.81
3662.29	0.816
3670.91	0.812
3679.53	0.8
3688.15	0.8071
3696.77	0.817
3705.39	0.815
3714.01	0.816
3722.63	0.818
3731.25	0.818
3739.87	0.812
3748.49	0.802
3757.1	0.805
3765.72	0.81
3774.34	0.812
3782.96	0.817
3791.58	0.8089
3800.2	0.801
3808.82	0.801
3817.44	0.8
3826.06	0.8
3834.68	0.798
3843.3	0.801
3851.92	0.8
3860.53	0.796
3869.15	0.794
3877.77	0.799
3886.39	0.801
3895.01	0.8
3903.63	0.799
3912.25	0.794
