Infrared Spectrum: 2-Amino-4-chlorobenzenesulfonamide
Formula: C6 H7 Cl N2 O2 S
CAS: 4140-83-4
State: SOLID (SPLIT MULL)
Melting point: 143 C
Class: COBLENTZ III
Instrument: DOW KBr FOREPRISM-GRATING
Instrument parameters: BLAZED AT 3.5, 12.0, 20.0 MICRON AND CHANGED AT 5.0, 7.5, 14.9 MICRON
Sampling: TRANSMISSION
Resolution: 2
Origin: DOW CHEMICAL COMPANY
1/CM	TRANSMITTANCE
461	0.6495
470	0.4721
479	0.6391
488	0.734
497	0.7518
506	0.7457
515	0.4436
524	0.6272
533	0.2707
542	0.4071
551	0.6121
560	0.7503
569	0.8214
578	0.8264
587	0.8192
596	0.6073
605	0.7265
614	0.6289
623	0.4068
632	0.2751
641	0.5297
650	0.7225
659	0.7522
668	0.7438
677	0.7034
686	0.6538
695	0.5838
704	0.4575
713	0.5625
722	0.5156
731	0.5017
740	0.4973
749	0.5318
758	0.5672
767	0.6039
776	0.6546
785	0.6911
794	0.6183
803	0.3936
812	0.8268
821	0.8359
830	0.8394
839	0.8313
848	0.7244
857	0.4597
866	0.7128
875	0.6915
884	0.6099
893	0.511
902	0.2343
911	0.1377
920	0.3484
929	0.5546
938	0.825
947	0.7212
956	0.9053
965	0.9277
974	0.9436
983	0.956
992	0.9641
1001	0.9633
1010	0.9584
1019	0.9457
1028	0.9231
1037	0.855
1046	0.5712
1055	0.6078
1064	0.8516
1073	0.8468
1082	0.8031
1091	0.6578
1100	0.1507
1109	0.6884
1118	0.5095
1127	0.5033
1136	0.2178
1145	0.0895
1154	0.0729
1163	0.2732
1172	0.6708
1181	0.8218
1190	0.9133
1199	0.948
1208	0.9544
1217	0.9489
1226	0.9261
1235	0.8452
1244	0.6725
1253	0.6917
1262	0.8737
1271	0.8738
1280	0.8101
1289	0.6986
1298	0.5417
1307	0.218
1316	0.1042
1325	0.0833
1334	0.2746
1343	0.5955
1352	0.7496
1361	0.8304
1370	0.8316
1379	0.7908
1388	0.7582
1397	0.729
1406	0.6708
1415	0.4171
1424	0.0648
1433	0.7921
1442	0.8289
1451	0.7348
1460	0.8325
1469	0.7596
1478	0.3688
1487	0.8046
1496	0.8797
1505	0.8632
1514	0.8409
1523	0.8078
1532	0.7567
1541	0.6234
1550	0.5862
1559	0.4909
1568	0.1935
1577	0.4932
1586	0.2159
1595	0.2983
1604	0.5471
1613	0.626
1622	0.5426
1631	0.4329
1640	0.5651
1649	0.8199
1658	0.8618
1667	0.8756
1676	0.8842
1685	0.8711
1694	0.8782
1703	0.8835
1712	0.9162
1721	0.9268
1730	0.9208
1739	0.8881
1748	0.9121
1757	0.9194
1766	0.9177
1775	0.9167
1784	0.9143
1793	0.9116
1802	0.9091
1811	0.9068
1820	0.9049
1829	0.9021
1838	0.8981
1847	0.8939
1856	0.8896
1865	0.8867
1874	0.8838
1883	0.872
1892	0.8253
1901	0.889
1910	0.8868
1919	0.8823
1928	0.8768
1937	0.8724
1946	0.8682
1955	0.8641
1964	0.8636
1973	0.8634
1982	0.8615
1991	0.855
2000	0.862
2009	0.8618
2018	0.8582
2027	0.8552
2036	0.8523
2045	0.8495
2054	0.8468
2063	0.8441
2072	0.8414
2081	0.8375
2090	0.8336
2099	0.8296
2108	0.8253
2117	0.8211
2126	0.8168
2135	0.8124
2144	0.8081
2153	0.8037
2162	0.7993
2171	0.7939
2180	0.7883
2189	0.7828
2198	0.7772
2207	0.7725
2216	0.7722
2225	0.769
2234	0.7632
2243	0.7572
2252	0.7515
2261	0.7456
2270	0.7398
2279	0.7361
2288	0.7351
2297	0.7301
2306	0.7284
2315	0.7275
2324	0.7267
2333	0.7226
2342	0.7236
2351	0.7275
2360	0.7294
2369	0.7271
2378	0.7228
2387	0.7207
2396	0.719
2405	0.7178
2414	0.7183
2423	0.7172
2432	0.7141
2441	0.7094
2450	0.7033
2459	0.6989
2468	0.6958
2477	0.6951
2486	0.6958
2495	0.6975
2504	0.6997
2513	0.6999
2522	0.6965
2531	0.6921
2540	0.6867
2549	0.681
2558	0.6748
2567	0.6685
2576	0.6615
2585	0.6543
2594	0.6468
2603	0.6395
2612	0.6316
2621	0.6253
2630	0.6222
2639	0.6249
2648	0.6285
2657	0.6331
2666	0.6353
2675	0.6367
2684	0.6374
2693	0.6328
2702	0.6287
2711	0.6247
2720	0.6199
2729	0.6149
2738	0.6102
2747	0.608
2756	0.606
2765	0.604
2774	0.6052
2783	0.601
2792	0.5981
2801	0.5986
2810	0.5925
2819	0.585
2828	0.5766
2837	0.5674
2846	0.5586
2855	0.5509
2864	0.5453
2873	0.5416
2882	0.5373
2891	0.5318
2900	0.5246
2909	0.5143
2918	0.5029
2927	0.4935
2936	0.4886
2945	0.4841
2954	0.4805
2963	0.4769
2972	0.4725
2981	0.4656
2990	0.4578
2999	0.4473
3008	0.4359
3017	0.4231
3026	0.4047
3035	0.3814
3044	0.3647
3053	0.358
3062	0.36
3071	0.3629
3080	0.3662
3089	0.3514
3098	0.3492
3107	0.35
3116	0.3503
3125	0.34
3134	0.3197
3143	0.3078
3152	0.2963
3161	0.2846
3170	0.2729
3179	0.2612
3188	0.2494
3197	0.2379
3206	0.2273
3215	0.2171
3224	0.2134
3233	0.2185
3242	0.2299
3251	0.2478
3260	0.2603
3269	0.2617
3278	0.2581
3287	0.2442
3296	0.2207
3305	0.1823
3314	0.1217
3323	0.0648
3332	0.0668
3341	0.1606
3350	0.1641
3359	0.1319
3368	0.0992
3377	0.0906
3386	0.1153
3395	0.1046
3404	0.0655
3413	0.1918
3422	0.4858
3431	0.551
3440	0.596
3449	0.6159
3458	0.6206
3467	0.6164
3476	0.6105
3485	0.6044
3494	0.5979
3503	0.5914
3512	0.5857
3521	0.5806
3530	0.5757
3539	0.5709
3548	0.5662
3557	0.5616
3566	0.5571
3575	0.553
3584	0.5492
3593	0.5456
3602	0.5421
3611	0.5392
3620	0.5362
3629	0.5332
3638	0.5299
3647	0.5266
3656	0.5234
3665	0.5203
3674	0.5174
3683	0.5143
3692	0.5112
3701	0.5082
3710	0.5052
3719	0.5021
3728	0.4991
3737	0.496
3746	0.493
3755	0.49
3764	0.4877
3773	0.4847
3782	0.4815
3791	0.4783
3800	0.4755
