Infrared Spectrum: Acetamide, N-(5,7-difluoro-1H-benzotriazol-4-yl)-
Formula: C8 H6 F2 N4 O
CAS: 4140-72-1
State: SOLID (0.8 mg / 650 mg KBr DISC)
Class: COBLENTZ III
Instrument: PERKIN-ELMER 21 (GRATING)
Instrument parameters: FILTER CHANGE ABOUT 1025 CM^-^1
Sampling: TRANSMISSION
Resolution: 2
Origin: SOUTHERN RESEARCH INSTITUTE
1/CM	TRANSMITTANCE
607	0.5818
616	0.5821
625	0.5885
634	0.6006
643	0.6006
652	0.5963
661	0.5726
670	0.564
679	0.5438
688	0.5349
697	0.5467
706	0.6672
715	0.6774
724	0.6709
733	0.6444
742	0.5944
751	0.5203
760	0.4833
769	0.5432
778	0.5644
787	0.6499
796	0.7523
805	0.7657
814	0.7631
823	0.7145
832	0.337
841	0.7067
850	0.7897
859	0.7939
868	0.7948
877	0.7953
886	0.7954
895	0.7948
904	0.7933
913	0.7888
922	0.7809
931	0.7673
940	0.7358
949	0.6946
958	0.6747
967	0.6653
976	0.4974
985	0.3695
994	0.6821
1003	0.709
1012	0.7151
1021	0.6399
1030	0.4688
1039	0.5647
1048	0.6674
1057	0.5655
1066	0.3991
1075	0.5259
1084	0.7858
1093	0.7862
1102	0.7036
1111	0.6276
1120	0.7114
1129	0.6966
1138	0.5474
1147	0.2554
1156	0.7437
1165	0.7907
1174	0.7843
1183	0.7623
1192	0.7278
1201	0.6909
1210	0.6801
1219	0.6266
1228	0.4521
1237	0.3807
1246	0.6089
1255	0.5635
1264	0.4641
1273	0.3717
1282	0.3037
1291	0.255
1300	0.4027
1309	0.6351
1318	0.7465
1327	0.7355
1336	0.6392
1345	0.4915
1354	0.2835
1363	0.4856
1372	0.3705
1381	0.4876
1390	0.4819
1399	0.3331
1408	0.4689
1417	0.6879
1426	0.6636
1435	0.6371
1444	0.6801
1453	0.6758
1462	0.7007
1471	0.717
1480	0.7199
1489	0.6965
1498	0.6423
1507	0.5624
1516	0.45
1525	0.342
1534	0.2028
1543	0.1673
1552	0.2841
1561	0.4304
1570	0.5658
1579	0.6527
1588	0.6957
1597	0.6908
1606	0.5715
1615	0.5604
1624	0.6004
1633	0.3782
1642	0.4207
1651	0.6281
1660	0.472
1669	0.1962
1678	0.3246
1687	0.4976
1696	0.6791
1705	0.7953
1714	0.8279
1723	0.8769
1732	0.9075
1741	0.918
1750	0.9231
1759	0.9242
1768	0.9244
1777	0.9245
1786	0.9243
1795	0.9241
1804	0.9216
1813	0.9198
1822	0.9189
1831	0.9185
1840	0.9181
1849	0.9179
1858	0.9179
1867	0.9156
1876	0.9113
1885	0.9074
1894	0.9051
1903	0.9041
1912	0.9032
1921	0.9012
1930	0.8992
1939	0.8979
1948	0.8965
1957	0.8952
1966	0.8938
1975	0.8924
1984	0.8909
1993	0.8892
2002	0.8872
2011	0.8852
2020	0.883
2029	0.8805
2038	0.8779
2047	0.8753
2056	0.873
2065	0.8706
2074	0.8682
2083	0.866
2092	0.8638
2101	0.8617
2110	0.8598
2119	0.8579
2128	0.8559
2137	0.8543
2146	0.8527
2155	0.8511
2164	0.8496
2173	0.8486
2182	0.8476
2191	0.8467
2200	0.8457
2209	0.8442
2218	0.8426
2227	0.8404
2236	0.8375
2245	0.8351
2254	0.8342
2263	0.8334
2272	0.8302
2281	0.8258
2290	0.8207
2299	0.8207
2308	0.8207
2317	0.8204
2326	0.8221
2335	0.8232
2344	0.8236
2353	0.8232
2362	0.8217
2371	0.817
2380	0.8105
2389	0.8073
2398	0.8066
2407	0.8051
2416	0.8025
2425	0.7991
2434	0.7962
2443	0.7964
2452	0.7981
2461	0.7982
2470	0.7975
2479	0.7963
2488	0.7941
2497	0.7918
2506	0.79
2515	0.7881
2524	0.7858
2533	0.7839
2542	0.7826
2551	0.7806
2560	0.7767
2569	0.7729
2578	0.7687
2587	0.7633
2596	0.7561
2605	0.7447
2614	0.7372
2623	0.7344
2632	0.7342
2641	0.7325
2650	0.7241
2659	0.7221
2668	0.7188
2677	0.7137
2686	0.7083
2695	0.7032
2704	0.6979
2713	0.6939
2722	0.6896
2731	0.6851
2740	0.6799
2749	0.6745
2758	0.6669
2767	0.6558
2776	0.6458
2785	0.6407
2794	0.6366
2803	0.6325
2812	0.6278
2821	0.6218
2830	0.616
2839	0.6095
2848	0.6018
2857	0.5915
2866	0.5794
2875	0.5703
2884	0.5611
2893	0.5533
2902	0.5465
2911	0.5402
2920	0.5349
2929	0.5298
2938	0.5243
2947	0.518
2956	0.5081
2965	0.4899
2974	0.471
2983	0.4503
2992	0.4305
3001	0.4162
3010	0.4085
3019	0.4075
3028	0.408
3037	0.4091
3046	0.4099
3055	0.4032
3064	0.3929
3073	0.3889
3082	0.3888
3091	0.3837
3100	0.3762
3109	0.3572
3118	0.3388
3127	0.327
3136	0.321
3145	0.316
3154	0.3199
3163	0.3296
3172	0.3485
3181	0.363
3190	0.372
3199	0.3772
3208	0.3797
3217	0.3805
3226	0.3805
3235	0.3804
3244	0.3811
3253	0.3841
3262	0.4019
3271	0.4222
3280	0.4669
3289	0.5334
3298	0.5737
3307	0.6143
3316	0.645
3325	0.6572
3334	0.664
3343	0.6672
3352	0.6639
3361	0.6584
3370	0.6526
3379	0.6424
3388	0.6326
3397	0.6233
3406	0.6148
3415	0.6108
3424	0.6089
3433	0.6073
3442	0.608
3451	0.6083
3460	0.6112
3469	0.6146
3478	0.621
3487	0.6282
3496	0.6358
3505	0.6443
3514	0.6524
3523	0.6592
3532	0.6656
3541	0.6722
3550	0.6794
3559	0.6877
3568	0.6911
3577	0.7048
3586	0.7161
3595	0.7202
3604	0.7324
3613	0.7443
3622	0.7526
3631	0.7607
3640	0.7638
3649	0.7634
3658	0.7628
3667	0.763
3676	0.7647
3685	0.7656
3694	0.7665
3703	0.7673
3712	0.7681
3721	0.769
3730	0.7695
3739	0.7692
3748	0.7689
3757	0.7685
3766	0.7684
3775	0.7683
3784	0.7658
3793	0.762
3802	0.7583
3811	0.7567
3820	0.7568
3829	0.758
3838	0.76
3847	0.7618
3856	0.762
3865	0.7607
3874	0.7617
3883	0.7618
3892	0.759
3901	0.7524
3910	0.7494
3919	0.7473
3928	0.7454
3937	0.7433
3946	0.7376
3955	0.7384
3964	0.7358
3973	0.7351
3982	0.7307
3991	0.7302
4000	0.7295
