Infrared Spectrum: 2-Amino-N-methylbenzamide
Formula: C 8 H 10 N 2 O
CAS: 4141-08-6
State: gas
Origin: EPA-IR VAPOR PHASE LIBRARY
1/CM	ABSORBANCE
551.7	0.0116
563.274	0.01138
574.848	0.01069
586.421	0.01067
597.995	0.0106
609.569	0.01013
621.143	0.0096
632.717	0.00935
644.291	0.00966
655.864	0.01283
667.438	0.01446
679.012	0.01191
690.586	0.01324
702.16	0.01461
713.734	0.01215
725.307	0.01573
736.881	0.02846
748.455	0.02775
760.029	0.01538
771.603	0.00979
783.177	0.00842
794.75	0.0083
806.324	0.00864
817.898	0.00878
829.472	0.00928
841.046	0.01043
852.619	0.00947
864.193	0.00726
875.767	0.00679
887.341	0.00701
898.915	0.00695
910.489	0.00686
922.062	0.00698
933.636	0.00711
945.21	0.0066
956.784	0.00635
968.358	0.00626
979.932	0.00703
991.505	0.00959
1003.08	0.00913
1014.65	0.00596
1026.23	0.00598
1037.8	0.00638
1049.37	0.00579
1060.95	0.00505
1072.52	0.00439
1084.1	0.00415
1095.67	0.00456
1107.24	0.00499
1118.82	0.00644
1130.39	0.0099
1141.97	0.01377
1153.54	0.01966
1165.11	0.02091
1176.69	0.0104
1188.26	0.0068
1199.83	0.00684
1211.41	0.00783
1222.98	0.01076
1234.56	0.01934
1246.13	0.0367
1257.7	0.04914
1269.28	0.04085
1280.85	0.03355
1292.42	0.02159
1304	0.01638
1315.57	0.01757
1327.15	0.01277
1338.72	0.00791
1350.29	0.00695
1361.87	0.00661
1373.44	0.00634
1385.02	0.00647
1396.59	0.00742
1408.16	0.01132
1419.74	0.0147
1431.31	0.01347
1442.88	0.0178
1454.46	0.02465
1466.03	0.03102
1477.61	0.0449
1489.18	0.05898
1500.75	0.07261
1512.33	0.06918
1523.9	0.04673
1535.48	0.0327
1547.05	0.02776
1558.62	0.02755
1570.2	0.02762
1581.77	0.03577
1593.34	0.05025
1604.92	0.05903
1616.49	0.05799
1628.07	0.03952
1639.64	0.02434
1651.21	0.02415
1662.79	0.03723
1674.36	0.07205
1685.93	0.0736
1697.51	0.03571
1709.08	0.01859
1720.66	0.01171
1732.23	0.00703
1743.8	0.00473
1755.38	0.00388
1766.95	0.00373
1778.53	0.00361
1790.1	0.0033
1801.67	0.00325
1813.25	0.00312
1824.82	0.00284
1836.39	0.00265
1847.97	0.00264
1859.54	0.0026
1871.12	0.00251
1882.69	0.00268
1894.26	0.00278
1905.84	0.00256
1917.41	0.0029
1928.99	0.00275
1940.56	0.00204
1952.13	0.00186
1963.71	0.00181
1975.28	0.00178
1986.85	0.00185
1998.43	0.00181
2010	0.00173
2021.58	0.00164
2033.15	0.00155
2044.72	0.00146
2056.3	0.00146
2067.87	0.00143
2079.44	0.0014
2091.02	0.00137
2102.59	0.00139
2114.17	0.00145
2125.74	0.00149
2137.31	0.00145
2148.89	0.00139
2160.46	0.00136
2172.04	0.00131
2183.61	0.00125
2195.18	0.00121
2206.76	0.0012
2218.33	0.00123
2229.9	0.00127
2241.48	0.00123
2253.05	0.00123
2264.63	0.00122
2276.2	0.00124
2287.77	0.00128
2299.35	0.00133
2310.92	0.00132
2322.5	0.00135
2334.07	0.0013
2345.64	0.00128
2357.22	0.00124
2368.79	0.00122
2380.36	0.00122
2391.94	0.00124
2403.51	0.00126
2415.09	0.00129
2426.66	0.00124
2438.23	0.00122
2449.81	0.00121
2461.38	0.0013
2472.96	0.00134
2484.53	0.00132
2496.1	0.00131
2507.68	0.00133
2519.25	0.00133
2530.82	0.00132
2542.4	0.00132
2553.97	0.00128
2565.55	0.0013
2577.12	0.00134
2588.69	0.00136
2600.27	0.00136
2611.84	0.00135
2623.41	0.00148
2634.99	0.00156
2646.56	0.00156
2658.14	0.00144
2669.71	0.00131
2681.28	0.00123
2692.86	0.00125
2704.43	0.00132
2716.01	0.00129
2727.58	0.00127
2739.15	0.00139
2750.73	0.00151
2762.3	0.00166
2773.87	0.00177
2785.45	0.00185
2797.02	0.00214
2808.6	0.0032
2820.17	0.00372
2831.74	0.00289
2843.32	0.00277
2854.89	0.00315
2866.47	0.00403
2878.04	0.00535
2889.61	0.00688
2901.19	0.00863
2912.76	0.01022
2924.33	0.01101
2935.91	0.01215
2947.48	0.01351
2959.06	0.01237
2970.63	0.00865
2982.2	0.00613
2993.78	0.00543
3005.35	0.00589
3016.92	0.00824
3028.5	0.01098
3040.07	0.01053
3051.65	0.01025
3063.22	0.01161
3074.79	0.01147
3086.37	0.00923
3097.94	0.00544
3109.52	0.00345
3121.09	0.0026
3132.66	0.00214
3144.24	0.00188
3155.81	0.00189
3167.38	0.00193
3178.96	0.00187
3190.53	0.00172
3202.11	0.00163
3213.68	0.00166
3225.25	0.00173
3236.83	0.00174
3248.4	0.00183
3259.98	0.00204
3271.55	0.00233
3283.12	0.00263
3294.7	0.00318
3306.27	0.00407
3317.84	0.00442
3329.42	0.00481
3340.99	0.00753
3352.57	0.01556
3364.14	0.02475
3375.71	0.0192
3387.29	0.00919
3398.86	0.00463
3410.43	0.00317
3422.01	0.00289
3433.58	0.00312
3445.16	0.00348
3456.73	0.00415
3468.3	0.00573
3479.88	0.00975
3491.45	0.01653
3503.03	0.01974
3514.6	0.01289
3526.17	0.00538
3537.75	0.00285
3549.32	0.0021
3560.89	0.00179
3572.47	0.0015
3584.04	0.00138
3595.62	0.00136
3607.19	0.00128
3618.76	0.00122
3630.34	0.00123
3641.91	0.00121
3653.49	0.00119
3665.06	0.00119
3676.63	0.00118
3688.21	0.00123
3699.78	0.00121
3711.35	0.00109
3722.93	0.00111
3734.5	0.00114
3746.08	0.0011
3757.65	0.00102
3769.22	0.00105
3780.8	0.00103
3792.37	0.00105
3803.94	0.00111
3815.52	0.00113
3827.09	0.00112
3838.67	0.00109
3850.24	0.0011
3861.81	0.00109
3873.39	0.00113
3884.96	0.00121
3896.54	0.00119
3908.11	0.00127
3919.68	0.00128
3931.26	0.00128
3942.83	0.00118
3954.4	0.0012
3965.98	0.00112
3977.55	0.00113
3989.13	0.00112
4000.7	0.00118
