Infrared Spectrum: Diethyl n-hexadecylmalonate
Formula: C 23 H 44 O 4
CAS: 41433-81-2
State: gas
Origin: EPA-IR VAPOR PHASE LIBRARY
1/CM	ABSORBANCE
549.9	0.0024474
559.547	0.0023266
569.193	0.00215823
578.84	0.00222015
588.486	0.0024517
598.133	0.0023298
607.779	0.0022641
617.426	0.002011
627.072	0.001635
636.719	0.001562
646.365	0.001643
656.012	0.001826
665.658	0.0023115
675.305	0.002586
684.951	0.0029697
694.598	0.00356
704.245	0.00452
713.891	0.00569
723.538	0.00586
733.184	0.00516
742.831	0.00469
752.477	0.00442
762.124	0.00432
771.77	0.00436
781.417	0.00434
791.063	0.00398
800.71	0.00376
810.356	0.00359
820.003	0.00353
829.649	0.00383
839.296	0.00443
848.943	0.00608
858.589	0.00838
868.236	0.00793
877.882	0.00532
887.529	0.00382
897.175	0.00338
906.822	0.00338
916.468	0.00346
926.115	0.00373
935.761	0.00411
945.408	0.00457
955.054	0.00473
964.701	0.00463
974.347	0.00463
983.994	0.00514
993.64	0.00667
1003.29	0.01028
1012.93	0.01759
1022.58	0.02966
1032.23	0.04235
1041.87	0.04379
1051.52	0.03714
1061.17	0.0297
1070.81	0.02537
1080.46	0.02584
1090.11	0.03218
1099.75	0.04003
1109.4	0.04146
1119.05	0.04894
1128.69	0.06195
1138.34	0.08424
1147.99	0.0952
1157.63	0.08821
1167.28	0.08127
1176.92	0.0774
1186.57	0.07375
1196.22	0.07106
1205.86	0.07058
1215.51	0.07245
1225.16	0.07484
1234.8	0.07556
1244.45	0.07435
1254.1	0.07084
1263.74	0.06398
1273.39	0.0556
1283.04	0.0487
1292.68	0.04422
1302.33	0.04227
1311.98	0.03775
1321.62	0.03336
1331.27	0.03338
1340.92	0.03057
1350.56	0.02452
1360.21	0.02258
1369.86	0.03162
1379.5	0.02173
1389.15	0.01481
1398.79	0.01204
1408.44	0.01024
1418.09	0.00948
1427.73	0.01026
1437.38	0.01442
1447.03	0.02315
1456.67	0.02992
1466.32	0.03055
1475.97	0.01987
1485.61	0.01079
1495.26	0.0065
1504.91	0.00458
1514.55	0.00358
1524.2	0.0030383
1533.85	0.0027367
1543.49	0.0024117
1553.14	0.0022928
1562.79	0.0020681
1572.43	0.001981
1582.08	0.001859
1591.73	0.001883
1601.37	0.001877
1611.02	0.001907
1620.67	0.001902
1630.31	0.002054
1639.96	0.00218095
1649.6	0.0024625
1659.25	0.0027696
1668.9	0.00339
1678.54	0.0043
1688.19	0.0058
1697.84	0.0084
1707.48	0.0129
1717.13	0.01964
1726.78	0.0347
1736.42	0.07406
1746.07	0.14618
1755.72	0.13373
1765.36	0.10938
1775.01	0.05485
1784.66	0.02435
1794.3	0.01357
1803.95	0.00878
1813.6	0.00611
1823.24	0.00444
1832.89	0.00334
1842.54	0.0026307
1852.18	0.0022531
1861.83	0.001988
1871.47	0.001913
1881.12	0.001913
1890.77	0.001895
1900.41	0.001772
1910.06	0.001612
1919.71	0.001405
1929.35	0.001267
1939	0.001176
1948.65	0.00114
1958.29	0.00114
1967.94	0.00114
1977.59	0.00113
1987.23	0.001167
1996.88	0.001188
2006.53	0.00127
2016.17	0.001307
2025.82	0.001356
2035.47	0.001363
2045.11	0.001352
2054.76	0.0013
2064.41	0.00132
2074.05	0.001343
2083.7	0.00138
2093.35	0.001531
2102.99	0.001982
2112.64	0.0030643
2122.28	0.00523
2131.93	0.00586
2141.58	0.0031502
2151.22	0.001505
2160.87	0.00104
2170.52	0.00087
2180.16	0.00079
2189.81	0.00073
2199.46	0.00073
2209.1	0.00073
2218.75	0.00069
2228.4	0.00072
2238.04	0.00071
2247.69	0.00074
2257.34	0.00071
2266.98	0.00075
2276.63	0.0008
2286.28	0.00087
2295.92	0.00101
2305.57	0.001192
2315.22	0.001399
2324.86	0.001485
2334.51	0.001412
2344.16	0.001371
2353.8	0.001442
2363.45	0.001655
2373.09	0.001426
2382.74	0.00091
2392.39	0.00075
2402.03	0.00067
2411.68	0.00076
2421.33	0.0007
2430.97	0.00068
2440.62	0.00064
2450.27	0.00057
2459.91	0.00054
2469.56	0.00055
2479.21	0.00048
2488.85	0.00047
2498.5	0.00049
2508.15	0.00055
2517.79	0.0006
2527.44	0.00067
2537.09	0.00074
2546.73	0.00072
2556.38	0.00071
2566.03	0.00067
2575.67	0.00081
2585.32	0.00087
2594.96	0.00101
2604.61	0.00106
2614.26	0.001188
2623.9	0.001329
2633.55	0.001401
2643.2	0.001621
2652.84	0.001756
2662.49	0.001907
2672.14	0.00216336
2681.78	0.0023318
2691.43	0.0023317
2701.08	0.0020968
2710.72	0.00197
2720.37	0.0021157
2730.02	0.0022951
2739.66	0.002461
2749.31	0.0026508
2758.96	0.0029921
2768.6	0.00342
2778.25	0.00406
2787.9	0.00482
2797.54	0.00602
2807.19	0.00751
2816.84	0.00987
2826.48	0.01323
2836.13	0.01859
2845.77	0.03309
2855.42	0.07953
2865.07	0.11038
2874.71	0.07408
2884.36	0.05851
2894.01	0.05821
2903.65	0.08118
2913.3	0.12528
2922.95	0.21465
2932.59	0.31463
2942.24	0.22066
2951.89	0.12406
2961.53	0.09549
2971.18	0.08254
2980.83	0.06803
2990.47	0.0552
3000.12	0.0349
3009.77	0.02292
3019.41	0.01462
3029.06	0.00984
3038.71	0.007
3048.35	0.00516
3058	0.00399
3067.64	0.00325
3077.29	0.0025829
3086.94	0.0023773
3096.58	0.001949
3106.23	0.001782
3115.88	0.001624
3125.52	0.001416
3135.17	0.001452
3144.82	0.001165
3154.46	0.001163
3164.11	0.00096
3173.76	0.00088
3183.4	0.00071
3193.05	0.00058
3202.7	0.00055
3212.34	0.0005
3221.99	0.00035
3231.64	0.00025
3241.28	0.00021
3250.93	0.00013
3260.58	6e-05
3270.22	0.00016
3279.87	0.00014
3289.52	8e-05
3299.16	0.00012
3308.81	0.00015
3318.45	8e-05
3328.1	0.0003
3337.75	0.00035
3347.39	0.00022
3357.04	0.00044
3366.69	0.0003
3376.33	0.00044
3385.98	0.00051
3395.63	0.00055
3405.27	0.00051
3414.92	0.00051
3424.57	0.00051
3434.21	0.00075
3443.86	0.0008
3453.51	0.00087
3463.15	0.00106
3472.8	0.001317
3482.45	0.001764
3492.09	0.001966
3501.74	0.001563
3511.39	0.001199
3521.03	0.00103
3530.68	0.00079
3540.33	0.00071
3549.97	0.00053
3559.62	0.00063
3569.26	0.00051
3578.91	0.00057
3588.56	0.00045
3598.2	0.00055
3607.85	0.00072
3617.5	0.0006
3627.14	0.00069
3636.79	0.00082
3646.44	0.00068
3656.08	0.00071
3665.73	0.00077
3675.38	0.00068
3685.02	0.00084
3694.67	0.00072
3704.32	0.00069
3713.96	0.00071
3723.61	0.00071
3733.26	0.00079
3742.9	0.00068
3752.55	0.00074
3762.2	0.00071
3771.84	0.00076
3781.49	0.00081
3791.13	0.00081
3800.78	0.00094
3810.43	0.00082
3820.07	0.00076
3829.72	0.00074
3839.37	0.00073
3849.01	0.00081
3858.66	0.00085
3868.31	0.00086
3877.95	0.00076
3887.6	0.00082
3897.25	0.0007
3906.89	0.00079
3916.54	0.00079
3926.19	0.00088
3935.83	0.00083
3945.48	0.00095
3955.13	0.00089
3964.77	0.00094
3974.42	0.00095
3984.07	0.00111
3993.71	0.00106
