Infrared Spectrum: (2-Thienylthio)acetone
Formula: C 7 H 8 O S 2
CAS: 41444-33-1
State: gas
Origin: EPA-IR VAPOR PHASE LIBRARY
1/CM	ABSORBANCE
549.8	0.0072
559.445	0.00678
569.09	0.00612
578.734	0.00537
588.379	0.00326
598.024	0.00254
607.669	0.00308
617.313	0.0018921
626.958	0.0020493
636.603	0.00333
646.248	0.00451
655.893	0.00537
665.537	0.00861
675.182	0.01424
684.827	0.02999
694.472	0.05863
704.116	0.0458
713.761	0.01756
723.406	0.00808
733.051	0.00578
742.695	0.00343
752.34	0.00371
761.985	0.00388
771.63	0.0033
781.275	0.0037
790.919	0.00445
800.564	0.00445
810.209	0.00626
819.854	0.00892
829.498	0.01296
839.143	0.01501
848.788	0.01463
858.433	0.00954
868.078	0.00505
877.722	0.00263
887.367	0.00279
897.012	0.0024118
906.657	0.002144
916.301	0.0024299
925.946	0.0024339
935.591	0.00323
945.236	0.0041
954.88	0.00445
964.525	0.007
974.17	0.00937
983.815	0.01157
993.46	0.01203
1003.1	0.01015
1012.75	0.00568
1022.39	0.00527
1032.04	0.00425
1041.68	0.00342
1051.33	0.00639
1060.97	0.00524
1070.62	0.00294
1080.26	0.00495
1089.91	0.0051
1099.55	0.00473
1109.2	0.00678
1118.84	0.00652
1128.49	0.01328
1138.13	0.01765
1147.78	0.01674
1157.42	0.01394
1167.07	0.01248
1176.71	0.01286
1186.36	0.01307
1196	0.02062
1205.64	0.03553
1215.29	0.05124
1224.93	0.04743
1234.58	0.02819
1244.22	0.01574
1253.87	0.01396
1263.51	0.01371
1273.16	0.012
1282.8	0.00969
1292.45	0.00688
1302.09	0.00579
1311.74	0.00576
1321.38	0.00691
1331.03	0.00892
1340.67	0.01365
1350.32	0.02269
1359.96	0.03149
1369.61	0.02667
1379.25	0.0191
1388.9	0.01913
1398.54	0.02214
1408.18	0.02107
1417.83	0.01519
1427.47	0.0108
1437.12	0.00831
1446.76	0.00668
1456.41	0.00608
1466.05	0.00511
1475.7	0.00468
1485.34	0.00397
1494.99	0.00429
1504.63	0.00471
1514.28	0.00503
1523.92	0.00548
1533.57	0.00501
1543.21	0.00387
1552.86	0.00337
1562.5	0.0038
1572.15	0.00359
1581.79	0.00407
1591.44	0.00401
1601.08	0.00414
1610.73	0.00314
1620.37	0.00327
1630.01	0.00392
1639.66	0.00407
1649.3	0.00461
1658.95	0.0051
1668.59	0.00612
1678.24	0.00753
1687.88	0.01137
1697.53	0.01776
1707.17	0.02969
1716.82	0.05071
1726.46	0.07486
1736.11	0.07126
1745.75	0.04437
1755.4	0.02662
1765.04	0.01661
1774.69	0.01118
1784.33	0.0081
1793.98	0.0061
1803.62	0.00436
1813.27	0.00319
1822.91	0.00262
1832.55	0.00255
1842.2	0.0023754
1851.84	0.0024137
1861.49	0.0023892
1871.13	0.0019881
1880.78	0.001953
1890.42	0.0018897
1900.07	0.0021044
1909.71	0.0020073
1919.36	0.0021901
1929	0.001921
1938.65	0.00154747
1948.29	0.00168
1957.94	0.0016961
1967.58	0.0019937
1977.23	0.0016137
1986.87	0.0017629
1996.52	0.001654
2006.16	0.0017169
2015.81	0.0020129
2025.45	0.0019508
2035.1	0.0016863
2044.74	0.0019051
2054.38	0.0018026
2064.03	0.0020091
2073.67	0.0018071
2083.32	0.0017257
2092.96	0.0018355
2102.61	0.0018742
2112.25	0.0019181
2121.9	0.0017636
2131.54	0.0019583
2141.19	0.0021117
2150.83	0.0017778
2160.48	0.0015817
2170.12	0.0022078
2179.77	0.0020439
2189.41	0.0017307
2199.06	0.001822
2208.7	0.00154612
2218.35	0.001284
2227.99	0.00155624
2237.64	0.0014021
2247.28	0.0018205
2256.92	0.00146222
2266.57	0.0013735
2276.21	0.00146698
2285.86	0.001323
2295.5	0.00155406
2305.15	0.0013757
2314.79	0.001315
2324.44	0.001364
2334.08	0.00136
2343.73	0.0017533
2353.37	0.0017097
2363.02	0.00151797
2372.66	0.0014303
2382.31	0.0018685
2391.95	0.0019537
2401.6	0.0016566
2411.24	0.0016602
2420.89	0.00137
2430.53	0.0017622
2440.18	0.0016085
2449.82	0.001444
2459.47	0.001179
2469.11	0.0013782
2478.75	0.001369
2488.4	0.001162
2498.04	0.0016376
2507.69	0.0014068
2517.33	0.0014004
2526.98	0.00134
2536.62	0.0014323
2546.27	0.0016851
2555.91	0.0017514
2565.56	0.00153998
2575.2	0.0016092
2584.85	0.000998
2594.49	0.00151297
2604.14	0.001308
2613.78	0.00152027
2623.43	0.001335
2633.07	0.001117
2642.72	0.001354
2652.36	0.0013875
2662.01	0.0014109
2671.65	0.0013867
2681.29	0.0014195
2690.94	0.001212
2700.58	0.000884
2710.23	0.001206
2719.87	0.00155332
2729.52	0.0018961
2739.16	0.0018912
2748.81	0.0018895
2758.45	0.001247
2768.1	0.001323
2777.74	0.0019081
2787.39	0.001168
2797.03	0.0018537
2806.68	0.00155727
2816.32	0.0017746
2825.97	0.0017632
2835.61	0.0014266
2845.26	0.0016459
2854.9	0.0016851
2864.55	0.0017707
2874.19	0.0021105
2883.84	0.0021913
2893.48	0.00355
2903.12	0.00434
2912.77	0.00559
2922.41	0.00786
2932.06	0.00827
2941.7	0.00643
2951.35	0.00539
2960.99	0.00439
2970.64	0.00455
2980.28	0.00432
2989.93	0.00467
2999.57	0.00426
3009.22	0.0045
3018.86	0.00451
3028.51	0.00374
3038.15	0.0031
3047.8	0.00285
3057.44	0.00332
3067.09	0.00364
3076.73	0.00625
3086.38	0.00647
3096.02	0.0045
3105.67	0.00387
3115.31	0.00377
3124.95	0.0024115
3134.6	0.00155802
3144.24	0.0017978
3153.89	0.001288
3163.53	0.0020889
3173.18	0.00148584
3182.82	0.0014413
3192.47	0.00155494
3202.11	0.0014561
3211.76	0.000842
3221.4	0.0015819
3231.05	0.0014145
3240.69	0.000774
3250.34	0.000715
3259.98	0.001079
3269.63	0.000551
3279.27	0.000664
3288.92	0.00147078
3298.56	0.0019119
3308.21	0.000749
3317.85	0.00119
3327.49	0.001025
3337.14	0.000578
3346.78	0.0017465
3356.43	0.001081
3366.07	0.00107
3375.72	0.001296
3385.36	0.001276
3395.01	0.0014099
3404.65	0.00156912
3414.3	0.0022021
3423.94	0.002206
3433.59	0.00293
3443.23	0.00263
3452.88	0.0021599
3462.52	0.0019035
3472.17	0.001213
3481.81	0.0019317
3491.46	0.0017258
3501.1	0.0018193
3510.75	0.0014312
3520.39	0.001029
3530.04	0.00084
3539.68	0.0015749
3549.32	0.000969
3558.97	0.0014391
3568.61	0.0024349
3578.26	0.00153804
3587.9	0.0017201
3597.55	0.0017817
3607.19	0.00125
3616.84	0.000558
3626.48	0.00150551
3636.13	0.001211
3645.77	0.00092
3655.42	0.001241
3665.06	0.001141
3674.71	0.00155086
3684.35	0.0019972
3694	0.000504
3703.64	0.0015958
3713.29	0.001222
3722.93	0.000991
3732.58	0.00109
3742.22	0.0018923
3751.86	0.000808
3761.51	0.0014736
3771.15	0.000759
3780.8	0.0015742
3790.44	0.001128
3800.09	0.001084
3809.73	0.0001
3819.38	0.00148258
3829.02	0.0016055
3838.67	0.00154315
3848.31	0.000806
3857.96	0.00057
3867.6	0.000694
3877.25	0.000639
3886.89	0.002066
3896.54	0.000827
3906.18	0.001357
3915.83	0.0014612
3925.47	0.001354
3935.12	0.001012
3944.76	0.0023953
3954.41	0.001308
3964.05	0.00038
3973.69	0.001345
3983.34	0.0014349
3992.98	0.00059
