Infrared Spectrum: 2-AMINO-1-PROPANETHIOL HYDROCHLORIDE
Formula: C3 H9 N S  * H Cl
CAS: 4145-98-6
State: SOLID
Melting point: 95.5-97 C
Class: COBLENTZ
Instrument: Not specified, most likely a prism, grating, or hybrid spectrometer.
Sampling: TRANSMISSION
Resolution: 4
Origin: ARTHUR D. LITTLE, INC.
MICROMETERS	TRANSMITTANCE
1.982	0.848
2.01833	0.85
2.05466	0.848
2.09099	0.85
2.12732	0.85
2.16365	0.85
2.19997	0.85
2.2363	0.845
2.27263	0.842
2.30896	0.836
2.34529	0.83
2.38162	0.826
2.41795	0.827
2.45428	0.832
2.49061	0.832
2.52694	0.838
2.56327	0.844
2.59959	0.847
2.63592	0.85
2.67225	0.85
2.70858	0.857
2.74491	0.859
2.78124	0.859
2.81757	0.857
2.8539	0.848
2.89023	0.827
2.92656	0.806
2.96289	0.805
2.99921	0.803
3.03554	0.802
3.07187	0.794
3.1082	0.715
3.14453	0.55
3.18086	0.434
3.21719	0.319
3.25352	0.191
3.28985	0.143
3.32618	0.125
3.3625	0.113
3.39883	0.101
3.43516	0.097
3.47149	0.095
3.50782	0.094
3.54415	0.097
3.58048	0.1
3.61681	0.109
3.65314	0.116
3.68947	0.14
3.7258	0.178
3.76212	0.214
3.79845	0.287
3.83478	0.322
3.87111	0.262
3.90744	0.274
3.94377	0.305
3.9801	0.272
4.01643	0.175
4.05276	0.272
4.08909	0.436
4.12542	0.502
4.16174	0.589
4.19807	0.613
4.2344	0.614
4.27073	0.631
4.30706	0.658
4.34339	0.734
4.37972	0.748
4.41605	0.74
4.45238	0.76
4.48871	0.766
4.52504	0.769
4.56136	0.769
4.59769	0.751
4.63402	0.743
4.67035	0.764
4.70668	0.772
4.74301	0.764
4.77934	0.755
4.81567	0.719
4.852	0.668
4.88833	0.643
4.92466	0.562
4.96098	0.448
4.99731	0.34
5.03364	0.329
5.06997	0.434
5.1063	0.454
5.14263	0.533
5.17896	0.596
5.21529	0.652
5.25162	0.7
5.28795	0.73
5.32428	0.751
5.3606	0.761
5.39693	0.757
5.43326	0.764
5.46959	0.785
5.50592	0.79
5.54225	0.79
5.57858	0.782
5.61491	0.779
5.65124	0.781
5.68757	0.778
5.72389	0.776
5.76022	0.776
5.79655	0.77
5.83288	0.769
5.86921	0.767
5.90554	0.766
5.94187	0.764
5.9782	0.752
6.01453	0.734
6.05086	0.719
6.08719	0.698
6.12351	0.68
6.15984	0.602
6.19617	0.28
6.2325	0.131
6.26883	0.148
6.30516	0.325
6.34149	0.502
6.37782	0.575
6.41415	0.608
6.45048	0.619
6.48681	0.623
6.52313	0.562
6.55946	0.434
6.59579	0.344
6.63212	0.391
6.66845	0.418
6.70478	0.548
6.74111	0.61
6.77744	0.626
6.81377	0.529
6.8501	0.535
6.88643	0.617
6.92275	0.646
6.95908	0.598
6.99541	0.415
7.03174	0.583
7.06807	0.634
7.1044	0.629
7.14073	0.553
7.17706	0.488
7.21339	0.469
7.24972	0.356
7.28605	0.545
7.32237	0.677
7.3587	0.722
7.39503	0.577
7.43136	0.626
7.46769	0.743
7.50402	0.766
7.54035	0.778
7.57668	0.791
7.61301	0.805
7.64934	0.809
7.68567	0.811
7.72199	0.814
7.75832	0.811
7.79465	0.808
7.83098	0.802
7.86731	0.778
7.90364	0.668
7.93997	0.461
7.9763	0.349
8.01263	0.497
8.04896	0.673
8.08528	0.737
8.12161	0.752
8.15794	0.751
8.19427	0.71
8.2306	0.59
8.26693	0.364
8.30326	0.151
8.33959	0.121
8.37592	0.227
8.41225	0.398
8.44858	0.533
8.4849	0.605
8.52123	0.676
8.55756	0.71
8.59389	0.721
8.63022	0.692
8.66655	0.503
8.70288	0.28
8.73921	0.307
8.77554	0.499
8.81187	0.611
8.8482	0.638
8.88452	0.724
8.92085	0.769
8.95718	0.784
8.99351	0.785
9.02984	0.778
9.06617	0.773
9.1025	0.749
9.13883	0.607
9.17516	0.487
9.21149	0.637
9.24782	0.764
9.28414	0.794
9.32047	0.818
9.3568	0.841
9.39313	0.86
9.42946	0.866
9.46579	0.872
9.50212	0.875
9.53845	0.88
9.57478	0.881
9.61111	0.884
9.64744	0.889
9.68376	0.887
9.72009	0.878
9.75642	0.827
9.79275	0.682
9.82908	0.514
9.86541	0.58
9.90174	0.73
9.93807	0.815
9.9744	0.86
10.0107	0.856
10.0471	0.838
10.0834	0.797
10.1197	0.677
10.156	0.445
10.1924	0.425
10.2287	0.571
10.265	0.707
10.3014	0.796
10.3377	0.82
10.374	0.836
10.4103	0.841
10.4467	0.835
10.483	0.749
10.5193	0.527
10.5557	0.487
10.592	0.421
10.6283	0.331
10.6646	0.512
10.701	0.697
10.7373	0.796
10.7736	0.835
10.81	0.859
10.8463	0.874
10.8826	0.881
10.919	0.892
10.9553	0.896
10.9916	0.901
11.0279	0.907
11.0643	0.913
11.1006	0.916
11.1369	0.914
11.1733	0.911
11.2096	0.91
11.2459	0.908
11.2822	0.905
11.3186	0.904
11.3549	0.901
11.3912	0.899
11.4276	0.898
11.4639	0.899
11.5002	0.901
11.5365	0.901
11.5729	0.899
11.6092	0.899
11.6455	0.901
11.6819	0.898
11.7182	0.896
11.7545	0.89
11.7909	0.887
11.8272	0.875
11.8635	0.827
11.8998	0.728
11.9362	0.553
11.9725	0.476
12.0088	0.619
12.0452	0.746
12.0815	0.821
12.1178	0.853
12.1541	0.869
12.1905	0.875
12.2268	0.878
12.2631	0.881
12.2995	0.883
12.3358	0.881
12.3721	0.884
12.4084	0.887
12.4448	0.889
12.4811	0.889
12.5174	0.889
12.5538	0.884
12.5901	0.871
12.6264	0.83
12.6627	0.794
12.6991	0.781
12.7354	0.806
12.7717	0.857
12.8081	0.886
12.8444	0.902
12.8807	0.919
12.9171	0.926
12.9534	0.938
12.9897	0.941
13.026	0.947
13.0624	0.952
13.0987	0.958
13.135	0.965
13.1714	0.965
13.2077	0.967
13.244	0.968
13.2803	0.968
13.3167	0.971
13.353	0.974
13.3893	0.976
13.4257	0.976
13.462	0.971
13.4983	0.97
13.5346	0.965
13.571	0.962
13.6073	0.946
13.6436	0.892
13.68	0.781
13.7163	0.626
13.7526	0.55
13.7889	0.556
13.8253	0.637
13.8616	0.724
13.8979	0.785
13.9343	0.833
13.9706	0.863
14.0069	0.881
14.0433	0.895
14.0796	0.908
14.1159	0.916
14.1522	0.923
14.1886	0.929
14.2249	0.934
14.2612	0.94
14.2976	0.943
14.3339	0.947
14.3702	0.956
14.4065	0.961
14.4429	0.961
14.4792	0.962
14.5155	0.964
14.5519	0.967
14.5882	0.967
14.6245	0.967
14.6608	0.97
14.6972	0.971
14.7335	0.971
14.7698	0.971
14.8062	0.973
14.8425	0.973
14.8788	0.976
14.9152	0.979
14.9515	0.976
14.9878	0.976
15.0241	0.976
15.0605	0.979
15.0968	0.979
15.1331	0.979
