Infrared Spectrum: 2-AMINO-1-BUTANETHIOL HYDROCHLORIDE
Formula: C4 H11 N S  * H Cl
CAS: 4145-99-7
State: SOLID (MINERAL OIL MULL)
Melting point: 149-151 C
Class: COBLENTZ
Instrument: Not specified, most likely a prism, grating, or hybrid spectrometer.
Sampling: TRANSMISSION
Resolution: 4
Origin: ARTHUR D. LITTLE, INC.
MICROMETERS	TRANSMITTANCE
2.506	0.719
2.54218	0.729
2.57836	0.738
2.61454	0.74
2.65072	0.743
2.6869	0.748
2.72308	0.756
2.75926	0.759
2.79544	0.756
2.83162	0.755
2.8678	0.754
2.90398	0.756
2.94016	0.76
2.97634	0.759
3.01252	0.746
3.04869	0.655
3.08487	0.555
3.12105	0.434
3.15723	0.322
3.19341	0.216
3.22959	0.11
3.26577	0.062
3.30195	0.048
3.33813	0.041
3.37431	0.035
3.41049	0.032
3.44667	0.032
3.48285	0.035
3.51903	0.042
3.55521	0.105
3.59139	0.175
3.62757	0.235
3.66375	0.287
3.69993	0.308
3.73611	0.422
3.77229	0.442
3.80847	0.395
3.84465	0.426
3.88083	0.461
3.91701	0.431
3.95319	0.38
3.98937	0.405
4.02555	0.511
4.06173	0.577
4.0979	0.636
4.13408	0.675
4.17026	0.689
4.20644	0.689
4.24262	0.694
4.2788	0.715
4.31498	0.743
4.35116	0.75
4.38734	0.758
4.42352	0.758
4.4597	0.755
4.49588	0.758
4.53206	0.753
4.56824	0.755
4.60442	0.755
4.6406	0.756
4.67678	0.759
4.71296	0.749
4.74914	0.723
4.78532	0.704
4.8215	0.679
4.85768	0.629
4.89386	0.575
4.93004	0.521
4.96622	0.515
5.0024	0.55
5.03858	0.576
5.07476	0.613
5.11094	0.685
5.14711	0.723
5.18329	0.741
5.21947	0.752
5.25565	0.758
5.29183	0.761
5.32801	0.764
5.36419	0.767
5.40037	0.769
5.43655	0.769
5.47273	0.77
5.50891	0.771
5.54509	0.77
5.58127	0.771
5.61745	0.772
5.65363	0.771
5.68981	0.769
5.72599	0.767
5.76217	0.769
5.79835	0.771
5.83453	0.771
5.87071	0.767
5.90689	0.764
5.94307	0.759
5.97925	0.756
6.01543	0.75
6.05161	0.744
6.08779	0.733
6.12397	0.713
6.16014	0.605
6.19632	0.394
6.2325	0.228
6.26868	0.11
6.30486	0.326
6.34104	0.551
6.37722	0.657
6.4134	0.68
6.44958	0.686
6.48576	0.681
6.52194	0.628
6.55812	0.539
6.5943	0.284
6.63048	0.088
6.66666	0.102
6.70284	0.305
6.73902	0.449
6.7752	0.409
6.81138	0.245
6.84756	0.122
6.88374	0.155
6.91992	0.299
6.9561	0.399
6.99228	0.417
7.02846	0.486
7.06464	0.64
7.10082	0.666
7.137	0.661
7.17318	0.603
7.20935	0.557
7.24553	0.409
7.28171	0.471
7.31789	0.57
7.35407	0.651
7.39025	0.667
7.42643	0.675
7.46261	0.679
7.49879	0.673
7.53497	0.573
7.57115	0.622
7.60733	0.648
7.64351	0.607
7.67969	0.475
7.71587	0.535
7.75205	0.683
7.78823	0.694
7.82441	0.703
7.86059	0.701
7.89677	0.685
7.93295	0.663
7.96913	0.662
8.00531	0.688
8.04149	0.708
8.07767	0.719
8.11385	0.708
8.15003	0.654
8.18621	0.607
8.22239	0.697
8.25856	0.717
8.29474	0.723
8.33092	0.726
8.3671	0.729
8.40328	0.725
8.43946	0.706
8.47564	0.639
8.51182	0.643
8.548	0.701
8.58418	0.726
8.62036	0.736
8.65654	0.741
8.69272	0.742
8.7289	0.742
8.76508	0.738
8.80126	0.726
8.83744	0.696
8.87362	0.65
8.9098	0.539
8.94598	0.459
8.98216	0.437
9.01834	0.501
9.05452	0.603
9.0907	0.684
9.12688	0.719
9.16306	0.737
9.19924	0.752
9.23542	0.756
9.2716	0.759
9.30777	0.759
9.34395	0.758
9.38013	0.759
9.41631	0.761
9.45249	0.762
9.48867	0.76
9.52485	0.752
9.56103	0.714
9.59721	0.678
9.63339	0.69
9.66957	0.7
9.70575	0.694
9.74193	0.665
9.77811	0.587
9.81429	0.461
9.85047	0.376
9.88665	0.376
9.92283	0.55
9.95901	0.654
9.99519	0.66
10.0314	0.661
10.0675	0.672
10.1037	0.685
10.1399	0.703
10.1761	0.724
10.2123	0.731
10.2484	0.731
10.2846	0.731
10.3208	0.731
10.357	0.731
10.3932	0.732
10.4293	0.741
10.4655	0.749
10.5017	0.75
10.5379	0.75
10.5741	0.75
10.6102	0.75
10.6464	0.747
10.6826	0.747
10.7188	0.744
10.755	0.73
10.7911	0.718
10.8273	0.717
10.8635	0.731
10.8997	0.749
10.9359	0.761
10.972	0.776
11.0082	0.777
11.0444	0.778
11.0806	0.778
11.1168	0.778
11.1529	0.779
11.1891	0.779
11.2253	0.779
11.2615	0.779
11.2977	0.779
11.3338	0.779
11.37	0.779
11.4062	0.779
11.4424	0.779
11.4786	0.779
11.5147	0.779
11.5509	0.777
11.5871	0.772
11.6233	0.765
11.6595	0.762
11.6956	0.761
11.7318	0.761
11.768	0.762
11.8042	0.762
11.8404	0.764
11.8765	0.771
11.9127	0.775
11.9489	0.775
11.9851	0.776
12.0212	0.776
12.0574	0.776
12.0936	0.778
12.1298	0.778
12.166	0.777
12.2021	0.777
12.2383	0.777
12.2745	0.777
12.3107	0.777
12.3469	0.776
12.383	0.776
12.4192	0.776
12.4554	0.776
12.4916	0.776
12.5278	0.775
12.5639	0.773
12.6001	0.769
12.6363	0.758
12.6725	0.74
12.7087	0.718
12.7448	0.694
12.781	0.649
12.8172	0.59
12.8534	0.532
12.8896	0.496
12.9257	0.49
12.9619	0.575
12.9981	0.661
13.0343	0.726
13.0705	0.747
13.1066	0.754
13.1428	0.76
13.179	0.762
13.2152	0.765
13.2514	0.765
13.2875	0.764
13.3237	0.761
13.3599	0.754
13.3961	0.746
13.4323	0.735
13.4684	0.715
13.5046	0.691
13.5408	0.665
13.577	0.633
13.6132	0.607
13.6493	0.581
13.6855	0.557
13.7217	0.541
13.7579	0.539
13.7941	0.575
13.8302	0.61
13.8664	0.634
13.9026	0.667
13.9388	0.69
13.9749	0.708
14.0111	0.718
14.0473	0.725
14.0835	0.732
14.1197	0.736
14.1558	0.737
14.192	0.737
14.2282	0.737
14.2644	0.736
14.3006	0.735
14.3367	0.735
14.3729	0.733
14.4091	0.733
14.4453	0.732
14.4815	0.731
14.5176	0.725
14.5538	0.718
14.59	0.717
14.6262	0.714
14.6624	0.713
14.6985	0.709
14.7347	0.706
14.7709	0.7
14.8071	0.692
14.8433	0.685
14.8794	0.679
14.9156	0.672
14.9518	0.668
14.988	0.669
