Infrared Spectrum: Propionic acid, 3-bromo-2-(bromomethyl)-
Formula: C4 H6 Br2 O2
CAS: 41459-42-1
State: SOLID (1 mg / 650 mg KBr DISC)
Class: COBLENTZ III
Instrument: PERKIN-ELMER 521 (GRATING)
Instrument parameters: FILTERS AT 3150, 2500, 2000, 1150, 700, 410. GRATING CHANGES: 2000, 630
Resolution: 2
Origin: SOUTHERN RESEARCH INSTITUTE
1/CM	TRANSMITTANCE
251	0.2129
260	0.2512
269	0.3036
278	0.3779
287	0.4509
296	0.4945
305	0.529
314	0.552
323	0.5551
332	0.6063
341	0.6704
350	0.71
359	0.7474
368	0.7688
377	0.7869
386	0.8009
395	0.8079
404	0.8044
413	0.7676
422	0.8044
431	0.8408
440	0.8448
449	0.8431
458	0.8369
467	0.8197
476	0.7915
485	0.7485
494	0.6817
503	0.6334
512	0.7413
521	0.8049
530	0.8458
539	0.8591
548	0.8579
557	0.8443
566	0.8104
575	0.7353
584	0.5037
593	0.6061
602	0.4865
611	0.8716
620	0.8852
629	0.8818
638	0.8767
647	0.8493
656	0.7869
665	0.7751
674	0.8705
683	0.91
692	0.9117
701	0.9105
710	0.9053
719	0.8935
728	0.8718
737	0.8429
746	0.7991
755	0.7453
764	0.8347
773	0.8295
782	0.8109
791	0.7834
800	0.7
809	0.6108
818	0.7792
827	0.7721
836	0.7362
845	0.7139
854	0.5627
863	0.537
872	0.6715
881	0.6351
890	0.5799
899	0.5596
908	0.5345
917	0.5363
926	0.6256
935	0.6852
944	0.7352
953	0.7713
962	0.7994
971	0.817
980	0.8208
989	0.8186
998	0.82
1007	0.8454
1016	0.8529
1025	0.8558
1034	0.8557
1043	0.8522
1052	0.8457
1061	0.8318
1070	0.8
1079	0.7589
1088	0.8398
1097	0.8407
1106	0.8149
1115	0.8071
1124	0.807
1133	0.7867
1142	0.7607
1151	0.721
1160	0.6542
1169	0.5807
1178	0.4962
1187	0.4519
1196	0.4476
1205	0.6658
1214	0.6949
1223	0.6366
1232	0.438
1241	0.3708
1250	0.3768
1259	0.4217
1268	0.5681
1277	0.673
1286	0.6425
1295	0.4184
1304	0.4928
1313	0.548
1322	0.513
1331	0.6836
1340	0.7636
1349	0.7819
1358	0.7827
1367	0.7674
1376	0.7222
1385	0.6565
1394	0.5719
1403	0.4694
1412	0.5769
1421	0.5283
1430	0.4161
1439	0.5047
1448	0.7652
1457	0.8472
1466	0.8636
1475	0.8648
1484	0.8646
1493	0.8634
1502	0.8607
1511	0.8568
1520	0.8521
1529	0.8465
1538	0.841
1547	0.8341
1556	0.822
1565	0.8065
1574	0.7876
1583	0.7657
1592	0.745
1601	0.7225
1610	0.7001
1619	0.678
1628	0.6545
1637	0.6209
1646	0.5695
1655	0.4711
1664	0.3936
1673	0.2694
1682	0.1374
1691	0.0824
1700	0.122
1709	0.1825
1718	0.2756
1727	0.4743
1736	0.5818
1745	0.6671
1754	0.7277
1763	0.7587
1772	0.7765
1781	0.7869
1790	0.7964
1799	0.8096
1808	0.8247
1817	0.8392
1826	0.8457
1835	0.8474
1844	0.8486
1853	0.8514
1862	0.8595
1871	0.8645
1880	0.8656
1889	0.866
1898	0.8667
1907	0.8671
1916	0.8673
1925	0.8674
1934	0.8672
1943	0.8662
1952	0.865
1961	0.8654
1970	0.8663
1979	0.8653
1988	0.8625
1997	0.8577
2006	0.858
2015	0.8553
2024	0.8496
2033	0.8493
2042	0.8436
2051	0.8416
2060	0.8424
2069	0.8418
2078	0.8404
2087	0.8378
2096	0.8319
2105	0.8272
2114	0.8245
2123	0.8243
2132	0.8246
2141	0.8249
2150	0.8247
2159	0.8245
2168	0.823
2177	0.8205
2186	0.8172
2195	0.8129
2204	0.8088
2213	0.8055
2222	0.8023
2231	0.7991
2240	0.796
2249	0.793
2258	0.7893
2267	0.7851
2276	0.7809
2285	0.7761
2294	0.7712
2303	0.7658
2312	0.7594
2321	0.7525
2330	0.7452
2339	0.7377
2348	0.73
2357	0.7226
2366	0.7156
2375	0.7086
2384	0.7026
2393	0.6969
2402	0.6907
2411	0.6843
2420	0.6776
2429	0.668
2438	0.6572
2447	0.6459
2456	0.634
2465	0.621
2474	0.6061
2483	0.5924
2492	0.5836
2501	0.5767
2510	0.5732
2519	0.5698
2528	0.5579
2537	0.5491
2546	0.5445
2555	0.5433
2564	0.5439
2573	0.5406
2582	0.5404
2591	0.5488
2600	0.5438
2609	0.5324
2618	0.527
2627	0.5269
2636	0.5285
2645	0.5325
2654	0.541
2663	0.5491
2672	0.5472
2681	0.5435
2690	0.5403
2699	0.5401
2708	0.5387
2717	0.5358
2726	0.5353
2735	0.5413
2744	0.5433
2753	0.5385
2762	0.5278
2771	0.5232
2780	0.5175
2789	0.5033
2798	0.4908
2807	0.4791
2816	0.4702
2825	0.4627
2834	0.4535
2843	0.4438
2852	0.4372
2861	0.4313
2870	0.4205
2879	0.4243
2888	0.4383
2897	0.4393
2906	0.4379
2915	0.4387
2924	0.4398
2933	0.4409
2942	0.4413
2951	0.4362
2960	0.4269
2969	0.4228
2978	0.4224
2987	0.423
2996	0.4241
3005	0.4246
3014	0.4232
3023	0.4167
3032	0.4122
3041	0.4409
3050	0.4533
3059	0.4588
3068	0.4629
3077	0.4702
3086	0.4795
3095	0.4907
3104	0.503
3113	0.5169
3122	0.5292
3131	0.5394
3140	0.5464
3149	0.556
3158	0.5739
3167	0.588
3176	0.6
3185	0.6119
3194	0.6258
3203	0.6414
3212	0.6548
3221	0.6657
3230	0.6765
3239	0.6876
3248	0.699
3257	0.7094
3266	0.7196
3275	0.729
3284	0.737
3293	0.7431
3302	0.748
3311	0.7524
3320	0.7563
3329	0.7591
3338	0.7607
3347	0.7622
3356	0.7624
3365	0.7627
3374	0.7628
3383	0.7628
3392	0.7628
3401	0.7628
3410	0.7627
3419	0.7626
3428	0.7631
3437	0.7667
3446	0.7703
3455	0.774
3464	0.7779
3473	0.7817
3482	0.785
3491	0.7886
3500	0.7939
3509	0.8006
3518	0.8055
3527	0.8115
3536	0.8181
3545	0.8233
3554	0.8275
3563	0.833
3572	0.8383
3581	0.843
3590	0.8475
3599	0.8514
3608	0.8552
3617	0.8588
3626	0.862
3635	0.8643
3644	0.8656
3653	0.8669
3662	0.8674
3671	0.8649
3680	0.8651
3689	0.8702
3698	0.874
3707	0.8747
3716	0.8734
3725	0.8715
3734	0.8697
3743	0.8688
3752	0.8683
3761	0.8682
3770	0.8681
3779	0.8676
3788	0.8652
3797	0.8627
