Infrared Spectrum: 2,4,4-TRIMETHYL-Delta^2-THIAZOLINE
Formula: C6 H11 N S
CAS: 4145-94-2
State: LIQUID
Boiling point: 67 C AT 49 mmHg
Class: COBLENTZ
Instrument: Not specified, most likely a prism, grating, or hybrid spectrometer.
Sampling: TRANSMISSION
Resolution: 4
Origin: ARTHUR D. LITTLE, INC.
MICROMETERS	TRANSMITTANCE
2.491	0.95
2.52382	0.951
2.55664	0.964
2.58946	0.957
2.62227	0.948
2.65509	0.933
2.68791	0.916
2.72073	0.905
2.75355	0.891
2.78637	0.87
2.81918	0.861
2.852	0.857
2.88482	0.868
2.91764	0.895
2.95046	0.882
2.98328	0.847
3.01609	0.856
3.04891	0.892
3.08173	0.903
3.11455	0.904
3.14737	0.896
3.18019	0.879
3.213	0.79
3.24582	0.707
3.27864	0.541
3.31146	0.344
3.34428	0.244
3.3771	0.289
3.40991	0.423
3.44273	0.499
3.47555	0.802
3.50837	0.839
3.54119	0.913
3.57401	0.92
3.60682	0.913
3.63964	0.917
3.67246	0.932
3.70528	0.929
3.7381	0.921
3.77092	0.926
3.80373	0.933
3.83655	0.939
3.86937	0.94
3.90219	0.938
3.93501	0.933
3.96783	0.93
4.00064	0.937
4.03346	0.94
4.06628	0.94
4.0991	0.938
4.13192	0.94
4.16474	0.937
4.19755	0.939
4.23037	0.939
4.26319	0.932
4.29601	0.934
4.32883	0.939
4.36165	0.943
4.39446	0.946
4.42728	0.95
4.4601	0.953
4.49292	0.955
4.52574	0.957
4.55856	0.952
4.59137	0.948
4.62419	0.955
4.65701	0.957
4.68983	0.956
4.72265	0.954
4.75547	0.952
4.78828	0.95
4.8211	0.946
4.85392	0.943
4.88674	0.944
4.91956	0.946
4.95238	0.947
4.98519	0.948
5.01801	0.956
5.05083	0.954
5.08365	0.948
5.11647	0.958
5.14929	0.96
5.1821	0.964
5.21492	0.961
5.24774	0.951
5.28056	0.947
5.31338	0.951
5.3462	0.951
5.37901	0.952
5.41183	0.954
5.44465	0.954
5.47747	0.953
5.51029	0.95
5.54311	0.941
5.57592	0.934
5.60874	0.932
5.64156	0.909
5.67438	0.899
5.7072	0.876
5.74002	0.894
5.77283	0.907
5.80565	0.908
5.83847	0.903
5.87129	0.897
5.90411	0.856
5.93693	0.791
5.96974	0.648
6.00256	0.504
6.03538	0.381
6.0682	0.333
6.10102	0.23
6.13384	0.222
6.16666	0.59
6.19947	0.703
6.23229	0.732
6.26511	0.783
6.29793	0.826
6.33075	0.841
6.36357	0.843
6.39638	0.846
6.4292	0.851
6.46202	0.851
6.49484	0.849
6.52766	0.847
6.56048	0.843
6.59329	0.844
6.62611	0.84
6.65893	0.832
6.69175	0.793
6.72457	0.736
6.75739	0.589
6.7902	0.478
6.82302	0.463
6.85584	0.437
6.88866	0.419
6.92148	0.355
6.9543	0.334
6.98711	0.365
7.01993	0.628
7.05275	0.7
7.08557	0.748
7.11839	0.77
7.15121	0.757
7.18402	0.73
7.21684	0.525
7.24966	0.425
7.28248	0.359
7.3153	0.352
7.34812	0.471
7.38093	0.766
7.41375	0.84
7.44657	0.868
7.47939	0.874
7.51221	0.883
7.54503	0.89
7.57784	0.893
7.61066	0.894
7.64348	0.892
7.6763	0.882
7.70912	0.872
7.74194	0.845
7.77475	0.803
7.80757	0.714
7.84039	0.58
7.87321	0.491
7.90603	0.419
7.93885	0.435
7.97166	0.448
8.00448	0.456
8.0373	0.449
8.07012	0.414
8.10294	0.393
8.13576	0.437
8.16857	0.444
8.20139	0.385
8.23421	0.308
8.26703	0.282
8.29985	0.425
8.33267	0.535
8.36548	0.581
8.3983	0.585
8.43112	0.525
8.46394	0.483
8.49676	0.539
8.52958	0.579
8.56239	0.586
8.59521	0.564
8.62803	0.494
8.66085	0.395
8.69367	0.298
8.72649	0.194
8.7593	0.201
8.79212	0.269
8.82494	0.327
8.85776	0.353
8.89058	0.418
8.9234	0.554
8.95621	0.655
8.98903	0.751
9.02185	0.789
9.05467	0.805
9.08749	0.806
9.12031	0.804
9.15312	0.783
9.18594	0.755
9.21876	0.733
9.25158	0.718
9.2844	0.742
9.31722	0.819
9.35003	0.841
9.38285	0.852
9.41567	0.862
9.44849	0.866
9.48131	0.869
9.51413	0.87
9.54694	0.872
9.57976	0.87
9.61258	0.864
9.6454	0.853
9.67822	0.84
9.71104	0.833
9.74386	0.819
9.77667	0.819
9.80949	0.821
9.84231	0.832
9.87513	0.847
9.90795	0.852
9.94077	0.855
9.97358	0.859
10.0064	0.865
10.0392	0.871
10.072	0.889
10.1049	0.895
10.1377	0.899
10.1705	0.902
10.2033	0.903
10.2361	0.904
10.2689	0.906
10.3018	0.904
10.3346	0.899
10.3674	0.882
10.4002	0.845
10.433	0.77
10.4659	0.724
10.4987	0.707
10.5315	0.788
10.5643	0.82
10.5971	0.849
10.63	0.861
10.6628	0.869
10.6956	0.889
10.7284	0.897
10.7612	0.9
10.794	0.904
10.8269	0.905
10.8597	0.905
10.8925	0.904
10.9253	0.893
10.9581	0.89
10.991	0.884
11.0238	0.863
11.0566	0.847
11.0894	0.827
11.1222	0.778
11.155	0.752
11.1879	0.715
11.2207	0.678
11.2535	0.612
11.2863	0.562
11.3191	0.498
11.352	0.412
11.3848	0.343
11.4176	0.29
11.4504	0.313
11.4832	0.374
11.516	0.509
11.5489	0.639
11.5817	0.671
11.6145	0.745
11.6473	0.788
11.6801	0.818
11.713	0.836
11.7458	0.856
11.7786	0.865
11.8114	0.874
11.8442	0.884
11.877	0.888
11.9099	0.893
11.9427	0.895
11.9755	0.895
12.0083	0.895
12.0411	0.894
12.074	0.896
12.1068	0.899
12.1396	0.9
12.1724	0.9
12.2052	0.9
12.238	0.901
12.2709	0.901
12.3037	0.901
12.3365	0.901
12.3693	0.901
12.4021	0.894
12.435	0.892
12.4678	0.891
12.5006	0.887
12.5334	0.868
12.5662	0.844
12.5991	0.827
12.6319	0.788
12.6647	0.715
12.6975	0.622
12.7303	0.548
12.7631	0.503
12.796	0.496
12.8288	0.617
12.8616	0.707
12.8944	0.811
12.9272	0.827
12.9601	0.837
12.9929	0.844
13.0257	0.846
13.0585	0.845
13.0913	0.838
13.1241	0.804
13.157	0.794
13.1898	0.793
13.2226	0.8
13.2554	0.824
13.2882	0.838
13.3211	0.853
13.3539	0.866
13.3867	0.87
13.4195	0.874
13.4523	0.88
13.4851	0.879
13.518	0.877
13.5508	0.877
13.5836	0.876
13.6164	0.874
13.6492	0.872
13.6821	0.869
13.7149	0.866
13.7477	0.864
13.7805	0.862
13.8133	0.861
13.8461	0.859
13.879	0.858
13.9118	0.856
13.9446	0.853
13.9774	0.847
14.0102	0.844
14.0431	0.84
14.0759	0.837
14.1087	0.834
14.1415	0.832
14.1743	0.83
14.2072	0.828
14.24	0.827
14.2728	0.824
14.3056	0.821
14.3384	0.82
14.3712	0.816
14.4041	0.805
14.4369	0.804
14.4697	0.802
14.5025	0.799
14.5353	0.794
14.5682	0.792
14.601	0.785
14.6338	0.78
14.6666	0.775
14.6994	0.771
14.7322	0.766
14.7651	0.764
14.7979	0.757
14.8307	0.754
14.8635	0.752
14.8963	0.748
14.9292	0.744
14.962	0.742
14.9948	0.74
