Infrared Spectrum: 4-n-HEXYL-2-METHYL-Delta^2-THIAZOLINE
Formula: C10 H19 N S
CAS: 4145-95-3
Boiling point: 92-93 C AT 2 mmHg
Class: COBLENTZ
Instrument: Not specified, most likely a prism, grating, or hybrid spectrometer.
Sampling: TRANSMISSION
Path length: FILM
Resolution: 4
Origin: ARTHUR D. LITTLE, INC.
1/CM	TRANSMITTANCE
674.188	0.618
681.915	0.621
689.642	0.592
697.368	0.551
705.095	0.484
712.822	0.551
720.549	0.596
728.275	0.586
736.002	0.576
743.729	0.579
751.456	0.603
759.183	0.628
766.909	0.625
774.636	0.618
782.363	0.615
790.09	0.625
797.816	0.637
805.543	0.632
813.27	0.604
820.997	0.551
828.724	0.463
836.45	0.456
844.177	0.505
851.904	0.512
859.631	0.525
867.357	0.55
875.084	0.536
882.811	0.523
890.538	0.506
898.265	0.533
905.991	0.534
913.718	0.506
921.445	0.474
929.172	0.414
936.898	0.425
944.625	0.502
952.352	0.543
960.079	0.56
967.805	0.565
975.532	0.564
983.259	0.573
990.986	0.572
998.713	0.568
1006.44	0.568
1014.17	0.572
1021.89	0.567
1029.62	0.565
1037.35	0.563
1045.07	0.559
1052.8	0.55
1060.53	0.538
1068.25	0.525
1075.98	0.498
1083.71	0.42
1091.43	0.405
1099.16	0.414
1106.89	0.39
1114.61	0.367
1122.34	0.305
1130.07	0.247
1137.79	0.224
1145.52	0.23
1153.25	0.287
1160.97	0.407
1168.7	0.481
1176.43	0.533
1184.16	0.543
1191.88	0.52
1199.61	0.503
1207.34	0.505
1215.06	0.521
1222.79	0.557
1230.52	0.572
1238.24	0.585
1245.97	0.588
1253.7	0.591
1261.42	0.579
1269.15	0.545
1276.88	0.537
1284.6	0.528
1292.33	0.515
1300.06	0.503
1307.78	0.515
1315.51	0.546
1323.24	0.556
1330.96	0.545
1338.69	0.494
1346.42	0.391
1354.14	0.365
1361.87	0.521
1369.6	0.574
1377.32	0.567
1385.05	0.524
1392.78	0.48
1400.5	0.382
1408.23	0.307
1415.96	0.296
1423.69	0.297
1431.41	0.293
1439.14	0.302
1446.87	0.307
1454.59	0.31
1462.32	0.351
1470.05	0.578
1477.77	0.637
1485.5	0.661
1493.23	0.668
1500.95	0.675
1508.68	0.675
1516.41	0.679
1524.13	0.681
1531.86	0.682
1539.59	0.682
1547.31	0.68
1555.04	0.672
1562.77	0.672
1570.49	0.664
1578.22	0.655
1585.95	0.645
1593.67	0.612
1601.4	0.574
1609.13	0.503
1616.85	0.38
1624.58	0.256
1632.31	0.226
1640.04	0.247
1647.76	0.403
1655.49	0.557
1663.22	0.628
1670.94	0.667
1678.67	0.695
1686.4	0.715
1694.12	0.721
1701.85	0.73
1709.58	0.743
1717.3	0.751
1725.03	0.752
1732.76	0.752
1740.48	0.755
1748.21	0.755
1755.94	0.756
1763.66	0.755
1771.39	0.756
1779.12	0.76
1786.84	0.765
1794.57	0.766
1802.3	0.768
1810.02	0.769
1817.75	0.769
1825.48	0.77
1833.2	0.769
1840.93	0.769
1848.66	0.769
1856.38	0.769
1864.11	0.769
1871.84	0.769
1879.57	0.77
1887.29	0.77
1895.02	0.77
1902.75	0.77
1910.47	0.77
1918.2	0.77
1925.93	0.77
1933.65	0.77
1941.38	0.77
1949.11	0.77
1956.83	0.769
1964.56	0.768
1972.29	0.768
1980.01	0.768
1987.74	0.768
1995.47	0.768
2003.19	0.768
2010.92	0.768
2018.65	0.766
2026.37	0.766
2034.1	0.766
2041.83	0.768
2049.55	0.768
2057.28	0.768
2065.01	0.768
2072.73	0.768
2080.46	0.769
2088.19	0.769
2095.91	0.769
2103.64	0.768
2111.37	0.768
2119.1	0.768
2126.82	0.768
2134.55	0.768
2142.28	0.768
2150	0.769
2157.73	0.768
2165.46	0.769
2173.18	0.769
2180.91	0.769
2188.64	0.769
2196.36	0.768
2204.09	0.769
2211.82	0.769
2219.54	0.769
2227.27	0.769
2235	0.768
2242.72	0.768
2250.45	0.766
2258.18	0.766
2265.9	0.766
2273.63	0.764
2281.36	0.762
2289.08	0.761
2296.81	0.759
2304.54	0.759
2312.26	0.76
2319.99	0.76
2327.72	0.761
2335.44	0.761
2343.17	0.764
2350.9	0.766
2358.63	0.766
2366.35	0.766
2374.08	0.768
2381.81	0.768
2389.53	0.766
2397.26	0.766
2404.99	0.77
2412.71	0.773
2420.44	0.774
2428.17	0.774
2435.89	0.777
2443.62	0.77
2451.35	0.769
2459.07	0.766
2466.8	0.766
2474.53	0.768
2482.25	0.766
2489.98	0.765
2497.71	0.762
2505.43	0.76
2513.16	0.757
2520.89	0.755
2528.61	0.755
2536.34	0.753
2544.07	0.753
2551.79	0.753
2559.52	0.752
2567.25	0.751
2574.97	0.747
2582.7	0.742
2590.43	0.742
2598.16	0.742
2605.88	0.74
2613.61	0.738
2621.34	0.735
2629.06	0.731
2636.79	0.73
2644.52	0.73
2652.24	0.726
2659.97	0.725
2667.7	0.725
2675.42	0.725
2683.15	0.724
2690.88	0.724
2698.6	0.724
2706.33	0.722
2714.06	0.72
2721.78	0.715
2729.51	0.712
2737.24	0.712
2744.96	0.712
2752.69	0.711
2760.42	0.708
2768.14	0.704
2775.87	0.699
2783.6	0.692
2791.32	0.655
2799.05	0.64
2806.78	0.618
2814.51	0.586
2822.23	0.542
2829.96	0.497
2837.69	0.425
2845.41	0.298
2853.14	0.211
2860.87	0.193
2868.59	0.202
2876.32	0.222
2884.05	0.237
2891.77	0.24
2899.5	0.211
2907.23	0.188
2914.95	0.167
2922.68	0.157
2930.41	0.154
2938.13	0.161
2945.86	0.176
2953.59	0.19
2961.31	0.194
2969.04	0.206
2976.77	0.256
2984.49	0.34
2992.22	0.42
2999.95	0.472
3007.67	0.529
3015.4	0.577
3023.13	0.612
3030.85	0.637
3038.58	0.654
3046.31	0.667
3054.04	0.672
3061.76	0.677
3069.49	0.686
3077.22	0.695
3084.94	0.699
3092.67	0.703
3100.4	0.704
3108.12	0.703
3115.85	0.703
3123.58	0.703
3131.3	0.702
3139.03	0.702
3146.76	0.702
3154.48	0.702
3162.21	0.702
3169.94	0.702
3177.66	0.702
3185.39	0.703
3193.12	0.703
3200.84	0.702
3208.57	0.703
3216.3	0.702
3224.02	0.701
3231.75	0.698
3239.48	0.693
3247.2	0.688
3254.93	0.684
3262.66	0.688
3270.38	0.693
3278.11	0.702
3285.84	0.704
3293.57	0.706
3301.29	0.707
3309.02	0.707
3316.75	0.706
3324.47	0.706
3332.2	0.704
3339.93	0.702
3347.65	0.702
3355.38	0.699
3363.11	0.698
3370.83	0.694
3378.56	0.69
3386.29	0.689
3394.01	0.688
3401.74	0.688
