Infrared Spectrum: 1-AMINO-2-BUTANETHIOL HYDROCHLORIDE
Formula: C4 H11 N S  * H Cl
CAS: 4146-02-5
State: SOLID(MINERAL OIL MULL)
Melting point: 159-160 C
Class: COBLENTZ
Instrument: Not specified, most likely a prism, grating, or hybrid spectrometer.
Sampling: TRANSMISSION
Resolution: 4
Origin: ARTHUR D. LITTLE, INC.
1/CM	TRANSMITTANCE
582.827	0.614
590.537	0.611
598.248	0.619
605.958	0.629
613.668	0.642
621.378	0.67
629.089	0.684
636.799	0.702
644.509	0.716
652.219	0.747
659.93	0.77
667.64	0.789
675.35	0.802
683.061	0.812
690.771	0.812
698.481	0.783
706.191	0.752
713.902	0.791
721.612	0.797
729.322	0.829
737.032	0.833
744.743	0.841
752.453	0.832
760.163	0.819
767.874	0.841
775.584	0.853
783.294	0.858
791.004	0.855
798.715	0.839
806.425	0.829
814.135	0.814
821.845	0.755
829.556	0.601
837.266	0.616
844.976	0.755
852.687	0.848
860.397	0.855
868.107	0.846
875.817	0.808
883.528	0.779
891.238	0.702
898.948	0.779
906.658	0.814
914.369	0.796
922.079	0.811
929.789	0.796
937.5	0.817
945.21	0.812
952.92	0.837
960.63	0.837
968.341	0.843
976.051	0.847
983.761	0.841
991.471	0.834
999.182	0.821
1006.89	0.796
1014.6	0.767
1022.31	0.753
1030.02	0.698
1037.73	0.756
1045.44	0.696
1053.15	0.651
1060.86	0.751
1068.57	0.819
1076.28	0.82
1083.99	0.791
1091.71	0.776
1099.42	0.774
1107.13	0.798
1114.84	0.829
1122.55	0.829
1130.26	0.82
1137.97	0.801
1145.68	0.779
1153.39	0.708
1161.1	0.67
1168.81	0.598
1176.52	0.774
1184.23	0.825
1191.94	0.826
1199.65	0.826
1207.36	0.825
1215.07	0.821
1222.78	0.814
1230.49	0.793
1238.2	0.737
1245.91	0.769
1253.62	0.784
1261.33	0.779
1269.04	0.775
1276.75	0.771
1284.46	0.762
1292.17	0.753
1299.88	0.747
1307.59	0.741
1315.3	0.726
1323.01	0.719
1330.72	0.7
1338.43	0.696
1346.14	0.683
1353.85	0.638
1361.56	0.521
1369.27	0.403
1376.99	0.448
1384.7	0.729
1392.41	0.779
1400.12	0.77
1407.83	0.735
1415.54	0.691
1423.25	0.629
1430.96	0.57
1438.67	0.41
1446.38	0.308
1454.09	0.282
1461.8	0.287
1469.51	0.592
1477.22	0.68
1484.93	0.669
1492.64	0.632
1500.35	0.605
1508.06	0.758
1515.77	0.812
1523.48	0.824
1531.19	0.823
1538.9	0.826
1546.61	0.829
1554.32	0.812
1562.03	0.791
1569.74	0.748
1577.45	0.705
1585.16	0.648
1592.87	0.639
1600.58	0.673
1608.29	0.837
1616	0.856
1623.71	0.857
1631.42	0.856
1639.13	0.855
1646.84	0.855
1654.55	0.855
1662.27	0.857
1669.98	0.857
1677.69	0.855
1685.4	0.852
1693.11	0.852
1700.82	0.85
1708.53	0.848
1716.24	0.847
1723.95	0.847
1731.66	0.847
1739.37	0.848
1747.08	0.848
1754.79	0.85
1762.5	0.851
1770.21	0.85
1777.92	0.85
1785.63	0.848
1793.34	0.848
1801.05	0.848
1808.76	0.848
1816.47	0.848
1824.18	0.847
1831.89	0.847
1839.6	0.846
1847.31	0.844
1855.02	0.841
1862.73	0.834
1870.44	0.83
1878.15	0.828
1885.86	0.826
1893.57	0.826
1901.28	0.826
1908.99	0.823
1916.7	0.816
1924.41	0.808
1932.12	0.797
1939.84	0.782
1947.55	0.773
1955.26	0.767
1962.97	0.762
1970.68	0.757
1978.39	0.75
1986.1	0.747
1993.81	0.748
2001.52	0.75
2009.23	0.753
2016.94	0.764
2024.65	0.787
2032.36	0.794
2040.07	0.811
2047.78	0.817
2055.49	0.82
2063.2	0.817
2070.91	0.817
2078.62	0.816
2086.33	0.819
2094.04	0.817
2101.75	0.82
2109.46	0.816
2117.17	0.812
2124.88	0.815
2132.59	0.811
2140.3	0.81
2148.01	0.808
2155.72	0.807
2163.43	0.805
2171.14	0.803
2178.85	0.802
2186.56	0.801
2194.27	0.8
2201.98	0.796
2209.69	0.793
2217.4	0.791
2225.12	0.791
2232.83	0.789
2240.54	0.788
2248.25	0.785
2255.96	0.782
2263.67	0.778
2271.38	0.776
2279.09	0.775
2286.8	0.774
2294.51	0.769
2302.22	0.761
2309.93	0.753
2317.64	0.739
2325.35	0.723
2333.06	0.714
2340.77	0.716
2348.48	0.719
2356.19	0.71
2363.9	0.714
2371.61	0.716
2379.32	0.716
2387.03	0.715
2394.74	0.714
2402.45	0.708
2410.16	0.7
2417.87	0.689
2425.58	0.671
2433.29	0.665
2441	0.662
2448.71	0.66
2456.42	0.656
2464.13	0.644
2471.84	0.616
2479.55	0.585
2487.26	0.565
2494.97	0.561
2502.69	0.576
2510.4	0.589
2518.11	0.596
2525.82	0.607
2533.53	0.612
2541.24	0.624
2548.95	0.642
2556.66	0.65
2564.37	0.648
2572.08	0.634
2579.79	0.615
2587.5	0.596
2595.21	0.592
2602.92	0.588
2610.63	0.579
2618.34	0.557
2626.05	0.546
2633.76	0.533
2641.47	0.537
2649.18	0.538
2656.89	0.533
2664.6	0.539
2672.31	0.546
2680.02	0.541
2687.73	0.537
2695.44	0.534
2703.15	0.53
2710.86	0.517
2718.57	0.497
2726.28	0.48
2733.99	0.457
2741.7	0.446
2749.41	0.446
2757.12	0.45
2764.83	0.452
2772.54	0.45
2780.25	0.424
2787.97	0.405
2795.68	0.385
2803.39	0.358
2811.1	0.33
2818.81	0.301
2826.52	0.26
2834.23	0.18
2841.94	0.11
2849.65	0.066
2857.36	0.061
2865.07	0.061
2872.78	0.064
2880.49	0.067
2888.2	0.067
2895.91	0.064
2903.62	0.058
2911.33	0.056
2919.04	0.053
2926.75	0.052
2934.46	0.052
2942.17	0.055
2949.88	0.056
2957.59	0.058
2965.3	0.067
2973.01	0.103
2980.72	0.175
2988.43	0.25
2996.14	0.301
3003.85	0.35
3011.56	0.384
3019.27	0.417
3026.98	0.458
3034.69	0.476
3042.4	0.494
3050.11	0.506
3057.82	0.517
3065.53	0.521
3073.25	0.525
3080.96	0.534
3088.67	0.544
3096.38	0.562
3104.09	0.579
3111.8	0.601
3119.51	0.626
3127.22	0.641
3134.93	0.674
3142.64	0.687
3150.35	0.691
3158.06	0.694
3165.77	0.697
3173.48	0.696
3181.19	0.691
3188.9	0.694
3196.61	0.717
3204.32	0.734
3212.03	0.751
3219.74	0.78
3227.45	0.789
3235.16	0.794
3242.87	0.801
3250.58	0.805
3258.29	0.807
3266	0.811
3273.71	0.816
3281.42	0.815
3289.13	0.811
3296.84	0.808
3304.55	0.807
3312.26	0.806
3319.97	0.805
3327.68	0.803
3335.39	0.801
3343.1	0.8
