Infrared Spectrum: N-2-(1-ACETOXY-3-METHYL) BUTYLACETAMIDE
Formula: C9 H17 N O3
CAS: 4146-09-2
State: LIQUID
Boiling point: 111-114 C AT 0.2 mmHg
Class: COBLENTZ
Instrument: Not specified, most likely a prism, grating, or hybrid spectrometer.
Sampling: TRANSMISSION
Resolution: 4
Origin: ARTHUR D. LITTLE, INC.
MICROMETERS	TRANSMITTANCE
2.273	0.847
2.30267	0.847
2.33234	0.847
2.36202	0.847
2.39169	0.847
2.42136	0.847
2.45103	0.848
2.48071	0.848
2.51038	0.849
2.54005	0.849
2.56972	0.852
2.5994	0.854
2.62907	0.859
2.65874	0.862
2.68841	0.863
2.71809	0.865
2.74776	0.868
2.77743	0.869
2.8071	0.864
2.83678	0.849
2.86645	0.832
2.89612	0.823
2.92579	0.804
2.95546	0.797
2.98514	0.771
3.01481	0.705
3.04448	0.633
3.07415	0.562
3.10383	0.55
3.1335	0.609
3.16317	0.674
3.19284	0.711
3.22252	0.756
3.25219	0.759
3.28186	0.725
3.31153	0.709
3.34121	0.737
3.37088	0.729
3.40055	0.549
3.43022	0.544
3.45989	0.607
3.48957	0.67
3.51924	0.686
3.54891	0.771
3.57858	0.798
3.60826	0.819
3.63793	0.838
3.6676	0.848
3.69727	0.852
3.72695	0.853
3.75662	0.862
3.78629	0.867
3.81596	0.872
3.84564	0.873
3.87531	0.873
3.90498	0.873
3.93465	0.873
3.96433	0.874
3.994	0.874
4.02367	0.875
4.05334	0.875
4.08301	0.875
4.11269	0.877
4.14236	0.879
4.17203	0.88
4.2017	0.881
4.23138	0.885
4.26105	0.886
4.29072	0.89
4.32039	0.891
4.35007	0.893
4.37974	0.89
4.40941	0.886
4.43908	0.885
4.46876	0.884
4.49843	0.883
4.5281	0.883
4.55777	0.884
4.58744	0.881
4.61712	0.881
4.64679	0.88
4.67646	0.881
4.70613	0.881
4.73581	0.879
4.76548	0.878
4.79515	0.877
4.82482	0.877
4.8545	0.877
4.88417	0.877
4.91384	0.877
4.94351	0.877
4.97319	0.879
5.00286	0.878
5.03253	0.878
5.0622	0.877
5.09188	0.878
5.12155	0.879
5.15122	0.879
5.18089	0.877
5.21056	0.877
5.24024	0.878
5.26991	0.877
5.29958	0.877
5.32925	0.877
5.35893	0.875
5.3886	0.873
5.41827	0.872
5.44794	0.869
5.47762	0.867
5.50729	0.864
5.53696	0.858
5.56663	0.844
5.59631	0.826
5.62598	0.803
5.65565	0.755
5.68532	0.617
5.71499	0.368
5.74467	0.255
5.77434	0.331
5.80401	0.404
5.83368	0.491
5.86336	0.645
5.89303	0.693
5.9227	0.693
5.95237	0.58
5.98205	0.469
6.01172	0.342
6.04139	0.265
6.07106	0.247
6.10074	0.306
6.13041	0.442
6.16008	0.561
6.18975	0.642
6.21943	0.681
6.2491	0.698
6.27877	0.699
6.30844	0.658
6.33811	0.613
6.36779	0.527
6.39746	0.438
6.42713	0.406
6.4568	0.363
6.48648	0.373
6.51615	0.406
6.54582	0.442
6.57549	0.5
6.60517	0.577
6.63484	0.591
6.66451	0.652
6.69418	0.675
6.72386	0.68
6.75353	0.65
6.7832	0.611
6.81287	0.55
6.84255	0.542
6.87222	0.575
6.90189	0.573
6.93156	0.572
6.96123	0.577
6.99091	0.59
7.02058	0.616
7.05025	0.648
7.07992	0.667
7.1096	0.668
7.13927	0.649
7.16894	0.586
7.19861	0.514
7.22829	0.49
7.25796	0.426
7.28763	0.39
7.3173	0.39
7.34698	0.478
7.37665	0.621
7.40632	0.696
7.43599	0.729
7.46566	0.741
7.49534	0.746
7.52501	0.741
7.55468	0.732
7.58435	0.696
7.61403	0.631
7.6437	0.612
7.67337	0.587
7.70304	0.554
7.73272	0.55
7.76239	0.557
7.79206	0.557
7.82173	0.539
7.85141	0.505
7.88108	0.475
7.91075	0.426
7.94042	0.397
7.9701	0.371
7.99977	0.336
8.02944	0.309
8.05911	0.281
8.08878	0.263
8.11846	0.253
8.14813	0.257
8.1778	0.331
8.20747	0.453
8.23715	0.562
8.26682	0.642
8.29649	0.69
8.32616	0.726
8.35584	0.746
8.38551	0.766
8.41518	0.771
8.44485	0.767
8.47453	0.767
8.5042	0.772
8.53387	0.773
8.56354	0.775
8.59321	0.772
8.62289	0.746
8.65256	0.725
8.68223	0.718
8.7119	0.716
8.74158	0.701
8.77125	0.698
8.80092	0.731
8.83059	0.776
8.86027	0.786
8.88994	0.795
8.91961	0.801
8.94928	0.802
8.97896	0.798
9.00863	0.783
9.0383	0.771
9.06797	0.751
9.09765	0.745
9.12732	0.745
9.15699	0.761
9.18666	0.765
9.21633	0.766
9.24601	0.763
9.27568	0.749
9.30535	0.726
9.33502	0.699
9.3647	0.681
9.39437	0.655
9.42404	0.648
9.45371	0.64
9.48339	0.626
9.51306	0.611
9.54273	0.6
9.5724	0.578
9.60208	0.556
9.63175	0.539
9.66142	0.53
9.69109	0.539
9.72076	0.562
9.75044	0.591
9.78011	0.621
9.80978	0.659
9.83945	0.69
9.86913	0.724
9.8988	0.745
9.92847	0.763
9.95814	0.78
9.98782	0.792
10.0175	0.806
10.0472	0.809
10.0768	0.809
10.1065	0.809
10.1362	0.808
10.1659	0.802
10.1955	0.8
10.2252	0.798
10.2549	0.797
10.2845	0.791
10.3142	0.79
10.3439	0.788
10.3736	0.795
10.4032	0.8
10.4329	0.808
10.4626	0.812
10.4922	0.822
10.5219	0.828
10.5516	0.832
10.5813	0.832
10.6109	0.831
10.6406	0.828
10.6703	0.827
10.7	0.827
10.7296	0.827
10.7593	0.827
10.789	0.827
10.8186	0.827
10.8483	0.828
10.878	0.829
10.9077	0.833
10.9373	0.831
10.967	0.832
10.9967	0.833
11.0263	0.834
11.056	0.836
11.0857	0.837
11.1154	0.84
11.145	0.845
11.1747	0.847
11.2044	0.848
11.2341	0.849
11.2637	0.85
11.2934	0.85
11.3231	0.853
11.3527	0.857
11.3824	0.86
11.4121	0.863
11.4418	0.864
11.4714	0.867
11.5011	0.868
11.5308	0.869
11.5605	0.869
11.5901	0.869
11.6198	0.869
11.6495	0.869
11.6791	0.868
11.7088	0.868
11.7385	0.868
11.7682	0.868
11.7978	0.867
11.8275	0.867
11.8572	0.864
11.8868	0.858
11.9165	0.853
11.9462	0.845
11.9759	0.839
12.0055	0.838
12.0352	0.837
12.0649	0.836
12.0946	0.834
12.1242	0.837
12.1539	0.84
12.1836	0.842
12.2132	0.843
12.2429	0.844
12.2726	0.84
12.3023	0.839
12.3319	0.842
12.3616	0.845
12.3913	0.848
12.421	0.848
12.4506	0.85
12.4803	0.852
12.51	0.853
12.5396	0.853
12.5693	0.853
12.599	0.853
12.6287	0.852
12.6583	0.85
12.688	0.849
12.7177	0.848
12.7473	0.847
12.777	0.843
12.8067	0.839
12.8364	0.836
12.866	0.833
12.8957	0.829
12.9254	0.828
12.9551	0.826
12.9847	0.823
13.0144	0.819
13.0441	0.818
13.0737	0.816
13.1034	0.812
13.1331	0.809
13.1628	0.808
13.1924	0.803
13.2221	0.798
13.2518	0.796
13.2814	0.792
13.3111	0.788
13.3408	0.785
13.3705	0.782
13.4001	0.78
13.4298	0.776
13.4595	0.772
13.4892	0.77
13.5188	0.767
13.5485	0.763
13.5782	0.761
