Infrared Spectrum: 1-AMINO-2-PROPANETHIOL HYDROCHLORIDE
Formula: C3 H9 N S  * H Cl
CAS: 4146-16-1
State: SOLID
Melting point: 92-93 C
Class: COBLENTZ
Instrument: Not specified, most likely a prism, grating, or hybrid spectrometer.
Sampling: TRANSMISSION
Resolution: 4
Origin: ARTHUR D. LITTLE, INC.
MICROMETERS	TRANSMITTANCE
2.485	0.78
2.51789	0.78
2.55078	0.778
2.58368	0.774
2.61657	0.763
2.64946	0.735
2.68235	0.696
2.71524	0.674
2.74814	0.652
2.78103	0.633
2.81392	0.627
2.84681	0.626
2.8797	0.623
2.9126	0.622
2.94549	0.629
2.97838	0.635
3.01127	0.62
3.04417	0.581
3.07706	0.546
3.10995	0.504
3.14284	0.444
3.17573	0.389
3.20863	0.304
3.24152	0.247
3.27441	0.187
3.3073	0.14
3.34019	0.102
3.37309	0.073
3.40598	0.069
3.43887	0.064
3.47176	0.058
3.50465	0.072
3.53755	0.101
3.57044	0.137
3.60333	0.195
3.63622	0.248
3.66911	0.313
3.70201	0.304
3.7349	0.355
3.76779	0.344
3.80068	0.336
3.83358	0.372
3.86647	0.46
3.89936	0.466
3.93225	0.367
3.96514	0.337
3.99804	0.374
4.03093	0.482
4.06382	0.576
4.09671	0.615
4.1296	0.649
4.1625	0.672
4.19539	0.675
4.22828	0.677
4.26117	0.706
4.29406	0.745
4.32696	0.758
4.35985	0.765
4.39274	0.766
4.42563	0.755
4.45852	0.746
4.49142	0.753
4.52431	0.763
4.5572	0.766
4.59009	0.768
4.62299	0.769
4.65588	0.771
4.68877	0.767
4.72166	0.748
4.75455	0.722
4.78745	0.695
4.82034	0.664
4.85323	0.631
4.88612	0.594
4.91901	0.557
4.95191	0.533
4.9848	0.549
5.01769	0.565
5.05058	0.604
5.08347	0.672
5.11637	0.696
5.14926	0.732
5.18215	0.745
5.21504	0.753
5.24793	0.764
5.28083	0.774
5.31372	0.78
5.34661	0.781
5.3795	0.781
5.4124	0.782
5.44529	0.781
5.47818	0.78
5.51107	0.78
5.54396	0.779
5.57686	0.776
5.60975	0.763
5.64264	0.751
5.67553	0.741
5.70842	0.744
5.74132	0.739
5.77421	0.736
5.8071	0.728
5.83999	0.716
5.87288	0.705
5.90578	0.706
5.93867	0.691
5.97156	0.676
6.00445	0.673
6.03734	0.663
6.07024	0.663
6.10313	0.662
6.13602	0.645
6.16891	0.495
6.2018	0.37
6.2347	0.286
6.26759	0.341
6.30048	0.469
6.33337	0.61
6.36627	0.679
6.39916	0.679
6.43205	0.681
6.46494	0.675
6.49783	0.656
6.53073	0.645
6.56362	0.53
6.59651	0.458
6.6294	0.501
6.66229	0.596
6.69519	0.635
6.72808	0.668
6.76097	0.66
6.79386	0.597
6.82675	0.565
6.85965	0.407
6.89254	0.434
6.92543	0.598
6.95832	0.688
6.99121	0.706
7.02411	0.708
7.057	0.707
7.08989	0.716
7.12278	0.721
7.15568	0.679
7.18857	0.486
7.22146	0.365
7.25435	0.639
7.28724	0.684
7.32014	0.733
7.35303	0.757
7.38592	0.762
7.41881	0.76
7.4517	0.725
7.4846	0.646
7.51749	0.639
7.55038	0.742
7.58327	0.759
7.61616	0.762
7.64906	0.759
7.68195	0.756
7.71484	0.735
7.74773	0.667
7.78062	0.576
7.81352	0.669
7.84641	0.73
7.8793	0.74
7.91219	0.746
7.94509	0.75
7.97798	0.74
8.01087	0.731
8.04376	0.74
8.07665	0.751
8.10955	0.759
8.14244	0.766
8.17533	0.771
8.20822	0.775
8.24111	0.775
8.27401	0.769
8.3069	0.723
8.33979	0.546
8.37268	0.417
8.40557	0.487
8.43847	0.615
8.47136	0.687
8.50425	0.7
8.53714	0.722
8.57003	0.731
8.60293	0.706
8.63582	0.724
8.66871	0.752
8.7016	0.772
8.73449	0.782
8.76739	0.778
8.80028	0.78
8.83317	0.783
8.86606	0.775
8.89896	0.731
8.93185	0.684
8.96474	0.659
8.99763	0.698
9.03052	0.719
9.06342	0.706
9.09631	0.674
9.1292	0.651
9.16209	0.64
9.19498	0.641
9.22788	0.697
9.26077	0.731
9.29366	0.754
9.32655	0.763
9.35944	0.769
9.39234	0.775
9.42523	0.77
9.45812	0.764
9.49101	0.747
9.5239	0.656
9.5568	0.538
9.58969	0.393
9.62258	0.407
9.65547	0.455
9.68837	0.393
9.72126	0.282
9.75415	0.36
9.78704	0.556
9.81993	0.656
9.85283	0.712
9.88572	0.742
9.91861	0.754
9.9515	0.765
9.98439	0.766
10.0173	0.699
10.0502	0.617
10.0831	0.593
10.116	0.606
10.1489	0.621
10.1817	0.648
10.2146	0.704
10.2475	0.744
10.2804	0.766
10.3133	0.78
10.3462	0.786
10.3791	0.788
10.412	0.789
10.4449	0.789
10.4778	0.788
10.5107	0.788
10.5436	0.789
10.5765	0.79
10.6093	0.793
10.6422	0.794
10.6751	0.794
10.708	0.795
10.7409	0.796
10.7738	0.796
10.8067	0.798
10.8396	0.798
10.8725	0.798
10.9054	0.796
10.9383	0.781
10.9712	0.77
11.004	0.744
11.0369	0.721
11.0698	0.696
11.1027	0.684
11.1356	0.688
11.1685	0.7
11.2014	0.708
11.2343	0.707
11.2672	0.692
11.3001	0.672
11.333	0.64
11.3659	0.616
11.3988	0.603
11.4316	0.601
11.4645	0.599
11.4974	0.586
11.5303	0.553
11.5632	0.489
11.5961	0.433
11.629	0.388
11.6619	0.39
11.6948	0.41
11.7277	0.456
11.7606	0.515
11.7935	0.577
11.8264	0.612
11.8592	0.635
11.8921	0.653
11.925	0.665
11.9579	0.676
11.9908	0.689
12.0237	0.697
12.0566	0.708
12.0895	0.716
12.1224	0.722
12.1553	0.724
12.1882	0.727
12.2211	0.728
12.2539	0.728
12.2868	0.728
12.3197	0.73
12.3526	0.733
12.3855	0.736
12.4184	0.739
12.4513	0.739
12.4842	0.739
12.5171	0.739
12.55	0.74
12.5829	0.741
12.6158	0.74
12.6487	0.737
12.6815	0.737
12.7144	0.737
12.7473	0.737
12.7802	0.737
12.8131	0.737
12.846	0.736
12.8789	0.736
12.9118	0.736
12.9447	0.736
12.9776	0.736
13.0105	0.734
13.0434	0.733
13.0762	0.731
13.1091	0.73
13.142	0.729
13.1749	0.728
13.2078	0.728
13.2407	0.728
13.2736	0.728
13.3065	0.727
13.3394	0.725
13.3723	0.723
13.4052	0.722
13.4381	0.721
13.471	0.72
13.5038	0.719
13.5367	0.717
13.5696	0.715
13.6025	0.712
13.6354	0.711
13.6683	0.708
13.7012	0.698
13.7341	0.697
13.767	0.696
13.7999	0.696
13.8328	0.696
13.8657	0.696
13.8986	0.695
13.9314	0.695
13.9643	0.692
13.9972	0.688
14.0301	0.687
14.063	0.686
14.0959	0.683
14.1288	0.679
14.1617	0.674
14.1946	0.671
14.2275	0.67
14.2604	0.669
14.2933	0.67
14.3261	0.669
14.359	0.668
14.3919	0.668
14.4248	0.667
14.4577	0.659
14.4906	0.648
14.5235	0.641
14.5564	0.635
14.5893	0.632
14.6222	0.628
14.6551	0.625
14.688	0.62
14.7209	0.618
14.7537	0.617
14.7866	0.615
14.8195	0.605
14.8524	0.604
14.8853	0.603
14.9182	0.601
14.9511	0.597
14.984	0.594
