Infrared Spectrum: 2-AMINO-2-METHYL-1-PROPANETHIOL HYDROCHLORIDE
Formula: C4 H11 N S  * H Cl
CAS: 4146-00-3
State: SOLID (MINERAL OIL MULL)
Melting point: 188-188.5 C
Class: COBLENTZ
Instrument: Not specified, most likely a prism, grating, or hybrid spectrometer.
Sampling: TRANSMISSION
Resolution: 4
Origin: ARTHUR D. LITTLE, INC.
MICROMETERS	TRANSMITTANCE
2.484	0.906
2.51695	0.909
2.5499	0.92
2.58285	0.923
2.6158	0.926
2.64875	0.927
2.6817	0.923
2.71465	0.917
2.7476	0.905
2.78055	0.887
2.8135	0.877
2.84645	0.884
2.8794	0.89
2.91235	0.889
2.9453	0.882
2.97825	0.862
3.0112	0.808
3.04415	0.727
3.0771	0.625
3.11005	0.495
3.143	0.383
3.17595	0.283
3.2089	0.194
3.24185	0.133
3.2748	0.126
3.30775	0.11
3.3407	0.081
3.37365	0.049
3.4066	0.036
3.43955	0.032
3.4725	0.034
3.50545	0.046
3.5384	0.084
3.57135	0.116
3.6043	0.221
3.63725	0.322
3.6702	0.45
3.70315	0.442
3.7361	0.33
3.76905	0.286
3.802	0.558
3.83495	0.469
3.8679	0.34
3.90085	0.246
3.9338	0.411
3.96675	0.354
3.9997	0.254
4.03265	0.279
4.0656	0.426
4.09855	0.55
4.1315	0.65
4.16445	0.724
4.1974	0.755
4.23035	0.808
4.2633	0.827
4.29625	0.843
4.3292	0.866
4.36215	0.89
4.39511	0.907
4.42806	0.908
4.46101	0.899
4.49396	0.91
4.52691	0.911
4.55986	0.885
4.59281	0.858
4.62576	0.886
4.65871	0.902
4.69166	0.864
4.72461	0.873
4.75756	0.893
4.79051	0.873
4.82346	0.837
4.85641	0.802
4.88936	0.783
4.92231	0.727
4.95526	0.637
4.98821	0.528
5.02116	0.471
5.05411	0.56
5.08706	0.658
5.12001	0.741
5.15296	0.807
5.18591	0.854
5.21886	0.879
5.25181	0.906
5.28476	0.923
5.31771	0.924
5.35066	0.917
5.38361	0.915
5.41656	0.923
5.44951	0.934
5.48246	0.939
5.51541	0.942
5.54836	0.945
5.58131	0.941
5.61426	0.935
5.64721	0.927
5.68016	0.917
5.71311	0.897
5.74606	0.893
5.77901	0.886
5.81196	0.879
5.84491	0.881
5.87786	0.879
5.91081	0.876
5.94376	0.862
5.97671	0.846
6.00966	0.841
6.04261	0.836
6.07556	0.829
6.10851	0.816
6.14146	0.798
6.17441	0.712
6.20736	0.463
6.24031	0.319
6.27326	0.324
6.30621	0.29
6.33916	0.556
6.37211	0.727
6.40506	0.746
6.43801	0.78
6.47096	0.779
6.50391	0.746
6.53686	0.648
6.56981	0.495
6.60276	0.354
6.63571	0.221
6.66866	0.104
6.70161	0.463
6.73456	0.587
6.76751	0.555
6.80046	0.366
6.83341	0.295
6.86636	0.336
6.89931	0.461
6.93226	0.564
6.96521	0.681
6.99816	0.685
7.03111	0.527
7.06406	0.562
7.09701	0.673
7.12996	0.628
7.16291	0.424
7.19586	0.29
7.22881	0.456
7.26176	0.351
7.29471	0.519
7.32766	0.717
7.36061	0.772
7.39356	0.787
7.42651	0.803
7.45946	0.802
7.49241	0.786
7.52536	0.73
7.55831	0.76
7.59126	0.781
7.62421	0.772
7.65716	0.71
7.69011	0.507
7.72306	0.388
7.75601	0.6
7.78896	0.754
7.82191	0.78
7.85486	0.79
7.88781	0.792
7.92076	0.716
7.95371	0.567
7.98666	0.398
8.01961	0.239
8.05256	0.305
8.08551	0.634
8.11846	0.592
8.15142	0.636
8.18437	0.757
8.21732	0.794
8.25027	0.81
8.28322	0.823
8.31617	0.835
8.34912	0.851
8.38207	0.863
8.41502	0.867
8.44797	0.865
8.48092	0.861
8.51387	0.824
8.54682	0.815
8.57977	0.781
8.61272	0.706
8.64567	0.596
8.67862	0.405
8.71157	0.302
8.74452	0.438
8.77747	0.649
8.81042	0.792
8.84337	0.843
8.87632	0.852
8.90927	0.863
8.94222	0.874
8.97517	0.882
9.00812	0.888
9.04107	0.894
9.07402	0.897
9.10697	0.898
9.13992	0.897
9.17287	0.893
9.20582	0.886
9.23877	0.851
9.27172	0.782
9.30467	0.786
9.33762	0.818
9.37057	0.775
9.40352	0.638
9.43647	0.598
9.46942	0.729
9.50237	0.843
9.53532	0.885
9.56827	0.893
9.60122	0.899
9.63417	0.905
9.66712	0.908
9.70007	0.91
9.73302	0.912
9.76597	0.914
9.79892	0.918
9.83187	0.921
9.86482	0.923
9.89777	0.924
9.93072	0.924
9.96367	0.923
9.99662	0.921
10.0296	0.917
10.0625	0.902
10.0955	0.872
10.1284	0.863
10.1614	0.855
10.1943	0.777
10.2273	0.684
10.2602	0.558
10.2932	0.612
10.3261	0.76
10.3591	0.863
10.392	0.874
10.425	0.887
10.4579	0.889
10.4909	0.878
10.5238	0.8
10.5568	0.652
10.5897	0.676
10.6227	0.77
10.6556	0.778
10.6886	0.708
10.7215	0.631
10.7545	0.695
10.7874	0.776
10.8204	0.856
10.8533	0.864
10.8863	0.855
10.9192	0.825
10.9522	0.793
10.9851	0.827
11.0181	0.883
11.051	0.905
11.084	0.92
11.1169	0.924
11.1499	0.925
11.1828	0.929
11.2158	0.933
11.2487	0.936
11.2817	0.937
11.3146	0.939
11.3476	0.943
11.3805	0.942
11.4135	0.942
11.4464	0.947
11.4794	0.949
11.5123	0.95
11.5453	0.951
11.5782	0.951
11.6112	0.95
11.6441	0.948
11.6771	0.945
11.71	0.945
11.743	0.947
11.7759	0.947
11.8089	0.943
11.8418	0.939
11.8748	0.938
11.9077	0.937
11.9407	0.938
11.9736	0.939
12.0066	0.939
12.0395	0.938
12.0725	0.936
12.1054	0.934
12.1384	0.933
12.1713	0.936
12.2043	0.935
12.2372	0.934
12.2702	0.933
12.3031	0.932
12.3361	0.93
12.369	0.929
12.402	0.93
12.4349	0.929
12.4679	0.924
12.5008	0.915
12.5338	0.905
12.5667	0.881
12.5997	0.83
12.6326	0.742
12.6656	0.648
12.6985	0.647
12.7315	0.777
12.7644	0.825
12.7974	0.848
12.8303	0.858
12.8633	0.862
12.8962	0.866
12.9292	0.864
12.9621	0.844
12.9951	0.808
13.028	0.764
13.061	0.659
13.0939	0.624
13.1269	0.626
13.1598	0.667
13.1928	0.732
13.2257	0.77
13.2587	0.793
13.2916	0.805
13.3246	0.817
13.3575	0.822
13.3905	0.823
13.4234	0.82
13.4564	0.817
13.4893	0.811
13.5223	0.802
13.5552	0.799
13.5882	0.794
13.6211	0.788
13.6541	0.783
13.687	0.782
13.72	0.783
13.7529	0.784
13.7859	0.782
13.8188	0.779
13.8518	0.78
13.8847	0.782
13.9177	0.786
13.9506	0.791
13.9836	0.794
14.0165	0.791
14.0495	0.771
14.0824	0.741
14.1154	0.683
14.1483	0.59
14.1813	0.516
14.2142	0.494
14.2472	0.529
14.2801	0.659
14.3131	0.721
14.346	0.767
14.379	0.781
14.4119	0.787
14.4449	0.793
14.4778	0.799
14.5108	0.804
14.5437	0.806
14.5767	0.808
14.6096	0.81
14.6426	0.812
14.6755	0.812
14.7085	0.81
14.7414	0.807
14.7744	0.802
14.8073	0.8
14.8403	0.796
14.8732	0.792
14.9062	0.784
14.9391	0.777
14.9721	0.766
15.005	0.759
