Infrared Spectrum: 2-AMINO-1-PENTANETHIOL HYDROCHLORIDE
Formula: C5 H13 N S  * H Cl
CAS: 4146-14-9
State: SOLID (MINERAL OIL MULL)
Melting point: 164-165 C
Class: COBLENTZ
Instrument: Not specified, most likely a prism, grating, or hybrid spectrometer.
Sampling: TRANSMISSION
Resolution: 4
Origin: ARTHUR D. LITTLE, INC.
MICROMETERS	TRANSMITTANCE
2.023	0.964
2.06033	0.964
2.09765	0.965
2.13498	0.969
2.17231	0.972
2.20963	0.972
2.24696	0.972
2.28429	0.972
2.32161	0.97
2.35894	0.967
2.39627	0.962
2.4336	0.959
2.47092	0.956
2.50825	0.961
2.54558	0.962
2.5829	0.967
2.62023	0.97
2.65756	0.975
2.69488	0.978
2.73221	0.981
2.76954	0.989
2.80686	0.987
2.84419	0.989
2.88152	0.987
2.91884	0.987
2.95617	0.987
2.9935	0.987
3.03082	0.986
3.06815	0.981
3.10548	0.89
3.14281	0.755
3.18013	0.659
3.21746	0.472
3.25479	0.344
3.29211	0.273
3.32944	0.239
3.36677	0.216
3.40409	0.171
3.44142	0.149
3.47875	0.143
3.51607	0.137
3.5534	0.153
3.59073	0.224
3.62805	0.262
3.66538	0.358
3.70271	0.397
3.74003	0.469
3.77736	0.511
3.81469	0.517
3.85202	0.55
3.88934	0.576
3.92667	0.568
3.964	0.545
4.00132	0.588
4.03865	0.647
4.07598	0.723
4.1133	0.795
4.15063	0.823
4.18796	0.837
4.22528	0.842
4.26261	0.859
4.29994	0.865
4.33726	0.887
4.37459	0.91
4.41192	0.919
4.44924	0.924
4.48657	0.927
4.5239	0.928
4.56123	0.93
4.59855	0.93
4.63588	0.93
4.67321	0.927
4.71053	0.922
4.74786	0.913
4.78519	0.896
4.82251	0.848
4.85984	0.792
4.89717	0.741
4.93449	0.726
4.97182	0.729
5.00915	0.746
5.04647	0.786
5.0838	0.808
5.12113	0.839
5.15846	0.856
5.19578	0.871
5.23311	0.884
5.27044	0.894
5.30776	0.908
5.34509	0.913
5.38242	0.914
5.41974	0.916
5.45707	0.919
5.4944	0.919
5.53172	0.919
5.56905	0.918
5.60638	0.919
5.6437	0.919
5.68103	0.919
5.71836	0.918
5.75568	0.918
5.79301	0.911
5.83034	0.907
5.86767	0.901
5.90499	0.899
5.94232	0.901
5.97965	0.901
6.01697	0.894
6.0543	0.885
6.09163	0.862
6.12895	0.785
6.16628	0.604
6.20361	0.406
6.24093	0.329
6.27826	0.455
6.31559	0.629
6.35291	0.709
6.39024	0.74
6.42757	0.769
6.46489	0.769
6.50222	0.72
6.53955	0.548
6.57688	0.4
6.6142	0.29
6.65153	0.27
6.68886	0.395
6.72618	0.561
6.76351	0.561
6.80084	0.344
6.83816	0.346
6.87549	0.377
6.91282	0.486
6.95014	0.576
6.98747	0.595
7.0248	0.602
7.06212	0.735
7.09945	0.766
7.13678	0.741
7.1741	0.616
7.21143	0.537
7.24876	0.502
7.28609	0.573
7.32341	0.659
7.36074	0.727
7.39807	0.741
7.43539	0.763
7.47272	0.789
7.51005	0.814
7.54737	0.819
7.5847	0.817
7.62203	0.814
7.65935	0.809
7.69668	0.785
7.73401	0.763
7.77133	0.771
7.80866	0.782
7.84599	0.782
7.88331	0.778
7.92064	0.782
7.95797	0.783
7.9953	0.788
8.03262	0.805
8.06995	0.831
8.10728	0.836
8.1446	0.837
8.18193	0.834
8.21926	0.831
8.25658	0.825
8.29391	0.826
8.33124	0.831
8.36856	0.834
8.40589	0.825
8.44322	0.802
8.48054	0.772
8.51787	0.74
8.5552	0.746
8.59252	0.782
8.62985	0.805
8.66718	0.812
8.70451	0.819
8.74183	0.812
8.77916	0.808
8.81649	0.792
8.85381	0.76
8.89114	0.723
8.92847	0.695
8.96579	0.672
9.00312	0.647
9.04045	0.672
9.07777	0.729
9.1151	0.783
9.15243	0.811
9.18975	0.826
9.22708	0.833
9.26441	0.84
9.30173	0.834
9.33906	0.828
9.37639	0.812
9.41372	0.808
9.45104	0.814
9.48837	0.823
9.5257	0.826
9.56302	0.82
9.60035	0.812
9.63768	0.805
9.675	0.799
9.71233	0.78
9.74966	0.749
9.78698	0.749
9.82431	0.778
9.86164	0.799
9.89896	0.817
9.93629	0.823
9.97362	0.836
10.0109	0.853
10.0483	0.845
10.0856	0.817
10.1229	0.8
10.1603	0.792
10.1976	0.794
10.2349	0.803
10.2722	0.808
10.3096	0.811
10.3469	0.814
10.3842	0.817
10.4215	0.819
10.4589	0.82
10.4962	0.823
10.5335	0.829
10.5708	0.836
10.6082	0.845
10.6455	0.851
10.6828	0.857
10.7202	0.859
10.7575	0.86
10.7948	0.862
10.8321	0.862
10.8695	0.86
10.9068	0.86
10.9441	0.859
10.9814	0.856
11.0188	0.85
11.0561	0.843
11.0934	0.84
11.1308	0.836
11.1681	0.831
11.2054	0.826
11.2427	0.819
11.2801	0.811
11.3174	0.809
11.3547	0.811
11.392	0.82
11.4294	0.829
11.4667	0.839
11.504	0.846
11.5413	0.85
11.5787	0.85
11.616	0.851
11.6533	0.853
11.6907	0.851
11.728	0.851
11.7653	0.851
11.8026	0.851
11.84	0.85
11.8773	0.85
11.9146	0.85
11.9519	0.85
11.9893	0.85
12.0266	0.851
12.0639	0.851
12.1012	0.851
12.1386	0.851
12.1759	0.854
12.2132	0.859
12.2506	0.859
12.2879	0.859
12.3252	0.859
12.3625	0.86
12.3999	0.859
12.4372	0.859
12.4745	0.859
12.5118	0.859
12.5492	0.86
12.5865	0.86
12.6238	0.857
12.6612	0.851
12.6985	0.85
12.7358	0.85
12.7731	0.85
12.8105	0.85
12.8478	0.85
12.8851	0.85
12.9224	0.85
12.9598	0.851
12.9971	0.851
13.0344	0.851
13.0717	0.851
13.1091	0.85
13.1464	0.85
13.1837	0.848
13.2211	0.836
13.2584	0.819
13.2957	0.803
13.333	0.8
13.3704	0.797
13.4077	0.791
13.445	0.777
13.4823	0.751
13.5197	0.738
13.557	0.734
13.5943	0.732
13.6316	0.738
13.669	0.749
13.7063	0.757
13.7436	0.765
13.781	0.769
13.8183	0.772
13.8556	0.772
13.8929	0.775
13.9303	0.782
13.9676	0.788
14.0049	0.802
14.0422	0.811
14.0796	0.82
14.1169	0.829
14.1542	0.84
14.1916	0.851
14.2289	0.857
14.2662	0.86
14.3035	0.863
14.3409	0.867
14.3782	0.868
14.4155	0.868
14.4528	0.87
14.4902	0.87
14.5275	0.87
14.5648	0.87
14.6021	0.868
14.6395	0.863
14.6768	0.863
14.7141	0.863
14.7515	0.863
14.7888	0.86
14.8261	0.86
14.8634	0.86
14.9008	0.862
14.9381	0.862
14.9754	0.867
