Infrared Spectrum: 2-AMINO-3-METHYL-1-BUTANETHIOL HYDROCHLORIDE
Formula: C5 H13 N S  * H Cl
CAS: 4146-15-0
State: SOLID (MINERAL OIL MULL)
Melting point: 161-162 C
Class: COBLENTZ
Instrument: Not specified, most likely a prism, grating, or hybrid spectrometer.
Sampling: TRANSMISSION
Resolution: 4
Origin: ARTHUR D. LITTLE, INC.
MICROMETERS	TRANSMITTANCE
2.033	0.835
2.06597	0.837
2.09894	0.84
2.1319	0.842
2.16487	0.845
2.19784	0.848
2.23081	0.849
2.26378	0.849
2.29675	0.848
2.32971	0.846
2.36268	0.845
2.39565	0.844
2.42862	0.842
2.46159	0.844
2.49456	0.846
2.52752	0.851
2.56049	0.855
2.59346	0.86
2.62643	0.868
2.6594	0.878
2.69237	0.884
2.72533	0.889
2.7583	0.892
2.79127	0.896
2.82424	0.897
2.85721	0.896
2.89017	0.896
2.92314	0.895
2.95611	0.893
2.98908	0.893
3.02205	0.897
3.05502	0.896
3.08798	0.882
3.12095	0.783
3.15392	0.696
3.18689	0.627
3.21986	0.484
3.25283	0.375
3.28579	0.27
3.31876	0.216
3.35173	0.191
3.3847	0.154
3.41767	0.129
3.45064	0.12
3.4836	0.117
3.51657	0.12
3.54954	0.166
3.58251	0.262
3.61548	0.336
3.64845	0.391
3.68141	0.441
3.71438	0.48
3.74735	0.52
3.78032	0.539
3.81329	0.546
3.84625	0.576
3.87922	0.591
3.91219	0.582
3.94516	0.579
3.97813	0.617
4.0111	0.645
4.04406	0.68
4.07703	0.765
4.11	0.815
4.14297	0.827
4.17594	0.835
4.20891	0.844
4.24187	0.851
4.27484	0.856
4.30781	0.864
4.34078	0.875
4.37375	0.888
4.40672	0.893
4.43968	0.896
4.47265	0.897
4.50562	0.897
4.53859	0.9
4.57156	0.9
4.60452	0.902
4.63749	0.906
4.67046	0.91
4.70343	0.911
4.7364	0.91
4.76937	0.902
4.80233	0.893
4.8353	0.882
4.86827	0.859
4.90124	0.82
4.93421	0.801
4.96718	0.782
5.00014	0.775
5.03311	0.779
5.06608	0.787
5.09905	0.808
5.13202	0.831
5.16499	0.856
5.19795	0.873
5.23092	0.878
5.26389	0.884
5.29686	0.893
5.32983	0.897
5.3628	0.906
5.39576	0.91
5.42873	0.914
5.4617	0.918
5.49467	0.918
5.52764	0.92
5.5606	0.92
5.59357	0.92
5.62654	0.922
5.65951	0.922
5.69248	0.921
5.72545	0.92
5.75841	0.918
5.79138	0.918
5.82435	0.917
5.85732	0.917
5.89029	0.914
5.92326	0.913
5.95622	0.913
5.98919	0.91
6.02216	0.906
6.05513	0.895
6.0881	0.882
6.12107	0.823
6.15403	0.703
6.187	0.488
6.21997	0.373
6.25294	0.348
6.28591	0.502
6.31887	0.644
6.35184	0.731
6.38481	0.76
6.41778	0.775
6.45075	0.782
6.48372	0.74
6.51668	0.55
6.54965	0.376
6.58262	0.266
6.61559	0.24
6.64856	0.384
6.68153	0.571
6.71449	0.642
6.74746	0.579
6.78043	0.471
6.8134	0.416
6.84637	0.466
6.87934	0.555
6.9123	0.611
6.94527	0.646
6.97824	0.613
7.01121	0.568
7.04418	0.648
7.07714	0.739
7.11011	0.71
7.14308	0.572
7.17605	0.569
7.20902	0.66
7.24199	0.591
7.27495	0.584
7.30792	0.72
7.34089	0.75
7.37386	0.776
7.40683	0.794
7.4398	0.815
7.47276	0.826
7.50573	0.822
7.5387	0.813
7.57167	0.819
7.60464	0.82
7.63761	0.817
7.67057	0.804
7.70354	0.802
7.73651	0.833
7.76948	0.851
7.80245	0.863
7.83542	0.862
7.86838	0.859
7.90135	0.851
7.93432	0.838
7.96729	0.822
8.00026	0.824
8.03322	0.828
8.06619	0.827
8.09916	0.828
8.13213	0.838
8.1651	0.848
8.19807	0.864
8.23103	0.871
8.264	0.878
8.29697	0.878
8.32994	0.868
8.36291	0.837
8.39588	0.83
8.42884	0.849
8.46181	0.867
8.49478	0.874
8.52775	0.868
8.56072	0.845
8.59369	0.833
8.62665	0.842
8.65962	0.86
8.69259	0.863
8.72556	0.862
8.75853	0.862
8.79149	0.863
8.82446	0.862
8.85743	0.852
8.8904	0.822
8.92337	0.812
8.95634	0.806
8.9893	0.805
9.02227	0.806
9.05524	0.811
9.08821	0.815
9.12118	0.819
9.15415	0.823
9.18711	0.83
9.22008	0.837
9.25305	0.851
9.28602	0.866
9.31899	0.875
9.35196	0.873
9.38492	0.867
9.41789	0.857
9.45086	0.844
9.48383	0.834
9.5168	0.827
9.54977	0.826
9.58273	0.824
9.6157	0.822
9.64867	0.802
9.68164	0.748
9.71461	0.71
9.74757	0.702
9.78054	0.718
9.81351	0.776
9.84648	0.811
9.87945	0.828
9.91242	0.851
9.94538	0.867
9.97835	0.878
10.0113	0.877
10.0443	0.864
10.0773	0.86
10.1102	0.857
10.1432	0.856
10.1762	0.86
10.2091	0.86
10.2421	0.863
10.2751	0.864
10.308	0.868
10.341	0.871
10.374	0.868
10.4069	0.866
10.4399	0.87
10.4729	0.874
10.5058	0.878
10.5388	0.884
10.5718	0.888
10.6047	0.891
10.6377	0.895
10.6707	0.899
10.7037	0.9
10.7366	0.897
10.7696	0.895
10.8026	0.899
10.8355	0.907
10.8685	0.914
10.9015	0.922
10.9344	0.925
10.9674	0.928
11.0004	0.932
11.0333	0.932
11.0663	0.933
11.0993	0.933
11.1322	0.933
11.1652	0.932
11.1982	0.931
11.2311	0.928
11.2641	0.918
11.2971	0.91
11.3301	0.906
11.363	0.906
11.396	0.907
11.429	0.913
11.4619	0.918
11.4949	0.924
11.5279	0.926
11.5608	0.931
11.5938	0.931
11.6268	0.932
11.6597	0.932
11.6927	0.932
11.7257	0.932
11.7586	0.932
11.7916	0.933
11.8246	0.933
11.8575	0.932
11.8905	0.932
11.9235	0.932
11.9564	0.932
11.9894	0.931
12.0224	0.929
12.0554	0.926
12.0883	0.924
12.1213	0.921
12.1543	0.918
12.1872	0.918
12.2202	0.917
12.2532	0.917
12.2861	0.915
12.3191	0.914
12.3521	0.913
12.385	0.91
12.418	0.908
12.451	0.91
12.4839	0.911
12.5169	0.91
12.5499	0.91
12.5828	0.91
12.6158	0.91
12.6488	0.91
12.6818	0.91
12.7147	0.91
12.7477	0.91
12.7807	0.911
12.8136	0.91
12.8466	0.908
12.8796	0.906
12.9125	0.9
12.9455	0.895
12.9785	0.888
13.0114	0.88
13.0444	0.874
13.0774	0.873
13.1103	0.875
13.1433	0.877
13.1763	0.878
13.2092	0.878
13.2422	0.878
13.2752	0.878
13.3081	0.878
13.3411	0.878
13.3741	0.875
13.4071	0.871
13.44	0.863
13.473	0.857
13.506	0.851
13.5389	0.835
13.5719	0.823
13.6049	0.812
13.6378	0.809
13.6708	0.806
13.7038	0.805
13.7367	0.805
13.7697	0.809
13.8027	0.813
13.8356	0.819
13.8686	0.828
13.9016	0.831
13.9345	0.834
13.9675	0.838
14.0005	0.844
14.0334	0.848
14.0664	0.851
14.0994	0.849
14.1324	0.851
14.1653	0.849
14.1983	0.849
14.2313	0.848
14.2642	0.848
14.2972	0.846
14.3302	0.844
14.3631	0.844
14.3961	0.841
14.4291	0.838
14.462	0.835
14.495	0.833
