Infrared Spectrum: 2-AMINO-1-PENTANOL HYDROCHLORIDE
Formula: C5 H13 N O  * H Cl
CAS: 4146-05-8
State: SOLID
Melting point: 90.5-91.5 C
Class: COBLENTZ
Instrument: Not specified, most likely a prism, grating, or hybrid spectrometer.
Sampling: TRANSMISSION
Resolution: 4
Origin: ARTHUR D. LITTLE, INC.
MICROMETERS	TRANSMITTANCE
2.519	0.845
2.55464	0.848
2.59027	0.852
2.62591	0.856
2.66155	0.862
2.69719	0.869
2.73282	0.869
2.76846	0.859
2.8041	0.822
2.83974	0.762
2.87537	0.678
2.91101	0.573
2.94665	0.491
2.98228	0.441
3.01792	0.453
3.05356	0.51
3.0892	0.545
3.12483	0.502
3.16047	0.527
3.19611	0.487
3.23175	0.382
3.26738	0.315
3.30302	0.228
3.33866	0.153
3.37429	0.135
3.40993	0.128
3.44557	0.14
3.48121	0.164
3.51684	0.247
3.55248	0.354
3.58812	0.455
3.62376	0.464
3.65939	0.479
3.69503	0.537
3.73067	0.629
3.7663	0.574
3.80194	0.623
3.83758	0.644
3.87322	0.695
3.90885	0.697
3.94449	0.59
3.98013	0.674
4.01577	0.758
4.0514	0.769
4.08704	0.699
4.12268	0.783
4.15831	0.84
4.19395	0.853
4.22959	0.856
4.26523	0.862
4.30086	0.879
4.3365	0.901
4.37214	0.895
4.40777	0.891
4.44341	0.889
4.47905	0.891
4.51469	0.892
4.55032	0.892
4.58596	0.892
4.6216	0.892
4.65724	0.894
4.69287	0.896
4.72851	0.894
4.76415	0.89
4.79978	0.882
4.83542	0.872
4.87106	0.888
4.9067	0.889
4.94233	0.882
4.97797	0.871
5.01361	0.856
5.04925	0.832
5.08488	0.755
5.12052	0.712
5.15616	0.721
5.19179	0.73
5.22743	0.764
5.26307	0.816
5.29871	0.84
5.33434	0.856
5.36998	0.869
5.40562	0.879
5.44126	0.889
5.47689	0.895
5.51253	0.903
5.54817	0.907
5.5838	0.909
5.61944	0.909
5.65508	0.91
5.69072	0.915
5.72635	0.912
5.76199	0.909
5.79763	0.908
5.83327	0.904
5.8689	0.902
5.90454	0.9
5.94018	0.902
5.97581	0.907
6.01145	0.908
6.04709	0.902
6.08273	0.89
6.11836	0.879
6.154	0.862
6.18964	0.853
6.22528	0.794
6.26091	0.582
6.29655	0.624
6.33219	0.567
6.36782	0.545
6.40346	0.725
6.4391	0.796
6.47474	0.864
6.51037	0.868
6.54601	0.857
6.58165	0.812
6.61729	0.695
6.65292	0.456
6.68856	0.469
6.7242	0.495
6.75983	0.745
6.79547	0.788
6.83111	0.535
6.86675	0.546
6.90238	0.659
6.93802	0.802
6.97366	0.831
7.0093	0.834
7.04493	0.838
7.08057	0.847
7.11621	0.859
7.15184	0.838
7.18748	0.778
7.22312	0.702
7.25876	0.775
7.29439	0.797
7.33003	0.775
7.36567	0.687
7.4013	0.703
7.43694	0.784
7.47258	0.853
7.50822	0.872
7.54385	0.879
7.57949	0.879
7.61513	0.852
7.65077	0.856
7.6864	0.864
7.72204	0.845
7.75768	0.812
7.79331	0.808
7.82895	0.815
7.86459	0.822
7.90023	0.764
7.93586	0.759
7.9715	0.788
8.00714	0.804
8.04278	0.828
8.07841	0.84
8.11405	0.841
8.14969	0.843
8.18532	0.843
8.22096	0.839
8.2566	0.844
8.29224	0.846
8.32787	0.852
8.36351	0.845
8.39915	0.802
8.43479	0.706
8.47042	0.613
8.50606	0.62
8.5417	0.653
8.57733	0.637
8.61297	0.627
8.64861	0.718
8.68425	0.769
8.71988	0.813
8.75552	0.827
8.79116	0.84
8.8268	0.846
8.86243	0.84
8.89807	0.809
8.93371	0.776
8.96934	0.766
9.00498	0.788
9.04062	0.85
9.07626	0.864
9.11189	0.87
9.14753	0.872
9.18317	0.875
9.21881	0.875
9.25444	0.87
9.29008	0.856
9.32572	0.8
9.36135	0.718
9.39699	0.582
9.43263	0.526
9.46827	0.495
9.5039	0.505
9.53954	0.574
9.57518	0.636
9.61082	0.663
9.64645	0.733
9.68209	0.733
9.71773	0.669
9.75336	0.624
9.789	0.749
9.82464	0.824
9.86028	0.847
9.89591	0.872
9.93155	0.9
9.96719	0.92
10.0028	0.929
10.0385	0.933
10.0741	0.914
10.1097	0.897
10.1454	0.891
10.181	0.865
10.2166	0.835
10.2523	0.854
10.2879	0.865
10.3236	0.835
10.3592	0.717
10.3948	0.617
10.4305	0.69
10.4661	0.843
10.5017	0.898
10.5374	0.917
10.573	0.923
10.6087	0.934
10.6443	0.942
10.6799	0.95
10.7156	0.953
10.7512	0.953
10.7868	0.959
10.8225	0.961
10.8581	0.967
10.8938	0.972
10.9294	0.972
10.965	0.97
11.0007	0.97
11.0363	0.967
11.0719	0.954
11.1076	0.931
11.1432	0.862
11.1789	0.822
11.2145	0.87
11.2501	0.928
11.2858	0.954
11.3214	0.963
11.357	0.971
11.3927	0.976
11.4283	0.978
11.464	0.979
11.4996	0.98
11.5352	0.982
11.5709	0.989
11.6065	0.996
11.6421	0.997
11.6778	1
11.7134	0.997
11.7491	1.002
11.7847	1.001
11.8203	0.998
11.856	1
11.8916	1
11.9272	0.994
11.9629	0.988
11.9985	0.963
12.0341	0.958
12.0698	0.964
12.1054	0.979
12.1411	0.994
12.1767	0.994
12.2123	0.995
12.248	0.994
12.2836	0.991
12.3192	0.992
12.3549	0.994
12.3905	0.994
12.4262	0.994
12.4618	0.994
12.4974	0.995
12.5331	0.992
12.5687	0.992
12.6043	0.992
12.64	0.992
12.6756	0.992
12.7113	0.99
12.7469	0.985
12.7825	0.988
12.8182	0.988
12.8538	0.989
12.8894	0.99
12.9251	0.99
12.9607	0.984
12.9964	0.979
13.032	0.972
13.0676	0.971
13.1033	0.97
13.1389	0.967
13.1745	0.964
13.2102	0.959
13.2458	0.953
13.2815	0.948
13.3171	0.942
13.3527	0.922
13.3884	0.903
13.424	0.885
13.4596	0.847
13.4953	0.809
13.5309	0.804
13.5666	0.828
13.6022	0.852
13.6378	0.885
13.6735	0.901
13.7091	0.912
13.7447	0.913
13.7804	0.913
13.816	0.917
13.8516	0.915
13.8873	0.913
13.9229	0.913
13.9586	0.91
13.9942	0.909
14.0298	0.902
14.0655	0.903
14.1011	0.9
14.1367	0.9
14.1724	0.9
14.208	0.898
14.2437	0.896
14.2793	0.89
14.3149	0.873
14.3506	0.871
14.3862	0.868
14.4218	0.864
14.4575	0.859
14.4931	0.854
14.5288	0.851
14.5644	0.843
14.6	0.837
14.6357	0.833
14.6713	0.828
14.7069	0.826
14.7426	0.825
14.7782	0.822
14.8139	0.816
14.8495	0.815
14.8851	0.803
14.9208	0.793
14.9564	0.788
14.992	0.777
