Infrared Spectrum: 2-METHYL-4-n-PROPYL-Delta^2-THIAZOLINE
Formula: C7 H13 N S
CAS: 4146-20-7
Boiling point: 78-79 C AT 20 mmHg
Class: COBLENTZ
Instrument: Not specified, most likely a prism, grating, or hybrid spectrometer.
Sampling: TRANSMISSION
Path length: FILM
Resolution: 4
Origin: ARTHUR D. LITTLE, INC.
1/CM	TRANSMITTANCE
644.804	0.365
652.178	0.392
659.553	0.402
666.927	0.426
674.301	0.448
681.675	0.46
689.05	0.467
696.424	0.47
703.798	0.472
711.173	0.464
718.547	0.427
725.921	0.355
733.296	0.38
740.67	0.41
748.044	0.413
755.418	0.415
762.793	0.459
770.167	0.488
777.541	0.49
784.916	0.482
792.29	0.477
799.664	0.466
807.038	0.449
814.413	0.405
821.787	0.3
829.161	0.248
836.536	0.322
843.91	0.332
851.284	0.352
858.659	0.37
866.033	0.385
873.407	0.38
880.781	0.341
888.156	0.316
895.53	0.359
902.904	0.35
910.279	0.354
917.653	0.37
925.027	0.36
932.401	0.346
939.776	0.332
947.15	0.254
954.524	0.251
961.899	0.299
969.273	0.353
976.647	0.421
984.022	0.456
991.396	0.481
998.77	0.451
1006.14	0.417
1013.52	0.416
1020.89	0.422
1028.27	0.431
1035.64	0.432
1043.02	0.421
1050.39	0.402
1057.76	0.392
1065.14	0.389
1072.51	0.37
1079.89	0.32
1087.26	0.248
1094.64	0.229
1102.01	0.229
1109.38	0.232
1116.76	0.226
1124.13	0.165
1131.51	0.109
1138.88	0.065
1146.26	0.064
1153.63	0.089
1161	0.197
1168.38	0.298
1175.75	0.363
1183.13	0.394
1190.5	0.381
1197.88	0.349
1205.25	0.337
1212.62	0.339
1220	0.338
1227.37	0.366
1234.75	0.399
1242.12	0.402
1249.5	0.403
1256.87	0.421
1264.24	0.432
1271.62	0.429
1278.99	0.403
1286.37	0.396
1293.74	0.374
1301.12	0.338
1308.49	0.348
1315.86	0.352
1323.24	0.408
1330.61	0.401
1337.99	0.383
1345.36	0.338
1352.74	0.203
1360.11	0.205
1367.48	0.268
1374.86	0.383
1382.23	0.387
1389.61	0.375
1396.98	0.344
1404.36	0.252
1411.73	0.19
1419.1	0.162
1426.48	0.193
1433.85	0.194
1441.23	0.215
1448.6	0.262
1455.98	0.269
1463.35	0.278
1470.72	0.509
1478.1	0.586
1485.47	0.631
1492.85	0.649
1500.22	0.652
1507.6	0.652
1514.97	0.65
1522.35	0.652
1529.72	0.651
1537.09	0.653
1544.47	0.655
1551.84	0.655
1559.22	0.651
1566.59	0.646
1573.97	0.641
1581.34	0.631
1588.71	0.605
1596.09	0.566
1603.46	0.527
1610.84	0.486
1618.21	0.352
1625.59	0.156
1632.96	0.084
1640.33	0.105
1647.71	0.242
1655.08	0.479
1662.46	0.54
1669.83	0.581
1677.21	0.602
1684.58	0.667
1691.95	0.689
1699.33	0.709
1706.7	0.721
1714.08	0.732
1721.45	0.735
1728.83	0.738
1736.2	0.746
1743.57	0.752
1750.95	0.754
1758.32	0.757
1765.7	0.753
1773.07	0.757
1780.45	0.758
1787.82	0.763
1795.19	0.766
1802.57	0.766
1809.94	0.766
1817.32	0.766
1824.69	0.767
1832.07	0.767
1839.44	0.768
1846.81	0.769
1854.19	0.768
1861.56	0.77
1868.94	0.77
1876.31	0.769
1883.69	0.769
1891.06	0.77
1898.43	0.77
1905.81	0.77
1913.18	0.769
1920.56	0.768
1927.93	0.768
1935.31	0.768
1942.68	0.768
1950.05	0.768
1957.43	0.769
1964.8	0.769
1972.18	0.768
1979.55	0.769
1986.93	0.769
1994.3	0.769
2001.67	0.769
2009.05	0.77
2016.42	0.77
2023.8	0.769
2031.17	0.77
2038.55	0.77
2045.92	0.772
2053.29	0.768
2060.67	0.767
2068.04	0.767
2075.42	0.767
2082.79	0.767
2090.17	0.769
2097.54	0.768
2104.91	0.768
2112.29	0.768
2119.66	0.767
2127.04	0.767
2134.41	0.768
2141.79	0.768
2149.16	0.769
2156.53	0.768
2163.91	0.766
2171.28	0.766
2178.66	0.766
2186.03	0.767
2193.41	0.767
2200.78	0.767
2208.15	0.769
2215.53	0.769
2222.9	0.767
2230.28	0.767
2237.65	0.768
2245.03	0.768
2252.4	0.767
2259.77	0.763
2267.15	0.759
2274.52	0.757
2281.9	0.757
2289.27	0.754
2296.65	0.754
2304.02	0.754
2311.39	0.753
2318.77	0.753
2326.14	0.753
2333.52	0.753
2340.89	0.752
2348.27	0.752
2355.64	0.751
2363.01	0.753
2370.39	0.754
2377.76	0.754
2385.14	0.754
2392.51	0.754
2399.89	0.761
2407.26	0.764
2414.63	0.766
2422.01	0.768
2429.38	0.773
2436.76	0.775
2444.13	0.768
2451.51	0.764
2458.88	0.764
2466.25	0.764
2473.63	0.763
2481	0.762
2488.38	0.762
2495.75	0.761
2503.13	0.758
2510.5	0.756
2517.87	0.754
2525.25	0.753
2532.62	0.753
2540	0.753
2547.37	0.753
2554.75	0.751
2562.12	0.751
2569.49	0.75
2576.87	0.747
2584.24	0.746
2591.62	0.745
2598.99	0.746
2606.37	0.748
2613.74	0.748
2621.11	0.751
2628.49	0.751
2635.86	0.75
2643.24	0.748
2650.61	0.748
2657.99	0.747
2665.36	0.745
2672.73	0.745
2680.11	0.742
2687.48	0.743
2694.86	0.743
2702.23	0.741
2709.61	0.74
2716.98	0.731
2724.36	0.725
2731.73	0.722
2739.1	0.72
2746.48	0.73
2753.85	0.73
2761.23	0.726
2768.6	0.722
2775.98	0.716
2783.35	0.703
2790.72	0.677
2798.1	0.668
2805.47	0.651
2812.85	0.624
2820.22	0.602
2827.6	0.551
2834.97	0.495
2842.34	0.405
2849.72	0.24
2857.09	0.2
2864.47	0.161
2871.84	0.153
2879.22	0.153
2886.59	0.199
2893.96	0.231
2901.34	0.199
2908.71	0.15
2916.09	0.109
2923.46	0.089
2930.84	0.081
2938.21	0.086
2945.58	0.092
2952.96	0.096
2960.33	0.077
2967.71	0.081
2975.08	0.135
2982.46	0.215
2989.83	0.364
2997.2	0.422
3004.58	0.481
3011.95	0.565
3019.33	0.6
3026.7	0.635
3034.08	0.649
3041.45	0.653
3048.82	0.661
3056.2	0.671
3063.57	0.679
3070.95	0.688
3078.32	0.692
3085.7	0.703
3093.07	0.715
3100.44	0.717
3107.82	0.719
3115.19	0.719
3122.57	0.721
3129.94	0.721
3137.32	0.717
3144.69	0.714
3152.06	0.713
3159.44	0.708
3166.81	0.708
3174.19	0.704
3181.56	0.704
3188.94	0.704
3196.31	0.701
3203.68	0.699
3211.06	0.699
3218.43	0.698
3225.81	0.694
3233.18	0.685
3240.56	0.676
3247.93	0.667
3255.3	0.663
3262.68	0.667
3270.05	0.683
3277.43	0.694
3284.8	0.699
3292.18	0.703
3299.55	0.704
