Infrared Spectrum: N-2-(1-HYDROXY)PENTYLBENZAMIDE
Formula: C12 H17 N O2
CAS: 4146-07-0
State: SOLID
Melting point: 96-97 C
Class: COBLENTZ
Instrument: Not specified, most likely a prism, grating, or hybrid spectrometer.
Sampling: TRANSMISSION
Resolution: 4
Origin: ARTHUR D. LITTLE, INC.
MICROMETERS	TRANSMITTANCE
2.123	0.738
2.15695	0.741
2.1909	0.742
2.22484	0.745
2.25879	0.746
2.29274	0.749
2.32669	0.751
2.36063	0.753
2.39458	0.753
2.42853	0.756
2.46248	0.759
2.49642	0.762
2.53037	0.768
2.56432	0.777
2.59827	0.782
2.63221	0.789
2.66616	0.796
2.70011	0.799
2.73406	0.801
2.768	0.801
2.80195	0.799
2.8359	0.79
2.86985	0.71
2.90379	0.575
2.93774	0.377
2.97169	0.202
3.00564	0.135
3.03958	0.123
3.07353	0.127
3.10748	0.193
3.14143	0.289
3.17537	0.37
3.20932	0.475
3.24327	0.506
3.27722	0.466
3.31116	0.526
3.34511	0.581
3.37906	0.355
3.41301	0.176
3.44695	0.209
3.4809	0.333
3.51485	0.248
3.5488	0.52
3.58274	0.619
3.61669	0.661
3.65064	0.683
3.68459	0.719
3.71853	0.731
3.75248	0.734
3.78643	0.735
3.82038	0.738
3.85432	0.753
3.88827	0.762
3.92222	0.769
3.95617	0.79
3.99011	0.79
4.02406	0.793
4.05801	0.801
4.09196	0.806
4.1259	0.813
4.15985	0.821
4.1938	0.826
4.22775	0.827
4.26169	0.83
4.29564	0.833
4.32959	0.835
4.36354	0.837
4.39748	0.838
4.43143	0.842
4.46538	0.847
4.49933	0.848
4.53327	0.851
4.56722	0.852
4.60117	0.854
4.63512	0.855
4.66906	0.855
4.70301	0.855
4.73696	0.857
4.77091	0.857
4.80485	0.857
4.8388	0.857
4.87275	0.858
4.9067	0.858
4.94064	0.859
4.97459	0.861
5.00854	0.862
5.04249	0.862
5.07643	0.858
5.11038	0.841
5.14433	0.84
5.17828	0.859
5.21222	0.862
5.24617	0.851
5.28012	0.837
5.31407	0.854
5.34801	0.864
5.38196	0.865
5.41591	0.862
5.44986	0.857
5.4838	0.847
5.51775	0.844
5.5517	0.842
5.58565	0.838
5.61959	0.821
5.65354	0.816
5.68749	0.82
5.72144	0.821
5.75538	0.809
5.78933	0.772
5.82328	0.76
5.85723	0.746
5.89117	0.725
5.92512	0.667
5.95907	0.547
5.99302	0.434
6.02696	0.291
6.06091	0.203
6.09486	0.14
6.12881	0.117
6.16275	0.199
6.1967	0.26
6.23065	0.304
6.2646	0.445
6.29854	0.278
6.33249	0.27
6.36644	0.332
6.40039	0.24
6.43433	0.104
6.46828	0.091
6.50223	0.077
6.53618	0.079
6.57012	0.114
6.60407	0.22
6.63802	0.284
6.67197	0.227
6.70591	0.209
6.73986	0.223
6.77381	0.248
6.80776	0.198
6.8417	0.223
6.87565	0.224
6.9096	0.275
6.94355	0.316
6.97749	0.322
7.01144	0.355
7.04539	0.37
7.07934	0.391
7.11328	0.407
7.14723	0.417
7.18118	0.42
7.21513	0.39
7.24907	0.323
7.28302	0.305
7.31697	0.328
7.35092	0.349
7.38486	0.302
7.41881	0.217
7.45276	0.27
7.48671	0.263
7.52065	0.179
7.5546	0.165
7.58855	0.254
7.6225	0.305
7.65644	0.301
7.69039	0.297
7.72434	0.373
7.75829	0.4
7.79223	0.468
7.82618	0.458
7.86013	0.503
7.89408	0.571
7.92802	0.616
7.96197	0.628
7.99592	0.628
8.02987	0.608
8.06381	0.506
8.09776	0.425
8.13171	0.527
8.16566	0.643
8.1996	0.643
8.23355	0.615
8.2675	0.628
8.30145	0.671
8.33539	0.701
8.36934	0.715
8.40329	0.707
8.43724	0.69
8.47118	0.687
8.50513	0.695
8.53908	0.693
8.57303	0.639
8.60697	0.499
8.64092	0.456
8.67487	0.541
8.70882	0.523
8.74276	0.499
8.77671	0.611
8.81066	0.697
8.84461	0.711
8.87855	0.693
8.9125	0.677
8.94645	0.671
8.9804	0.616
9.01434	0.489
9.04829	0.381
9.08224	0.34
9.11619	0.418
9.15013	0.544
9.18408	0.615
9.21803	0.629
9.25198	0.599
9.28592	0.455
9.31987	0.38
9.35382	0.289
9.38777	0.237
9.42171	0.256
9.45566	0.306
9.48961	0.335
9.52356	0.254
9.5575	0.23
9.59145	0.241
9.6254	0.421
9.65935	0.479
9.69329	0.387
9.72724	0.483
9.76119	0.514
9.79514	0.512
9.82908	0.565
9.86303	0.663
9.89698	0.717
9.93093	0.722
9.96487	0.684
9.99882	0.647
10.0328	0.613
10.0667	0.698
10.1007	0.759
10.1346	0.789
10.1686	0.821
10.2025	0.833
10.2365	0.835
10.2704	0.837
10.3043	0.844
10.3383	0.852
10.3722	0.857
10.4062	0.864
10.4401	0.869
10.4741	0.874
10.508	0.875
10.542	0.874
10.5759	0.875
10.6099	0.875
10.6438	0.876
10.6778	0.874
10.7117	0.868
10.7457	0.828
10.7796	0.729
10.8136	0.678
10.8475	0.68
10.8815	0.748
10.9154	0.818
10.9494	0.831
10.9833	0.85
11.0172	0.859
11.0512	0.867
11.0851	0.869
11.1191	0.872
11.153	0.871
11.187	0.869
11.2209	0.858
11.2549	0.83
11.2888	0.786
11.3228	0.68
11.3567	0.519
11.3907	0.463
11.4246	0.591
11.4586	0.707
11.4925	0.765
11.5265	0.799
11.5604	0.794
11.5944	0.748
11.6283	0.729
11.6622	0.753
11.6962	0.783
11.7301	0.797
11.7641	0.801
11.798	0.787
11.832	0.759
11.8659	0.745
11.8999	0.768
11.9338	0.809
11.9678	0.83
12.0017	0.845
12.0357	0.852
12.0696	0.859
12.1036	0.862
12.1375	0.864
12.1715	0.867
12.2054	0.868
12.2394	0.869
12.2733	0.868
12.3073	0.867
12.3412	0.858
12.3751	0.844
12.4091	0.787
12.443	0.707
12.477	0.602
12.5109	0.606
12.5449	0.677
12.5788	0.773
12.6128	0.803
12.6467	0.823
12.6807	0.841
12.7146	0.845
12.7486	0.85
12.7825	0.852
12.8165	0.852
12.8504	0.854
12.8844	0.854
12.9183	0.852
12.9523	0.851
12.9862	0.847
13.0201	0.837
13.0541	0.834
13.088	0.83
13.122	0.823
13.1559	0.814
13.1899	0.799
13.2238	0.78
13.2578	0.759
13.2917	0.739
13.3257	0.71
13.3596	0.676
13.3936	0.644
13.4275	0.605
13.4615	0.584
13.4954	0.577
13.5294	0.562
13.5633	0.557
13.5973	0.561
13.6312	0.567
13.6652	0.564
13.6991	0.555
13.733	0.54
13.767	0.519
13.8009	0.504
13.8349	0.489
13.8688	0.478
13.9028	0.469
13.9367	0.455
13.9707	0.438
14.0046	0.421
14.0386	0.4
14.0725	0.36
14.1065	0.318
14.1404	0.277
14.1744	0.229
14.2083	0.175
14.2423	0.142
14.2762	0.108
14.3102	0.094
14.3441	0.087
14.378	0.083
14.412	0.08
14.4459	0.08
14.4799	0.084
14.5138	0.096
14.5478	0.118
14.5817	0.158
14.6157	0.183
14.6496	0.209
14.6836	0.241
14.7175	0.268
14.7515	0.291
14.7854	0.299
14.8194	0.318
14.8533	0.323
14.8873	0.321
14.9212	0.309
14.9552	0.306
14.9891	0.318
15.0231	0.374
15.057	0.408
