Infrared Spectrum: 2-METHYL-4-ISOPROPYL-Delta^2-THIAZOLINE
Formula: C7 H13 N S
CAS: 4146-21-8
Boiling point: 74-75 C AT 20 mmHg
Class: COBLENTZ
Instrument: Not specified, most likely a prism, grating, or hybrid spectrometer.
Sampling: TRANSMISSION
Path length: FILM
Resolution: 4
Origin: ARTHUR D. LITTLE, INC.
1/CM	TRANSMITTANCE
634.211	0.567
642.106	0.599
650	0.653
657.895	0.703
665.79	0.72
673.685	0.755
681.579	0.781
689.474	0.802
697.369	0.819
705.264	0.831
713.158	0.834
721.053	0.83
728.948	0.823
736.843	0.801
744.737	0.821
752.632	0.85
760.527	0.855
768.422	0.85
776.316	0.851
784.211	0.85
792.106	0.846
800.001	0.835
807.895	0.831
815.79	0.812
823.685	0.842
831.58	0.875
839.474	0.877
847.369	0.864
855.264	0.789
863.159	0.697
871.053	0.752
878.948	0.805
886.843	0.795
894.738	0.781
902.632	0.754
910.527	0.749
918.422	0.752
926.317	0.729
934.211	0.558
942.106	0.625
950.001	0.636
957.896	0.721
965.79	0.773
973.685	0.814
981.58	0.766
989.475	0.806
997.369	0.809
1005.26	0.802
1013.16	0.783
1021.05	0.759
1028.95	0.746
1036.84	0.764
1044.74	0.795
1052.63	0.797
1060.53	0.791
1068.42	0.766
1076.32	0.77
1084.21	0.739
1092.11	0.689
1100	0.684
1107.9	0.611
1115.79	0.519
1123.69	0.466
1131.58	0.375
1139.47	0.3
1147.37	0.29
1155.26	0.547
1163.16	0.653
1171.05	0.696
1178.95	0.764
1186.84	0.808
1194.74	0.808
1202.63	0.766
1210.53	0.741
1218.42	0.787
1226.32	0.798
1234.21	0.813
1242.11	0.809
1250	0.729
1257.9	0.766
1265.79	0.776
1273.69	0.78
1281.58	0.796
1289.48	0.822
1297.37	0.834
1305.26	0.831
1313.16	0.827
1321.05	0.775
1328.95	0.768
1336.84	0.762
1344.74	0.622
1352.63	0.465
1360.53	0.605
1368.42	0.601
1376.32	0.754
1384.21	0.776
1392.11	0.749
1400	0.692
1407.9	0.601
1415.79	0.516
1423.69	0.603
1431.58	0.565
1439.48	0.647
1447.37	0.651
1455.26	0.583
1463.16	0.542
1471.05	0.823
1478.95	0.906
1486.84	0.936
1494.74	0.95
1502.63	0.96
1510.53	0.955
1518.42	0.952
1526.32	0.957
1534.21	0.955
1542.11	0.957
1550	0.957
1557.9	0.952
1565.79	0.951
1573.69	0.948
1581.58	0.943
1589.48	0.927
1597.37	0.896
1605.26	0.869
1613.16	0.773
1621.05	0.625
1628.95	0.408
1636.84	0.253
1644.74	0.533
1652.63	0.817
1660.53	0.881
1668.42	0.927
1676.32	0.948
1684.21	0.956
1692.11	0.967
1700	0.972
1707.9	0.978
1715.79	0.988
1723.69	0.989
1731.58	0.986
1739.48	0.988
1747.37	0.998
1755.27	1.007
1763.16	1.009
1771.05	1.01
1778.95	1.011
1786.84	1.013
1794.74	1.014
1802.63	1.015
1810.53	1.015
1818.42	1.018
1826.32	1.019
1834.21	1.021
1842.11	1.017
1850	1.015
1857.9	1.014
1865.79	1.015
1873.69	1.019
1881.58	1.018
1889.48	1.015
1897.37	1.014
1905.27	1.018
1913.16	1.019
1921.05	1.017
1928.95	1.014
1936.84	1.017
1944.74	1.018
1952.63	1.015
1960.53	1.011
1968.42	1.014
1976.32	1.015
1984.21	1.015
1992.11	1.014
2000	1.015
2007.9	1.017
2015.79	1.017
2023.69	1.018
2031.58	1.018
2039.48	1.018
2047.37	1.015
2055.27	1.013
2063.16	1.014
2071.06	1.015
2078.95	1.014
2086.84	1.013
2094.74	1.017
2102.63	1.015
2110.53	1.014
2118.42	1.01
2126.32	1.009
2134.21	1.009
2142.11	1.01
2150	1.013
2157.9	1.014
2165.79	1.017
2173.69	1.013
2181.58	1.015
2189.48	1.019
2197.37	1.014
2205.27	1.014
2213.16	1.017
2221.06	1.018
2228.95	1.019
2236.84	1.019
2244.74	1.017
2252.63	1.017
2260.53	1.014
2268.42	1.013
2276.32	1.015
2284.21	1.017
2292.11	1.015
2300	1.014
2307.9	1.009
2315.79	1.002
2323.69	0.998
2331.58	0.997
2339.48	0.994
2347.37	0.994
2355.27	0.99
2363.16	0.989
2371.06	0.992
2378.95	0.998
2386.84	1.003
2394.74	1.006
2402.63	1.007
2410.53	1.009
2418.42	1.007
2426.32	1.005
2434.21	1.002
2442.11	1.001
2450	1.001
2457.9	1.001
2465.79	1.002
2473.69	1.003
2481.58	1.005
2489.48	1.005
2497.37	1.003
2505.27	1.001
2513.16	1
2521.06	0.997
2528.95	0.994
2536.85	0.997
2544.74	1
2552.63	1
2560.53	0.998
2568.42	0.998
2576.32	0.996
2584.21	0.992
2592.11	0.992
2600	0.994
2607.9	0.996
2615.79	0.996
2623.69	0.998
2631.58	0.997
2639.48	1
2647.37	1.001
2655.27	1.001
2663.16	1
2671.06	0.998
2678.95	0.998
2686.85	0.997
2694.74	0.997
2702.63	0.996
2710.53	0.993
2718.42	0.99
2726.32	0.989
2734.21	0.989
2742.11	0.992
2750	0.993
2757.9	0.992
2765.79	0.989
2773.69	0.986
2781.58	0.982
2789.48	0.975
2797.37	0.963
2805.27	0.952
2813.16	0.934
2821.06	0.91
2828.95	0.873
2836.85	0.813
2844.74	0.747
2852.64	0.689
2860.53	0.676
2868.42	0.576
2876.32	0.466
2884.21	0.494
2892.11	0.538
2900	0.546
2907.9	0.538
2915.79	0.524
2923.69	0.498
2931.58	0.445
2939.48	0.429
2947.37	0.425
2955.27	0.358
2963.16	0.262
2971.06	0.303
2978.95	0.432
2986.85	0.592
2994.74	0.681
3002.64	0.825
3010.53	0.89
3018.42	0.918
3026.32	0.938
3034.21	0.957
3042.11	0.964
3050	0.965
3057.9	0.964
3065.79	0.963
3073.69	0.968
3081.58	0.973
3089.48	0.977
3097.37	0.978
3105.27	0.978
3113.16	0.977
3121.06	0.977
3128.95	0.978
3136.85	0.977
3144.74	0.972
3152.64	0.968
3160.53	0.967
3168.42	0.96
3176.32	0.956
3184.21	0.955
3192.11	0.959
3200	0.956
3207.9	0.95
3215.79	0.946
3223.69	0.944
3231.58	0.942
3239.48	0.94
3247.37	0.936
3255.27	0.921
3263.16	0.918
3271.06	0.923
3278.95	0.93
3286.85	0.936
3294.74	0.94
3302.64	0.943
3310.53	0.94
3318.43	0.938
3326.32	0.936
3334.21	0.935
3342.11	0.934
3350	0.929
3357.9	0.926
3365.79	0.923
3373.69	0.921
3381.58	0.918
3389.48	0.917
3397.37	0.915
