Infrared Spectrum: 2,5-DIMETHYL-Delta^2-THIAZOLINE
Formula: C5 H9 N S
CAS: 4146-19-4
Boiling point: 51 C AT 20 mmHg
Class: COBLENTZ
Instrument: Not specified, most likely a prism, grating, or hybrid spectrometer.
Sampling: TRANSMISSION
Path length: FILM
Resolution: 4
Origin: ARTHUR D. LITTLE, INC.
1/CM	TRANSMITTANCE
694.56	0.779
701.92	0.777
709.28	0.769
716.64	0.808
724	0.829
731.36	0.842
738.72	0.851
746.08	0.856
753.44	0.868
760.8	0.873
768.16	0.876
775.52	0.876
782.88	0.876
790.24	0.878
797.6	0.876
804.96	0.876
812.32	0.873
819.68	0.868
827.04	0.858
834.4	0.851
841.76	0.847
849.12	0.853
856.48	0.856
863.84	0.851
871.2	0.83
878.56	0.801
885.92	0.763
893.28	0.685
900.64	0.485
908	0.44
915.36	0.473
922.72	0.398
930.08	0.366
937.44	0.59
944.8	0.765
952.16	0.804
959.52	0.821
966.88	0.821
974.24	0.821
981.6	0.795
988.96	0.741
996.32	0.672
1003.68	0.725
1011.04	0.752
1018.4	0.773
1025.76	0.787
1033.12	0.79
1040.48	0.788
1047.84	0.747
1055.2	0.723
1062.56	0.686
1069.92	0.656
1077.28	0.709
1084.64	0.782
1092	0.777
1099.36	0.766
1106.72	0.733
1114.08	0.629
1121.44	0.555
1128.8	0.393
1136.16	0.239
1143.52	0.19
1150.88	0.36
1158.24	0.527
1165.6	0.655
1172.96	0.669
1180.32	0.637
1187.68	0.643
1195.04	0.687
1202.4	0.693
1209.76	0.666
1217.12	0.66
1224.48	0.704
1231.84	0.766
1239.2	0.774
1246.56	0.774
1253.92	0.777
1261.28	0.789
1268.64	0.793
1276	0.788
1283.36	0.766
1290.72	0.739
1298.08	0.704
1305.44	0.742
1312.8	0.788
1320.16	0.798
1327.52	0.793
1334.88	0.787
1342.24	0.771
1349.6	0.69
1356.96	0.546
1364.32	0.506
1371.68	0.659
1379.04	0.73
1386.4	0.731
1393.76	0.72
1401.12	0.687
1408.48	0.623
1415.84	0.546
1423.2	0.488
1430.56	0.457
1437.92	0.456
1445.28	0.507
1452.64	0.616
1460	0.715
1467.36	0.781
1474.72	0.805
1482.08	0.82
1489.44	0.82
1496.8	0.821
1504.16	0.816
1511.52	0.822
1518.88	0.815
1526.24	0.816
1533.6	0.814
1540.96	0.817
1548.32	0.814
1555.68	0.819
1563.04	0.813
1570.4	0.806
1577.76	0.797
1585.12	0.785
1592.48	0.757
1599.84	0.725
1607.2	0.681
1614.56	0.546
1621.92	0.312
1629.28	0.214
1636.64	0.302
1644	0.562
1651.36	0.71
1658.72	0.724
1666.08	0.771
1673.44	0.804
1680.8	0.827
1688.16	0.831
1695.52	0.835
1702.88	0.833
1710.24	0.835
1717.6	0.837
1724.96	0.837
1732.32	0.836
1739.68	0.838
1747.04	0.84
1754.4	0.843
1761.76	0.846
1769.12	0.843
1776.48	0.842
1783.84	0.842
1791.2	0.842
1798.56	0.842
1805.92	0.843
1813.28	0.842
1820.64	0.842
1828	0.842
1835.36	0.841
1842.72	0.837
1850.08	0.84
1857.44	0.84
1864.8	0.84
1872.16	0.84
1879.52	0.838
1886.88	0.84
1894.24	0.841
1901.6	0.84
1908.96	0.838
1916.32	0.836
1923.68	0.838
1931.04	0.832
1938.4	0.83
1945.76	0.832
1953.12	0.83
1960.48	0.831
1967.84	0.832
1975.2	0.83
1982.56	0.827
1989.92	0.826
1997.28	0.826
2004.64	0.825
2012	0.826
2019.36	0.827
2026.72	0.825
2034.08	0.822
2041.44	0.821
2048.8	0.82
2056.16	0.821
2063.52	0.82
2070.88	0.822
2078.24	0.822
2085.6	0.824
2092.96	0.824
2100.32	0.819
2107.68	0.817
2115.04	0.815
2122.4	0.815
2129.76	0.817
2137.12	0.814
2144.48	0.815
2151.84	0.816
2159.2	0.816
2166.56	0.814
2173.92	0.813
2181.28	0.813
2188.64	0.815
2196	0.815
2203.36	0.814
2210.72	0.813
2218.08	0.811
2225.44	0.81
2232.8	0.81
2240.16	0.811
2247.52	0.813
2254.88	0.813
2262.24	0.813
2269.6	0.811
2276.96	0.811
2284.32	0.81
2291.68	0.808
2299.04	0.806
2306.4	0.805
2313.76	0.804
2321.12	0.803
2328.48	0.801
2335.84	0.801
2343.2	0.801
2350.56	0.803
2357.92	0.803
2365.28	0.803
2372.64	0.803
2380	0.803
2387.36	0.803
2394.72	0.803
2402.08	0.803
2409.44	0.803
2416.8	0.801
2424.16	0.801
2431.52	0.8
2438.88	0.8
2446.24	0.8
2453.6	0.8
2460.96	0.799
2468.32	0.799
2475.68	0.799
2483.04	0.8
2490.4	0.801
2497.76	0.799
2505.12	0.795
2512.48	0.793
2519.84	0.793
2527.2	0.792
2534.56	0.79
2541.92	0.792
2549.28	0.793
2556.64	0.793
2564	0.79
2571.36	0.793
2578.72	0.794
2586.08	0.793
2593.44	0.792
2600.8	0.793
2608.16	0.795
2615.52	0.795
2622.88	0.793
2630.24	0.793
2637.6	0.793
2644.96	0.793
2652.32	0.789
2659.68	0.793
2667.04	0.794
2674.4	0.793
2681.76	0.792
2689.12	0.79
2696.48	0.787
2703.84	0.784
2711.2	0.784
2718.56	0.783
2725.92	0.781
2733.28	0.781
2740.64	0.782
2748	0.783
2755.36	0.782
2762.72	0.781
2770.08	0.777
2777.44	0.771
2784.8	0.769
2792.16	0.771
2799.52	0.766
2806.88	0.758
2814.24	0.75
2821.6	0.74
2828.96	0.709
2836.32	0.667
2843.68	0.574
2851.04	0.483
2858.4	0.506
2865.76	0.537
2873.12	0.584
2880.48	0.6
2887.84	0.584
2895.2	0.547
2902.56	0.511
2909.92	0.467
2917.28	0.421
2924.64	0.371
2932	0.396
2939.36	0.44
2946.72	0.473
2954.08	0.458
2961.44	0.387
2968.8	0.393
2976.16	0.435
2983.52	0.539
2990.88	0.613
2998.24	0.661
3005.6	0.697
3012.96	0.722
3020.32	0.742
3027.68	0.755
3035.04	0.757
3042.4	0.762
3049.76	0.765
3057.12	0.766
3064.48	0.767
3071.84	0.768
3079.2	0.767
3086.56	0.769
3093.92	0.769
3101.28	0.769
3108.64	0.768
3116	0.769
3123.36	0.768
3130.72	0.768
3138.08	0.767
3145.44	0.765
3152.8	0.765
3160.16	0.765
3167.52	0.761
3174.88	0.758
3182.24	0.757
3189.6	0.755
3196.96	0.752
3204.32	0.747
3211.68	0.744
3219.04	0.74
3226.4	0.731
3233.76	0.722
3241.12	0.718
3248.48	0.715
3255.84	0.73
3263.2	0.729
3270.56	0.735
3277.92	0.736
3285.28	0.734
3292.64	0.729
3300	0.726
3307.36	0.723
3314.72	0.719
3322.08	0.718
3329.44	0.715
3336.8	0.714
3344.16	0.71
