Infrared Spectrum: 3-AMINO-2-BUTANETHIOL HYDROCHLORIDE
Formula: C4 H11 N S  * H Cl
CAS: 4146-18-3
Melting point: 103-104 C
Class: COBLENTZ
Instrument: Not specified, most likely a prism, grating, or hybrid spectrometer.
Sampling: TRANSMISSION
Path length: FILM
Resolution: 4
Origin: ARTHUR D. LITTLE, INC.
1/CM	TRANSMITTANCE
564.86	0.804
572.742	0.761
580.624	0.718
588.505	0.646
596.387	0.612
604.269	0.608
612.151	0.611
620.032	0.621
627.914	0.65
635.796	0.675
643.678	0.706
651.56	0.715
659.441	0.739
667.323	0.773
675.205	0.793
683.087	0.818
690.968	0.841
698.85	0.859
706.732	0.878
714.614	0.89
722.496	0.902
730.377	0.907
738.259	0.916
746.141	0.937
754.023	0.937
761.905	0.943
769.786	0.945
777.668	0.943
785.55	0.936
793.432	0.921
801.313	0.887
809.195	0.855
817.077	0.944
824.959	1.007
832.841	1.026
840.722	1.023
848.604	1.007
856.486	0.996
864.368	0.98
872.249	0.964
880.131	0.98
888.013	0.992
895.895	0.998
903.777	1.002
911.658	0.998
919.54	0.992
927.422	0.989
935.304	1.017
943.185	1.005
951.067	0.968
958.949	0.898
966.831	0.933
974.713	0.944
982.594	0.914
990.476	0.892
998.358	0.931
1006.24	0.964
1014.12	0.972
1022	0.939
1029.89	0.912
1037.77	0.919
1045.65	0.969
1053.53	0.994
1061.41	0.984
1069.29	0.96
1077.18	0.902
1085.06	0.837
1092.94	0.842
1100.82	0.87
1108.7	0.924
1116.58	0.961
1124.47	0.969
1132.35	0.968
1140.23	0.952
1148.11	0.921
1155.99	0.935
1163.88	0.911
1171.76	0.928
1179.64	0.94
1187.52	0.921
1195.4	0.876
1203.28	0.752
1211.17	0.785
1219.05	0.876
1226.93	0.891
1234.81	0.785
1242.69	0.78
1250.57	0.879
1258.46	0.914
1266.34	0.943
1274.22	0.955
1282.1	0.953
1289.98	0.941
1297.87	0.932
1305.75	0.936
1313.63	0.947
1321.51	0.945
1329.39	0.919
1337.27	0.876
1345.16	0.83
1353.04	0.817
1360.92	0.789
1368.8	0.748
1376.68	0.726
1384.57	0.658
1392.45	0.764
1400.33	0.882
1408.21	0.878
1416.09	0.858
1423.97	0.81
1431.86	0.759
1439.74	0.701
1447.62	0.657
1455.5	0.679
1463.38	0.687
1471.26	0.658
1479.15	0.616
1487.03	0.501
1494.91	0.379
1502.79	0.392
1510.67	0.501
1518.56	0.673
1526.44	0.789
1534.32	0.808
1542.2	0.805
1550.08	0.791
1557.96	0.723
1565.85	0.697
1573.73	0.607
1581.61	0.518
1589.49	0.485
1597.37	0.502
1605.25	0.623
1613.14	0.756
1621.02	0.832
1628.9	0.888
1636.78	0.925
1644.66	0.947
1652.55	0.957
1660.43	0.952
1668.31	0.949
1676.19	0.957
1684.07	0.964
1691.95	0.966
1699.84	0.968
1707.72	0.969
1715.6	0.97
1723.48	0.972
1731.36	0.973
1739.25	0.973
1747.13	0.973
1755.01	0.976
1762.89	0.976
1770.77	0.973
1778.65	0.976
1786.54	0.98
1794.42	0.976
1802.3	0.972
1810.18	0.97
1818.06	0.97
1825.94	0.969
1833.83	0.966
1841.71	0.966
1849.59	0.96
1857.47	0.951
1865.35	0.947
1873.24	0.943
1881.12	0.936
1889	0.927
1896.88	0.916
1904.76	0.904
1912.64	0.896
1920.53	0.891
1928.41	0.886
1936.29	0.882
1944.17	0.878
1952.05	0.873
1959.94	0.865
1967.82	0.861
1975.7	0.859
1983.58	0.862
1991.46	0.865
1999.34	0.867
2007.23	0.874
2015.11	0.879
2022.99	0.884
2030.87	0.891
2038.75	0.902
2046.63	0.919
2054.52	0.928
2062.4	0.936
2070.28	0.941
2078.16	0.951
2086.04	0.961
2093.93	0.962
2101.81	0.964
2109.69	0.964
2117.57	0.965
2125.45	0.966
2133.33	0.965
2141.22	0.964
2149.1	0.962
2156.98	0.958
2164.86	0.958
2172.74	0.962
2180.62	0.966
2188.51	0.966
2196.39	0.966
2204.27	0.966
2212.15	0.968
2220.03	0.968
2227.92	0.965
2235.8	0.96
2243.68	0.96
2251.56	0.965
2259.44	0.968
2267.32	0.966
2275.21	0.958
2283.09	0.955
2290.97	0.949
2298.85	0.944
2306.73	0.94
2314.62	0.931
2322.5	0.915
2330.38	0.915
2338.26	0.917
2346.14	0.911
2354.02	0.906
2361.91	0.911
2369.79	0.912
2377.67	0.912
2385.55	0.916
2393.43	0.912
2401.31	0.9
2409.2	0.892
2417.08	0.887
2424.96	0.884
2432.84	0.863
2440.72	0.85
2448.61	0.838
2456.49	0.822
2464.37	0.792
2472.25	0.772
2480.13	0.744
2488.01	0.731
2495.9	0.726
2503.78	0.718
2511.66	0.71
2519.54	0.695
2527.42	0.677
2535.31	0.667
2543.19	0.667
2551.07	0.678
2558.95	0.687
2566.83	0.69
2574.71	0.689
2582.6	0.682
2590.48	0.671
2598.36	0.671
2606.24	0.678
2614.12	0.687
2622	0.694
2629.89	0.693
2637.77	0.678
2645.65	0.669
2653.53	0.662
2661.41	0.654
2669.3	0.65
2677.18	0.65
2685.06	0.65
2692.94	0.641
2700.82	0.626
2708.7	0.611
2716.59	0.584
2724.47	0.588
2732.35	0.595
2740.23	0.582
2748.11	0.571
2755.99	0.554
2763.88	0.547
2771.76	0.535
2779.64	0.503
2787.52	0.492
2795.4	0.481
2803.29	0.461
2811.17	0.447
2819.05	0.439
2826.93	0.432
2834.81	0.407
2842.69	0.402
2850.58	0.388
2858.46	0.354
2866.34	0.334
2874.22	0.314
2882.1	0.306
2889.99	0.297
2897.87	0.289
2905.75	0.277
2913.63	0.268
2921.51	0.255
2929.39	0.231
2937.28	0.219
2945.16	0.216
2953.04	0.227
2960.92	0.223
2968.8	0.214
2976.68	0.21
2984.57	0.215
2992.45	0.234
3000.33	0.248
3008.21	0.251
3016.09	0.253
3023.98	0.256
3031.86	0.256
3039.74	0.255
3047.62	0.257
3055.5	0.267
3063.38	0.283
3071.27	0.297
3079.15	0.309
3087.03	0.314
3094.91	0.318
3102.79	0.326
3110.68	0.337
3118.56	0.354
3126.44	0.359
3134.32	0.357
3142.2	0.375
3150.08	0.394
3157.97	0.411
3165.85	0.458
3173.73	0.48
3181.61	0.509
3189.49	0.53
3197.37	0.543
3205.26	0.572
3213.14	0.612
3221.02	0.653
3228.9	0.679
3236.78	0.723
3244.67	0.752
3252.55	0.781
3260.43	0.812
3268.31	0.826
3276.19	0.837
3284.07	0.85
3291.96	0.855
3299.84	0.858
3307.72	0.863
3315.6	0.874
3323.48	0.88
3331.36	0.884
3339.25	0.88
3347.13	0.876
3355.01	0.878
3362.89	0.882
3370.77	0.883
3378.66	0.884
3386.54	0.883
3394.42	0.88
