Infrared Spectrum: N-2-(1-BENZOXY) PENTYLBENZAMIDE
Formula: C19 H21 N O3
CAS: 4146-06-9
State: SOLID (MINERAL OIL MULL)
Class: COBLENTZ
Instrument: Not specified, most likely a prism, grating, or hybrid spectrometer.
Sampling: TRANSMISSION
Resolution: 4
Origin: ARTHUR D. LITTLE, INC.
MICROMETERS	TRANSMITTANCE
2.543	0.912
2.57814	0.915
2.61328	0.922
2.64842	0.928
2.68356	0.932
2.7187	0.934
2.75384	0.937
2.78898	0.941
2.82412	0.943
2.85926	0.941
2.8944	0.936
2.92954	0.933
2.96468	0.916
2.99982	0.501
3.03496	0.514
3.0701	0.733
3.10524	0.853
3.14038	0.866
3.17552	0.884
3.21066	0.894
3.2458	0.788
3.28094	0.795
3.31608	0.754
3.35122	0.309
3.38636	0.058
3.42149	0.053
3.45663	0.228
3.49177	0.181
3.52691	0.631
3.56205	0.872
3.59719	0.922
3.63233	0.949
3.66747	0.956
3.70261	0.947
3.73775	0.944
3.77289	0.95
3.80803	0.959
3.84317	0.962
3.87831	0.969
3.91345	0.976
3.94859	0.987
3.98373	0.99
4.01887	0.991
4.05401	0.992
4.08915	0.992
4.12429	0.994
4.15943	0.995
4.19457	0.996
4.22971	0.998
4.26485	1.005
4.29999	1.016
4.33513	1.018
4.37027	1.017
4.40541	1.014
4.44055	1.011
4.47569	1.012
4.51083	1.014
4.54597	1.014
4.58111	1.012
4.61625	1.011
4.65139	1.01
4.68653	1.012
4.72167	1.017
4.75681	1.018
4.79195	1.017
4.82709	1.017
4.86223	1.017
4.89737	1.017
4.93251	1.017
4.96765	1.017
5.00279	1.016
5.03793	1.016
5.07307	1.012
5.1082	1.012
5.14334	1.015
5.17848	1.015
5.21362	1.012
5.24876	1.014
5.2839	1.015
5.31904	1.017
5.35418	1.021
5.38932	1.024
5.42446	1.024
5.4596	1.015
5.49474	1.009
5.52988	1.005
5.56502	1
5.60016	0.998
5.6353	0.996
5.67044	0.998
5.70558	0.998
5.74072	0.948
5.77586	0.5
5.811	0.192
5.84614	0.366
5.88128	0.731
5.91642	0.929
5.95156	0.92
5.9867	0.911
6.02184	0.902
6.05698	0.819
6.09212	0.545
6.12726	0.17
6.1624	0.429
6.19754	0.685
6.23268	0.748
6.26782	0.772
6.30296	0.882
6.3381	0.7
6.37324	0.709
6.40838	0.785
6.44352	0.625
6.47866	0.37
6.5138	0.274
6.54894	0.395
6.58408	0.581
6.61922	0.743
6.65436	0.816
6.6895	0.826
6.72464	0.69
6.75978	0.708
6.79491	0.61
6.83005	0.352
6.86519	0.334
6.90033	0.422
6.93547	0.56
6.97061	0.662
7.00575	0.745
7.04089	0.778
7.07603	0.803
7.11117	0.81
7.14631	0.802
7.18145	0.716
7.21659	0.626
7.25173	0.549
7.28687	0.565
7.32201	0.656
7.35715	0.722
7.39229	0.646
7.42743	0.743
7.46257	0.778
7.49771	0.785
7.53285	0.687
7.56799	0.576
7.60313	0.44
7.63827	0.517
7.67341	0.651
7.70855	0.6
7.74369	0.535
7.77883	0.44
7.81397	0.423
7.84911	0.551
7.88425	0.711
7.91939	0.774
7.95453	0.778
7.98967	0.759
8.02481	0.831
8.05995	0.825
8.09509	0.819
8.13023	0.875
8.16537	0.907
8.20051	0.909
8.23565	0.928
8.27079	0.936
8.30593	0.939
8.34107	0.941
8.37621	0.947
8.41135	0.95
8.44649	0.882
8.48163	0.807
8.51676	0.798
8.5519	0.877
8.58704	0.769
8.62218	0.752
8.65732	0.782
8.69246	0.81
8.7276	0.722
8.76274	0.727
8.79788	0.714
8.83302	0.706
8.86816	0.799
8.9033	0.872
8.93844	0.913
8.97358	0.934
9.00872	0.935
9.04386	0.902
9.079	0.881
9.11414	0.912
9.14928	0.946
9.18442	0.95
9.21956	0.955
9.2547	0.947
9.28984	0.851
9.32498	0.805
9.36012	0.879
9.39526	0.92
9.4304	0.956
9.46554	0.955
9.50068	0.961
9.53582	0.968
9.57096	0.966
9.6061	0.97
9.64124	0.956
9.67638	0.922
9.71152	0.81
9.74666	0.875
9.7818	0.939
9.81694	0.953
9.85208	0.97
9.88722	0.982
9.92236	0.964
9.9575	0.916
9.99264	0.88
10.0278	0.912
10.0629	0.937
10.0981	0.946
10.1332	0.928
10.1683	0.882
10.2035	0.823
10.2386	0.888
10.2738	0.94
10.3089	0.95
10.344	0.956
10.3792	0.962
10.4143	0.967
10.4495	0.973
10.4846	0.975
10.5197	0.98
10.5549	0.956
10.59	0.906
10.6252	0.892
10.6603	0.929
10.6954	0.949
10.7306	0.934
10.7657	0.886
10.8009	0.947
10.836	0.977
10.8711	0.984
10.9063	0.987
10.9414	0.989
10.9766	0.991
11.0117	0.994
11.0468	0.995
11.082	0.991
11.1171	0.989
11.1522	0.981
11.1874	0.964
11.2225	0.978
11.2577	0.984
11.2928	0.987
11.3279	0.987
11.3631	0.985
11.3982	0.977
11.4334	0.949
11.4685	0.927
11.5036	0.947
11.5388	0.977
11.5739	0.983
11.6091	0.985
11.6442	0.987
11.6793	0.985
11.7145	0.983
11.7496	0.978
11.7848	0.948
11.8199	0.884
11.855	0.824
11.8902	0.893
11.9253	0.957
11.9605	0.982
11.9956	1.002
12.0307	1.005
12.0659	1.003
12.101	1.001
12.1362	1.007
12.1713	1.01
12.2064	1.01
12.2416	1.008
12.2767	1.003
12.3119	0.99
12.347	0.987
12.3821	0.988
12.4173	0.974
12.4524	0.946
12.4876	0.93
12.5227	0.941
12.5578	0.962
12.593	0.981
12.6281	0.989
12.6633	0.995
12.6984	0.998
12.7335	0.995
12.7687	0.994
12.8038	0.996
12.839	0.992
12.8741	0.989
12.9092	0.992
12.9444	0.988
12.9795	0.981
13.0147	0.975
13.0498	0.968
13.0849	0.96
13.1201	0.957
13.1552	0.957
13.1904	0.947
13.2255	0.929
13.2606	0.907
13.2958	0.891
13.3309	0.913
13.3661	0.872
13.4012	0.88
13.4363	0.891
13.4715	0.896
13.5066	0.902
13.5418	0.899
13.5769	0.889
13.612	0.866
13.6472	0.85
13.6823	0.834
13.7175	0.825
13.7526	0.813
13.7877	0.791
13.8229	0.777
13.858	0.759
13.8932	0.667
13.9283	0.53
13.9634	0.344
13.9986	0.101
14.0337	0.122
14.0689	0.192
14.104	0.31
14.1391	0.408
14.1743	0.427
14.2094	0.42
14.2446	0.423
14.2797	0.45
14.3148	0.531
14.35	0.59
14.3851	0.653
14.4203	0.681
14.4554	0.709
14.4905	0.703
14.5257	0.693
14.5608	0.704
14.5959	0.738
14.6311	0.775
14.6662	0.786
14.7014	0.768
14.7365	0.755
14.7716	0.758
14.8068	0.777
14.8419	0.789
14.8771	0.796
14.9122	0.797
14.9473	0.775
14.9825	0.77
