Infrared Spectrum: DL-2-AMINO-1-OCTANETHIOL HYDROCHLORIDE
Formula: C8 H19 N S  * H Cl
CAS: 4146-01-4
Melting point: 59-60 C
Class: COBLENTZ
Instrument: Not specified, most likely a prism, grating, or hybrid spectrometer.
Sampling: TRANSMISSION
Path length: FILM
Resolution: 4
Origin: ARTHUR D. LITTLE, INC.
1/CM	TRANSMITTANCE
552.375	0.645
560.274	0.62
568.174	0.572
576.073	0.551
583.972	0.548
591.871	0.562
599.771	0.565
607.67	0.568
615.569	0.573
623.468	0.591
631.368	0.614
639.267	0.624
647.166	0.653
655.065	0.669
662.965	0.677
670.864	0.7
678.763	0.712
686.662	0.713
694.562	0.711
702.461	0.69
710.36	0.686
718.26	0.727
726.159	0.75
734.058	0.766
741.957	0.775
749.857	0.783
757.756	0.783
765.655	0.779
773.554	0.78
781.454	0.784
789.353	0.793
797.252	0.799
805.151	0.801
813.051	0.801
820.95	0.801
828.849	0.801
836.748	0.801
844.648	0.804
852.547	0.804
860.446	0.8
868.345	0.795
876.245	0.795
884.144	0.803
892.043	0.807
899.943	0.808
907.842	0.807
915.741	0.809
923.64	0.805
931.54	0.796
939.439	0.792
947.338	0.786
955.237	0.782
963.137	0.783
971.036	0.784
978.935	0.786
986.834	0.788
994.734	0.788
1002.63	0.79
1010.53	0.786
1018.43	0.77
1026.33	0.758
1034.23	0.749
1042.13	0.755
1050.03	0.755
1057.93	0.749
1065.83	0.751
1073.73	0.774
1081.63	0.772
1089.52	0.755
1097.42	0.737
1105.32	0.744
1113.22	0.774
1121.12	0.786
1129.02	0.787
1136.92	0.782
1144.82	0.771
1152.72	0.775
1160.62	0.78
1168.52	0.786
1176.42	0.791
1184.32	0.793
1192.22	0.791
1200.11	0.782
1208.01	0.776
1215.91	0.772
1223.81	0.767
1231.71	0.766
1239.61	0.763
1247.51	0.763
1255.41	0.758
1263.31	0.758
1271.21	0.761
1279.11	0.766
1287.01	0.767
1294.91	0.771
1302.8	0.775
1310.7	0.779
1318.6	0.779
1326.5	0.772
1334.4	0.766
1342.3	0.755
1350.2	0.745
1358.1	0.72
1366	0.691
1373.9	0.694
1381.8	0.725
1389.7	0.751
1397.6	0.737
1405.5	0.699
1413.39	0.681
1421.29	0.64
1429.19	0.616
1437.09	0.61
1444.99	0.557
1452.89	0.52
1460.79	0.528
1468.69	0.632
1476.59	0.573
1484.49	0.451
1492.39	0.354
1500.29	0.346
1508.19	0.405
1516.08	0.534
1523.98	0.653
1531.88	0.721
1539.78	0.725
1547.68	0.7
1555.58	0.695
1563.48	0.66
1571.38	0.619
1579.28	0.559
1587.18	0.496
1595.08	0.471
1602.98	0.548
1610.88	0.636
1618.78	0.738
1626.67	0.779
1634.57	0.79
1642.47	0.796
1650.37	0.799
1658.27	0.804
1666.17	0.804
1674.07	0.8
1681.97	0.804
1689.87	0.804
1697.77	0.805
1705.67	0.812
1713.57	0.809
1721.47	0.807
1729.37	0.805
1737.26	0.811
1745.16	0.805
1753.06	0.811
1760.96	0.808
1768.86	0.807
1776.76	0.811
1784.66	0.811
1792.56	0.808
1800.46	0.811
1808.36	0.812
1816.26	0.811
1824.16	0.809
1832.06	0.809
1839.95	0.808
1847.85	0.805
1855.75	0.804
1863.65	0.8
1871.55	0.797
1879.45	0.795
1887.35	0.792
1895.25	0.79
1903.15	0.787
1911.05	0.784
1918.95	0.779
1926.85	0.772
1934.75	0.763
1942.65	0.761
1950.54	0.758
1958.44	0.755
1966.34	0.75
1974.24	0.745
1982.14	0.738
1990.04	0.733
1997.94	0.73
2005.84	0.728
2013.74	0.729
2021.64	0.732
2029.54	0.734
2037.44	0.738
2045.34	0.746
2053.23	0.754
2061.13	0.761
2069.03	0.774
2076.93	0.784
2084.83	0.79
2092.73	0.796
2100.63	0.799
2108.53	0.8
2116.43	0.803
2124.33	0.803
2132.23	0.801
2140.13	0.803
2148.03	0.801
2155.93	0.801
2163.82	0.804
2171.72	0.805
2179.62	0.807
2187.52	0.808
2195.42	0.805
2203.32	0.804
2211.22	0.801
2219.12	0.807
2227.02	0.807
2234.92	0.803
2242.82	0.805
2250.72	0.803
2258.62	0.801
2266.51	0.801
2274.41	0.801
2282.31	0.8
2290.21	0.797
2298.11	0.793
2306.01	0.779
2313.91	0.769
2321.81	0.765
2329.71	0.763
2337.61	0.763
2345.51	0.762
2353.41	0.758
2361.31	0.763
2369.21	0.767
2377.1	0.771
2385	0.769
2392.9	0.766
2400.8	0.762
2408.7	0.761
2416.6	0.757
2424.5	0.755
2432.4	0.753
2440.3	0.751
2448.2	0.733
2456.1	0.711
2464	0.694
2471.9	0.678
2479.79	0.656
2487.69	0.649
2495.59	0.627
2503.49	0.618
2511.39	0.614
2519.29	0.614
2527.19	0.614
2535.09	0.612
2542.99	0.612
2550.89	0.612
2558.79	0.611
2566.69	0.607
2574.59	0.606
2582.49	0.606
2590.38	0.61
2598.28	0.614
2606.18	0.615
2614.08	0.618
2621.98	0.616
2629.88	0.607
2637.78	0.604
2645.68	0.602
2653.58	0.595
2661.48	0.589
2669.38	0.581
2677.28	0.573
2685.18	0.565
2693.08	0.559
2700.97	0.549
2708.87	0.54
2716.77	0.527
2724.67	0.506
2732.57	0.496
2740.47	0.485
2748.37	0.471
2756.27	0.454
2764.17	0.44
2772.07	0.433
2779.97	0.418
2787.87	0.402
2795.77	0.393
2803.66	0.371
2811.56	0.349
2819.46	0.321
2827.36	0.291
2835.26	0.27
2843.16	0.242
2851.06	0.194
2858.96	0.166
2866.86	0.171
2874.76	0.179
2882.66	0.183
2890.56	0.181
2898.46	0.167
2906.36	0.153
2914.25	0.135
2922.15	0.118
2930.05	0.111
2937.95	0.127
2945.85	0.149
2953.75	0.156
2961.65	0.164
2969.55	0.19
2977.45	0.215
2985.35	0.229
2993.25	0.244
3001.15	0.246
3009.05	0.248
3016.94	0.254
3024.84	0.261
3032.74	0.269
3040.64	0.279
3048.54	0.288
3056.44	0.304
3064.34	0.325
3072.24	0.349
3080.14	0.368
3088.04	0.396
3095.94	0.408
3103.84	0.426
3111.74	0.44
3119.64	0.461
3127.53	0.477
3135.43	0.509
3143.33	0.535
3151.23	0.566
3159.13	0.585
3167.03	0.608
3174.93	0.624
3182.83	0.631
3190.73	0.639
3198.63	0.643
3206.53	0.65
3214.43	0.667
3222.33	0.679
3230.22	0.698
3238.12	0.723
3246.02	0.737
3253.92	0.754
3261.82	0.763
3269.72	0.771
3277.62	0.778
3285.52	0.782
3293.42	0.783
3301.32	0.786
3309.22	0.787
3317.12	0.787
3325.02	0.787
3332.92	0.787
3340.81	0.787
3348.71	0.786
