Infrared Spectrum: 1-Bromo-4-butylbenzene
Formula: C 10 H 13 Br
CAS: 41492-05-1
State: gas
Origin: EPA-IR VAPOR PHASE LIBRARY
1/CM	ABSORBANCE
551.7	0.00301
563.274	0.00246
574.848	0.0024
586.421	0.00355
597.995	0.00645
609.569	0.00478
621.143	0.00481
632.717	0.00668
644.291	0.00299
655.864	0.0024
667.438	0.00229
679.012	0.00198
690.586	0.00228
702.16	0.00328
713.734	0.00351
725.307	0.00335
736.881	0.00399
748.455	0.00501
760.029	0.00743
771.603	0.01345
783.177	0.01756
794.75	0.02169
806.324	0.02581
817.898	0.02786
829.472	0.02217
841.046	0.00987
852.619	0.00468
864.193	0.00349
875.767	0.00331
887.341	0.00385
898.915	0.00331
910.489	0.00294
922.062	0.00298
933.636	0.00329
945.21	0.00312
956.784	0.00288
968.358	0.00316
979.932	0.00331
991.505	0.00481
1003.08	0.01892
1014.65	0.05223
1026.23	0.00674
1037.8	0.00415
1049.37	0.0051
1060.95	0.01137
1072.52	0.0484
1084.1	0.02111
1095.67	0.00858
1107.24	0.00818
1118.82	0.00628
1130.39	0.00391
1141.97	0.00292
1153.54	0.00288
1165.11	0.00459
1176.69	0.00609
1188.26	0.00777
1199.83	0.00775
1211.41	0.00521
1222.98	0.00655
1234.56	0.00457
1246.13	0.00409
1257.7	0.00441
1269.28	0.00346
1280.85	0.0033
1292.42	0.00373
1304	0.00423
1315.57	0.00467
1327.15	0.00576
1338.72	0.00701
1350.29	0.00655
1361.87	0.00624
1373.44	0.00667
1385.02	0.00985
1396.59	0.01042
1408.16	0.00982
1419.74	0.00763
1431.31	0.0084
1442.88	0.01282
1454.46	0.01785
1466.03	0.02179
1477.61	0.03693
1489.18	0.08583
1500.75	0.02473
1512.33	0.00941
1523.9	0.00529
1535.48	0.00356
1547.05	0.00296
1558.62	0.00277
1570.2	0.00302
1581.77	0.00422
1593.34	0.00565
1604.92	0.00426
1616.49	0.00392
1628.07	0.00387
1639.64	0.00376
1651.21	0.00313
1662.79	0.00249
1674.36	0.00215
1685.93	0.00192
1697.51	0.00191
1709.08	0.00204
1720.66	0.00194
1732.23	0.00192
1743.8	0.00219
1755.38	0.00235
1766.95	0.00338
1778.53	0.00293
1790.1	0.00166
1801.67	0.00151
1813.25	0.00144
1824.82	0.00149
1836.39	0.00152
1847.97	0.0017
1859.54	0.00203
1871.12	0.00278
1882.69	0.00419
1894.26	0.00427
1905.84	0.00263
1917.41	0.00172
1928.99	0.00147
1940.56	0.00137
1952.13	0.00133
1963.71	0.00131
1975.28	0.00127
1986.85	0.00126
1998.43	0.00119
2010	0.00123
2021.58	0.00125
2033.15	0.00129
2044.72	0.00125
2056.3	0.00118
2067.87	0.00112
2079.44	0.00111
2091.02	0.00107
2102.59	0.001
2114.17	0.0009744
2125.74	0.00101
2137.31	0.00109
2148.89	0.00109
2160.46	0.00101
2172.04	0.0009919
2183.61	0.001
2195.18	0.00103
2206.76	0.00101
2218.33	0.00102
2229.9	0.00106
2241.48	0.0011
2253.05	0.00115
2264.63	0.00118
2276.2	0.00125
2287.77	0.00141
2299.35	0.00142
2310.92	0.0013
2322.5	0.00119
2334.07	0.00115
2345.64	0.00115
2357.22	0.00115
2368.79	0.00121
2380.36	0.00134
2391.94	0.00129
2403.51	0.00127
2415.09	0.00125
2426.66	0.0013
2438.23	0.0012
2449.81	0.00109
2461.38	0.00108
2472.96	0.00105
2484.53	0.00111
2496.1	0.00111
2507.68	0.0012
2519.25	0.00123
2530.82	0.00127
2542.4	0.00141
2553.97	0.00156
2565.55	0.00163
2577.12	0.00166
2588.69	0.00171
2600.27	0.00168
2611.84	0.00158
2623.41	0.00153
2634.99	0.00177
2646.56	0.00195
2658.14	0.00215
2669.71	0.00214
2681.28	0.00209
2692.86	0.00202
2704.43	0.0019
2716.01	0.0019
2727.58	0.00207
2739.15	0.00247
2750.73	0.00281
2762.3	0.00277
2773.87	0.00303
2785.45	0.0034
2797.02	0.00406
2808.6	0.00488
2820.17	0.0059
2831.74	0.00792
2843.32	0.01228
2854.89	0.02363
2866.47	0.04102
2878.04	0.04395
2889.61	0.03813
2901.19	0.03292
2912.76	0.04528
2924.33	0.07533
2935.91	0.10691
2947.48	0.09144
2959.06	0.07392
2970.63	0.08255
2982.2	0.04058
2993.78	0.01958
3005.35	0.01384
3016.92	0.01484
3028.5	0.02125
3040.07	0.01773
3051.65	0.01286
3063.22	0.00961
3074.79	0.01025
3086.37	0.01206
3097.94	0.00898
3109.52	0.00466
3121.09	0.003
3132.66	0.00248
3144.24	0.0023
3155.81	0.00225
3167.38	0.00207
3178.96	0.00194
3190.53	0.00178
3202.11	0.0016
3213.68	0.00144
3225.25	0.00137
3236.83	0.00129
3248.4	0.0012
3259.98	0.00113
3271.55	0.00109
3283.12	0.00105
3294.7	0.00109
3306.27	0.00119
3317.84	0.00109
3329.42	0.00113
3340.99	0.00119
3352.57	0.00116
3364.14	0.00114
3375.71	0.0012
3387.29	0.00106
3398.86	0.00107
3410.43	0.0011
3422.01	0.0009864
3433.58	0.0009799
3445.16	0.00104
3456.73	0.00114
3468.3	0.00109
3479.88	0.00126
3491.45	0.00117
3503.03	0.00103
3514.6	0.00105
3526.17	0.0009625
3537.75	0.00106
3549.32	0.00106
3560.89	0.00103
3572.47	0.00103
3584.04	0.00117
3595.62	0.00108
3607.19	0.00118
3618.76	0.00125
3630.34	0.00125
3641.91	0.0017
3653.49	0.00234
3665.06	0.00182
3676.63	0.00136
3688.21	0.0013
3699.78	0.00141
3711.35	0.00128
3722.93	0.0014
3734.5	0.00128
3746.08	0.00124
3757.65	0.00117
3769.22	0.00115
3780.8	0.00114
3792.37	0.00137
3803.94	0.00129
3815.52	0.00114
3827.09	0.00124
3838.67	0.00136
3850.24	0.00138
3861.81	0.0014
3873.39	0.00135
3884.96	0.00133
3896.54	0.00124
3908.11	0.00115
3919.68	0.00114
3931.26	0.00111
3942.83	0.00123
3954.4	0.00115
3965.98	0.00139
3977.55	0.00142
3989.13	0.00146
4000.7	0.00131
