Infrared Spectrum: N,N-Dimethyl-4-nitro-3(trifluoromethyl)aniline
Formula: C 9 H 9 F 3 N 2 O 2
CAS: 41512-62-3
State: gas
Origin: EPA-IR VAPOR PHASE LIBRARY
1/CM	ABSORBANCE
549.8	0.002945
559.445	0.003255
569.09	0.005605
578.734	0.008645
588.379	0.008035
598.024	0.004835
607.669	0.003775
617.313	0.005995
626.958	0.011875
636.603	0.008235
646.248	0.005645
655.893	0.009185
665.537	0.009575
675.182	0.003415
684.827	0.002545
694.472	0.003055
704.116	0.004845
713.761	0.005845
723.406	0.005135
733.051	0.011755
742.695	0.010615
752.34	0.008775
761.985	0.006175
771.63	0.003835
781.275	0.003485
790.919	0.004085
800.564	0.007115
810.209	0.024825
819.854	0.037875
829.498	0.014085
839.143	0.005965
848.788	0.008395
858.433	0.023855
868.078	0.028565
877.722	0.009175
887.367	0.004195
897.012	0.002755
906.657	0.002815
916.301	0.003125
925.946	0.003865
935.591	0.005895
945.236	0.012285
954.88	0.030815
964.525	0.046015
974.17	0.020195
983.815	0.008275
993.46	0.006265
1003.1	0.006505
1012.75	0.009215
1022.39	0.019715
1032.04	0.059815
1041.68	0.055015
1051.33	0.020105
1060.97	0.017105
1070.62	0.016725
1080.26	0.015065
1089.91	0.015795
1099.55	0.017325
1109.2	0.024265
1118.84	0.045045
1128.49	0.076855
1138.13	0.080155
1147.78	0.111605
1157.42	0.155775
1167.07	0.158735
1176.71	0.153875
1186.36	0.142205
1196	0.150425
1205.64	0.087215
1215.29	0.057145
1224.93	0.054655
1234.58	0.046635
1244.22	0.035695
1253.87	0.037215
1263.51	0.060125
1273.16	0.122845
1282.8	0.127995
1292.45	0.087105
1302.09	0.084755
1311.74	0.072945
1321.38	0.067655
1331.03	0.082645
1340.67	0.162455
1350.32	0.273205
1359.96	0.201345
1369.61	0.112845
1379.25	0.060405
1388.9	0.038655
1398.54	0.032755
1408.18	0.039075
1417.83	0.059395
1427.47	0.061725
1437.12	0.047915
1446.76	0.027575
1456.41	0.022815
1466.05	0.024955
1475.7	0.029905
1485.34	0.038525
1494.99	0.056425
1504.63	0.080985
1514.28	0.087335
1523.92	0.082505
1533.57	0.103785
1543.21	0.153855
1552.86	0.133455
1562.5	0.083445
1572.15	0.072195
1581.79	0.089485
1591.44	0.104915
1601.08	0.098825
1610.73	0.121565
1620.37	0.085465
1630.01	0.034805
1639.66	0.018765
1649.3	0.011825
1658.95	0.008615
1668.59	0.007055
1678.24	0.006005
1687.88	0.005105
1697.53	0.004415
1707.17	0.004085
1716.82	0.004105
1726.46	0.004015
1736.11	0.003245
1745.75	0.002835
1755.4	0.002845
1765.04	0.002915
1774.69	0.002655
1784.33	0.002195
1793.98	0.002025
1803.62	0.002035
1813.27	0.002005
1822.91	0.001745
1832.55	0.001575
1842.2	0.001425
1851.84	0.001535
1861.49	0.001685
1871.13	0.001895
1880.78	0.002355
1890.42	0.002785
1900.07	0.002645
1909.71	0.002245
1919.36	0.002155
1929	0.002265
1938.65	0.001925
1948.29	0.001635
1957.94	0.001445
1967.58	0.001485
1977.23	0.001605
1986.87	0.001805
1996.52	0.001675
2006.16	0.0013499
2015.81	0.0011767
2025.45	0.0011196
2035.1	0.0009434
2044.74	0.0009283
2054.38	0.0009298
2064.03	0.0010166
2073.67	0.0010612
2083.32	0.0013819
2092.96	0.001735
2102.61	0.001635
2112.25	0.001565
2121.9	0.0013825
2131.54	0.0012353
2141.19	0.0012851
2150.83	0.0012422
2160.48	0.0013457
2170.12	0.0013122
2179.77	0.0012615
2189.41	0.0012187
2199.06	0.001127
2208.7	0.0011851
2218.35	0.0011239
2227.99	0.0011904
2237.64	0.0011254
2247.28	0.0012021
2256.92	0.0011244
2266.57	0.0011275
2276.21	0.0012062
2285.86	0.0011231
2295.5	0.0012191
2305.15	0.0013026
2314.79	0.001475
2324.44	0.001625
2334.08	0.001645
2343.73	0.001685
2353.37	0.001665
2363.02	0.001675
2372.66	0.001685
2382.31	0.001695
2391.95	0.001665
2401.6	0.001545
2411.24	0.0013478
2420.89	0.0014206
2430.53	0.001455
2440.18	0.001525
2449.82	0.001575
2459.47	0.001595
2469.11	0.001715
2478.75	0.001685
2488.4	0.001545
2498.04	0.0012974
2507.69	0.0013193
2517.33	0.001505
2526.98	0.001625
2536.62	0.001955
2546.27	0.001995
2555.91	0.001985
2565.56	0.002025
2575.2	0.001925
2584.85	0.001995
2594.49	0.002225
2604.14	0.002655
2613.78	0.003015
2623.43	0.003255
2633.07	0.003355
2642.72	0.003025
2652.36	0.002455
2662.01	0.002275
2671.65	0.002195
2681.29	0.002125
2690.94	0.002205
2700.58	0.002405
2710.23	0.002685
2719.87	0.002915
2729.52	0.003025
2739.16	0.003135
2748.81	0.003245
2758.45	0.003685
2768.1	0.004465
2777.74	0.006125
2787.39	0.008145
2797.03	0.011555
2806.68	0.017165
2816.32	0.022285
2825.97	0.021005
2835.61	0.017395
2845.26	0.016925
2854.9	0.019175
2864.55	0.021425
2874.19	0.023705
2883.84	0.024815
2893.48	0.025875
2903.12	0.026635
2912.77	0.026235
2922.41	0.026075
2932.06	0.027245
2941.7	0.028305
2951.35	0.026595
2960.99	0.022595
2970.64	0.018715
2980.28	0.016575
2989.93	0.015835
2999.57	0.015115
3009.22	0.012645
3018.86	0.009525
3028.51	0.007005
3038.15	0.005595
3047.8	0.004605
3057.44	0.004265
3067.09	0.003885
3076.73	0.003765
3086.38	0.004155
3096.02	0.005185
3105.67	0.004025
3115.31	0.002445
3124.95	0.001965
3134.6	0.001835
3144.24	0.0014182
3153.89	0.0012322
3163.53	0.0011633
3173.18	0.0011869
3182.82	0.0010995
3192.47	0.0010133
3202.11	0.0009123
3211.76	0.0008401
3221.4	0.0007978
3231.05	0.0006081
3240.69	0.0006348
3250.34	0.0005027
3259.98	0.0004086
3269.63	0.0003325
3279.27	0.0003905
3288.92	0.0003618
3298.56	0.000225
3308.21	0.000252
3317.85	0.000276
3327.49	0.000266
3337.14	0.000281
3346.78	0.000267
3356.43	0.000124
3366.07	0.000246
3375.72	0.000276
3385.36	0.000263
3395.01	0.000125
3404.65	0.000317
3414.3	0.000145
3423.94	0.000198
3433.59	8.2e-05
3443.23	0.000145
3452.88	0.000225
3462.52	0.000304
3472.17	0.000212
3481.81	0.000205
3491.46	0.0003764
3501.1	0.000184
3510.75	0.000258
3520.39	0.000339
3530.04	0.0003422
3539.68	0.0003573
3549.32	0.000269
3558.97	0.000293
3568.61	0.000104
3578.26	0.0003753
3587.9	0.000257
3597.55	0.000195
3607.19	0.000102
3616.84	0.0003755
3626.48	0.000315
3636.13	0.00015
3645.77	7.9e-05
3655.42	0.000279
3665.06	0.000237
3674.71	0.00027
3684.35	0.000227
3694	0.0003663
3703.64	0.000191
3713.29	0.000192
3722.93	0.000182
3732.58	0.000233
3742.22	0.000208
3751.86	0.000227
3761.51	0.000253
3771.15	0.000273
3780.8	0.00043681
3790.44	0.0003478
3800.09	0.0003938
3809.73	0.000149
3819.38	0.0003796
3829.02	0.000175
3838.67	0.0003453
3848.31	0.0004046
3857.96	0.000265
3867.6	0.000117
3877.25	0.0005714
3886.89	0.00041701
3896.54	0.0006189
3906.18	0.00045743
3915.83	0.0003939
3925.47	0.00049295
3935.12	0.000272
3944.76	0.000315
3954.41	0.00041504
3964.05	0.0006529
3973.69	0.00049214
3983.34	0.0006859
3992.98	0.00051174
