Infrared Spectrum: PHOSPHINIC ACID, DIPHENYL-, TETRAMETHYLENE ESTER
Formula: C28 H28 O4 P2
CAS: 4151-25-1
State: SOLID (0.7 mg / 500 mg KBr DISC)
Class: COBLENTZ III
Instrument: PERKIN-ELMER 221 (GRATING)
Instrument parameters: FILTERS AT 2490, 980 CM ^-^1, GRATING FOR 4000-1428 CM^-^1, NaCl PRISM FOR 1428-650 CM^-^1
Sampling: TRANSMISSION
Resolution: 4
Origin: SOUTHERN RES. INSTITUTE
1/CM	TRANSMITTANCE
620.95	0.813
630.25	0.806
639.55	0.751
648.85	0.722
658.15	0.671
667.45	0.628
676.75	0.526
686.05	0.313
695.35	0.24
704.65	0.69
713.95	0.519
723.25	0.278
732.55	0.23
741.85	0.763
751.15	0.428
760.45	0.687
769.75	0.644
779.05	0.838
788.35	0.838
797.65	0.817
806.95	0.794
816.25	0.775
825.55	0.728
834.85	0.668
844.15	0.482
853.45	0.364
862.75	0.728
872.05	0.788
881.35	0.746
890.65	0.71
899.95	0.661
909.25	0.607
918.55	0.52
927.85	0.487
937.15	0.404
946.45	0.293
955.75	0.187
965.05	0.104
974.35	0.263
983.65	0.517
992.95	0.611
1002.25	0.639
1011.55	0.663
1020.85	0.513
1030.15	0.32
1039.45	0.182
1048.75	0.498
1058.05	0.656
1067.35	0.533
1076.65	0.766
1085.95	0.737
1095.25	0.686
1104.55	0.449
1113.85	0.334
1123.15	0.258
1132.45	0.291
1141.75	0.738
1151.05	0.683
1160.35	0.765
1169.65	0.717
1178.95	0.711
1188.25	0.594
1197.55	0.642
1206.85	0.567
1216.15	0.381
1225.45	0.124
1234.75	0.271
1244.05	0.596
1253.35	0.742
1262.65	0.784
1271.95	0.805
1281.25	0.79
1290.55	0.821
1299.85	0.78
1309.15	0.761
1318.45	0.867
1327.75	0.862
1337.05	0.872
1346.35	0.881
1355.65	0.86
1364.95	0.837
1374.25	0.753
1383.55	0.752
1392.85	0.785
1402.15	0.798
1411.45	0.745
1420.75	0.689
1430.05	0.511
1439.35	0.219
1448.65	0.841
1457.95	0.86
1467.25	0.817
1476.55	0.735
1485.85	0.74
1495.15	0.861
1504.45	0.859
1513.75	0.854
1523.05	0.849
1532.35	0.845
1541.65	0.835
1550.95	0.824
1560.25	0.814
1569.55	0.797
1578.85	0.775
1588.15	0.657
1597.45	0.697
1606.75	0.793
1616.05	0.771
1625.35	0.779
1634.65	0.785
1643.95	0.781
1653.25	0.783
1662.55	0.787
1671.85	0.785
1681.15	0.775
1690.45	0.769
1699.75	0.783
1709.05	0.786
1718.35	0.781
1727.65	0.778
1736.95	0.776
1746.25	0.767
1755.55	0.767
1764.85	0.776
1774.15	0.776
1783.45	0.752
1792.75	0.768
1802.05	0.783
1811.35	0.765
1820.65	0.751
1829.95	0.742
1839.25	0.733
1848.55	0.757
1857.85	0.771
1867.15	0.773
1876.45	0.772
1885.75	0.768
1895.05	0.76
1904.35	0.738
1913.65	0.724
1922.95	0.752
1932.25	0.759
1941.55	0.765
1950.85	0.763
1960.15	0.751
1969.45	0.731
1978.75	0.726
1988.05	0.725
1997.35	0.738
2006.65	0.745
2015.95	0.748
2025.25	0.749
2034.55	0.747
2043.85	0.747
2053.15	0.746
2062.45	0.745
2071.75	0.742
2081.05	0.741
2090.35	0.739
2099.65	0.738
2108.95	0.736
2118.25	0.735
2127.55	0.732
2136.85	0.731
2146.15	0.73
2155.45	0.729
2164.75	0.729
2174.05	0.728
2183.35	0.728
2192.65	0.727
2201.95	0.725
2211.25	0.724
2220.55	0.721
2229.85	0.716
2239.15	0.714
2248.45	0.714
2257.75	0.715
2267.05	0.717
2276.35	0.718
2285.65	0.718
2294.95	0.716
2304.25	0.713
2313.55	0.704
2322.85	0.699
2332.15	0.697
2341.45	0.697
2350.75	0.699
2360.05	0.7
2369.35	0.703
2378.65	0.705
2387.95	0.705
2397.25	0.703
2406.55	0.701
2415.85	0.698
2425.15	0.697
2434.45	0.695
2443.75	0.694
2453.05	0.694
2462.35	0.695
2471.65	0.697
2480.95	0.697
2490.25	0.694
2499.55	0.69
2508.85	0.689
2518.15	0.687
2527.45	0.684
2536.75	0.682
2546.05	0.681
2555.35	0.68
2564.65	0.679
2573.95	0.677
2583.25	0.676
2592.55	0.676
2601.85	0.676
2611.15	0.675
2620.45	0.676
2629.75	0.676
2639.05	0.675
2648.35	0.673
2657.65	0.672
2666.95	0.671
2676.25	0.67
2685.55	0.668
2694.85	0.666
2704.15	0.664
2713.45	0.663
2722.75	0.663
2732.05	0.663
2741.35	0.662
2750.65	0.662
2759.95	0.662
2769.25	0.662
2778.55	0.66
2787.85	0.659
2797.15	0.656
2806.45	0.653
2815.75	0.649
2825.05	0.646
2834.35	0.639
2843.65	0.613
2852.95	0.618
2862.25	0.621
2871.55	0.619
2880.85	0.613
2890.15	0.56
2899.45	0.577
2908.75	0.608
2918.05	0.57
2927.35	0.548
2936.65	0.58
2945.95	0.494
2955.25	0.509
2964.55	0.58
2973.85	0.553
2983.15	0.577
2992.45	0.619
3001.75	0.62
3011.05	0.616
3020.35	0.606
3029.65	0.592
3038.95	0.572
3048.25	0.563
3057.55	0.563
3066.85	0.573
3076.15	0.587
3085.45	0.597
3094.75	0.611
3104.05	0.624
3113.35	0.626
3122.65	0.625
3131.95	0.624
3141.25	0.622
3150.55	0.621
3159.85	0.62
3169.15	0.619
3178.45	0.618
3187.75	0.618
3197.05	0.618
3206.35	0.617
3215.65	0.616
3224.95	0.615
3234.25	0.615
3243.55	0.614
3252.85	0.612
3262.15	0.61
3271.45	0.608
3280.75	0.607
3290.05	0.604
3299.35	0.602
3308.65	0.599
3317.95	0.595
3327.25	0.593
3336.55	0.588
3345.85	0.584
3355.15	0.578
3364.45	0.573
3373.75	0.567
3383.05	0.56
3392.35	0.556
3401.65	0.553
3410.95	0.551
3420.25	0.549
3429.55	0.548
3438.85	0.547
3448.15	0.546
3457.45	0.546
3466.75	0.546
3476.05	0.547
3485.35	0.548
3494.65	0.549
3503.95	0.551
3513.25	0.553
3522.55	0.554
3531.85	0.556
3541.15	0.558
3550.45	0.56
3559.75	0.562
3569.05	0.563
3578.35	0.564
3587.65	0.566
3596.95	0.568
3606.25	0.57
3615.55	0.57
3624.85	0.571
3634.15	0.572
3643.45	0.573
3652.75	0.573
3662.05	0.573
3671.35	0.573
3680.65	0.573
3689.95	0.572
3699.25	0.572
3708.55	0.572
3717.85	0.572
3727.15	0.57
3736.45	0.569
3745.75	0.566
3755.05	0.567
3764.35	0.57
3773.65	0.573
3782.95	0.574
3792.25	0.573
3801.55	0.569
3810.85	0.566
3820.15	0.563
3829.45	0.563
3838.75	0.562
3848.05	0.562
3857.35	0.562
3866.65	0.562
3875.95	0.562
3885.25	0.561
3894.55	0.561
3903.85	0.561
3913.15	0.561
3922.45	0.562
3931.75	0.562
3941.05	0.563
3950.35	0.563
3959.65	0.564
3968.95	0.564
3978.25	0.563
3987.55	0.562
3996.85	0.56
