Infrared Spectrum: Alpha-PHENYLETHYL n-BUTYL ETHER
Formula: C12 H18 O
CAS: 4157-77-1
State: SOLUTION (10% CCl4 FOR 5000-1330, 10% CS2 FOR 1330-625 CM^-^1)
Class: COBLENTZ
Instrument: Not specified, most likely a prism, grating, or hybrid spectrometer.
Sampling: TRANSMISSION
Path length: 0.0124 CM, 0.0124 CM
Resolution: 4
Origin: DOW CHEMICAL COMPANY
MICROMETERS	TRANSMITTANCE
2.007	0.868
2.048	0.878
2.08899	0.873
2.12999	0.878
2.17098	0.878
2.21198	0.868
2.25297	0.856
2.29397	0.865
2.33496	0.868
2.37596	0.87
2.41695	0.858
2.45795	0.873
2.49894	0.878
2.53994	0.882
2.58093	0.878
2.62193	0.885
2.66292	0.88
2.70392	0.877
2.74491	0.873
2.78591	0.866
2.8269	0.858
2.8679	0.844
2.90889	0.837
2.94989	0.832
2.99088	0.834
3.03188	0.827
3.07287	0.82
3.11387	0.812
3.15486	0.802
3.19586	0.75
3.23685	0.624
3.27785	0.581
3.31884	0.517
3.35984	0.192
3.40083	0.18
3.44183	0.255
3.48282	0.296
3.52382	0.679
3.56481	0.728
3.60581	0.761
3.6468	0.796
3.6878	0.817
3.72879	0.837
3.76979	0.843
3.81078	0.827
3.85178	0.853
3.89277	0.87
3.93377	0.873
3.97476	0.877
4.01576	0.877
4.05675	0.877
4.09775	0.877
4.13874	0.88
4.17974	0.878
4.22074	0.872
4.26173	0.866
4.30273	0.865
4.34372	0.868
4.38472	0.875
4.42571	0.877
4.46671	0.882
4.5077	0.883
4.5487	0.885
4.58969	0.889
4.63069	0.89
4.67168	0.89
4.71268	0.887
4.75367	0.887
4.79467	0.889
4.83566	0.89
4.87666	0.89
4.91765	0.883
4.95865	0.882
4.99964	0.878
5.04064	0.877
5.08163	0.856
5.12263	0.832
5.16362	0.883
5.20462	0.887
5.24561	0.872
5.28661	0.858
5.3276	0.853
5.3686	0.885
5.40959	0.885
5.45059	0.878
5.49158	0.861
5.53258	0.868
5.57357	0.892
5.61457	0.892
5.65556	0.873
5.69656	0.868
5.73755	0.882
5.77855	0.885
5.81954	0.885
5.86054	0.88
5.90153	0.872
5.94253	0.865
5.98352	0.854
6.02452	0.853
6.06551	0.844
6.10651	0.844
6.1475	0.82
6.1885	0.783
6.22949	0.684
6.27049	0.627
6.31149	0.6
6.35248	0.575
6.39348	0.52
6.43447	0.459
6.47547	0.498
6.51646	0.588
6.55746	0.626
6.59845	0.665
6.63945	0.674
6.68044	0.52
6.72144	0.675
6.76243	0.617
6.80343	0.51
6.84442	0.397
6.88542	0.404
6.92641	0.646
6.96741	0.75
7.0084	0.802
7.0494	0.807
7.09039	0.767
7.13139	0.73
7.17238	0.728
7.21338	0.638
7.25437	0.525
7.29537	0.452
7.33636	0.616
7.37736	0.503
7.41835	0.61
7.45935	0.697
7.50034	0.624
7.54134	0.568
7.58233	0.619
7.62333	0.67
7.66432	0.609
7.70532	0.677
7.74631	0.679
7.78731	0.595
7.8283	0.776
7.8693	0.803
7.91029	0.807
7.95129	0.822
7.99228	0.831
8.03328	0.829
8.07427	0.803
8.11527	0.788
8.15626	0.812
8.19726	0.764
8.23825	0.597
8.27925	0.484
8.32024	0.757
8.36124	0.819
8.40223	0.831
8.44323	0.805
8.48423	0.771
8.52522	0.759
8.56622	0.735
8.60721	0.694
8.64821	0.633
8.6892	0.619
8.7302	0.6
8.77119	0.569
8.81219	0.513
8.85318	0.436
8.89418	0.312
8.93517	0.194
8.97617	0.102
9.01716	0.061
9.05816	0.042
9.09915	0.034
9.14015	0.069
9.18114	0.153
9.22214	0.286
9.26313	0.349
9.30413	0.383
9.34512	0.365
9.38612	0.433
9.42711	0.576
9.46811	0.633
9.5091	0.697
9.5501	0.704
9.59109	0.624
9.63209	0.51
9.67308	0.491
9.71408	0.529
9.75507	0.643
9.79607	0.706
9.83706	0.677
9.87806	0.624
9.91905	0.633
9.96005	0.672
10.001	0.694
10.042	0.692
10.083	0.726
10.124	0.766
10.165	0.769
10.206	0.74
10.247	0.718
10.288	0.691
10.329	0.73
10.37	0.783
10.411	0.815
10.452	0.841
10.493	0.866
10.534	0.882
10.575	0.889
10.616	0.894
10.657	0.899
10.698	0.899
10.739	0.892
10.78	0.878
10.8209	0.854
10.8619	0.817
10.9029	0.754
10.9439	0.674
10.9849	0.578
11.0259	0.656
11.0669	0.757
11.1079	0.796
11.1489	0.825
11.1899	0.837
11.2309	0.839
11.2719	0.812
11.3129	0.784
11.3539	0.749
11.3949	0.73
11.4359	0.726
11.4769	0.723
11.5179	0.716
11.5589	0.715
11.5999	0.713
11.6408	0.709
11.6818	0.709
11.7228	0.715
11.7638	0.726
11.8048	0.74
11.8458	0.744
11.8868	0.738
11.9278	0.754
11.9688	0.773
12.0098	0.771
12.0508	0.764
12.0918	0.788
12.1328	0.834
12.1738	0.848
12.2148	0.86
12.2558	0.863
12.2968	0.861
12.3378	0.854
12.3788	0.856
12.4198	0.854
12.4607	0.843
12.5017	0.829
12.5427	0.81
12.5837	0.803
12.6247	0.815
12.6657	0.817
12.7067	0.803
12.7477	0.79
12.7887	0.767
12.8297	0.75
12.8707	0.725
12.9117	0.686
12.9527	0.631
12.9937	0.58
13.0347	0.503
13.0757	0.392
13.1167	0.228
13.1577	0.141
13.1987	0.145
13.2397	0.245
13.2807	0.375
13.3216	0.465
13.3626	0.535
13.4036	0.58
13.4446	0.604
13.4856	0.622
13.5266	0.627
13.5676	0.631
13.6086	0.658
13.6496	0.679
13.6906	0.701
13.7316	0.711
13.7726	0.715
13.8136	0.718
13.8546	0.709
13.8956	0.697
13.9366	0.68
13.9776	0.655
14.0186	0.617
14.0596	0.571
14.1006	0.51
14.1415	0.423
14.1825	0.302
14.2235	0.156
14.2645	0.066
14.3055	0.044
14.3465	0.127
14.3875	0.31
14.4285	0.43
14.4695	0.517
14.5105	0.564
14.5515	0.588
14.5925	0.598
14.6335	0.602
14.6745	0.602
14.7155	0.602
14.7565	0.597
14.7975	0.588
14.8385	0.581
14.8795	0.575
14.9205	0.566
14.9615	0.556
15.0024	0.544
15.0434	0.532
15.0844	0.525
15.1254	0.517
15.1664	0.506
15.2074	0.498
15.2484	0.493
15.2894	0.482
15.3304	0.477
15.3714	0.474
15.4124	0.467
15.4534	0.46
15.4944	0.455
15.5354	0.448
15.5764	0.441
15.6174	0.433
15.6584	0.426
15.6994	0.419
15.7404	0.412
15.7814	0.404
15.8223	0.399
15.8633	0.395
15.9043	0.404
