Infrared Spectrum: 4-Bromo-2-fluorobiphenyl
Formula: C 12 H 8 Br F
CAS: 41604-19-7
State: gas
Origin: EPA-IR VAPOR PHASE LIBRARY
1/CM	ABSORBANCE
549.8	0.004728
559.445	0.015328
569.09	0.037158
578.734	0.041238
588.379	0.020158
598.024	0.006378
607.669	0.003958
617.313	0.003388
626.958	0.002998
636.603	0.003028
646.248	0.004708
655.893	0.007528
665.537	0.014398
675.182	0.019928
684.827	0.044208
694.472	0.089418
704.116	0.072438
713.761	0.038608
723.406	0.026158
733.051	0.017248
742.695	0.023218
752.34	0.052008
761.985	0.077628
771.63	0.043648
781.275	0.017388
790.919	0.011898
800.564	0.017198
810.209	0.041308
819.854	0.050278
829.498	0.022848
839.143	0.015638
848.788	0.040458
858.433	0.100478
868.078	0.144328
877.722	0.226938
887.367	0.044258
897.012	0.012538
906.657	0.011398
916.301	0.009328
925.946	0.006448
935.591	0.005828
945.236	0.008218
954.88	0.006358
964.525	0.004788
974.17	0.004818
983.815	0.005638
993.46	0.012608
1003.1	0.027238
1012.75	0.068168
1022.39	0.009168
1032.04	0.007568
1041.68	0.007338
1051.33	0.007058
1060.97	0.017638
1070.62	0.063288
1080.26	0.035648
1089.91	0.015888
1099.55	0.007168
1109.2	0.010068
1118.84	0.019618
1128.49	0.022688
1138.13	0.010648
1147.78	0.005258
1157.42	0.004528
1167.07	0.006488
1176.71	0.008508
1186.36	0.015778
1196	0.025988
1205.64	0.054528
1215.29	0.070868
1224.93	0.049178
1234.58	0.023288
1244.22	0.017588
1253.87	0.024098
1263.51	0.023848
1273.16	0.015878
1282.8	0.013828
1292.45	0.012298
1302.09	0.009558
1311.74	0.008278
1321.38	0.007788
1331.03	0.009028
1340.67	0.008108
1350.32	0.007648
1359.96	0.008908
1369.61	0.013278
1379.25	0.030708
1388.9	0.067828
1398.54	0.088748
1408.18	0.063318
1417.83	0.029368
1427.47	0.025578
1437.12	0.050088
1446.76	0.049758
1456.41	0.036488
1466.05	0.082658
1475.7	0.270508
1485.34	0.143698
1494.99	0.035608
1504.63	0.033108
1514.28	0.030408
1523.92	0.023198
1533.57	0.020578
1543.21	0.020668
1552.86	0.042488
1562.5	0.059568
1572.15	0.047878
1581.79	0.045458
1591.44	0.065178
1601.08	0.100788
1610.73	0.085858
1620.37	0.022998
1630.01	0.013238
1639.66	0.009278
1649.3	0.006658
1658.95	0.005648
1668.59	0.005798
1678.24	0.005288
1687.88	0.003988
1697.53	0.004058
1707.17	0.006258
1716.82	0.009348
1726.46	0.007148
1736.11	0.005088
1745.75	0.005708
1755.4	0.006048
1765.04	0.004058
1774.69	0.003648
1784.33	0.004128
1793.98	0.007788
1803.62	0.006998
1813.27	0.004318
1822.91	0.003688
1832.55	0.002398
1842.2	0.001968
1851.84	0.002418
1861.49	0.003848
1871.13	0.006448
1880.78	0.008838
1890.42	0.010048
1900.07	0.004618
1909.71	0.002338
1919.36	0.002438
1929	0.003708
1938.65	0.005668
1948.29	0.006108
1957.94	0.006708
1967.58	0.003288
1977.23	0.001708
1986.87	0.001738
1996.52	0.001608
2006.16	0.001306
2015.81	0.0013051
2025.45	0.0010397
2035.1	0.0010287
2044.74	0.0009945
2054.38	0.0012286
2064.03	0.0013485
2073.67	0.001548
2083.32	0.001808
2092.96	0.001758
2102.61	0.001518
2112.25	0.0012907
2121.9	0.0012085
2131.54	0.001341
2141.19	0.0013095
2150.83	0.0011592
2160.48	0.0012084
2170.12	0.0010106
2179.77	0.0008732
2189.41	0.0011031
2199.06	0.0011374
2208.7	0.001199
2218.35	0.0011534
2227.99	0.0012139
2237.64	0.001478
2247.28	0.001778
2256.92	0.001888
2266.57	0.001948
2276.21	0.001878
2285.86	0.001698
2295.5	0.001518
2305.15	0.001838
2314.79	0.002668
2324.44	0.002078
2334.08	0.001988
2343.73	0.002008
2353.37	0.001788
2363.02	0.001498
2372.66	0.0012803
2382.31	0.0013834
2391.95	0.0013586
2401.6	0.001458
2411.24	0.001948
2420.89	0.002168
2430.53	0.002048
2440.18	0.001948
2449.82	0.002088
2459.47	0.002248
2469.11	0.002628
2478.75	0.002578
2488.4	0.001898
2498.04	0.001738
2507.69	0.001608
2517.33	0.002038
2526.98	0.001648
2536.62	0.001688
2546.27	0.001508
2555.91	0.0012301
2565.56	0.0012404
2575.2	0.001201
2584.85	0.0010361
2594.49	0.0012646
2604.14	0.001478
2613.78	0.0013964
2623.43	0.0013566
2633.07	0.0013847
2642.72	0.001818
2652.36	0.002018
2662.01	0.001618
2671.65	0.001468
2681.29	0.001468
2690.94	0.0012185
2700.58	0.0012029
2710.23	0.001326
2719.87	0.0013089
2729.52	0.0011971
2739.16	0.0009305
2748.81	0.0009445
2758.45	0.0007336
2768.1	0.0009492
2777.74	0.0010222
2787.39	0.0008747
2797.03	0.000913
2806.68	0.0011451
2816.32	0.0013652
2825.97	0.001458
2835.61	0.001438
2845.26	0.0013254
2854.9	0.001628
2864.55	0.001668
2874.19	0.001618
2883.84	0.001838
2893.48	0.002068
2903.12	0.001478
2912.77	0.0013594
2922.41	0.0012152
2932.06	0.0012606
2941.7	0.001558
2951.35	0.001698
2960.99	0.001598
2970.64	0.001598
2980.28	0.001998
2989.93	0.002598
2999.57	0.004228
3009.22	0.006738
3018.86	0.013268
3028.51	0.027128
3038.15	0.041378
3047.8	0.030358
3057.44	0.036668
3067.09	0.070888
3076.73	0.063838
3086.38	0.040268
3096.02	0.027898
3105.67	0.016628
3115.31	0.011258
3124.95	0.005868
3134.6	0.003428
3144.24	0.002708
3153.89	0.002518
3163.53	0.002068
3173.18	0.0013682
3182.82	0.0009335
3192.47	0.0011607
3202.11	0.0009839
3211.76	0.0006704
3221.4	0.0005768
3231.05	0.0005737
3240.69	0.0007534
3250.34	0.0006828
3259.98	0.00048029
3269.63	0.0005413
3279.27	0.000245
3288.92	0.0004021
3298.56	0.00050377
3308.21	0.0005672
3317.85	0.00051877
3327.49	0.0003887
3337.14	0.000597
3346.78	0.000427834
3356.43	0.000297
3366.07	0.00052664
3375.72	0.00046323
3385.36	0.0007784
3395.01	0.0003301
3404.65	0.0003346
3414.3	0.0004483
3423.94	0.0009126
3433.59	0.00049157
3443.23	0.0005585
3452.88	0.000677
3462.52	0.000726
3472.17	0.0007461
3481.81	0.00047943
3491.46	0.0003813
3501.1	0.0006557
3510.75	0.0006845
3520.39	0.0005605
3530.04	0.0010166
3539.68	0.000636
3549.32	0.00056
3558.97	0.00050397
3568.61	0.00051238
3578.26	0.0006332
3587.9	0.000696
3597.55	0.0007026
3607.19	0.0007253
3616.84	0.0007012
3626.48	0.0007158
3636.13	0.0008787
3645.77	0.0010089
3655.42	0.0014226
3665.06	0.0010186
3674.71	0.0009515
3684.35	0.0009219
3694	0.0011062
3703.64	0.0013251
3713.29	0.000979
3722.93	0.0005741
3732.58	0.0009646
3742.22	0.0009216
3751.86	0.0005977
3761.51	0.000554
3771.15	0.00048018
3780.8	0.0010567
3790.44	0.0010726
3800.09	0.0004058
3809.73	0.0007534
3819.38	0.0011353
3829.02	0.0007593
3838.67	0.0007299
3848.31	0.0008449
3857.96	0.0005425
3867.6	0.0007998
3877.25	0.0008175
3886.89	0.0005358
3896.54	0.0005693
3906.18	0.0009457
3915.83	0.0012404
3925.47	0.0008899
3935.12	0.000992
3944.76	0.000896
3954.41	0.001548
3964.05	0.001089
3973.69	0.0010109
3983.34	0.0005402
3992.98	0.0009999
