Infrared Spectrum: 4-Methylbutyrophenone
Formula: C 11 H 14 O
CAS: 4160-52-5
State: gas
Origin: EPA-IR VAPOR PHASE LIBRARY
1/CM	ABSORBANCE
549.8	0.00476
559.445	0.00702
569.09	0.00744
578.735	0.00871
588.38	0.00648
598.025	0.00428
607.67	0.00311
617.315	0.00224
626.96	0.00202
636.605	0.00249
646.251	0.00242
655.896	0.00232
665.541	0.00209
675.186	0.00219
684.831	0.0022
694.476	0.00235
704.121	0.00275
713.766	0.00353
723.411	0.00466
733.056	0.00602
742.701	0.00738
752.346	0.00913
761.991	0.00934
771.636	0.008
781.281	0.0102
790.926	0.01562
800.571	0.0214
810.216	0.02132
819.861	0.01644
829.507	0.01163
839.152	0.00848
848.797	0.00532
858.442	0.00392
868.087	0.00365
877.732	0.00386
887.377	0.00608
897.022	0.00784
906.667	0.0048
916.312	0.00301
925.957	0.00262
935.602	0.00306
945.247	0.0036
954.892	0.00498
964.537	0.00871
974.182	0.01678
983.827	0.02232
993.472	0.02588
1003.12	0.02182
1012.76	0.01096
1022.41	0.00599
1032.05	0.00543
1041.7	0.007
1051.34	0.00674
1060.99	0.00495
1070.63	0.00419
1080.28	0.00426
1089.92	0.00478
1099.57	0.00523
1109.21	0.00559
1118.86	0.00584
1128.5	0.00473
1138.15	0.00369
1147.79	0.00394
1157.44	0.0057
1167.08	0.01183
1176.73	0.04117
1186.37	0.04376
1196.02	0.03203
1205.66	0.04095
1215.31	0.03687
1224.95	0.0284
1234.6	0.01939
1244.24	0.0191
1253.89	0.02343
1263.53	0.03351
1273.18	0.03883
1282.82	0.0299
1292.47	0.0245
1302.11	0.02008
1311.76	0.01788
1321.4	0.01564
1331.05	0.01246
1340.69	0.01511
1350.34	0.02105
1359.98	0.0222
1369.63	0.01583
1379.27	0.01108
1388.92	0.01058
1398.56	0.01278
1408.21	0.01604
1417.85	0.01449
1427.5	0.01148
1437.14	0.01137
1446.79	0.01274
1456.43	0.01315
1466.08	0.01253
1475.73	0.01005
1485.37	0.00727
1495.02	0.00593
1504.66	0.00535
1514.31	0.00474
1523.95	0.00428
1533.6	0.0041
1543.24	0.00445
1552.89	0.00525
1562.53	0.00683
1572.18	0.00885
1581.82	0.00912
1591.47	0.01367
1601.11	0.02878
1610.76	0.03601
1620.4	0.01962
1630.05	0.00947
1639.69	0.00727
1649.34	0.00706
1658.98	0.00873
1668.63	0.01265
1678.27	0.02677
1687.92	0.06937
1697.56	0.11318
1707.21	0.07951
1716.85	0.02588
1726.5	0.00992
1736.14	0.00614
1745.79	0.00474
1755.43	0.00366
1765.08	0.00297
1774.72	0.00262
1784.37	0.00274
1794.01	0.00296
1803.66	0.00308
1813.3	0.0023
1822.95	0.00173
1832.59	0.0015
1842.24	0.00154
1851.88	0.00154
1861.53	0.00153
1871.17	0.00162
1880.82	0.00192
1890.46	0.00225
1900.11	0.00231
1909.75	0.0024
1919.4	0.00223
1929.04	0.00202
1938.69	0.00184
1948.33	0.0016
1957.98	0.00146
1967.62	0.0013532
1977.27	0.0012361
1986.91	0.0013045
1996.56	0.001294
2006.2	0.0011282
2015.85	0.0010253
2025.49	0.001016
2035.14	0.0011329
2044.78	0.0010749
2054.43	0.0009701
2064.07	0.0010217
2073.72	0.0009874
2083.36	0.0010196
2093.01	0.0009411
2102.65	0.0010525
2112.3	0.0010752
2121.94	0.0009816
2131.59	0.0009966
2141.23	0.0009168
2150.88	0.0009629
2160.52	0.000968
2170.17	0.0010698
2179.81	0.0009661
2189.46	0.000974
2199.1	0.0010742
2208.75	0.0009716
2218.39	0.0010239
2228.04	0.0009406
2237.68	0.0010863
2247.33	0.001073
2256.97	0.0010911
2266.62	0.0011316
2276.26	0.0011987
2285.91	0.0012559
2295.55	0.0013889
2305.2	0.0015
2314.84	0.0013293
2324.49	0.0013031
2334.13	0.0010526
2343.78	0.0011551
2353.42	0.001009
2363.07	0.0011011
2372.72	0.0010635
2382.36	0.0013043
2392.01	0.0012807
2401.65	0.0013654
2411.3	0.0013822
2420.94	0.00148
2430.59	0.0013708
2440.23	0.0011685
2449.88	0.0012597
2459.52	0.0011068
2469.17	0.0012058
2478.81	0.0011167
2488.46	0.0011246
2498.1	0.0011299
2507.75	0.0011398
2517.39	0.0011807
2527.04	0.0012171
2536.68	0.0012883
2546.33	0.0012094
2555.97	0.0012496
2565.62	0.001345
2575.26	0.00149
2584.91	0.00152
2594.55	0.0013545
2604.2	0.0012793
2613.84	0.0012763
2623.49	0.0012302
2633.13	0.0011107
2642.78	0.0012037
2652.42	0.0012001
2662.07	0.0012185
2671.71	0.0013614
2681.36	0.00145
2691	0.0013785
2700.65	0.00145
2710.29	0.00151
2719.94	0.00147
2729.58	0.00187
2739.23	0.00224
2748.87	0.00234
2758.52	0.00211
2768.16	0.00193
2777.81	0.00217
2787.45	0.00251
2797.1	0.00272
2806.74	0.00329
2816.39	0.00386
2826.03	0.00421
2835.68	0.00495
2845.32	0.00621
2854.97	0.00869
2864.61	0.01376
2874.26	0.02222
2883.9	0.02792
2893.55	0.02567
2903.19	0.025
2912.84	0.02707
2922.48	0.03248
2932.13	0.04304
2941.77	0.04527
2951.42	0.03949
2961.06	0.04473
2970.71	0.05757
2980.35	0.04455
2990	0.02653
2999.64	0.01885
3009.29	0.01603
3018.93	0.01584
3028.58	0.02159
3038.22	0.02218
3047.87	0.01538
3057.51	0.01279
3067.16	0.01153
3076.8	0.01036
3086.45	0.00946
3096.09	0.00759
3105.74	0.00479
3115.38	0.00384
3125.03	0.00293
3134.67	0.00211
3144.32	0.00174
3153.96	0.0014235
3163.61	0.0013126
3173.25	0.0010107
3182.9	0.0009288
3192.54	0.0008942
3202.19	0.0007669
3211.83	0.0007857
3221.48	0.0005504
3231.12	0.0007169
3240.77	0.0006705
3250.41	0.00048991
3260.06	0.00052743
3269.7	0.0005832
3279.35	0.000739
3289	0.0005762
3298.64	0.00043121
3308.29	0.00048217
3317.93	0.00043573
3327.58	0.00043582
3337.22	0.0007316
3346.87	0.0008852
3356.51	0.0013568
3366.16	0.00185
3375.8	0.00209
3385.45	0.00165
3395.09	0.0012262
3404.74	0.000726
3414.38	0.0003941
3424.03	0.0004652
3433.67	0.0003402
3443.32	0.00026
3452.96	0.000266
3462.61	0.0003624
3472.25	0.0003822
3481.9	0.000129
3491.54	0.000315
3501.19	0.000226
3510.83	0.000261
3520.48	0.000297
3530.12	0
3539.77	0.000341
3549.41	0.0002
3559.06	0.00043027
3568.7	0.00049362
3578.35	0.000248
3587.99	0.000304
3597.64	0.000281
3607.28	0.000232
3616.93	0.000247
3626.57	0.000303
3636.22	0.000232
3645.86	0.0003773
3655.51	0.000440343
3665.15	0.0003484
3674.8	0.0004208
3684.44	0.0003461
3694.09	0.0004226
3703.73	0.0003
3713.38	0.000221
3723.02	0.00025
3732.67	0.000142
3742.31	0.0003448
3751.96	5.6e-05
3761.6	0.000201
3771.25	0.000444972
3780.89	0.000313
3790.54	0.000318
3800.18	0.000149
3809.83	0.0006278
3819.47	0.00043515
3829.12	0.000307
3838.76	0.000301
3848.41	0.000234
3858.05	0.000245
3867.7	0.000396
3877.34	0.0006085
3886.99	0.0003495
3896.63	0.0003874
3906.28	0.000445752
3915.92	0.000222
3925.57	0.0006018
3935.21	0.0004049
3944.86	0.000288
3954.5	0.00043455
3964.15	0.0007226
3973.79	0.0006444
3983.44	0.0004027
3993.08	0.0006021
