Infrared Spectrum: p-Methoxybutyrophenone
Formula: C 11 H 14 O 2
CAS: 4160-51-4
State: gas
Origin: EPA-IR VAPOR PHASE LIBRARY
1/CM	ABSORBANCE
549.8	0.027374
559.445	0.036914
569.09	0.044854
578.734	0.054064
588.379	0.057614
598.024	0.045484
607.669	0.032144
617.313	0.023164
626.958	0.020154
636.603	0.019644
646.248	0.015604
655.893	0.012434
665.537	0.009204
675.182	0.008614
684.827	0.008434
694.472	0.007914
704.116	0.008214
713.761	0.007864
723.406	0.006424
733.051	0.007624
742.695	0.011374
752.34	0.015294
761.985	0.016754
771.63	0.015754
781.275	0.019894
790.919	0.031074
800.564	0.051864
810.209	0.065384
819.854	0.082494
829.498	0.111734
839.143	0.102384
848.788	0.059204
858.433	0.031344
868.078	0.023494
877.722	0.019544
887.367	0.027104
897.012	0.032384
906.657	0.018354
916.301	0.011184
925.946	0.010244
935.591	0.010894
945.236	0.013484
954.88	0.018644
964.525	0.030124
974.17	0.063214
983.815	0.123524
993.46	0.125524
1003.1	0.076334
1012.75	0.054484
1022.39	0.072504
1032.04	0.124984
1041.68	0.140304
1051.33	0.079234
1060.97	0.041554
1070.62	0.029884
1080.26	0.027234
1089.91	0.028804
1099.55	0.037214
1109.2	0.042974
1118.84	0.037654
1128.49	0.031244
1138.13	0.035064
1147.78	0.052154
1157.42	0.123664
1167.07	0.455434
1176.71	0.418014
1186.36	0.146344
1196	0.143374
1205.64	0.236074
1215.29	0.294654
1224.93	0.268084
1234.58	0.278744
1244.22	0.433214
1253.87	0.594934
1263.51	0.423494
1273.16	0.241764
1282.8	0.202254
1292.45	0.221684
1302.09	0.222214
1311.74	0.173284
1321.38	0.115094
1331.03	0.082744
1340.67	0.086484
1350.32	0.110344
1359.96	0.111984
1369.61	0.076624
1379.25	0.047554
1388.9	0.038854
1398.54	0.042624
1408.18	0.070324
1417.83	0.084404
1427.47	0.057084
1437.12	0.067104
1446.76	0.088384
1456.41	0.090934
1466.05	0.108894
1475.7	0.089084
1485.34	0.063284
1494.99	0.091394
1504.63	0.198664
1514.28	0.163934
1523.92	0.050484
1533.57	0.030904
1543.21	0.029944
1552.86	0.036514
1562.5	0.061964
1572.15	0.125074
1581.79	0.177244
1591.44	0.295734
1601.08	0.491554
1610.73	0.334204
1620.37	0.116544
1630.01	0.053704
1639.66	0.037034
1649.3	0.034824
1658.95	0.039284
1668.59	0.055414
1678.24	0.124264
1687.88	0.314954
1697.53	0.417584
1707.17	0.200444
1716.82	0.060864
1726.46	0.028544
1736.11	0.019554
1745.75	0.014864
1755.4	0.012804
1765.04	0.012654
1774.69	0.010824
1784.33	0.008084
1793.98	0.007274
1803.62	0.007004
1813.27	0.006154
1822.91	0.005524
1832.55	0.005494
1842.2	0.005944
1851.84	0.006274
1861.49	0.007154
1871.13	0.007264
1880.78	0.007694
1890.42	0.008624
1900.07	0.009114
1909.71	0.008284
1919.36	0.007074
1929	0.006914
1938.65	0.006514
1948.29	0.006034
1957.94	0.006004
1967.58	0.006264
1977.23	0.006054
1986.87	0.005704
1996.52	0.005824
2006.16	0.006324
2015.81	0.007114
2025.45	0.007994
2035.1	0.008884
2044.74	0.010614
2054.38	0.012054
2064.03	0.011884
2073.67	0.010594
2083.32	0.008264
2092.96	0.005734
2102.61	0.004594
2112.25	0.003704
2121.9	0.002954
2131.54	0.002604
2141.19	0.002324
2150.83	0.002444
2160.48	0.002234
2170.12	0.002214
2179.77	0.002124
2189.41	0.002144
2199.06	0.002304
2208.7	0.002464
2218.35	0.002144
2227.99	0.002064
2237.64	0.002024
2247.28	0.002164
2256.92	0.002504
2266.57	0.003134
2276.21	0.003904
2285.86	0.004524
2295.5	0.004884
2305.15	0.004154
2314.79	0.003614
2324.44	0.003064
2334.08	0.002994
2343.73	0.003044
2353.37	0.002624
2363.02	0.002684
2372.66	0.003154
2382.31	0.003444
2391.95	0.004404
2401.6	0.004564
2411.24	0.005004
2420.89	0.005634
2430.53	0.005014
2440.18	0.004284
2449.82	0.003494
2459.47	0.003594
2469.11	0.003724
2478.75	0.003974
2488.4	0.004224
2498.04	0.004904
2507.69	0.005714
2517.33	0.006404
2526.98	0.006014
2536.62	0.007024
2546.27	0.009084
2555.91	0.010734
2565.56	0.009724
2575.2	0.007704
2584.85	0.006504
2594.49	0.006104
2604.14	0.005824
2613.78	0.005314
2623.43	0.004604
2633.07	0.004104
2642.72	0.003854
2652.36	0.003464
2662.01	0.003324
2671.65	0.003434
2681.29	0.003744
2690.94	0.003504
2700.58	0.003754
2710.23	0.004104
2719.87	0.003874
2729.52	0.004394
2739.16	0.005694
2748.81	0.006574
2758.45	0.007264
2768.1	0.007804
2777.74	0.008214
2787.39	0.009314
2797.03	0.011914
2806.68	0.014424
2816.32	0.018604
2825.97	0.024254
2835.61	0.038564
2845.26	0.071204
2854.9	0.065194
2864.55	0.052074
2874.19	0.069084
2883.84	0.090384
2893.48	0.086854
2903.12	0.093654
2912.77	0.110474
2922.41	0.121194
2932.06	0.143794
2941.7	0.183884
2951.35	0.190784
2960.99	0.209644
2970.64	0.243004
2980.28	0.171904
2989.93	0.098384
2999.57	0.076464
3009.22	0.096084
3018.86	0.069794
3028.51	0.036244
3038.15	0.033304
3047.8	0.035664
3057.44	0.033884
3067.09	0.032254
3076.73	0.036634
3086.38	0.031484
3096.02	0.027094
3105.67	0.022974
3115.31	0.015964
3124.95	0.011754
3134.6	0.008814
3144.24	0.007674
3153.89	0.006924
3163.53	0.005494
3173.18	0.004394
3182.82	0.003944
3192.47	0.003734
3202.11	0.003324
3211.76	0.002924
3221.4	0.002164
3231.05	0.001764
3240.69	0.001191
3250.34	0.001364
3259.98	0.0012206
3269.63	0.0009372
3279.27	0.0010233
3288.92	0.0010052
3298.56	0.0008763
3308.21	0.0009225
3317.85	0.001354
3327.49	0.001644
3337.14	0.001894
3346.78	0.002604
3356.43	0.004804
3366.07	0.006264
3375.72	0.006644
3385.36	0.004874
3395.01	0.002284
3404.65	0.001384
3414.3	0.0007723
3423.94	0.0005511
3433.59	0.0006132
3443.23	0.0003658
3452.88	0.0006218
3462.52	0.0005985
3472.17	0.0006212
3481.81	0.0005302
3491.46	0.0007266
3501.1	0.00039205
3510.75	0.0004132
3520.39	0.0005908
3530.04	0.000162
3539.68	0.00033962
3549.32	0.000194
3558.97	0.000157
3568.61	0.000181
3578.26	0.0004895
3587.9	0.0004807
3597.55	0.00040076
3607.19	4.7e-05
3616.84	0.0004151
3626.48	0.0002605
3636.13	0.0002334
3645.77	0.0002762
3655.42	0.0007214
3665.06	0.0009117
3674.71	0.000782
3684.35	0.0009356
3694	0.0006632
3703.64	0.0006655
3713.29	0.001025
3722.93	0.0009941
3732.58	0.0009584
3742.22	0.0009289
3751.86	0.000709
3761.51	0.0006728
3771.15	0.0008324
3780.8	0.0005846
3790.44	0.0006289
3800.09	0.0005239
3809.73	0.0007577
3819.38	0.0009173
3829.02	0.0002668
3838.67	0.000646
3848.31	0.0005327
3857.96	0.0009133
3867.6	0.0009603
3877.25	0.001534
3886.89	0.0010985
3896.54	0.0009843
3906.18	0.0010738
3915.83	0.001464
3925.47	0.000761
3935.12	0.0008954
3944.76	0.001354
3954.41	0.001374
3964.05	0.0012668
3973.69	0.001304
3983.34	0.001984
3992.98	0.001994
