Infrared Spectrum: 2-(4-Methoxybenzoyl)thiophene
Formula: C 12 H 10 O 2 S
CAS: 4160-63-8
State: gas
Origin: EPA-IR VAPOR PHASE LIBRARY
1/CM	ABSORBANCE
549.9	0.01115
559.547	0.00887
569.193	0.00859
578.84	0.00834
588.486	0.01279
598.133	0.04338
607.779	0.07444
617.426	0.02726
627.072	0.01497
636.719	0.01555
646.365	0.00925
656.012	0.00725
665.658	0.00891
675.305	0.01283
684.951	0.01505
694.598	0.02781
704.245	0.07863
713.891	0.11824
723.538	0.04773
733.184	0.01597
742.831	0.0211
752.477	0.03965
762.124	0.03772
771.77	0.01999
781.417	0.02206
791.063	0.01596
800.71	0.01348
810.356	0.01887
820.003	0.02491
829.649	0.03831
839.296	0.08527
848.943	0.11056
858.589	0.06491
868.236	0.02106
877.882	0.03715
887.529	0.04548
897.175	0.02634
906.822	0.04566
916.468	0.03306
926.115	0.0106
935.761	0.00668
945.408	0.00694
955.054	0.00763
964.701	0.00881
974.347	0.00689
983.994	0.00802
993.64	0.01029
1003.29	0.01492
1012.93	0.02351
1022.58	0.04553
1032.23	0.09541
1041.87	0.09519
1051.52	0.05047
1061.17	0.02215
1070.81	0.0144
1080.46	0.01434
1090.11	0.0124
1099.75	0.01581
1109.4	0.02165
1119.05	0.02863
1128.69	0.03763
1138.34	0.02645
1147.99	0.02112
1157.63	0.0386
1167.28	0.15449
1176.92	0.19122
1186.57	0.05841
1196.22	0.03341
1205.86	0.03932
1215.51	0.05057
1225.16	0.07091
1234.8	0.1469
1244.45	0.31414
1254.1	0.53475
1263.74	0.32074
1273.39	0.23847
1283.04	0.19469
1292.68	0.15513
1302.33	0.12911
1311.98	0.08488
1321.62	0.04557
1331.27	0.02845
1340.92	0.03153
1350.56	0.07317
1360.21	0.05928
1369.86	0.01795
1379.5	0.01383
1389.15	0.01691
1398.79	0.02869
1408.44	0.07412
1418.09	0.12852
1427.73	0.06193
1437.38	0.02976
1447.03	0.03102
1456.67	0.03122
1466.32	0.04034
1475.97	0.03566
1485.61	0.0335
1495.26	0.0634
1504.91	0.14848
1514.55	0.10782
1524.2	0.04083
1533.85	0.02389
1543.49	0.02245
1553.14	0.02583
1562.79	0.03166
1572.43	0.05061
1582.08	0.07467
1591.73	0.13705
1601.37	0.21669
1611.02	0.1622
1620.67	0.06839
1630.31	0.03703
1639.96	0.04417
1649.6	0.10563
1659.25	0.19359
1668.9	0.15435
1678.54	0.06105
1688.19	0.02755
1697.84	0.02194
1707.48	0.01763
1717.13	0.01231
1726.78	0.0095
1736.42	0.00872
1746.07	0.00776
1755.72	0.00666
1765.36	0.00695
1775.01	0.0062
1784.66	0.00536
1794.3	0.00577
1803.95	0.00609
1813.6	0.00565
1823.24	0.00454
1832.89	0.0037195
1842.54	0.003532
1852.18	0.0038077
1861.83	0.0040615
1871.47	0.0043
1881.12	0.00474
1890.77	0.00539
1900.41	0.00595
1910.06	0.0052
1919.71	0.0040247
1929.35	0.0035207
1939	0.0031745
1948.65	0.0035365
1958.29	0.00425
1967.94	0.0037276
1977.59	0.0030217
1987.23	0.002829
1996.88	0.002769
2006.53	0.003187
2016.17	0.0043
2025.82	0.00546
2035.47	0.0067
2045.11	0.00669
2054.76	0.00619
2064.41	0.00606
2074.05	0.00549
2083.7	0.00448
2093.35	0.003826
2102.99	0.0032943
2112.64	0.002779
2122.28	0.002388
2131.93	0.002265
2141.58	0.002195
2151.22	0.002372
2160.87	0.002524
2170.52	0.002199
2180.16	0.00198
2189.81	0.0019
2199.46	0.00198
2209.1	0.00198
2218.75	0.00183
2228.4	0.00173
2238.04	0.00167
2247.69	0.00178
2257.34	0.002
2266.98	0.002264
2276.63	0.002618
2286.28	0.00310597
2295.92	0.0030605
2305.57	0.002436
2315.22	0.00199
2324.86	0.00181
2334.51	0.00181
2344.16	0.00194
2353.8	0.00201
2363.45	0.00203
2373.09	0.002196
2382.74	0.002547
2392.39	0.00276
2402.03	0.002686
2411.68	0.002669
2421.33	0.0030508
2430.97	0.00311071
2440.62	0.002858
2450.27	0.002964
2459.91	0.0032406
2469.56	0.00311821
2479.21	0.0030478
2488.85	0.003012
2498.5	0.0029879
2508.15	0.0031885
2517.79	0.0033726
2527.44	0.0037119
2537.09	0.00469
2546.73	0.00591
2556.38	0.00622
2566.03	0.00485
2575.67	0.0036861
2585.32	0.0031749
2594.96	0.002924
2604.61	0.002775
2614.26	0.002613
2623.9	0.002511
2633.55	0.002412
2643.2	0.002389
2652.84	0.00191
2662.49	0.00147
2672.14	0.00135
2681.78	0.00147
2691.43	0.00146
2701.08	0.00143
2710.72	0.00142
2720.37	0.00147
2730.02	0.00152
2739.66	0.00167
2749.31	0.00172
2758.96	0.00196
2768.6	0.002178
2778.25	0.002365
2787.9	0.002758
2797.54	0.0032871
2807.19	0.00416
2816.84	0.00571
2826.48	0.00761
2836.13	0.01285
2845.77	0.02769
2855.42	0.02089
2865.07	0.01015
2874.71	0.00805
2884.36	0.00805
2894.01	0.00951
2903.65	0.0132
2913.3	0.01879
2922.95	0.02007
2932.59	0.02188
2942.24	0.03138
2951.89	0.03516
2961.53	0.03161
2971.18	0.02305
2980.83	0.0148
2990.47	0.01277
3000.12	0.01814
3009.77	0.03373
3019.41	0.02313
3029.06	0.01008
3038.71	0.00935
3048.35	0.01037
3058	0.00946
3067.64	0.01107
3077.29	0.01836
3086.94	0.01973
3096.58	0.01324
3106.23	0.00995
3115.88	0.00713
3125.52	0.0039015
3135.17	0.002168
3144.82	0.00155
3154.46	0.0011
3164.11	0.0006
3173.76	0.00048
3183.4	0.00034
3193.05	0.0004
3202.7	0.0003
3212.34	0.00041
3221.99	0.00021
3231.64	0.00018
3241.28	0.00011
3250.93	0.00026
3260.58	0.00032
3270.22	0.00057
3279.87	0.00066
3289.52	0.0014
3299.16	0.002481
3308.81	0.002321
3318.45	0.0015
3328.1	0.00113
3337.75	0.00073
3347.39	0.00049
3357.04	0.00058
3366.69	0.00047
3376.33	0.00026
3385.98	0.00032
3395.63	0.00023
3405.27	0.00046
3414.92	0.00041
3424.57	0.00036
3434.21	0.00027
3443.86	0.00055
3453.51	0.00057
3463.15	0.00055
3472.8	0.00075
3482.45	0.00071
3492.09	0.00083
3501.74	0.00095
3511.39	0.00081
3521.03	0.00082
3530.68	0.0008
3540.33	0.00094
3549.97	0.00091
3559.62	0.00105
3569.26	0.00093
3578.91	0.00099
3588.56	0.00105
3598.2	0.00116
3607.85	0.00121
3617.5	0.00119
3627.14	0.00136
3636.79	0.00126
3646.44	0.00131
3656.08	0.00137
3665.73	0.00129
3675.38	0.00154
3685.02	0.00156
3694.67	0.0015
3704.32	0.0016
3713.96	0.00152
3723.61	0.00153
3733.26	0.00155
3742.9	0.0016
3752.55	0.00157
3762.2	0.00153
3771.84	0.00149
3781.49	0.00154
3791.13	0.00154
3800.78	0.00153
3810.43	0.00152
3820.07	0.00168
3829.72	0.00201
3839.37	0.002237
3849.01	0.00205
3858.66	0.00192
3868.31	0.00179
3877.95	0.00178
3887.6	0.00189
3897.25	0.00159
3906.89	0.00159
3916.54	0.00165
3926.19	0.0017
3935.83	0.00205
3945.48	0.002144
3955.13	0.002073
3964.77	0.002254
3974.42	0.002293
3984.07	0.00214
3993.71	0.00191
