Infrared Spectrum: 2-PENTANONE, 4-HYDROXY-
Formula: C5 H10 O2
CAS: 4161-60-8
Class: COBLENTZ
Instrument: Not specified, most likely a prism, grating, or hybrid spectrometer.
Sampling: TRANSMISSION
Path length: SMEAR
Resolution: 4
Origin: TENNESSEE EASTMAN COMPANY, RESEARCH LABORATORIES
MICROMETERS	TRANSMITTANCE
2.013	0.948
2.05298	0.948
2.09296	0.946
2.13295	0.946
2.17293	0.946
2.21291	0.946
2.25289	0.941
2.29287	0.931
2.33285	0.929
2.37284	0.931
2.41282	0.931
2.4528	0.931
2.49278	0.931
2.53276	0.933
2.57275	0.939
2.61273	0.939
2.65271	0.939
2.69269	0.931
2.73267	0.824
2.77265	0.669
2.81264	0.517
2.85262	0.353
2.8926	0.268
2.93258	0.235
2.97256	0.243
3.01254	0.31
3.05253	0.385
3.09251	0.465
3.13249	0.562
3.17247	0.671
3.21245	0.739
3.25244	0.776
3.29242	0.784
3.3324	0.659
3.37238	0.327
3.41236	0.494
3.45234	0.56
3.49233	0.697
3.53231	0.782
3.57229	0.823
3.61227	0.848
3.65225	0.856
3.69224	0.859
3.73222	0.864
3.7722	0.874
3.81218	0.876
3.85216	0.881
3.89214	0.886
3.93213	0.896
3.97211	0.898
4.01209	0.903
4.05207	0.909
4.09205	0.916
4.13203	0.921
4.17202	0.926
4.212	0.928
4.25198	0.948
4.29196	0.948
4.33194	0.943
4.37193	0.938
4.41191	0.939
4.45189	0.939
4.49187	0.939
4.53185	0.934
4.57183	0.931
4.61182	0.929
4.6518	0.928
4.69178	0.928
4.73176	0.928
4.77174	0.928
4.81173	0.928
4.85171	0.928
4.89169	0.928
4.93167	0.928
4.97165	0.928
5.01163	0.939
5.05162	0.939
5.0916	0.939
5.13158	0.938
5.17156	0.936
5.21154	0.938
5.25153	0.936
5.29151	0.936
5.33149	0.933
5.37147	0.928
5.41145	0.928
5.45143	0.924
5.49142	0.909
5.5314	0.904
5.57138	0.884
5.61136	0.869
5.65134	0.836
5.69132	0.799
5.73131	0.697
5.77129	0.465
5.81127	0.235
5.85125	0.083
5.89123	0.083
5.93122	0.25
5.9712	0.445
6.01118	0.457
6.05116	0.504
6.09114	0.542
6.13112	0.562
6.17111	0.617
6.21109	0.707
6.25107	0.779
6.29105	0.813
6.33103	0.823
6.37102	0.829
6.411	0.836
6.45098	0.849
6.49096	0.843
6.53094	0.843
6.57092	0.834
6.61091	0.829
6.65089	0.819
6.69087	0.797
6.73085	0.754
6.77083	0.654
6.81082	0.58
6.8508	0.534
6.89078	0.502
6.93076	0.477
6.97074	0.432
7.01072	0.392
7.05071	0.373
7.09069	0.373
7.13067	0.377
7.17065	0.372
7.21063	0.332
7.25061	0.25
7.2906	0.208
7.33058	0.207
7.37056	0.21
7.41054	0.337
7.45052	0.442
7.49051	0.467
7.53049	0.475
7.57047	0.48
7.61045	0.485
7.65043	0.499
7.69041	0.51
7.7304	0.51
7.77038	0.485
7.81036	0.465
7.85034	0.48
7.89032	0.512
7.93031	0.529
7.97029	0.549
8.01027	0.552
8.05025	0.54
8.09023	0.54
8.13021	0.559
8.1702	0.557
8.21018	0.55
8.25016	0.549
8.29014	0.549
8.33012	0.542
8.3701	0.507
8.41009	0.46
8.45007	0.42
8.49005	0.36
8.53003	0.33
8.57001	0.352
8.61	0.44
8.64998	0.477
8.68996	0.477
8.72994	0.45
8.76992	0.409
8.8099	0.357
8.84989	0.32
8.88987	0.318
8.92985	0.333
8.96983	0.388
9.00981	0.43
9.0498	0.444
9.08978	0.444
9.12976	0.444
9.16974	0.444
9.20972	0.439
9.2497	0.432
9.28969	0.447
9.32967	0.497
9.36965	0.549
9.40963	0.562
9.44961	0.601
9.4896	0.622
9.52958	0.651
9.56956	0.672
9.60954	0.689
9.64952	0.699
9.6895	0.707
9.72949	0.711
9.76947	0.714
9.80945	0.717
9.84943	0.719
9.88941	0.721
9.92939	0.719
9.96938	0.706
10.0094	0.684
10.0493	0.664
10.0893	0.632
10.1293	0.599
10.1693	0.559
10.2093	0.537
10.2492	0.53
10.2892	0.53
10.3292	0.547
10.3692	0.565
10.4092	0.599
10.4492	0.601
10.4891	0.595
10.5291	0.577
10.5691	0.544
10.6091	0.525
10.6491	0.525
10.689	0.55
10.729	0.602
10.769	0.649
10.809	0.682
10.849	0.699
10.889	0.702
10.9289	0.702
10.9689	0.702
11.0089	0.709
11.0489	0.722
11.0889	0.736
11.1288	0.752
11.1688	0.756
11.2088	0.759
11.2488	0.759
11.2888	0.761
11.3288	0.761
11.3687	0.761
11.4087	0.761
11.4487	0.761
11.4887	0.757
11.5287	0.744
11.5686	0.731
11.6086	0.726
11.6486	0.727
11.6886	0.729
11.7286	0.732
11.7686	0.732
11.8085	0.734
11.8485	0.734
11.8885	0.736
11.9285	0.739
11.9685	0.742
12.0084	0.741
12.0484	0.741
12.0884	0.741
12.1284	0.741
12.1684	0.744
12.2084	0.747
12.2483	0.749
12.2883	0.749
12.3283	0.747
12.3683	0.749
12.4083	0.751
12.4482	0.749
12.4882	0.747
12.5282	0.747
12.5682	0.749
12.6082	0.749
12.6482	0.751
12.6881	0.751
12.7281	0.752
12.7681	0.752
12.8081	0.752
12.8481	0.751
12.888	0.751
12.928	0.749
12.968	0.749
13.008	0.747
13.048	0.744
13.088	0.739
13.1279	0.736
13.1679	0.731
13.2079	0.731
13.2479	0.729
13.2879	0.727
13.3278	0.724
13.3678	0.722
13.4078	0.719
13.4478	0.712
13.4878	0.709
13.5278	0.702
13.5677	0.699
13.6077	0.696
13.6477	0.689
13.6877	0.682
13.7277	0.679
13.7676	0.672
13.8076	0.669
13.8476	0.666
13.8876	0.659
13.9276	0.654
13.9676	0.651
14.0075	0.646
14.0475	0.646
14.0875	0.641
14.1275	0.632
14.1675	0.626
14.2074	0.622
14.2474	0.619
14.2874	0.616
14.3274	0.612
14.3674	0.609
14.4074	0.604
14.4473	0.599
14.4873	0.594
14.5273	0.587
14.5673	0.584
14.6073	0.579
14.6472	0.564
14.6872	0.555
14.7272	0.554
14.7672	0.55
14.8072	0.55
14.8472	0.547
14.8871	0.544
14.9271	0.537
14.9671	0.534
15.0071	0.534
15.0471	0.53
15.087	0.517
15.127	0.507
15.167	0.502
15.207	0.5
15.247	0.499
15.287	0.497
15.3269	0.495
15.3669	0.492
15.4069	0.49
15.4469	0.49
15.4869	0.487
15.5268	0.487
15.5668	0.484
15.6068	0.484
15.6468	0.484
15.6868	0.484
15.7268	0.485
15.7667	0.484
15.8067	0.484
15.8467	0.484
15.8867	0.485
15.9267	0.485
15.9666	0.485
